data_functionalizedCrystal
_audit_creation_method	'MofGen! by Chris Wilmer'
_symmetry_space_group_name_H-M	'P1'
_symmetry_Int_Tables_number	1
_symmetry_cell_setting	triclinic
loop_
_symmetry_equiv_pos_as_xyz
  x,y,z
_cell_length_a	17.019311
_cell_length_b	17.038272
_cell_length_c	9.565339
_cell_angle_alpha	89.999972
_cell_angle_beta	86.116730
_cell_angle_gamma	87.245400
loop_
_atom_site_label
_atom_site_type_symbol
_atom_site_fract_x
_atom_site_fract_y
_atom_site_fract_z
O1	O	1.053363	0.099620	-0.243075
O2	O	0.824550	0.112315	-0.215531
O3	O	0.937597	-0.007847	-0.229128
O4	O	0.940316	0.219782	-0.229478
O5	O	0.937588	-0.007839	0.003393
O6	O	0.824541	0.112323	0.016990
O7	O	1.053354	0.099627	-0.010554
Zn8	Zn	0.938946	0.105976	0.040136
Zn9	Zn	0.938958	0.105966	-0.266221
O10	O	0.940307	0.219789	0.003043
C11	C	0.795124	0.111837	-0.095729
C12	C	0.707457	0.110390	-0.085176
C13	C	0.211627	0.102236	-0.019133
C14	C	0.293999	0.103595	-0.029051
C15	C	0.335191	0.104265	-0.160760
C16	C	0.294006	0.103583	-0.282558
C17	C	0.211634	0.102230	-0.272638
C18	C	0.583900	0.108355	-0.197053
C19	C	0.666277	0.109707	-0.206964
C20	C	0.666265	0.109720	0.046544
C21	C	0.583893	0.108362	0.056452
C22	C	0.542714	0.107685	-0.065346
C23	C	0.419389	0.105651	-0.170902
C24	C	0.458517	0.106304	-0.055203
C25	C	0.935118	-0.036969	-0.112570
C26	C	0.927738	-0.123756	-0.111682
C27	C	0.995498	-0.173927	-0.119837
C28	C	0.988559	-0.255471	-0.119015
C29	C	0.913859	-0.286844	-0.110028
C30	C	0.846094	-0.236667	-0.101876
C31	C	0.853034	-0.155123	-0.102708
C32	C	0.889341	-0.532581	-0.107096
C33	C	0.882406	-0.614131	-0.106260
C34	C	1.024872	-0.632930	-0.123402
C35	C	1.031805	-0.551384	-0.124224
C36	C	0.964040	-0.501214	-0.116080
C37	C	0.906764	-0.370195	-0.109183
C38	C	0.971136	-0.417864	-0.116935
C39	C	1.082780	0.100106	-0.130359
C40	C	1.170447	0.101552	-0.140921
C41	C	0.942786	0.248912	-0.113518
C42	C	0.950166	0.335698	-0.114415
N43	N	0.938944	0.105982	0.249216
N44	N	0.938966	0.105954	-0.475301
C45	C	0.886645	0.161535	0.346709
C46	C	0.958941	0.176627	0.431184
C47	C	0.866679	0.090897	0.442293
C48	C	1.011278	0.121109	0.331634
C49	C	0.918966	0.035349	0.342741
C50	C	0.991312	0.050410	0.427167
H51	H	0.327524	0.104150	0.070122
C52	C	1.077675	-0.139425	-0.129724
N53	N	1.139573	-0.113442	-0.137177
C54	C	0.826963	0.225058	0.298677
N55	N	0.782015	0.272906	0.262494
H56	H	0.327550	0.104133	-0.389799
C57	C	0.166337	0.101474	-0.406616
N58	N	0.132220	0.100907	-0.507533
C59	C	0.800226	-0.648638	-0.096383
N60	N	0.738332	-0.674628	-0.088945
C61	C	1.063101	-0.310656	-0.127964
N62	N	1.119250	-0.352222	-0.134698
H63	H	0.550382	0.107801	-0.296230
C64	C	0.981784	0.257305	0.483787
N65	N	0.998983	0.318074	0.523409
C66	C	0.711586	0.110455	-0.351861
N67	N	0.745712	0.111022	-0.460991
C68	C	0.896088	-0.045305	0.290103
N69	N	0.878847	-0.106053	0.250454
C70	C	0.763922	-0.271179	-0.091978
N71	N	0.702029	-0.297173	-0.084512
C72	C	0.824595	-0.404713	-0.099268
N73	N	0.762706	-0.430715	-0.091794
C74	C	1.093876	0.138432	0.266591
N75	N	1.156087	0.151482	0.217597
C76	C	1.099408	-0.688123	-0.132373
N77	N	1.155552	-0.729695	-0.139137
C78	C	1.051144	-0.013070	0.474842
N79	N	1.096212	-0.060877	0.510759
C80	C	0.413203	0.105566	0.089673
N81	N	0.379066	0.105007	0.198794
H82	H	0.452937	0.106194	-0.278140
H83	H	1.092634	-0.525848	-0.131543
H84	H	0.834161	-0.491742	-0.100463
H85	H	0.797856	-0.114274	-0.096068
H86	H	0.178094	0.101694	0.088119
H87	H	0.550361	0.107800	0.163703
H88	H	1.031956	-0.392317	-0.124284
H89	H	0.805556	0.078149	0.490616
H90	H	0.699802	0.110273	0.145704
