data_functionalizedCrystal
_audit_creation_method	'MofGen! by Chris Wilmer'
_symmetry_space_group_name_H-M	'P1'
_symmetry_Int_Tables_number	1
_symmetry_cell_setting	triclinic
loop_
_symmetry_equiv_pos_as_xyz
  x,y,z
_cell_length_a	29.839125
_cell_length_b	12.759401
_cell_length_c	12.759400
_cell_angle_alpha	89.985393
_cell_angle_beta	89.990007
_cell_angle_gamma	90.009063
loop_
_atom_site_label
_atom_site_type_symbol
_atom_site_fract_x
_atom_site_fract_y
_atom_site_fract_z
Zn1	Zn	-0.253994	-1.606159	-0.418409
Zn2	Zn	-0.178874	-1.606083	-0.594066
Zn3	Zn	-0.178881	-1.430490	-0.418402
Zn4	Zn	-0.253980	-1.430451	-0.594047
O5	O	-0.216432	-1.518296	-0.506231
O6	O	-0.244033	-1.753170	-0.441721
O7	O	-0.116008	-1.582775	-0.570769
O8	O	-0.188854	-1.453841	-0.271382
O9	O	-0.188843	-1.753115	-0.570776
O10	O	-0.244039	-1.582905	-0.271387
O11	O	-0.116013	-1.453768	-0.441709
O12	O	-0.188839	-1.283464	-0.441691
O13	O	-0.316849	-1.453774	-0.570743
O14	O	-0.244014	-1.283435	-0.570737
O15	O	-0.316860	-1.582867	-0.441703
O16	O	-0.188828	-1.582737	-0.741085
O17	O	-0.244008	-1.453701	-0.741071
C18	C	-0.216426	-1.245329	-0.506212
C19	C	-0.216434	-1.128552	-0.506229
C20	C	-0.333611	-1.518324	-0.506222
C21	C	-0.383545	-1.518337	-0.506218
C22	C	-0.216426	-1.518235	-0.779199
C23	C	-0.216438	-1.518305	-0.895975
C24	C	-0.693197	-1.585626	-0.438850
C25	C	-0.880870	-1.585678	-0.438761
O26	O	-0.905142	-1.642811	-0.381582
N27	N	-0.904330	-1.518476	-0.505936
C28	C	-0.880869	-1.451251	-0.573134
O29	O	-0.905130	-1.394085	-0.630261
C30	C	-0.693197	-1.451195	-0.573218
C31	C	-0.669739	-1.518408	-0.506045
C32	C	-0.669740	-1.652833	-0.371683
C33	C	-0.622824	-1.652823	-0.371710
C34	C	-0.599366	-1.585606	-0.438905
C35	C	-0.622824	-1.518399	-0.506072
C36	C	-0.669737	-1.383965	-0.640409
C37	C	-0.622816	-1.383955	-0.640422
C38	C	-0.599358	-1.451169	-0.573250
C39	C	-0.552451	-1.451172	-0.573294
N40	N	-0.528991	-1.518374	-0.506119
C41	C	-0.552448	-1.585591	-0.438924
C42	C	-0.979400	-1.451287	-0.573087
C43	C	-1.026318	-1.451302	-0.573068
C44	C	-1.026316	-1.585728	-0.438693
C45	C	-0.979397	-1.585717	-0.438718
C46	C	-0.955940	-1.518489	-0.505911
C47	C	-0.453923	-1.585566	-0.438987
C48	C	-0.407003	-1.585554	-0.439023
C49	C	-0.407009	-1.451125	-0.573393
C50	C	-0.453925	-1.451141	-0.573362
C51	C	-0.477380	-1.518365	-0.506150
O52	O	-0.528150	-1.394060	-0.630435
O53	O	-0.528180	-1.642732	-0.381789
C54	C	-0.740113	-1.585635	-0.438823
C55	C	-0.763570	-1.518428	-0.505991
C56	C	-0.740113	-1.451211	-0.573186
C57	C	-0.810488	-1.518443	-0.505972
C58	C	-0.833946	-1.585660	-0.438777
C59	C	-0.810486	-1.652862	-0.371601
C60	C	-0.763571	-1.652852	-0.371628
C61	C	-0.763573	-1.384009	-0.640361
C62	C	-0.810488	-1.384025	-0.640330
C63	C	-0.833946	-1.451242	-0.573135
C64	C	-0.099710	-1.518328	-0.506165
C65	C	-0.049776	-1.518520	-0.505873
C66	C	-0.216439	-1.792329	-0.506251
C67	C	-0.216441	-1.909106	-0.506260
C68	C	-0.245116	-1.073702	-0.573530
C69	C	-0.245121	-0.963978	-0.573544
C70	C	-0.187758	-0.963963	-0.438951
C71	C	-0.187756	-1.073685	-0.438933
C72	C	-0.273795	-1.128569	-0.640826
C73	C	-0.302479	-1.073719	-0.708134
C74	C	-0.302484	-0.963995	-0.708147
C75	C	-0.273804	-0.909121	-0.640853
C76	C	-0.245156	-1.451156	-1.060593
C77	C	-0.245148	-1.451098	-0.950869
C78	C	-0.187737	-1.585581	-0.950811
C79	C	-0.187747	-1.585643	-1.060533
C80	C	-0.273864	-1.383937	-1.115481
C81	C	-0.302566	-1.316662	-1.060653
C82	C	-0.302559	-1.316605	-0.950929
C83	C	-0.273849	-1.383822	-0.896033
C84	C	-0.216449	-1.518386	-0.232198
C85	C	-0.216456	-1.518424	-0.115421
H86	H	-0.387906	-1.640291	-0.384322
H87	H	-0.744478	-1.329272	-0.695082
C88	C	-0.273875	-1.383993	-1.236179
N89	N	-0.273882	-1.384035	-1.327090
H90	H	-0.744475	-1.707584	-0.316929
H91	H	-0.164404	-1.118345	-0.384123
H92	H	-0.164378	-1.640422	-1.105175
H93	H	-0.603720	-1.329198	-0.695130
C94	C	-0.334142	-1.242629	-0.890620
N95	N	-0.357934	-1.186911	-0.845198
C96	C	-0.273781	-1.249268	-0.640843
N97	N	-0.273766	-1.340178	-0.640865
C98	C	-0.695530	-1.310015	-0.714297
N99	N	-0.714956	-1.254307	-0.769950
C100	C	-0.334035	-0.903664	-0.782189
N101	N	-0.357797	-0.858224	-0.837968
C102	C	-1.052128	-1.659661	-0.364771
N103	N	-1.071572	-1.715338	-0.309091
C104	C	-0.156155	-1.659506	-0.890421
N105	N	-0.132365	-1.715184	-0.844936
C106	C	-0.273812	-0.788421	-0.640870
N107	N	-0.273816	-0.697510	-0.640890
C108	C	-0.836299	-1.726796	-0.297681
N109	N	-0.855743	-1.782474	-0.242002
H110	H	-0.603729	-1.707554	-0.317009
H111	H	-0.829583	-1.329293	-0.695040
H112	H	-0.273848	-1.383776	-0.806688
H113	H	-0.325943	-1.261943	-1.105356
H114	H	-0.473014	-1.640303	-0.384253
C115	C	-0.695536	-1.726788	-0.297760
N116	N	-0.714962	-1.782502	-0.242083
C117	C	-0.156211	-0.903597	-0.364939
N118	N	-0.132447	-0.858129	-0.309194
H119	H	-0.325831	-1.118405	-0.762916
H120	H	-0.960301	-1.640447	-0.384019
H121	H	-1.045413	-1.396582	-0.627778
C122	C	-0.479729	-1.377209	-0.647261
N123	N	-0.499161	-1.321515	-0.702916
C124	C	-0.381197	-1.377184	-0.647299
N125	N	-0.361753	-1.321484	-0.702958
C126	C	-0.953603	-1.377327	-0.647011
N127	N	-0.934175	-1.321622	-0.702694
