data_functionalizedCrystal
_audit_creation_method	'MofGen! by Chris Wilmer'
_symmetry_space_group_name_H-M	'P1'
_symmetry_Int_Tables_number	1
_symmetry_cell_setting	triclinic
loop_
_symmetry_equiv_pos_as_xyz
  x,y,z
_cell_length_a	18.050590
_cell_length_b	11.169417
_cell_length_c	11.169409
_cell_angle_alpha	90.019824
_cell_angle_beta	89.962017
_cell_angle_gamma	89.980569
loop_
_atom_site_label
_atom_site_type_symbol
_atom_site_fract_x
_atom_site_fract_y
_atom_site_fract_z
Zn1	Zn	-0.295582	-1.834894	-0.678496
Zn2	Zn	-0.419797	-1.834754	-0.477793
Zn3	Zn	-0.295627	-1.634180	-0.477830
Zn4	Zn	-0.419736	-1.634158	-0.678438
O5	O	-0.357686	-1.734497	-0.578139
O6	O	-0.312066	-2.002825	-0.651881
O7	O	-0.403370	-1.808098	-0.309848
O8	O	-0.191697	-1.660872	-0.504489
O9	O	-0.403326	-2.002723	-0.504425
O10	O	-0.191663	-1.808336	-0.651917
O11	O	-0.312143	-1.660737	-0.309875
O12	O	-0.312084	-1.466227	-0.504432
O13	O	-0.403223	-1.660836	-0.846395
O14	O	-0.403267	-1.466212	-0.651818
O15	O	-0.312007	-1.808315	-0.846438
O16	O	-0.523714	-1.808078	-0.504369
O17	O	-0.523669	-1.660701	-0.651782
C18	C	-0.357674	-1.422672	-0.578124
C19	C	-0.357687	-1.289272	-0.578145
C20	C	-0.550638	-1.734404	-0.578091
C21	C	-0.633184	-1.734475	-0.578111
C22	C	-0.357603	-1.734589	-0.891182
C23	C	-0.357568	-1.734628	-1.024582
C24	C	-0.832631	-1.814785	-0.498060
C25	C	-0.881952	-1.844109	-0.607596
C26	C	-0.784314	-1.734543	-0.578159
C27	C	-0.882074	-1.705341	-0.468672
C28	C	-0.930299	-1.734611	-0.578195
C29	C	-0.832548	-1.763923	-0.687752
C30	C	-0.832665	-1.625104	-0.548755
C31	C	-0.881964	-1.654386	-0.658366
C32	C	-0.700216	-1.734507	-0.578136
C33	C	-1.014395	-1.734647	-0.578230
C34	C	-0.163980	-1.734622	-0.578213
C35	C	-0.081434	-1.734675	-0.578245
C36	C	-0.357697	-2.047539	-0.578155
C37	C	-0.357703	-2.180939	-0.578162
C38	C	-0.357714	-1.734474	-0.266314
C39	C	-0.357540	-1.734667	-0.132915
H40	H	-0.810969	-1.882666	-0.430392
H41	H	-0.903604	-1.936688	-0.632489
O42	O	-0.806588	-1.793591	-0.798179
C43	C	-0.728483	-1.793216	-0.796821
H44	H	-0.708081	-1.806603	-0.701187
H45	H	-0.706856	-1.868884	-0.855792
H46	H	-0.707354	-1.703860	-0.832385
H47	H	-0.903489	-1.586557	-0.726198
O48	O	-0.806844	-1.514727	-0.518813
C49	C	-0.832052	-1.484234	-0.403251
H50	H	-0.845917	-1.569315	-0.351549
H51	H	-0.786888	-1.432701	-0.353968
H52	H	-0.883732	-1.426028	-0.410788
O53	O	-0.907938	-1.675972	-0.358105
C54	C	-0.882817	-1.760795	-0.273937
H55	H	-0.830780	-1.806468	-0.309523
H56	H	-0.869571	-1.713781	-0.185911
H57	H	-0.927785	-1.830722	-0.258313
