data_functionalizedCrystal
_audit_creation_method	'MofGen! by Chris Wilmer'
_symmetry_space_group_name_H-M	'P1'
_symmetry_Int_Tables_number	1
_symmetry_cell_setting	triclinic
loop_
_symmetry_equiv_pos_as_xyz
  x,y,z
_cell_length_a	19.851628
_cell_length_b	20.875492
_cell_length_c	20.875625
_cell_angle_alpha	60.168684
_cell_angle_beta	92.971553
_cell_angle_gamma	58.321399
loop_
_atom_site_label
_atom_site_type_symbol
_atom_site_fract_x
_atom_site_fract_y
_atom_site_fract_z
Zr1	Zr	0.601821	0.740711	-0.122788
O2	O	0.480587	0.881861	-0.232556
O3	O	0.644601	0.599554	-0.084040
O4	O	0.629208	0.740717	-0.225213
O5	O	0.501735	0.740697	0.014177
O6	O	0.740056	0.740730	-0.225219
O7	O	0.495980	0.740698	-0.091384
O8	O	0.767591	0.488215	0.027312
O9	O	0.474200	0.993212	-0.238355
O10	O	0.738787	0.657626	-0.073679
O11	O	0.660357	0.657616	0.005104
O12	O	0.642234	0.823817	-0.161108
O13	O	0.563804	0.823806	-0.082325
Zr14	Zr	0.787789	0.740730	0.045558
Zr15	Zr	0.778610	0.740732	-0.122799
Zr16	Zr	0.611000	0.740709	0.045568
Zr17	Zr	0.591634	0.918303	-0.132037
Zr18	Zr	0.797976	0.563139	0.054807
O19	O	0.745009	0.881888	0.006810
O20	O	0.731959	0.881891	-0.232571
O21	O	0.493637	0.881858	0.006825
O22	O	0.909023	0.599580	0.155326
O23	O	0.895973	0.599583	-0.084055
O24	O	0.657652	0.599551	0.155341
O25	O	0.887875	0.740745	-0.091407
O26	O	0.760402	0.740725	0.147983
O27	O	0.649554	0.740712	0.147989
O28	O	0.893630	0.740743	0.014153
O29	O	0.614724	0.993228	-0.238363
O30	O	0.774887	0.488213	0.161133
O31	O	0.915410	0.488230	0.161125
O32	O	0.908115	0.488231	0.027304
O33	O	0.481495	0.993210	-0.104534
O34	O	0.622019	0.993227	-0.104543
O35	O	0.747376	0.657624	0.083878
O36	O	0.825806	0.657635	0.005095
O37	O	0.729253	0.823826	-0.082335
O38	O	0.650823	0.823815	-0.003551
C39	C	0.707547	0.518581	-0.027046
C40	C	0.711872	0.443189	-0.023120
C41	C	0.646143	0.469129	-0.082634
C42	C	0.650207	0.398303	-0.078973
C43	C	0.719997	0.301538	-0.015794
C44	C	0.785732	0.275599	0.043723
C45	C	0.781671	0.346424	0.040058
C46	C	0.739412	0.083138	0.001742
C47	C	0.743467	0.012313	0.005404
C48	C	0.607942	0.135022	-0.117294
C49	C	0.603884	0.205843	-0.120950
C50	C	0.669622	0.179898	-0.061436
N51	N	0.724151	0.229142	-0.012049
N52	N	0.665470	0.252294	-0.065185
C53	C	0.473669	0.740695	-0.038602
C54	C	0.398617	0.740686	-0.038598
C55	C	0.269894	0.650093	0.009061
C56	C	0.201544	0.695388	0.037838
C57	C	0.261184	0.740711	-0.038609
C58	C	0.195800	0.695410	-0.067358
C59	C	0.128433	0.740728	-0.038619
C60	C	0.193825	0.786006	-0.009790
C61	C	0.188089	0.786015	-0.115026
C62	C	0.119723	0.831376	-0.086272
C63	C	0.337659	0.740698	-0.038601
C64	C	0.051955	0.740747	-0.038626
C65	C	0.915941	0.740747	-0.038628
C66	C	0.990993	0.740756	-0.038633
C67	C	0.683324	0.740723	-0.249203
C68	C	0.679428	0.740724	-0.320675
C69	C	0.682063	0.962860	-0.050184
C70	C	0.677738	1.038252	-0.054110
C71	C	0.738664	0.740733	-0.354256
C72	C	0.735005	0.740725	-0.421407
C73	C	0.672106	0.740716	-0.454979
C74	C	0.612868	0.740705	-0.421392
C75	C	0.616531	0.740705	-0.354238
C76	C	0.654607	0.740706	-0.655815
C77	C	0.650946	0.740709	-0.722974
C78	C	0.773086	0.740728	-0.722984
C79	C	0.776740	0.740734	-0.655832
C80	C	0.717504	0.740718	-0.622248
N81	N	0.668364	0.740711	-0.523619
N82	N	0.721251	0.740716	-0.553605
C83	C	0.706286	0.740718	0.171973
C84	C	0.710182	0.740717	0.243445
C85	C	0.928684	0.518607	-0.027059
C86	C	1.008060	0.443224	-0.023137
C87	C	0.719028	0.518579	0.183542
C88	C	0.727249	0.443186	0.258940
C89	C	0.940165	0.518605	0.183529
C90	C	1.023437	0.443220	0.258922
C91	C	0.449445	0.962837	-0.260759
C92	C	0.366173	1.038221	-0.336153
C93	C	0.460926	0.962834	-0.050171
C94	C	0.381550	1.038218	-0.054093
C95	C	0.670582	0.962863	-0.260772
C96	C	0.662361	1.038256	-0.336170
C97	C	0.999913	0.407819	-0.062422
C98	C	1.074487	0.336998	-0.058753
C99	C	1.157208	0.301579	-0.015795
C100	C	1.165354	0.336991	0.023491
C101	C	1.090780	0.407816	0.019816
C102	C	0.776534	0.407785	0.335474
C103	C	0.784255	0.336955	0.406324
C104	C	0.742696	0.301522	0.400639
C105	C	0.693406	0.336930	0.324097
C106	C	0.685680	0.407763	0.253248
C107	C	1.103490	0.407825	0.253204
C108	C	1.181740	0.337003	0.324037
C109	C	1.179935	0.301574	0.400589
C110	C	1.099873	0.336976	0.406305
C111	C	1.021626	0.407801	0.335472
C112	C	0.286119	1.073625	-0.330435
C113	C	0.207869	1.144469	-0.401269
C114	C	0.209673	1.179902	-0.477821
C115	C	0.289735	1.144495	-0.483537
C116	C	0.367984	1.073658	-0.412703
C117	C	0.389697	1.073630	-0.014816
C118	C	0.315120	1.144471	-0.018504
C119	C	0.232398	1.179892	-0.061465
C120	C	0.224253	1.144476	-0.100747
C121	C	0.298828	1.073642	-0.097063
C122	C	0.703930	1.073666	-0.330459
C123	C	0.696223	1.144497	-0.401296
C124	C	0.646940	1.179920	-0.477845
C125	C	0.605370	1.144503	-0.483554
C126	C	0.613083	1.073669	-0.412717
H127	H	0.596683	0.419433	-0.127435
N128	N	0.193616	0.834004	0.020818
N129	N	0.135422	0.868236	0.042592
H130	H	0.135277	0.902131	0.064212
H131	H	0.195904	0.657095	-0.091669
H132	H	0.842560	0.196806	0.095161
H133	H	1.232716	0.308143	0.058466
H134	H	0.565244	1.173356	-0.545889
N135	N	1.233410	0.229193	-0.011982
N136	N	1.292123	0.150162	0.055488
H137	H	1.345950	0.099028	0.058199
N138	N	1.098054	0.300767	0.484510
N139	N	1.167930	0.237523	0.547740
H140	H	1.166649	0.211942	0.602975
H141	H	0.579227	1.044846	-0.417379
N142	N	0.639077	1.252273	-0.550191
N143	N	0.676201	1.283876	-0.545071
H144	H	0.670650	1.334977	-0.596163
N145	N	1.099126	0.443965	0.059953
N146	N	1.172993	0.412325	0.098305
H147	H	1.178894	0.437853	0.126654
N148	N	0.818999	0.443954	0.341308
N149	N	0.862995	0.412329	0.409655
H150	H	0.892987	0.437872	0.413783
H151	H	0.145952	1.237582	-0.535491
H152	H	0.334105	0.573471	0.049421
H153	H	1.067838	0.308174	-0.090744
H154	H	0.824394	0.308134	0.468641
N155	N	0.532575	0.304680	-0.185478
N156	N	0.473885	0.327828	-0.238604
H157	H	0.423515	0.397633	-0.284173
N158	N	0.840994	0.740727	-0.621523
N159	N	0.844257	0.740725	-0.561564
H160	H	0.889636	0.740721	-0.537332
N161	N	1.105331	0.444029	0.175008
N162	N	1.035470	0.507269	0.111762
H163	H	1.036774	0.532840	0.056537
N164	N	0.039281	0.927571	-0.136857
N165	N	-0.016055	0.956626	-0.197317
H166	H	-0.072865	1.024565	-0.233045
H167	H	0.748994	0.243845	0.458335
N168	N	0.156225	1.252258	-0.065234
N169	N	0.138057	1.331306	-0.095959
H170	H	0.084262	1.382414	-0.098618
H171	H	0.645551	0.436577	0.190934
H172	H	0.156891	1.173327	-0.135725
N173	N	0.181932	0.834016	-0.196074
N174	N	0.182541	0.803117	-0.234397
H175	H	0.178196	0.837011	-0.291640
H176	H	0.554423	0.156136	-0.165748
H177	H	0.821313	0.740740	-0.750333
N178	N	0.754291	1.037487	-0.252278
N179	N	0.833789	0.997965	-0.230199
H180	H	0.869364	0.972413	-0.174985
H181	H	0.789879	0.740746	-0.326929
H182	H	0.932562	0.436656	-0.097413
N183	N	0.290484	1.037482	-0.137189
N184	N	0.216616	1.069122	-0.175541
H185	H	0.210716	1.043588	-0.203884
H186	H	0.783240	0.740731	-0.448748
N187	N	0.848824	0.319913	0.100852
N188	N	0.911134	0.233514	0.157256
H189	H	0.958567	0.214786	0.200191
H190	H	0.284634	1.044779	-0.268109
N191	N	1.263504	0.300860	0.318172
N192	N	1.265096	0.332499	0.249815
H193	H	1.322840	0.306975	0.245670
N194	N	0.806564	0.056616	0.062541
N195	N	0.868867	-0.029786	0.118947
H196	H	0.916296	-0.048519	0.161891
H197	H	0.589305	0.547917	-0.134073
N198	N	0.586693	0.740690	-0.757254
N199	N	0.533814	0.740667	-0.727257
H200	H	0.488439	0.740651	-0.751465
N201	N	0.650964	0.300721	0.318312
N202	N	0.657880	0.237473	0.381582
H203	H	0.627910	0.211893	0.377500
N204	N	0.738687	1.180672	-0.395466
N205	N	0.794471	1.172757	-0.423336
H206	H	0.824463	1.198303	-0.419218
N207	N	0.814764	-0.086531	0.069951
N208	N	0.873451	-0.109684	0.123084
H209	H	0.923801	-0.179490	0.168670
N210	N	0.939850	0.443934	0.341307
N211	N	0.869986	0.507155	0.278067
H212	H	0.812232	0.532667	0.282192
N213	N	0.126104	1.180617	-0.395404
N214	N	0.124513	1.148959	-0.327046
H215	H	0.066769	1.174486	-0.322901
N216	N	1.259875	0.229228	0.472931
N217	N	1.331342	0.197637	0.467804
H218	H	1.387804	0.146540	0.518893
N219	N	0.207747	0.647335	0.118905
N220	N	0.272561	0.561385	0.173493
H221	H	0.276947	0.527441	0.230749
H222	H	0.291194	1.173354	-0.545873
H223	H	0.433164	1.044832	-0.417369
H224	H	0.561657	0.740691	-0.448727
N225	N	0.474183	1.037465	0.029077
N226	N	0.481428	1.069107	0.064134
H227	H	0.541094	1.043573	0.095133
N228	N	0.323468	1.180628	0.021627
N229	N	0.397336	1.148981	0.059987
H230	H	0.403234	1.174515	0.088331
H231	H	0.568296	0.740696	-0.326896
N232	N	0.594098	0.740684	-0.621522
N233	N	0.537944	0.740675	-0.651507
H234	H	0.495207	0.740659	-0.627286
