data_functionalizedCrystal
_audit_creation_method	'MofGen! by Chris Wilmer'
_symmetry_space_group_name_H-M	'P1'
_symmetry_Int_Tables_number	1
_symmetry_cell_setting	triclinic
loop_
_symmetry_equiv_pos_as_xyz
  x,y,z
_cell_length_a	16.974885
_cell_length_b	16.974813
_cell_length_c	16.776229
_cell_angle_alpha	86.338786
_cell_angle_beta	93.644881
_cell_angle_gamma	83.628230
loop_
_atom_site_label
_atom_site_type_symbol
_atom_site_fract_x
_atom_site_fract_y
_atom_site_fract_z
O1	O	1.049025	0.100749	-0.005175
O2	O	0.818808	0.113592	-0.020843
O3	O	0.940334	-0.007940	-0.005166
O4	O	0.927499	0.222281	-0.020852
O5	O	0.940318	-0.007948	0.127410
O6	O	0.818792	0.113585	0.111733
O7	O	1.049009	0.100742	0.127401
Zn8	Zn	0.933898	0.107162	0.140616
Zn9	Zn	0.933919	0.107172	-0.034058
O10	O	0.927483	0.222274	0.111724
C11	C	0.789343	0.113101	0.043578
C12	C	0.701569	0.111639	0.038014
C13	C	0.207500	0.103385	-0.001112
C14	C	0.289973	0.104759	0.004126
C15	C	0.331192	0.105447	0.079013
C16	C	0.289935	0.104754	0.148666
C17	C	0.207464	0.103375	0.143428
C18	C	0.577841	0.109567	0.102430
C19	C	0.660317	0.110949	0.107663
C20	C	0.660350	0.110952	-0.036878
C21	C	0.577877	0.109577	-0.042110
C22	C	0.536628	0.108880	0.027544
N23	N	0.415492	0.106854	0.084369
N24	N	0.452330	0.107468	0.022187
C25	C	0.939838	-0.037402	0.062990
C26	C	0.938373	-0.125177	0.068556
C27	C	0.937695	-0.166406	-0.001096
C28	C	0.936314	-0.248880	0.004136
C29	C	0.935616	-0.290124	0.079020
C30	C	0.936291	-0.248889	0.148677
C31	C	0.937667	-0.166416	0.143444
C32	C	0.931495	-0.536781	0.102419
C33	C	0.930122	-0.619260	0.107647
C34	C	0.930143	-0.619245	-0.036895
C35	C	0.931524	-0.536771	-0.042121
C36	C	0.932195	-0.495543	0.027535
N37	N	0.934206	-0.374426	0.084370
N38	N	0.933599	-0.411242	0.022185
C39	C	1.078475	0.101233	0.062978
C40	C	1.166248	0.102695	0.068536
C41	C	0.927980	0.251736	0.043566
C42	C	0.929444	0.339511	0.037995
N43	N	0.933889	0.107155	0.259827
N44	N	0.933934	0.107173	-0.153269
C45	C	0.987717	0.053362	0.308486
C46	C	0.987722	0.053362	0.391938
C47	C	0.933901	0.107158	0.426731
C48	C	0.880067	0.160953	0.378066
C49	C	0.880060	0.160949	0.294615
C50	C	0.880096	0.160968	0.714614
C51	C	0.880109	0.160970	0.798071
C52	C	0.987758	0.053381	0.811937
C53	C	0.987750	0.053377	0.728486
C54	C	0.933914	0.107169	0.679829
C55	C	0.933909	0.107168	0.589340
C56	C	0.933910	0.107163	0.517218
H57	H	0.173877	0.102821	0.200142
C58	C	0.532468	0.108808	0.179043
C59	C	0.484826	0.039231	0.200338
C60	C	0.439446	0.038474	0.276954
C61	C	0.441708	0.107293	0.332275
C62	C	0.489352	0.176876	0.310982
C63	C	0.534731	0.177633	0.234366
H64	H	0.483150	-0.011718	0.159385
H65	H	0.404177	-0.013036	0.292717
H66	H	0.408115	0.106733	0.388991
H67	H	0.491028	0.227825	0.351935
H68	H	0.570000	0.229143	0.218603
C69	C	0.935582	-0.294238	-0.072478
C70	C	0.866019	-0.341884	-0.093776
C71	C	0.865291	-0.387245	-0.170392
C72	C	0.934126	-0.384961	-0.225710
C73	C	1.003694	-0.337313	-0.204413
C74	C	1.004423	-0.291952	-0.127798
H75	H	0.815058	-0.343577	-0.052825
H76	H	0.813791	-0.422518	-0.186157
H77	H	0.933587	-0.418540	-0.282425
H78	H	1.054655	-0.335620	-0.245364
H79	H	1.055922	-0.256680	-0.112033
H80	H	0.929549	-0.652839	0.168630
C81	C	0.938464	-0.121040	-0.083471
C82	C	1.006906	-0.141432	-0.137368
C83	C	1.007671	-0.096069	-0.219745
C84	C	0.939995	-0.030314	-0.248226
C85	C	0.871548	-0.009919	-0.194329
C86	C	0.870782	-0.055282	-0.111952
H87	H	1.057008	-0.190111	-0.116285
H88	H	1.058341	-0.111167	-0.259643
H89	H	0.940562	0.003267	-0.309207
H90	H	0.821446	0.038760	-0.215412
H91	H	0.820113	-0.040184	-0.072054
H92	H	0.693944	0.111518	-0.093586
H93	H	0.935718	-0.282476	0.209649
C94	C	0.705643	0.111712	0.190051
C95	C	0.771396	0.044044	0.218563
C96	C	0.816713	0.044815	0.300950
C97	C	0.796277	0.113255	0.354825
C98	C	0.730520	0.180928	0.326314
C99	C	0.685203	0.180157	0.243927
H100	H	0.786528	-0.006623	0.178681
H101	H	0.865391	-0.005281	0.322055
H102	H	0.829823	0.113825	0.415813
H103	H	0.715389	0.231595	0.366196
H104	H	0.636525	0.230253	0.222822
C105	C	0.820863	0.220131	0.416333
C106	C	0.820904	0.220180	0.508125
C107	C	0.761700	0.279362	0.546389
C108	C	0.702453	0.338495	0.492861
C109	C	0.702410	0.338449	0.401064
C110	C	0.761614	0.279267	0.362800
H111	H	0.864764	0.176403	0.547755
H112	H	0.761732	0.279396	0.614344
H113	H	0.658627	0.382306	0.521186
H114	H	0.658550	0.382225	0.361434
H115	H	0.761582	0.279233	0.294845
C116	C	0.335356	0.105514	-0.072484
C117	C	0.383012	0.175081	-0.093773
C118	C	0.428398	0.175831	-0.170386
C119	C	0.426128	0.107014	-0.225709
C120	C	0.378470	0.037441	-0.204421
C121	C	0.333084	0.036691	-0.127808
H122	H	0.384694	0.226029	-0.052819
H123	H	0.463678	0.227334	-0.186144
H124	H	0.459725	0.107569	-0.282422
H125	H	0.376787	-0.013506	-0.245375
H126	H	0.297804	-0.014811	-0.112050
C127	C	0.929395	-0.664596	-0.113513
C128	C	0.997073	-0.730350	-0.124790
C129	C	0.996319	-0.775700	-0.201412
C130	C	0.927888	-0.755298	-0.266758
C131	C	0.860204	-0.689541	-0.255483
C132	C	0.860958	-0.644190	-0.178861
H133	H	1.047735	-0.745456	-0.076416
H134	H	1.046423	-0.824378	-0.209758
H135	H	0.927330	-0.788869	-0.323478
H136	H	0.809542	-0.674435	-0.303858
H137	H	0.810854	-0.595513	-0.170515
C138	C	0.938413	-0.121061	0.220062
C139	C	0.869589	-0.123353	0.275393
C140	C	0.870331	-0.077997	0.352012
C141	C	0.939895	-0.030350	0.373300
C142	C	1.008724	-0.028056	0.317968
C143	C	1.007983	-0.073412	0.241348
H144	H	0.818089	-0.158626	0.259636
H145	H	0.819379	-0.079695	0.392973
H146	H	0.940444	0.003225	0.430018
H147	H	1.060225	0.007217	0.333725
H148	H	1.058935	-0.071713	0.200387
H149	H	0.544323	0.109015	-0.103091
C150	C	0.932250	-0.491445	0.179044
C151	C	0.863437	-0.493744	0.234388
C152	C	0.864197	-0.448406	0.311018
C153	C	0.933770	-0.400769	0.332305
C154	C	1.002588	-0.398468	0.276960
C155	C	1.001828	-0.443806	0.200330
H156	H	0.811930	-0.529009	0.218631
H157	H	0.813252	-0.450110	0.351988
H158	H	0.934332	-0.367208	0.389032
H159	H	1.054095	-0.363203	0.292717
H160	H	1.052772	-0.442102	0.159360
C161	C	1.046922	-0.005816	0.270219
C162	C	1.106128	-0.064990	0.323747
C163	C	1.165333	-0.124172	0.285483
C164	C	1.165331	-0.124180	0.193691
C165	C	1.106123	-0.065004	0.140157
C166	C	1.046919	-0.005822	0.178421
H167	H	1.106131	-0.064986	0.391701
H168	H	1.209163	-0.167978	0.325112
H169	H	1.209158	-0.167990	0.165365
H170	H	1.106120	-0.065008	0.072202
H171	H	1.003089	0.037984	0.138792
H172	H	0.323502	0.105310	0.209641
H173	H	0.836279	0.204778	0.826397
H174	H	1.031552	0.009559	0.431556
C175	C	1.046952	-0.005800	0.690214
C176	C	1.106161	-0.064977	0.743736
C177	C	1.165361	-0.124158	0.705464
C178	C	1.165352	-0.124162	0.613672
C179	C	1.106141	-0.064982	0.560145
C180	C	1.046941	-0.005802	0.598416
H181	H	1.106169	-0.064976	0.811691
H182	H	1.209193	-0.167966	0.745089
H183	H	1.209175	-0.167971	0.585341
H184	H	1.106133	-0.064983	0.492189
H185	H	1.003109	0.038007	0.558791
H186	H	1.031592	0.009578	0.851563
H187	H	0.173945	0.102830	-0.062093
H188	H	0.932093	-0.503195	-0.103100
H189	H	0.836262	0.204769	0.675003
H190	H	0.836227	0.204751	0.254997
