data_functionalizedCrystal
_audit_creation_method	'MofGen! by Chris Wilmer'
_symmetry_space_group_name_H-M	'P1'
_symmetry_Int_Tables_number	1
_symmetry_cell_setting	triclinic
loop_
_symmetry_equiv_pos_as_xyz
  x,y,z
_cell_length_a	10.489741
_cell_length_b	16.109301
_cell_length_c	14.586319
_cell_angle_alpha	90.005214
_cell_angle_beta	90.000816
_cell_angle_gamma	84.000327
loop_
_atom_site_label
_atom_site_type_symbol
_atom_site_fract_x
_atom_site_fract_y
_atom_site_fract_z
O1	O	-1.692350	-0.117298	-0.076187
O2	O	-1.192350	0.382702	0.423813
O3	O	-1.320995	-0.128308	-0.076202
O4	O	-0.820995	0.371692	0.423798
O5	O	-1.516874	-0.001835	-0.076184
O6	O	-1.016874	0.498165	0.423816
O7	O	-1.496471	-0.243771	-0.076204
O8	O	-0.996471	0.256229	0.423796
O9	O	-1.516860	-0.001833	0.076296
O10	O	-1.016860	0.498167	0.576296
O11	O	-1.320981	-0.128306	0.076279
O12	O	-0.820981	0.371694	0.576279
O13	O	-1.692337	-0.117296	0.076294
O14	O	-1.192337	0.382704	0.576294
Cu15	Cu	-1.506658	-0.122801	0.090209
Cu16	Cu	-1.006658	0.377199	0.590209
Cu17	Cu	-1.506674	-0.122803	-0.090117
Cu18	Cu	-1.006674	0.377197	0.409883
O19	O	-1.496457	-0.243769	0.076277
O20	O	-0.996457	0.256231	0.576277
C21	C	-1.273468	-0.127475	0.000037
C22	C	-0.773468	0.372525	0.500037
C23	C	-1.131875	-0.124987	0.000032
C24	C	-0.631875	0.375013	0.500032
C25	C	-1.516041	0.029146	0.000056
C26	C	-1.016041	0.529146	0.500056
C27	C	-1.513563	0.121457	0.000058
C28	C	-1.013563	0.621457	0.500058
C29	C	-1.739863	-0.118128	0.000053
C30	C	-1.239863	0.381872	0.500053
C31	C	-1.881456	-0.120616	0.000052
C32	C	-1.381456	0.379384	0.500052
C33	C	-1.064902	-0.044516	0.000047
C34	C	-0.564902	0.455484	0.500047
C35	C	-0.972231	-0.082531	-0.075135
C36	C	-0.472231	0.417469	0.424865
C37	C	-0.972251	-0.082548	0.075199
C38	C	-0.472251	0.417452	0.575199
C39	C	-1.041068	-0.163035	-0.075212
C40	C	-0.541068	0.336965	0.424788
C41	C	-1.041098	-0.163041	0.075189
C42	C	-0.541098	0.336959	0.575189
C43	C	-0.948453	-0.201115	-0.000011
C44	C	-0.448453	0.298885	0.499989
C45	C	-1.497291	-0.274750	0.000034
C46	C	-0.997291	0.225250	0.500034
C47	C	-1.499769	-0.367060	0.000027
C48	C	-0.999769	0.132940	0.500027
N49	N	-1.506656	-0.122799	0.217041
N50	N	-1.006656	0.377201	0.717041
C51	C	-1.624032	0.343048	0.000047
C52	C	-1.124032	0.843048	0.500047
C53	C	-1.621694	0.429783	0.000040
C54	C	-1.121694	0.929783	0.500040
C55	C	-1.389290	0.411341	0.000034
C56	C	-0.889290	0.911341	0.500034
C57	C	-1.391630	0.324608	0.000035
C58	C	-0.891630	0.824608	0.500035
C59	C	-1.509004	0.290464	0.000047
C60	C	-1.009004	0.790464	0.500047
C61	C	-1.504327	0.463932	0.000038
C62	C	-1.004327	0.963932	0.500038
C63	C	-1.501791	0.557974	0.000030
C64	C	-1.001791	1.057974	0.500030
C65	C	-1.511541	0.196417	0.000053
C66	C	-1.011541	0.696417	0.500053
N67	N	-1.506686	-0.122799	-0.216949
N68	N	-1.006686	0.377201	0.283051
C69	C	-1.593420	-0.066815	0.452055
C70	C	-1.093420	0.433185	0.952055
C71	C	-1.593423	-0.066813	0.548036
C72	C	-1.093423	0.433187	1.048036
C73	C	-1.419913	-0.178784	0.548031
C74	C	-0.919913	0.321216	1.048031
C75	C	-1.419904	-0.178782	0.452051
C76	C	-0.919904	0.321218	0.952051
C77	C	-1.506665	-0.122798	0.404066
C78	C	-1.006665	0.377202	0.904066
C79	C	-1.506677	-0.122799	0.596027
C80	C	-1.006677	0.377201	1.096027
C81	C	-1.506680	-0.122797	0.700094
C82	C	-1.006680	0.377203	1.200094
C83	C	-1.506660	-0.122799	0.299992
C84	C	-1.006660	0.377201	0.799992
H85	H	-1.115552	0.021636	-0.000042
H86	H	-0.615552	0.521636	0.499958
H87	H	-1.719606	0.315251	0.000055
H88	H	-1.219606	0.815251	0.500055
H89	H	-1.715362	0.472594	0.000038
H90	H	-1.215362	0.972594	0.500038
C91	C	-1.688851	-0.005234	0.600825
C92	C	-1.188851	0.494766	1.100825
H93	H	-1.676425	-0.013244	0.664860
H94	H	-1.176425	0.486756	1.164860
H95	H	-1.773968	-0.014802	0.585092
H96	H	-1.273968	0.485198	1.085092
H97	H	-1.675014	0.050345	0.585099
H98	H	-1.175014	0.550345	1.085099
H99	H	-1.293728	0.439152	0.000027
H100	H	-0.793728	0.939152	0.500027
H101	H	-1.297954	0.281792	0.000032
H102	H	-0.797954	0.781792	0.500032
C103	C	-1.688840	-0.005229	0.399274
C104	C	-1.188840	0.494771	0.899274
H105	H	-1.740500	0.028118	0.441605
H106	H	-1.240500	0.528118	0.941605
H107	H	-1.741919	-0.035469	0.361823
H108	H	-1.241919	0.464531	0.861823
H109	H	-1.642960	0.029675	0.361843
H110	H	-1.142960	0.529675	0.861843
C111	C	-1.082041	-0.209015	-0.161164
C112	C	-0.582041	0.290985	0.338836
H113	H	-1.172379	-0.210297	-0.160658
H114	H	-0.672379	0.289703	0.339342
H115	H	-1.041109	-0.264474	-0.161362
H116	H	-0.541109	0.235526	0.338638
H117	H	-1.057930	-0.180630	-0.214498
H118	H	-0.557930	0.319370	0.285502
H119	H	-1.349276	-0.224366	0.587110
H120	H	-0.849276	0.275634	1.087110
C121	C	-1.324480	-0.240370	0.399255
C122	C	-0.824480	0.259630	0.899255
H123	H	-1.336896	-0.232345	0.335221
H124	H	-0.836896	0.267655	0.835221
H125	H	-1.338311	-0.295946	0.414976
H126	H	-0.838311	0.204054	0.914976
H127	H	-1.239356	-0.230800	0.414987
H128	H	-0.739356	0.269200	0.914987
C129	C	-0.930994	-0.036537	-0.160990
C130	C	-0.430994	0.463463	0.339010
H131	H	-0.971263	0.019099	-0.160896
H132	H	-0.471263	0.519099	0.339104
H133	H	-0.955706	-0.064591	-0.214382
H134	H	-0.455706	0.435409	0.285618
H135	H	-0.840569	-0.035729	-0.160644
H136	H	-0.340569	0.464271	0.339356
C137	C	-0.880375	-0.290570	-0.000072
C138	C	-0.380375	0.209430	0.499928
H139	H	-0.903918	-0.319017	-0.053529
H140	H	-0.403918	0.180983	0.446471
H141	H	-0.904996	-0.319370	0.052824
H142	H	-0.404996	0.180630	0.552824
H143	H	-0.790199	-0.288507	0.000431
H144	H	-0.290199	0.211493	0.500431
H145	H	-1.071645	-0.197062	0.138749
H146	H	-0.571645	0.302938	0.638749
H147	H	-0.941762	-0.048484	0.138760
H148	H	-0.441762	0.451516	0.638760
