data_functionalizedCrystal
_audit_creation_method	'MofGen! by Chris Wilmer'
_symmetry_space_group_name_H-M	'P1'
_symmetry_Int_Tables_number	1
_symmetry_cell_setting	triclinic
loop_
_symmetry_equiv_pos_as_xyz
  x,y,z
_cell_length_a	23.532407
_cell_length_b	19.188930
_cell_length_c	18.266242
_cell_angle_alpha	90.022918
_cell_angle_beta	89.988983
_cell_angle_gamma	97.003272
loop_
_atom_site_label
_atom_site_type_symbol
_atom_site_fract_x
_atom_site_fract_y
_atom_site_fract_z
O1	O	0.071102	-0.925922	-0.061124
O2	O	0.080673	-0.722581	-0.061074
O3	O	-0.007031	-0.830383	-0.061087
O4	O	0.158806	-0.818120	-0.061111
O5	O	-0.007035	-0.830365	0.060675
O6	O	0.080669	-0.722562	0.060688
O7	O	0.071097	-0.925904	0.060638
Zn8	Zn	0.075882	-0.824230	0.079995
Zn9	Zn	0.075888	-0.824254	-0.080431
O10	O	0.158802	-0.818102	0.060651
C11	C	0.080361	-0.696561	-0.000187
C12	C	0.079431	-0.619060	-0.000168
C13	C	-0.028250	-0.830062	-0.000204
C14	C	-0.091469	-0.829123	-0.000198
N15	N	0.075878	-0.824219	0.189482
C16	C	-0.490449	-0.887029	-0.000252
C17	C	-0.549851	-0.886157	-0.000258
O18	O	-0.586482	-0.939837	-0.000298
N19	N	-0.572613	-0.822068	-0.000242
C20	C	-0.535970	-0.758848	-0.000228
O21	O	-0.560786	-0.704255	-0.000215
C22	C	-0.476569	-0.759721	-0.000228
C23	C	-0.453810	-0.823814	-0.000236
C24	C	-0.467690	-0.951117	-0.000262
C25	C	-0.408292	-0.951989	-0.000255
C26	C	-0.371653	-0.888773	-0.000239
C27	C	-0.394412	-0.824685	-0.000230
C28	C	-0.439927	-0.696501	-0.000219
C29	C	-0.380523	-0.697379	-0.000219
C30	C	-0.357764	-0.761472	-0.000228
C31	C	-0.298376	-0.762342	-0.000207
N32	N	-0.275614	-0.826430	-0.000223
C33	C	-0.312252	-0.889646	-0.000239
C34	C	-0.660717	-0.757019	-0.000229
C35	C	-0.720116	-0.756146	-0.000224
C36	C	-0.733993	-0.883455	-0.000256
C37	C	-0.674592	-0.884328	-0.000255
C38	C	-0.637954	-0.821108	-0.000245
C39	C	-0.187512	-0.891472	-0.000224
C40	C	-0.128108	-0.892339	-0.000214
C41	C	-0.114236	-0.765029	-0.000187
C42	C	-0.173634	-0.764163	-0.000193
C43	C	-0.210272	-0.827390	-0.000214
O44	O	-0.261710	-0.708690	-0.000170
O45	O	-0.287428	-0.944230	-0.000261
C46	C	0.180021	-0.818423	-0.000234
C47	C	0.243240	-0.819362	-0.000244
C48	C	0.071410	-0.951923	-0.000251
C49	C	0.072340	-1.029425	-0.000275
C50	C	0.130893	-0.573972	-0.000187
C51	C	0.130019	-0.501151	-0.000194
C52	C	0.077680	-0.473421	-0.000198
C53	C	0.026211	-0.518519	-0.000175
C54	C	0.027086	-0.591339	-0.000160
N55	N	0.037674	-0.365575	-0.041663
N56	N	0.036846	-0.296399	-0.041679
C57	C	0.075038	-0.254021	-0.000243
N58	N	0.114099	-0.283431	0.041201
N59	N	0.114929	-0.352613	0.041214
C60	C	0.076724	-0.394462	-0.000214
C61	C	0.125556	-0.129971	-0.000269
C62	C	0.124680	-0.057149	-0.000272
C63	C	0.020870	-0.074520	-0.000260
C64	C	0.021748	-0.147340	-0.000250
C65	C	0.074092	-0.175061	-0.000257
N66	N	0.075888	-0.824271	-0.189918
C67	C	0.037062	-0.871970	0.227785
C68	C	0.037059	-0.871974	0.304430
C69	C	0.075883	-0.824235	0.342769
C70	C	0.114702	-0.776475	0.304457
C71	C	0.114700	-0.776468	0.227813
N72	N	0.126298	-0.814998	0.463096
N73	N	0.126298	-0.815010	0.535904
C74	C	0.075891	-0.824254	0.573691
N75	N	0.025481	-0.833500	0.535921
N76	N	0.025482	-0.833492	0.463106
C77	C	0.075889	-0.824238	0.425876
C78	C	0.037068	-0.872012	0.695102
C79	C	0.037065	-0.872012	0.771748
C80	C	0.114713	-0.776516	0.771773
C81	C	0.114711	-0.776513	0.695128
C82	C	0.075890	-0.824265	0.656797
H83	H	-0.109581	-0.944533	-0.000220
Br84	Br	-0.050163	-0.036895	-0.000253
Br85	Br	0.167383	-0.711658	0.175826
Br86	Br	0.194528	0.004045	-0.000291
Br87	Br	-0.064501	-0.679241	-0.000165
Br88	Br	0.201931	-0.611591	-0.000196
Br89	Br	-0.015624	-0.936815	0.823736
H90	H	-0.020158	-0.184052	-0.000238
H91	H	0.005449	-0.910850	0.196579
H92	H	0.171927	-0.464433	-0.000208
H93	H	-0.016404	-0.495937	-0.000188
Br94	Br	0.167397	-0.711719	0.823798
H95	H	-0.763836	-0.934929	-0.000272
Br96	Br	0.196593	-0.167598	-0.000274
H97	H	-0.014822	-0.628050	-0.000145
H98	H	0.005449	-0.910860	0.335623
H99	H	0.146312	-0.737604	0.335676
Br100	Br	-0.015620	-0.936815	0.643079
Br101	Br	-0.517404	-1.036922	-0.000284
H102	H	-0.217335	-0.942958	-0.000244
Br103	Br	-0.377415	-1.038977	-0.000288
H104	H	-0.630888	-0.705535	-0.000215
Br105	Br	-0.643712	-0.971314	-0.000266
Br106	Br	-0.750995	-0.669159	-0.000195
H107	H	0.146322	-0.737633	0.663940
H108	H	-0.350694	-0.645897	-0.000212
Br109	Br	-0.470798	-0.609512	-0.000210
Br110	Br	-0.204523	-0.677179	-0.000164
