data_functionalizedCrystal
_audit_creation_method	'MofGen! by Chris Wilmer'
_symmetry_space_group_name_H-M	'P1'
_symmetry_Int_Tables_number	1
_symmetry_cell_setting	triclinic
loop_
_symmetry_equiv_pos_as_xyz
  x,y,z
_cell_length_a	19.188933
_cell_length_b	19.188930
_cell_length_c	14.421503
_cell_angle_alpha	89.999163
_cell_angle_beta	89.993814
_cell_angle_gamma	83.145175
loop_
_atom_site_label
_atom_site_type_symbol
_atom_site_fract_x
_atom_site_fract_y
_atom_site_fract_z
O1	O	0.926148	0.087164	-0.077091
O2	O	1.259482	0.420498	0.256242
O3	O	1.592815	0.753831	0.589576
O4	O	0.722837	0.098897	-0.077101
O5	O	1.056170	0.432231	0.256232
O6	O	1.389504	0.765564	0.589566
O7	O	0.830360	-0.008625	-0.077078
O8	O	1.163693	0.324709	0.256256
O9	O	1.497026	0.658042	0.589589
O10	O	0.818626	0.194686	-0.077115
O11	O	1.151959	0.528020	0.256219
O12	O	1.485292	0.861353	0.589552
O13	O	0.830342	-0.008609	0.077146
O14	O	1.163675	0.324725	0.410479
O15	O	1.497009	0.658058	0.743812
O16	O	0.722819	0.098913	0.077122
O17	O	1.056153	0.432247	0.410456
O18	O	1.389486	0.765580	0.743789
O19	O	0.926130	0.087180	0.077132
O20	O	1.259464	0.420514	0.410466
O21	O	1.592797	0.753847	0.743799
Cu22	Cu	0.824473	0.093048	0.091209
Cu23	Cu	1.157807	0.426382	0.424542
Cu24	Cu	1.491140	0.759715	0.757876
Cu25	Cu	0.824494	0.093029	-0.091178
Cu26	Cu	1.157828	0.426363	0.242155
Cu27	Cu	1.491161	0.759696	0.575489
O28	O	0.818608	0.194702	0.077109
O29	O	1.151941	0.528036	0.410442
O30	O	1.485274	0.861369	0.743776
C31	C	0.696817	0.098525	0.000010
C32	C	1.030151	0.431858	0.333343
C33	C	1.363484	0.765192	0.666676
C34	C	0.619313	0.097384	0.000007
C35	C	0.952646	0.430717	0.333340
C36	C	1.285979	0.764050	0.666673
C37	C	0.066067	0.089230	-0.084049
C38	C	0.399400	0.422563	0.249284
C39	C	0.732734	0.755897	0.582617
C40	C	0.138891	0.090298	-0.084053
C41	C	0.472225	0.423631	0.249280
C42	C	0.805558	0.756965	0.582614
C43	C	0.175299	0.090844	0.000014
C44	C	0.508632	0.424177	0.333347
C45	C	0.841965	0.757511	0.666680
C46	C	0.138878	0.090304	0.084091
C47	C	0.472211	0.423637	0.417424
C48	C	0.805545	0.756971	0.750757
C49	C	0.066056	0.089229	0.084092
C50	C	0.399389	0.422562	0.417425
C51	C	0.732723	0.755895	0.750759
N52	N	0.284311	0.132269	0.062581
N53	N	0.617645	0.465602	0.395914
N54	N	0.950978	0.798936	0.729248
N55	N	0.353489	0.133292	0.062574
N56	N	0.686822	0.466625	0.395907
N57	N	1.020156	0.799959	0.729241
C58	C	0.394707	0.094082	0.000015
C59	C	0.728041	0.427415	0.333348
C60	C	1.061374	0.760749	0.666681
N61	N	0.364133	0.053819	-0.062551
N62	N	0.697467	0.387153	0.270782
N63	N	1.030800	0.720486	0.604115
N64	N	0.294949	0.052799	-0.062547
N65	N	0.628282	0.386133	0.270786
N66	N	0.961616	0.719466	0.604120
C67	C	0.254262	0.092009	0.000022
C68	C	0.587595	0.425343	0.333355
C69	C	0.920929	0.758676	0.666688
C70	C	0.510084	0.095775	-0.084061
C71	C	0.843417	0.429108	0.249272
C72	C	1.176751	0.762442	0.582606
C73	C	0.582910	0.096839	-0.084061
C74	C	0.916244	0.430172	0.249272
C75	C	1.249577	0.763506	0.582606
C76	C	0.582895	0.096852	0.084085
C77	C	0.916228	0.430185	0.417418
C78	C	1.249561	0.763519	0.750752
C79	C	0.510071	0.095781	0.084083
C80	C	0.843404	0.429114	0.417416
C81	C	1.176737	0.762448	0.750749
C82	C	0.473669	0.095246	0.000007
C83	C	0.807003	0.428579	0.333341
C84	C	1.140336	0.761913	0.666674
C85	C	0.829971	-0.034628	0.000037
C86	C	1.163304	0.298706	0.333370
C87	C	1.496638	0.632039	0.666703
C88	C	0.828830	-0.112132	0.000045
C89	C	1.162163	0.221201	0.333378
C90	C	1.495497	0.554534	0.666711
C91	C	0.891921	-0.157056	0.000052
C92	C	1.225254	0.176278	0.333385
C93	C	1.558588	0.509611	0.666719
C94	C	0.890849	-0.229880	0.000037
C95	C	1.224183	0.103454	0.333371
C96	C	1.557516	0.436787	0.666704
C97	C	0.826683	-0.257777	0.000033
C98	C	1.160017	0.075557	0.333367
C99	C	1.493350	0.408890	0.666700
C100	C	0.763584	-0.212843	0.000021
C101	C	1.096917	0.120490	0.333354
C102	C	1.430251	0.453823	0.666687
C103	C	0.764658	-0.140021	0.000026
C104	C	1.097991	0.193312	0.333360
C105	C	1.431324	0.526646	0.666693
N106	N	0.777630	-0.365777	0.052516
N107	N	1.110963	-0.032443	0.385849
N108	N	1.444297	0.300890	0.719183
N109	N	0.776614	-0.434955	0.052513
N110	N	1.109948	-0.101622	0.385846
N111	N	1.443281	0.231712	0.719179
C112	C	0.823445	-0.477185	0.000014
C113	C	1.156778	-0.143852	0.333348
C114	C	1.490112	0.189481	0.666681
N115	N	0.871340	-0.447625	-0.052469
N116	N	1.204674	-0.114292	0.280865
N117	N	1.538007	0.219042	0.614198
N118	N	0.872358	-0.378440	-0.052461
N119	N	1.205691	-0.045107	0.280872
N120	N	1.539024	0.288226	0.614205
C121	C	0.825512	-0.336739	0.000027
C122	C	1.158845	-0.003406	0.333360
C123	C	1.492179	0.329927	0.666693
C124	C	0.885378	-0.601073	0.000004
C125	C	1.218712	-0.267740	0.333338
C126	C	1.552045	0.065593	0.666671
C127	C	0.884304	-0.673898	-0.000016
C128	C	1.217637	-0.340565	0.333317
C129	C	1.550971	-0.007231	0.666651
C130	C	0.757037	-0.656860	-0.000023
C131	C	1.090370	-0.323527	0.333310
C132	C	1.423704	0.009807	0.666643
C133	C	0.758113	-0.584037	-0.000012
C134	C	1.091446	-0.250704	0.333321
C135	C	1.424780	0.082630	0.666655
C136	C	0.822286	-0.556148	0.000006
C137	C	1.155619	-0.222815	0.333340
C138	C	1.488952	0.110518	0.666673
C139	C	0.952150	0.087553	0.000020
C140	C	1.285484	0.420886	0.333353
C141	C	1.618817	0.754219	0.666686
C142	C	1.029655	0.088694	0.000016
C143	C	1.362988	0.422027	0.333350
C144	C	1.696321	0.755360	0.666683
C145	C	0.818997	0.220705	-0.000008
C146	C	1.152330	0.554039	0.333326
C147	C	1.485663	0.887372	0.666659
C148	C	0.820137	0.298210	-0.000022
C149	C	1.153471	0.631543	0.333312
C150	C	1.486804	0.964877	0.666645
N151	N	0.824463	0.093061	0.219490
N152	N	1.157797	0.426394	0.552824
N153	N	1.491130	0.759728	0.886157
N154	N	0.824510	0.093011	-0.219459
N155	N	1.157843	0.426344	0.113874
N156	N	1.491176	0.759678	0.447207
C157	C	0.774736	0.142757	0.469133
C158	C	1.108070	0.476090	0.802467
C159	C	1.441403	0.809424	1.135800
C160	C	0.837784	0.156116	0.530936
C161	C	1.171118	0.489450	0.864269
C162	C	1.504451	0.822783	1.197603
C163	C	0.824481	0.093044	0.408652
C164	C	1.157814	0.426378	0.741985
C165	C	1.491147	0.759711	1.075318
C166	C	0.761449	0.079701	0.530943
C167	C	1.094782	0.413035	0.864276
C168	C	1.428115	0.746368	1.197610
C169	C	0.824491	0.093030	0.591373
C170	C	1.157825	0.426363	0.924707
C171	C	1.491158	0.759697	1.258040
C172	C	0.887560	0.106435	0.469094
C173	C	1.220894	0.439768	0.802427
C174	C	1.554227	0.773102	1.135760
C175	C	0.811183	0.029993	0.469095
C176	C	1.144517	0.363326	0.802429
C177	C	1.477850	0.696659	1.135762
C178	C	0.874277	0.043325	0.530870
C179	C	1.207610	0.376658	0.864203
C180	C	1.540944	0.709992	1.197537
C181	C	0.824473	0.093055	0.303391
C182	C	1.157807	0.426388	0.636724
C183	C	1.491140	0.759721	0.970057
C184	C	0.824506	0.093019	0.696632
C185	C	1.157839	0.426352	1.029965
C186	C	1.491172	0.759686	1.363299
H187	H	0.612557	0.097270	-0.152520
H188	H	0.945890	0.430603	0.180813
H189	H	1.279223	0.763937	0.514146
Br190	Br	0.632299	0.097578	0.198178
Br191	Br	0.965632	0.430911	0.531511
Br192	Br	1.298965	0.764245	0.864845
H193	H	0.711340	-0.235562	0.000015
H194	H	1.044673	0.097772	0.333349
H195	H	1.378006	0.431105	0.666682
H196	H	0.708139	0.068422	0.558113
H197	H	1.041473	0.401756	0.891446
H198	H	1.374806	0.735089	1.224779
H199	H	0.704792	-0.679573	-0.000031
H200	H	1.038125	-0.346240	0.333302
H201	H	1.371458	-0.012906	0.666636
Br202	Br	0.979012	-0.119210	0.000051
Br203	Br	1.312345	0.214124	0.333385
Br204	Br	1.645678	0.547457	0.666718
Br205	Br	0.672485	-0.523065	-0.000021
Br206	Br	1.005818	-0.189732	0.333312
Br207	Br	1.339152	0.143602	0.666645
H208	H	0.937631	-0.578365	0.000015
H209	H	1.270965	-0.245032	0.333349
H210	H	1.604298	0.088301	0.666682
H211	H	0.942227	-0.266463	0.000040
H212	H	1.275560	0.066870	0.333373
H213	H	1.608894	0.400203	0.666706
Br214	Br	0.016669	0.088500	-0.198151
Br215	Br	0.350002	0.421833	0.135182
Br216	Br	0.683335	0.755167	0.468516
H217	H	0.799906	-0.023305	0.441910
H218	H	1.133240	0.310028	0.775244
H219	H	1.466573	0.643361	1.108577
Br220	Br	0.460649	0.095063	0.198179
Br221	Br	0.793982	0.428397	0.531512
Br222	Br	1.127316	0.761730	0.864845
Br223	Br	0.188319	0.091025	-0.198150
Br224	Br	0.521653	0.424359	0.135183
Br225	Br	0.854986	0.757692	0.468516
Br226	Br	0.016635	0.088503	0.198190
Br227	Br	0.349969	0.421836	0.531524
Br228	Br	0.683302	0.755169	0.864857
Br229	Br	0.679028	-0.079049	0.000013
Br230	Br	1.012361	0.254284	0.333347
Br231	Br	1.345694	0.587618	0.666680
H232	H	0.935682	-0.710475	-0.000015
H233	H	1.269016	-0.377142	0.333318
H234	H	1.602349	-0.043808	0.666652
H235	H	0.732712	0.184831	0.442026
H236	H	1.066045	0.518164	0.775360
H237	H	1.399379	0.851498	1.108693
H238	H	0.916394	0.001276	0.557807
H239	H	1.249728	0.334609	0.891140
H240	H	1.583061	0.667943	1.224474
H241	H	0.940881	0.117778	0.442040
H242	H	1.274215	0.451112	0.775374
H243	H	1.607548	0.784445	1.108707
Br244	Br	0.188286	0.091039	0.198182
Br245	Br	0.521620	0.424372	0.531516
Br246	Br	0.854953	0.757706	0.864849
Br247	Br	0.460678	0.095046	-0.198160
Br248	Br	0.794012	0.428379	0.135173
Br249	Br	1.127345	0.761712	0.468507
H250	H	0.849042	0.209431	0.558099
H251	H	1.182375	0.542765	0.891433
H252	H	1.515708	0.876098	1.224766
