data_functionalizedCrystal
_audit_creation_method	'MofGen! by Chris Wilmer'
_symmetry_space_group_name_H-M	'P1'
_symmetry_Int_Tables_number	1
_symmetry_cell_setting	triclinic
loop_
_symmetry_equiv_pos_as_xyz
  x,y,z
_cell_length_a	16.974800
_cell_length_b	16.992695
_cell_length_c	15.500215
_cell_angle_alpha	87.000809
_cell_angle_beta	89.533919
_cell_angle_gamma	92.978326
loop_
_atom_site_label
_atom_site_type_symbol
_atom_site_fract_x
_atom_site_fract_y
_atom_site_fract_z
O1	O	1.055364	-0.099784	-0.001974
O2	O	1.388697	0.233549	0.331359
O3	O	1.722030	0.566882	0.664692
O4	O	0.826738	-0.113247	0.014041
O5	O	1.160071	0.220086	0.347374
O6	O	1.493404	0.553419	0.680708
O7	O	0.940134	0.007623	0.006091
O8	O	1.273467	0.340957	0.339424
O9	O	1.606800	0.674290	0.672757
O10	O	0.941968	-0.220655	0.005976
O11	O	1.275301	0.112678	0.339309
O12	O	1.608634	0.446012	0.672643
O13	O	0.933178	0.014099	-0.137312
O14	O	1.266512	0.347432	0.196022
O15	O	1.599845	0.680766	0.529355
O16	O	0.819782	-0.106772	-0.129361
O17	O	1.153115	0.226562	0.203972
O18	O	1.486449	0.559895	0.537305
O19	O	1.048408	-0.093308	-0.145377
O20	O	1.381742	0.240025	0.187957
O21	O	1.715075	0.573358	0.521290
Cu22	Cu	0.933460	-0.099449	-0.150463
Cu23	Cu	1.266793	0.233885	0.182871
Cu24	Cu	1.600127	0.567218	0.516204
Cu25	Cu	0.941686	-0.107107	0.019127
Cu26	Cu	1.275019	0.226226	0.352460
Cu27	Cu	1.608352	0.559560	0.685794
O28	O	0.935012	-0.214179	-0.137426
O29	O	1.268345	0.119154	0.195907
O30	O	1.601679	0.452488	0.529240
C31	C	0.793871	-0.109620	-0.055601
C32	C	1.127204	0.223713	0.277732
C33	C	1.460537	0.557047	0.611065
C34	C	0.706299	-0.108449	-0.049467
C35	C	1.039633	0.224884	0.283866
C36	C	1.372966	0.558217	0.617199
C37	C	0.661371	-0.104367	-0.124756
C38	C	0.994705	0.228966	0.208577
C39	C	1.328038	0.562299	0.541911
C40	C	0.579090	-0.103255	-0.118995
C41	C	0.912423	0.230078	0.214339
C42	C	1.245756	0.563412	0.547672
C43	C	0.541737	-0.106230	-0.037944
C44	C	0.875071	0.227103	0.295389
C45	C	1.208404	0.560436	0.628723
C46	C	0.586671	-0.110310	0.037351
C47	C	0.920005	0.223023	0.370684
C48	C	1.253338	0.556357	0.704017
C49	C	0.668952	-0.111417	0.031588
C50	C	1.002285	0.221916	0.364922
C51	C	1.335619	0.555250	0.698255
C52	C	0.296062	-0.103293	-0.012329
C53	C	0.629395	0.230040	0.321005
C54	C	0.962728	0.563373	0.654338
C55	C	0.213775	-0.102189	-0.006572
C56	C	0.547108	0.231145	0.326761
C57	C	0.880441	0.564478	0.660095
C58	C	0.206199	-0.095132	-0.162918
C59	C	0.539532	0.238201	0.170415
C60	C	0.872866	0.571535	0.503749
C61	C	0.288481	-0.096244	-0.168673
C62	C	0.621814	0.237089	0.164660
C63	C	0.955148	0.570423	0.497994
C64	C	0.333408	-0.100320	-0.093379
C65	C	0.666742	0.233014	0.239955
C66	C	1.000075	0.566347	0.573288
N67	N	0.457632	-0.105096	-0.032053
N68	N	0.790965	0.228238	0.301280
N69	N	1.124299	0.561571	0.634614
N70	N	0.417512	-0.101448	-0.099270
N71	N	0.750846	0.231885	0.234063
N72	N	1.084179	0.565218	0.567396
C73	C	1.081275	-0.096936	-0.075732
C74	C	1.414609	0.236397	0.257601
C75	C	1.747942	0.569731	0.590934
C76	C	1.168847	-0.098107	-0.081861
C77	C	1.502180	0.235227	0.251473
C78	C	1.835513	0.568560	0.584806
C79	C	0.934298	0.040064	-0.065445
C80	C	1.267631	0.373397	0.267888
C81	C	1.600965	0.706730	0.601221
C82	C	0.927262	0.127077	-0.064952
C83	C	1.260596	0.460411	0.268381
C84	C	1.593929	0.793744	0.601715
C85	C	0.940848	-0.246619	-0.065889
C86	C	1.274181	0.086714	0.267445
C87	C	1.607515	0.420047	0.600778
C88	C	0.947884	-0.333634	-0.066376
C89	C	1.281217	-0.000300	0.266957
C90	C	1.614551	0.333033	0.600291
N91	N	0.927680	-0.094061	-0.269744
N92	N	1.261014	0.239272	0.063590
N93	N	1.594347	0.572605	0.396923
C94	C	0.995147	0.177610	-0.069708
C95	C	1.328481	0.510943	0.263625
C96	C	1.661814	0.844276	0.596958
C97	C	0.988532	0.259368	-0.069237
C98	C	1.321866	0.592701	0.264097
C99	C	1.655199	0.926034	0.597430
C100	C	0.914031	0.290592	-0.064015
C101	C	1.247364	0.623925	0.269318
C102	C	1.580698	0.957258	0.602652
C103	C	0.846141	0.240053	-0.059256
C104	C	1.179474	0.573386	0.274078
C105	C	1.512808	0.906720	0.607411
C106	C	0.852757	0.158296	-0.059721
C107	C	1.186091	0.491630	0.273612
C108	C	1.519424	0.824963	0.606945
C109	C	0.886610	0.534071	-0.062082
C110	C	1.219943	0.867404	0.271251
C111	C	1.553277	1.200738	0.604584
C112	C	0.879999	0.615834	-0.061620
C113	C	1.213332	0.949168	0.271714
C114	C	1.546666	1.282501	0.605047
C115	C	1.022391	0.635143	-0.071599
C116	C	1.355724	0.968476	0.261734
C117	C	1.689058	1.301810	0.595068
C118	C	1.029000	0.553384	-0.072069
C119	C	1.362334	0.886718	0.261264
C120	C	1.695667	1.220051	0.594597
C121	C	0.961110	0.502853	-0.067306
C122	C	1.294444	0.836186	0.266028
C123	C	1.627777	1.169519	0.599361
N124	N	0.907268	0.374161	-0.063536
N125	N	1.240601	0.707495	0.269798
N126	N	1.573934	1.040828	0.603131
N127	N	0.967875	0.419284	-0.067779
N128	N	1.301208	0.752618	0.265554
N129	N	1.634542	1.085951	0.598888
C130	C	0.976279	-0.139392	-0.318418
C131	C	1.309612	0.193942	0.014915
C132	C	1.642945	0.527275	0.348249
C133	C	0.971918	-0.135313	-0.408686
C134	C	1.305251	0.198021	-0.075353
C135	C	1.638584	0.531354	0.257981
C136	C	0.918954	-0.085907	-0.450278
C137	C	1.252287	0.247426	-0.116944
C138	C	1.585621	0.580760	0.216389
C139	C	0.870354	-0.040571	-0.401597
C140	C	1.203687	0.292762	-0.068263
C141	C	1.537020	0.626095	0.265070
C142	C	0.874719	-0.044647	-0.311331
C143	C	1.208053	0.288686	0.022003
C144	C	1.541386	0.622020	0.355336
C145	C	0.903236	-0.071228	-0.722646
C146	C	1.236570	0.262105	-0.389312
C147	C	1.569903	0.595439	-0.055979
C148	C	0.898873	-0.067158	-0.812918
C149	C	1.232206	0.266176	-0.479585
C150	C	1.565540	0.599509	-0.146251
C151	C	1.000439	-0.161898	-0.820001
C152	C	1.333772	0.171435	-0.486668
C153	C	1.667105	0.504768	-0.153335
C154	C	1.004796	-0.165973	-0.729733
C155	C	1.338129	0.167360	-0.396400
C156	C	1.671463	0.500694	-0.063066
C157	C	0.956199	-0.120634	-0.681060
C158	C	1.289532	0.212699	-0.347727
C159	C	1.622865	0.546032	-0.014393
C160	C	0.914493	-0.081738	-0.542546
C161	C	1.247827	0.251595	-0.209212
C162	C	1.581160	0.584929	0.124121
C163	C	0.960664	-0.124800	-0.588794
C164	C	1.293997	0.208534	-0.255461
C165	C	1.627330	0.541867	0.077873
N166	N	0.947471	-0.112488	0.138408
N167	N	1.280805	0.220845	0.471741
N168	N	1.614138	0.554179	0.805074
H169	H	0.705531	-0.114742	0.092897
H170	H	1.038865	0.218591	0.426230
H171	H	1.372198	0.551924	0.759563
H172	H	0.785481	0.265482	-0.054999
H173	H	1.118814	0.598815	0.278335
H174	H	1.452147	0.932148	0.611668
O175	O	1.075503	0.143932	-0.075332
O176	O	1.408836	0.477266	0.258001
O177	O	1.742170	0.810599	0.591334
H178	H	1.121596	0.192809	-0.078549
H179	H	1.454929	0.526142	0.254784
H180	H	1.788263	0.859476	0.588118
O181	O	1.052864	-0.210780	-0.872504
O182	O	1.386197	0.122553	-0.539170
O183	O	1.719530	0.455886	-0.205837
H184	H	1.015758	-0.251191	-0.911182
H185	H	1.349091	0.082142	-0.577849
H186	H	1.682424	0.415476	-0.244515
H187	H	1.043812	0.300508	-0.073112
H188	H	1.377145	0.633842	0.260222
H189	H	1.710478	0.967175	0.593555
H190	H	1.089667	0.527968	-0.076322
H191	H	1.423000	0.861302	0.257012
H192	H	1.756333	1.194635	0.590345
H193	H	1.077663	0.676294	-0.075476
H194	H	1.410996	1.009628	0.257857
H195	H	1.744329	1.342961	0.591191
O196	O	0.157718	-0.091134	-0.244123
O197	O	0.491051	0.242200	0.089210
O198	O	0.824384	0.575533	0.422544
H199	H	0.094218	-0.091006	-0.226503
H200	H	0.427551	0.242328	0.106830
H201	H	0.760885	0.575661	0.440164
H202	H	0.819327	0.641254	-0.057381
H203	H	1.152661	0.974587	0.275952
H204	H	1.485994	1.307920	0.609285
O205	O	0.779539	0.103788	-0.054601
O206	O	1.112873	0.437121	0.278733
O207	O	1.446206	0.770455	0.612066
H208	H	0.726621	0.139234	-0.050902
H209	H	1.059955	0.472567	0.282432
H210	H	1.393288	0.805901	0.615765
H211	H	0.318888	-0.093817	-0.234673
H212	H	0.652221	0.239516	0.098660
H213	H	0.985555	0.572849	0.431993
H214	H	1.047927	-0.206202	-0.695876
H215	H	1.381260	0.127131	-0.362542
H216	H	1.714593	0.460465	-0.029209
O217	O	0.822336	0.004285	-0.258834
O218	O	1.155669	0.337618	0.074499
O219	O	1.489003	0.670951	0.407832
H220	H	0.834288	-0.006828	-0.189081
H221	H	1.167621	0.326505	0.144252
H222	H	1.500955	0.659838	0.477586
H223	H	0.542514	-0.099918	-0.180303
H224	H	0.875847	0.233415	0.153030
H225	H	1.209180	0.566749	0.486364
H226	H	0.831329	0.492937	-0.058203
H227	H	1.164662	0.826271	0.275130
H228	H	1.497996	1.159604	0.608463
H229	H	1.019403	-0.179628	-0.284561
H230	H	1.352736	0.153705	0.048772
H231	H	1.686070	0.487039	0.382106
O232	O	1.024331	-0.184207	-0.461188
O233	O	1.357665	0.149127	-0.127855
O234	O	1.690998	0.482460	0.205478
H235	H	1.061886	-0.219254	-0.417102
H236	H	1.395219	0.114079	-0.083768
H237	H	1.728552	0.447413	0.249565
O238	O	0.841748	-0.013865	-0.857783
O239	O	1.175081	0.319468	-0.524450
O240	O	1.508415	0.652801	-0.191117
H241	H	0.808693	0.016983	-0.808774
H242	H	1.142026	0.350316	-0.475441
H243	H	1.475359	0.683649	-0.142108
H244	H	0.863665	-0.034310	-0.683027
H245	H	1.196998	0.299024	-0.349693
H246	H	1.530332	0.632357	-0.016360
H247	H	1.003789	-0.165023	-0.554927
H248	H	1.337123	0.168311	-0.221593
H249	H	1.670456	0.501644	0.111740
H250	H	0.827233	-0.000340	-0.435468
H251	H	1.160567	0.332993	-0.102134
H252	H	1.493900	0.666326	0.231199
O253	O	0.857364	-0.028453	-0.587402
O254	O	1.190697	0.304880	-0.254068
O255	O	1.524030	0.638214	0.079265
H256	H	0.815391	-0.064338	-0.625726
H257	H	1.148725	0.268995	-0.292392
H258	H	1.482058	0.602328	0.040941
H259	H	0.183365	-0.104614	0.059433
H260	H	0.516698	0.228719	0.392766
H261	H	0.850032	0.562053	0.726099
O262	O	0.701654	-0.101170	-0.212178
O263	O	1.034987	0.232163	0.121156
O264	O	1.368320	0.565496	0.454489
H265	H	0.687715	-0.045840	-0.248819
H266	H	1.021048	0.287493	0.084514
H267	H	1.354381	0.620827	0.417848
O268	O	0.344514	-0.107697	0.068877
O269	O	0.677848	0.225636	0.402211
O270	O	1.011181	0.558969	0.735544
H271	H	0.304714	-0.109590	0.126202
H272	H	0.638047	0.223743	0.459536
H273	H	0.971381	0.557077	0.792869
O274	O	0.546390	-0.113522	0.124773
O275	O	0.879723	0.219811	0.458107
O276	O	1.213057	0.553144	0.791440
H277	H	0.481626	-0.112076	0.116133
H278	H	0.814959	0.221257	0.449467
H279	H	1.148293	0.554590	0.782800
