data_functionalizedCrystal
_audit_creation_method	'MofGen! by Chris Wilmer'
_symmetry_space_group_name_H-M	'P1'
_symmetry_Int_Tables_number	1
_symmetry_cell_setting	triclinic
loop_
_symmetry_equiv_pos_as_xyz
  x,y,z
_cell_length_a	17.699083
_cell_length_b	14.519709
_cell_length_c	16.176319
_cell_angle_alpha	89.992256
_cell_angle_beta	89.998611
_cell_angle_gamma	83.481580
loop_
_atom_site_label
_atom_site_type_symbol
_atom_site_fract_x
_atom_site_fract_y
_atom_site_fract_z
O1	O	1.004413	0.116624	-0.068632
O2	O	0.784078	0.131798	-0.068660
O3	O	0.900087	-0.010052	-0.068638
O4	O	0.888403	0.258474	-0.068654
O5	O	0.900071	-0.010061	0.068855
O6	O	0.784062	0.131789	0.068833
O7	O	1.004397	0.116615	0.068861
Cu8	Cu	0.894228	0.124201	0.081401
Cu9	Cu	0.894247	0.124212	-0.081200
O10	O	0.888387	0.258465	0.068839
C11	C	0.755871	0.131249	0.000083
C12	C	0.671848	0.129618	0.000073
C13	C	0.899534	-0.044414	0.000109
C14	C	0.897903	-0.146789	0.000109
C15	C	0.623466	0.212881	0.000068
C16	C	0.544518	0.211343	0.000079
C17	C	0.513954	0.126541	0.000089
C18	C	0.562343	0.043272	0.000096
C19	C	0.641289	0.044811	0.000091
C20	C	0.243962	0.037064	0.000117
C21	C	0.165010	0.035531	0.000119
C22	C	0.147191	0.203596	0.000105
C23	C	0.226137	0.205135	0.000100
C24	C	0.274519	0.121866	0.000112
C25	C	0.360123	0.123535	0.000102
C26	C	0.428352	0.124872	0.000093
C27	C	0.891896	-0.521659	0.000087
C28	C	0.893564	-0.417358	0.000093
C29	C	0.894899	-0.334227	0.000099
C30	C	0.896568	-0.229920	0.000104
C31	C	1.032603	0.117164	0.000116
C32	C	1.116626	0.118795	0.000121
C33	C	0.888940	0.292827	0.000090
C34	C	0.890572	0.395202	0.000085
N35	N	0.894220	0.124193	0.195767
N36	N	0.894260	0.124213	-0.195565
C37	C	0.945604	0.061408	0.239040
C38	C	0.945608	0.061407	0.325588
C39	C	0.894231	0.124196	0.368859
C40	C	0.842841	0.186985	0.325579
C41	C	0.842834	0.186981	0.239034
C42	C	0.842867	0.187002	0.674608
C43	C	0.842879	0.187003	0.761159
C44	C	0.945641	0.061428	0.761161
C45	C	0.945634	0.061424	0.674616
C46	C	0.894242	0.124209	0.631343
C47	C	0.894237	0.124208	0.537499
C48	C	0.894238	0.124202	0.462702
H49	H	0.505128	0.279144	0.000074
C50	C	0.259173	0.297300	0.000133
C51	C	0.199903	0.369892	0.000154
C52	C	0.230305	0.454809	0.000199
H53	H	0.289588	0.301530	-0.047802
H54	H	0.289579	0.301438	0.048098
H55	H	0.169510	0.365756	-0.047806
H56	H	0.169483	0.365693	0.048086
H57	H	0.260711	0.458946	0.048164
H58	H	0.260719	0.459029	-0.047737
H59	H	0.190096	0.504072	0.000221
H60	H	0.987473	0.010298	0.639387
C61	C	0.787133	0.255299	0.192091
C62	C	0.799539	0.345908	0.213108
C63	C	0.748245	0.408866	0.169873
H64	H	0.736579	0.245485	0.206247
H65	H	0.794490	0.246365	0.134343
H66	H	0.792176	0.354838	0.270843
H67	H	0.850083	0.355751	0.198949
H68	H	0.755602	0.399932	0.112125
H69	H	0.697694	0.399044	0.184033
H70	H	0.756660	0.470351	0.184121
C71	C	1.001394	-0.006898	0.808041
C72	C	0.989012	-0.097504	0.786984
C73	C	1.040362	-0.160467	0.830143
H74	H	0.994092	0.001962	0.865794
H75	H	1.051932	0.002984	0.793835
H76	H	0.938486	-0.107382	0.801196
H77	H	0.996320	-0.106394	0.729238
H78	H	1.090900	-0.150585	0.815936
H79	H	1.033056	-0.151598	0.887894
H80	H	1.031973	-0.221950	0.815856
C81	C	0.693696	-0.045689	0.000050
C82	C	0.650035	-0.120286	0.000035
C83	C	0.698285	-0.203671	-0.000011
H84	H	0.724882	-0.048718	0.047982
H85	H	0.724851	-0.048629	-0.047918
H86	H	0.618894	-0.117348	0.047998
H87	H	0.618851	-0.117288	-0.047893
H88	H	0.729440	-0.206610	-0.047979
H89	H	0.729469	-0.206690	0.047922
H90	H	0.668668	-0.254294	-0.000029
C91	C	1.001421	-0.006870	0.192213
C92	C	1.046407	-0.061871	0.248639
C93	C	1.097827	-0.124790	0.205535
H94	H	1.033040	0.026146	0.158439
H95	H	0.974162	-0.045271	0.158480
H96	H	1.073665	-0.023474	0.282358
H97	H	1.014810	-0.094908	0.282415
H98	H	1.070568	-0.163192	0.171802
H99	H	1.129440	-0.091766	0.171763
H100	H	1.128351	-0.162122	0.243814
H101	H	0.107789	0.271397	0.000100
C102	C	0.787163	0.255325	0.627682
C103	C	0.799577	0.345929	0.648709
C104	C	0.748281	0.408898	0.605488
H105	H	0.736609	0.245514	0.641844
H106	H	0.794511	0.246401	0.569932
H107	H	0.792222	0.354850	0.706446
H108	H	0.850120	0.355770	0.634545
H109	H	0.755630	0.399974	0.547738
H110	H	0.697731	0.399078	0.619654
H111	H	0.756702	0.470379	0.619743
H112	H	0.987449	0.010281	0.360821
H113	H	0.801004	0.238106	0.360816
H114	H	0.648344	0.281937	0.000060
C115	C	0.131972	-0.056640	0.000178
C116	C	0.191239	-0.129235	0.000211
C117	C	0.160833	-0.214149	0.000274
H118	H	0.101557	-0.060865	-0.047755
H119	H	0.101566	-0.060777	0.048145
H120	H	0.221632	-0.125099	-0.047752
H121	H	0.221659	-0.125040	0.048140
H122	H	0.130427	-0.218287	0.048242
H123	H	0.130418	-0.218365	-0.047659
H124	H	0.201040	-0.263415	0.000304
C125	C	0.786967	0.255066	0.808099
C126	C	0.712577	0.240195	0.787081
C127	C	0.661055	0.302864	0.830314
H128	H	0.795155	0.316647	0.793942
H129	H	0.794284	0.246071	0.865847
H130	H	0.705263	0.249198	0.729346
H131	H	0.704365	0.178626	0.801241
H132	H	0.668372	0.293869	0.888063
H133	H	0.669249	0.364441	0.816153
H134	H	0.610576	0.292777	0.816066
C135	C	0.296571	-0.053272	-0.000011
C136	C	0.342425	-0.057287	-0.070740
C137	C	0.390906	-0.140489	-0.070883
H138	H	0.267151	-0.104068	-0.000051
H139	H	0.327785	-0.056184	0.047910
H140	H	0.311215	-0.054383	-0.118648
H141	H	0.371861	-0.006510	-0.070714
H142	H	0.422120	-0.143402	-0.022962
H143	H	0.361481	-0.191279	-0.070921
H144	H	0.422029	-0.143220	-0.118867
H145	H	0.537452	-0.025775	0.000116
