data_functionalizedCrystal
_audit_creation_method	'MofGen! by Chris Wilmer'
_symmetry_space_group_name_H-M	'P1'
_symmetry_Int_Tables_number	1
_symmetry_cell_setting	triclinic
loop_
_symmetry_equiv_pos_as_xyz
  x,y,z
_cell_length_a	21.295417
_cell_length_b	12.594517
_cell_length_c	21.295411
_cell_angle_alpha	90.024853
_cell_angle_beta	89.978356
_cell_angle_gamma	89.969694
loop_
_atom_site_label
_atom_site_type_symbol
_atom_site_fract_x
_atom_site_fract_y
_atom_site_fract_z
Zn1	Zn	-0.250684	-1.627197	-0.355916
Zn2	Zn	0.082649	-1.293864	-0.022583
Zn3	Zn	0.415982	-0.960530	0.310750
Zn4	Zn	-0.355936	-1.627032	-0.250642
Zn5	Zn	-0.022603	-1.293699	0.082692
Zn6	Zn	0.310731	-0.960365	0.416025
Zn7	Zn	-0.250684	-1.449190	-0.250661
Zn8	Zn	0.082649	-1.115857	0.082673
Zn9	Zn	0.415982	-0.782523	0.416006
Zn10	Zn	-0.355919	-1.449138	-0.355873
Zn11	Zn	-0.022586	-1.115805	-0.022540
Zn12	Zn	0.310747	-0.782472	0.310794
O13	O	-0.303306	-1.538139	-0.303273
O14	O	0.030027	-1.204806	0.030060
O15	O	0.363361	-0.871473	0.363394
O16	O	-0.264653	-1.776121	-0.341962
O17	O	0.068680	-1.442788	-0.008628
O18	O	0.402013	-1.109454	0.324705
O19	O	-0.341981	-1.603393	-0.162555
O20	O	-0.008648	-1.270060	0.170778
O21	O	0.324685	-0.936727	0.504112
O22	O	-0.162595	-1.472894	-0.264649
O23	O	0.170738	-1.139560	0.068684
O24	O	0.504072	-0.806227	0.402017
O25	O	-0.341981	-1.776000	-0.264617
O26	O	-0.008648	-1.442666	0.068717
O27	O	0.324685	-1.109333	0.402050
O28	O	-0.162595	-1.603675	-0.341980
O29	O	0.170738	-1.270341	-0.008647
O30	O	0.504072	-0.937008	0.324687
O31	O	-0.264653	-1.472734	-0.162569
O32	O	0.068680	-1.139400	0.170764
O33	O	0.402013	-0.806067	0.504098
O34	O	-0.264637	-1.300237	-0.264607
O35	O	0.068696	-0.966904	0.068726
O36	O	0.402030	-0.633571	0.402059
O37	O	-0.341952	-1.472805	-0.443968
O38	O	-0.008619	-1.139472	-0.110635
O39	O	0.324714	-0.806139	0.222699
O40	O	-0.341953	-1.300199	-0.341906
O41	O	-0.008619	-0.966866	-0.008573
O42	O	0.324714	-0.633533	0.324761
O43	O	-0.264637	-1.603625	-0.444000
O44	O	0.068697	-1.270291	-0.110667
O45	O	0.402030	-0.936958	0.222667
O46	O	-0.444023	-1.603343	-0.264575
O47	O	-0.110690	-1.270010	0.068759
O48	O	0.222643	-0.936677	0.402092
O49	O	-0.444011	-1.472645	-0.341888
O50	O	-0.110678	-1.139312	-0.008554
O51	O	0.222656	-0.805979	0.324779
C52	C	-0.303293	-1.261598	-0.303254
C53	C	0.030040	-0.928265	0.030079
C54	C	0.363373	-0.594932	0.363412
C55	C	-0.303303	-1.143293	-0.303261
C56	C	0.030030	-0.809960	0.030072
C57	C	0.363364	-0.476626	0.363405
C58	C	-0.466858	-1.538000	-0.303238
C59	C	-0.133524	-1.204666	0.030095
C60	C	0.199809	-0.871333	0.363429
C61	C	-0.536826	-1.538037	-0.303244
C62	C	-0.203492	-1.204704	0.030089
C63	C	0.129841	-0.871371	0.363422
C64	C	-0.303293	-1.538228	-0.467463
C65	C	0.030041	-1.204894	-0.134130
C66	C	0.363374	-0.871561	0.199203
C67	C	-0.303287	-1.538265	-0.537431
C68	C	0.030046	-1.204932	-0.204098
C69	C	0.363380	-0.871599	0.129235
C70	C	-0.569678	-1.606152	-0.263029
C71	C	-0.236345	-1.272819	0.070305
C72	C	0.096989	-0.939486	0.403638
C73	C	-0.635420	-1.606202	-0.263043
C74	C	-0.302087	-1.272869	0.070291
C75	C	0.031246	-0.939535	0.403624
C76	C	-0.668308	-1.538118	-0.303266
C77	C	-0.334975	-1.204785	0.030067
C78	C	-0.001642	-0.871452	0.363401
C79	C	-0.635448	-1.469999	-0.343489
C80	C	-0.302115	-1.136665	-0.010156
C81	C	0.031219	-0.803332	0.323177
C82	C	-0.569707	-1.469958	-0.343478
C83	C	-0.236373	-1.136625	-0.010145
C84	C	0.096960	-0.803292	0.323188
N85	N	-0.771575	-1.445008	-0.308059
N86	N	-0.438241	-1.111675	0.025275
N87	N	-0.104908	-0.778342	0.358608
N88	N	-0.834026	-1.445050	-0.308065
N89	N	-0.500693	-1.111716	0.025268
N90	N	-0.167359	-0.778383	0.358601
C91	C	-0.866383	-1.538237	-0.303302
C92	C	-0.533050	-1.204904	0.030031
C93	C	-0.199716	-0.871571	0.363365
N94	N	-0.833929	-1.631384	-0.298520
N95	N	-0.500596	-1.298051	0.034814
N96	N	-0.167262	-0.964718	0.368147
N97	N	-0.771472	-1.631342	-0.298510
N98	N	-0.438139	-1.298008	0.034824
N99	N	-0.104805	-0.964675	0.368157
C100	C	-0.739594	-1.538155	-0.303282
C101	C	-0.406260	-1.204822	0.030051
C102	C	-0.072927	-0.871488	0.363384
C103	C	-0.970521	-1.606412	-0.263100
C104	C	-0.637187	-1.273079	0.070234
C105	C	-0.303854	-0.939745	0.403567
C106	C	-1.036264	-1.606464	-0.263118
C107	C	-0.702931	-1.273130	0.070215
C108	C	-0.369598	-0.939797	0.403548
C109	C	-1.036291	-1.470251	-0.343561
C110	C	-0.702957	-1.136917	-0.010228
C111	C	-0.369624	-0.803584	0.323105
C112	C	-0.970548	-1.470209	-0.343546
C113	C	-0.637215	-1.136875	-0.010213
C114	C	-0.303882	-0.803542	0.323121
C115	C	-0.937667	-1.538288	-0.303312
C116	C	-0.604334	-1.204954	0.030021
C117	C	-0.271001	-0.871621	0.363355
C118	C	-0.139116	-1.538308	-0.303322
C119	C	0.194218	-1.204975	0.030012
C120	C	0.527551	-0.871642	0.363345
C121	C	-0.069148	-1.538380	-0.303342
C122	C	0.264186	-1.205047	0.029991
C123	C	0.597519	-0.871714	0.363324
C124	C	-0.303319	-1.815760	-0.303292
C125	C	0.030014	-1.482427	0.030041
C126	C	0.363348	-1.149093	0.363375
C127	C	-0.303325	-1.934066	-0.303300
C128	C	0.030009	-1.600732	0.030033
C129	C	0.363342	-1.267399	0.363367
C130	C	-0.261194	-1.074030	-0.261299
C131	C	0.072140	-0.740696	0.072035
C132	C	0.405473	-0.407363	0.405368
C133	C	-0.318610	-1.003192	-0.245807
C134	C	0.014723	-0.669859	0.087526
C135	C	0.348057	-0.336526	0.420859
C136	C	-0.245915	-1.003331	-0.318764
C137	C	0.087418	-0.669998	0.014570
C138	C	0.420752	-0.336664	0.347903
C139	C	-0.360749	-1.074014	-0.287740
C140	C	-0.027416	-0.740681	0.045593
C141	C	0.305917	-0.407347	0.378927
C142	C	-0.288016	-1.074159	-0.360723
C143	C	0.045318	-0.740825	-0.027390
C144	C	0.378651	-0.407492	0.305944
C145	C	-0.345472	-1.003354	-0.345253
C146	C	-0.012138	-0.670020	-0.011920
C147	C	0.321195	-0.336687	0.321413
C148	C	-0.263027	-1.606380	-0.570316
C149	C	0.070306	-1.273046	-0.236982
C150	C	0.403640	-0.939713	0.096351
C151	C	-0.263000	-1.606378	-0.636058
C152	C	0.070334	-1.273045	-0.302725
C153	C	0.403667	-0.939712	0.030608
C154	C	-0.303244	-1.538274	-0.668914
C155	C	0.030090	-1.204940	-0.335581
C156	C	0.363423	-0.871607	-0.002247
C157	C	-0.343507	-1.470146	-0.636022
C158	C	-0.010173	-1.136812	-0.302688
C159	C	0.323160	-0.803479	0.030645
C160	C	-0.343528	-1.470142	-0.570280
C161	C	-0.010195	-1.136808	-0.236947
C162	C	0.323138	-0.803475	0.096386
N163	N	-0.358311	-1.530062	-0.772129
N164	N	-0.024978	-1.196728	-0.438796
N165	N	0.308355	-0.863395	-0.105463
N166	N	-0.358289	-1.530072	-0.834581
N167	N	-0.024956	-1.196738	-0.501247
N168	N	0.308378	-0.863405	-0.167914
C169	C	-0.303180	-1.538280	-0.866989
C170	C	0.030153	-1.204947	-0.533655
C171	C	0.363487	-0.871614	-0.200322
N172	N	-0.248093	-1.546499	-0.834586
N173	N	0.085241	-1.213166	-0.501253
N174	N	0.418574	-0.879832	-0.167919
N175	N	-0.248116	-1.546494	-0.772129
N176	N	0.085218	-1.213161	-0.438796
N177	N	0.418551	-0.879828	-0.105462
C178	C	-0.303224	-1.538270	-0.740199
C179	C	0.030109	-1.204937	-0.406866
C180	C	0.363442	-0.871603	-0.073533
C181	C	-0.262887	-1.606397	-0.971159
C182	C	0.070447	-1.273064	-0.637825
C183	C	0.403780	-0.939730	-0.304492
C184	C	-0.262858	-1.606388	-1.036902
C185	C	0.070475	-1.273055	-0.703569
C186	C	0.403808	-0.939721	-0.370236
C187	C	-0.343371	-1.470161	-1.036865
C188	C	-0.010038	-1.136828	-0.703531
C189	C	0.323296	-0.803494	-0.370198
C190	C	-0.343394	-1.470164	-0.971122
C191	C	-0.010060	-1.136831	-0.637789
C192	C	0.323273	-0.803498	-0.304456
C193	C	-0.303153	-1.538288	-0.938273
C194	C	0.030181	-1.204955	-0.604940
C195	C	0.363514	-0.871621	-0.271606
C196	C	-0.303274	-1.538113	-0.139721
C197	C	0.030060	-1.204779	0.193612
C198	C	0.363393	-0.871446	0.526945
C199	C	-0.303102	-1.538281	-0.069754
C200	C	0.030231	-1.204948	0.263580
C201	C	0.363565	-0.871615	0.596913
H202	H	-0.542908	-1.661589	-0.230269
H203	H	-0.209575	-1.328256	0.103064
H204	H	0.123759	-0.994922	0.436398
H205	H	-0.275055	-1.105354	-0.409286
H206	H	0.058279	-0.772020	-0.075952
H207	H	0.391612	-0.438687	0.257381
N208	N	-1.069876	-1.400688	-0.384640
N209	N	-0.736542	-1.067354	-0.051307
N210	N	-0.403209	-0.734021	0.282026
N211	N	-1.062588	-1.302472	-0.380407
N212	N	-0.729255	-0.969139	-0.047074
N213	N	-0.395921	-0.635806	0.286260
H214	H	-1.086310	-1.253342	-0.409421
H215	H	-0.752977	-0.920008	-0.076088
H216	H	-0.419643	-0.586675	0.257245
H217	H	-0.662229	-1.414566	-0.376240
H218	H	-0.328896	-1.081233	-0.042907
H219	H	0.004437	-0.747899	0.290426
H220	H	-0.542958	-1.414490	-0.376228
H221	H	-0.209625	-1.081157	-0.042894
H222	H	0.123709	-0.747823	0.290439
H223	H	-0.376312	-1.414670	-0.543506
H224	H	-0.042979	-1.081336	-0.210173
H225	H	0.290355	-0.748003	0.123160
N226	N	-0.185028	-0.964363	-0.335204
N227	N	0.148305	-0.631029	-0.001871
N228	N	0.481639	-0.297696	0.331463
N229	N	-0.175414	-0.866607	-0.338305
N230	N	0.157919	-0.533273	-0.004972
N231	N	0.491253	-0.199940	0.328362
H232	H	-0.132412	-0.839086	-0.349913
H233	H	0.200922	-0.505753	-0.016580
H234	H	0.534255	-0.172419	0.316754
H235	H	-1.063012	-1.661938	-0.230371
H236	H	-0.729678	-1.328604	0.102962
H237	H	-0.396345	-0.995271	0.436296
H238	H	-0.376272	-1.414691	-0.662777
H239	H	-0.042938	-1.081358	-0.329444
H240	H	0.290395	-0.748024	0.003890
H241	H	-0.230259	-1.661850	-0.543574
H242	H	0.103075	-1.328517	-0.210241
H243	H	0.436408	-0.995184	0.123093
H244	H	-0.943748	-1.661850	-0.230340
H245	H	-0.610414	-1.328517	0.102993
H246	H	-0.277081	-0.995183	0.436326
H247	H	-0.943798	-1.414739	-0.376291
H248	H	-0.610465	-1.081405	-0.042958
H249	H	-0.277132	-0.748072	0.290376
N250	N	-0.421656	-1.112809	-0.271231
N251	N	-0.088323	-0.779476	0.062103
N252	N	0.245010	-0.446142	0.395436
N253	N	-0.428381	-1.170074	-0.223778
N254	N	-0.095047	-0.836740	0.109555
N255	N	0.238286	-0.503407	0.442888
H256	H	-0.471394	-1.197476	-0.212116
H257	H	-0.138061	-0.864143	0.121218
H258	H	0.195272	-0.530809	0.454551
H259	H	-0.381132	-0.972516	-0.380756
H260	H	-0.047799	-0.639183	-0.047423
H261	H	0.285534	-0.305850	0.285910
N262	N	-0.221778	-1.675955	-0.937590
N263	N	0.111556	-1.342622	-0.604256
N264	N	0.444889	-1.009289	-0.270923
N265	N	-0.221803	-1.675945	-0.878893
N266	N	0.111530	-1.342612	-0.545559
N267	N	0.444864	-1.009279	-0.212226
H268	H	-0.192769	-1.725070	-0.855185
H269	H	0.140564	-1.391737	-0.521852
H270	H	0.473898	-1.058403	-0.188518
H271	H	-0.230212	-1.661843	-0.662838
H272	H	0.103122	-1.328510	-0.329504
H273	H	0.436455	-0.995176	0.003829
H274	H	-0.230070	-1.661853	-1.063676
H275	H	0.103263	-1.328520	-0.730342
H276	H	0.436596	-0.995187	-0.397009
N277	N	-0.384470	-1.400589	-1.070427
N278	N	-0.051137	-1.067255	-0.737094
N279	N	0.282197	-0.733922	-0.403761
N280	N	-0.384443	-1.400595	-1.129124
N281	N	-0.051110	-1.067261	-0.795791
N282	N	0.282224	-0.733928	-0.462458
H283	H	-0.413468	-1.351454	-1.152832
H284	H	-0.080135	-1.018121	-0.819498
H285	H	0.253199	-0.684787	-0.486165
H286	H	-0.376182	-1.414704	-0.944348
H287	H	-0.042848	-1.081371	-0.611014
H288	H	0.290485	-0.748038	-0.277681
H289	H	-0.662174	-1.661673	-0.230295
H290	H	-0.328841	-1.328340	0.103039
H291	H	0.004493	-0.995007	0.436372
H292	H	-0.331554	-0.972023	-0.197230
H293	H	0.001780	-0.638690	0.136103
H294	H	0.335113	-0.305356	0.469437
N295	N	-0.216567	-1.112953	-0.216724
N296	N	0.116767	-0.779620	0.116610
N297	N	0.450100	-0.446286	0.449943
N298	N	-0.222271	-1.090163	-0.159872
N299	N	0.111063	-0.756829	0.173461
N300	N	0.444396	-0.423496	0.506795
H301	H	-0.190755	-1.117652	-0.128389
H302	H	0.142578	-0.784318	0.204944
H303	H	0.475911	-0.450985	0.538278
