data_functionalizedCrystal
_audit_creation_method	'MofGen! by Chris Wilmer'
_symmetry_space_group_name_H-M	'P1'
_symmetry_Int_Tables_number	1
_symmetry_cell_setting	triclinic
loop_
_symmetry_equiv_pos_as_xyz
  x,y,z
_cell_length_a	14.853567
_cell_length_b	14.853566
_cell_length_c	15.186229
_cell_angle_alpha	89.999490
_cell_angle_beta	90.000050
_cell_angle_gamma	83.634672
loop_
_atom_site_label
_atom_site_type_symbol
_atom_site_fract_x
_atom_site_fract_y
_atom_site_fract_z
O1	O	0.117698	1.196364	-0.073163
O2	O	0.131720	0.933904	-0.073176
O3	O	-0.006521	1.072145	-0.073172
O4	O	0.255939	1.058124	-0.073167
O5	O	-0.006523	1.072136	0.073285
O6	O	0.131718	0.933895	0.073281
O7	O	0.117696	1.196355	0.073294
Zn8	Zn	0.124707	1.065124	0.096541
Zn9	Zn	0.124709	1.065136	-0.096423
O10	O	0.255937	1.058114	0.073290
C11	C	0.131084	0.900311	0.000050
C12	C	0.129181	0.800227	0.000045
C13	C	-0.040111	1.071505	0.000054
C14	C	-0.140194	1.069601	0.000046
C15	C	0.121131	0.377048	-0.079774
C16	C	0.121129	0.377059	0.079900
C17	C	0.122917	0.471093	0.079897
C18	C	0.123813	0.518108	0.000058
C19	C	0.122921	0.471090	-0.079779
C20	C	0.123818	0.518117	0.159732
C21	C	0.125606	0.612157	0.159733
C22	C	0.126496	0.659175	0.079892
C23	C	0.125603	0.612151	0.000053
C24	C	0.126499	0.659166	-0.079787
C25	C	0.125600	0.612145	-0.159627
C26	C	0.123811	0.518108	-0.159619
C27	C	0.128285	0.753212	0.079884
C28	C	0.128289	0.753209	-0.079792
C29	C	-0.552728	0.979435	0.000059
C30	C	-0.574009	1.143668	0.000067
C31	C	-0.479976	1.145458	0.000062
C32	C	-0.422313	1.064236	0.000056
C33	C	-0.458685	0.981223	0.000056
C34	C	-0.443597	1.228470	0.000071
C35	C	-0.349558	1.230263	0.000067
C36	C	-0.291894	1.149040	0.000055
C37	C	-0.328271	1.066023	0.000054
C38	C	-0.270608	0.984801	0.000049
C39	C	-0.306984	0.901784	0.000041
C40	C	-0.401021	0.899999	0.000044
C41	C	-0.197856	1.150824	0.000052
C42	C	-0.176566	0.986588	0.000046
C43	C	0.289526	1.058754	0.000062
C44	C	0.389610	1.060658	0.000064
C45	C	0.118332	1.229948	0.000066
C46	C	0.120235	1.330032	0.000066
N47	N	0.124704	1.065122	0.228234
N48	N	0.124704	1.065145	-0.228116
C49	C	0.063512	1.126356	0.453958
C50	C	0.063510	1.126358	0.546148
C51	C	0.185900	1.003904	0.546153
C52	C	0.185897	1.003898	0.453965
C53	C	0.124704	1.065129	0.407870
C54	C	0.124705	1.065138	0.592248
C55	C	0.124703	1.065140	0.692204
C56	C	0.124704	1.065125	0.307908
H57	H	0.126336	0.650436	-0.224632
H58	H	0.120406	0.338772	0.144901
H59	H	-0.319950	1.297861	0.000072
C60	C	-0.507023	1.317805	0.000083
H61	H	-0.568238	1.304849	0.000075
H62	H	-0.495986	1.351833	0.051160
H63	H	-0.495988	1.351845	-0.050992
C64	C	0.253188	0.936534	0.596856
H65	H	0.289618	0.900055	0.556202
H66	H	0.290787	0.968985	0.632829
H67	H	0.220659	0.898978	0.632808
H68	H	0.129026	0.791491	0.144889
H69	H	-0.168244	1.218415	0.000064
C70	C	-0.243554	0.812442	0.000036
H71	H	-0.278680	0.762744	0.000037
H72	H	-0.206424	0.809734	-0.051034
H73	H	-0.206432	0.809727	0.051118
H74	H	0.123078	0.479815	-0.224621
C75	C	-0.003800	1.193706	0.596846
H76	H	0.004956	1.184936	0.658352
H77	H	0.006098	1.253884	0.581735
H78	H	-0.063989	1.183834	0.581736
C79	C	0.253214	0.936547	0.403265
H80	H	0.289667	0.900090	0.443919
H81	H	0.220714	0.898979	0.367305
H82	H	0.290801	0.969028	0.367299
H83	H	0.123094	0.479829	0.224733
C84	C	0.129278	0.804919	-0.167617
H85	H	0.128493	0.763444	-0.215161
H86	H	0.077449	0.848417	-0.170940
H87	H	0.182518	0.834785	-0.170936
C88	C	-0.003805	1.193698	0.403257
H89	H	-0.040255	1.230156	0.443912
H90	H	0.028688	1.231265	0.367288
H91	H	-0.041396	1.161212	0.367301
H92	H	0.120395	0.338759	-0.144778
C93	C	0.126587	0.663878	0.247549
H94	H	0.127784	0.726616	0.236114
H95	H	0.073763	0.655273	0.280353
H96	H	0.178832	0.641661	0.280353
H97	H	-0.129622	0.920446	0.000038
H98	H	-0.430646	0.832411	0.000039
H99	H	-0.620963	1.209796	0.000078
C100	C	-0.592735	0.888124	0.000054
H101	H	-0.656999	0.898687	0.000060
H102	H	-0.572949	0.854678	-0.051019
H103	H	-0.572950	0.854678	0.051133
