data_functionalizedCrystal
_audit_creation_method	'MofGen! by Chris Wilmer'
_symmetry_space_group_name_H-M	'P1'
_symmetry_Int_Tables_number	1
_symmetry_cell_setting	triclinic
loop_
_symmetry_equiv_pos_as_xyz
  x,y,z
_cell_length_a	14.908783
_cell_length_b	14.909351
_cell_length_c	19.076919
_cell_angle_alpha	84.300768
_cell_angle_beta	91.152445
_cell_angle_gamma	90.205778
loop_
_atom_site_label
_atom_site_type_symbol
_atom_site_fract_x
_atom_site_fract_y
_atom_site_fract_z
Zn1	Zn	1.372406	-0.304454	0.473551
Zn2	Zn	1.386335	-0.448811	0.362994
Zn3	Zn	1.228049	-0.306407	0.349450
Zn4	Zn	1.230645	-0.463464	0.474291
O5	O	1.304359	-0.380784	0.415072
O6	O	1.499825	-0.316654	0.464244
O7	O	1.370081	-0.424605	0.262683
O8	O	1.240282	-0.180005	0.359934
O9	O	1.510058	-0.422712	0.383019
O10	O	1.346341	-0.178571	0.451111
O11	O	1.253789	-0.319982	0.252732
O12	O	1.102822	-0.334190	0.360652
O13	O	1.244707	-0.447686	0.572708
O14	O	1.104729	-0.449579	0.452372
O15	O	1.348858	-0.330862	0.572164
O16	O	1.372598	-0.576897	0.383737
O17	O	1.258213	-0.587662	0.465506
C18	C	1.071216	-0.393687	0.405123
C19	C	0.971478	-0.399230	0.400885
C20	C	0.773401	-0.299373	0.477646
C21	C	0.679688	-0.304578	0.473666
C22	C	0.690334	-0.414840	0.388941
C23	C	0.784048	-0.409635	0.392921
C24	C	0.825578	-0.351900	0.437276
C25	C	0.919294	-0.346701	0.441259
C26	C	0.929939	-0.456958	0.356532
C27	C	0.836225	-0.462163	0.352551
C28	C	1.317222	-0.614986	0.426188
C29	C	1.322807	-0.715176	0.430970
C30	C	1.385835	-0.855574	0.485206
C31	C	1.380594	-0.761437	0.480716
C32	C	1.270258	-0.763059	0.385709
C33	C	1.275499	-0.857196	0.390198
C34	C	1.333288	-0.903450	0.439949
C35	C	1.338524	-0.997590	0.444442
C36	C	1.228193	-0.999210	0.349431
C37	C	1.222952	-0.905073	0.344942
C38	C	1.538411	-0.367830	0.425060
C39	C	1.638150	-0.362310	0.429316
C40	C	1.295518	-0.390691	0.598694
C41	C	1.291751	-0.394912	0.676943
C42	C	1.291468	-0.145666	0.403929
C43	C	1.285975	-0.045473	0.399180
C44	C	1.313213	-0.370847	0.232163
C45	C	1.317140	-0.366362	0.153910
C46	C	1.344204	-0.336075	0.713423
C47	C	1.340654	-0.340039	0.786945
C48	C	1.284653	-0.402845	0.823987
C49	C	1.232194	-0.461686	0.787503
C50	C	1.235741	-0.457717	0.713981
C51	C	1.268227	-0.421233	1.043903
C52	C	1.264686	-0.425200	1.117430
C53	C	1.373145	-0.303551	1.116868
C54	C	1.376691	-0.299592	1.043345
C55	C	1.324228	-0.358429	1.006866
N56	N	1.281025	-0.406901	0.899139
N57	N	1.327852	-0.354368	0.931715
H58	H	0.972431	-0.499737	0.323665
H59	H	0.802398	-0.509165	0.316437
H60	H	1.186594	-0.512821	0.817668
C61	C	0.964981	-0.283198	0.490046
H62	H	1.028267	-0.287626	0.486641
H63	H	0.946780	-0.222915	0.476289
H64	H	0.948090	-0.299890	0.537311
H65	H	0.807216	-0.252367	0.513764
H66	H	1.385571	-1.035249	0.484957
H67	H	1.432875	-0.893236	0.525725
C68	C	1.438384	-0.708776	0.530506
H69	H	1.473543	-0.749810	0.560782
H70	H	1.476762	-0.668408	0.503526
H71	H	1.400494	-0.675632	0.557942
C72	C	1.210529	-0.485956	1.003783
H73	H	1.220650	-0.474595	0.954690
H74	H	1.226401	-0.546445	1.019264
H75	H	1.148930	-0.476745	1.012634
C76	C	1.206702	-0.712169	0.330985
H77	H	1.211109	-0.649248	0.334797
H78	H	1.223020	-0.724326	0.284993
H79	H	1.146761	-0.731528	0.339416
H80	H	1.175903	-0.867402	0.304434
C81	C	1.170383	-1.051877	0.299651
H82	H	1.181781	-1.114566	0.309448
H83	H	1.108733	-1.040382	0.306612
H84	H	1.184985	-1.033182	0.252181
H85	H	1.389809	-0.284934	0.683268
C86	C	0.644640	-0.478333	0.340151
H87	H	0.581355	-0.473908	0.343566
H88	H	0.661532	-0.461646	0.292889
H89	H	0.662833	-0.538624	0.353909
C90	C	1.398357	-0.275321	0.827070
H91	H	1.432225	-0.237356	0.794480
H92	H	1.360499	-0.239489	0.852423
H93	H	1.437963	-0.309197	0.859055
C94	C	1.438291	-0.230505	1.002604
H95	H	1.469019	-0.196026	1.034860
H96	H	1.480661	-0.261279	0.977228
H97	H	1.403193	-0.191576	0.970594
H98	H	1.415856	-0.255649	1.146576
C99	C	1.203081	-0.494288	1.158175
H100	H	1.172338	-0.528756	1.125920
H101	H	1.238177	-0.533213	1.190182
H102	H	1.160711	-0.463508	1.183553
C103	C	1.178044	-0.522436	0.673850
H104	H	1.188169	-0.511072	0.624758
H105	H	1.193912	-0.582927	0.689328
H106	H	1.116446	-0.513222	0.682699
C107	C	0.622296	-0.246804	0.518077
H108	H	0.660455	-0.211681	0.545066
H109	H	0.584857	-0.208057	0.487779
H110	H	0.586178	-0.285035	0.548799
