data_functionalizedCrystal
_audit_creation_method	'MofGen! by Chris Wilmer'
_symmetry_space_group_name_H-M	'P1'
_symmetry_Int_Tables_number	1
_symmetry_cell_setting	triclinic
loop_
_symmetry_equiv_pos_as_xyz
  x,y,z
_cell_length_a	12.811439
_cell_length_b	12.996460
_cell_length_c	12.837942
_cell_angle_alpha	90.005421
_cell_angle_beta	90.588939
_cell_angle_gamma	95.425732
loop_
_atom_site_label
_atom_site_type_symbol
_atom_site_fract_x
_atom_site_fract_y
_atom_site_fract_z
O1	O	-1.406628	-0.045679	0.139651
O2	O	-0.906628	0.454321	0.639651
O3	O	-1.102567	-0.017306	0.154847
O4	O	-0.602567	0.482694	0.654847
O5	O	-1.247855	-0.030870	-0.003682
O6	O	-0.747855	0.469130	0.496318
O7	O	-1.261339	-0.032115	0.298181
O8	O	-0.761339	0.467885	0.798181
O9	O	-1.247837	-0.202002	-0.003691
O10	O	-0.747837	0.297998	0.496309
O11	O	-1.102549	-0.188438	0.154839
O12	O	-0.602549	0.311562	0.654839
O13	O	-1.406610	-0.216811	0.139642
O14	O	-0.906610	0.283189	0.639642
Cu15	Cu	-1.254578	-0.218250	0.147240
Cu16	Cu	-0.754578	0.281750	0.647240
Cu17	Cu	-1.254599	-0.015867	0.147250
Cu18	Cu	-0.754599	0.484133	0.647250
O19	O	-1.261322	-0.203247	0.298172
O20	O	-0.761322	0.296753	0.798172
C21	C	-1.063369	-0.099216	0.153993
C22	C	-0.563369	0.400784	0.653993
C23	C	-0.946598	-0.088320	0.151447
C24	C	-0.446598	0.411680	0.651447
C25	C	-0.727152	-0.254434	0.146634
C26	C	-0.227152	0.245566	0.646634
C27	C	-0.617435	-0.244202	0.144242
C28	C	-0.117435	0.255798	0.644242
C29	C	-0.617446	-0.057623	0.144263
C30	C	-0.117446	0.442377	0.644263
C31	C	-0.727162	-0.067856	0.146655
C32	C	-0.227162	0.432144	0.646655
C33	C	-0.782012	-0.166264	0.147842
C34	C	-0.282012	0.333736	0.647842
C35	C	-0.891731	-0.176496	0.150242
C36	C	-0.391731	0.323504	0.650242
C37	C	-0.891739	0.010082	0.150255
C38	C	-0.391739	0.510082	0.650255
C39	C	-0.782022	0.020314	0.147863
C40	C	-0.282022	0.520314	0.647863
N41	N	-1.254571	-0.360597	0.147232
N42	N	-0.754571	0.139403	0.647232
C43	C	-1.254597	-0.780413	0.147251
C44	C	-0.754597	-0.280413	0.647251
C45	C	-1.254587	-0.663607	0.147249
C46	C	-0.754587	-0.163607	0.647249
C47	C	-1.254585	-0.570509	0.147242
C48	C	-0.754585	-0.070509	0.647242
C49	C	-1.254573	-0.453695	0.147239
C50	C	-0.754573	0.046305	0.647239
C51	C	-0.445807	-0.134902	0.140501
C52	C	0.054193	0.365098	0.640501
C53	C	-0.562578	-0.145799	0.143058
C54	C	-0.062578	0.354201	0.643058
C55	C	-1.243291	-0.116010	-0.042327
C56	C	-0.743291	0.383990	0.457673
C57	C	-1.229705	-0.114741	-0.157462
C58	C	-0.729705	0.385259	0.342538
N59	N	-1.254613	0.126479	0.147250
N60	N	-0.754613	0.626479	0.647250
C61	C	-1.393032	-0.129959	-0.397720
C62	C	-0.893032	0.370041	0.102280
C63	C	-1.380272	-0.128767	-0.505901
C64	C	-0.880272	0.371233	-0.005901
C65	C	-1.191425	-0.111156	-0.482006
C66	C	-0.691425	0.388844	0.017994
C67	C	-1.204185	-0.112349	-0.373826
C68	C	-0.704185	0.387651	0.126174
C69	C	-1.304992	-0.121752	-0.331687
C70	C	-0.804992	0.378248	0.168313
C71	C	-1.317752	-0.122952	-0.223504
C72	C	-0.817752	0.377048	0.276496
C73	C	-1.128905	-0.105334	-0.199612
C74	C	-0.628905	0.394666	0.300388
C75	C	-1.116145	-0.104141	-0.307792
C76	C	-0.616145	0.395859	0.192208
C77	C	-1.265886	-0.118105	0.336817
C78	C	-0.765886	0.381895	0.836817
C79	C	-1.279472	-0.119367	0.451952
C80	C	-0.779472	0.380633	0.951952
H81	H	-0.572773	-0.315999	0.143264
H82	H	-0.072773	0.184001	0.643264
F83	F	-1.084148	-0.101124	-0.526871
F84	F	-0.584148	0.398876	-0.026871
F85	F	-1.425038	-0.132966	-0.178659
F86	F	-0.925038	0.367034	0.321341
H87	H	-0.936417	0.081876	0.151245
H88	H	-0.436417	0.581876	0.651245
F89	F	-0.950104	-0.281230	0.151509
F90	F	-0.450104	0.218770	0.651509
F91	F	-0.559056	0.047102	0.142920
F92	F	-0.059056	0.547102	0.642920
H93	H	-1.475113	-0.137626	-0.363411
H94	H	-0.975113	0.362374	0.136589
F95	F	-1.473977	-0.137500	-0.576176
F96	F	-0.973977	0.362500	-0.076176
F97	F	-0.785529	-0.359166	0.147910
F98	F	-0.285529	0.140834	0.647910
H99	H	-0.737349	0.100436	0.146892
H100	H	-0.237349	0.600436	0.646892
H101	H	-1.034071	-0.096481	-0.342117
H102	H	-0.534071	0.403519	0.157883
H103	H	-1.057217	-0.098659	-0.145835
H104	H	-0.557217	0.401341	0.354165
