data_functionalizedCrystal
_audit_creation_method	'MofGen! by Chris Wilmer'
_symmetry_space_group_name_H-M	'P1'
_symmetry_Int_Tables_number	1
_symmetry_cell_setting	triclinic
loop_
_symmetry_equiv_pos_as_xyz
  x,y,z
_cell_length_a	25.639242
_cell_length_b	29.839131
_cell_length_c	25.639233
_cell_angle_alpha	89.984584
_cell_angle_beta	89.977834
_cell_angle_gamma	90.037230
loop_
_atom_site_label
_atom_site_type_symbol
_atom_site_fract_x
_atom_site_fract_y
_atom_site_fract_z
Zn1	Zn	0.799214	-0.178962	-0.295754
Zn2	Zn	1.132547	0.154372	0.037579
Zn3	Zn	1.465881	0.487705	0.370912
Zn4	Zn	0.799133	-0.254076	-0.208324
Zn5	Zn	1.132466	0.079257	0.125010
Zn6	Zn	1.465800	0.412591	0.458343
Zn7	Zn	0.711790	-0.178955	-0.208318
Zn8	Zn	1.045124	0.154378	0.125015
Zn9	Zn	1.378457	0.487712	0.458348
Zn10	Zn	0.711731	-0.254059	-0.295714
Zn11	Zn	1.045064	0.079274	0.037620
Zn12	Zn	1.378398	0.412607	0.370953
O13	O	0.755467	-0.216513	-0.252028
O14	O	1.088800	0.116820	0.081306
O15	O	1.422134	0.450154	0.414639
O16	O	0.872369	-0.188935	-0.284176
O17	O	1.205702	0.144398	0.049158
O18	O	1.539035	0.477731	0.382491
O19	O	0.787538	-0.244115	-0.135158
O20	O	1.120871	0.089218	0.198176
O21	O	1.454204	0.422551	0.531509
O22	O	0.723446	-0.116089	-0.219932
O23	O	1.056780	0.217245	0.113402
O24	O	1.390113	0.550578	0.446735
O25	O	0.872309	-0.244122	-0.219941
O26	O	1.205642	0.089212	0.113392
O27	O	1.538976	0.422545	0.446726
O28	O	0.787676	-0.116094	-0.284171
O29	O	1.121009	0.217240	0.049163
O30	O	1.454343	0.550573	0.382496
O31	O	0.723368	-0.188924	-0.135154
O32	O	1.056701	0.144409	0.198179
O33	O	1.390034	0.477742	0.531513
O34	O	0.638617	-0.188908	-0.219892
O35	O	0.971951	0.144425	0.113441
O36	O	1.305284	0.477759	0.446774
O37	O	0.723345	-0.244093	-0.368884
O38	O	1.056678	0.089240	-0.035551
O39	O	1.390011	0.422573	0.297782
O40	O	0.638574	-0.244087	-0.284101
O41	O	0.971907	0.089246	0.049232
O42	O	1.305240	0.422580	0.382565
O43	O	0.787618	-0.188919	-0.368914
O44	O	1.120952	0.144414	-0.035581
O45	O	1.454285	0.477747	0.297753
O46	O	0.787480	-0.316941	-0.219901
O47	O	1.120813	0.016392	0.113432
O48	O	1.454147	0.349726	0.446765
O49	O	0.723266	-0.316929	-0.284106
O50	O	1.056599	0.016405	0.049227
O51	O	1.389933	0.349738	0.382560
C52	C	0.619625	-0.216495	-0.251992
C53	C	0.952958	0.116838	0.081341
C54	C	1.286291	0.450171	0.414675
C55	C	0.561510	-0.216499	-0.251989
C56	C	0.894844	0.116835	0.081344
C57	C	1.228177	0.450168	0.414677
C58	C	0.201134	-0.245293	-0.285429
C59	C	0.534467	0.088041	0.047904
C60	C	0.867800	0.421374	0.381237
C61	C	0.146529	-0.245295	-0.285438
C62	C	0.479863	0.088038	0.047896
C63	C	0.813196	0.421371	0.381229
O64	O	0.118281	-0.269755	-0.313840
O65	O	0.451614	0.063578	0.019494
O66	O	0.784947	0.396911	0.352827
N67	N	0.119228	-0.216525	-0.252062
N68	N	0.452561	0.116808	0.081272
N69	N	0.785895	0.450141	0.414605
C70	C	0.146534	-0.187748	-0.218679
C71	C	0.479867	0.145586	0.114654
C72	C	0.813201	0.478919	0.447988
O73	O	0.118298	-0.163276	-0.190291
O74	O	0.451631	0.170057	0.143042
O75	O	0.784965	0.503390	0.476376
C76	C	0.201137	-0.187743	-0.218674
C77	C	0.534471	0.145590	0.114660
C78	C	0.867804	0.478924	0.447993
C79	C	0.228436	-0.216518	-0.252048
C80	C	0.561769	0.116815	0.081285
C81	C	0.895102	0.450149	0.414618
C82	C	0.228432	-0.274065	-0.318802
C83	C	0.561765	0.059268	0.014532
C84	C	0.895099	0.392602	0.347865
C85	C	0.283033	-0.274063	-0.318793
C86	C	0.616366	0.059270	0.014541
C87	C	0.949699	0.392604	0.347874
C88	C	0.310335	-0.245288	-0.285411
C89	C	0.643668	0.088045	0.047922
C90	C	0.977001	0.421379	0.381255
C91	C	0.283036	-0.216516	-0.252039
C92	C	0.616370	0.116818	0.081294
C93	C	0.949703	0.450151	0.414628
C94	C	0.228442	-0.158963	-0.185294
C95	C	0.561776	0.174370	0.148039
C96	C	0.895109	0.507704	0.481373
C97	C	0.283049	-0.158961	-0.185292
C98	C	0.616383	0.174373	0.148041
C99	C	0.949716	0.507706	0.481375
C100	C	0.310348	-0.187736	-0.218666
C101	C	0.643681	0.145598	0.114667
C102	C	0.977014	0.478931	0.448000
C103	C	0.364939	-0.187739	-0.218649
C104	C	0.698272	0.145595	0.114685
C105	C	1.031605	0.478928	0.448018
N106	N	0.392240	-0.216509	-0.252025
N107	N	0.725573	0.116825	0.081309
N108	N	1.058907	0.450158	0.414642
C109	C	0.364938	-0.245283	-0.285406
C110	C	0.698271	0.088050	0.047927
C111	C	1.031605	0.421383	0.381261
C112	C	0.031863	-0.187759	-0.218693
C113	C	0.365197	0.145574	0.114640
C114	C	0.698530	0.478908	0.447974
C115	C	-0.022739	-0.187766	-0.218695
C116	C	0.310594	0.145568	0.114638
C117	C	0.643928	0.478901	0.447971
C118	C	-0.022740	-0.245313	-0.285455
C119	C	0.310593	0.088020	0.047878
C120	C	0.643927	0.421354	0.381212
C121	C	0.031863	-0.245308	-0.285450
C122	C	0.365197	0.088025	0.047884
C123	C	0.698530	0.421358	0.381217
C124	C	0.059165	-0.216529	-0.252069
C125	C	0.392498	0.116804	0.081264
C126	C	0.725831	0.450138	0.414598
C127	C	0.479603	-0.245277	-0.285384
C128	C	0.812936	0.088057	0.047949
C129	C	1.146270	0.421390	0.381283
C130	C	0.534208	-0.245273	-0.285371
C131	C	0.867542	0.088060	0.047963
C132	C	1.200875	0.421393	0.381296
C133	C	0.534205	-0.187724	-0.218613
C134	C	0.867538	0.145609	0.114720
C135	C	1.200871	0.478942	0.448053
C136	C	0.479604	-0.187729	-0.218625
C137	C	0.812937	0.145604	0.114709
C138	C	1.146271	0.478937	0.448042
C139	C	0.452305	-0.216507	-0.252014
C140	C	0.785638	0.116826	0.081319
C141	C	1.118971	0.450160	0.414652
O142	O	0.393222	-0.163290	-0.190263
O143	O	0.726555	0.170043	0.143070
O144	O	1.059889	0.503377	0.476404
O145	O	0.393180	-0.269746	-0.313794
O146	O	0.726514	0.063587	0.019539
O147	O	1.059847	0.396920	0.352873
C148	C	0.755372	-0.333236	-0.252011
C149	C	1.088705	0.000098	0.081322
C150	C	1.422039	0.333431	0.414655
C151	C	0.755379	-0.383170	-0.252022
C152	C	1.088712	-0.049837	0.081311
C153	C	1.422046	0.283497	0.414645
C154	C	0.722052	-0.739766	-0.285457
C155	C	1.055386	-0.406433	0.047876
C156	C	1.388719	-0.073100	0.381210
C157	C	0.721983	-0.552093	-0.285440
C158	C	1.055317	-0.218760	0.047893
C159	C	1.388650	0.114573	0.381226
O160	O	0.693534	-0.527837	-0.313858
O161	O	1.026867	-0.194503	0.019475
O162	O	1.360200	0.138830	0.352809
N163	N	0.755434	-0.528615	-0.252038
N164	N	1.088768	-0.195282	0.081296
N165	N	1.422101	0.138051	0.414629
C166	C	0.788908	-0.552058	-0.218639
C167	C	1.122241	-0.218725	0.114694
C168	C	1.455574	0.114609	0.448028
O169	O	0.817362	-0.527782	-0.190231
O170	O	1.150695	-0.194449	0.143102
O171	O	1.484029	0.138885	0.476435
C172	C	0.788979	-0.739730	-0.218659
C173	C	1.122312	-0.406397	0.114675
C174	C	1.455646	-0.073064	0.448008
C175	C	0.755522	-0.763206	-0.252060
C176	C	1.088855	-0.429873	0.081274
C177	C	1.422189	-0.096539	0.414607
C178	C	0.688599	-0.763242	-0.318856
C179	C	1.021932	-0.429909	0.014478
C180	C	1.355265	-0.096576	0.347811
C181	C	0.688614	-0.810158	-0.318857
C182	C	1.021947	-0.476824	0.014476
C183	C	1.355281	-0.143491	0.347809
C184	C	0.722084	-0.833597	-0.285460
C185	C	1.055417	-0.500264	0.047873
C186	C	1.388750	-0.166931	0.381206
C187	C	0.755538	-0.810122	-0.252061
C188	C	1.088871	-0.476788	0.081272
C189	C	1.422204	-0.143455	0.414605
C190	C	0.822454	-0.763172	-0.185263
C191	C	1.155788	-0.429839	0.148070
C192	C	1.489121	-0.096506	0.481404
C193	C	0.822470	-0.810093	-0.185272
C194	C	1.155804	-0.476760	0.148062
C195	C	1.489137	-0.143427	0.481395
C196	C	0.789013	-0.833569	-0.218673
C197	C	1.122346	-0.500236	0.114660
C198	C	1.455680	-0.166902	0.447994
C199	C	0.789023	-0.880477	-0.218666
C200	C	1.122356	-0.547143	0.114667
C201	C	1.455689	-0.213810	0.448001
N202	N	0.755572	-0.903955	-0.252069
N203	N	1.088905	-0.570621	0.081265
N204	N	1.422238	-0.237288	0.414598
C205	C	0.722102	-0.880515	-0.285466
C206	C	1.055435	-0.547182	0.047867
C207	C	1.388769	-0.213849	0.381201
C208	C	0.788867	-0.453527	-0.218631
C209	C	1.122200	-0.120194	0.114703
C210	C	1.455534	0.213139	0.448036
C211	C	0.788849	-0.406610	-0.218625
C212	C	1.122182	-0.073276	0.114708
C213	C	1.455515	0.260057	0.448042
C214	C	0.721925	-0.406648	-0.285427
C215	C	1.055258	-0.073315	0.047906
C216	C	1.388592	0.260018	0.381240
C217	C	0.721941	-0.453567	-0.285430
C218	C	1.055274	-0.120234	0.047904
C219	C	1.388608	0.213100	0.381237
C220	C	0.755416	-0.477006	-0.252033
C221	C	1.088749	-0.143672	0.081300
C222	C	1.422083	0.189661	0.414633
C223	C	0.722137	-0.979041	-0.285467
C224	C	1.055470	-0.645708	0.047867
C225	C	1.388804	-0.312374	0.381200
C226	C	0.722154	-1.025961	-0.285464
C227	C	1.055487	-0.692627	0.047869
C228	C	1.388821	-0.359294	0.381203
C229	C	0.789079	-1.025918	-0.218664
C230	C	1.122413	-0.692585	0.114669
C231	C	1.455746	-0.359251	0.448003
C232	C	0.789061	-0.979002	-0.218665
C233	C	1.122394	-0.645669	0.114669
C234	C	1.455727	-0.312336	0.448002
C235	C	0.755588	-0.955565	-0.252070
C236	C	1.088921	-0.622232	0.081263
C237	C	1.422254	-0.288898	0.414596
O238	O	0.817461	-0.904762	-0.190268
O239	O	1.150795	-0.571429	0.143066
O240	O	1.484128	-0.238095	0.476399
O241	O	0.693660	-0.904799	-0.313878
O242	O	1.026993	-0.571466	0.019456
O243	O	1.360327	-0.238133	0.352789
C244	C	0.722037	-0.692851	-0.285455
C245	C	1.055370	-0.359518	0.047878
C246	C	1.388703	-0.026184	0.381212
C247	C	0.755491	-0.669375	-0.252056
C248	C	1.088824	-0.336042	0.081277
C249	C	1.422157	-0.002708	0.414610
C250	C	0.788960	-0.692815	-0.218659
C251	C	1.122294	-0.359481	0.114674
C252	C	1.455627	-0.026148	0.448008
C253	C	0.755472	-0.622457	-0.252051
C254	C	1.088806	-0.289124	0.081283
C255	C	1.422139	0.044209	0.414616
C256	C	0.722003	-0.599018	-0.285448
C257	C	1.055336	-0.265684	0.047886
C258	C	1.388669	0.067649	0.381219
C259	C	0.688552	-0.622496	-0.318850
C260	C	1.021885	-0.289163	0.014483
C261	C	1.355218	0.044171	0.347816
C262	C	0.688567	-0.669411	-0.318852
C263	C	1.021901	-0.336078	0.014481
C264	C	1.355234	-0.002745	0.347814
C265	C	0.822411	-0.669337	-0.185256
C266	C	1.155745	-0.336003	0.148077
C267	C	1.489078	-0.002670	0.481410
C268	C	0.822393	-0.622421	-0.185257
C269	C	1.155726	-0.289088	0.148076
C270	C	1.489059	0.044246	0.481410
C271	C	0.788923	-0.598981	-0.218654
C272	C	1.122256	-0.265648	0.114679
C273	C	1.455590	0.067685	0.448013
C274	C	0.891840	-0.216531	-0.252063
C275	C	1.225173	0.116802	0.081270
C276	C	1.558507	0.450136	0.414603
C277	C	0.949954	-0.216539	-0.252079
C278	C	1.283287	0.116794	0.081255
C279	C	1.616621	0.450128	0.414588
C280	C	0.755484	-0.216505	-0.388401
C281	C	1.088817	0.116828	-0.055067
C282	C	1.422151	0.450162	0.278266
C283	C	0.755491	-0.216502	-0.446515
C284	C	1.088824	0.116832	-0.113181
C285	C	1.422158	0.450165	0.220152
C286	C	0.755577	-0.099335	-0.252055
C287	C	1.088910	0.233999	0.081278
C288	C	1.422243	0.567332	0.414612
C289	C	0.755624	-0.049400	-0.252067
C290	C	1.088957	0.283933	0.081266
C291	C	1.422290	0.617266	0.414600
C292	C	0.789001	-0.187687	-0.806899
C293	C	1.122334	0.145646	-0.473566
C294	C	1.455667	0.478979	-0.140232
C295	C	0.789007	-0.187675	-0.861503
C296	C	1.122341	0.145658	-0.528170
C297	C	1.455674	0.478992	-0.194837
O298	O	0.817456	-0.163229	-0.889758
O299	O	1.150789	0.170105	-0.556425
O300	O	1.484123	0.503438	-0.223092
N301	N	0.755549	-0.216396	-0.888797
N302	N	1.088882	0.116937	-0.555464
N303	N	1.422215	0.450270	-0.222131
C304	C	0.722078	-0.245129	-0.861484
C305	C	1.055411	0.088204	-0.528151
C306	C	1.388745	0.421538	-0.194817
O307	O	0.693619	-0.269558	-0.889714
O308	O	1.026952	0.063776	-0.556380
O309	O	1.360286	0.397109	-0.223047
C310	C	0.722069	-0.245139	-0.806881
C311	C	1.055403	0.088194	-0.473547
C312	C	1.388736	0.421528	-0.140214
C313	C	0.755534	-0.216419	-0.779590
C314	C	1.088867	0.116915	-0.446256
C315	C	1.422200	0.450248	-0.112923
C316	C	0.822462	-0.158969	-0.779608
C317	C	1.155795	0.174364	-0.446275
C318	C	1.489129	0.507698	-0.112941
C319	C	0.822456	-0.158982	-0.725007
C320	C	1.155789	0.174351	-0.391674
C321	C	1.489123	0.507685	-0.058341
C322	C	0.788989	-0.187714	-0.697698
C323	C	1.122322	0.145620	-0.364365
C324	C	1.455656	0.478953	-0.031031
C325	C	0.755528	-0.216432	-0.724989
C326	C	1.088861	0.116902	-0.391656
C327	C	1.422194	0.450235	-0.058322
C328	C	0.688596	-0.273869	-0.779569
C329	C	1.021929	0.059464	-0.446235
C330	C	1.355263	0.392798	-0.112902
C331	C	0.688590	-0.273876	-0.724961
C332	C	1.021923	0.059457	-0.391628
C333	C	1.355257	0.392791	-0.058295
C334	C	0.722054	-0.245156	-0.697670
C335	C	1.055388	0.088177	-0.364337
C336	C	1.388721	0.421511	-0.031004
C337	C	0.722055	-0.245176	-0.643079
C338	C	1.055388	0.088157	-0.309746
C339	C	1.388721	0.421490	0.023588
N340	N	0.755513	-0.216455	-0.615785
N341	N	1.088846	0.116879	-0.282452
N342	N	1.422180	0.450212	0.050881
C343	C	0.788980	-0.187723	-0.643095
C344	C	1.122314	0.145610	-0.309761
C345	C	1.455647	0.478943	0.023572
C346	C	0.722098	-0.245106	-0.976155
C347	C	1.055431	0.088228	-0.642821
C348	C	1.388765	0.421561	-0.309488
C349	C	0.722109	-0.245099	-1.030757
C350	C	1.055442	0.088235	-0.697424
C351	C	1.388776	0.421568	-0.364090
C352	C	0.789038	-0.187644	-1.030773
C353	C	1.122371	0.145690	-0.697439
C354	C	1.455705	0.479023	-0.364106
C355	C	0.789029	-0.187653	-0.976169
C356	C	1.122362	0.145680	-0.642836
C357	C	1.455696	0.479013	-0.309503
C358	C	0.755557	-0.216384	-0.948861
C359	C	1.088890	0.116949	-0.615528
C360	C	1.422223	0.450282	-0.282194
C361	C	0.788966	-0.187753	-0.528429
C362	C	1.122299	0.145580	-0.195096
C363	C	1.455632	0.478913	0.138237
C364	C	0.788958	-0.187770	-0.473824
C365	C	1.122292	0.145563	-0.140491
C366	C	1.455625	0.478896	0.192843
C367	C	0.722028	-0.245223	-0.473813
C368	C	1.055361	0.088110	-0.140480
C369	C	1.388695	0.421443	0.192853
C370	C	0.722037	-0.245208	-0.528414
C371	C	1.055370	0.088125	-0.195081
C372	C	1.388704	0.421458	0.138253
C373	C	0.755508	-0.216470	-0.555721
C374	C	1.088841	0.116864	-0.222387
C375	C	1.422174	0.450197	0.110946
O376	O	0.693619	-0.269609	-0.614790
O377	O	1.026952	0.063725	-0.281456
O378	O	1.360285	0.397058	0.051877
O379	O	0.817429	-0.163295	-0.614858
O380	O	1.150763	0.170039	-0.281525
O381	O	1.484096	0.503372	0.051808
C382	C	0.755480	-0.216488	-0.116185
C383	C	1.088814	0.116845	0.217148
C384	C	1.422147	0.450178	0.550482
C385	C	0.755575	-0.216365	-0.058071
C386	C	1.088908	0.116968	0.275262
C387	C	1.422241	0.450301	0.608595
H388	H	0.305275	-0.135522	-0.158112
H389	H	0.638608	0.197812	0.175221
H390	H	0.971942	0.531145	0.508555
N391	N	0.562100	-0.274662	-0.319464
N392	N	0.895434	0.058672	0.013869
N393	N	1.228767	0.392005	0.347203
N394	N	0.610853	-0.274658	-0.319454
N395	N	0.944186	0.058675	0.013879
N396	N	1.277519	0.392008	0.347212
H397	H	0.630551	-0.295413	-0.343532
H398	H	0.963884	0.037920	-0.010199
H399	H	1.297218	0.371254	0.323135
N400	N	0.823208	-0.158307	-0.948303
N401	N	1.156541	0.175026	-0.614970
N402	N	1.489875	0.508359	-0.281636
N403	N	0.819778	-0.116852	-0.954411
N404	N	1.153112	0.216481	-0.621078
N405	N	1.486445	0.549814	-0.287744
H406	H	0.843918	-0.096124	-0.934733
H407	H	1.177251	0.237209	-0.601400
H408	H	1.510584	0.570543	-0.268066
N409	N	0.856572	-0.598441	-0.151139
N410	N	1.189905	-0.265108	0.182194
N411	N	1.523238	0.068226	0.515528
N412	N	0.889868	-0.572229	-0.169569
N413	N	1.223201	-0.238896	0.163764
N414	N	1.556535	0.094438	0.497098
H415	H	0.914007	-0.555293	-0.145476
H416	H	1.247340	-0.221960	0.187857
H417	H	1.580674	0.111373	0.521191
N418	N	0.856636	-0.129634	-0.697144
N419	N	1.189969	0.203699	-0.363811
N420	N	1.523302	0.537032	-0.030478
N421	N	0.853202	-0.088180	-0.703254
N422	N	1.186536	0.245154	-0.369921
N423	N	1.519869	0.578487	-0.036587
H424	H	0.877343	-0.067449	-0.683580
H425	H	1.210676	0.265884	-0.350246
H426	H	1.544009	0.599217	-0.016913
N427	N	0.687929	-0.274433	-1.058639
N428	N	1.021262	0.058901	-0.725306
N429	N	1.354596	0.392234	-0.391972
N430	N	0.687933	-0.274420	-1.107391
N431	N	1.021266	0.058913	-0.774058
N432	N	1.354599	0.392246	-0.440725
H433	H	0.663790	-0.295136	-1.127082
H434	H	0.997123	0.038197	-0.793749
H435	H	1.330456	0.371530	-0.460416
H436	H	0.694908	-1.045073	-0.312665
H437	H	1.028242	-0.711739	0.020669
H438	H	1.361575	-0.378406	0.354002
N439	N	0.823222	-0.158297	-1.058682
N440	N	1.156555	0.175036	-0.725349
N441	N	1.489888	0.508370	-0.392016
N442	N	0.823219	-0.158294	-1.107435
N443	N	1.156552	0.175039	-0.774102
N444	N	1.489886	0.508372	-0.440768
H445	H	0.847360	-0.137570	-1.127148
H446	H	1.180693	0.195763	-0.793815
H447	H	1.514027	0.529097	-0.460482
N448	N	0.451714	-0.274668	-0.319488
N449	N	0.785047	0.058665	0.013846
N450	N	1.118381	0.391998	0.347179
N451	N	0.421274	-0.258912	-0.352845
N452	N	0.754607	0.074422	-0.019512
N453	N	1.087940	0.407755	0.313822
H454	H	0.401576	-0.279671	-0.376928
H455	H	0.734909	0.053662	-0.043595
H456	H	1.068243	0.386996	0.289738
N457	N	0.451724	-0.158339	-0.184526
N458	N	0.785058	0.174994	0.148808
N459	N	1.118391	0.508328	0.482141
N460	N	0.476110	-0.132651	-0.154722
N461	N	0.809444	0.200682	0.178611
N462	N	1.142777	0.534016	0.511945
H463	H	0.456424	-0.111890	-0.130642
H464	H	0.789757	0.221443	0.202692
H465	H	1.123091	0.554777	0.536025
N466	N	0.823148	-0.158393	-0.556318
N467	N	1.156481	0.174940	-0.222985
N468	N	1.489815	0.508274	0.110348
N469	N	0.819718	-0.116940	-0.550215
N470	N	1.153051	0.216393	-0.216882
N471	N	1.486385	0.549727	0.116452
H472	H	0.843860	-0.096205	-0.569912
H473	H	1.177193	0.237128	-0.236578
H474	H	1.510527	0.570462	0.096755
N475	N	0.823019	-0.382640	-0.184495
N476	N	1.156353	-0.049306	0.148839
N477	N	1.489686	0.284027	0.482172
N478	N	0.852898	-0.403579	-0.154680
N479	N	1.186232	-0.070246	0.178653
N480	N	1.519565	0.263088	0.511987
H481	H	0.877034	-0.386652	-0.130575
H482	H	1.210367	-0.053319	0.202758
H483	H	1.543701	0.280015	0.536092
N484	N	0.059745	-0.274692	-0.319551
N485	N	0.393079	0.058641	0.013783
N486	N	0.726412	0.391974	0.347116
N487	N	0.090237	-0.258927	-0.352901
N488	N	0.423570	0.074407	-0.019568
N489	N	0.756903	0.407740	0.313765
H490	H	0.109926	-0.279679	-0.376988
H491	H	0.443260	0.053654	-0.043655
H492	H	0.776593	0.386987	0.289678
N493	N	0.310905	-0.303458	-0.352888
N494	N	0.644238	0.029875	-0.019555
N495	N	0.977571	0.363208	0.313778
N496	N	0.286512	-0.329144	-0.382689
N497	N	0.619846	0.004189	-0.049356
N498	N	0.953179	0.337522	0.283978
H499	H	0.306194	-0.349906	-0.406773
H500	H	0.639527	-0.016573	-0.073439
H501	H	0.972860	0.316761	0.259894
N502	N	-0.050628	-0.158374	-0.184608
N503	N	0.282705	0.174959	0.148725
N504	N	0.616038	0.508292	0.482058
N505	N	-0.099381	-0.158375	-0.184617
N506	N	0.233953	0.174959	0.148716
N507	N	0.567286	0.508292	0.482049
H508	H	-0.119077	-0.137614	-0.160545
H509	H	0.214256	0.195719	0.172788
H510	H	0.547590	0.529052	0.506122
H511	H	-0.044979	-0.268742	-0.312637
H512	H	0.288354	0.064592	0.020696
H513	H	0.621687	0.397925	0.354029
H514	H	0.849698	-0.744065	-0.158065
H515	H	1.183032	-0.410731	0.175268
H516	H	1.516365	-0.077398	0.508602
H517	H	0.816211	-0.164382	-0.451606
H518	H	1.149544	0.168951	-0.118273
H519	H	1.482878	0.502284	0.215061
H520	H	0.694840	-0.268504	-0.953924
H521	H	1.028174	0.064829	-0.620590
H522	H	1.361507	0.398162	-0.287257
H523	H	0.054089	-0.164324	-0.191507
H524	H	0.387422	0.169010	0.141826
H525	H	0.720755	0.502343	0.475160
N526	N	0.200575	-0.129568	-0.151197
N527	N	0.533908	0.203765	0.182137
N528	N	0.867241	0.537098	0.515470
N529	N	0.224969	-0.103880	-0.121400
N530	N	0.558302	0.229453	0.211933
N531	N	0.891635	0.562787	0.545267
H532	H	0.205289	-0.083118	-0.097316
H533	H	0.538622	0.250216	0.236017
H534	H	0.871955	0.583549	0.569350
H535	H	0.849715	-0.135570	-0.801837
H536	H	1.183049	0.197763	-0.468504
H537	H	1.516382	0.531097	-0.135171
H538	H	0.661346	-0.297256	-0.801780
H539	H	0.994679	0.036077	-0.468446
H540	H	1.328012	0.369411	-0.135113
N541	N	0.687834	-0.274568	-0.445920
N542	N	1.021167	0.058765	-0.112586
N543	N	1.354501	0.392099	0.220747
N544	N	0.657954	-0.300207	-0.470288
N545	N	0.991288	0.033126	-0.136955
N546	N	1.324621	0.366459	0.196378
H547	H	0.633801	-0.320930	-0.450588
H548	H	0.967134	0.012403	-0.117255
H549	H	1.300468	0.345737	0.216079
N550	N	0.562107	-0.158339	-0.184517
N551	N	0.895440	0.174995	0.148817
N552	N	1.228774	0.508328	0.482150
N553	N	0.610859	-0.158343	-0.184519
N554	N	0.944193	0.174990	0.148814
N555	N	1.277526	0.508323	0.482148
H556	H	0.630567	-0.137588	-0.160440
H557	H	0.963901	0.195746	0.172893
H558	H	1.297234	0.529079	0.506226
N559	N	0.687945	-0.955112	-0.319594
N560	N	1.021278	-0.621779	0.013739
N561	N	1.354611	-0.288445	0.347072
N562	N	0.658080	-0.976086	-0.349410
N563	N	0.991414	-0.642752	-0.016077
N564	N	1.324747	-0.309419	0.317256
H565	H	0.633930	-0.959186	-0.373512
H566	H	0.967263	-0.625853	-0.040178
H567	H	1.300597	-0.292520	0.293155
H568	H	0.206208	-0.297497	-0.345987
H569	H	0.539542	0.035836	-0.012654
H570	H	0.872875	0.369170	0.320679
H571	H	0.661369	-0.829268	-0.346055
H572	H	0.994702	-0.495934	-0.012722
H573	H	1.328036	-0.162601	0.320611
N574	N	0.654391	-0.303225	-0.697076
N575	N	0.987724	0.030108	-0.363742
N576	N	1.321058	0.363442	-0.030409
N577	N	0.624516	-0.328862	-0.721454
N578	N	0.957850	0.004471	-0.388120
N579	N	1.291183	0.337804	-0.054787
H580	H	0.600363	-0.349590	-0.701761
H581	H	0.933697	-0.016257	-0.368427
H582	H	1.267030	0.317076	-0.035094
H583	H	0.694792	-0.268599	-0.550635
H584	H	1.028126	0.064734	-0.217302
H585	H	1.361459	0.398068	0.116031
H586	H	0.694700	-0.472678	-0.312631
H587	H	1.028034	-0.139345	0.020703
H588	H	1.361367	0.193989	0.354036
N589	N	0.654413	-0.739305	-0.352981
N590	N	0.987747	-0.405972	-0.019647
N591	N	1.321080	-0.072639	0.313686
N592	N	0.657848	-0.744533	-0.401229
N593	N	0.991181	-0.411200	-0.067896
N594	N	1.324515	-0.077866	0.265437
H595	H	0.633701	-0.727631	-0.425331
H596	H	0.967034	-0.394297	-0.091998
H597	H	1.300368	-0.060964	0.241336
N598	N	0.687741	-0.382694	-0.319540
N599	N	1.021074	-0.049360	0.013793
N600	N	1.354407	0.283973	0.347127
N601	N	0.687736	-0.340803	-0.319528
N602	N	1.021069	-0.007470	0.013805
N603	N	1.354403	0.325863	0.347138
H604	H	0.663598	-0.323883	-0.343622
H605	H	0.996931	0.009451	-0.010289
H606	H	1.330265	0.342784	0.323044
H607	H	0.816127	-0.472607	-0.191433
H608	H	1.149461	-0.139274	0.141900
H609	H	1.482794	0.194060	0.475233
H610	H	0.849732	-0.829175	-0.158077
H611	H	1.183065	-0.495841	0.175256
H612	H	1.516398	-0.162508	0.508589
H613	H	0.816299	-0.959888	-0.191461
H614	H	1.149632	-0.626555	0.141872
H615	H	1.482966	-0.293221	0.475206
H616	H	0.816328	-1.045011	-0.191471
H617	H	1.149661	-0.711678	0.141862
H618	H	1.482994	-0.378344	0.475196
N619	N	0.654386	-0.693388	-0.352966
N620	N	0.987719	-0.360054	-0.019633
N621	N	1.321053	-0.026721	0.313701
N622	N	0.606142	-0.688184	-0.349442
N623	N	0.939476	-0.354850	-0.016108
N624	N	1.272809	-0.021517	0.317225
H625	H	0.582000	-0.705114	-0.373536
H626	H	0.915333	-0.371781	-0.040203
H627	H	1.248666	-0.038448	0.293131
N628	N	0.654364	-0.598541	-0.352960
N629	N	0.987697	-0.265208	-0.019626
N630	N	1.321031	0.068126	0.313707
N631	N	0.654360	-0.556651	-0.352948
N632	N	0.987693	-0.223317	-0.019614
N633	N	1.321027	0.110016	0.313719
H634	H	0.630218	-0.539730	-0.377037
H635	H	0.963551	-0.206396	-0.043704
H636	H	1.296885	0.126937	0.289629
N637	N	0.856608	-0.693268	-0.151140
N638	N	1.189942	-0.359935	0.182193
N639	N	1.523275	-0.026602	0.515526
N640	N	0.886472	-0.672295	-0.121324
N641	N	1.219806	-0.338962	0.212010
N642	N	1.553139	-0.005629	0.545343
H643	H	0.910626	-0.689195	-0.097226
H644	H	1.243959	-0.355862	0.236108
H645	H	1.577293	-0.022529	0.569441
