data_functionalizedCrystal
_audit_creation_method	'MofGen! by Chris Wilmer'
_symmetry_space_group_name_H-M	'P1'
_symmetry_Int_Tables_number	1
_symmetry_cell_setting	triclinic
loop_
_symmetry_equiv_pos_as_xyz
  x,y,z
_cell_length_a	18.050591
_cell_length_b	18.050589
_cell_length_c	18.050582
_cell_angle_alpha	90.018205
_cell_angle_beta	90.010544
_cell_angle_gamma	90.027061
loop_
_atom_site_label
_atom_site_type_symbol
_atom_site_fract_x
_atom_site_fract_y
_atom_site_fract_z
Zn1	Zn	1.135292	-0.295730	0.419848
Zn2	Zn	1.135203	-0.419913	0.295668
Zn3	Zn	1.011112	-0.295739	0.295682
Zn4	Zn	1.011060	-0.419880	0.419826
O5	O	1.073167	-0.357815	0.357756
O6	O	1.239205	-0.312213	0.403379
O7	O	1.118727	-0.403459	0.191745
O8	O	1.027644	-0.191813	0.312168
O9	O	1.239140	-0.403450	0.312144
O10	O	1.118879	-0.191806	0.403393
O11	O	1.027557	-0.312228	0.191755
O12	O	0.907180	-0.312196	0.312146
O13	O	1.027555	-0.403393	0.523753
O14	O	0.907142	-0.403402	0.403354
O15	O	1.118828	-0.312181	0.523770
O16	O	1.118676	-0.523833	0.312122
O17	O	1.027468	-0.523809	0.403341
C18	C	0.880215	-0.357797	0.357750
C19	C	0.797669	-0.357807	0.357765
C20	C	0.548844	-0.407508	0.407296
C21	C	0.598214	-0.425579	0.339512
C22	C	0.500548	-0.357831	0.357764
C23	C	0.598260	-0.339783	0.425545
C24	C	0.646534	-0.357821	0.357768
C25	C	0.548831	-0.375937	0.289943
C26	C	0.548873	-0.290110	0.376022
C27	C	0.598221	-0.308155	0.308191
C28	C	0.416450	-0.357838	0.357762
C29	C	0.730630	-0.357813	0.357762
C30	C	1.073077	-0.550767	0.357744
C31	C	1.073107	-0.633313	0.357763
C32	C	1.023557	-0.832778	0.407350
C33	C	1.005459	-0.882211	0.339584
C34	C	1.073180	-0.784444	0.357773
C35	C	1.091314	-0.882092	0.425547
C36	C	1.073249	-0.930429	0.357788
C37	C	1.055046	-0.832790	0.289971
C38	C	1.140933	-0.832666	0.375979
C39	C	1.122861	-0.882077	0.308166
C40	C	1.073138	-0.700345	0.357765
C41	C	1.073291	-1.014525	0.357788
C42	C	1.266872	-0.357834	0.357763
C43	C	1.349418	-0.357842	0.357765
C44	C	1.073196	-0.357782	0.551462
C45	C	1.073208	-0.357768	0.634007
C46	C	1.073277	-0.164110	0.357785
C47	C	1.073324	-0.081564	0.357797
C48	C	1.073181	-0.357795	0.164804
C49	C	1.073312	-0.357599	0.082258
C50	C	1.023612	-0.407302	0.833449
C51	C	1.091367	-0.425457	0.882837
C52	C	1.073245	-0.357712	0.785138
C53	C	1.005527	-0.339536	0.882832
C54	C	1.073274	-0.357658	0.931123
C55	C	1.141036	-0.375902	0.833438
C56	C	1.055150	-0.289950	0.833429
C57	C	1.122952	-0.308079	0.882794
C58	C	1.073227	-0.357744	0.701040
C59	C	1.073300	-0.357626	1.015220
H60	H	0.619887	-0.482845	0.324065
H61	H	0.527164	-0.449554	0.449130
H62	H	0.981678	-0.449294	0.811783
O63	O	1.209397	-0.394403	0.807759
C64	C	1.228479	-0.465611	0.833531
H65	H	1.195360	-0.478697	0.885682
H66	H	1.290202	-0.467332	0.846806
H67	H	1.215307	-0.508385	0.788945
O68	O	0.973369	-0.807070	0.457306
C69	C	0.937795	-0.867403	0.491887
H70	H	0.941650	-0.918284	0.454660
H71	H	0.877077	-0.853179	0.501828
H72	H	0.965889	-0.879534	0.547135
O73	O	0.624125	-0.321441	0.493904
C74	C	0.597891	-0.250546	0.513547
H75	H	0.583269	-0.218303	0.461260
H76	H	0.642725	-0.219591	0.545528
H77	H	0.546467	-0.256416	0.549734
H78	H	1.039669	-0.811223	0.232646
O79	O	1.172876	-0.907712	0.258002
C80	C	1.153528	-0.882440	0.186678
H81	H	1.091907	-0.868710	0.185212
H82	H	1.166042	-0.927512	0.144239
H83	H	1.186989	-0.830664	0.172908
O84	O	1.109543	-0.493785	0.908823
C85	C	1.051184	-0.521273	0.952866
H86	H	1.016651	-0.473044	0.974518
H87	H	1.075016	-0.553618	1.001582
H88	H	1.014697	-0.559384	0.918112
O89	O	0.937251	-0.321128	0.908804
C90	C	0.942405	-0.256061	0.951734
H91	H	1.001504	-0.249479	0.973027
H92	H	0.902707	-0.259952	1.000693
H93	H	0.927170	-0.206136	0.916199
H94	H	1.164986	-0.266119	0.904324
H95	H	1.106625	-0.903748	0.482856
O96	O	1.209210	-0.806714	0.394498
C97	C	1.228087	-0.831803	0.466013
H98	H	1.175446	-0.845712	0.498010
H99	H	1.259936	-0.786552	0.496496
H100	H	1.264144	-0.883432	0.461362
H101	H	0.948195	-0.903990	0.324200
O102	O	1.036763	-0.221692	0.807421
C103	C	0.972473	-0.227097	0.763372
H104	H	0.966639	-0.286154	0.741741
H105	H	0.976944	-0.187186	0.714641
H106	H	0.921851	-0.212321	0.798113
O107	O	0.522920	-0.394249	0.221594
C108	C	0.444815	-0.394047	0.222420
H109	H	0.424377	-0.402385	0.281587
H110	H	0.423223	-0.440849	0.185891
H111	H	0.423687	-0.338746	0.200452
H112	H	0.619764	-0.266140	0.266256
H113	H	0.527183	-0.232860	0.391488
