data_functionalizedCrystal
_audit_creation_method	'MofGen! by Chris Wilmer'
_symmetry_space_group_name_H-M	'P1'
_symmetry_Int_Tables_number	1
_symmetry_cell_setting	triclinic
loop_
_symmetry_equiv_pos_as_xyz
  x,y,z
_cell_length_a	16.109296
_cell_length_b	16.109301
_cell_length_c	15.186229
_cell_angle_alpha	89.994833
_cell_angle_beta	90.001331
_cell_angle_gamma	96.539615
loop_
_atom_site_label
_atom_site_type_symbol
_atom_site_fract_x
_atom_site_fract_y
_atom_site_fract_z
O1	O	-1.103133	0.106845	-0.073190
O2	O	-0.603133	0.606845	0.426810
O3	O	-0.861071	0.120149	-0.073201
O4	O	-0.361071	0.620149	0.426799
O5	O	-0.988752	-0.007534	-0.073186
O6	O	-0.488752	0.492466	0.426814
O7	O	-0.975452	0.234528	-0.073205
O8	O	-0.475452	0.734528	0.426795
O9	O	-0.988743	-0.007536	0.073271
O10	O	-0.488743	0.492464	0.573271
O11	O	-0.861062	0.120147	0.073256
O12	O	-0.361062	0.620147	0.573256
O13	O	-1.103125	0.106843	0.073267
O14	O	-0.603125	0.606843	0.573267
Zn15	Zn	-0.982092	0.113495	0.096515
Zn16	Zn	-0.482092	0.613495	0.596515
Zn17	Zn	-0.982103	0.113497	-0.096449
Zn18	Zn	-0.482103	0.613497	0.403551
O19	O	-0.975444	0.234526	0.073253
O20	O	-0.475444	0.734526	0.573253
C21	C	-0.830092	0.119610	0.000026
C22	C	-0.330092	0.619610	0.500026
C23	C	-0.737796	0.117996	0.000022
C24	C	-0.237796	0.617996	0.500022
C25	C	-0.428797	0.188486	0.000034
C26	C	0.071203	0.688486	0.500034
C27	C	-0.515517	0.190009	0.000028
C28	C	-0.015517	0.690009	0.500028
C29	C	-0.535391	0.038520	0.000028
C30	C	-0.035391	0.538520	0.500028
C31	C	-0.448672	0.036998	0.000028
C32	C	0.051328	0.536998	0.500028
C33	C	-0.395377	0.111983	0.000035
C34	C	0.104623	0.611983	0.500035
C35	C	-0.568816	0.115029	0.000030
C36	C	-0.068816	0.615029	0.500030
C37	C	-0.662843	0.116681	0.000024
C38	C	-0.162843	0.616681	0.500024
C39	C	-0.301345	0.110332	0.000040
C40	C	0.198655	0.610332	0.500040
C41	C	-0.988209	-0.038510	0.000043
C42	C	-0.488209	0.461490	0.500043
C43	C	-0.986594	-0.130805	0.000044
C44	C	-0.486594	0.369195	0.500044
C45	C	-1.058602	-0.353079	0.000033
C46	C	-0.558602	0.146921	0.500033
C47	C	-1.057078	-0.439800	0.000026
C48	C	-0.557078	0.060200	0.500026
C49	C	-0.905588	-0.419922	0.000023
C50	C	-0.405588	0.080078	0.500023
C51	C	-0.907113	-0.333204	0.000024
C52	C	-0.407113	0.166796	0.500024
C53	C	-0.983622	-0.299785	0.000033
C54	C	-0.483622	0.200215	0.500033
C55	C	-0.980573	-0.473224	0.000025
C56	C	-0.480573	0.026776	0.500025
C57	C	-0.978920	-0.567250	0.000017
C58	C	-0.478920	-0.067250	0.500017
C59	C	-0.985276	-0.205753	0.000040
C60	C	-0.485276	0.294247	0.500040
C61	C	-0.134103	0.107387	0.000040
C62	C	0.365897	0.607387	0.500040
C63	C	-0.226397	0.109016	0.000043
C64	C	0.273603	0.609016	0.500043
C65	C	-0.975987	0.265502	0.000022
C66	C	-0.475987	0.765502	0.500022
C67	C	-0.977602	0.357797	0.000015
C68	C	-0.477602	0.857797	0.500015
N69	N	-0.982091	0.113493	0.228208
N70	N	-0.482091	0.613493	0.728208
N71	N	-0.982112	0.113493	-0.228141
N72	N	-0.482112	0.613493	0.271859
C73	C	-1.038647	0.056974	0.453937
C74	C	-0.538647	0.556974	0.953937
C75	C	-1.038650	0.056972	0.546127
C76	C	-0.538650	0.556972	1.046127
C77	C	-0.925549	0.170014	0.546123
C78	C	-0.425549	0.670014	1.046123
C79	C	-0.925543	0.170012	0.453935
C80	C	-0.425543	0.670012	0.953935
C81	C	-0.982097	0.113492	0.407844
C82	C	-0.482097	0.613492	0.907844
C83	C	-0.982105	0.113493	0.592222
C84	C	-0.482105	0.613493	1.092222
C85	C	-0.982108	0.113491	0.692178
C86	C	-0.482108	0.613491	1.192178
C87	C	-0.982094	0.113493	0.307882
C88	C	-0.482094	0.613493	0.807882
H89	H	-0.542723	0.252306	0.000027
H90	H	-0.042723	0.752306	0.500027
H91	H	-0.578794	-0.022530	0.000024
H92	H	-0.078794	0.477470	0.500024
O93	O	-0.412616	-0.045520	0.000038
O94	O	0.087384	0.454480	0.500038
H95	H	-0.464243	-0.097406	0.000049
H96	H	0.035757	0.402594	0.500049
H97	H	-0.846052	-0.289808	0.000021
H98	H	-0.346052	0.210192	0.500021
O99	O	-0.371311	0.269358	0.000031
O100	O	0.128689	0.769358	0.500031
H101	H	-0.409123	0.322810	0.000021
H102	H	0.090877	0.822810	0.500021
O103	O	-1.141117	-0.317029	0.000026
O104	O	-0.641117	0.182971	0.500026
H105	H	-1.192998	-0.368661	0.000013
H106	H	-0.692998	0.131339	0.500013
H107	H	-1.084695	0.010951	0.416413
H108	H	-0.584695	0.510951	0.916413
H109	H	-1.084697	0.010948	0.583653
H110	H	-0.584697	0.510948	1.083653
H111	H	-0.879489	0.216036	0.416403
H112	H	-0.379489	0.716036	0.916403
O113	O	-1.137947	-0.497285	0.000037
O114	O	-0.637947	0.002715	0.500037
H115	H	-1.191401	-0.459474	0.000053
H116	H	-0.691401	0.040526	0.500053
O117	O	-0.864563	0.230983	0.595833
O118	O	-0.364563	0.730983	1.095833
H119	H	-0.874073	0.221498	0.667681
H120	H	-0.374073	0.721498	1.167681
H121	H	-0.843297	-0.447143	0.000016
H122	H	-0.343297	0.052857	0.500016
