data_functionalizedCrystal
_audit_creation_method	'MofGen! by Chris Wilmer'
_symmetry_space_group_name_H-M	'P1'
_symmetry_Int_Tables_number	1
_symmetry_cell_setting	triclinic
loop_
_symmetry_equiv_pos_as_xyz
  x,y,z
_cell_length_a	18.215407
_cell_length_b	12.645330
_cell_length_c	18.215398
_cell_angle_alpha	90.019605
_cell_angle_beta	89.983001
_cell_angle_gamma	89.976370
loop_
_atom_site_label
_atom_site_type_symbol
_atom_site_fract_x
_atom_site_fract_y
_atom_site_fract_z
Zn1	Zn	1.125063	0.422149	-0.416097
Zn2	Zn	1.625063	0.922149	0.083903
Zn3	Zn	1.124969	0.599423	-0.293043
Zn4	Zn	1.624969	1.099423	0.206957
Zn5	Zn	1.001996	0.422167	-0.293050
Zn6	Zn	1.501996	0.922167	0.206950
Zn7	Zn	1.001958	0.599363	-0.416074
Zn8	Zn	1.501958	1.099363	0.083926
O9	O	1.063496	0.510776	-0.354566
O10	O	1.563496	1.010776	0.145434
O11	O	1.228034	0.445683	-0.399781
O12	O	1.728034	0.945683	0.100219
O13	O	1.108633	0.575943	-0.190060
O14	O	1.608633	1.075943	0.309940
O15	O	1.018376	0.273817	-0.309385
O16	O	1.518376	0.773817	0.190615
O17	O	1.227966	0.575926	-0.309374
O18	O	1.727966	1.075926	0.190626
O19	O	1.108792	0.273804	-0.399787
O20	O	1.608792	0.773804	0.100213
O21	O	1.018285	0.445713	-0.190065
O22	O	1.518285	0.945713	0.309935
O23	O	0.899007	0.445654	-0.309362
O24	O	1.399007	0.945654	0.190638
O25	O	1.018312	0.575822	-0.519061
O26	O	1.518312	1.075822	-0.019061
O27	O	0.898979	0.575840	-0.399747
O28	O	1.398979	1.075840	0.100253
O29	O	1.108756	0.445624	-0.519078
O30	O	1.608756	0.945624	-0.019078
O31	O	1.108596	0.747763	-0.309351
O32	O	1.608596	1.247763	0.190649
O33	O	1.018221	0.747718	-0.399741
O34	O	1.518221	1.247718	0.100259
C35	C	0.872290	0.510743	-0.354553
C36	C	1.372290	1.010743	0.145447
C37	C	0.790491	0.510755	-0.354565
C38	C	1.290491	1.010755	0.145435
C39	C	0.602332	0.443077	-0.401714
C40	C	1.102332	0.943077	0.098286
C41	C	0.525473	0.443086	-0.401717
C42	C	1.025473	0.943086	0.098283
C43	C	0.525413	0.578504	-0.307431
C44	C	1.025413	1.078504	0.192569
C45	C	0.602270	0.578489	-0.307425
C46	C	1.102270	1.078489	0.192575
C47	C	0.640728	0.510777	-0.354571
C48	C	1.140728	1.010777	0.145429
C49	C	0.487012	0.510801	-0.354579
C50	C	0.987012	1.010801	0.145421
C51	C	0.403678	0.510811	-0.354581
C52	C	0.903678	1.010811	0.145419
C53	C	0.724067	0.510765	-0.354568
C54	C	1.224067	1.010765	0.145432
C55	C	1.063414	0.786205	-0.354559
C56	C	1.563414	1.286205	0.145441
C57	C	1.063447	0.904035	-0.354580
C58	C	1.563447	1.404035	0.145420
C59	C	1.006809	1.071615	-0.411622
C60	C	1.506809	1.571615	0.088378
C61	C	1.006532	0.949056	-0.411437
C62	C	1.506532	1.449056	0.088563
C63	C	1.042450	0.948620	-0.277023
C64	C	1.542450	1.448620	0.222977
C65	C	1.042091	1.071218	-0.277371
C66	C	1.542091	1.571218	0.222629
C67	C	1.141389	1.071132	-0.374471
C68	C	1.641389	1.571132	0.125529
C69	C	1.140924	0.948525	-0.376166
C70	C	1.640924	1.448525	0.123834
C71	C	1.255449	0.510809	-0.354579
C72	C	1.755449	1.010809	0.145421
C73	C	1.337248	0.510823	-0.354585
C74	C	1.837248	1.010823	0.145415
C75	C	1.063573	1.234270	-0.354592
C76	C	1.563573	1.734270	0.145408
C77	C	1.063540	1.116440	-0.354610
C78	C	1.563540	1.616440	0.145390
C79	C	1.063540	0.510715	-0.546519
C80	C	1.563540	1.010715	-0.046519
C81	C	1.063559	0.510689	-0.628318
C82	C	1.563559	1.010689	-0.128318
C83	C	1.110636	0.578368	-0.893378
C84	C	1.610636	1.078368	-0.393378
C85	C	1.110625	0.578405	-0.816519
C86	C	1.610625	1.078405	-0.316519
C87	C	1.016537	0.442804	-0.816507
C88	C	1.516537	0.942804	-0.316507
C89	C	1.016545	0.442774	-0.893364
C90	C	1.516545	0.942774	-0.393364
C91	C	1.063599	0.510554	-0.931798
C92	C	1.563599	1.010554	-0.431798
C93	C	1.063579	0.510622	-0.778082
C94	C	1.563579	1.010622	-0.278082
C95	C	1.063567	0.510661	-0.694748
C96	C	1.563567	1.010661	-0.194748
C97	C	1.063610	0.510516	-1.015137
C98	C	1.563610	1.010516	-0.515137
C99	C	1.063495	0.510760	-0.163360
C100	C	1.563495	1.010760	0.336640
C101	C	1.063619	0.510487	-0.081561
C102	C	1.563619	1.010487	0.418439
H103	H	0.494091	0.633634	-0.269047
H104	H	0.994091	1.133634	0.230953
N105	N	0.934127	0.912378	-0.394971
N106	N	1.434127	1.412378	0.105029
N107	N	0.900524	0.855767	-0.440077
N108	N	1.400524	1.355767	0.059923
H109	H	0.849380	0.829873	-0.428461
H110	H	1.349380	1.329873	0.071539
N111	N	0.968473	0.373557	-0.777262
N112	N	1.468473	0.873557	-0.277262
N113	N	0.900563	0.380570	-0.785833
N114	N	1.400563	0.880570	-0.285833
H115	H	0.866618	0.331657	-0.758120
H116	H	1.366618	0.831657	-0.258120
N117	N	1.196760	0.910082	-0.327876
N118	N	1.696760	1.410082	0.172124
N119	N	1.249101	0.857207	-0.352875
N120	N	1.749101	1.357207	0.147125
H121	H	1.288534	0.830056	-0.318765
H122	H	1.788534	1.330056	0.181235
H123	H	1.183655	1.100118	-0.332947
H124	H	1.683655	1.600118	0.167053
N125	N	1.022999	0.911221	-0.483579
N126	N	1.522999	1.411221	0.016421
N127	N	0.977738	0.854579	-0.516938
N128	N	1.477738	1.354579	-0.016938
H129	H	0.989366	0.827859	-0.567891
H130	H	1.489366	1.327859	-0.067891
H131	H	1.082466	0.919459	-0.233384
H132	H	1.582466	1.419459	0.266616
H133	H	1.148928	0.633626	-0.785241
H134	H	1.648928	1.133626	-0.285241
H135	H	1.019819	1.101035	-0.469319
H136	H	1.519819	1.601035	0.030681
N137	N	0.641484	0.647646	-0.259256
N138	N	1.141484	1.147646	0.240744
N139	N	0.607140	0.708101	-0.217168
N140	N	1.107140	1.208101	0.282832
H141	H	0.634835	0.756938	-0.183148
H142	H	1.134835	1.256938	0.316852
N143	N	0.934863	1.110384	-0.395325
N144	N	1.434863	1.610384	0.104675
N145	N	0.925189	1.170882	-0.341905
N146	N	1.425189	1.670882	0.158095
H147	H	0.874378	1.198265	-0.330393
H148	H	1.374378	1.698265	0.169607
H149	H	0.978237	0.387550	-0.924647
H150	H	1.478237	0.887550	-0.424647
N151	N	0.486265	0.373920	-0.449874
N152	N	0.986265	0.873920	0.050126
N153	N	0.520614	0.313467	-0.491959
N154	N	1.020614	0.813467	0.008041
H155	H	0.492924	0.264613	-0.525971
H156	H	0.992924	0.764613	-0.025971
N157	N	1.158709	0.647600	-0.932625
N158	N	1.658709	1.147600	-0.432625
N159	N	1.200706	0.708139	-0.898309
N160	N	1.700706	1.208139	-0.398309
H161	H	1.234661	0.757035	-0.926025
H162	H	1.734661	1.257035	-0.426025
N163	N	0.970701	1.107195	-0.256258
N164	N	1.470701	1.607195	0.243742
N165	N	0.921488	1.041760	-0.241371
N166	N	1.421488	1.541760	0.258629
H167	H	0.871066	1.067163	-0.226460
H168	H	1.371066	1.567163	0.273540
H169	H	1.081619	1.100873	-0.233444
H170	H	1.581619	1.600873	0.266556
N171	N	0.641605	0.373905	-0.449874
N172	N	1.141605	0.873905	0.050126
N173	N	0.607310	0.313462	-0.491961
N174	N	1.107310	0.813462	0.008039
H175	H	0.635044	0.264604	-0.525975
H176	H	1.135044	0.764604	-0.025975
N177	N	0.971812	0.910205	-0.255538
N178	N	1.471812	1.410205	0.244462
N179	N	0.936812	0.850006	-0.297211
N180	N	1.436812	1.350006	0.202789
H181	H	0.886923	0.822875	-0.282041
H182	H	1.386923	1.322875	0.217959
H183	H	1.160536	1.101983	-0.430065
H184	H	1.660536	1.601983	0.069935
H185	H	1.156758	0.919382	-0.433244
H186	H	1.656758	1.419382	0.066756
