data_functionalizedCrystal
_audit_creation_method	'MofGen! by Chris Wilmer'
_symmetry_space_group_name_H-M	'P1'
_symmetry_Int_Tables_number	1
_symmetry_cell_setting	triclinic
loop_
_symmetry_equiv_pos_as_xyz
  x,y,z
_cell_length_a	6.817900
_cell_length_b	11.102288
_cell_length_c	27.923559
_cell_angle_alpha	95.506689
_cell_angle_beta	98.965071
_cell_angle_gamma	108.605689
loop_
_atom_site_label
_atom_site_type_symbol
_atom_site_fract_x
_atom_site_fract_y
_atom_site_fract_z
V1	V	-4.003138	-0.177647	-0.151268
O2	O	-3.964234	0.006677	-0.148389
O3	O	-3.980656	-0.350455	-0.150234
O4	O	-3.932645	-0.175730	-0.217242
O5	O	-4.012577	-0.169257	-0.080917
V6	V	-4.486270	-0.155503	-0.142854
O7	O	-4.265253	-0.226221	-0.169726
O8	O	-4.674352	-0.106929	-0.124396
O9	O	-4.285545	0.017305	-0.143888
O10	O	-4.642571	-0.339826	-0.145733
O11	O	-4.594227	-0.163893	-0.213205
O12	O	-4.333556	-0.157420	-0.076880
C13	C	-3.832677	-0.392556	-0.147847
C14	C	-3.895435	-0.533834	-0.147441
C15	C	-4.107192	-0.606709	-0.149671
C16	C	-4.166151	-0.739456	-0.149293
C17	C	-3.801572	-0.726440	-0.144454
C18	C	-3.742619	-0.593697	-0.144835
C19	C	-3.771433	-0.169676	-0.233322
C20	C	-3.795252	-0.169253	-0.287256
C21	C	-3.998433	-0.283248	-0.628641
C22	C	-4.088076	-0.281732	-0.831350
O23	O	-4.146702	-0.380589	-0.863456
N24	N	-4.044071	-0.165072	-0.849766
C25	C	-3.977663	-0.048783	-0.817502
O26	O	-3.942312	0.050478	-0.837817
C27	C	-3.888036	-0.050301	-0.614794
C28	C	-3.932025	-0.166968	-0.596381
C29	C	-4.042420	-0.399906	-0.610227
C30	C	-4.019999	-0.400283	-0.559553
C31	C	-3.953591	-0.284003	-0.527292
C32	C	-3.909604	-0.167345	-0.545706
C33	C	-3.821643	0.065987	-0.582531
C34	C	-3.799245	0.065597	-0.531852
C35	C	-3.843234	-0.051070	-0.513438
C36	C	-3.820775	-0.051442	-0.462772
N37	N	-3.864780	-0.168102	-0.444355
C38	C	-3.931188	-0.284383	-0.476616
C39	C	-4.024719	-0.047994	-0.923927
C40	C	-4.047122	-0.047614	-0.974603
C41	C	-4.157537	-0.280564	-0.988448
C42	C	-4.135119	-0.280942	-0.937770
C43	C	-4.068724	-0.164655	-0.905510
C44	C	-3.884096	-0.285166	-0.370195
C45	C	-3.861660	-0.285533	-0.319516
C46	C	-3.751258	-0.052584	-0.305676
C47	C	-3.773681	-0.052216	-0.356351
C48	C	-3.840112	-0.168518	-0.388610
O49	O	-3.762182	0.047362	-0.430638
O50	O	-3.966573	-0.383630	-0.456291
C51	C	-4.020854	-0.282871	-0.679316
C52	C	-3.976867	-0.166213	-0.697730
C53	C	-3.910459	-0.049933	-0.665469
C54	C	-3.999270	-0.165833	-0.748406
C55	C	-4.065678	-0.282113	-0.780666
C56	C	-4.109682	-0.398774	-0.762250
C57	C	-4.087262	-0.399151	-0.711576
C58	C	-3.866454	0.066727	-0.683885
C59	C	-3.888877	0.067095	-0.734560
C60	C	-3.955285	-0.049185	-0.766821
C61	C	-4.096867	0.059400	-0.146273
C62	C	-4.013347	0.200676	-0.146682
C63	C	-4.158112	-0.163478	-0.060797
C64	C	-4.113530	-0.163895	-0.006863
H65	H	-3.677163	-0.775196	-0.142331
H66	H	-4.123085	-0.494153	-0.696589
H67	H	-3.697180	0.042088	-0.279400
Cl68	Cl	-4.190429	-0.427615	-0.914628
Cl69	Cl	-4.193173	-0.544953	-0.802816
Cl70	Cl	-4.240989	-0.426743	-1.029013
Cl71	Cl	-4.075342	-0.546960	-0.536413
H72	H	-4.231628	-0.557973	-0.151792
Cl73	Cl	-3.991773	0.099060	-0.997744
Cl74	Cl	-3.476390	-0.502077	-0.142035
Cl75	Cl	-3.782892	0.212927	-0.643335
H76	H	-3.737872	0.042783	-0.371344
Cl77	Cl	-4.125909	-0.546107	-0.650775
H78	H	-4.338580	-0.798786	-0.151110
Cl79	Cl	-3.833552	0.213779	-0.757701
H80	H	-3.897479	-0.380541	-0.304527
H81	H	-3.938185	-0.379870	-0.396456
H82	H	-3.970652	0.046707	-0.897664
H83	H	-3.785803	0.160990	-0.597514
Cl84	Cl	-3.715806	0.211796	-0.491300
