data_functionalizedCrystal
_audit_creation_method	'MofGen! by Chris Wilmer'
_symmetry_space_group_name_H-M	'P1'
_symmetry_Int_Tables_number	1
_symmetry_cell_setting	triclinic
loop_
_symmetry_equiv_pos_as_xyz
  x,y,z
_cell_length_a	14.853567
_cell_length_b	15.072220
_cell_length_c	14.853567
_cell_angle_alpha	89.994416
_cell_angle_beta	96.365070
_cell_angle_gamma	90.000977
loop_
_atom_site_label
_atom_site_type_symbol
_atom_site_fract_x
_atom_site_fract_y
_atom_site_fract_z
O1	O	1.196363	0.073714	-0.117710
O2	O	1.696363	0.573714	0.382290
O3	O	0.933904	0.073728	-0.131732
O4	O	1.433904	0.573728	0.368268
O5	O	1.072144	0.073723	0.006509
O6	O	1.572144	0.573723	0.506509
O7	O	1.058123	0.073718	-0.255951
O8	O	1.558123	0.573718	0.244049
O9	O	1.072135	-0.073842	0.006525
O10	O	1.572135	0.426158	0.506525
O11	O	0.933895	-0.073837	-0.131715
O12	O	1.433895	0.426163	0.368285
O13	O	1.196354	-0.073851	-0.117694
O14	O	1.696354	0.426149	0.382306
Zn15	Zn	1.065123	-0.097273	-0.124702
Zn16	Zn	1.565123	0.402727	0.375298
Zn17	Zn	1.065135	0.097150	-0.124724
Zn18	Zn	1.565135	0.597150	0.375276
O19	O	1.058114	-0.073847	-0.255934
O20	O	1.558114	0.426153	0.244066
C21	C	0.900311	-0.000053	-0.131088
C22	C	1.400311	0.499947	0.368912
C23	C	0.800227	-0.000047	-0.129184
C24	C	1.300227	0.499953	0.370816
N25	N	1.065121	-0.229962	-0.124686
N26	N	1.565121	0.270038	0.375314
C27	C	0.387693	-0.000065	-0.039019
C28	C	0.887693	0.499935	0.460981
C29	C	0.366412	-0.000067	-0.203251
C30	C	0.866412	0.499933	0.296749
C31	C	0.460446	-0.000064	-0.205041
C32	C	0.960446	0.499936	0.294959
C33	C	0.518108	-0.000061	-0.123819
C34	C	1.018108	0.499939	0.376181
C35	C	0.481736	-0.000060	-0.040806
C36	C	0.981736	0.499940	0.459194
C37	C	0.496825	-0.000056	-0.288053
C38	C	0.996825	0.499944	0.211947
C39	C	0.590864	-0.000052	-0.289846
C40	C	1.090864	0.499948	0.210154
C41	C	0.648528	-0.000055	-0.208623
C42	C	1.148528	0.499945	0.291377
C43	C	0.612150	-0.000055	-0.125607
C44	C	1.112150	0.499945	0.374393
C45	C	0.669812	-0.000051	-0.044384
C46	C	1.169812	0.499949	0.455616
C47	C	0.633437	-0.000058	0.038633
C48	C	1.133437	0.499942	0.538633
C49	C	0.539399	-0.000062	0.040417
C50	C	1.039399	0.499938	0.540417
C51	C	0.742565	-0.000051	-0.210407
C52	C	1.242565	0.499949	0.289593
C53	C	0.763855	-0.000046	-0.046172
C54	C	1.263855	0.499954	0.453828
C55	C	1.065136	-0.589164	-0.124717
C56	C	1.565136	-0.089164	0.375283
C57	C	1.139346	-0.551532	-0.050995
C58	C	1.639346	-0.051532	0.449005
C59	C	1.139152	-0.448706	-0.050722
C60	C	1.639152	0.051294	0.449278
C61	C	1.065129	-0.410960	-0.124702
C62	C	1.565129	0.089040	0.375298
C63	C	0.971045	-0.448297	-0.104039
C64	C	1.471045	0.051703	0.395961
C65	C	0.971484	-0.551155	-0.103518
C66	C	1.471484	-0.051155	0.396482
C67	C	1.084163	-0.551244	-0.219318
C68	C	1.584163	-0.051244	0.280682
C69	C	1.086297	-0.448379	-0.218687
C70	C	1.586297	0.051621	0.281313
C71	C	1.065120	-0.310246	-0.124695
C72	C	1.565120	0.189754	0.375305
C73	C	1.065139	-0.689877	-0.124722
C74	C	1.565139	-0.189877	0.375278
C75	C	1.229947	-0.000069	-0.118337
C76	C	1.729947	0.499931	0.381663
C77	C	1.330031	-0.000069	-0.120241
C78	C	1.830031	0.499931	0.379759
C79	C	1.071504	-0.000057	0.040106
C80	C	1.571504	0.499943	0.540106
C81	C	1.069601	-0.000049	0.140189
C82	C	1.569601	0.499951	0.640189
N83	N	1.065144	0.229839	-0.124732
N84	N	1.565144	0.729839	0.375268
C85	C	1.058754	-0.000065	-0.289531
C86	C	1.558754	0.499935	0.210469
C87	C	1.060657	-0.000067	-0.389615
C88	C	1.560657	0.499933	0.110385
C89	C	0.979435	-0.000061	0.552723
C90	C	1.479435	0.499939	1.052723
C91	C	1.143668	-0.000070	0.574004
C92	C	1.643668	0.499930	1.074004
C93	C	1.145458	-0.000065	0.479971
C94	C	1.645458	0.499935	0.979971
C95	C	1.064235	-0.000059	0.422309
C96	C	1.564235	0.499941	0.922309
C97	C	0.981223	-0.000059	0.458680
C98	C	1.481223	0.499941	0.958680
C99	C	1.228469	-0.000074	0.443591
C100	C	1.728469	0.499926	0.943591
C101	C	1.230262	-0.000070	0.349552
C102	C	1.730262	0.499930	0.849552
C103	C	1.149039	-0.000058	0.291889
C104	C	1.649039	0.499942	0.791889
C105	C	1.066023	-0.000057	0.328266
C106	C	1.566023	0.499943	0.828266
C107	C	0.984800	-0.000051	0.270604
C108	C	1.484800	0.499949	0.770604
C109	C	0.901783	-0.000043	0.306979
C110	C	1.401783	0.499957	0.806979
C111	C	0.899999	-0.000047	0.401017
C112	C	1.399999	0.499953	0.901017
C113	C	1.150823	-0.000055	0.197851
C114	C	1.650823	0.499945	0.697851
C115	C	0.986588	-0.000048	0.176561
C116	C	1.486588	0.499952	0.676561
H117	H	0.810798	-0.000046	0.019971
H118	H	1.310798	0.499954	0.519971
Br119	Br	1.118856	-0.407697	0.066283
Br120	Br	1.618856	0.092303	0.566283
Br121	Br	1.253893	-0.000097	0.652259
Br122	Br	1.753893	0.499903	1.152259
H123	H	0.680397	-0.000049	0.104764
H124	H	1.180397	0.499951	0.604764
Br125	Br	0.787343	-0.000030	0.450389
Br126	Br	1.287343	0.499970	0.950389
H127	H	0.914487	-0.423848	-0.156300
H128	H	1.414487	0.076152	0.343700
H129	H	1.209514	-0.576265	-0.063118
H130	H	1.709514	-0.076265	0.436882
H131	H	0.358072	-0.000074	0.028572
H132	H	0.858072	0.499926	0.528572
H133	H	0.954732	-0.575152	-0.034523
H134	H	1.454732	-0.075152	0.465477
Br135	Br	0.866774	-0.000038	0.602086
Br136	Br	1.366774	0.499962	1.102086
H137	H	0.509774	-0.000089	0.108005
H138	H	1.009774	0.499911	0.608005
H139	H	0.449870	-0.000050	-0.354180
H140	H	0.949870	0.499950	0.145820
Br141	Br	0.640223	-0.000044	-0.402509
Br142	Br	1.140223	0.499956	0.097491
Br143	Br	0.876351	-0.000030	0.098312
Br144	Br	1.376351	0.499970	0.598312
Br145	Br	1.196084	-0.594464	-0.252365
Br146	Br	1.696084	-0.094464	0.247635
Br147	Br	1.338693	-0.000106	0.521849
Br148	Br	1.838693	0.499894	1.021849
Br149	Br	0.791557	-0.000047	0.228714
Br150	Br	1.291557	0.499953	0.728714
H151	H	0.319459	-0.000063	-0.269379
H152	H	0.819459	0.499937	0.230621
H153	H	1.127354	-0.577388	0.018809
H154	H	1.627354	-0.077388	0.518809
Br155	Br	0.791930	-0.000032	-0.323063
Br156	Br	1.291930	0.499968	0.176937
Br157	Br	1.263479	-0.000087	0.148487
Br158	Br	1.763479	0.499913	0.648487
Br159	Br	1.255707	-0.406625	-0.071275
Br160	Br	1.755707	0.093375	0.428725
H161	H	0.914597	-0.576049	-0.155166
H162	H	1.414597	-0.076049	0.344834
Br163	Br	1.342925	-0.000067	0.300193
Br164	Br	1.842925	0.499933	0.800193
Br165	Br	0.942438	-0.405376	0.009650
Br166	Br	1.442438	0.094624	0.509650
Br167	Br	1.201652	-0.407699	-0.244825
Br168	Br	1.701652	0.092301	0.255175
H169	H	1.035758	-0.422683	-0.276126
H170	H	1.535758	0.077317	0.223874
H171	H	1.030049	-0.575584	-0.274182
H172	H	1.530049	-0.075584	0.225818
