data_functionalizedCrystal
_audit_creation_method	'MofGen! by Chris Wilmer'
_symmetry_space_group_name_H-M	'P1'
_symmetry_Int_Tables_number	1
_symmetry_cell_setting	triclinic
loop_
_symmetry_equiv_pos_as_xyz
  x,y,z
_cell_length_a	29.839134
_cell_length_b	21.395361
_cell_length_c	21.395356
_cell_angle_alpha	90.030681
_cell_angle_beta	89.966687
_cell_angle_gamma	89.974432
loop_
_atom_site_label
_atom_site_type_symbol
_atom_site_fract_x
_atom_site_fract_y
_atom_site_fract_z
Zn1	Zn	0.686803	0.249540	-0.354411
Zn2	Zn	1.186803	0.749540	0.145589
Zn3	Zn	0.686735	0.354317	-0.249628
Zn4	Zn	1.186735	0.854317	0.250372
Zn5	Zn	0.611671	0.249548	-0.249630
Zn6	Zn	1.111671	0.749548	0.250370
Zn7	Zn	0.611648	0.354275	-0.354350
Zn8	Zn	1.111648	0.854275	0.145650
O9	O	0.649214	0.301920	-0.302005
O10	O	1.149214	0.801920	0.197995
O11	O	0.749661	0.263454	-0.340536
O12	O	1.249661	0.763454	0.159464
O13	O	0.676758	0.340440	-0.161950
O14	O	1.176758	0.840440	0.338050
O15	O	0.621676	0.161869	-0.263555
O16	O	1.121676	0.661869	0.236445
O17	O	0.749611	0.340433	-0.263552
O18	O	1.249611	0.840433	0.236448
O19	O	0.676875	0.161863	-0.340538
O20	O	1.176875	0.661863	0.159462
O21	O	0.621610	0.263466	-0.161952
O22	O	1.121610	0.763466	0.338048
O23	O	0.548801	0.263425	-0.263497
O24	O	1.048801	0.763425	0.236503
O25	O	0.621636	0.340360	-0.442036
O26	O	1.121636	0.840360	0.057964
O27	O	0.548784	0.340368	-0.340434
O28	O	1.048784	0.840368	0.159566
O29	O	0.676853	0.263413	-0.442081
O30	O	1.176853	0.763413	0.057919
O31	O	0.676736	0.441989	-0.263493
O32	O	1.176736	0.941989	0.236507
O33	O	0.621570	0.441958	-0.340432
O34	O	1.121570	0.941958	0.159568
C35	C	0.649155	0.464707	-0.301970
C36	C	1.149155	0.964707	0.198030
C37	C	0.649171	0.534349	-0.301976
C38	C	1.149171	1.034349	0.198024
C39	C	0.532492	0.301893	-0.301960
C40	C	1.032492	0.801893	0.198040
C41	C	0.482557	0.301897	-0.301955
C42	C	0.982557	0.801897	0.198045
C43	C	0.649250	0.301881	-0.465428
C44	C	1.149250	0.801881	0.034572
C45	C	0.649265	0.301864	-0.535069
C46	C	1.149265	0.801864	-0.035069
C47	C	0.172914	0.342043	-0.342017
C48	C	0.672914	0.842043	0.157983
C49	C	-0.014759	0.342061	-0.342045
C50	C	0.485241	0.842061	0.157955
O51	O	-0.039023	0.376165	-0.376080
O52	O	0.460977	0.876165	0.123920
N53	N	-0.038228	0.301943	-0.302052
N54	N	0.461772	0.801943	0.197948
C55	C	-0.014776	0.261815	-0.262052
C56	C	0.485224	0.761815	0.237948
O57	O	-0.039044	0.227688	-0.228041
O58	O	0.460956	0.727688	0.271959
C59	C	0.172896	0.261795	-0.262028
C60	C	0.672896	0.761795	0.237972
C61	C	0.196363	0.301919	-0.302019
C62	C	0.696363	0.801919	0.197981
C63	C	0.196381	0.382164	-0.382005
C64	C	0.696381	0.882164	0.117995
C65	C	0.243297	0.382162	-0.381996
C66	C	0.743297	0.882162	0.118004
C67	C	0.266745	0.342038	-0.341997
C68	C	0.766745	0.842038	0.158003
C69	C	0.243279	0.301917	-0.302009
C70	C	0.743279	0.801917	0.197991
C71	C	0.196348	0.221664	-0.222031
C72	C	0.696348	0.721664	0.277969
C73	C	0.243269	0.221661	-0.222030
C74	C	0.743269	0.721661	0.277970
C75	C	0.266735	0.261786	-0.262021
C76	C	0.766735	0.761786	0.237979
C77	C	0.313643	0.261791	-0.262001
C78	C	0.813643	0.761791	0.237999
N79	N	0.337112	0.301909	-0.301994
N80	N	0.837112	0.801909	0.198006
C81	C	0.313663	0.342032	-0.341992
C82	C	0.813663	0.842032	0.158008
C83	C	-0.113306	0.261829	-0.262067
C84	C	0.386694	0.761829	0.237933
C85	C	-0.160224	0.261835	-0.262072
C86	C	0.339776	0.761835	0.237928
C87	C	-0.160204	0.342080	-0.342066
C88	C	0.339796	0.842080	0.157934
C89	C	-0.113285	0.342077	-0.342057
C90	C	0.386715	0.842077	0.157943
C91	C	-0.089837	0.301947	-0.302060
C92	C	0.410163	0.801947	0.197940
C93	C	0.412189	0.342025	-0.341968
C94	C	0.912189	0.842025	0.158032
C95	C	0.459109	0.342021	-0.341953
C96	C	0.959109	0.842021	0.158047
C97	C	0.459084	0.261773	-0.261962
C98	C	0.959084	0.761773	0.238038
C99	C	0.412169	0.261780	-0.261974
C100	C	0.912169	0.761780	0.238026
C101	C	0.388722	0.301907	-0.301983
C102	C	0.888722	0.801907	0.198017
O103	O	0.337936	0.227700	-0.227989
O104	O	0.837936	0.727700	0.272011
O105	O	0.337940	0.376144	-0.376008
O106	O	0.837940	0.876144	0.123992
C107	C	0.125999	0.342045	-0.342027
C108	C	0.625999	0.842045	0.157973
C109	C	0.102532	0.301924	-0.302038
C110	C	0.602532	0.801924	0.197962
C111	C	0.125981	0.261801	-0.262040
C112	C	0.625981	0.761801	0.237960
C113	C	0.055614	0.301930	-0.302044
C114	C	0.555614	0.801930	0.197956
C115	C	0.032166	0.342054	-0.342042
C116	C	0.532166	0.842054	0.157958
C117	C	0.055635	0.382171	-0.382035
C118	C	0.555635	0.882171	0.117965
C119	C	0.102550	0.382169	-0.382025
C120	C	0.602550	0.882169	0.117975
C121	C	0.102512	0.221683	-0.222047
C122	C	0.602512	0.721683	0.277953
C123	C	0.055596	0.221689	-0.222060
C124	C	0.555596	0.721689	0.277940
C125	C	0.032148	0.261813	-0.262058
C126	C	0.532148	0.761813	0.237942
C127	C	0.766393	0.301947	-0.302050
C128	C	1.266393	0.801947	0.197950
C129	C	0.816327	0.301959	-0.302070
C130	C	1.316327	0.801959	0.197930
C131	C	0.649286	0.138497	-0.302053
C132	C	1.149286	0.638497	0.197947
C133	C	0.649317	0.068855	-0.302074
C134	C	1.149317	0.568855	0.197926
C135	C	0.677921	0.567057	-0.261955
C136	C	1.177921	1.067057	0.238045
C137	C	0.677942	0.632493	-0.261969
C138	C	1.177942	1.132493	0.238031
C139	C	0.649204	0.665217	-0.301997
C140	C	1.149204	1.165217	0.198003
C141	C	0.620452	0.632501	-0.342026
C142	C	1.120452	1.132501	0.157974
C143	C	0.620435	0.567066	-0.342016
C144	C	1.120435	1.067066	0.157984
C145	C	0.608754	0.768926	-0.306898
C146	C	1.108754	1.268926	0.193102
C147	C	0.608770	0.834359	-0.306904
C148	C	1.108770	1.334359	0.193096
C149	C	0.649257	0.867038	-0.302034
C150	C	1.149257	1.367038	0.197966
C151	C	0.689729	0.834275	-0.297145
C152	C	1.189729	1.334275	0.202855
C153	C	0.689712	0.768841	-0.297134
C154	C	1.189712	1.268841	0.202866
C155	C	0.649220	0.736169	-0.302014
C156	C	1.149220	1.236169	0.197986
C157	C	0.678032	0.970699	-0.262026
C158	C	1.178032	1.470699	0.237974
C159	C	0.678054	1.036135	-0.262044
C160	C	1.178054	1.536135	0.237956
C161	C	0.620560	1.036142	-0.342099
C162	C	1.120560	1.536142	0.157901
C163	C	0.620542	0.970707	-0.342084
C164	C	1.120542	1.470707	0.157916
C165	C	0.649278	0.937989	-0.302044
C166	C	1.149278	1.437989	0.197956
C167	C	0.620556	0.261780	-0.567773
C168	C	1.120556	0.761780	-0.067773
C169	C	0.620555	0.261768	-0.633209
C170	C	1.120555	0.761768	-0.133209
C171	C	0.649270	0.301835	-0.665938
C172	C	1.149270	0.801835	-0.165938
C173	C	0.677980	0.341927	-0.633226
C174	C	1.177980	0.841927	-0.133226
C175	C	0.677977	0.341942	-0.567792
C176	C	1.177977	0.841942	-0.067792
C177	C	0.689747	0.306766	-0.769633
C178	C	1.189747	0.806766	-0.269633
C179	C	0.689750	0.306746	-0.835066
C180	C	1.189750	0.806746	-0.335066
C181	C	0.649277	0.301792	-0.867759
C182	C	1.149277	0.801792	-0.367759
C183	C	0.608799	0.296844	-0.835010
C184	C	1.108799	0.796844	-0.335010
C185	C	0.608797	0.296859	-0.769576
C186	C	1.108797	0.796859	-0.269576
C187	C	0.649275	0.301823	-0.736890
C188	C	1.149275	0.801823	-0.236890
C189	C	0.620565	0.261693	-0.971415
C190	C	1.120565	0.761693	-0.471415
C191	C	0.620562	0.261686	-1.036852
C192	C	1.120562	0.761686	-0.536852
C193	C	0.677992	0.341841	-1.036868
C194	C	1.177992	0.841841	-0.536868
C195	C	0.677990	0.341852	-0.971432
C196	C	1.177990	0.841852	-0.471432
C197	C	0.649277	0.301774	-0.938710
C198	C	1.149277	0.801774	-0.438710
C199	C	0.649205	0.301913	-0.139217
C200	C	1.149205	0.801913	0.360783
C201	C	0.649277	0.301753	-0.069576
C202	C	1.149277	0.801753	0.430424
H203	H	0.478213	0.374697	-0.374519
H204	H	0.978213	0.874697	0.125481
O205	O	0.708955	0.385066	-1.072162
O206	O	1.208955	0.885066	-0.572162
H207	H	0.728915	0.412948	-1.038424
H208	H	1.228915	0.912948	-0.538424
O209	O	0.030336	0.425494	-0.425128
O210	O	0.530336	0.925494	0.074872
H211	H	0.054533	0.453415	-0.452919
H212	H	0.554533	0.953415	0.047081
O213	O	0.030287	0.178407	-0.178925
O214	O	0.530287	0.678407	0.321075
H215	H	0.054479	0.150504	-0.151118
H216	H	0.554479	0.650504	0.348882
H217	H	0.393105	0.374699	-0.374548
H218	H	0.893105	0.874699	0.125452
O219	O	0.733407	0.312082	-0.870384
O220	O	1.233407	0.812082	-0.370384
H221	H	0.738015	0.270099	-0.900206
H222	H	1.238015	0.770099	-0.400206
O223	O	0.708964	0.385072	-0.936152
O224	O	1.208964	0.885072	-0.436152
H225	H	0.728936	0.412926	-0.969901
H226	H	1.228936	0.912926	-0.469901
O227	O	0.589561	1.071430	-0.385270
O228	O	1.089561	1.571430	0.114730
H229	H	0.609664	1.101201	-0.417180
H230	H	1.109664	1.601201	0.082820
H231	H	0.701432	0.944059	-0.229425
H232	H	1.201432	1.444059	0.270575
H233	H	0.575839	0.292832	-0.742914
H234	H	1.075839	0.792832	-0.242914
O235	O	0.733403	0.312105	-0.734373
O236	O	1.233403	0.812105	-0.234373
H237	H	0.761549	0.315531	-0.768137
H238	H	1.261549	0.815531	-0.268137
O239	O	-0.088016	0.218549	-0.218922
O240	O	0.411984	0.718549	0.281078
H241	H	-0.066661	0.246550	-0.186995
H242	H	0.433339	0.746550	0.313005
O243	O	0.733360	0.733501	-0.291870
O244	O	1.233360	1.233501	0.208130
H245	H	0.761518	0.767212	-0.288489
H246	H	1.261518	1.267212	0.211511
H247	H	0.597129	0.944074	-0.374670
H248	H	1.097129	1.444074	0.125330
H249	H	0.701360	0.374549	-0.659878
H250	H	1.201360	0.874549	-0.159878
H251	H	0.597181	0.229046	-1.063478
H252	H	1.097181	0.729046	-0.563478
H253	H	0.597185	0.229060	-0.944771
H254	H	1.097185	0.729060	-0.444771
H255	H	0.597023	0.540435	-0.374606
H256	H	1.097023	1.040435	0.125394
O257	O	0.565121	0.869695	-0.312177
O258	O	1.065121	1.369695	0.187823
H259	H	0.536966	0.835981	-0.315574
H260	H	1.036966	1.335981	0.184426
O261	O	0.589603	0.218517	-0.668498
O262	O	1.089603	0.718517	-0.168498
H263	H	0.566730	0.246534	-0.698290
H264	H	1.066730	0.746534	-0.198290
O265	O	0.589592	0.218552	-0.532478
O266	O	1.089592	0.718552	-0.032478
H267	H	0.569629	0.190676	-0.566217
H268	H	1.069629	0.690676	-0.066217
O269	O	0.565143	0.291498	-0.870264
O270	O	1.065143	0.791498	-0.370264
H271	H	0.536999	0.288055	-0.836499
H272	H	1.036999	0.788055	-0.336499
H273	H	0.701357	0.374583	-0.541164
H274	H	1.201357	0.874583	-0.041164
H275	H	0.722697	0.860881	-0.293179
H276	H	1.222697	1.360881	0.206821
H277	H	0.121653	0.414843	-0.414590
H278	H	0.621653	0.914843	0.085410
O279	O	0.709069	1.071419	-0.218883
O280	O	1.209069	1.571419	0.281117
H281	H	0.688981	1.101284	-0.186987
H282	H	1.188981	1.601284	0.313013
H283	H	0.575782	0.742326	-0.310866
H284	H	1.075782	1.242326	0.189134
H285	H	0.701320	0.540420	-0.229354
H286	H	1.201320	1.040420	0.270646
O287	O	0.268605	0.425430	-0.425138
O288	O	0.768605	0.925430	0.074862
H289	H	0.244411	0.453321	-0.452955
H290	H	0.744411	0.953321	0.047045
O291	O	0.171122	0.425516	-0.425109
O292	O	0.671122	0.925516	0.074891
H293	H	0.180153	0.414891	-0.474315
H294	H	0.680153	0.914891	0.025685
O295	O	-0.087973	0.385342	-0.385198
O296	O	0.412027	0.885342	0.114802
H297	H	-0.096995	0.434505	-0.374371
H298	H	0.403005	0.934505	0.125629
O299	O	-0.185498	0.385353	-0.385214
O300	O	0.314502	0.885353	0.114786
H301	H	-0.222065	0.378607	-0.378499
H302	H	0.277935	0.878607	0.121501
H303	H	-0.179327	0.229167	-0.229501
H304	H	0.320673	0.729167	0.270499
O305	O	0.127800	0.178418	-0.178891
O306	O	0.627800	0.678418	0.321109
H307	H	0.103594	0.150533	-0.151079
H308	H	0.603594	0.650533	0.348921
H309	H	0.597055	0.659149	-0.374619
H310	H	1.097055	1.159149	0.125381
H311	H	0.262357	0.188978	-0.189462
H312	H	0.762357	0.688978	0.310538
O313	O	0.171043	0.178383	-0.178901
O314	O	0.671043	0.678383	0.321099
H315	H	0.180069	0.129226	-0.189749
H316	H	0.680069	0.629226	0.310251
O317	O	0.386853	0.218505	-0.218842
O318	O	0.886853	0.718505	0.281158
H319	H	0.411043	0.190603	-0.191029
H320	H	0.911043	0.690603	0.308971
O321	O	0.484380	0.218501	-0.218819
O322	O	0.984380	0.718501	0.281181
H323	H	0.475393	0.169342	-0.229656
H324	H	0.975393	0.669342	0.270344
H325	H	0.701356	0.659129	-0.229379
H326	H	1.201356	1.159129	0.270621
