data_functionalizedCrystal
_audit_creation_method	'MofGen! by Chris Wilmer'
_symmetry_space_group_name_H-M	'P1'
_symmetry_Int_Tables_number	1
_symmetry_cell_setting	triclinic
loop_
_symmetry_equiv_pos_as_xyz
  x,y,z
_cell_length_a	13.339070
_cell_length_b	15.944551
_cell_length_c	11.804365
_cell_angle_alpha	101.830656
_cell_angle_beta	74.875130
_cell_angle_gamma	99.564016
loop_
_atom_site_label
_atom_site_type_symbol
_atom_site_fract_x
_atom_site_fract_y
_atom_site_fract_z
O1	O	1.362759	0.408901	-0.099080
O2	O	1.862759	0.908901	0.400920
O3	O	1.068226	0.353629	-0.099072
O4	O	1.568226	0.853629	0.400928
O5	O	1.223533	0.260866	-0.099066
O6	O	1.723533	0.760866	0.400934
O7	O	1.207452	0.501664	-0.099087
O8	O	1.707452	1.001664	0.400913
O9	O	1.182647	0.285253	0.098989
O10	O	1.682647	0.785253	0.598989
O11	O	1.027340	0.378016	0.098982
O12	O	1.527340	0.878016	0.598982
O13	O	1.321872	0.433288	0.098974
O14	O	1.821872	0.933288	0.598974
Cu15	Cu	1.170873	0.407879	0.117062
Cu16	Cu	1.670873	0.907879	0.617062
Cu17	Cu	1.219226	0.379038	-0.117160
Cu18	Cu	1.719226	0.879038	0.382840
O19	O	1.166565	0.526051	0.098968
O20	O	1.666565	1.026051	0.598968
C21	C	1.010093	0.356486	-0.000044
C22	C	1.510093	0.856486	0.499956
C23	C	0.897788	0.328657	-0.000040
C24	C	1.397788	0.828657	0.499960
C25	C	0.533018	0.545045	-0.000078
C26	C	1.033018	1.045045	0.499922
C27	C	0.638534	0.571194	-0.000085
C28	C	1.138534	1.071194	0.499915
C29	C	0.703352	0.510562	-0.000073
C30	C	1.203352	1.010562	0.499927
C31	C	0.662645	0.423776	-0.000055
C32	C	1.162645	0.923776	0.499945
C33	C	0.557121	0.397622	-0.000058
C34	C	1.057121	0.897622	0.499942
C35	C	0.727455	0.363140	-0.000053
C36	C	1.227455	0.863140	0.499947
C37	C	0.686748	0.276354	-0.000035
C38	C	1.186748	0.776354	0.499965
C39	C	0.581234	0.250205	-0.000037
C40	C	1.081234	0.750205	0.499963
C41	C	0.516415	0.310837	-0.000048
C42	C	1.016415	0.810837	0.499952
C43	C	0.832980	0.389293	-0.000051
C44	C	1.332980	0.889293	0.499949
C45	C	0.857083	0.241871	-0.000031
C46	C	1.357083	0.741871	0.499969
C47	C	0.751567	0.215721	-0.000024
C48	C	1.251567	0.715721	0.499976
C49	C	1.202422	0.241610	-0.000038
C50	C	1.702422	0.741610	0.499962
C51	C	1.200420	0.147897	-0.000038
C52	C	1.700420	0.647897	0.499962
C53	C	1.099370	-0.090508	-0.000051
C54	C	1.599370	0.409492	0.499949
C55	C	1.126136	-0.128567	0.097600
C56	C	1.626136	0.371433	0.597600
C57	C	1.196800	-0.023674	-0.000047
C58	C	1.696800	0.476326	0.499953
C59	C	1.166470	-0.152588	-0.097666
C60	C	1.666470	0.347412	0.402334
C61	C	1.193297	-0.189405	-0.000060
C62	C	1.693297	0.310595	0.499940
C63	C	1.223576	-0.060489	0.097685
C64	C	1.723576	0.439511	0.597685
C65	C	1.263915	-0.084518	-0.097668
C66	C	1.763915	0.415482	0.402332
C67	C	1.290747	-0.122540	0.000007
C68	C	1.790747	0.377460	0.500007
C69	C	1.198815	0.071799	-0.000038
C70	C	1.698815	0.571799	0.499962
C71	C	1.191288	-0.284874	-0.000061
C72	C	1.691288	0.215126	0.499939
C73	C	1.380006	0.430430	-0.000057
C74	C	1.880006	0.930430	0.499943
C75	C	1.492312	0.458259	-0.000068
C76	C	1.992312	0.958259	0.499932
C77	C	1.187677	0.545307	-0.000062
C78	C	1.687677	1.045307	0.499938
C79	C	1.189681	0.639019	-0.000071
C80	C	1.689681	1.139019	0.499929
N81	N	1.136871	0.428165	0.281801
N82	N	1.636871	0.928165	0.781801
N83	N	1.253235	0.358748	-0.281899
N84	N	1.753235	0.858748	0.218101
C85	C	1.334885	0.310017	0.655758
C86	C	1.834885	0.810017	1.155758
C87	C	1.360606	0.294667	0.531097
C88	C	1.860606	0.794667	1.031097
C89	C	1.304674	0.328040	0.468767
C90	C	1.804674	0.828040	0.968767
C91	C	1.223018	0.376766	0.531110
C92	C	1.723018	0.876766	1.031110
C93	C	1.197300	0.392123	0.655783
C94	C	1.697300	0.892123	1.155783
C95	C	1.167089	0.410146	0.468792
C96	C	1.667089	0.910146	0.968792
C97	C	1.085432	0.458872	0.531135
C98	C	1.585432	0.958872	1.031135
C99	C	1.059718	0.474226	0.655795
C100	C	1.559718	0.974226	1.155795
C101	C	1.115650	0.440854	0.718126
C102	C	1.615650	0.940854	1.218126
C103	C	1.192807	0.394789	0.344119
C104	C	1.692807	0.894789	0.844119
C105	C	1.055221	0.476895	0.344144
C106	C	1.555221	0.976895	0.844144
C107	C	1.029500	0.492245	0.468805
C108	C	1.529500	0.992245	0.968805
H109	H	0.866112	0.459956	-0.000061
H110	H	1.366112	0.959956	0.499939
H111	H	1.427091	0.254996	0.480342
H112	H	1.927091	0.754996	0.980342
H113	H	0.430494	0.289550	-0.000042
H114	H	0.930494	0.789550	0.499958
H115	H	1.259292	0.355116	0.293371
H116	H	1.759292	0.855116	0.793371
H117	H	1.018477	-0.076032	0.000049
H118	H	1.518477	0.423968	0.500049
H119	H	0.480236	0.594401	-0.000097
H120	H	0.980236	1.094401	0.499903
H121	H	0.548096	0.179536	-0.000035
H122	H	1.048096	0.679536	0.499965
H123	H	1.380423	0.282855	0.706515
H124	H	1.880423	0.782855	1.206515
C125	C	1.087362	0.457742	0.855254
C126	C	1.587362	0.957742	1.355254
H127	H	1.132371	0.430888	0.883440
H128	H	1.632371	0.930888	1.383440
H129	H	1.016887	0.434624	0.883476
H130	H	1.516887	0.934624	1.383476
H131	H	1.095399	0.518138	0.883445
H132	H	1.595399	1.018138	1.383445
H133	H	0.993236	0.513910	0.706555
H134	H	1.493236	1.013910	1.206555
H135	H	1.247689	-0.020727	0.180333
H136	H	1.747689	0.479273	0.680333
H137	H	0.963014	0.531919	0.519580
H138	H	1.463014	1.031919	1.019580
C139	C	0.706783	0.120260	-0.000017
C140	C	1.206783	0.620260	0.499983
H141	H	0.634660	0.113372	-0.000029
H142	H	1.134660	0.613372	0.499971
H143	H	0.714766	0.102760	0.069050
H144	H	1.214766	0.602760	0.569050
H145	H	0.743289	0.085756	-0.069090
H146	H	1.243289	0.585756	0.430910
H147	H	1.009678	0.504072	0.293396
H148	H	1.509678	1.004072	0.793396
H149	H	0.671672	0.641854	-0.000109
H150	H	1.171672	1.141854	0.499891
H151	H	0.909859	0.192498	-0.000026
H152	H	1.409859	0.692498	0.499974
H153	H	1.371679	-0.136831	0.000060
H154	H	1.871679	0.363169	0.500060
C155	C	0.819414	0.539327	-0.000067
C156	C	1.319414	1.039327	0.499933
H157	H	0.834373	0.599698	-0.000068
H158	H	1.334373	1.099698	0.499932
H159	H	0.862004	0.509514	-0.069123
H160	H	1.362004	1.009514	0.430877
H161	H	0.833465	0.526530	0.069018
H162	H	1.333465	1.026530	0.569018
C163	C	1.047447	-0.154976	0.209126
C164	C	1.547447	0.345024	0.709126
H165	H	0.979482	-0.144331	0.209011
H166	H	1.479482	0.355669	0.709011
H167	H	1.067088	-0.122242	0.278469
H168	H	1.567088	0.377758	0.778469
H169	H	1.047208	-0.214656	0.208684
H170	H	1.547208	0.285344	0.708684
H171	H	1.322133	-0.064960	-0.180231
H172	H	1.822133	0.435040	0.319769
C173	C	1.133808	-0.206429	-0.209191
C174	C	1.633808	0.293571	0.290809
H175	H	1.065800	-0.195736	-0.209061
H176	H	1.565800	0.304264	0.290939
H177	H	1.133389	-0.266001	-0.208784
H178	H	1.633389	0.233999	0.291216
H179	H	1.182076	-0.190747	-0.278536
H180	H	1.682076	0.309253	0.221464
H181	H	1.325620	0.315540	0.367263
H182	H	1.825620	0.815540	0.867263
