data_functionalizedCrystal
_audit_creation_method	'MofGen! by Chris Wilmer'
_symmetry_space_group_name_H-M	'P1'
_symmetry_Int_Tables_number	1
_symmetry_cell_setting	triclinic
loop_
_symmetry_equiv_pos_as_xyz
  x,y,z
_cell_length_a	8.559649
_cell_length_b	13.339070
_cell_length_c	7.681481
_cell_angle_alpha	82.700297
_cell_angle_beta	94.913240
_cell_angle_gamma	92.703979
loop_
_atom_site_label
_atom_site_type_symbol
_atom_site_fract_x
_atom_site_fract_y
_atom_site_fract_z
O1	O	2.094922	-0.022785	-0.146401
O2	O	1.652108	0.027721	-0.146409
O3	O	1.822694	-0.140848	-0.146401
O4	O	1.924335	0.145783	-0.146409
O5	O	1.843672	-0.161637	0.146458
O6	O	1.673086	0.006931	0.146450
O7	O	2.115899	-0.043574	0.146458
Zn8	Zn	1.897823	-0.021623	0.192951
Zn9	Zn	1.870184	0.005769	-0.192903
O10	O	1.945313	0.124994	0.146449
C11	C	1.604764	0.021153	0.000020
C12	C	1.432434	0.032546	0.000017
C13	C	1.816014	-0.187598	0.000026
C14	C	1.764836	-0.295923	0.000018
C15	C	2.162764	-0.691632	0.000026
C16	C	2.210854	-0.589856	0.000043
C17	C	2.099353	-0.516368	0.000036
C18	C	1.939755	-0.544665	0.000013
C19	C	1.891662	-0.646451	0.000010
C20	C	1.828251	-0.471188	0.000020
C21	C	1.668653	-0.499485	-0.000003
C22	C	1.620567	-0.601262	-0.000008
C23	C	1.732068	-0.674750	-0.000001
C24	C	1.876344	-0.369401	0.000024
C25	C	1.605242	-0.324221	0.000008
C26	C	1.557152	-0.425997	-0.000010
C27	C	2.163243	-0.037007	0.000025
C28	C	2.335572	-0.048399	0.000017
C29	C	1.951993	0.171744	0.000019
C30	C	2.003170	0.280070	0.000015
N31	N	1.916697	-0.040318	0.456287
N32	N	1.851319	0.024455	-0.456238
H33	H	2.006290	-0.346373	0.000043
H34	H	1.514449	-0.264387	0.000011
H35	H	1.384481	-0.126415	0.000010
H36	H	1.383518	0.110568	0.000005
H37	H	1.983457	-0.106431	0.531496
H38	H	2.340798	-0.566825	0.000065
C39	C	2.151503	-0.405879	0.000416
C40	C	2.104371	-0.370598	0.151102
C41	C	2.152412	-0.268822	0.151521
H42	H	2.105053	-0.367136	-0.101594
H43	H	2.262528	-0.399519	0.000527
H44	H	1.993368	-0.376950	0.150976
H45	H	2.150816	-0.409313	0.253137
H46	H	2.263437	-0.262462	0.151631
H47	H	2.105958	-0.230088	0.049504
H48	H	2.120453	-0.244873	0.253766
C49	C	1.762570	0.112749	0.443596
C50	C	1.833626	0.203711	0.488274
C51	C	1.751926	0.285070	0.396007
H52	H	1.656894	0.108216	0.473665
H53	H	1.764651	0.110778	0.320619
H54	H	1.831529	0.205682	0.611223
H55	H	1.939295	0.208278	0.458200
H56	H	1.754008	0.283099	0.273030
H57	H	1.646254	0.280527	0.426083
H58	H	1.800135	0.346797	0.426295
C59	C	2.283955	-0.771292	-0.000238
C60	C	2.366673	-0.749461	-0.150878
C61	C	2.478348	-0.822817	-0.151167
H62	H	2.232648	-0.836003	-0.000329
H63	H	2.354929	-0.771137	0.101840
H64	H	2.295709	-0.749627	-0.252930
H65	H	2.418013	-0.684763	-0.150818
H66	H	2.549323	-0.822662	-0.049089
H67	H	2.427028	-0.887523	-0.151253
H68	H	2.534495	-0.808010	-0.253365
H69	H	1.692920	-0.757625	-0.000021
H70	H	1.490613	-0.624297	-0.000013
H71	H	1.427204	-0.449051	-0.000028
