data_functionalizedCrystal
_audit_creation_method	'MofGen! by Chris Wilmer'
_symmetry_space_group_name_H-M	'P1'
_symmetry_Int_Tables_number	1
_symmetry_cell_setting	triclinic
loop_
_symmetry_equiv_pos_as_xyz
  x,y,z
_cell_length_a	14.044220
_cell_length_b	16.109301
_cell_length_c	14.586319
_cell_angle_alpha	89.994786
_cell_angle_beta	90.001391
_cell_angle_gamma	88.325179
loop_
_atom_site_label
_atom_site_type_symbol
_atom_site_fract_x
_atom_site_fract_y
_atom_site_fract_z
O1	O	1.257643	0.200436	-0.076149
O2	O	0.981677	0.193203	-0.076172
O3	O	1.127241	0.076352	-0.076150
O4	O	1.112079	0.317286	-0.076170
O5	O	1.127231	0.076350	0.076331
O6	O	0.981666	0.193200	0.076309
O7	O	1.257633	0.200433	0.076332
Cu8	Cu	1.119649	0.196816	0.090243
Cu9	Cu	1.119661	0.196820	-0.090083
O10	O	1.112069	0.317284	0.076311
C11	C	1.126622	0.045330	0.000091
C12	C	1.124781	-0.047102	0.000092
C13	C	0.946358	0.190036	0.000066
C14	C	0.841135	0.180592	0.000058
C15	C	1.206874	-0.263266	0.000084
C16	C	1.205137	-0.350116	0.000076
C17	C	1.032429	-0.343091	0.000066
C18	C	1.034168	-0.256243	0.000067
C19	C	1.121393	-0.216333	0.000081
C20	C	1.117917	-0.390031	0.000072
C21	C	1.116032	-0.484197	0.000064
C22	C	1.123278	-0.122161	0.000087
C23	C	0.648479	0.163326	0.000077
C24	C	0.590825	0.230306	0.000075
C25	C	0.483625	0.220699	0.000086
C26	C	0.755690	0.172932	0.000066
C27	C	1.292952	0.203600	0.000093
C28	C	1.398175	0.213044	0.000095
C29	C	1.112688	0.348306	0.000068
C30	C	1.114529	0.440738	0.000061
N31	N	1.119647	0.196814	0.217075
N32	N	1.119670	0.196816	-0.216915
C33	C	1.184125	0.145093	0.452091
C34	C	1.184128	0.145092	0.548072
C35	C	1.055186	0.248539	0.548063
C36	C	1.055179	0.248536	0.452083
C37	C	1.119654	0.196814	0.404100
C38	C	1.119663	0.196816	0.596061
C39	C	1.119666	0.196814	0.700128
C40	C	1.119651	0.196815	0.300026
H41	H	1.277898	-0.230774	0.000094
C42	C	0.937704	-0.386381	-0.000131
C43	C	0.886043	-0.363148	-0.078594
C44	C	0.798782	-0.403018	-0.078810
H45	H	0.902391	-0.370741	0.052978
H46	H	0.948872	-0.444833	-0.000179
H47	H	0.874873	-0.304710	-0.078538
H48	H	0.921327	-0.378790	-0.131715
H49	H	0.809950	-0.461469	-0.078858
H50	H	0.763478	-0.387374	-0.025698
H51	H	0.763723	-0.387266	-0.132050
H52	H	1.274744	-0.388326	0.000077
C53	C	1.254007	0.088773	0.400067
C54	C	1.238619	0.005938	0.423438
C55	C	1.302968	-0.045980	0.375536
H56	H	1.317304	0.102406	0.415761
H57	H	1.244785	0.096102	0.336017
H58	H	1.247849	-0.001387	0.487473
H59	H	1.175335	-0.007721	0.407742
H60	H	1.293746	-0.038652	0.311487
H61	H	1.366260	-0.032340	0.391234
H62	H	1.292530	-0.102190	0.391381
H63	H	0.964554	-0.218029	0.000061
H64	H	0.621976	0.294863	0.000066
H65	H	1.002693	0.290650	0.587140
C66	C	0.606767	0.077321	0.000035
C67	C	0.507190	0.084773	0.000017
C68	C	0.468720	0.005564	-0.000038
H69	H	0.627467	0.047893	0.053191
H70	H	0.627508	0.047965	-0.053162
H71	H	0.486457	0.114116	0.053209
H72	H	0.486464	0.114186	-0.053135
H73	H	0.489461	-0.023792	-0.053235
H74	H	0.489427	-0.023858	0.053120
H75	H	0.401154	0.010609	-0.000058
C76	C	1.253976	0.088831	0.600225
C77	C	1.203509	0.034151	0.655315
C78	C	1.267823	-0.017698	0.703361
H79	H	1.293446	0.121588	0.637739
H80	H	1.292357	0.057981	0.557928
H81	H	1.165145	0.064999	0.697608
H82	H	1.164042	0.001376	0.617825
H83	H	1.306204	-0.048549	0.661064
H84	H	1.307290	0.015066	0.740869
H85	H	1.233591	-0.054809	0.740739
H86	H	1.002675	0.290653	0.413006
