data_functionalizedCrystal
_audit_creation_method	'MofGen! by Chris Wilmer'
_symmetry_space_group_name_H-M	'P1'
_symmetry_Int_Tables_number	1
_symmetry_cell_setting	triclinic
loop_
_symmetry_equiv_pos_as_xyz
  x,y,z
_cell_length_a	23.096457
_cell_length_b	14.809374
_cell_length_c	14.809499
_cell_angle_alpha	57.530033
_cell_angle_beta	98.949759
_cell_angle_gamma	67.425492
loop_
_atom_site_label
_atom_site_type_symbol
_atom_site_fract_x
_atom_site_fract_y
_atom_site_fract_z
Zr1	Zr	0.605268	1.000592	-0.231449
O2	O	0.509593	1.191294	-0.398645
O3	O	0.626737	0.809887	-0.165464
O4	O	0.619046	1.000592	-0.377409
O5	O	0.532292	1.000590	-0.036271
O6	O	0.714326	1.000595	-0.377415
O7	O	0.517284	1.000589	-0.186700
O8	O	0.728083	0.659458	0.001716
O9	O	0.518535	1.341726	-0.415402
O10	O	0.716496	0.888329	-0.155124
O11	O	0.656590	0.888328	-0.042856
O12	O	0.647535	1.112858	-0.292394
O13	O	0.587629	1.112857	-0.180126
Zr14	Zr	0.781164	1.000596	0.008458
Zr15	Zr	0.757228	1.000596	-0.231458
Zr16	Zr	0.629204	1.000592	0.008468
Zr17	Zr	0.619528	1.240513	-0.258175
Zr18	Zr	0.766904	0.760675	0.035184
O19	O	0.759695	1.191301	-0.057527
O20	O	0.725661	1.191300	-0.398658
O21	O	0.543627	1.191295	-0.057514
O22	O	0.876839	0.809894	0.175654
O23	O	0.842805	0.809893	-0.165477
O24	O	0.660771	0.809888	0.175667
O25	O	0.854140	1.000598	-0.186720
O26	O	0.767386	1.000596	0.154418
O27	O	0.672106	1.000593	0.154424
O28	O	0.869148	1.000599	-0.036291
O29	O	0.639323	1.341729	-0.415409
O30	O	0.747109	0.659459	0.192418
O31	O	0.867897	0.659462	0.192411
O32	O	0.848871	0.659462	0.001709
O33	O	0.537560	1.341726	-0.224700
O34	O	0.658349	1.341730	-0.224707
O35	O	0.738897	0.888330	0.069403
O36	O	0.798803	0.888332	-0.042865
O37	O	0.729842	1.112860	-0.180135
O38	O	0.669936	1.112859	-0.067867
C39	C	0.675378	0.700489	-0.078066
C40	C	0.669324	0.598636	-0.066720
C41	C	0.696342	0.553228	-0.117354
C42	C	0.690086	0.447958	-0.105629
C43	C	0.503136	1.000589	-0.111484
C44	C	0.438625	1.000587	-0.111480
C45	C	0.444315	0.883389	-0.039837
C46	C	0.383700	0.883387	-0.039832
C47	C	0.317394	1.000590	-0.111492
C48	C	0.311706	1.117804	-0.183139
C49	C	0.372322	1.117802	-0.183133
N50	N	0.190268	1.087831	-0.216586
N51	N	0.132688	1.087824	-0.216589
C52	C	0.134760	1.000602	-0.111513
N53	N	0.196592	0.913367	-0.006434
N54	N	0.254178	0.913369	-0.006433
C55	C	0.251662	1.000605	-0.111507
C56	C	0.074727	0.883394	-0.039859
C57	C	0.014110	0.883397	-0.039852
C58	C	-0.057885	1.117817	-0.183170
C59	C	0.002733	1.117810	-0.183166
C60	C	0.069036	1.000595	-0.111513
C61	C	0.883295	1.000599	-0.111507
C62	C	0.947807	1.000601	-0.111511
C63	C	0.663276	1.000593	-0.411595
C64	C	0.653114	1.000593	-0.513446
C65	C	0.711054	1.300699	-0.144925
C66	C	0.717108	1.402552	-0.156270
C67	C	0.687966	1.000594	-0.664128
C68	C	0.698472	1.000594	-0.558860
C69	C	0.723156	1.000595	0.188604
C70	C	0.733318	1.000595	0.290455
C71	C	0.865458	0.700494	-0.078077
C72	C	0.923915	0.598643	-0.066736
C73	C	0.705318	0.700490	0.222033
C74	C	0.709426	0.598637	0.335230
C75	C	0.895398	0.700495	0.222022
C76	C	0.964017	0.598644	0.335215
C77	C	0.491034	1.300693	-0.445013
C78	C	0.422415	1.402544	-0.558205
C79	C	0.520974	1.300694	-0.144913
C80	C	0.462517	1.402545	-0.156255
C81	C	0.681114	1.300698	-0.445024
C82	C	0.677006	1.402551	-0.558221
C83	C	0.908403	0.550812	-0.120018
C84	C	0.963322	0.455125	-0.109385
C85	C	1.033753	0.407265	-0.045462
C86	C	1.049265	0.455106	0.007820
C87	C	0.994346	0.550797	-0.002820
C88	C	1.027517	0.550815	0.329768
C89	C	1.091998	0.455128	0.436114
C90	C	1.092975	0.407267	0.547906
C91	C	1.029467	0.455106	0.553349
C92	C	0.964989	0.550797	0.447003
C93	C	0.358915	1.450385	-0.552760
C94	C	0.294437	1.546101	-0.659110
C95	C	0.293460	1.593968	-0.770902
C96	C	0.356967	1.546123	-0.776344
C97	C	0.421444	1.450415	-0.669997
C98	C	0.478029	1.450386	-0.102984
C99	C	0.423108	1.546100	-0.113646
C100	C	0.352677	1.593963	-0.177573
C101	C	0.337166	1.546117	-0.230850
C102	C	0.392085	1.450413	-0.220195
C103	C	0.663783	0.633683	0.379161
C104	C	0.667628	0.537995	0.485510
C105	C	0.717119	0.407263	0.547932
C106	C	0.762764	0.372218	0.503993
C107	C	0.758915	0.467905	0.397640
C108	C	0.627510	1.533267	-0.620610
C109	C	0.623650	1.628982	-0.726963
C110	C	0.669283	1.593977	-0.770928
C111	C	0.718784	1.463248	-0.708529
C112	C	0.722647	1.367536	-0.602174
H113	H	0.641563	0.559575	-0.014687
N114	N	0.753884	0.454275	-0.225207
H115	H	0.804545	0.381308	-0.186360
H116	H	0.753089	0.522164	-0.223801
N117	N	0.610399	0.774678	0.311854
H118	H	0.561059	0.794249	0.286474
H119	H	0.614940	0.829904	0.237861
H120	H	0.851057	0.589778	-0.172084
H121	H	1.078466	0.329346	-0.036806
N122	N	0.515825	0.756970	0.037437
H123	H	0.510229	0.682724	0.082821
H124	H	0.548168	0.751851	0.096927
N125	N	0.618402	0.575809	0.532899
H126	H	0.586476	0.673147	0.477221
H127	H	0.647154	0.539709	0.616477
N128	N	1.026482	0.602409	0.209210
H129	H	1.054722	0.642119	0.195822
H130	H	0.975985	0.670236	0.142725
N131	N	0.795050	1.000608	-0.657834
H132	H	0.823871	1.000610	-0.702607
H133	H	0.825749	0.920901	-0.569394
H134	H	-0.111872	1.213246	-0.241518
H135	H	0.240953	1.671899	-0.857487
H136	H	0.950679	0.416184	-0.152776
H137	H	1.030274	0.416122	0.644384
H138	H	1.106617	0.416124	0.059865
H139	H	0.662322	0.408900	-0.053593
H140	H	1.006986	0.589730	0.040577
H141	H	0.535374	1.411423	-0.050922
H142	H	0.606508	1.000585	-0.552487
N143	N	1.160488	0.403541	0.430228
H144	H	1.150078	0.448376	0.343271
H145	H	1.185255	0.307472	0.478084
H146	H	0.796088	0.439351	0.361885
H147	H	1.145482	0.329349	0.634490
H148	H	-0.001905	1.213246	-0.241513
H149	H	0.435752	1.585039	-0.070255
N150	N	0.776021	1.226546	-0.534898
H151	H	0.808969	1.183118	-0.450502
H152	H	0.804288	1.219010	-0.578990
N153	N	0.389829	0.756977	0.037443
H154	H	0.441029	0.682723	0.082837
H155	H	0.360624	0.751884	-0.015808
N156	N	0.733116	0.604958	-0.186283
H157	H	0.732371	0.672831	-0.184892
H158	H	0.707812	0.644639	-0.272667
H159	H	0.257715	1.213231	-0.241485
H160	H	0.359697	1.411417	-0.461743
N161	N	0.366187	1.244214	-0.260414
H162	H	0.314986	1.318465	-0.305811
H163	H	0.384147	1.249312	-0.319894
H164	H	0.379445	1.411463	-0.263572
H165	H	0.279813	1.585102	-0.282899
H166	H	0.913287	0.589727	0.451455
N167	N	0.355908	1.597756	-0.896923
H168	H	0.305423	1.665639	-0.963457
H169	H	0.377473	1.524674	-0.897658
H170	H	0.745083	1.000588	-0.519810
H171	H	0.755936	1.434764	-0.744342
H172	H	0.242734	1.585040	-0.654655
H173	H	0.641363	1.000586	-0.703172
N174	N	0.146242	0.756978	0.037423
H175	H	0.140648	0.682729	0.082818
H176	H	0.178582	0.751873	0.096904
H177	H	0.473146	1.411464	-0.674443
H178	H	0.307964	1.671892	-0.186240
N179	N	0.721082	0.304065	0.662387
H180	H	0.684594	0.346116	0.680654
H181	H	0.769873	0.248214	0.731653
N182	N	0.578293	1.571033	-0.573194
H183	H	0.527607	1.623931	-0.635588
H184	H	0.586113	1.623858	-0.555869
N185	N	0.020246	0.756984	0.037431
H186	H	0.071447	0.682734	0.082818
H187	H	-0.008960	0.751887	-0.015814
N188	N	0.570255	1.769971	-0.794245
H189	H	0.520917	1.789533	-0.819619
H190	H	0.574789	1.825216	-0.868239
N191	N	0.665111	1.697216	-0.885643
H192	H	0.626826	1.785335	-0.918491
H193	H	0.653660	1.687626	-0.947414
H194	H	0.803060	0.265763	0.554833
