data_functionalizedCrystal
_audit_creation_method	'MofGen! by Chris Wilmer'
_symmetry_space_group_name_H-M	'P1'
_symmetry_Int_Tables_number	1
_symmetry_cell_setting	triclinic
loop_
_symmetry_equiv_pos_as_xyz
  x,y,z
_cell_length_a	14.971490
_cell_length_b	14.971486
_cell_length_c	14.048226
_cell_angle_alpha	90.002448
_cell_angle_beta	90.010471
_cell_angle_gamma	83.614888
loop_
_atom_site_label
_atom_site_type_symbol
_atom_site_fract_x
_atom_site_fract_y
_atom_site_fract_z
O1	O	-1.186948	-0.116575	-0.079213
O2	O	-0.686948	0.383425	0.420787
O3	O	-0.926548	-0.130530	-0.079203
O4	O	-0.426548	0.369470	0.420797
O5	O	-1.063727	0.006648	-0.079201
O6	O	-0.563727	0.506648	0.420799
O7	O	-1.049769	-0.253752	-0.079214
O8	O	-0.549769	0.246248	0.420786
O9	O	-1.063705	0.006644	0.079120
O10	O	-0.563705	0.506644	0.579120
O11	O	-0.926526	-0.130533	0.079118
O12	O	-0.426526	0.369467	0.579118
O13	O	-1.186926	-0.116578	0.079109
O14	O	-0.686926	0.383422	0.579109
Zn15	Zn	-1.056722	-0.123556	0.104250
Zn16	Zn	-0.556722	0.376444	0.604250
Zn17	Zn	-1.056751	-0.123552	-0.104345
Zn18	Zn	-0.556751	0.376448	0.395655
O19	O	-1.049746	-0.253756	0.079107
O20	O	-0.549746	0.246244	0.579107
C21	C	-0.893212	-0.129907	-0.000041
C22	C	-0.393212	0.370093	0.499959
C23	C	-0.793915	-0.128035	-0.000038
C24	C	-0.293915	0.371965	0.499962
C25	C	-0.366222	-0.119955	-0.086356
C26	C	0.133778	0.380045	0.413644
C27	C	-0.459522	-0.121711	-0.086354
C28	C	0.040478	0.378289	0.413646
C29	C	-0.506156	-0.122597	-0.000050
C30	C	-0.006156	0.377403	0.499950
C31	C	-0.459485	-0.121718	0.086257
C32	C	0.040515	0.378282	0.586257
C33	C	-0.366188	-0.119955	0.086253
C34	C	0.133812	0.380045	0.586253
C35	C	-0.653947	-0.125394	0.086258
C36	C	-0.153947	0.374606	0.586258
C37	C	-0.747251	-0.127158	0.086263
C38	C	-0.247251	0.372842	0.586263
C39	C	-0.747282	-0.127150	-0.086348
C40	C	-0.247282	0.372850	0.413652
C41	C	-0.653984	-0.125387	-0.086352
C42	C	-0.153984	0.374613	0.413648
C43	C	-0.607320	-0.124510	-0.000045
C44	C	-0.107320	0.375490	0.499955
C45	C	-1.063092	0.039971	-0.000041
C46	C	-0.563092	0.539971	0.499959
C47	C	-1.061221	0.139268	-0.000042
C48	C	-0.561221	0.639268	0.499958
C49	C	-0.220261	-0.117202	-0.000053
C50	C	0.279739	0.382798	0.499947
C51	C	-0.319558	-0.119078	-0.000056
C52	C	0.180442	0.380922	0.499944
C53	C	-1.050382	-0.287079	-0.000056
C54	C	-0.550382	0.212921	0.499944
C55	C	-1.052252	-0.386376	-0.000061
C56	C	-0.552252	0.113624	0.499939
N57	N	-1.056709	-0.123559	0.246611
N58	N	-0.556709	0.376441	0.746611
C59	C	-1.141810	0.196492	-0.000044
C60	C	-0.641810	0.696492	0.499956
C61	C	-1.140047	0.289791	-0.000053
C62	C	-0.640047	0.789791	0.499947
C63	C	-1.057694	0.325865	-0.000054
C64	C	-0.557694	0.825865	0.499946
C65	C	-0.977099	0.268633	-0.000055
C66	C	-0.477099	0.768633	0.499945
C67	C	-0.978863	0.175336	-0.000052
C68	C	-0.478863	0.675336	0.499948
C69	C	-0.973428	0.463096	-0.000058
C70	C	-0.473428	0.963096	0.499942
C71	C	-0.971663	0.556400	-0.000059
C72	C	-0.471663	1.056400	0.499941
C73	C	-1.134612	0.577552	-0.000060
C74	C	-0.634612	1.077552	0.499940
C75	C	-1.136376	0.484254	-0.000057
C76	C	-0.636376	0.984254	0.499943
C77	C	-1.055780	0.427029	-0.000056
C78	C	-0.555780	0.927029	0.499944
N79	N	-1.056772	-0.123542	-0.246706
N80	N	-0.556772	0.376458	0.253294
C81	C	-1.117523	-0.062825	0.703451
C82	C	-0.617523	0.437175	1.203451
C83	C	-1.117515	-0.062831	0.603794
C84	C	-0.617515	0.437169	1.103794
C85	C	-1.056751	-0.123551	0.553981
C86	C	-0.556751	0.376449	1.053981
C87	C	-0.995996	-0.184275	0.603831
C88	C	-0.495996	0.315725	1.103831
C89	C	-0.996009	-0.184272	0.703487
C90	C	-0.496009	0.315728	1.203487
C91	C	-0.995972	-0.184274	0.396117
C92	C	-0.495972	0.315726	0.896117
C93	C	-0.995957	-0.184276	0.296454
C94	C	-0.495957	0.315724	0.796454
C95	C	-1.117478	-0.062833	0.296424
C96	C	-0.617478	0.437167	0.796424
C97	C	-1.117491	-0.062831	0.396079
C98	C	-0.617491	0.437169	0.896079
C99	C	-1.056735	-0.123554	0.445923
C100	C	-0.556735	0.376446	0.945923
H101	H	-0.616016	-0.124672	-0.156628
H102	H	-0.116016	0.375328	0.343372
F103	F	-0.893089	0.114433	-0.000052
F104	F	-0.393089	0.614433	0.499948
H105	H	-1.167001	-0.013376	0.744002
H106	H	-0.667001	0.486624	1.244002
F107	F	-0.509182	-0.122641	-0.178206
F108	F	-0.009182	0.377359	0.321794
H109	H	-0.946541	-0.233716	0.744068
H110	H	-0.446541	0.266284	1.244068
H111	H	-0.946524	-0.233719	0.563268
H112	H	-0.446524	0.266281	1.063268
F113	F	-1.182157	0.001798	0.449094
F114	F	-0.682157	0.501798	0.949094
F115	F	-0.796945	-0.128093	-0.178204
F116	F	-0.296945	0.371907	0.321796
H117	H	-0.785217	-0.127884	0.156539
H118	H	-0.285217	0.372116	0.656539
H119	H	-1.208872	0.167129	-0.000038
H120	H	-0.708872	0.667129	0.499962
H121	H	-0.328194	-0.119250	0.156528
H122	H	0.171806	0.380750	0.656528
F123	F	-1.182174	0.001790	0.550747
F124	F	-0.682174	0.501790	1.050747
F125	F	-0.889452	0.307028	-0.000066
F126	F	-0.389452	0.807028	0.499934
F127	F	-1.225821	0.350690	-0.000054
F128	F	-0.725821	0.850690	0.499946
F129	F	-1.224025	0.445864	-0.000059
F130	F	-0.724025	0.945864	0.499941
F131	F	-0.604287	-0.124450	0.178117
F132	F	-0.104287	0.375550	0.678117
F133	F	-0.509119	-0.122658	0.178108
F134	F	-0.009119	0.377342	0.678108
F135	F	-1.182137	0.001793	0.243373
F136	F	-0.682137	0.501793	0.743373
F137	F	-1.220389	0.638456	-0.000065
F138	F	-0.720389	1.138456	0.499935
H139	H	-0.946478	-0.233722	0.255902
H140	H	-0.446478	0.266278	0.755902
H141	H	-0.904604	0.585767	-0.000044
H142	H	-0.404604	1.085767	0.499956
H143	H	-0.907798	0.416505	-0.000060
H144	H	-0.407798	0.916505	0.499940
F145	F	-0.931310	-0.248907	0.449160
F146	F	-0.431310	0.251093	0.949160
H147	H	-0.328258	-0.119240	-0.156635
H148	H	0.171742	0.380760	0.343365
