data_functionalizedCrystal
_audit_creation_method	'MofGen! by Chris Wilmer'
_symmetry_space_group_name_H-M	'P1'
_symmetry_Int_Tables_number	1
_symmetry_cell_setting	triclinic
loop_
_symmetry_equiv_pos_as_xyz
  x,y,z
_cell_length_a	25.639233
_cell_length_b	16.959455
_cell_length_c	16.959454
_cell_angle_alpha	90.017022
_cell_angle_beta	90.012406
_cell_angle_gamma	90.012273
loop_
_atom_site_label
_atom_site_type_symbol
_atom_site_fract_x
_atom_site_fract_y
_atom_site_fract_z
Zn1	Zn	-0.295627	-1.208368	0.314842
Zn2	Zn	0.204373	-0.708368	0.814842
Zn3	Zn	-0.208201	-1.208295	0.447001
Zn4	Zn	0.291799	-0.708295	0.947001
Zn5	Zn	-0.208206	-1.076201	0.314834
Zn6	Zn	0.291794	-0.576201	0.814834
Zn7	Zn	-0.295606	-1.076161	0.446975
Zn8	Zn	0.204394	-0.576161	0.946975
O9	O	-0.251910	-1.142256	0.380913
O10	O	0.248090	-0.642256	0.880913
O11	O	-0.284037	-1.318969	0.332388
O12	O	0.215963	-0.818969	0.832388
O13	O	-0.135037	-1.190759	0.429477
O14	O	0.364963	-0.690759	0.929477
O15	O	-0.219814	-1.093780	0.204224
O16	O	0.280186	-0.593780	0.704224
O17	O	-0.219805	-1.318916	0.429485
O18	O	0.280195	-0.818916	0.929485
O19	O	-0.284042	-1.190883	0.204230
O20	O	0.215958	-0.690883	0.704230
O21	O	-0.135041	-1.093710	0.332374
O22	O	0.364959	-0.593710	0.832374
O23	O	-0.219794	-0.965585	0.332348
O24	O	0.280206	-0.465585	0.832348
O25	O	-0.368774	-1.093712	0.429440
O26	O	0.131226	-0.593712	0.929440
O27	O	-0.284006	-0.965555	0.429432
O28	O	0.215994	-0.465555	0.929432
O29	O	-0.368790	-1.190844	0.332362
O30	O	0.131210	-0.690844	0.832362
O31	O	-0.219785	-1.190720	0.557609
O32	O	0.280215	-0.690720	1.057609
O33	O	-0.284001	-1.093642	0.557590
O34	O	0.215999	-0.593642	1.057590
C35	C	-0.251898	-0.936890	0.380887
C36	C	0.248102	-0.436890	0.880887
C37	C	-0.251906	-0.849033	0.380895
C38	C	0.248094	-0.349033	0.880895
C39	C	-0.251901	-1.142190	0.586280
C40	C	0.248099	-0.642190	1.086280
C41	C	-0.251915	-1.142234	0.674136
C42	C	0.248085	-0.642234	1.174136
C43	C	-0.388283	-1.142282	0.380899
C44	C	0.111717	-0.642282	0.880899
C45	C	-0.446397	-1.142293	0.380893
C46	C	0.053603	-0.642293	0.880893
C47	C	-0.806774	-1.192933	0.330195
C48	C	-0.306774	-0.692933	0.830195
C49	C	-0.861379	-1.192943	0.330173
C50	C	-0.361379	-0.692943	0.830173
O51	O	-0.889627	-1.235936	0.287160
O52	O	-0.389627	-0.735936	0.787160
N53	N	-0.888680	-1.142380	0.380708
N54	N	-0.388680	-0.642380	0.880708
C55	C	-0.861374	-1.091798	0.431263
C56	C	-0.361374	-0.591798	0.931263
O57	O	-0.889610	-1.048790	0.474244
O58	O	-0.389610	-0.548790	0.974244
C59	C	-0.806771	-1.091784	0.431280
C60	C	-0.306771	-0.591784	0.931280
C61	C	-0.779472	-1.142357	0.380747
C62	C	-0.279472	-0.642357	0.880747
C63	C	-0.779476	-1.243501	0.279666
C64	C	-0.279476	-0.743501	0.779666
C65	C	-0.724875	-1.243492	0.279689
C66	C	-0.224875	-0.743492	0.779689
C67	C	-0.697573	-1.192915	0.330241
C68	C	-0.197573	-0.692915	0.830241
C69	C	-0.724872	-1.142348	0.380770
C70	C	-0.224872	-0.642348	0.880770
C71	C	-0.779466	-1.041199	0.481830
C72	C	-0.279466	-0.541199	0.981830
C73	C	-0.724859	-1.041190	0.481843
C74	C	-0.224859	-0.541190	0.981843
C75	C	-0.697561	-1.091762	0.431310
C76	C	-0.197561	-0.591762	0.931310
C77	C	-0.642969	-1.091762	0.431346
C78	C	-0.142969	-0.591762	0.931346
N79	N	-0.615668	-1.142326	0.380811
N80	N	-0.115668	-0.642326	0.880811
C81	C	-0.642970	-1.192902	0.330258
C82	C	-0.142970	-0.692902	0.830258
C83	C	-0.976045	-1.091828	0.431222
C84	C	-0.476045	-0.591828	0.931222
C85	C	-1.030647	-1.091845	0.431209
C86	C	-0.530647	-0.591845	0.931209
C87	C	-1.030648	-1.192989	0.330118
C88	C	-0.530648	-0.692989	0.830118
C89	C	-0.976045	-1.192976	0.330135
C90	C	-0.476045	-0.692976	0.830135
C91	C	-0.948744	-1.142391	0.380687
C92	C	-0.448744	-0.642391	0.880687
C93	C	-0.528305	-1.192880	0.330311
C94	C	-0.028305	-0.692880	0.830311
C95	C	-0.473699	-1.192869	0.330341
C96	C	0.026301	-0.692869	0.830341
C97	C	-0.473704	-1.091722	0.431429
C98	C	0.026296	-0.591722	0.931429
C99	C	-0.528304	-1.091736	0.431402
C100	C	-0.028304	-0.591736	0.931402
C101	C	-0.555603	-1.142317	0.380837
C102	C	-0.055603	-0.642317	0.880837
O103	O	-0.614686	-1.048789	0.474334
O104	O	-0.114686	-0.548789	0.974334
O105	O	-0.614727	-1.235895	0.287277
O106	O	-0.114727	-0.735895	0.787277
C107	C	-0.116068	-1.142276	0.380870
C108	C	0.383932	-0.642276	0.880870
C109	C	-0.057954	-1.142418	0.380653
C110	C	0.442046	-0.642418	0.880653
C111	C	-0.251923	-1.348424	0.380940
C112	C	0.248077	-0.848424	0.880940
C113	C	-0.251928	-1.436281	0.380951
C114	C	0.248072	-0.936281	0.880951
C115	C	-0.218545	-0.477549	0.330320
C116	C	0.281455	0.022451	0.830320
C117	C	-0.285306	-0.477567	0.431571
C118	C	0.214694	0.022433	0.931571
C119	C	-0.285303	-0.560113	0.431560
C120	C	0.214697	-0.060113	0.931560
C121	C	-0.251919	-0.601380	0.380929
C122	C	0.248081	-0.101380	0.880929
C123	C	-0.218539	-0.560102	0.330309
C124	C	0.281461	-0.060102	0.830309
C125	C	-0.318678	-0.601397	0.482184
C126	C	0.181322	-0.101397	0.982184
C127	C	-0.318676	-0.683948	0.482176
C128	C	0.181324	-0.183948	0.982176
C129	C	-0.285295	-0.725217	0.431540
C130	C	0.214705	-0.225217	0.931540
C131	C	-0.251914	-0.683934	0.380918
C132	C	0.248086	-0.183934	0.880918
C133	C	-0.218531	-0.725202	0.330287
C134	C	0.281469	-0.225202	0.830287
C135	C	-0.185152	-0.683920	0.279659
C136	C	0.314848	-0.183920	0.779659
C137	C	-0.185159	-0.601371	0.279673
C138	C	0.314841	-0.101371	0.779673
C139	C	-0.285289	-0.807766	0.431526
C140	C	0.214711	-0.307766	0.931526
C141	C	-0.218526	-0.807755	0.330275
C142	C	0.281474	-0.307755	0.830275
C143	C	-0.251931	-1.142344	0.174745
C144	C	0.248069	-0.642344	0.674745
C145	C	-0.251939	-1.142382	0.086888
C146	C	0.248061	-0.642382	0.586888
C147	C	-0.285344	-1.091781	1.045632
C148	C	0.214656	-0.591781	1.545632
C149	C	-0.218530	-1.192952	1.045592
C150	C	0.281470	-0.692952	1.545592
C151	C	-0.218525	-1.192924	0.963046
C152	C	0.281475	-0.692924	1.463046
C153	C	-0.251930	-1.142323	0.921789
C154	C	0.248070	-0.642323	1.421789
C155	C	-0.285339	-1.091750	0.963078
C156	C	0.214661	-0.591750	1.463078
C157	C	-0.185112	-1.243491	0.921750
C158	C	0.314888	-0.743491	1.421750
C159	C	-0.185106	-1.243465	0.839200
C160	C	0.314894	-0.743465	1.339200
C161	C	-0.218514	-1.192867	0.797941
C162	C	0.281486	-0.692867	1.297941
C163	C	-0.251925	-1.142292	0.839235
C164	C	0.248075	-0.642292	1.339235
C165	C	-0.285330	-1.091691	0.797979
C166	C	0.214670	-0.591691	1.297979
C167	C	-0.318744	-1.041120	0.839271
C168	C	0.181256	-0.541120	1.339271
C169	C	-0.318747	-1.041152	0.921820
C170	C	0.181253	-0.541152	1.421820
C171	C	-0.218510	-1.192835	0.715393
C172	C	0.281490	-0.692835	1.215393
C173	C	-0.285325	-1.091661	0.715425
C174	C	0.214675	-0.591661	1.215425
H175	H	-0.451475	-1.234054	0.289190
H176	H	0.048525	-0.734054	0.789190
N177	N	-0.354776	-0.986603	0.966358
N178	N	0.145224	-0.486603	1.466358
H179	H	-0.375939	-0.954542	0.927699
H180	H	0.124061	-0.454542	1.427699
H181	H	-0.378993	-1.018762	1.000580
H182	H	0.121007	-0.518762	1.500580
N183	N	-0.321284	-0.852287	0.486128
N184	N	0.178716	-0.352287	0.986128
H185	H	-0.345550	-0.886554	0.454061
H186	H	0.154450	-0.386554	0.954061
H187	H	-0.299952	-0.886475	0.522691
H188	H	0.200048	-0.386475	1.022691
H189	H	-0.312529	-1.050458	0.681839
H190	H	0.187471	-0.550458	1.181839
H191	H	-0.157912	-1.284681	0.955348
H192	H	0.342088	-0.784681	1.455348
N193	N	-0.149074	-1.298013	0.794665
N194	N	0.350926	-0.798013	1.294665
H195	H	-0.127914	-1.330074	0.833328
H196	H	0.372086	-0.830074	1.333328
H197	H	-0.170382	-1.334556	0.760388
H198	H	0.329618	-0.834556	1.260388
H199	H	-0.345853	-0.567791	0.523411
H200	H	0.154147	-0.067791	1.023411
N201	N	-0.808901	-0.986652	0.536333
N202	N	-0.308901	-0.486652	1.036333
H203	H	-0.783312	-0.954611	0.568351
H204	H	-0.283312	-0.454611	1.068351
H205	H	-0.831552	-0.950089	0.504144
H206	H	-0.331552	-0.450089	1.004144
H207	H	-0.345940	-0.999917	0.805671
H208	H	0.154060	-0.499917	1.305671
N209	N	-0.695442	-1.298036	0.225175
N210	N	-0.195442	-0.798036	0.725175
H211	H	-0.704951	-1.285776	0.168699
H212	H	-0.204951	-0.785776	0.668699
H213	H	-0.656715	-1.290342	0.232912
H214	H	-0.156715	-0.790342	0.732912
N215	N	-0.321384	-1.037240	1.090161
N216	N	0.178616	-0.537240	1.590161
H217	H	-0.316321	-1.044935	1.148716
H218	H	0.183679	-0.544935	1.648716
H219	H	-0.313210	-0.980791	1.075774
H220	H	0.186790	-0.480791	1.575774
H221	H	-0.157970	-0.717531	0.238439
H222	H	0.342030	-0.217531	0.738439
H223	H	-0.550532	-1.050563	0.472557
H224	H	-0.050532	-0.550563	0.972557
H225	H	-0.191330	-1.234144	1.079188
H226	H	0.308670	-0.734144	1.579188
N227	N	-0.182540	-0.433033	0.275724
N228	N	0.317460	0.066967	0.775724
H229	H	-0.145170	-0.447387	0.287921
H230	H	0.354830	0.052613	0.787921
H231	H	-0.190765	-0.447434	0.219286
H232	H	0.309235	0.052566	0.719286
N233	N	-0.182476	-1.247368	0.670850
N234	N	0.317524	-0.747368	1.170850
H235	H	-0.145113	-1.235132	0.685239
H236	H	0.354887	-0.735132	1.185239
H237	H	-0.190672	-1.303821	0.685192
H238	H	0.309328	-0.803821	1.185192
N239	N	-0.557744	-1.247431	0.275771
N240	N	-0.057744	-0.747431	0.775771
H241	H	-0.532158	-1.279459	0.243768
H242	H	-0.032158	-0.779459	0.743768
H243	H	-0.580403	-1.284004	0.307937
H244	H	-0.080403	-0.784004	0.807937
H245	H	-0.312482	-0.443962	0.472797
H246	H	0.187518	0.056038	0.972797
N247	N	-0.808911	-1.298054	0.225127
N248	N	-0.308911	-0.798054	0.725127
H249	H	-0.799405	-1.354520	0.237417
H250	H	-0.299405	-0.854520	0.737417
H251	H	-0.847638	-1.290336	0.232793
H252	H	-0.347638	-0.790336	0.732793
H253	H	-1.052887	-1.234169	0.288953
H254	H	-0.552887	-0.734169	0.788953
N255	N	-0.354674	-0.728470	0.536777
N256	N	0.145326	-0.228470	1.036777
H257	H	-0.375822	-0.689801	0.568854
H258	H	0.124178	-0.189801	1.068854
H259	H	-0.378906	-0.762735	0.504652
H260	H	0.121094	-0.262735	1.004652
H261	H	-0.191344	-0.841349	0.289040
H262	H	0.308656	-0.341349	0.789040
N263	N	-0.946603	-1.247524	0.275636
N264	N	-0.446603	-0.747524	0.775636
H265	H	-0.923945	-1.215421	0.239005
H266	H	-0.423945	-0.715421	0.739005
H267	H	-0.923982	-1.284122	0.307834
H268	H	-0.423982	-0.784122	0.807834
N269	N	-1.060088	-1.037310	0.485723
N270	N	-0.560088	-0.537310	0.985723
H271	H	-1.034502	-1.005273	0.517749
H272	H	-0.534502	-0.505273	1.017749
H273	H	-1.082740	-1.000745	0.453538
H274	H	-0.582740	-0.500745	0.953538
H275	H	-0.953820	-1.050635	0.472391
H276	H	-0.453820	-0.550635	0.972391
H277	H	-0.702634	-0.999988	0.523000
H278	H	-0.202634	-0.499988	1.023000
H279	H	-0.157983	-0.567752	0.238457
H280	H	0.342017	-0.067752	0.738457
H281	H	-0.451465	-1.050546	0.472590
H282	H	0.048535	-0.550546	0.972590
