data_functionalizedCrystal
_audit_creation_method	'MofGen! by Chris Wilmer'
_symmetry_space_group_name_H-M	'P1'
_symmetry_Int_Tables_number	1
_symmetry_cell_setting	triclinic
loop_
_symmetry_equiv_pos_as_xyz
  x,y,z
_cell_length_a	9.065218
_cell_length_b	10.654550
_cell_length_c	7.540329
_cell_angle_alpha	89.996554
_cell_angle_beta	89.996962
_cell_angle_gamma	84.750408
loop_
_atom_site_label
_atom_site_type_symbol
_atom_site_fract_x
_atom_site_fract_y
_atom_site_fract_z
O1	O	1.959392	0.184158	-0.147487
O2	O	1.530024	0.199263	-0.147489
O3	O	1.754580	0.009010	-0.147477
O4	O	1.734836	0.374410	-0.147499
O5	O	1.754567	0.009008	0.147488
O6	O	1.530011	0.199261	0.147476
O7	O	1.959378	0.184155	0.147478
Cu8	Cu	1.744693	0.191708	0.174410
Cu9	Cu	1.744709	0.191711	-0.174421
O10	O	1.734823	0.374408	0.147466
C11	C	1.475039	0.197810	-0.000007
C12	C	1.311220	0.193469	-0.000008
C13	C	1.753124	-0.037795	0.000005
C14	C	1.748786	-0.177255	0.000002
C15	C	1.881001	-0.256217	0.000002
C16	C	1.876917	-0.387254	-0.000019
C17	C	1.608391	-0.360354	-0.000034
C18	C	1.612477	-0.229320	-0.000025
C19	C	2.032639	-0.582481	-0.103368
C20	C	2.164861	-0.661449	-0.103337
C21	C	2.284719	-0.630803	0.000031
C22	C	2.272361	-0.521192	0.103411
C23	C	2.140137	-0.442232	0.103397
C24	C	2.020284	-0.472876	-0.000013
C25	C	1.456764	-0.034091	0.103338
C26	C	1.324539	0.044872	0.103336
C27	C	1.204668	0.014230	-0.000021
C28	C	1.217012	-0.095383	-0.103375
C29	C	1.349237	-0.174347	-0.103373
C30	C	1.469109	-0.143695	-0.000019
C31	C	2.014364	0.185608	-0.000008
C32	C	2.178183	0.189949	-0.000019
C33	C	1.736279	0.421213	-0.000020
C34	C	1.740616	0.560673	-0.000028
N35	N	1.744693	0.191705	0.419758
N36	N	1.744721	0.191703	-0.419769
H37	H	1.991993	-0.213831	0.000020
H38	H	1.096996	0.078524	0.000009
H39	H	1.314490	0.134117	0.187515
C40	C	1.900802	-0.616180	-0.217099
H41	H	1.820290	-0.553448	-0.202328
H42	H	1.871502	-0.695586	-0.180790
H43	H	1.929278	-0.620275	-0.338361
C44	C	1.085162	-0.129092	-0.217081
H45	H	1.004652	-0.066360	-0.202296
H46	H	1.055867	-0.208498	-0.180761
H47	H	1.113619	-0.133189	-0.338349
C48	C	1.588630	-0.000384	0.217026
H49	H	1.669151	-0.063100	0.202208
H50	H	1.560189	0.003717	0.338289
H51	H	1.617917	0.079029	0.180691
H52	H	2.130073	-0.352992	0.187573
C53	C	2.404197	-0.487492	0.217142
H54	H	2.377894	-0.410913	0.278717
H55	H	2.486892	-0.477726	0.142669
H56	H	2.429122	-0.553043	0.300237
C57	C	2.178460	-0.782004	-0.217065
H58	H	2.088148	-0.788937	-0.278664
H59	H	2.198924	-0.853382	-0.142578
H60	H	2.256692	-0.778055	-0.300137
H61	H	2.392377	-0.695107	0.000053
C62	C	1.362825	-0.294910	-0.217082
H63	H	1.272503	-0.301849	-0.278655
H64	H	1.383309	-0.366285	-0.142597
H65	H	1.441040	-0.290958	-0.300177
H66	H	1.497413	-0.402762	-0.000052
