data_functionalizedCrystal
_audit_creation_method	'MofGen! by Chris Wilmer'
_symmetry_space_group_name_H-M	'P1'
_symmetry_Int_Tables_number	1
_symmetry_cell_setting	triclinic
loop_
_symmetry_equiv_pos_as_xyz
  x,y,z
_cell_length_a	12.759401
_cell_length_b	12.759400
_cell_length_c	12.759393
_cell_angle_alpha	89.969548
_cell_angle_beta	90.022497
_cell_angle_gamma	89.984606
loop_
_atom_site_label
_atom_site_type_symbol
_atom_site_fract_x
_atom_site_fract_y
_atom_site_fract_z
Zn1	Zn	-1.606267	-0.418192	-0.594064
Zn2	Zn	-1.272934	-0.084859	-0.260731
Zn3	Zn	-0.939601	0.248474	0.072603
Zn4	Zn	-1.606159	-0.593908	-0.418384
Zn5	Zn	-1.272825	-0.260575	-0.085051
Zn6	Zn	-0.939492	0.072759	0.248282
Zn7	Zn	-1.430566	-0.418246	-0.418395
Zn8	Zn	-1.097233	-0.084913	-0.085061
Zn9	Zn	-0.763899	0.248421	0.248272
Zn10	Zn	-1.430558	-0.593832	-0.594017
Zn11	Zn	-1.097225	-0.260499	-0.260683
Zn12	Zn	-0.763892	0.072834	0.072650
O13	O	-1.518388	-0.506045	-0.506215
O14	O	-1.185054	-0.172711	-0.172882
O15	O	-0.851721	0.160622	0.160452
O16	O	-1.753274	-0.441511	-0.570775
O17	O	-1.419941	-0.108177	-0.237442
O18	O	-1.086607	0.225156	0.095891
O19	O	-1.582824	-0.570660	-0.271365
O20	O	-1.249491	-0.237327	0.061969
O21	O	-0.916157	0.096007	0.395302
O22	O	-1.453922	-0.271218	-0.441722
O23	O	-1.120588	0.062115	-0.108388
O24	O	-0.787255	0.395449	0.224945
O25	O	-1.753194	-0.570608	-0.441704
O26	O	-1.419861	-0.237275	-0.108371
O27	O	-1.086528	0.096059	0.224962
O28	O	-1.583009	-0.271178	-0.570785
O29	O	-1.249675	0.062155	-0.237452
O30	O	-0.916342	0.395488	0.095881
O31	O	-1.453817	-0.441602	-0.271372
O32	O	-1.120483	-0.108269	0.061961
O33	O	-0.787150	0.225064	0.395295
O34	O	-1.283544	-0.441529	-0.441676
O35	O	-0.950211	-0.108196	-0.108342
O36	O	-0.616877	0.225138	0.224991
O37	O	-1.453909	-0.570479	-0.741044
O38	O	-1.120575	-0.237146	-0.407711
O39	O	-0.787242	0.096187	-0.074378
O40	O	-1.283538	-0.570531	-0.570705
O41	O	-0.950205	-0.237198	-0.237371
O42	O	-0.616872	0.096135	0.095962
O43	O	-1.583001	-0.441437	-0.741079
O44	O	-1.249668	-0.108104	-0.407746
O45	O	-0.916335	0.225229	-0.074412
O46	O	-1.582816	-0.740919	-0.441658
O47	O	-1.249483	-0.407586	-0.108325
O48	O	-0.916150	-0.074252	0.225008
O49	O	-1.453803	-0.740863	-0.570695
O50	O	-1.120470	-0.407530	-0.237361
O51	O	-0.787137	-0.074197	0.095972
C52	C	-1.245420	-0.506029	-0.506187
C53	C	-0.912087	-0.172695	-0.172853
C54	C	-0.578754	0.160638	0.160480
C55	C	-1.128644	-0.506047	-0.506200
C56	C	-0.795310	-0.172714	-0.172866
C57	C	-0.461977	0.160620	0.160467
C58	C	-1.073806	-0.573320	-0.573278
C59	C	-0.740473	-0.239987	-0.239944
C60	C	-0.407140	0.093347	0.093389
C61	C	-0.964082	-0.573323	-0.573296
C62	C	-0.630749	-0.239989	-0.239962
C63	C	-0.297415	0.093344	0.093371
C64	C	-0.964043	-0.438776	-0.439148
C65	C	-0.630709	-0.105443	-0.105815
C66	C	-0.297376	0.227890	0.227519
C67	C	-1.073765	-0.438769	-0.439136
C68	C	-0.740431	-0.105436	-0.105803
C69	C	-0.407098	0.227898	0.227530
C70	C	-1.518326	-0.779012	-0.506193
C71	C	-1.184992	-0.445679	-0.172860
C72	C	-0.851659	-0.112345	0.160473
C73	C	-1.518395	-0.895789	-0.506219
C74	C	-1.185062	-0.562455	-0.172886
C75	C	-0.851729	-0.229122	0.160448
C76	C	-0.792421	-0.506059	-0.506237
C77	C	-0.459088	-0.172725	-0.172904
C78	C	-0.125754	0.160608	0.160430
C79	C	-0.909197	-0.506057	-0.506229
C80	C	-0.575864	-0.172723	-0.172896
C81	C	-0.242531	0.160610	0.160438
C82	C	-1.585711	-1.060376	-0.439138
C83	C	-1.252378	-0.727042	-0.105804
C84	C	-0.919044	-0.393709	0.227529
C85	C	-1.585648	-0.950652	-0.439105
C86	C	-1.252315	-0.617318	-0.105771
C87	C	-0.918982	-0.283985	0.227562
C88	C	-1.451194	-0.950655	-0.573363
C89	C	-1.117861	-0.617322	-0.240030
C90	C	-0.784527	-0.283989	0.093303
C91	C	-1.451252	-1.060377	-0.573390
C92	C	-1.117919	-0.727044	-0.240057
C93	C	-0.784586	-0.393711	0.093277
C94	C	-1.518466	-0.505944	-0.780248
C95	C	-1.185133	-0.172611	-0.446915
C96	C	-0.851800	0.160723	-0.113582
C97	C	-1.518500	-0.505901	-0.897025
C98	C	-1.185166	-0.172568	-0.563692
C99	C	-0.851833	0.160766	-0.230359
C100	C	-1.518478	-0.232011	-0.506260
C101	C	-1.185145	0.101322	-0.172926
C102	C	-0.851812	0.434655	0.160407
C103	C	-1.518517	-0.115235	-0.506279
C104	C	-1.185184	0.218099	-0.172946
C105	C	-0.851850	0.551432	0.160388
C106	C	-1.585723	-0.438698	-0.951907
C107	C	-1.252390	-0.105365	-0.618574
C108	C	-0.919057	0.227969	-0.285240
C109	C	-1.585741	-0.438653	-1.061631
C110	C	-1.252408	-0.105319	-0.728298
C111	C	-0.919074	0.228014	-0.394964
C112	C	-1.451309	-0.573022	-1.061582
C113	C	-1.117975	-0.239689	-0.728249
C114	C	-0.784642	0.093644	-0.394915
C115	C	-1.451287	-0.573061	-0.951860
C116	C	-1.117953	-0.239728	-0.618527
C117	C	-0.784620	0.093605	-0.285193
C118	C	-1.518370	-0.506069	-0.233248
C119	C	-1.185036	-0.172736	0.100086
C120	C	-0.851703	0.160597	0.433419
C121	C	-1.518540	-0.505816	-0.116471
C122	C	-1.185206	-0.172483	0.216862
C123	C	-0.851873	0.160850	0.550195
H124	H	-0.919438	-0.628102	-0.627919
H125	H	-0.586105	-0.294768	-0.294585
H126	H	-0.252772	0.038565	0.038748
Cl127	Cl	-1.366647	-0.881684	-0.657736
Cl128	Cl	-1.033314	-0.548351	-0.324403
Cl129	Cl	-0.699980	-0.215018	0.008930
H130	H	-1.640450	-0.384009	-0.907264
H131	H	-1.307116	-0.050675	-0.573930
H132	H	-0.973783	0.282658	-0.240597
Cl133	Cl	-1.142708	-0.354183	-0.354809
Cl134	Cl	-0.809375	-0.020850	-0.021476
Cl135	Cl	-0.476042	0.312483	0.311858
H136	H	-1.396530	-1.105045	-0.628067
H137	H	-1.063197	-0.771712	-0.294733
H138	H	-0.729864	-0.438378	0.038600
H139	H	-1.118485	-0.628099	-0.627888
H140	H	-0.785152	-0.294766	-0.294554
H141	H	-0.451819	0.038567	0.038779
Cl142	Cl	-1.670268	-1.129336	-0.354765
Cl143	Cl	-1.336934	-0.796002	-0.021432
Cl144	Cl	-1.003601	-0.462669	0.311902
H145	H	-1.396589	-0.627704	-1.106242
H146	H	-1.063255	-0.294371	-0.772908
H147	H	-0.729922	0.038962	-0.439575
Cl148	Cl	-1.670264	-0.354174	-1.130621
Cl149	Cl	-1.336931	-0.020841	-0.797287
Cl150	Cl	-1.003597	0.312492	-0.463954
Cl151	Cl	-0.895044	-0.354206	-0.354842
Cl152	Cl	-0.561711	-0.020872	-0.021509
Cl153	Cl	-0.228378	0.312461	0.311824
Cl154	Cl	-1.366764	-0.657546	-0.882860
Cl155	Cl	-1.033430	-0.324213	-0.549527
Cl156	Cl	-0.700097	0.009120	-0.216194
Cl157	Cl	-1.670126	-0.881691	-0.354695
Cl158	Cl	-1.336792	-0.548357	-0.021362
Cl159	Cl	-1.003459	-0.215024	0.311971
