data_functionalizedCrystal
_audit_creation_method	'MofGen! by Chris Wilmer'
_symmetry_space_group_name_H-M	'P1'
_symmetry_Int_Tables_number	1
_symmetry_cell_setting	triclinic
loop_
_symmetry_equiv_pos_as_xyz
  x,y,z
_cell_length_a	12.759401
_cell_length_b	18.215405
_cell_length_c	18.215399
_cell_angle_alpha	90.032960
_cell_angle_beta	89.986511
_cell_angle_gamma	89.974954
loop_
_atom_site_label
_atom_site_type_symbol
_atom_site_fract_x
_atom_site_fract_y
_atom_site_fract_z
Zn1	Zn	1.606129	0.292971	-0.416037
Zn2	Zn	1.606008	0.416048	-0.292965
Zn3	Zn	1.430446	0.293000	-0.292992
Zn4	Zn	1.430388	0.416001	-0.415997
O5	O	1.518243	0.354505	-0.354498
O6	O	1.753134	0.309305	-0.399717
O7	O	1.582692	0.399757	-0.189984
O8	O	1.453826	0.190012	-0.309342
O9	O	1.753045	0.399729	-0.309297
O10	O	1.582900	0.189991	-0.399743
O11	O	1.453708	0.309354	-0.190004
O12	O	1.283418	0.309309	-0.309303
O13	O	1.453727	0.399649	-0.518987
O14	O	1.283375	0.399677	-0.399675
O15	O	1.582843	0.309260	-0.519016
O16	O	1.582636	0.519026	-0.309258
O17	O	1.453610	0.518991	-0.399649
C18	C	1.245276	0.354491	-0.354488
C19	C	1.128499	0.354503	-0.354501
C20	C	1.518132	0.545711	-0.354462
C21	C	1.518181	0.627510	-0.354472
C22	C	1.518293	0.354446	-0.546451
C23	C	1.518314	0.354421	-0.628250
C24	C	1.073642	0.401633	-0.401480
C25	C	0.963918	0.401643	-0.401488
C26	C	0.963917	0.307390	-0.307532
C27	C	1.073639	0.307377	-0.307528
C28	C	1.128502	0.448759	-0.448452
C29	C	1.073645	0.495894	-0.495434
C30	C	0.963921	0.495903	-0.495442
C31	C	0.909054	0.448778	-0.448468
C32	C	1.792276	0.354519	-0.354508
C33	C	1.909053	0.354525	-0.354513
C34	C	1.518383	0.162552	-0.354549
C35	C	1.518443	0.080753	-0.354571
C36	C	1.585522	0.815697	-0.307492
C37	C	1.585569	0.892556	-0.307510
C38	C	1.451098	0.892560	-0.401557
C39	C	1.451057	0.815703	-0.401542
C40	C	1.518268	0.777274	-0.354505
C41	C	1.518356	0.930990	-0.354538
C42	C	1.518406	1.014323	-0.354558
C43	C	1.518219	0.693935	-0.354487
C44	C	1.451208	0.307317	-0.816455
C45	C	1.451227	0.307302	-0.893314
C46	C	1.585544	0.401438	-0.893283
C47	C	1.585520	0.401456	-0.816425
C48	C	1.518354	0.354391	-0.778013
C49	C	1.518396	0.354358	-0.931729
C50	C	1.518417	0.354342	-1.015063
C51	C	1.518332	0.354408	-0.694674
C52	C	1.518254	0.354510	-0.163292
C53	C	1.518436	0.354328	-0.081493
H54	H	1.118325	0.534257	-0.533683
C55	C	1.659417	0.453212	-0.935538
C56	C	1.733263	0.505003	-0.893251
C57	C	1.807132	0.556783	-0.935504
C58	C	1.807156	0.556771	-1.020044
C59	C	1.733308	0.504978	-1.062336
C60	C	1.659438	0.453199	-1.020083
H61	H	1.733247	0.505014	-0.830665
H62	H	1.861799	0.595123	-0.904196
H63	H	1.861839	0.595101	-1.051322
H64	H	1.733323	0.504968	-1.124922
H65	H	1.604771	0.414858	-1.051390
C66	C	1.659390	0.453240	-0.774137
C67	C	1.778833	0.447233	-0.784706
C68	C	1.852698	0.499017	-0.742419
C69	C	1.807118	0.556809	-0.689563
C70	C	1.687669	0.562818	-0.678991
C71	C	1.613805	0.511034	-0.721278
H72	H	1.812579	0.404450	-0.823836
H73	H	1.941122	0.494568	-0.750245
H74	H	1.861797	0.595142	-0.658259
H75	H	1.653923	0.605601	-0.639862
H76	H	1.525380	0.515483	-0.713452
H77	H	0.819709	0.448783	-0.448485
H78	H	1.118305	0.268994	-0.269279
H79	H	1.396549	0.268970	-0.924609
C80	C	1.659461	0.773424	-0.255760
C81	C	1.613970	0.720657	-0.197939
C82	C	1.687914	0.678386	-0.146208
C83	C	1.807349	0.688880	-0.152298
C84	C	1.852847	0.741649	-0.210121
C85	C	1.778903	0.783921	-0.261852
H86	H	1.525551	0.712886	-0.193429
H87	H	1.654233	0.639323	-0.103404
H88	H	1.862087	0.657588	-0.114003
H89	H	1.941265	0.749420	-0.214631
H90	H	1.812584	0.822984	-0.304656
H91	H	1.396517	0.268994	-0.785182
H92	H	1.217845	0.448758	-0.448450
C93	C	0.903564	0.255560	-0.255859
C94	C	0.828163	0.197835	-0.287857
C95	C	0.767811	0.146007	-0.236181
C96	C	0.782860	0.151905	-0.152508
C97	C	0.858265	0.209633	-0.120506
C98	C	0.918617	0.261461	-0.172181
H99	H	0.817020	0.193467	-0.349800
H100	H	0.711992	0.103273	-0.259871
H101	H	0.738184	0.113538	-0.114254
H102	H	0.869408	0.214001	-0.058562
H103	H	0.974436	0.304195	-0.148491
C104	C	1.659549	0.934821	-0.255791
C105	C	1.614110	0.987732	-0.197996
C106	C	1.688094	1.029997	-0.146276
C107	C	1.807518	1.019350	-0.152351
C108	C	1.852964	0.966437	-0.210148
C109	C	1.778979	0.924172	-0.261868
H110	H	1.525699	0.995616	-0.193498
H111	H	1.654452	1.069167	-0.103491
H112	H	1.862286	1.050637	-0.114065
H113	H	1.941374	0.958553	-0.214647
H114	H	1.812621	0.885002	-0.304654
C115	C	1.377164	0.934837	-0.453290
C116	C	1.294738	0.987744	-0.421359
C117	C	1.220801	1.030019	-0.473092
C118	C	1.229292	1.019387	-0.556758
C119	C	1.311723	0.966477	-0.588694
C120	C	1.385659	0.924202	-0.536960
H121	H	1.288449	0.995617	-0.359421
H122	H	1.159781	1.069187	-0.449451
H123	H	1.174560	1.050681	-0.595054
H124	H	1.318011	0.958604	-0.650632
H125	H	1.446679	0.885034	-0.560602
C126	C	1.377073	0.773431	-0.453262
C127	C	1.303136	0.815698	-0.504995
C128	C	1.229161	0.773425	-0.556715
C129	C	1.229122	0.688885	-0.556701
C130	C	1.303062	0.646613	-0.504966
C131	C	1.377037	0.688886	-0.453246
H132	H	1.303162	0.878284	-0.505006
H133	H	1.174426	0.804718	-0.595013
H134	H	1.174362	0.657593	-0.594988
H135	H	1.303036	0.584027	-0.504955
H136	H	1.431773	0.657593	-0.414948
H137	H	0.919260	0.534277	-0.533703
