data_functionalizedCrystal
_audit_creation_method	'MofGen! by Chris Wilmer'
_symmetry_space_group_name_H-M	'P1'
_symmetry_Int_Tables_number	1
_symmetry_cell_setting	triclinic
loop_
_symmetry_equiv_pos_as_xyz
  x,y,z
_cell_length_a	17.019282
_cell_length_b	19.188924
_cell_length_c	16.098538
_cell_angle_alpha	92.711427
_cell_angle_beta	91.140572
_cell_angle_gamma	83.265903
loop_
_atom_site_label
_atom_site_type_symbol
_atom_site_fract_x
_atom_site_fract_y
_atom_site_fract_z
O1	O	1.046075	0.089163	0.005789
O2	O	1.546075	0.589163	0.505789
O3	O	0.817211	0.099776	-0.010632
O4	O	1.317211	0.599776	0.489368
O5	O	0.938250	-0.007153	-0.001938
O6	O	1.438250	0.492847	0.498062
O7	O	0.925036	0.196093	-0.002905
O8	O	1.425036	0.696093	0.497095
O9	O	0.931179	-0.000932	0.136067
O10	O	1.431179	0.499068	0.636067
O11	O	0.810140	0.105998	0.127373
O12	O	1.310140	0.605998	0.627373
O13	O	1.039005	0.095385	0.143794
O14	O	1.539005	0.595385	0.643794
Zn15	Zn	0.923450	0.101679	0.157495
Zn16	Zn	1.423450	0.601679	0.657495
Zn17	Zn	0.932766	0.093482	-0.024333
Zn18	Zn	1.432766	0.593482	0.475667
O19	O	0.917966	0.202315	0.135100
O20	O	1.417966	0.702315	0.635100
C21	C	0.784395	0.102364	0.056269
C22	C	1.284395	0.602364	0.556269
C23	C	0.697150	0.100795	0.050010
C24	C	1.197150	0.600795	0.550010
C25	C	0.652312	0.103448	0.122297
C26	C	1.152312	0.603448	0.622297
C27	C	0.570337	0.101964	0.116418
C28	C	1.070337	0.601964	0.616418
C29	C	0.533200	0.097831	0.038250
C30	C	1.033200	0.597831	0.538250
C31	C	0.578044	0.095176	-0.034043
C32	C	1.078044	0.595176	0.465957
C33	C	0.660019	0.096655	-0.028163
C34	C	1.160019	0.596655	0.471837
C35	C	0.285885	0.093190	0.016732
C36	C	0.785885	0.593190	0.516732
C37	C	0.203904	0.091712	0.010858
C38	C	0.703904	0.591712	0.510858
C39	C	0.196202	0.098499	0.161319
C40	C	0.696202	0.598499	0.661319
C41	C	0.278178	0.099983	0.167192
C42	C	0.778178	0.599983	0.667192
C43	C	0.323015	0.097324	0.094899
C44	C	0.823015	0.597324	0.594899
C45	C	0.449409	0.096316	0.032239
C46	C	0.949409	0.596316	0.532239
C47	C	0.406806	0.098834	0.100912
C48	C	0.906806	0.598834	0.600912
C49	C	0.934288	-0.030056	0.067035
C50	C	1.434288	0.469944	0.567035
C51	C	0.933006	-0.107567	0.066945
C52	C	1.433006	0.392433	0.566945
C53	C	0.936261	-0.147360	-0.008324
C54	C	1.436261	0.352640	0.491676
C55	C	0.935046	-0.220189	-0.008418
C56	C	1.435046	0.279811	0.491582
C57	C	0.930591	-0.253223	0.066764
C58	C	1.430591	0.246777	0.566764
C59	C	0.927330	-0.213420	0.142043
C60	C	1.427330	0.286580	0.642043
C61	C	0.928537	-0.140592	0.142134
C62	C	1.428537	0.359408	0.642134
N63	N	0.970552	-0.370153	0.125825
N64	N	1.470552	0.129847	0.625825
N65	N	0.969407	-0.439337	0.125733
N66	N	1.469407	0.060663	0.625733
C67	C	0.926950	-0.472651	0.066494
C68	C	1.426950	0.027349	0.566494
N69	N	0.885693	-0.434168	0.007338
N70	N	1.385693	0.065832	0.507338
N71	N	0.886842	-0.364978	0.007427
N72	N	1.386842	0.135022	0.507427
C73	C	0.929280	-0.332193	0.066673
C74	C	1.429280	0.167807	0.566673
C75	C	0.928888	-0.591414	-0.008882
C76	C	1.428888	-0.091414	0.491118
C77	C	0.927667	-0.664243	-0.008973
C78	C	1.427667	-0.164243	0.491027
C79	C	0.919959	-0.657474	0.141491
C80	C	1.419959	-0.157474	0.641491
C81	C	0.921171	-0.584645	0.141579
C82	C	1.421171	-0.084645	0.641579
C83	C	0.925640	-0.551620	0.066390
C84	C	1.425640	-0.051620	0.566390
C85	C	1.071820	0.092798	0.076891
C86	C	1.571820	0.592798	0.576891
C87	C	1.159066	0.094366	0.083145
C88	C	1.659066	0.594366	0.583145
C89	C	0.921928	0.225217	0.066125
C90	C	1.421928	0.725217	0.566125
C91	C	0.923210	0.302728	0.066210
C92	C	1.423210	0.802728	0.566210
N93	N	0.917098	0.107273	0.281588
N94	N	1.417098	0.607273	0.781588
N95	N	0.939124	0.087882	-0.148425
N96	N	1.439124	0.587882	0.351575
C97	C	0.968491	0.061904	0.328865
C98	C	1.468491	0.561904	0.828865
C99	C	0.964054	0.065824	0.415735
C100	C	1.464054	0.565824	0.915735
C101	C	0.908229	0.115117	0.455327
C102	C	1.408229	0.615117	0.955327
C103	C	0.856831	0.160488	0.408044
C104	C	1.356831	0.660488	0.908044
C105	C	0.861264	0.156564	0.321175
C106	C	1.361264	0.656564	0.821175
C107	C	0.892159	0.129329	0.717423
C108	C	1.392159	0.629329	1.217423
C109	C	0.887731	0.133251	0.804298
C110	C	1.387731	0.633251	1.304298
C111	C	0.994954	0.038586	0.811983
C112	C	1.494954	0.538586	1.311983
C113	C	0.999386	0.034669	0.725112
C114	C	1.499386	0.534669	1.225112
C115	C	0.947985	0.080038	0.677836
C116	C	1.447985	0.580038	1.177836
C117	C	0.903695	0.119127	0.544122
C118	C	1.403695	0.619127	1.044122
C119	C	0.952516	0.076025	0.589042
C120	C	1.452516	0.576025	1.089042
H121	H	0.322382	0.091022	-0.042134
H122	H	0.822382	0.591022	0.457866
H123	H	0.925883	-0.108192	0.203429
H124	H	1.425883	0.391808	0.703429
H125	H	0.918527	-0.552245	0.202872
H126	H	1.418527	-0.052245	0.702872
F127	F	0.922583	-0.248578	0.222056
F128	F	1.422583	0.251422	0.722056
H129	H	0.932521	-0.564522	-0.070105
H130	H	1.432521	-0.064522	0.429895
F131	F	1.058802	-0.017792	0.682977
F132	F	1.558802	0.482208	1.182977
H133	H	0.437047	0.102195	0.164556
H134	H	0.937047	0.602195	0.664556
H135	H	0.819414	0.193508	0.282682
H136	H	1.319414	0.693508	0.782682
H137	H	0.533835	0.104113	0.175282
H138	H	1.033835	0.604113	0.675282
F139	F	1.049653	-0.009697	0.862302
F140	F	1.549653	0.490303	1.362302
F141	F	0.931127	-0.706594	-0.089090
F142	F	1.431127	-0.206594	0.410910
F143	F	0.148478	0.101327	0.238253
F144	F	0.648478	0.601327	0.738253
H145	H	0.937693	-0.252594	-0.069714
H146	H	1.437693	0.247406	0.430286
H147	H	0.850307	0.166272	0.678937
H148	H	1.350307	0.666272	1.178937
F149	F	0.409881	0.091893	-0.050951
F150	F	0.909881	0.591893	0.449049
H151	H	0.939897	-0.120475	-0.069549
H152	H	1.439897	0.379525	0.430451
F153	F	0.915213	-0.692626	0.221505
F154	F	1.415213	-0.192626	0.721505
H155	H	1.013953	0.021768	0.296635
H156	H	1.513953	0.521768	0.796635
F157	F	1.018751	0.017537	0.466051
F158	F	1.518751	0.517537	0.966051
H159	H	0.842269	0.173394	0.836529
H160	H	1.342269	0.673394	1.336529
H161	H	0.811372	0.200621	0.440284
H162	H	1.311372	0.700621	0.940284
H163	H	0.997966	0.035888	0.556804
H164	H	1.497966	0.535888	1.056804
H165	H	0.858242	0.159263	0.576365
H166	H	1.358242	0.659263	1.076365
H167	H	0.308409	0.103345	0.230845
H168	H	0.808409	0.603345	0.730845
F169	F	0.691827	0.107852	0.205495
F170	F	1.191827	0.607852	0.705495
H171	H	0.547802	0.091806	-0.097689
H172	H	1.047802	0.591806	0.402311
F173	F	0.164382	0.087316	-0.072343
F174	F	0.664382	0.587316	0.427657
F175	F	0.707738	0.093829	-0.105101
F176	F	1.207738	0.593829	0.394899
