data_functionalizedCrystal
_audit_creation_method	'MofGen! by Chris Wilmer'
_symmetry_space_group_name_H-M	'P1'
_symmetry_Int_Tables_number	1
_symmetry_cell_setting	triclinic
loop_
_symmetry_equiv_pos_as_xyz
  x,y,z
_cell_length_a	10.654550
_cell_length_b	10.489716
_cell_length_c	9.730223
_cell_angle_alpha	89.999635
_cell_angle_beta	89.999957
_cell_angle_gamma	84.507033
loop_
_atom_site_label
_atom_site_type_symbol
_atom_site_fract_x
_atom_site_fract_y
_atom_site_fract_z
O1	O	1.667907	0.179164	-0.114174
O2	O	1.302435	0.196233	-0.114198
O3	O	1.493504	0.002095	-0.114190
O4	O	1.476839	0.373302	-0.114181
O5	O	1.493491	0.002089	0.114390
O6	O	1.302423	0.196228	0.114382
O7	O	1.667895	0.179158	0.114406
Zn8	Zn	1.485157	0.187692	0.150686
Zn9	Zn	1.485173	0.187699	-0.150478
O10	O	1.476827	0.373297	0.114399
C11	C	1.255631	0.194977	0.000089
C12	C	1.116186	0.191228	0.000079
C13	C	1.492245	-0.045440	0.000096
C14	C	1.488499	-0.187069	0.000083
C15	C	1.036744	0.305533	0.000086
C16	C	0.905722	0.302002	0.000110
C17	C	0.933597	0.069850	0.000115
C18	C	1.064616	0.073382	0.000101
C19	C	1.605668	-0.284799	0.000103
C20	C	1.543760	-0.362127	-0.112599
C21	C	1.543720	-0.362097	0.112762
C22	C	1.426640	-0.262531	-0.112713
C23	C	1.426618	-0.262495	0.112750
C24	C	1.364623	-0.339774	0.000021
C25	C	1.714700	0.180414	0.000116
C26	C	1.854144	0.184164	0.000117
C27	C	1.478085	0.420831	0.000110
C28	C	1.481831	0.562461	0.000113
N29	N	1.485155	0.187687	0.356223
N30	N	1.485185	0.187695	-0.356014
C31	C	1.569789	0.101759	0.428152
C32	C	1.569802	0.101759	0.572035
C33	C	1.400542	0.273627	0.572046
C34	C	1.400524	0.273619	0.428166
H35	H	1.078728	0.401490	0.000079
H36	H	1.377210	-0.219201	-0.208099
F37	F	1.362037	-0.205559	0.237290
H38	H	1.262629	-0.364156	-0.000047
F39	F	1.608393	-0.418950	0.237301
F40	F	1.738879	-0.252606	-0.000033
F41	F	1.659858	0.010298	0.351590
H42	H	0.891592	-0.026096	0.000140
H43	H	1.638717	0.031788	0.630596
H44	H	1.331639	0.343593	0.630637
H45	H	1.331599	0.343593	0.369597
H46	H	1.129302	-0.019705	0.000099
F47	F	0.821179	0.423663	0.000119
H48	H	1.593226	-0.405644	-0.207876
