data_functionalizedCrystal
_audit_creation_method	'MofGen! by Chris Wilmer'
_symmetry_space_group_name_H-M	'P1'
_symmetry_Int_Tables_number	1
_symmetry_cell_setting	triclinic
loop_
_symmetry_equiv_pos_as_xyz
  x,y,z
_cell_length_a	9.130307
_cell_length_b	9.065218
_cell_length_c	9.065218
_cell_angle_alpha	85.015885
_cell_angle_beta	90.002889
_cell_angle_gamma	90.000821
loop_
_atom_site_label
_atom_site_type_symbol
_atom_site_fract_x
_atom_site_fract_y
_atom_site_fract_z
O1	O	-0.121797	-1.960393	-0.216358
O2	O	-0.121798	-1.531109	-0.234104
O3	O	-0.121794	-1.754624	-0.010588
O4	O	-0.121800	-1.736878	-0.439873
O5	O	0.121805	-1.754621	-0.010580
O6	O	0.121801	-1.531105	-0.234095
O7	O	0.121802	-1.960390	-0.216349
Cu8	Cu	0.144044	-1.745747	-0.225221
Cu9	Cu	-0.144040	-1.745751	-0.225232
O10	O	0.121799	-1.736874	-0.439865
C11	C	0.000001	-1.476120	-0.232394
C12	C	0.000000	-1.312277	-0.227294
N13	N	-0.346663	-1.745755	-0.225228
C14	C	0.000003	-1.752917	0.044403
C15	C	-0.000004	-1.747817	0.208245
C16	C	-0.346650	-1.944077	-0.027681
C17	C	-0.423310	-2.043232	0.071104
C18	C	-0.576643	-2.043231	0.071120
C19	C	-0.653320	-1.944067	-0.027661
C20	C	-0.576660	-1.844911	-0.126446
C21	C	-0.423323	-1.844920	-0.126448
C22	C	-0.576673	-1.646600	-0.323998
C23	C	-0.423340	-1.646591	-0.324009
C24	C	-0.653350	-1.547435	-0.422779
C25	C	-0.576690	-1.448270	-0.521559
C26	C	-0.423347	-1.448274	-0.521570
C27	C	-0.346679	-1.547435	-0.422794
N28	N	0.346667	-1.745755	-0.225213
C29	C	-0.000000	-2.015378	-0.218059
C30	C	-0.000009	-2.179221	-0.223158
C31	C	-0.000002	-1.738582	-0.494855
C32	C	-0.000004	-1.743681	-0.658698
H33	H	-0.221797	-1.944075	-0.027672
C34	C	-0.376140	-1.193887	-0.604216
C35	C	-0.339082	-1.339274	-0.630152
H36	H	-0.324113	-1.126596	-0.671245
H37	H	-0.478421	-1.179709	-0.618352
H38	H	-0.350993	-1.176750	-0.505463
H39	H	-0.364239	-1.356414	-0.728902
H40	H	-0.236778	-1.353457	-0.616028
C41	C	-0.749042	-2.072889	0.271494
C42	C	-0.660908	-2.152209	0.179725
H43	H	-0.801066	-2.140165	0.338541
H44	H	-0.689203	-2.010880	0.325521
H45	H	-0.816649	-2.013844	0.212653
H46	H	-0.593294	-2.211245	0.238565
H47	H	-0.720753	-2.214243	0.125694
H48	H	-0.778202	-1.547445	-0.422768
C49	C	-0.872962	-2.083423	-0.059608
C50	C	-0.821866	-1.944084	-0.027648
H51	H	-0.977016	-2.083434	-0.059592
H52	H	-0.838287	-2.104675	-0.154249
H53	H	-0.838251	-2.156656	0.013360
H54	H	-0.856568	-1.870851	-0.100624
H55	H	-0.856556	-1.922815	0.067006
C56	C	-0.811746	-1.360225	-0.609259
C57	C	-0.660973	-1.339278	-0.630128
H58	H	-0.863780	-1.292927	-0.676281
H59	H	-0.836862	-1.458854	-0.626844
H60	H	-0.836851	-1.343073	-0.510502
H61	H	-0.635867	-1.356440	-0.728882
H62	H	-0.635847	-1.240626	-0.612554
C63	C	-0.127013	-1.408108	-0.390845
C64	C	-0.178133	-1.547440	-0.422802
H65	H	-0.022959	-1.408123	-0.390841
H66	H	-0.161697	-1.334879	-0.463810
H67	H	-0.161698	-1.386844	-0.296197
H68	H	-0.143456	-1.568700	-0.517455
H69	H	-0.143435	-1.620692	-0.349833
H70	H	-0.360866	-2.123974	0.151528
