data_functionalizedCrystal
_audit_creation_method	'MofGen! by Chris Wilmer'
_symmetry_space_group_name_H-M	'P1'
_symmetry_Int_Tables_number	1
_symmetry_cell_setting	triclinic
loop_
_symmetry_equiv_pos_as_xyz
  x,y,z
_cell_length_a	19.188925
_cell_length_b	23.532357
_cell_length_c	18.266242
_cell_angle_alpha	89.988103
_cell_angle_beta	89.990012
_cell_angle_gamma	82.985420
loop_
_atom_site_label
_atom_site_type_symbol
_atom_site_fract_x
_atom_site_fract_y
_atom_site_fract_z
O1	O	0.925909	0.071089	-0.060906
O2	O	0.722565	0.080664	-0.060905
O3	O	0.830387	-0.007044	-0.060890
O4	O	0.818087	0.158797	-0.060920
O5	O	0.830369	-0.007049	0.060872
O6	O	0.722547	0.080659	0.060857
O7	O	0.925891	0.071084	0.060856
Zn8	Zn	0.824216	0.075871	0.080189
Zn9	Zn	0.824240	0.075877	-0.080237
O10	O	0.818069	0.158793	0.060842
C11	C	0.696546	0.080352	-0.000023
C12	C	0.619044	0.079423	-0.000022
C13	C	0.057119	0.124665	-0.000032
C14	C	0.129940	0.125543	-0.000036
C15	C	0.175050	0.074079	-0.000026
C16	C	0.147334	0.021732	-0.000030
C17	C	0.074515	0.020856	-0.000033
N18	N	0.295848	0.036819	0.041430
N19	N	0.365022	0.037655	0.041434
C20	C	0.394450	0.076717	-0.000018
N21	N	0.352088	0.114919	-0.041465
N22	N	0.282907	0.114084	-0.041466
C23	C	0.254011	0.075023	-0.000023
C24	C	0.501117	0.130012	-0.000023
C25	C	0.573939	0.130888	-0.000032
C26	C	0.591332	0.027075	-0.000018
C27	C	0.518512	0.026201	-0.000017
C28	C	0.473408	0.077671	-0.000016
C29	C	0.830070	-0.028264	-0.000007
C30	C	0.829145	-0.091484	0.000000
C31	C	0.823348	-0.483506	-0.066412
C32	C	0.822469	-0.542907	-0.066416
O33	O	0.821999	-0.573622	-0.122863
N34	N	0.822023	-0.572621	-0.000045
C35	C	0.822449	-0.542931	0.066336
O36	O	0.821988	-0.573660	0.122789
C37	C	0.823323	-0.483530	0.066339
C38	C	0.823776	-0.453819	-0.000037
C39	C	0.823800	-0.453795	-0.132782
C40	C	0.824681	-0.394398	-0.132778
C41	C	0.825109	-0.364711	-0.066403
C42	C	0.824657	-0.394422	-0.000033
C43	C	0.823745	-0.453840	0.132718
C44	C	0.824618	-0.394435	0.132716
C45	C	0.825071	-0.364724	0.066340
C46	C	0.825966	-0.305339	0.066347
N47	N	0.826412	-0.275624	-0.000025
C48	C	0.825983	-0.305311	-0.066400
C49	C	0.820612	-0.667676	0.066323
C50	C	0.819743	-0.727076	0.066321
C51	C	0.819761	-0.727048	-0.066431
C52	C	0.820635	-0.667648	-0.066428
C53	C	0.821058	-0.637962	-0.000048
C54	C	0.827833	-0.180573	-0.066385
C55	C	0.828717	-0.121171	-0.066375
C56	C	0.828695	-0.121204	0.066377
C57	C	0.827815	-0.180601	0.066367
C58	C	0.827382	-0.210284	-0.000020
O59	O	0.826434	-0.274586	0.122765
O60	O	0.826435	-0.274574	-0.122844
C61	C	0.951910	0.071396	-0.000026
C62	C	1.029412	0.072325	-0.000032
C63	C	0.818385	0.180012	-0.000043
C64	C	0.819310	0.243233	-0.000055
N65	N	0.824205	0.075867	0.189676
N66	N	0.824257	0.075877	-0.189724
C67	C	0.871964	0.037049	0.227991
C68	C	0.871968	0.037046	0.304636
C69	C	0.824220	0.075871	0.342963
C70	C	0.776452	0.114692	0.304638
C71	C	0.776444	0.114690	0.227995
N72	N	0.814973	0.126288	0.463286
N73	N	0.814984	0.126288	0.536094
C74	C	0.824240	0.075879	0.573885
N75	N	0.833497	0.025469	0.536118
N76	N	0.833489	0.025469	0.463303
C77	C	0.824223	0.075878	0.426070
C78	C	0.872006	0.037055	0.695308
C79	C	0.872006	0.037052	0.771954
C80	C	0.776493	0.114703	0.771955
C81	C	0.776490	0.114702	0.695310
C82	C	0.824250	0.075878	0.656991
H83	H	0.152504	0.168165	-0.000030
H84	H	0.910895	0.005438	0.803151
H85	H	0.819384	-0.751263	0.120371
N86	N	0.821101	-0.637311	-0.134235
N87	N	0.820724	-0.663831	-0.193490
H88	H	0.821052	-0.642409	-0.241383
H89	H	0.737613	0.146313	0.803160
N90	N	0.727678	0.154359	0.343773
N91	N	0.685038	0.189017	0.309550
H92	H	0.650586	0.217032	0.337187
H93	H	0.020400	0.166576	-0.000035
N94	N	0.727710	0.154367	0.656181
N95	N	0.728289	0.207008	0.664727
H96	H	0.693834	0.235024	0.637094
N97	N	0.193420	-0.030832	-0.000009
N98	N	0.235983	-0.041925	0.051322
H99	H	0.268533	-0.079050	0.051334
N100	N	0.046221	-0.032615	-0.000036
N101	N	0.086501	-0.078564	-0.000033
H102	H	0.066518	-0.116329	-0.000035
H103	H	0.464392	0.171921	-0.000024
H104	H	0.827453	-0.204793	0.120415
N105	N	0.825131	-0.364043	-0.200574
N106	N	0.825911	-0.311008	-0.200574
H107	H	0.826226	-0.289572	-0.248458
N108	N	0.821046	-0.637364	0.134140
N109	N	0.820647	-0.663908	0.193391
H110	H	0.820952	-0.642503	0.241287
H111	H	0.495952	-0.016419	-0.000012
N112	N	0.637392	-0.025500	-0.000015
N113	N	0.635089	-0.060347	-0.051338
H114	H	0.667622	-0.097481	-0.051339
N115	N	0.602232	0.184359	-0.000042
N116	N	0.561950	0.230306	-0.000045
H117	H	0.581932	0.268072	-0.000053
N118	N	0.829185	-0.090832	-0.134186
N119	N	0.828802	-0.117349	-0.193443
H120	H	0.829133	-0.095925	-0.241334
H121	H	0.827477	-0.204733	-0.120444
H122	H	0.823449	-0.477959	-0.186836
H123	H	0.819410	-0.751229	-0.120477
H124	H	0.823377	-0.478020	0.186769
H125	H	0.829047	-0.097023	0.120417
N126	N	0.825043	-0.364121	0.200530
N127	N	0.824635	-0.390660	0.259783
H128	H	0.824935	-0.369252	0.307677
N129	N	0.920811	-0.002563	0.188862
N130	N	0.963489	-0.037189	0.223088
H131	H	0.998010	-0.065148	0.195453
H132	H	0.910861	0.005434	0.335838
N133	N	0.727651	0.154346	0.188864
N134	N	0.685016	0.189007	0.223089
H135	H	0.650555	0.217015	0.195452
N136	N	0.920707	-0.002675	0.656172
N137	N	0.963285	-0.037383	0.690396
H138	H	0.997649	-0.065470	0.662759
