data_functionalizedCrystal
_audit_creation_method	'MofGen! by Chris Wilmer'
_symmetry_space_group_name_H-M	'P1'
_symmetry_Int_Tables_number	1
_symmetry_cell_setting	triclinic
loop_
_symmetry_equiv_pos_as_xyz
  x,y,z
_cell_length_a	15.944499
_cell_length_b	15.021413
_cell_length_c	8.597304
_cell_angle_alpha	97.695791
_cell_angle_beta	84.410332
_cell_angle_gamma	90.009905
loop_
_atom_site_label
_atom_site_type_symbol
_atom_site_fract_x
_atom_site_fract_y
_atom_site_fract_z
O1	O	1.116210	0.089576	0.202003
O2	O	0.871860	0.091486	0.227043
O3	O	0.998842	0.073006	-0.013941
O4	O	0.989228	0.108056	0.442986
O5	O	0.998822	-0.075056	-0.013906
O6	O	0.871840	-0.056575	0.227077
O7	O	1.116190	-0.058486	0.202037
Zn8	Zn	0.994012	-0.081038	0.214563
Zn9	Zn	0.994038	0.114039	0.214517
O10	O	0.989208	-0.040005	0.443021
C11	C	0.840547	0.017376	0.226035
C12	C	0.747273	0.017136	0.222961
C13	C	0.456884	0.027889	0.362966
C14	C	0.517327	0.095310	0.290171
C15	C	0.411545	0.016300	0.211795
C16	C	0.517292	-0.050670	0.290164
C17	C	0.576499	0.016710	0.217290
C18	C	0.470760	0.083778	0.138958
C19	C	0.470719	-0.062266	0.138973
C20	C	0.531144	0.005164	0.066067
C21	C	0.316519	0.016065	0.208634
C22	C	0.671524	0.016950	0.220439
N23	N	0.993999	-0.214174	0.214593
C24	C	0.935273	-0.445316	0.325971
C25	C	1.011425	-0.502312	0.356413
C26	C	0.994021	-0.395784	0.214553
C27	C	0.917890	-0.515527	0.184146
C28	C	0.994034	-0.571210	0.214519
C29	C	1.070211	-0.451468	0.245066
C30	C	0.976626	-0.464682	0.072738
C31	C	1.052832	-0.521656	0.103119
C32	C	0.994012	-0.294725	0.214577
C33	C	0.994052	-0.672267	0.214494
C34	C	1.147503	0.015627	0.203045
C35	C	1.240777	0.015873	0.206119
C36	C	0.997799	-0.005508	-0.072394
C37	C	0.994710	-0.018868	-0.246616
N38	N	0.994057	0.247173	0.214475
C39	C	0.990251	0.038511	0.501474
C40	C	0.993340	0.051876	0.675696
H41	H	0.537883	-0.107480	0.354144
H42	H	0.563293	-0.004430	-0.059502
H43	H	0.537957	0.161930	0.354102
F44	F	1.117846	-0.564899	-0.020061
H45	H	1.026150	-0.519199	0.476328
F46	F	0.994897	0.144409	-0.237029
H47	H	0.961877	-0.447771	-0.047139
H48	H	0.993509	-0.089664	-0.313396
H49	H	0.853502	-0.543586	0.158444
H50	H	0.424581	0.037583	0.488423
H51	H	0.450266	0.140666	0.075064
H52	H	0.450071	-0.128888	0.075100
H53	H	1.134614	-0.423509	0.270913
H54	H	0.885644	-0.412069	0.420270
