data_functionalizedCrystal
_audit_creation_method	'MofGen! by Chris Wilmer'
_symmetry_space_group_name_H-M	'P1'
_symmetry_Int_Tables_number	1
_symmetry_cell_setting	triclinic
loop_
_symmetry_equiv_pos_as_xyz
  x,y,z
_cell_length_a	23.532407
_cell_length_b	10.967926
_cell_length_c	10.065875
_cell_angle_alpha	93.120479
_cell_angle_beta	81.258851
_cell_angle_gamma	96.200802
loop_
_atom_site_label
_atom_site_type_symbol
_atom_site_fract_x
_atom_site_fract_y
_atom_site_fract_z
O1	O	-0.099288	1.611699	0.265600
O2	O	-0.100914	1.261636	0.183265
O3	O	-0.017420	1.447226	0.226898
O4	O	-0.182781	1.426109	0.221966
O5	O	-0.033408	1.411836	0.445567
O6	O	-0.116901	1.226245	0.401933
O7	O	-0.115276	1.576309	0.484268
Zn8	Zn	-0.118627	1.395658	0.477819
Zn9	Zn	-0.097562	1.442287	0.189714
O10	O	-0.198769	1.390718	0.440634
C11	C	-0.107581	1.199163	0.282067
C12	C	-0.103622	1.065740	0.250684
C13	C	-0.110139	0.987923	0.349970
C14	C	-0.106048	0.850023	0.317537
C15	C	-0.212004	1.408950	0.331431
C16	C	-0.275261	1.410565	0.331823
C17	C	-0.671973	1.310887	0.308309
C18	C	-0.731409	1.312390	0.308653
O19	O	-0.765938	1.219985	0.286869
N20	N	-0.756675	1.422722	0.334605
C21	C	-0.722502	1.531560	0.360201
O22	O	-0.749451	1.625544	0.382305
C23	C	-0.663067	1.530057	0.359847
C24	C	-0.637805	1.419716	0.333907
C25	C	-0.646710	1.200555	0.282370
C26	C	-0.587279	1.199052	0.282028
C27	C	-0.553111	1.307881	0.307626
C28	C	-0.578374	1.418213	0.333566
C29	C	-0.628894	1.638895	0.385434
C30	C	-0.569456	1.637383	0.385077
C31	C	-0.544193	1.527042	0.359137
C32	C	-0.484774	1.525539	0.358823
N33	N	-0.459507	1.415207	0.332871
C34	C	-0.493676	1.306378	0.307273
C35	C	-0.847320	1.534708	0.360940
C36	C	-0.906755	1.536210	0.361303
C37	C	-0.915657	1.317040	0.309752
C38	C	-0.856222	1.315538	0.309399
C39	C	-0.822053	1.424376	0.334988
C40	C	-0.368866	1.303230	0.306559
C41	C	-0.309429	1.301736	0.306225
C42	C	-0.300532	1.520906	0.357769
C43	C	-0.359963	1.522400	0.358109
C44	C	-0.394129	1.413553	0.332498
O45	O	-0.450208	1.617896	0.380590
O46	O	-0.466718	1.212413	0.285155
C47	C	-0.004185	1.428995	0.336099
C48	C	0.059072	1.427382	0.335698
C49	C	-0.108608	1.638782	0.385463
C50	C	-0.112566	1.772206	0.416837
N51	N	-0.133003	1.363844	0.674445
N52	N	-0.083182	1.474110	-0.006910
C53	C	-0.102560	1.431210	0.758062
C54	C	-0.113629	1.406734	0.909474
H55	H	-0.118745	1.023392	0.458982
H56	H	-0.121173	0.807668	0.525857
H57	H	-0.927319	1.626057	0.382447
H58	H	-0.095012	1.030272	0.141672
H59	H	-0.288864	1.211878	0.285107
N60	N	-0.095241	0.805529	0.180778
N61	N	-0.091929	0.693572	0.154626
H62	H	-0.084296	0.662145	0.058041
H63	H	-0.541638	1.726016	0.405908
H64	H	-0.396677	1.214596	0.285703
N65	N	-0.812429	1.645901	0.387090
N66	N	-0.835001	1.744396	0.410257
H67	H	-0.810362	1.822928	0.428724
H68	H	-0.566715	1.109203	0.260894
N69	N	-0.059519	1.526174	0.707252
N70	N	-0.030849	1.589435	0.785768
H71	H	-0.000424	1.656456	0.749877
N72	N	-0.681598	1.089369	0.256208
N73	N	-0.659022	0.990877	0.233048
H74	H	-0.683658	0.912342	0.214577
N75	N	-0.830429	1.202816	0.282908
N76	N	-0.860951	1.105660	0.260068
H77	H	-0.842739	1.026044	0.241358
H78	H	-0.943488	1.228426	0.288910
N79	N	-0.654680	1.751618	0.411935
N80	N	-0.624154	1.848769	0.434774
H81	H	-0.642363	1.928388	0.453489
N82	N	-0.385768	1.635113	0.384589
N83	N	-0.411185	1.675325	0.298343
H84	H	-0.429405	1.754934	0.317031
N85	N	-0.265616	1.632055	0.383921
N86	N	-0.212551	1.630684	0.383603
H87	H	-0.187888	1.709184	0.402065
H88	H	-0.147887	1.330931	0.949973
H89	H	-0.048920	1.549905	0.952589
H90	H	-0.167258	1.288045	0.714950
