data_functionalizedCrystal
_audit_creation_method	'MofGen! by Chris Wilmer'
_symmetry_space_group_name_H-M	'P1'
_symmetry_Int_Tables_number	1
_symmetry_cell_setting	triclinic
loop_
_symmetry_equiv_pos_as_xyz
  x,y,z
_cell_length_a	17.000381
_cell_length_b	17.019294
_cell_length_c	10.868271
_cell_angle_alpha	86.115896
_cell_angle_beta	90.008925
_cell_angle_gamma	100.493776
loop_
_atom_site_label
_atom_site_type_symbol
_atom_site_fract_x
_atom_site_fract_y
_atom_site_fract_z
O1	O	-1.056067	0.028440	-0.105459
O2	O	-0.824303	0.057069	-0.108467
O3	O	-0.946650	-0.072527	-0.094743
O4	O	-0.933720	0.158036	-0.119183
O5	O	-0.946640	-0.072531	0.109902
O6	O	-0.824293	0.057065	0.096178
O7	O	-1.056057	0.028436	0.099186
Zn8	Zn	-0.940173	0.042750	0.130174
Zn9	Zn	-0.940187	0.042755	-0.139455
O10	O	-0.933710	0.158032	0.085462
C11	C	-0.794642	0.058605	-0.006304
C12	C	-0.706279	0.063177	-0.006779
C13	C	-0.946155	-0.101884	0.010689
C14	C	-0.944684	-0.189353	0.019953
C15	C	-0.206028	0.092699	-0.009936
C16	C	-0.289056	0.088397	-0.009482
C17	C	-0.340136	0.013721	-0.001558
C18	C	-0.308184	-0.056658	0.005899
C19	C	-0.225157	-0.052355	0.005436
C20	C	-0.591300	-0.002899	0.000216
C21	C	-0.674332	-0.007197	0.000682
C22	C	-0.655198	0.137859	-0.014701
C23	C	-0.572171	0.142155	-0.015156
C24	C	-0.540227	0.071777	-0.007705
C25	C	-0.425004	0.009322	-0.001090
C26	C	-0.455360	0.076177	-0.008182
C27	C	-0.944000	-0.230439	-0.087245
C28	C	-0.942613	-0.312624	-0.078537
C29	C	-0.941915	-0.353722	0.037372
C30	C	-0.942597	-0.312629	0.144579
C31	C	-0.943978	-0.230445	0.135869
C32	C	-0.937739	-0.601866	0.069252
C33	C	-0.936360	-0.684056	0.077954
C34	C	-0.936374	-0.684045	-0.145163
C35	C	-0.937761	-0.601860	-0.153862
C36	C	-0.938438	-0.560773	-0.046656
C37	C	-0.940500	-0.437729	0.046277
C38	C	-0.939848	-0.476767	-0.055562
C39	C	-0.085718	0.026900	-0.002970
C40	C	-0.174081	0.022326	-0.002475
C41	C	-0.934205	0.187389	-0.019972
C42	C	-0.935676	0.274857	-0.029245
N43	N	-0.940170	0.042745	0.314189
N44	N	-0.940196	0.042753	-0.323469
C45	C	-0.940182	0.042754	0.565194
C46	C	-0.940173	0.042751	0.425516
H47	H	-0.315063	0.145703	-0.015568
N48	N	-0.153844	0.168974	-0.018039
N49	N	-0.079715	0.172809	-0.018453
H50	H	-0.042860	0.226680	-0.024180
H51	H	-0.530587	0.202964	-0.021612
N52	N	-0.192522	-0.124240	0.013088
N53	N	-0.148316	-0.138019	0.100811
H54	H	-0.125268	-0.188790	0.106213
N55	N	-0.726507	-0.083483	0.008743
N56	N	-0.774982	-0.102062	-0.075548
H57	H	-0.811830	-0.155937	-0.069855
H58	H	-0.681217	0.195157	-0.020769
H59	H	-0.466602	-0.051480	0.005365
N60	N	-0.403176	0.152448	-0.016259
N61	N	-0.354701	0.171019	0.068034
H62	H	-0.317838	0.224886	0.062337
H63	H	-0.939934	-0.471201	0.140650
N64	N	-0.944723	-0.188476	-0.205655
N65	N	-0.944113	-0.225174	-0.301358
H66	H	-0.944623	-0.195541	-0.384989
N67	N	-0.558694	-0.074797	0.007853
N68	N	-0.574368	-0.123833	0.099322
H69	H	-0.551341	-0.174616	0.104720
N70	N	-0.360369	-0.132932	0.013977
N71	N	-0.434498	-0.136765	0.014389
H72	H	-0.471354	-0.190635	0.020095
N73	N	-0.941909	-0.354579	-0.188050
N74	N	-0.942535	-0.317876	-0.291532
H75	H	-0.942036	-0.347505	-0.368883
N76	N	-0.938475	-0.559894	-0.272271
N77	N	-0.937863	-0.596588	-0.367978
H78	H	-0.938369	-0.566951	-0.451607
N79	N	-0.935649	-0.726048	0.196352
N80	N	-0.990960	-0.783067	0.227284
H81	H	-0.990460	-0.812724	0.310899
N82	N	-0.935684	-0.726026	-0.254652
N83	N	-0.934453	-0.799405	-0.246866
H84	H	-0.933964	-0.829055	-0.324198
H85	H	-0.938306	-0.568426	0.156548
H86	H	-0.942024	-0.346097	0.238954
H87	H	-0.944524	-0.196991	0.223161
H88	H	-0.940410	-0.443300	-0.149934
