data_functionalizedCrystal
_audit_creation_method	'MofGen! by Chris Wilmer'
_symmetry_space_group_name_H-M	'P1'
_symmetry_Int_Tables_number	1
_symmetry_cell_setting	triclinic
loop_
_symmetry_equiv_pos_as_xyz
  x,y,z
_cell_length_a	11.792254
_cell_length_b	11.792254
_cell_length_c	12.503572
_cell_angle_alpha	93.547393
_cell_angle_beta	86.456155
_cell_angle_gamma	84.198598
loop_
_atom_site_label
_atom_site_type_symbol
_atom_site_fract_x
_atom_site_fract_y
_atom_site_fract_z
O1	O	-1.513414	-0.149108	0.089352
O2	O	-1.183075	-0.165126	0.089347
O3	O	-1.356253	0.008052	0.089342
O4	O	-1.340236	-0.322285	0.089357
O5	O	-1.343229	-0.004994	-0.089300
O6	O	-1.170051	-0.178171	-0.089294
O7	O	-1.500390	-0.162153	-0.089290
Cu8	Cu	-1.334031	-0.171354	-0.105604
Cu9	Cu	-1.349434	-0.155925	0.105661
O10	O	-1.327212	-0.335331	-0.089285
C11	C	-1.134272	-0.170640	0.000026
C12	C	-1.008259	-0.167620	0.000024
C13	C	-0.905923	-0.165166	0.000026
C14	C	-0.777536	-0.162097	0.000024
N15	N	-1.323207	-0.182204	-0.254196
C16	C	-1.348732	0.043820	0.000021
C17	C	-1.345712	0.169833	0.000022
C18	C	-0.549193	-0.156640	0.000029
C19	C	-0.675205	-0.159660	0.000022
C20	C	-1.334733	-0.371099	0.000038
C21	C	-1.337754	-0.497111	0.000044
C22	C	-1.343258	0.272170	0.000026
C23	C	-1.340191	0.400558	0.000036
C24	C	-1.307283	-0.198175	-0.473310
C25	C	-1.376187	-0.129098	-0.526640
C26	C	-1.367327	-0.137985	-0.648562
C27	C	-1.316142	-0.189290	-0.351376
N28	N	-1.360267	-0.145066	0.254253
H29	H	-1.441833	-0.063287	-0.480729
Cl30	Cl	-1.205940	-0.299784	-0.544187
