data_functionalizedCrystal
_audit_creation_method	'MofGen! by Chris Wilmer'
_symmetry_space_group_name_H-M	'P1'
_symmetry_Int_Tables_number	1
_symmetry_cell_setting	triclinic
loop_
_symmetry_equiv_pos_as_xyz
  x,y,z
_cell_length_a	6.817900
_cell_length_b	11.102183
_cell_length_c	15.185463
_cell_angle_alpha	93.562129
_cell_angle_beta	104.264314
_cell_angle_gamma	108.603876
loop_
_atom_site_label
_atom_site_type_symbol
_atom_site_fract_x
_atom_site_fract_y
_atom_site_fract_z
V1	V	-4.061605	-0.176679	-0.283391
O2	O	-4.021599	0.007626	-0.277998
O3	O	-4.038713	-0.349493	-0.281452
O4	O	-4.016616	-0.174340	-0.406989
O5	O	-4.043848	-0.168739	-0.151592
V6	V	-4.541485	-0.154589	-0.267627
O7	O	-4.330853	-0.225134	-0.317971
O8	O	-4.722434	-0.106133	-0.233048
O9	O	-4.341171	0.018225	-0.269567
O10	O	-4.698888	-0.338893	-0.273020
O11	O	-4.676639	-0.162528	-0.399427
O12	O	-4.363267	-0.156927	-0.144030
C13	C	-3.889809	-0.391609	-0.276981
C14	C	-3.952401	-0.532889	-0.276218
C15	C	-3.861368	-0.496118	-0.109741
C16	C	-3.845253	-0.544106	-0.026147
C17	C	-3.904072	-0.676852	-0.025436
C18	C	-3.979017	-0.761615	-0.108327
C19	C	-3.995131	-0.713628	-0.191921
C20	C	-3.936300	-0.580877	-0.192623
C21	C	-4.086178	-0.750399	-0.358397
C22	C	-4.027346	-0.617653	-0.359110
C23	C	-4.161123	-0.835162	-0.441289
C24	C	-4.177224	-0.787175	-0.524884
C25	C	-4.118398	-0.654420	-0.525592
C26	C	-4.043460	-0.569665	-0.442704
C27	C	-3.861621	-0.168183	-0.437115
C28	C	-3.906290	-0.167415	-0.538156
C29	C	-3.911981	-0.157851	-0.960760
C30	C	-4.278386	-0.170564	-0.970011
C31	C	-4.236414	-0.171275	-0.875076
C32	C	-4.032222	-0.165275	-0.822978
C33	C	-3.870002	-0.158565	-0.865816
C34	C	-4.398634	-0.177998	-0.832232
C35	C	-4.356667	-0.178710	-0.737292
C36	C	-4.152468	-0.172701	-0.685191
C37	C	-3.990242	-0.165990	-0.728035
C38	C	-3.786050	-0.159990	-0.675937
C39	C	-3.623817	-0.153269	-0.718778
C40	C	-3.665802	-0.152557	-0.813716
C41	C	-4.110482	-0.173414	-0.590253
C42	C	-3.744070	-0.160705	-0.580994
C43	C	-4.153418	0.060335	-0.274036
C44	C	-4.070064	0.201614	-0.274804
C45	C	-4.181605	-0.163088	-0.113899
C46	C	-4.116173	-0.163850	-0.012857
H47	H	-3.995526	-0.461573	-0.443271
Br48	Br	-3.346713	-0.145146	-0.648065
Br49	Br	-3.882224	-0.741984	0.088012
H50	H	-4.444637	-0.175457	-1.012435
H51	H	-4.209026	-0.943250	-0.440704
Br52	Br	-3.466934	-0.152547	-0.510295
H53	H	-3.533727	-0.147088	-0.848606
Br54	Br	-4.278956	-0.902213	-0.637368
H55	H	-4.488771	-0.184181	-0.702419
Br56	Br	-3.691815	-0.148726	-1.018895
Br57	Br	-4.058893	-0.941773	-0.107362
Br58	Br	-4.140302	-0.589308	-0.639048
Br59	Br	-4.675748	-0.186162	-0.902941
H60	H	-3.784234	-0.475077	0.041341
Br61	Br	-3.781493	-0.315959	-0.110699
H62	H	-4.242576	-0.178896	-0.555378
