data_functionalizedCrystal
_audit_creation_method	'MofGen! by Chris Wilmer'
_symmetry_space_group_name_H-M	'P1'
_symmetry_Int_Tables_number	1
_symmetry_cell_setting	triclinic
loop_
_symmetry_equiv_pos_as_xyz
  x,y,z
_cell_length_a	18.215407
_cell_length_b	12.759394
_cell_length_c	18.215407
_cell_angle_alpha	90.010676
_cell_angle_beta	90.006572
_cell_angle_gamma	90.012280
loop_
_atom_site_label
_atom_site_type_symbol
_atom_site_fract_x
_atom_site_fract_y
_atom_site_fract_z
Zn1	Zn	1.125045	-0.418500	0.416081
Zn2	Zn	1.625045	0.081500	0.916081
Zn3	Zn	1.124998	-0.594153	0.293020
Zn4	Zn	1.624998	-0.094153	0.793020
Zn5	Zn	1.002001	-0.418481	0.293034
Zn6	Zn	1.502001	0.081519	0.793034
Zn7	Zn	1.001965	-0.594130	0.416051
Zn8	Zn	1.501965	-0.094130	0.916051
O9	O	1.063502	-0.506316	0.354546
O10	O	1.563502	-0.006316	0.854546
O11	O	1.228023	-0.441819	0.399764
O12	O	1.728023	0.058181	0.899764
O13	O	1.108678	-0.570851	0.190038
O14	O	1.608678	-0.070851	0.690038
O15	O	1.018357	-0.271462	0.309374
O16	O	1.518357	0.228538	0.809374
O17	O	1.227989	-0.570870	0.309352
O18	O	1.727989	-0.070870	0.809352
O19	O	1.108757	-0.271477	0.399777
O20	O	1.608757	0.228523	0.899777
O21	O	1.018312	-0.441785	0.190048
O22	O	1.518312	0.058215	0.690048
O23	O	0.899012	-0.441763	0.309345
O24	O	1.399012	0.058237	0.809345
O25	O	1.018296	-0.570831	0.519039
O26	O	1.518296	-0.070831	1.019039
O27	O	0.898985	-0.570812	0.399725
O28	O	1.398985	-0.070812	0.899725
O29	O	1.108723	-0.441797	0.519061
O30	O	1.608723	0.058203	1.019061
O31	O	1.108643	-0.741171	0.309322
O32	O	1.608643	-0.241171	0.809322
O33	O	1.018251	-0.741154	0.399712
O34	O	1.518251	-0.241154	0.899712
C35	C	0.872296	-0.506284	0.354533
C36	C	1.372296	-0.006284	0.854533
C37	C	0.790497	-0.506295	0.354545
C38	C	1.290497	-0.006295	0.854545
C39	C	0.602320	-0.439237	0.401697
C40	C	1.102320	0.060763	0.901697
C41	C	0.525461	-0.439246	0.401700
C42	C	1.025461	0.060754	0.901700
C43	C	0.525436	-0.573425	0.307408
C44	C	1.025436	-0.073425	0.807408
C45	C	0.602294	-0.573410	0.307403
C46	C	1.102294	-0.073410	0.807403
C47	C	0.640733	-0.506317	0.354551
C48	C	1.140733	-0.006317	0.854551
C49	C	0.487017	-0.506341	0.354559
C50	C	0.987017	-0.006341	0.854559
C51	C	0.403684	-0.506352	0.354562
C52	C	0.903684	-0.006352	0.854562
C53	C	0.724072	-0.506305	0.354548
C54	C	1.224072	-0.006305	0.854548
C55	C	1.063458	-0.779284	0.354529
C56	C	1.563458	-0.279284	0.854529
C57	C	1.063506	-0.896060	0.354546
C58	C	1.563506	-0.396060	0.854546
C59	C	1.157702	-0.896024	0.260493
C60	C	1.657702	-0.396024	0.760493
C61	C	1.204819	-0.950867	0.213476
C62	C	1.704819	-0.450867	0.713476
C63	C	1.204862	-1.060589	0.213496
C64	C	1.704862	-0.560589	0.713496
C65	C	1.157785	-1.115470	0.260540
C66	C	1.657785	-0.615470	0.760540
C67	C	1.110668	-1.060627	0.307557
C68	C	1.610668	-0.560627	0.807557
C69	C	1.110628	-0.950903	0.307531
C70	C	1.610628	-0.450903	0.807531
C71	C	1.016477	-1.060663	0.401612
C72	C	1.516477	-0.560663	0.901612
C73	C	1.016429	-0.950941	0.401590
C74	C	1.516429	-0.450941	0.901590
C75	C	0.969400	-1.115544	0.448656
C76	C	1.469400	-0.615544	0.948656
C77	C	0.922278	-1.060701	0.495671
C78	C	1.422278	-0.560701	0.995671
C79	C	0.922236	-0.950973	0.495649
C80	C	1.422236	-0.450973	0.995649
C81	C	0.969312	-0.896099	0.448607
C82	C	1.469312	-0.396099	0.948607
C83	C	1.255455	-0.506349	0.354560
C84	C	1.755455	-0.006349	0.854560
C85	C	1.337254	-0.506363	0.354565
C86	C	1.837254	-0.006363	0.854565
C87	C	1.063511	-0.506313	0.546499
C88	C	1.563511	-0.006313	1.046499
C89	C	1.063514	-0.506312	0.628298
C90	C	1.563514	-0.006312	1.128298
C91	C	1.063567	-0.232283	0.354580
C92	C	1.563567	0.267717	0.854580
C93	C	1.063594	-0.115506	0.354595
C94	C	1.563594	0.384494	0.854595
C95	C	1.110579	-0.439133	0.893369
C96	C	1.610579	0.060867	1.393369
C97	C	1.110584	-0.439132	0.816510
C98	C	1.610584	0.060868	1.316510
C99	C	1.016428	-0.573509	0.816476
C100	C	1.516428	-0.073509	1.316476
C101	C	1.016427	-0.573514	0.893334
C102	C	1.516427	-0.073514	1.393334
C103	C	1.063502	-0.506320	0.931778
C104	C	1.563502	-0.006320	1.431778
C105	C	1.063508	-0.506315	0.778062
C106	C	1.563508	-0.006315	1.278062
C107	C	1.063513	-0.506315	0.694728
C108	C	1.563513	-0.006315	1.194728
C109	C	1.063498	-0.506321	1.015117
C110	C	1.563498	-0.006321	1.515117
C111	C	1.063491	-0.506337	1.163340
C112	C	1.563491	-0.006337	1.663340
C113	C	1.063495	-0.506322	1.081541
C114	C	1.563495	-0.006322	1.581541
H115	H	0.494188	-0.384620	0.440090
H116	H	0.994188	0.115380	0.940090
Br117	Br	1.157500	-1.264378	0.260221
Br118	Br	1.657500	-0.764378	0.760221
H119	H	0.978091	-0.628232	0.924607
H120	H	1.478091	-0.128232	1.424607
Br121	Br	1.157875	-0.747116	0.260691
Br122	Br	1.657875	-0.247116	0.760691
Br123	Br	0.952541	-0.664691	0.764298
Br124	Br	1.452541	-0.164691	1.264298
H125	H	1.243233	-1.105242	0.175214
H126	H	1.743233	-0.605242	0.675214
Br127	Br	1.268712	-0.876383	0.149639
Br128	Br	1.768712	-0.376383	0.649639
Br129	Br	0.654486	-0.348180	0.465682
Br130	Br	1.154486	0.151820	0.965682
H131	H	0.883955	-1.105394	0.533974
H132	H	1.383955	-0.605394	1.033974
H133	H	0.494129	-0.628050	0.269022
H134	H	0.994129	-0.128050	0.769022
Br135	Br	0.654431	-0.664440	0.243404
Br136	Br	1.154431	-0.164440	0.743404
Br137	Br	1.174462	-0.347937	0.945541
Br138	Br	1.674462	0.152063	1.445541
H139	H	0.969441	-1.204885	0.448672
H140	H	1.469441	-0.704885	0.948672
H141	H	0.883870	-0.906326	0.533939
H142	H	1.383870	-0.406326	1.033939
H143	H	0.969278	-0.806757	0.448579
H144	H	1.469278	-0.306757	0.948579
H145	H	1.148920	-0.384423	0.785240
H146	H	1.648920	0.115577	1.285240
