data_functionalizedCrystal
_audit_creation_method	'MofGen! by Chris Wilmer'
_symmetry_space_group_name_H-M	'P1'
_symmetry_Int_Tables_number	1
_symmetry_cell_setting	triclinic
loop_
_symmetry_equiv_pos_as_xyz
  x,y,z
_cell_length_a	18.215407
_cell_length_b	18.050590
_cell_length_c	18.215399
_cell_angle_alpha	90.028735
_cell_angle_beta	90.019833
_cell_angle_gamma	90.019000
loop_
_atom_site_label
_atom_site_type_symbol
_atom_site_fract_x
_atom_site_fract_y
_atom_site_fract_z
Zn1	Zn	1.125104	-0.295658	0.416112
Zn2	Zn	1.458438	0.037675	0.749445
Zn3	Zn	1.791771	0.371009	1.082779
Zn4	Zn	1.125026	-0.419853	0.293044
Zn5	Zn	1.458360	-0.086520	0.626377
Zn6	Zn	1.791693	0.246814	0.959711
Zn7	Zn	1.002037	-0.295682	0.293059
Zn8	Zn	1.335370	0.037651	0.626393
Zn9	Zn	1.668704	0.370984	0.959726
Zn10	Zn	1.002016	-0.419812	0.416069
Zn11	Zn	1.335350	-0.086478	0.749402
Zn12	Zn	1.668683	0.246855	1.082735
O13	O	1.063546	-0.357751	0.354571
O14	O	1.396879	-0.024418	0.687904
O15	O	1.730213	0.308915	1.021238
O16	O	1.228078	-0.312140	0.399798
O17	O	1.561412	0.021193	0.733132
O18	O	1.894745	0.354527	1.066465
O19	O	1.108687	-0.403409	0.190062
O20	O	1.442021	-0.070076	0.523395
O21	O	1.775354	0.263258	0.856728
O22	O	1.018403	-0.191755	0.309407
O23	O	1.351737	0.141579	0.642740
O24	O	1.685070	0.474912	0.976074
O25	O	1.228021	-0.403386	0.309381
O26	O	1.561354	-0.070052	0.642714
O27	O	1.894688	0.263281	0.976047
O28	O	1.108820	-0.191737	0.399813
O29	O	1.442154	0.141597	0.733146
O30	O	1.775487	0.474930	1.066480
O31	O	1.018328	-0.312181	0.190073
O32	O	1.351661	0.021152	0.523406
O33	O	1.684994	0.354485	0.856740
O34	O	0.899050	-0.312141	0.309365
O35	O	1.232383	0.021192	0.642698
O36	O	1.565717	0.354525	0.976032
O37	O	1.018368	-0.403315	0.519059
O38	O	1.351702	-0.069982	0.852392
O39	O	1.685035	0.263352	1.185725
O40	O	0.899035	-0.403339	0.399740
O41	O	1.232368	-0.070005	0.733073
O42	O	1.565702	0.263328	1.066406
O43	O	1.108801	-0.312100	0.519090
O44	O	1.442134	0.021233	0.852424
O45	O	1.775467	0.354567	1.185757
O46	O	1.108668	-0.523772	0.309339
O47	O	1.442001	-0.190439	0.642672
O48	O	1.775334	0.142894	0.976006
O49	O	1.018293	-0.523742	0.399725
O50	O	1.351626	-0.190409	0.733058
O51	O	1.684959	0.142925	1.066392
C52	C	0.872340	-0.357739	0.354550
C53	C	1.205673	-0.024405	0.687883
C54	C	1.539006	0.308928	1.021216
C55	C	0.790541	-0.357751	0.354558
C56	C	1.123874	-0.024418	0.687892
C57	C	1.457207	0.308916	1.021225
C58	C	1.063489	-0.550704	0.354542
C59	C	1.396823	-0.217370	0.687875
C60	C	1.730156	0.115963	1.021208
C61	C	1.063533	-0.633249	0.354554
C62	C	1.396866	-0.299916	0.687887
C63	C	1.730199	0.033417	1.021220
C64	C	0.602358	-0.405312	0.401557
C65	C	0.935692	-0.071979	0.734891
C66	C	1.269025	0.261354	1.068224
C67	C	0.525500	-0.405315	0.401566
C68	C	0.858833	-0.071981	0.734900
C69	C	1.192166	0.261352	1.068233
C70	C	0.525486	-0.310204	0.307601
C71	C	0.858819	0.023129	0.640934
C72	C	1.192152	0.356463	0.974267
C73	C	0.602343	-0.310199	0.307596
C74	C	0.935676	0.023135	0.640929
C75	C	1.269010	0.356468	0.974262
C76	C	0.640777	-0.357757	0.354573
C77	C	0.974111	-0.024423	0.687906
C78	C	1.307444	0.308910	1.021240
C79	C	0.487061	-0.357765	0.354587
C80	C	0.820395	-0.024431	0.687920
C81	C	1.153728	0.308902	1.021254
C82	C	0.403728	-0.357767	0.354597
C83	C	0.737061	-0.024434	0.687930
C84	C	1.070394	0.308900	1.021263
C85	C	0.724116	-0.357754	0.354565
C86	C	1.057450	-0.024421	0.687898
C87	C	1.390783	0.308913	1.021231
C88	C	1.112781	-0.832689	0.305470
C89	C	1.446114	-0.499356	0.638804
C90	C	1.779447	-0.166023	0.972137
C91	C	1.130758	-0.882022	0.372637
C92	C	1.464091	-0.548688	0.705971
C93	C	1.797424	-0.215355	1.039304
C94	C	1.063574	-0.784380	0.354583
C95	C	1.396908	-0.451046	0.687916
C96	C	1.730241	-0.117713	1.021250
C97	C	1.045672	-0.882129	0.287446
C98	C	1.379006	-0.548796	0.620780
C99	C	1.712339	-0.215463	0.954113
C100	C	1.063616	-0.930365	0.354605
C101	C	1.396949	-0.597031	0.687939
C102	C	1.730283	-0.263698	1.021272
C103	C	1.081586	-0.832624	0.421785
C104	C	1.414919	-0.499291	0.755119
C105	C	1.748252	-0.165958	1.088452
C106	C	0.996469	-0.832728	0.336549
C107	C	1.329802	-0.499394	0.669882
C108	C	1.663136	-0.166061	1.003216
C109	C	1.014421	-0.882038	0.403762
C110	C	1.347754	-0.548704	0.737095
C111	C	1.681087	-0.215371	1.070429
C112	C	1.063552	-0.700281	0.354569
C113	C	1.396885	-0.366948	0.687902
C114	C	1.730219	-0.033615	1.021236
C115	C	1.063638	-1.014461	0.354627
C116	C	1.396971	-0.681128	0.687960
C117	C	1.730305	-0.347795	1.021294
C118	C	1.255499	-0.357765	0.354593
C119	C	1.588832	-0.024431	0.687926
C120	C	1.922166	0.308902	1.021259
C121	C	1.337298	-0.357770	0.354602
C122	C	1.670631	-0.024437	0.687935
C123	C	2.003964	0.308896	1.021268
C124	C	1.063591	-0.357700	0.546524
C125	C	1.396924	-0.024367	0.879857
C126	C	1.730257	0.308966	1.213191
C127	C	1.063610	-0.357678	0.628323
C128	C	1.396943	-0.024345	0.961656
C129	C	1.730277	0.308988	1.294990
C130	C	1.063623	-0.164046	0.354616
C131	C	1.396956	0.169288	0.687950
C132	C	1.730290	0.502621	1.021283
C133	C	1.063656	-0.081500	0.354636
C134	C	1.396989	0.251833	0.687969
C135	C	1.730322	0.585167	1.021303
C136	C	1.063544	-0.357749	0.163365
C137	C	1.396877	-0.024415	0.496698
C138	C	1.730210	0.308918	0.830031
C139	C	1.063667	-0.357561	0.081566
C140	C	1.397000	-0.024228	0.414900
C141	C	1.730334	0.309105	0.748233
C142	C	1.110715	-0.310138	0.816535
C143	C	1.444048	0.023195	1.149868
C144	C	1.777382	0.356528	1.483201
C145	C	1.110724	-0.310117	0.893393
C146	C	1.444057	0.023217	1.226727
C147	C	1.777390	0.356550	1.560060
C148	C	1.016557	-0.405104	0.893349
C149	C	1.349890	-0.071770	1.226682
C150	C	1.683224	0.261563	1.560016
C151	C	1.016545	-0.405121	0.816492
C152	C	1.349878	-0.071788	1.149825
C153	C	1.683212	0.261546	1.483158
C154	C	1.063628	-0.357639	0.778086
C155	C	1.396962	-0.024306	1.111420
C156	C	1.730295	0.309027	1.444753
C157	C	1.063649	-0.357600	0.931803
C158	C	1.396982	-0.024267	1.265136
C159	C	1.730316	0.309066	1.598469
C160	C	1.063658	-0.357577	1.015136
C161	C	1.396991	-0.024244	1.348470
C162	C	1.730325	0.309089	1.681803
C163	C	1.063618	-0.357661	0.694747
C164	C	1.396952	-0.024328	1.028081
C165	C	1.730285	0.309005	1.361414
H166	H	0.494222	-0.444038	0.439827
H167	H	0.827556	-0.110705	0.773160
H168	H	1.160889	0.222629	1.106493
N169	N	1.026662	-0.909404	0.216207
N170	N	1.359995	-0.576071	0.549540
N171	N	1.693329	-0.242738	0.882874
N172	N	1.065744	-0.893595	0.162038
N173	N	1.399077	-0.560262	0.495372
N174	N	1.732410	-0.226929	0.828705
H175	H	1.052324	-0.912856	0.111724
H176	H	1.385657	-0.579523	0.445057
H177	H	1.718990	-0.246189	0.778390
N178	N	1.100686	-0.805480	0.493049
N179	N	1.434019	-0.472146	0.826382
N180	N	1.767352	-0.138813	1.159716
N181	N	1.061952	-0.821786	0.547323
N182	N	1.395285	-0.488453	0.880656
N183	N	1.728619	-0.155119	1.213989
H184	H	1.075443	-0.802614	0.597652
H185	H	1.408776	-0.469281	0.930985
H186	H	1.742110	-0.135948	1.264318
N187	N	0.486213	-0.261631	0.259622
N188	N	0.819546	0.071702	0.592955
N189	N	1.152880	0.405035	0.926289
N190	N	0.417591	-0.261642	0.259632
N191	N	0.750925	0.071691	0.592965
N192	N	1.084258	0.405024	0.926298
H193	H	0.389855	-0.227338	0.225745
H194	H	0.723188	0.105996	0.559078
H195	H	1.056521	0.439329	0.892411
N196	N	0.641581	-0.261609	0.259600
N197	N	0.974914	0.071725	0.592934
N198	N	1.308248	0.405058	0.926267
N199	N	0.607258	-0.219153	0.217658
N200	N	0.940591	0.114180	0.550991
N201	N	1.273925	0.447514	0.884325
H202	H	0.634969	-0.184835	0.183765
H203	H	0.968303	0.148498	0.517098
H204	H	1.301636	0.481832	0.850431
N205	N	0.641607	-0.453895	0.449545
N206	N	0.974941	-0.120562	0.782878
N207	N	1.308274	0.212771	1.116211
N208	N	0.607291	-0.496352	0.491491
N209	N	0.940625	-0.163019	0.824824
N210	N	1.273958	0.170315	1.158158
H211	H	0.635009	-0.530665	0.525385
H212	H	0.968342	-0.197332	0.858718
H213	H	1.301675	0.136001	1.192052
H214	H	1.154407	-0.811021	0.263980
H215	H	1.487740	-0.477687	0.597314
H216	H	1.821073	-0.144354	0.930647
N217	N	1.158813	-0.261596	0.932678
N218	N	1.492147	0.071737	1.266012
N219	N	1.825480	0.405070	1.599345
N220	N	1.132943	-0.214260	0.975571
N221	N	1.466277	0.119073	1.308905
N222	N	1.799610	0.452407	1.642238
H223	H	1.166907	-0.179989	1.003318
H224	H	1.500241	0.153344	1.336651
H225	H	1.833574	0.486677	1.669984
N226	N	0.968453	-0.453593	0.932577
N227	N	1.301786	-0.120260	1.265910
N228	N	1.635119	0.213074	1.599243
N229	N	0.900547	-0.448652	0.923980
N230	N	1.233880	-0.115318	1.257314
N231	N	1.567213	0.218015	1.590647
H232	H	0.866569	-0.482894	0.951686
H233	H	1.199902	-0.149561	1.285019
H234	H	1.533235	0.183772	1.618352
H235	H	1.149051	-0.271474	0.785267
H236	H	1.482384	0.061860	1.118601
H237	H	1.815718	0.395193	1.451934
N238	N	0.968434	-0.453645	0.777224
N239	N	1.301768	-0.120311	1.110557
N240	N	1.635101	0.213022	1.443891
N241	N	0.926403	-0.496037	0.811521
N242	N	1.259736	-0.162704	1.144854
N243	N	1.593069	0.170629	1.478188
H244	H	0.892423	-0.530304	0.783789
H245	H	1.225757	-0.196970	1.117122
H246	H	1.559090	0.136363	1.450456
H247	H	1.187525	-0.903676	0.387905
H248	H	1.520858	-0.570343	0.721238
H249	H	1.854192	-0.237010	1.054572
H250	H	0.972826	-0.903569	0.445353
H251	H	1.306160	-0.570235	0.778686
H252	H	1.639493	-0.236902	1.112019
H253	H	0.939718	-0.811057	0.321261
H254	H	1.273051	-0.477724	0.654594
H255	H	1.606385	-0.144391	0.987928
