data_functionalizedCrystal
_audit_creation_method	'MofGen! by Chris Wilmer'
_symmetry_space_group_name_H-M	'P1'
_symmetry_Int_Tables_number	1
_symmetry_cell_setting	triclinic
loop_
_symmetry_equiv_pos_as_xyz
  x,y,z
_cell_length_a	15.297475
_cell_length_b	12.594516
_cell_length_c	12.594510
_cell_angle_alpha	90.032321
_cell_angle_beta	99.687339
_cell_angle_gamma	80.319586
loop_
_atom_site_label
_atom_site_type_symbol
_atom_site_fract_x
_atom_site_fract_y
_atom_site_fract_z
Zn1	Zn	1.379312	-0.705654	0.883027
Zn2	Zn	1.879312	-0.205654	1.383027
Zn3	Zn	1.379220	-0.883665	0.705036
Zn4	Zn	1.879220	-0.383665	1.205036
Zn5	Zn	1.228438	-0.674872	0.674303
Zn6	Zn	1.728438	-0.174872	1.174303
Zn7	Zn	1.228423	-0.852741	0.852228
Zn8	Zn	1.728423	-0.352741	1.352228
O9	O	1.303848	-0.779233	0.778648
O10	O	1.803848	-0.279233	1.278648
O11	O	1.505550	-0.755092	0.885168
O12	O	2.005550	-0.255092	1.385168
O13	O	1.359187	-0.856027	0.552007
O14	O	1.859187	-0.356027	1.052007
O15	O	1.248497	-0.530019	0.702018
O16	O	1.748497	-0.030019	1.202018
O17	O	1.505483	-0.885875	0.754398
O18	O	2.005483	-0.385875	1.254398
O19	O	1.359343	-0.552634	0.855367
O20	O	1.859343	-0.052634	1.355367
O21	O	1.248408	-0.702628	0.529427
O22	O	1.748408	-0.202628	1.029427
O23	O	1.102186	-0.672643	0.672153
O24	O	1.602186	-0.172643	1.172153
O25	O	1.248470	-0.833170	1.005266
O26	O	1.748470	-0.333170	1.505266
O27	O	1.102175	-0.803322	0.802875
O28	O	1.602175	-0.303322	1.302875
O29	O	1.359328	-0.725106	1.027894
O30	O	1.859328	-0.225106	1.527894
O31	O	1.359171	-1.028499	0.724534
O32	O	1.859171	-0.528499	1.224534
O33	O	1.248381	-1.005779	0.832676
O34	O	1.748381	-0.505779	1.332676
C35	C	1.069445	-0.731287	0.730838
C36	C	1.569445	-0.231287	1.230838
C37	C	0.969166	-0.710802	0.710409
C38	C	1.469166	-0.210802	1.210409
C39	C	0.686573	-0.925655	0.924656
C40	C	1.186573	-0.425655	1.424656
C41	C	0.780790	-0.944910	0.943847
C42	C	1.280790	-0.444910	1.443847
C43	C	0.827889	-0.886384	0.885490
C44	C	1.327889	-0.386384	1.385490
C45	C	0.780761	-0.808601	0.807938
C46	C	1.280761	-0.308601	1.307938
C47	C	0.686535	-0.789349	0.788739
C48	C	1.186535	-0.289349	1.288739
C49	C	0.827851	-0.750079	0.749572
C50	C	1.327851	-0.250079	1.249572
C51	C	0.780723	-0.672295	0.672020
C52	C	1.280723	-0.172295	1.172020
C53	C	0.686506	-0.653047	0.652826
C54	C	1.186506	-0.153047	1.152826
C55	C	0.639408	-0.711573	0.711183
C56	C	1.139408	-0.211573	1.211183
C57	C	0.922077	-0.769330	0.768771
C58	C	1.422077	-0.269330	1.268771
C59	C	0.922039	-0.633025	0.632853
C60	C	1.422039	-0.133025	1.132853
C61	C	0.827822	-0.613770	0.613663
C62	C	1.327822	-0.113770	1.113663
C63	C	1.303789	-1.055762	0.778626
C64	C	1.803789	-0.555762	1.278626
C65	C	1.303846	-1.174079	0.778669
C66	C	1.803846	-0.674079	1.278669
C67	C	1.243582	-1.231012	0.837436
C68	C	1.743582	-0.731012	1.337436
C69	C	1.221600	-1.297394	0.735832
C70	C	1.721600	-0.797394	1.235832
C71	C	1.325910	-1.318513	0.880306
C72	C	1.825910	-0.818513	1.380306
C73	C	1.281821	-1.238893	0.677005
C74	C	1.781821	-0.738893	1.177005
C75	C	1.386169	-1.260014	0.821552
C76	C	1.886169	-0.760014	1.321552
C77	C	1.364219	-1.326370	0.719888
C78	C	1.864219	-0.826370	1.219888
C79	C	1.539167	-0.827366	0.826647
C80	C	2.039167	-0.327366	1.326647
C81	C	1.639446	-0.847878	0.847101
C82	C	2.139446	-0.347878	1.347101
C83	C	1.303908	-0.779122	1.056282
C84	C	1.803908	-0.279122	1.556282
C85	C	1.303933	-0.779075	1.174592
C86	C	1.803933	-0.279075	1.674592
C87	C	1.303932	-0.501629	0.778699
C88	C	1.803932	-0.001629	1.278699
C89	C	1.303968	-0.383331	0.778721
C90	C	1.803968	0.116669	1.278721
C91	C	1.303841	-0.779277	0.502106
C92	C	1.803841	-0.279277	1.002106
C93	C	1.303990	-0.779060	0.383831
C94	C	1.803990	-0.279060	0.883831
C95	C	1.364247	-0.720298	1.256156
C96	C	1.864247	-0.220298	1.756156
C97	C	1.281963	-0.677421	1.310174
C98	C	1.781963	-0.177421	1.810174
C99	C	1.386266	-0.821887	1.331384
C100	C	1.886266	-0.321887	1.831384
C101	C	1.221605	-0.736140	1.227043
C102	C	1.721605	-0.236140	1.727043
C103	C	1.325964	-0.880662	1.248258
C104	C	1.825964	-0.380662	1.748258
C105	C	1.243623	-0.837811	1.302232
C106	C	1.743623	-0.337811	1.802232
H107	H	0.562688	-0.695897	0.695565
H108	H	1.062688	-0.195897	1.195565
H109	H	0.648217	-0.973304	0.972156
H110	H	1.148217	-0.473304	1.472156
H111	H	0.789437	-0.550438	0.550519
H112	H	1.289437	-0.050438	1.050519
Br113	Br	0.955757	-0.912516	0.911536
Br114	Br	1.455757	-0.412516	1.411536
H115	H	0.819154	-1.008244	1.006988
H116	H	1.319154	-0.508244	1.506988
H117	H	1.344523	-1.353334	0.966239
H118	H	1.844523	-0.853334	1.466239
Br119	Br	1.449254	-1.395166	0.636985
Br120	Br	1.949254	-0.895166	1.136985
Br121	Br	1.502088	-1.231677	0.882017
Br122	Br	2.002088	-0.731677	1.382017
Br123	Br	1.449114	-0.637371	1.221736
Br124	Br	1.949114	-0.137371	1.721736
Br125	Br	1.250935	-0.534222	1.355750
Br126	Br	1.750935	-0.034222	1.855750
Br127	Br	1.105555	-0.675631	1.151795
Br128	Br	1.605555	-0.175631	1.651795
H129	H	0.960439	-0.832662	0.831915
H130	H	1.460439	-0.332662	1.331915
Br131	Br	0.622549	-0.547495	0.547565
Br132	Br	1.122549	-0.047495	1.047565
Br133	Br	1.158556	-0.920617	1.336305
Br134	Br	1.658556	-0.420617	1.836305
H135	H	0.960386	-0.585370	0.585332
H136	H	1.460386	-0.085370	1.085332
H137	H	1.192527	-1.189533	0.887027
H138	H	1.692527	-0.689533	1.387027
H139	H	1.152038	-1.314393	0.699597
H140	H	1.652038	-0.814393	1.199597
H141	H	1.344603	-0.966561	1.220899
H142	H	1.844603	-0.466561	1.720899
H143	H	1.455869	-0.858099	1.376665
H144	H	1.955869	-0.358099	1.876665
Br145	Br	1.250669	-1.181053	0.533710
Br146	Br	1.750669	-0.681053	1.033710
