data_functionalizedCrystal
_audit_creation_method	'MofGen! by Chris Wilmer'
_symmetry_space_group_name_H-M	'P1'
_symmetry_Int_Tables_number	1
_symmetry_cell_setting	triclinic
loop_
_symmetry_equiv_pos_as_xyz
  x,y,z
_cell_length_a	10.489741
_cell_length_b	17.038272
_cell_length_c	8.965430
_cell_angle_alpha	90.000179
_cell_angle_beta	89.998843
_cell_angle_gamma	87.825365
loop_
_atom_site_label
_atom_site_type_symbol
_atom_site_fract_x
_atom_site_fract_y
_atom_site_fract_z
O1	O	1.704377	0.110369	-0.123948
O2	O	1.334150	0.120730	-0.123972
O3	O	1.517063	0.001722	-0.123948
O4	O	1.521464	0.229378	-0.123972
O5	O	1.517047	0.001729	0.124130
O6	O	1.334134	0.120738	0.124107
O7	O	1.704361	0.110377	0.124130
Cu8	Cu	1.519246	0.115558	0.146770
Cu9	Cu	1.519265	0.115549	-0.146612
O10	O	1.521448	0.229386	0.124107
C11	C	1.286537	0.119951	0.000065
C12	C	1.144689	0.117610	0.000056
C13	C	1.069466	0.041889	0.000078
C14	C	0.980693	0.077655	-0.122238
C15	C	0.980713	0.077681	0.122348
C16	C	1.057784	0.153408	-0.122361
C17	C	1.057813	0.153423	0.122335
C18	C	0.969072	0.189244	-0.000011
C19	C	1.513053	-0.027426	0.000091
C20	C	1.501111	-0.114288	0.000089
C21	C	1.610749	-0.163767	0.000098
C22	C	1.599521	-0.245383	0.000083
C23	C	1.478654	-0.277518	0.000070
C24	C	1.369007	-0.228032	0.000057
C25	C	1.380237	-0.146418	0.000062
C26	C	1.438983	-0.523505	0.000047
C27	C	1.427762	-0.605126	0.000048
C28	C	1.658277	-0.622471	0.000071
C29	C	1.669495	-0.540855	0.000084
C30	C	1.559849	-0.491376	0.000063
C31	C	1.467174	-0.360942	0.000060
C32	C	1.571330	-0.407954	0.000063
C33	C	1.751974	0.111156	0.000091
C34	C	1.893822	0.113497	0.000089
C35	C	1.525458	0.258533	0.000065
C36	C	1.537400	0.345395	0.000056
N37	N	1.519243	0.115564	0.353119
N38	N	1.519278	0.115537	-0.352961
C39	C	1.434622	0.170583	0.450415
C40	C	1.551599	0.186413	0.549834
C41	C	1.402315	0.099741	0.549828
C42	C	1.636282	0.131430	0.450350
C43	C	1.486918	0.044727	0.450335
C44	C	1.603976	0.060527	0.549709
H45	H	0.946731	0.045631	0.225757
C46	C	1.294805	-0.640476	0.000034
H47	H	1.303826	-0.696169	0.000054
H48	H	1.249292	-0.623542	-0.086482
H49	H	1.249283	-0.623535	0.086550
H50	H	1.349700	-0.483229	0.000031
C51	C	1.700767	-0.002351	0.608245
H52	H	1.657573	-0.039566	0.666566
H53	H	1.762856	0.021961	0.667905
H54	H	1.741573	-0.028249	0.526362
C55	C	1.743701	-0.128422	0.000117
H56	H	1.734691	-0.072729	0.000133
H57	H	1.789226	-0.145361	-0.086389
H58	H	1.789206	-0.145364	0.086643
H59	H	1.091846	0.185439	0.225745
H60	H	1.363135	0.217154	0.406817
H61	H	1.735209	0.144873	0.406837
C62	C	1.103471	0.196668	-0.262199
H63	H	1.193941	0.197874	-0.261376
H64	H	1.068225	0.248854	-0.262519
H65	H	1.076451	0.169955	-0.348971
H66	H	1.290957	-0.106132	0.000054
C67	C	1.236056	-0.263378	0.000048
H68	H	1.245069	-0.319071	0.000063
H69	H	1.190542	-0.246440	-0.086464
H70	H	1.190540	-0.246437	0.086568
H71	H	1.688801	-0.285666	0.000093
C72	C	1.449906	-0.036155	0.391231
H73	H	1.366745	-0.047309	0.425229
H74	H	1.509179	-0.075357	0.426704
H75	H	1.450926	-0.035691	0.285279
H76	H	1.767918	-0.514697	0.000094
C77	C	1.778876	-0.676898	0.000072
H78	H	1.754883	-0.730107	0.000054
H79	H	1.828073	-0.667089	0.086582
H80	H	1.828069	-0.667083	-0.086450
C81	C	0.934753	0.034377	-0.261934
H82	H	0.881297	0.068929	-0.319527
H83	H	0.888264	-0.009827	-0.232540
H84	H	1.006371	0.017339	-0.319934
H85	H	1.303416	0.086371	0.593528
H86	H	1.669740	-0.381786	0.000040
H87	H	1.113334	-0.020359	-0.000069
H88	H	0.925476	0.251558	-0.000084
C89	C	1.588559	0.267319	0.608898
H90	H	1.528338	0.306364	0.574913
H91	H	1.671054	0.278933	0.573381
H92	H	1.589054	0.266576	0.714850
H93	H	1.368763	-0.387115	0.000053
