data_functionalizedCrystal
_audit_creation_method	'MofGen! by Chris Wilmer'
_symmetry_space_group_name_H-M	'P1'
_symmetry_Int_Tables_number	1
_symmetry_cell_setting	triclinic
loop_
_symmetry_equiv_pos_as_xyz
  x,y,z
_cell_length_a	13.596369
_cell_length_b	14.519709
_cell_length_c	14.519709
_cell_angle_alpha	96.319855
_cell_angle_beta	90.006934
_cell_angle_gamma	90.000291
loop_
_atom_site_label
_atom_site_type_symbol
_atom_site_fract_x
_atom_site_fract_y
_atom_site_fract_z
O1	O	-0.081665	1.223868	-0.120893
O2	O	0.251668	1.557202	0.212441
O3	O	0.585001	1.890535	0.545774
O4	O	-0.081696	0.955392	-0.135129
O5	O	0.251638	1.288725	0.198204
O6	O	0.584971	1.622058	0.531537
O7	O	-0.081671	1.096748	0.006227
O8	O	0.251662	1.430082	0.339561
O9	O	0.584996	1.763415	0.672894
O10	O	-0.081690	1.082512	-0.262249
O11	O	0.251643	1.415845	0.071084
O12	O	0.584976	1.749178	0.404417
O13	O	0.081912	1.096734	0.006235
O14	O	0.415245	1.430067	0.339568
O15	O	0.748579	1.763401	0.672902
O16	O	0.081887	0.955377	-0.135122
O17	O	0.415220	1.288711	0.198212
O18	O	0.748554	1.622044	0.531545
O19	O	0.081917	1.223854	-0.120885
O20	O	0.415251	1.557188	0.212448
O21	O	0.748584	1.890521	0.545781
Zn22	Zn	0.107875	1.089614	-0.128002
Zn23	Zn	0.441208	1.422947	0.205331
Zn24	Zn	0.774541	1.756280	0.538664
Zn25	Zn	-0.107653	1.089632	-0.128012
Zn26	Zn	0.225680	1.422966	0.205321
Zn27	Zn	0.559014	1.756299	0.538654
O28	O	0.081893	1.082498	-0.262242
O29	O	0.415226	1.415831	0.071091
O30	O	0.748559	1.749164	0.404425
C31	C	0.000092	0.921025	-0.134462
C32	C	0.333425	1.254358	0.198871
C33	C	0.666759	1.587691	0.532205
C34	C	0.000081	0.818643	-0.132474
C35	C	0.333414	1.151977	0.200859
C36	C	0.666747	1.485310	0.534193
N37	N	0.254966	1.089608	-0.127995
N38	N	0.588300	1.422941	0.205338
N39	N	0.921633	1.756274	0.538672
N40	N	-0.254745	1.089645	-0.128012
N41	N	0.078589	1.422979	0.205321
N42	N	0.411922	1.756312	0.538654
C43	C	0.000126	0.443748	-0.125154
C44	C	0.333459	0.777081	0.208179
C45	C	0.666793	1.110414	0.541512
C46	C	0.000113	0.548056	-0.127187
C47	C	0.333446	0.881389	0.206146
C48	C	0.666780	1.214722	0.539480
C49	C	0.000102	0.631192	-0.128814
C50	C	0.333436	0.964526	0.204519
C51	C	0.666769	1.297859	0.537853
C52	C	0.000091	0.735507	-0.130847
C53	C	0.333425	1.068840	0.202486
C54	C	0.666758	1.402173	0.535820
C55	C	0.656257	1.089631	-0.128013
C56	C	0.989591	1.422964	0.205320
C57	C	1.322924	1.756298	0.538653
C58	C	0.544606	1.089622	-0.128011
C59	C	0.877939	1.422955	0.205322
C60	C	1.211273	1.756288	0.538655
C61	C	0.455615	1.089620	-0.128005
C62	C	0.788949	1.422953	0.205329
C63	C	1.122282	1.756286	0.538662
C64	C	0.343957	1.089610	-0.128001
C65	C	0.677290	1.422943	0.205332
C66	C	1.010624	1.756276	0.538665
C67	C	0.000121	1.096078	0.040591
C68	C	0.333454	1.429411	0.373924
C69	C	0.666787	1.762744	0.707258
C70	C	0.000121	1.094090	0.142972
C71	C	0.333454	1.427423	0.476306
C72	C	0.666788	1.760756	0.809639
C73	C	0.000128	1.258221	-0.121553
C74	C	0.333461	1.591554	0.211781
C75	C	0.666794	1.924888	0.545114
C76	C	0.000132	1.360602	-0.123541
C77	C	0.333466	1.693936	0.209793
C78	C	0.666799	2.027269	0.543126
C79	C	0.000099	1.083168	-0.296605
C80	C	0.333432	1.416501	0.036728
C81	C	0.666766	1.749835	0.370061
C82	C	0.000092	1.085156	-0.398987
C83	C	0.333425	1.418490	-0.065653
C84	C	0.666759	1.751823	0.267680
C85	C	0.000095	1.086770	0.517868
C86	C	0.333428	1.420103	0.851201
C87	C	0.666761	1.753437	1.184535
C88	C	0.000102	1.088803	0.413560
C89	C	0.333436	1.422136	0.746893
C90	C	0.666769	1.755469	1.080227
C91	C	0.000109	1.090430	0.330423
C92	C	0.333442	1.423763	0.663757
C93	C	0.666775	1.757096	0.997090
C94	C	0.000114	1.092463	0.226109
C95	C	0.333448	1.425796	0.559442
C96	C	0.666781	1.759129	0.892776
