data_functionalizedCrystal
_audit_creation_method	'MofGen! by Chris Wilmer'
_symmetry_space_group_name_H-M	'P1'
_symmetry_Int_Tables_number	1
_symmetry_cell_setting	triclinic
loop_
_symmetry_equiv_pos_as_xyz
  x,y,z
_cell_length_a	25.639240
_cell_length_b	29.839134
_cell_length_c	25.639233
_cell_angle_alpha	89.976874
_cell_angle_beta	89.974071
_cell_angle_gamma	90.027617
loop_
_atom_site_label
_atom_site_type_symbol
_atom_site_fract_x
_atom_site_fract_y
_atom_site_fract_z
Zn1	Zn	-0.208286	0.686752	-0.295730
Zn2	Zn	-0.295705	0.686694	-0.208283
Zn3	Zn	-0.208277	0.611633	-0.208292
Zn4	Zn	-0.295684	0.611594	-0.295671
O5	O	-0.251988	0.649168	-0.251994
O6	O	-0.219895	0.749611	-0.284150
O7	O	-0.284112	0.676729	-0.135119
O8	O	-0.135113	0.621638	-0.219919
O9	O	-0.284121	0.749569	-0.219903
O10	O	-0.135120	0.676828	-0.284159
O11	O	-0.219880	0.621582	-0.135126
O12	O	-0.219860	0.548761	-0.219863
O13	O	-0.284086	0.621571	-0.368844
O14	O	-0.284078	0.548732	-0.284060
O15	O	-0.219875	0.676790	-0.368887
O16	O	-0.368867	0.676691	-0.219847
O17	O	-0.368852	0.621515	-0.284051
C18	C	-0.251966	0.532445	-0.251956
C19	C	-0.251969	0.482511	-0.251953
C20	C	-0.285476	0.172862	-0.285380
C21	C	-0.285490	-0.014811	-0.285404
O22	O	-0.313954	-0.039081	-0.313803
N23	N	-0.252007	-0.038274	-0.252033
C24	C	-0.218516	-0.014816	-0.218657
O25	O	-0.190033	-0.039079	-0.190278
C26	C	-0.218499	0.172856	-0.218637
C27	C	-0.251988	0.196317	-0.252006
C28	C	-0.318962	0.196323	-0.318747
C29	C	-0.318960	0.243238	-0.318739
C30	C	-0.285472	0.266693	-0.285364
C31	C	-0.251986	0.243232	-0.251998
C32	C	-0.185005	0.196313	-0.185264
C33	C	-0.185003	0.243235	-0.185263
C34	C	-0.218492	0.266695	-0.218632
C35	C	-0.218496	0.313603	-0.218615
N36	N	-0.251979	0.337066	-0.251985
C37	C	-0.285467	0.313611	-0.285360
C38	C	-0.218528	-0.113347	-0.218669
C39	C	-0.218533	-0.160264	-0.218674
C40	C	-0.285507	-0.160256	-0.285421
C41	C	-0.285504	-0.113338	-0.285414
C42	C	-0.252011	-0.089884	-0.252040
C43	C	-0.285460	0.412137	-0.285340
C44	C	-0.285457	0.459056	-0.285327
C45	C	-0.218481	0.459044	-0.218582
C46	C	-0.218486	0.412128	-0.218593
C47	C	-0.251978	0.388676	-0.251976
O48	O	-0.190043	0.337901	-0.190235
O49	O	-0.313937	0.337882	-0.313743
C50	C	-0.285478	0.125947	-0.285389
C51	C	-0.251992	0.102486	-0.252022
C52	C	-0.218504	0.125941	-0.218647
C53	C	-0.251997	0.055568	-0.252026
C54	C	-0.285485	0.032113	-0.285401
C55	C	-0.318968	0.055576	-0.318771
C56	C	-0.318966	0.102492	-0.318763
C57	C	-0.185021	0.102478	-0.185277
C58	C	-0.185026	0.055562	-0.185288
C59	C	-0.218514	0.032107	-0.218662
C60	C	-0.387831	0.649105	-0.251953
C61	C	-0.445945	0.649118	-0.251953
C62	C	-0.806273	0.677919	-0.285504
C63	C	-0.860877	0.677933	-0.285515
O64	O	-0.889084	0.702345	-0.313999
N65	N	-0.888227	0.649230	-0.252045
C66	C	-0.860970	0.620510	-0.218565
O67	O	-0.889248	0.596097	-0.190098
C68	C	-0.806367	0.620495	-0.218558
C69	C	-0.779020	0.649202	-0.252026
C70	C	-0.778925	0.706624	-0.318970
C71	C	-0.724325	0.706611	-0.318959
C72	C	-0.697072	0.677894	-0.285481
C73	C	-0.724419	0.649189	-0.252015
C74	C	-0.779111	0.591772	-0.185082
C75	C	-0.724504	0.591759	-0.185077
C76	C	-0.697157	0.620466	-0.218546
C77	C	-0.642565	0.620459	-0.218526
N78	N	-0.615215	0.649161	-0.251996
C79	C	-0.642468	0.677879	-0.285474
C80	C	-0.975641	0.620543	-0.218585
C81	C	-1.030243	0.620560	-0.218589
C82	C	-1.030146	0.677983	-0.285539
C83	C	-0.975543	0.677968	-0.285532
C84	C	-0.948291	0.649246	-0.252055
C85	C	-0.527803	0.677850	-0.285447
C86	C	-0.473198	0.677836	-0.285431
C87	C	-0.473300	0.620412	-0.218483
C88	C	-0.527900	0.620428	-0.218496
C89	C	-0.555151	0.649148	-0.251983
O90	O	-0.614324	0.596058	-0.190058
O91	O	-0.614184	0.702283	-0.313941
C92	C	-0.115615	0.649244	-0.252047
C93	C	-0.057501	0.649276	-0.252069
C94	C	-0.251979	0.649183	-0.388367
C95	C	-0.251975	0.649189	-0.446481
C96	C	-0.252011	0.766346	-0.252032
C97	C	-0.252020	0.816281	-0.252048
C98	C	-0.218441	0.677977	-0.806872
C99	C	-0.218427	0.677983	-0.861477
O100	O	-0.189976	0.702424	-0.889737
N101	N	-0.251853	0.649238	-0.888764
C102	C	-0.285291	0.620483	-0.861444
O103	O	-0.313721	0.596034	-0.889668
C104	C	-0.285303	0.620475	-0.806841
C105	C	-0.251878	0.649225	-0.779556
C106	C	-0.185019	0.706724	-0.779588
C107	C	-0.185034	0.706719	-0.724987
C108	C	-0.218472	0.677967	-0.697671
C109	C	-0.251894	0.649220	-0.724956
C110	C	-0.318739	0.591718	-0.779522
C111	C	-0.318747	0.591713	-0.724915
C112	C	-0.285323	0.620463	-0.697630
C113	C	-0.285346	0.620463	-0.643039
N114	N	-0.251920	0.649208	-0.615752
C115	C	-0.218483	0.677960	-0.643068
C116	C	-0.285264	0.620500	-0.976115
C117	C	-0.285256	0.620510	-1.030717
C118	C	-0.218390	0.678009	-1.030746
C119	C	-0.218402	0.678002	-0.976142
C120	C	-0.251838	0.649245	-0.948827
C121	C	-0.218518	0.677947	-0.528403
C122	C	-0.218538	0.677941	-0.473797
C123	C	-0.285401	0.620440	-0.473773
C124	C	-0.285384	0.620448	-0.528374
C125	C	-0.251938	0.649203	-0.555687
O126	O	-0.313781	0.596033	-0.614744
O127	O	-0.190053	0.702401	-0.614837
C128	C	-0.251960	0.649179	-0.116151
C129	C	-0.251816	0.649260	-0.058038
H130	H	-0.346236	0.121589	-0.345936
N131	N	-0.443702	0.708801	-0.321529
H132	H	-0.469255	0.726993	-0.342740
H133	H	-0.421047	0.690494	-0.345698
H134	H	-0.702062	0.729986	-0.346213
H135	H	-0.157750	0.121570	-0.158099
H136	H	-0.191253	-0.094255	-0.191490
N137	N	-0.443894	0.589439	-0.182381
H138	H	-0.453419	0.557338	-0.190465
H139	H	-0.453420	0.596474	-0.145046
N140	N	-0.808593	0.560806	-0.148981
H141	H	-0.799108	0.528703	-0.157066
H142	H	-0.847312	0.565203	-0.154075
H143	H	-0.191183	0.701412	-0.953931
N144	N	-0.354807	0.560692	-0.695453
H145	H	-0.375976	0.542482	-0.721027
H146	H	-0.379016	0.578958	-0.672798
N147	N	-0.808314	0.737589	-0.355095
H148	H	-0.782697	0.755764	-0.376295
H149	H	-0.830968	0.758404	-0.333856
N150	N	-0.695111	0.560778	-0.148970
H151	H	-0.720725	0.542597	-0.127772
H152	H	-0.672455	0.579072	-0.124791
H153	H	-0.550168	0.597055	-0.191240
H154	H	-0.191218	0.478149	-0.191408
H155	H	-0.346229	0.262336	-0.345912
H156	H	-0.346236	0.036471	-0.345945
N157	N	-0.148907	0.030261	-0.149291
H158	H	-0.127693	0.052243	-0.128150
H159	H	-0.124742	0.010815	-0.170624
N160	N	-0.321309	0.589507	-1.060146
H161	H	-0.358669	0.596462	-1.050638
H162	H	-0.313140	0.557424	-1.050622
N163	N	-0.321465	0.589428	-0.444308
H164	H	-0.345703	0.607669	-0.421652
H165	H	-0.300177	0.568627	-0.421682
N166	N	-0.321576	0.484358	-0.321324
H167	H	-0.316496	0.517640	-0.316256
H168	H	-0.358904	0.476138	-0.313115
N169	N	-1.059548	0.708940	-0.321668
H170	H	-1.033941	0.727119	-0.342877
H171	H	-1.082207	0.729752	-0.300430
N172	N	-0.354789	0.560706	-0.808938
H173	H	-0.333532	0.539901	-0.831590
H174	H	-0.379015	0.578979	-0.831563
N175	N	-0.321440	0.589446	-0.557806
H176	H	-0.342626	0.571233	-0.532213
H177	H	-0.300146	0.568668	-0.580455
H178	H	-0.157725	0.262328	-0.158088
N179	N	-0.182446	0.708965	-0.557852
H180	H	-0.203690	0.729776	-0.580509
H181	H	-0.158208	0.690697	-0.580475
H182	H	-0.312495	0.597083	-0.953878
N183	N	-0.557182	0.708831	-0.321563
H184	H	-0.579832	0.729671	-0.300350
H185	H	-0.579807	0.690538	-0.345773
N186	N	-0.182374	0.386821	-0.182597
H187	H	-0.161161	0.408801	-0.161452
H188	H	-0.158208	0.367376	-0.203930
N189	N	-0.148877	0.171013	-0.149285
H190	H	-0.170079	0.151525	-0.125011
H191	H	-0.127666	0.193022	-0.128182
N192	N	-0.182488	0.708952	-0.444369
H193	H	-0.161303	0.727166	-0.469963
H194	H	-0.158293	0.690678	-0.421711
H195	H	-0.953280	0.701343	-0.312785
H196	H	-0.953455	0.597156	-0.191319
H197	H	-1.052505	0.597189	-0.191330
N198	N	-0.148982	0.737727	-0.695563
H199	H	-0.127799	0.755938	-0.721160
H200	H	-0.124786	0.719451	-0.672908
H201	H	-0.157787	0.730138	-0.801823
N202	N	-0.182324	0.709021	-1.060213
H203	H	-0.187390	0.704660	-1.098944
H204	H	-0.144983	0.702048	-1.050677
H205	H	-0.346232	0.177231	-0.345927
N206	N	-0.321583	0.386845	-0.321344
H207	H	-0.342795	0.408833	-0.342476
H208	H	-0.345750	0.367361	-0.300017
H209	H	-0.312773	-0.094239	-0.312586
H210	H	-0.191268	-0.179362	-0.191496
N211	N	-0.321627	-0.185558	-0.321418
H212	H	-0.316546	-0.218839	-0.316354
H213	H	-0.313541	-0.177341	-0.358774
