data_functionalizedCrystal
_audit_creation_method	'MofGen! by Chris Wilmer'
_symmetry_space_group_name_H-M	'P1'
_symmetry_Int_Tables_number	1
_symmetry_cell_setting	triclinic
loop_
_symmetry_equiv_pos_as_xyz
  x,y,z
_cell_length_a	21.395364
_cell_length_b	12.645330
_cell_length_c	21.395356
_cell_angle_alpha	89.978499
_cell_angle_beta	89.976411
_cell_angle_gamma	90.032643
loop_
_atom_site_label
_atom_site_type_symbol
_atom_site_fract_x
_atom_site_fract_y
_atom_site_fract_z
Zn1	Zn	0.957910	-0.421643	-0.354288
Zn2	Zn	0.957838	-0.598921	-0.249522
Zn3	Zn	0.853127	-0.421718	-0.249525
Zn4	Zn	0.853118	-0.598911	-0.354262
O5	O	0.905498	-0.510298	-0.301900
O6	O	1.045578	-0.445132	-0.340401
O7	O	0.943921	-0.575450	-0.161845
O8	O	0.867060	-0.273361	-0.263434
O9	O	1.045525	-0.575377	-0.263429
O10	O	0.944044	-0.273306	-0.340403
O11	O	0.866990	-0.445260	-0.161847
O12	O	0.765448	-0.445251	-0.263409
O13	O	0.867045	-0.575361	-0.441944
O14	O	0.765441	-0.575434	-0.340359
O15	O	0.944035	-0.445123	-0.441963
O16	O	0.943913	-0.747267	-0.263404
O17	O	0.866975	-0.747260	-0.340356
C18	C	0.742710	-0.510350	-0.301882
C19	C	0.673069	-0.510398	-0.301889
C20	C	0.640406	-0.442690	-0.342030
C21	C	0.574971	-0.442662	-0.342033
C22	C	0.542201	-0.510360	-0.301901
C23	C	0.574872	-0.578072	-0.261752
C24	C	0.640306	-0.578091	-0.261746
C25	C	0.438489	-0.605830	-0.296869
C26	C	0.373057	-0.605813	-0.296879
C27	C	0.340380	-0.510302	-0.301915
C28	C	0.373145	-0.414805	-0.306953
C29	C	0.438579	-0.414824	-0.306947
C30	C	0.471249	-0.510347	-0.301902
C31	C	0.236764	-0.442558	-0.342060
C32	C	0.171328	-0.442528	-0.342058
C33	C	0.171231	-0.577948	-0.261781
C34	C	0.236666	-0.577969	-0.261780
C35	C	0.269429	-0.510275	-0.301923
C36	C	0.905452	-0.785728	-0.301891
C37	C	0.905490	-0.903558	-0.301908
C38	C	0.857288	-1.071162	-0.350468
C39	C	0.857042	-0.948603	-0.350312
C40	C	0.887613	-0.948154	-0.235877
C41	C	0.887319	-1.070752	-0.236172
C42	C	0.971864	-1.070620	-0.318844
C43	C	0.971457	-0.948013	-0.320288
C44	C	1.068921	-0.510247	-0.301918
C45	C	1.138563	-0.510226	-0.301925
C46	C	0.905547	-0.510233	-0.465323
C47	C	0.905568	-0.510205	-0.534964
C48	C	0.905561	-0.233793	-0.301922
C49	C	0.905588	-0.115963	-0.301932
C50	C	0.865521	-0.442407	-0.567669
C51	C	0.865519	-0.442387	-0.633104
C52	C	0.905575	-0.510154	-0.665833
C53	C	0.945625	-0.577965	-0.633120
C54	C	0.945622	-0.577990	-0.567686
C55	C	0.962028	-0.518464	-0.769519
C56	C	0.962033	-0.518431	-0.834952
C57	C	0.905586	-0.510083	-0.867653
C58	C	0.849132	-0.501745	-0.834913
C59	C	0.849129	-0.501770	-0.769479
C60	C	0.905583	-0.510135	-0.736785
C61	C	0.865533	-0.442260	-0.971310
C62	C	0.865530	-0.442248	-1.036747
C63	C	0.945641	-0.577820	-1.036762
C64	C	0.945639	-0.577838	-0.971327
C65	C	0.905586	-0.510052	-0.938605
C66	C	0.905485	-0.510287	-0.139112
C67	C	0.905585	-0.510017	-0.069471
H68	H	0.144550	-0.633069	-0.229105
H69	H	0.666900	-0.633229	-0.229058
H70	H	0.838870	-1.099463	-0.221845
H71	H	0.263442	-0.387431	-0.374743
H72	H	0.978251	-0.633043	-0.944698
H73	H	0.868227	-0.918448	-0.399273
H74	H	0.832914	-0.387042	-1.063374
H75	H	0.868371	-1.100574	-0.399590
H76	H	0.920971	-1.100391	-0.198775
H77	H	0.807908	-0.919388	-0.339107
H78	H	0.832918	-0.387066	-0.944667
H79	H	0.346385	-0.683572	-0.292780
H80	H	0.832909	-0.387173	-0.659737
H81	H	0.832904	-0.387215	-0.541030
H82	H	0.465089	-0.683612	-0.292768
H83	H	0.144735	-0.387386	-0.374745
H84	H	0.263261	-0.633108	-0.229095
H85	H	1.009338	-0.917343	-0.287511
H86	H	0.839670	-0.917562	-0.221291
H87	H	0.988171	-1.101461	-0.366175
H88	H	0.548187	-0.633192	-0.229076
H89	H	0.667078	-0.387568	-0.374717
H90	H	0.548371	-0.387521	-0.374719
H91	H	1.008001	-0.525215	-0.861604
H92	H	0.978257	-0.632995	-1.063409
H93	H	0.984939	-0.918862	-0.368883
H94	H	0.465253	-0.337067	-0.311048
H95	H	0.808462	-1.102083	-0.339407
H96	H	0.346541	-0.337031	-0.311053
H97	H	0.921677	-0.918976	-0.198725
H98	H	1.007848	-1.099588	-0.283493
H99	H	0.803162	-0.494983	-0.742825
H100	H	0.803168	-0.494939	-0.861537
H101	H	1.007998	-0.525253	-0.742900
H102	H	0.978239	-0.633141	-0.659772
H103	H	0.978236	-0.633198	-0.541059
