data_functionalizedCrystal
_audit_creation_method	'MofGen! by Chris Wilmer'
_symmetry_space_group_name_H-M	'P1'
_symmetry_Int_Tables_number	1
_symmetry_cell_setting	triclinic
loop_
_symmetry_equiv_pos_as_xyz
  x,y,z
_cell_length_a	11.026607
_cell_length_b	10.540539
_cell_length_c	10.065875
_cell_angle_alpha	98.880198
_cell_angle_beta	79.302338
_cell_angle_gamma	96.555754
loop_
_atom_site_label
_atom_site_type_symbol
_atom_site_fract_x
_atom_site_fract_y
_atom_site_fract_z
O1	O	1.632406	0.517971	-0.113482
O2	O	1.278575	0.457324	-0.113485
O3	O	1.463562	0.304709	-0.113482
O4	O	1.447418	0.670585	-0.113485
O5	O	1.428289	0.333960	0.113506
O6	O	1.243301	0.486575	0.113503
O7	O	1.597132	0.547222	0.113506
Zn8	Zn	1.414616	0.521543	0.149544
Zn9	Zn	1.461091	0.483003	-0.149523
O10	O	1.412145	0.699836	0.113503
C11	C	1.215630	0.460761	0.000009
C12	C	1.080627	0.427408	0.000007
C13	C	1.007620	0.519500	0.000005
C14	C	0.868087	0.485031	0.000004
C15	C	1.444715	0.271766	0.000010
C16	C	1.441094	0.130024	0.000002
C17	C	1.302369	-0.083873	-0.000508
C18	C	1.305961	0.063616	0.000003
C19	C	1.485983	0.099314	0.129624
C20	C	1.481354	-0.048226	0.129734
C21	C	1.524215	-0.081406	-0.128394
C22	C	1.525726	0.065627	-0.130108
C23	C	1.660077	0.543784	0.000010
C24	C	1.795082	0.577136	0.000002
C25	C	1.430992	0.732779	0.000008
C26	C	1.434615	0.874520	0.000007
N27	N	1.382908	0.547846	0.353649
N28	N	1.492809	0.456692	-0.353628
C29	C	1.450050	0.492145	0.421429
C30	C	1.425656	0.512401	0.578596
H31	H	1.269230	0.083037	-0.092915
H32	H	0.835869	0.681507	0.000010
H33	H	0.827302	0.380657	-0.000030
O34	O	1.031779	0.302958	-0.000054
C35	C	0.848151	0.155151	0.000027
C36	C	0.903309	0.296140	0.000065
H37	H	0.744271	0.149596	0.000152
H38	H	0.894353	0.093475	-0.094991
H39	H	0.864992	0.118012	0.094998
H40	H	0.886483	0.333397	-0.094841
H41	H	0.857103	0.357729	0.095146
H42	H	1.263433	-0.136144	-0.093462
H43	H	1.568352	0.393999	0.588053
H44	H	1.495746	-0.135199	-0.226639
H45	H	1.234841	-0.113813	0.091924
H46	H	1.239969	0.106079	0.093075
H47	H	1.584472	0.144027	0.134445
O48	O	1.405967	-0.079330	0.245357
C49	C	1.274038	-0.002265	0.454316
C50	C	1.359365	0.033125	0.323413
H51	H	1.236356	0.088637	0.517474
H52	H	1.193688	-0.073010	0.425977
H53	H	1.328979	-0.048625	0.516454
H54	H	1.304530	0.079536	0.261214
H55	H	1.439716	0.103815	0.351846
O56	O	1.540187	0.417277	0.352071
C57	C	1.700089	0.284720	0.366801
C58	C	1.598027	0.369452	0.445513
H59	H	1.746898	0.246051	0.442314
H60	H	1.657244	0.200641	0.299952
H61	H	1.771745	0.344822	0.299848
H62	H	1.526337	0.309459	0.512539
H63	H	1.640961	0.453536	0.512275
H64	H	1.577626	-0.074149	0.135615
O65	O	1.292866	0.622633	0.423429
C66	C	1.186370	0.710902	0.643698
C67	C	1.288401	0.626197	0.564847
H68	H	1.182709	0.713790	0.758047
H69	H	1.207678	0.812840	0.615785
H70	H	1.093118	0.668708	0.615620
H71	H	1.381694	0.668277	0.592882
H72	H	1.266986	0.524270	0.592767
H73	H	1.048415	0.623863	0.000012
O74	O	1.487040	0.087372	-0.244613
C75	C	1.539603	0.180244	-0.454373
C76	C	1.583587	0.155664	-0.324777
H77	H	1.617630	0.235484	-0.519207
H78	H	1.512615	0.084190	-0.515558
H79	H	1.455957	0.239336	-0.424239
H80	H	1.667261	0.096615	-0.354790
H81	H	1.610493	0.251764	-0.263625
H82	H	1.425819	0.144449	0.226084
H83	H	1.625464	0.110420	-0.137935
O84	O	1.640755	-0.112607	-0.129517
C85	C	1.771569	-0.282299	-0.135560
C86	C	1.639544	-0.247139	-0.134340
H87	H	1.770629	-0.391066	-0.139430
H88	H	1.836075	-0.250158	-0.228962
H89	H	1.805731	-0.231677	-0.039082
H90	H	1.605268	-0.297746	-0.230753
H91	H	1.575120	-0.279254	-0.040873
H92	H	1.350104	0.575083	0.636915
