data_functionalizedCrystal
_audit_creation_method	'MofGen! by Chris Wilmer'
_symmetry_space_group_name_H-M	'P1'
_symmetry_Int_Tables_number	1
_symmetry_cell_setting	triclinic
loop_
_symmetry_equiv_pos_as_xyz
  x,y,z
_cell_length_a	19.077105
_cell_length_b	18.101395
_cell_length_c	19.076919
_cell_angle_alpha	87.727683
_cell_angle_beta	89.923776
_cell_angle_gamma	87.727498
loop_
_atom_site_label
_atom_site_type_symbol
_atom_site_fract_x
_atom_site_fract_y
_atom_site_fract_z
Zn1	Zn	1.058231	-0.358271	0.440421
Zn2	Zn	1.062857	-0.477344	0.322915
Zn3	Zn	0.945450	-0.348351	0.318214
Zn4	Zn	0.940679	-0.476897	0.435668
O5	O	1.001804	-0.415216	0.379305
O6	O	1.157176	-0.378405	0.428790
O7	O	1.051216	-0.456268	0.223960
O8	O	0.960470	-0.246037	0.334447
O9	O	1.160575	-0.465887	0.342459
O10	O	1.043330	-0.253326	0.424232
O11	O	0.964957	-0.361497	0.220507
O12	O	0.846486	-0.361064	0.329838
O13	O	0.952340	-0.465126	0.534630
O14	O	0.842981	-0.455506	0.416131
O15	O	1.038704	-0.377972	0.538122
O16	O	1.046590	-0.580914	0.337850
O17	O	0.956826	-0.580586	0.420689
C18	C	0.819237	-0.407161	0.371959
C19	C	0.741133	-0.403733	0.368833
C20	C	1.001711	-0.607621	0.379280
C21	C	1.001735	-0.689937	0.379296
C22	C	0.702636	-0.451363	0.412222
C23	C	0.629249	-0.448133	0.409288
C24	C	0.594361	-0.397276	0.362962
C25	C	0.632863	-0.349642	0.319571
C26	C	0.706248	-0.352869	0.322509
C27	C	0.375075	-0.382341	0.349369
C28	C	0.301684	-0.379119	0.346433
C29	C	0.298076	-0.477610	0.436152
C30	C	0.371463	-0.480836	0.439082
C31	C	0.409959	-0.433198	0.395694
N32	N	0.519348	-0.393975	0.359960
N33	N	0.484970	-0.436497	0.398700
C34	C	1.001887	-0.989036	0.379340
C35	C	0.945531	-0.957547	0.431600
C36	C	0.945280	-0.871910	0.431419
C37	C	1.001811	-0.840650	0.379319
C38	C	0.984741	-0.867911	0.304458
C39	C	0.984379	-0.953554	0.304770
C40	C	1.075459	-0.961424	0.401293
C41	C	1.074956	-0.875820	0.402900
C42	C	1.001770	-0.756788	0.379302
C43	C	1.001927	-1.072898	0.379351
C44	C	1.185084	-0.423303	0.386679
C45	C	1.263188	-0.426749	0.389822
C46	C	0.994474	-0.422606	0.562585
C47	C	0.991350	-0.425755	0.640688
C48	C	1.001916	-0.222060	0.379345
C49	C	1.001964	-0.139749	0.379363
C50	C	1.009146	-0.407803	0.196739
C51	C	1.012406	-0.404451	0.118642
C52	C	1.034846	-0.381860	0.679200
C53	C	1.031902	-0.384816	0.752586
C54	C	0.985466	-0.431671	0.787458
C55	C	0.941966	-0.475568	0.748941
C56	C	0.944906	-0.472608	0.675556
C57	C	0.971847	-0.445387	1.006740
C58	C	0.968911	-0.448346	1.080130
C59	C	1.058847	-0.357593	1.083770
C60	C	1.061786	-0.354640	1.010384
C61	C	1.018283	-0.398533	0.971872
N62	N	0.982458	-0.434696	0.862471
N63	N	1.021289	-0.395505	0.896861
H64	H	0.731037	-0.492778	0.449944
C65	C	1.134360	-0.847407	0.355545
N66	N	1.179102	-0.826008	0.319871
H67	H	1.087883	-0.858335	0.458008
C68	C	0.417411	-0.329943	0.301636
N69	N	0.449301	-0.290475	0.265680
H70	H	0.891266	-0.976217	0.416994
C71	C	1.038622	-0.840374	0.250241
N72	N	1.079205	-0.819631	0.209406
H73	H	0.597908	-0.486918	0.444619
C74	C	0.897059	-0.520897	0.633193
N75	N	0.861017	-0.557269	0.601286
C76	C	0.594483	-0.293697	0.268613
N77	N	0.565575	-0.251560	0.230229
C78	C	1.132133	-0.989011	0.349925
N79	N	1.174816	-1.009795	0.311233
H80	H	1.094263	-0.321856	1.115133
H81	H	1.072661	-0.343708	0.650813
H82	H	1.099601	-0.316487	0.981996
C83	C	0.409835	-0.536785	0.490041
N84	N	0.438737	-0.578930	0.528422
C85	C	0.263309	-0.323170	0.295469
N86	N	0.234404	-0.281032	0.257084
C87	C	0.255725	-0.530002	0.483880
N88	N	0.223826	-0.569464	0.519834
H89	H	0.737591	-0.314080	0.287181
C90	C	0.959239	-0.847210	0.506283
N91	N	0.969750	-0.828610	0.562675
H92	H	0.955734	-0.980878	0.487188
H93	H	0.890687	-0.848550	0.416642
C94	C	0.911842	-0.976519	0.280119
N95	N	0.857205	-0.993812	0.261554
H96	H	1.023807	-0.974230	0.264344
C97	C	0.912996	-0.834933	0.279446
N98	N	0.858954	-0.810097	0.260611
C99	C	1.097265	-0.994529	0.473998
N100	N	1.113682	-1.019463	0.528761
C101	C	1.079752	-0.336530	0.794946
N102	N	1.115795	-0.300158	0.826852
C103	C	0.917823	-0.499890	1.118487
N104	N	0.879346	-0.538711	1.147379
C105	C	0.923989	-0.493669	0.964387
N106	N	0.887940	-0.530036	0.932484
H107	H	0.904154	-0.513715	0.777340
