data_functionalizedCrystal
_audit_creation_method	'MofGen! by Chris Wilmer'
_symmetry_space_group_name_H-M	'P1'
_symmetry_Int_Tables_number	1
_symmetry_cell_setting	triclinic
loop_
_symmetry_equiv_pos_as_xyz
  x,y,z
_cell_length_a	18.101398
_cell_length_b	29.839131
_cell_length_c	18.101389
_cell_angle_alpha	90.021287
_cell_angle_beta	90.024327
_cell_angle_gamma	90.036686
loop_
_atom_site_label
_atom_site_type_symbol
_atom_site_fract_x
_atom_site_fract_y
_atom_site_fract_z
Zn1	Zn	1.132068	-0.178957	0.418824
Zn2	Zn	1.632068	0.321043	0.918824
Zn3	Zn	1.131941	-0.254074	0.294976
Zn4	Zn	1.631941	0.245926	0.794976
Zn5	Zn	1.008227	-0.178952	0.294985
Zn6	Zn	1.508227	0.321048	0.794985
Zn7	Zn	1.008155	-0.254055	0.418765
Zn8	Zn	1.508155	0.245945	0.918765
O9	O	1.070098	-0.216510	0.356887
O10	O	1.570098	0.283490	0.856887
O11	O	1.235684	-0.188932	0.402416
O12	O	1.735684	0.311068	0.902416
O13	O	1.115507	-0.244115	0.191344
O14	O	1.615507	0.255885	0.691344
O15	O	1.024737	-0.116086	0.311441
O16	O	1.524737	0.383914	0.811441
O17	O	1.235591	-0.244119	0.311426
O18	O	1.735591	0.255881	0.811426
O19	O	1.115723	-0.116089	0.402425
O20	O	1.615723	0.383911	0.902425
O21	O	1.024615	-0.188924	0.191351
O22	O	1.524615	0.311076	0.691351
O23	O	0.904584	-0.188905	0.311384
O24	O	1.404584	0.311095	0.811384
O25	O	1.024615	-0.244087	0.522406
O26	O	1.524615	0.255913	1.022406
O27	O	0.904532	-0.244082	0.402324
O28	O	1.404532	0.255918	0.902324
O29	O	1.115654	-0.188913	0.522449
O30	O	1.615654	0.311087	1.022449
O31	O	1.115438	-0.316938	0.311369
O32	O	1.615438	0.183062	0.811369
O33	O	1.024493	-0.316924	0.402315
O34	O	1.524493	0.183076	0.902315
C35	C	0.877687	-0.216491	0.356849
C36	C	1.377687	0.283509	0.856849
C37	C	0.795373	-0.216494	0.356850
C38	C	1.295373	0.283506	0.856850
C39	C	0.496282	-0.216522	0.356912
C40	C	0.996282	0.283478	0.856912
C41	C	0.527616	-0.181633	0.299974
C42	C	1.027616	0.318367	0.799974
C43	C	0.613234	-0.181726	0.299731
C44	C	1.113234	0.318274	0.799731
C45	C	0.644665	-0.216508	0.356881
C46	C	1.144665	0.283492	0.856881
C47	C	0.613533	-0.263830	0.335553
C48	C	1.113533	0.236170	0.835553
C49	C	0.527888	-0.263636	0.335157
C50	C	1.027888	0.236364	0.835157
C51	C	0.527900	-0.204501	0.435313
C52	C	1.027900	0.295499	0.935313
C53	C	0.613552	-0.203447	0.434885
C54	C	1.113552	0.296553	0.934885
C55	C	0.728524	-0.216503	0.356865
C56	C	1.228524	0.283497	0.856865
C57	C	0.412423	-0.216531	0.356926
C58	C	0.912423	0.283469	0.856926
C59	C	1.069964	-0.333232	0.356851
C60	C	1.569964	0.166768	0.856851
C61	C	1.069975	-0.383167	0.356860
C62	C	1.569975	0.116833	0.856860
C63	C	1.117539	-0.692805	0.309601
C64	C	1.617539	-0.192805	0.809601
C65	C	1.117631	-0.880478	0.309629
C66	C	1.617631	-0.380478	0.809629
O67	O	1.157965	-0.904738	0.269420
O68	O	1.657965	-0.404738	0.769420
N69	N	1.070251	-0.903952	0.356943
N70	N	1.570251	-0.403952	0.856943
C71	C	1.022849	-0.880504	0.404257
C72	C	1.522849	-0.380504	0.904257
O73	O	0.982558	-0.904777	0.444506
O74	O	1.482558	-0.404777	0.944506
C75	C	1.022762	-0.692832	0.404231
C76	C	1.522762	-0.192832	0.904231
C77	C	1.070139	-0.669361	0.356909
C78	C	1.570139	-0.169361	0.856909
C79	C	1.164913	-0.669333	0.262283
C80	C	1.664913	-0.169333	0.762283
C81	C	1.164887	-0.622418	0.262273
C82	C	1.664887	-0.122418	0.762273
C83	C	1.117487	-0.598974	0.309582
C84	C	1.617487	-0.098974	0.809582
C85	C	1.070113	-0.622445	0.356899
C86	C	1.570113	-0.122445	0.856899
C87	C	0.975365	-0.669386	0.451548
C88	C	1.475365	-0.169386	0.951548
C89	C	0.975348	-0.622465	0.451539
C90	C	1.475348	-0.122465	0.951539
C91	C	1.022725	-0.598993	0.404217
C92	C	1.522725	-0.098993	0.904217
C93	C	1.022687	-0.552086	0.404198
C94	C	1.522687	-0.052086	0.904198
N95	N	1.070066	-0.528612	0.356884
N96	N	1.570066	-0.028612	0.856884
C97	C	1.117466	-0.552056	0.309576
C98	C	1.617466	-0.052056	0.809576
C99	C	1.022898	-0.979035	0.404266
C100	C	1.522898	-0.479035	0.904266
C101	C	1.022918	-1.025953	0.404272
C102	C	1.522918	-0.525953	0.904272
C103	C	1.117700	-1.025923	0.309645
C104	C	1.617700	-0.525923	0.809645
C105	C	1.117675	-0.979004	0.309636
C106	C	1.617675	-0.479004	0.809636
C107	C	1.070277	-0.955561	0.356952
C108	C	1.570277	-0.455561	0.856952
C109	C	1.117407	-0.453530	0.309559
C110	C	1.617407	0.046470	0.809559
C111	C	1.117374	-0.406610	0.309551
C112	C	1.617374	0.093390	0.809551
C113	C	1.022595	-0.406645	0.404181
C114	C	1.522595	0.093355	0.904181
C115	C	1.022625	-0.453560	0.404186
C116	C	1.522625	0.046440	0.904186
C117	C	1.070037	-0.477002	0.356872
C118	C	1.570037	0.022998	0.856872
O119	O	0.982379	-0.527797	0.444393
O120	O	1.482379	-0.027797	0.944393
O121	O	1.157763	-0.527776	0.269344
O122	O	1.657763	-0.027776	0.769344
C123	C	1.117565	-0.739720	0.309610
C124	C	1.617565	-0.239720	0.809610
C125	C	1.070192	-0.763192	0.356928
C126	C	1.570192	-0.263192	0.856928
C127	C	1.022792	-0.739748	0.404236
C128	C	1.522792	-0.239748	0.904236
C129	C	1.070212	-0.810109	0.356934
C130	C	1.570212	-0.310109	0.856934
C131	C	1.117612	-0.833553	0.309625
C132	C	1.617612	-0.333553	0.809625
C133	C	1.164991	-0.810079	0.262311
C134	C	1.664991	-0.310079	0.762311
C135	C	1.164965	-0.763164	0.262302
C136	C	1.664965	-0.263164	0.762302
C137	C	0.975413	-0.763222	0.451550
C138	C	1.475413	-0.263222	0.951550
C139	C	0.975442	-0.810137	0.451556
C140	C	1.475442	-0.310137	0.951556
C141	C	1.022842	-0.833581	0.404247
C142	C	1.522842	-0.333581	0.904247
C143	C	1.263260	-0.216528	0.356927
C144	C	1.763260	0.283472	0.856927
C145	C	1.345574	-0.216536	0.356943
C146	C	1.845574	0.283464	0.856943
C147	C	1.070141	-0.216498	0.550049
C148	C	1.570141	0.283502	1.050049
C149	C	1.070159	-0.216493	0.632364
C150	C	1.570159	0.283507	1.132364
C151	C	1.070252	-0.099331	0.356941
C152	C	1.570252	0.400669	0.856941
C153	C	1.070318	-0.049397	0.356963
C154	C	1.570318	0.450603	0.856963
C155	C	1.070098	-0.216488	0.164477
C156	C	1.570098	0.283512	0.664477
C157	C	1.070223	-0.216367	0.082163
C158	C	1.570223	0.283633	0.582163
C159	C	1.070202	-0.216409	0.931455
C160	C	1.570202	0.283591	1.431455
C161	C	1.012726	-0.251013	0.900102
C162	C	1.512726	0.248987	1.400102
C163	C	1.012881	-0.251173	0.814484
C164	C	1.512881	0.248827	1.314484
C165	C	1.070180	-0.216451	0.783072
C166	C	1.570180	0.283549	1.283072
C167	C	1.148202	-0.229306	0.814177
C168	C	1.648202	0.270694	1.314177
C169	C	1.147881	-0.229533	0.899822
C170	C	1.647881	0.270467	1.399822
C171	C	1.050335	-0.168874	0.899883
C172	C	1.550335	0.331126	1.399883
C173	C	1.048599	-0.169148	0.814232
C174	C	1.548599	0.330852	1.314232
C175	C	1.070172	-0.216474	0.699213
C176	C	1.570172	0.283526	1.199213
C177	C	1.070215	-0.216387	1.015314
C178	C	1.570215	0.283613	1.515314
H179	H	0.507056	-0.146434	0.313196
H180	H	1.007056	0.353566	0.813196
H181	H	0.634944	-0.274203	0.278857
H182	H	1.134944	0.225797	0.778857
H183	H	0.936856	-0.829244	0.490090
H184	H	1.436856	-0.329244	0.990090
C185	C	0.934720	-0.240304	0.786069
C186	C	1.434720	0.259696	1.286069
N187	N	0.875845	-0.232119	0.764670
N188	N	1.375845	0.267881	1.264670
C189	C	0.498778	-0.158693	0.461505
C190	C	0.998778	0.341307	0.961505
N191	N	0.476846	-0.124187	0.481224
N192	N	0.976846	0.375813	0.981224
H193	H	0.954696	-0.243050	0.920689
H194	H	1.454696	0.256950	1.420689
H195	H	0.633889	-0.290522	0.375726
H196	H	1.133889	0.209478	0.875726
C197	C	0.641040	-0.156399	0.456608
C198	C	1.141040	0.343601	0.956608
N199	N	0.661746	-0.120961	0.472967
N200	N	1.161746	0.379039	0.972967
C201	C	1.207705	-0.196970	0.927846
C202	C	1.707705	0.303030	1.427846
N203	N	1.252768	-0.172448	0.948950
N204	N	1.752768	0.327552	1.448950
C205	C	0.500847	-0.277405	0.257725
C206	C	1.000847	0.222595	0.757725
N207	N	0.480483	-0.287773	0.199400
N208	N	0.980483	0.212227	0.699400
C209	C	1.101018	-0.132467	0.785333
C210	C	1.601018	0.367533	1.285333
N211	N	1.140502	-0.104838	0.763561
N212	N	1.640502	0.395162	1.263561
H213	H	0.991182	-0.159454	0.793901
H214	H	1.491182	0.340546	1.293901
C215	C	0.499880	-0.299945	0.388734
C216	C	0.999880	0.200055	0.888734
N217	N	0.478788	-0.327294	0.429084
N218	N	0.978788	0.172706	0.929084
C219	C	0.970793	-1.051766	0.456323
C220	C	1.470793	-0.551766	0.956323
N221	N	0.931533	-1.071207	0.495533
N222	N	1.431533	-0.571207	0.995533
C223	C	0.641675	-0.134317	0.317782
C224	C	1.141675	0.365683	0.817782
N225	N	0.663093	-0.098606	0.331374
N226	N	1.163093	0.401394	0.831374
C227	C	0.498489	-0.192240	0.221950
C228	C	0.998489	0.307760	0.721950
N229	N	0.476549	-0.200230	0.163183
N230	N	0.976549	0.299770	0.663183
H231	H	1.092198	-0.143093	0.920161
H232	H	1.592198	0.356907	1.420161
H233	H	0.507636	-0.229913	0.477737
H234	H	1.007636	0.270087	0.977737
H235	H	1.164725	-0.264282	0.919802
H236	H	1.664725	0.235718	1.419802
H237	H	0.634950	-0.227008	0.479581
H238	H	1.134950	0.272992	0.979581
C239	C	0.923286	-0.737440	0.503616
C240	C	1.423286	-0.237440	1.003616
N241	N	0.884026	-0.718023	0.542841
N242	N	1.384026	-0.218023	1.042841
C243	C	1.169491	-0.380795	0.257487
C244	C	1.669491	0.119205	0.757487
N245	N	1.208744	-0.361352	0.218273
N246	N	1.708744	0.138648	0.718273
H247	H	1.203467	-0.603310	0.223741
H248	H	1.703467	-0.103310	0.723741
H249	H	1.025997	-0.286408	0.793999
H250	H	1.525997	0.213592	1.293999
C251	C	1.207611	-0.196330	0.786690
C252	C	1.707611	0.303670	1.286690
N253	N	1.252357	-0.171492	0.765984
N254	N	1.752357	0.328508	1.265984
C255	C	0.640866	-0.192464	0.221249
C256	C	1.140866	0.307536	0.721249
N257	N	0.661677	-0.200554	0.162134
N258	N	1.161677	0.299446	0.662134
H259	H	1.156016	-0.472611	0.271034
H260	H	1.656016	0.027389	0.771034
C261	C	1.030274	-0.298324	0.929167
C262	C	1.530274	0.201676	1.429167
N263	N	1.043497	-0.333960	0.951055
N264	N	1.543497	0.166040	1.451055
H265	H	1.156295	-1.045019	0.271125
H266	H	1.656295	-0.545019	0.771125
H267	H	1.203515	-0.688416	0.223758
H268	H	1.703515	-0.188416	0.723758
C269	C	1.169796	-0.953190	0.257581
C270	C	1.669796	-0.453190	0.757581
N271	N	1.209056	-0.933749	0.218371
N272	N	1.709056	-0.433749	0.718371
C273	C	0.970771	-0.953253	0.456340
C274	C	1.470771	-0.453253	0.956340
N275	N	0.931515	-0.933837	0.495569
N276	N	1.431515	-0.433837	0.995569
C277	C	1.171350	-0.275753	0.785211
C278	C	1.671350	0.224247	1.285211
N279	N	1.188781	-0.310738	0.763397
N280	N	1.688781	0.189262	1.263397
C281	C	1.217081	-0.737352	0.210240
C282	C	1.717081	-0.237352	0.710240
N283	N	1.256338	-0.717912	0.171024
N284	N	1.756338	-0.217912	0.671024
C285	C	0.923205	-0.596680	0.503592
C286	C	1.423205	-0.096680	1.003592
N287	N	0.883929	-0.577260	0.542797
N288	N	1.383929	-0.077260	1.042797
H289	H	0.994431	-0.157163	0.921470
H290	H	1.494431	0.342837	1.421470
H291	H	0.984049	-0.472671	0.442722
H292	H	1.484049	0.027329	0.942722
C293	C	0.970461	-0.380847	0.456220
C294	C	1.470461	0.119153	0.956220
N295	N	0.931198	-0.361415	0.495421
N296	N	1.431198	0.138585	0.995421
C297	C	1.217130	-0.835877	0.210271
C298	C	1.717130	-0.335877	0.710271
N299	N	1.256402	-0.855310	0.171079
N300	N	1.756402	-0.355310	0.671079
H301	H	0.936782	-0.688488	0.490080
H302	H	1.436782	-0.188488	0.990080
