data_functionalizedCrystal
_audit_creation_method	'MofGen! by Chris Wilmer'
_symmetry_space_group_name_H-M	'P1'
_symmetry_Int_Tables_number	1
_symmetry_cell_setting	triclinic
loop_
_symmetry_equiv_pos_as_xyz
  x,y,z
_cell_length_a	18.101398
_cell_length_b	21.395361
_cell_length_c	21.395355
_cell_angle_alpha	90.021511
_cell_angle_beta	89.970130
_cell_angle_gamma	89.974026
loop_
_atom_site_label
_atom_site_type_symbol
_atom_site_fract_x
_atom_site_fract_y
_atom_site_fract_z
Zn1	Zn	1.132164	0.249590	-0.354337
Zn2	Zn	1.632164	0.749590	0.145663
Zn3	Zn	1.132048	0.354350	-0.249554
Zn4	Zn	1.632048	0.854350	0.250446
Zn5	Zn	1.008310	0.249582	-0.249564
Zn6	Zn	1.508310	0.749582	0.250436
Zn7	Zn	1.008274	0.354325	-0.354285
Zn8	Zn	1.508274	0.854325	0.145715
O9	O	1.070199	0.301962	-0.301935
O10	O	1.570199	0.801962	0.198065
O11	O	1.235781	0.263501	-0.340455
O12	O	1.735781	0.763501	0.159545
O13	O	1.115601	0.340459	-0.161878
O14	O	1.615601	0.840459	0.338122
O15	O	1.024803	0.161905	-0.263489
O16	O	1.524803	0.661905	0.236511
O17	O	1.235696	0.340467	-0.263472
O18	O	1.735696	0.840467	0.236528
O19	O	1.115798	0.161911	-0.340465
O20	O	1.615798	0.661911	0.159535
O21	O	1.024692	0.263486	-0.161885
O22	O	1.524692	0.763486	0.338115
O23	O	0.904673	0.263462	-0.263438
O24	O	1.404673	0.763462	0.236562
O25	O	1.024741	0.340425	-0.441970
O26	O	1.524741	0.840425	0.058030
O27	O	0.904646	0.340417	-0.340376
O28	O	1.404646	0.840417	0.159624
O29	O	1.115762	0.263477	-0.442008
O30	O	1.615762	0.763477	0.057992
O31	O	1.115566	0.442025	-0.263421
O32	O	1.615566	0.942025	0.236579
O33	O	1.024629	0.442006	-0.340366
O34	O	1.524629	0.942006	0.159634
C35	C	0.877789	0.301936	-0.301902
C36	C	1.377789	0.801936	0.198098
C37	C	0.795474	0.301941	-0.301903
C38	C	1.295474	0.801941	0.198097
C39	C	1.070101	0.464749	-0.301900
C40	C	1.570101	0.964749	0.198100
C41	C	1.070127	0.534391	-0.301906
C42	C	1.570127	1.034391	0.198094
C43	C	1.070261	0.301949	-0.465358
C44	C	1.570261	0.801949	0.034642
C45	C	1.070287	0.301944	-0.535000
C46	C	1.570287	0.801944	-0.035000
C47	C	0.496383	0.301980	-0.301956
C48	C	0.996383	0.801980	0.198044
C49	C	0.527701	0.253320	-0.253785
C50	C	1.027701	0.753320	0.246215
C51	C	0.613319	0.253450	-0.253579
C52	C	1.113319	0.753450	0.246421
C53	C	0.644766	0.301960	-0.301930
C54	C	1.144766	0.801960	0.198070
C55	C	0.613646	0.367957	-0.283884
C56	C	1.113646	0.867957	0.216116
C57	C	0.528001	0.367687	-0.283549
C58	C	1.028001	0.867687	0.216451
C59	C	0.528006	0.285215	-0.368286
C60	C	1.028006	0.785215	0.131714
C61	C	0.613656	0.283746	-0.367925
C62	C	1.113656	0.783746	0.132075
C63	C	0.728626	0.301953	-0.301916
C64	C	1.228626	0.801953	0.198084
C65	C	0.412524	0.301991	-0.301968
C66	C	0.912524	0.801991	0.198032
C67	C	1.263361	0.301988	-0.301968
C68	C	1.763361	0.801988	0.198032
C69	C	1.345675	0.301999	-0.301982
C70	C	1.845675	0.801999	0.198018
C71	C	1.070317	0.138538	-0.301984
C72	C	1.570317	0.638538	0.198016
C73	C	1.070368	0.068897	-0.302005
C74	C	1.570368	0.568897	0.197995
C75	C	1.117520	0.567092	-0.261882
C76	C	1.617520	1.067092	0.238118
C77	C	1.117554	0.632528	-0.261896
C78	C	1.617554	1.132528	0.238104
C79	C	1.070183	0.665259	-0.301928
C80	C	1.570183	1.165259	0.198072
C81	C	1.022787	0.632549	-0.341960
C82	C	1.522787	1.132549	0.158040
C83	C	1.022759	0.567115	-0.341949
C84	C	1.522759	1.067115	0.158051
C85	C	1.003502	0.768969	-0.306832
C86	C	1.503502	1.268969	0.193168
C87	C	1.003529	0.834402	-0.306839
C88	C	1.503529	1.334402	0.193161
C89	C	1.070269	0.867080	-0.301965
C90	C	1.570269	1.367080	0.198035
C91	C	1.136985	0.834316	-0.297071
C92	C	1.636985	1.334316	0.202929
C93	C	1.136957	0.768882	-0.297060
C94	C	1.636957	1.268882	0.202940
C95	C	1.070208	0.736211	-0.301944
C96	C	1.570208	1.236211	0.198056
C97	C	1.117703	0.970734	-0.261953
C98	C	1.617703	1.470734	0.238047
C99	C	1.117739	1.036171	-0.261972
C100	C	1.617739	1.536171	0.238028
C101	C	1.022965	1.036191	-0.342032
C102	C	1.522965	1.536191	0.157968
C103	C	1.022936	0.970755	-0.342017
C104	C	1.522936	1.470755	0.157983
C105	C	1.070304	0.938031	-0.301974
C106	C	1.570304	1.438031	0.198026
C107	C	1.117679	0.261875	-0.567734
C108	C	1.617679	0.761875	-0.067734
C109	C	1.117678	0.261848	-0.633169
C110	C	1.617678	0.761848	-0.133169
C111	C	1.070293	0.301901	-0.665868
C112	C	1.570293	0.801901	-0.165868
C113	C	1.022891	0.341973	-0.633126
C114	C	1.522891	0.841973	-0.133126
C115	C	1.022888	0.341994	-0.567692
C116	C	1.522888	0.841994	-0.067692
C117	C	1.064411	0.358316	-0.769530
C118	C	1.564411	0.858316	-0.269530
C119	C	1.064419	0.358296	-0.834963
C120	C	1.564419	0.858296	-0.334963
C121	C	1.070297	0.301835	-0.867689
C122	C	1.570297	0.801835	-0.367689
C123	C	1.076183	0.245393	-0.834974
C124	C	1.576183	0.745393	-0.334974
C125	C	1.076180	0.245414	-0.769540
C126	C	1.576180	0.745414	-0.269540
C127	C	1.070290	0.301882	-0.736821
C128	C	1.570290	0.801882	-0.236821
C129	C	1.117691	0.261734	-0.971376
C130	C	1.617691	0.761734	-0.471376
C131	C	1.117685	0.261706	-1.036812
C132	C	1.617685	0.761706	-0.536812
C133	C	1.022901	0.341836	-1.036768
C134	C	1.522901	0.841836	-0.536768
C135	C	1.022904	0.341858	-0.971332
C136	C	1.522904	0.841858	-0.471332
C137	C	1.070302	0.301808	-0.938640
C138	C	1.570302	0.801808	-0.438640
C139	C	1.070180	0.301929	-0.139148
C140	C	1.570180	0.801929	0.360852
C141	C	1.070298	0.301758	-0.069507
C142	C	1.570298	0.801758	0.430493
H143	H	0.634360	0.204510	-0.264892
H144	H	1.134360	0.704510	0.235108
H145	H	0.506435	0.237928	-0.384693
H146	H	1.006435	0.737928	0.115307
H147	H	0.984292	0.374622	-0.541040
H148	H	1.484292	0.874622	-0.041040
H149	H	0.506146	0.264276	-0.204921
H150	H	1.006146	0.764276	0.295079
N151	N	1.168780	0.218669	-0.532467
N152	N	1.668780	0.718669	-0.032467
H153	H	1.203080	0.244140	-0.505326
H154	H	1.703080	0.744140	-0.005326
H155	H	1.198754	0.193283	-0.563171
H156	H	1.698754	0.693283	-0.063171
N157	N	0.642005	0.327271	-0.418019
N158	N	1.142005	0.827271	0.081981
H159	H	0.697713	0.325080	-0.419571
H160	H	1.197713	0.825080	0.080429
H161	H	0.626136	0.371451	-0.408159
H162	H	1.126136	0.871451	0.091841
H163	H	1.059631	0.404254	-0.861595
H164	H	1.559631	0.904254	-0.361595
H165	H	0.633767	0.264532	-0.204429
H166	H	1.133767	0.764532	0.295571
N167	N	1.168799	0.218628	-0.668482
N168	N	1.668799	0.718628	-0.168482
H169	H	1.221703	0.228376	-0.657116
H170	H	1.721703	0.728376	-0.157116
H171	H	1.161546	0.224713	-0.714884
H172	H	1.661546	0.724713	-0.214884
N173	N	1.168810	0.218544	-0.936104
N174	N	1.668810	0.718544	-0.436104
H175	H	1.157347	0.173768	-0.947477
H176	H	1.657347	0.673768	-0.447477
H177	H	1.161592	0.224702	-0.889697
H178	H	1.661592	0.724702	-0.389697
H179	H	1.080970	0.199457	-0.742905
H180	H	1.580970	0.699457	-0.242905
H181	H	0.984311	0.374441	-1.063390
H182	H	1.484311	0.874441	-0.563390
H183	H	0.634002	0.235179	-0.381532
H184	H	1.134002	0.735179	0.118468
H185	H	0.507984	0.381906	-0.235058
H186	H	1.007984	0.881906	0.264942
N187	N	0.501185	0.332160	-0.415833
N188	N	1.001185	0.832160	0.084167
H189	H	0.468710	0.364134	-0.394546
H190	H	0.968710	0.864134	0.105454
H191	H	0.471945	0.309906	-0.449303
H192	H	0.971945	0.809906	0.050697
N193	N	1.168855	1.071443	-0.218796
N194	N	1.668855	1.571443	0.281204
H195	H	1.161689	1.117862	-0.224880
H196	H	1.661689	1.617862	0.275120
H197	H	1.221736	1.059962	-0.228586
H198	H	1.721736	1.559962	0.271414
H199	H	0.507131	0.204230	-0.264973
H200	H	1.007131	0.704230	0.235027
H201	H	1.156277	0.229073	-1.063464
H202	H	1.656277	0.729073	-0.563464
H203	H	0.635056	0.382423	-0.235916
H204	H	1.135056	0.882423	0.264084
N205	N	0.640615	0.417258	-0.328918
N206	N	1.140615	0.917258	0.171082
H207	H	0.696362	0.418919	-0.327908
H208	H	1.196362	0.918919	0.172092
H209	H	0.619884	0.459275	-0.316411
H210	H	1.119884	0.959275	0.183589
N211	N	1.208975	0.869552	-0.291810
N212	N	1.708975	1.369552	0.208190
H213	H	1.215914	0.896672	-0.329991
H214	H	1.715914	1.396672	0.170009
H215	H	1.251186	0.838827	-0.288687
H216	H	1.751186	1.338827	0.211313
N217	N	0.931511	0.733730	-0.312080
N218	N	1.431511	1.233730	0.187920
H219	H	0.941615	0.687307	-0.311330
H220	H	1.441615	1.187307	0.188670
H221	H	0.906319	0.745160	-0.352605
H222	H	1.406319	1.245160	0.147395
N223	N	0.971690	0.667844	-0.385138
N224	N	1.471690	1.167844	0.114862
H225	H	1.001779	0.694959	-0.414202
H226	H	1.501779	1.194959	0.085798
H227	H	0.937405	0.694991	-0.359606
H228	H	1.437405	1.194991	0.140394
N229	N	1.208911	0.733545	-0.291799
N230	N	1.708911	1.233545	0.208201
H231	H	1.198763	0.687135	-0.292535
H232	H	1.698763	1.187135	0.207465
H233	H	1.234115	0.744981	-0.251278
H234	H	1.734115	1.244981	0.248722
H235	H	1.156275	0.944089	-0.229350
H236	H	1.656275	1.444089	0.270650
N237	N	1.168618	0.531797	-0.218704
N238	N	1.668618	1.031797	0.281296
H239	H	1.198650	0.562447	-0.193354
H240	H	1.698650	1.062447	0.306646
H241	H	1.202862	0.504616	-0.244240
H242	H	1.702862	1.004616	0.255760
H243	H	1.059426	0.404281	-0.742891
H244	H	1.559426	0.904281	-0.242891
N245	N	0.971876	1.071484	-0.385215
N246	N	1.471876	1.571484	0.114785
H247	H	0.979086	1.117899	-0.379151
H248	H	1.479086	1.617899	0.120849
H249	H	0.918985	1.060090	-0.375418
H250	H	1.418985	1.560090	0.124582
H251	H	0.984306	0.374582	-0.659754
H252	H	1.484306	0.874582	-0.159754
N253	N	1.168673	0.667810	-0.218727
N254	N	1.668673	1.167810	0.281273
H255	H	1.198677	0.637150	-0.193359
H256	H	1.698677	1.137150	0.306641
H257	H	1.138550	0.694994	-0.189713
H258	H	1.638550	1.194994	0.310287
N259	N	0.971814	0.935479	-0.385182
N260	N	1.471814	1.435479	0.114818
H261	H	0.941807	0.966141	-0.410544
H262	H	1.441807	1.466141	0.089456
H263	H	0.937547	0.908369	-0.359641
H264	H	1.437547	1.408369	0.140359
H265	H	0.984166	0.540489	-0.374542
H266	H	1.484166	1.040489	0.125458
H267	H	0.949205	0.861074	-0.310817
H268	H	1.449205	1.361074	0.189183
H269	H	0.984316	0.374490	-0.944680
H270	H	1.484316	0.874490	-0.444680
N271	N	0.500550	0.417333	-0.327995
N272	N	1.000550	0.917333	0.172005
H273	H	0.544087	0.439298	-0.347715
H274	H	1.044087	0.939298	0.152285
H275	H	0.469586	0.448658	-0.304274
H276	H	0.969586	0.948658	0.195726
N277	N	1.082530	0.184490	-0.870260
N278	N	1.582530	0.684490	-0.370260
H279	H	1.081636	0.193038	-0.916676
H280	H	1.581636	0.693038	-0.416676
H281	H	1.039726	0.156475	-0.858804
H282	H	1.539726	0.656475	-0.358804
