data_functionalizedCrystal
_audit_creation_method	'MofGen! by Chris Wilmer'
_symmetry_space_group_name_H-M	'P1'
_symmetry_Int_Tables_number	1
_symmetry_cell_setting	triclinic
loop_
_symmetry_equiv_pos_as_xyz
  x,y,z
_cell_length_a	27.731993
_cell_length_b	27.732048
_cell_length_c	26.210047
_cell_angle_alpha	90.000479
_cell_angle_beta	89.997422
_cell_angle_gamma	82.631525
loop_
_atom_site_label
_atom_site_type_symbol
_atom_site_fract_x
_atom_site_fract_y
_atom_site_fract_z
O1	O	0.640948	0.057384	0.042297
O2	O	1.140948	0.557384	0.542297
O3	O	0.500151	0.066158	0.042329
O4	O	1.000151	0.566158	0.542329
O5	O	0.574923	-0.008627	0.042302
O6	O	1.074923	0.491373	0.542302
O7	O	0.566177	0.132169	0.042324
O8	O	1.066177	0.632169	0.542324
O9	O	0.574908	-0.008615	-0.042556
O10	O	1.074908	0.491385	0.457444
O11	O	0.500137	0.066169	-0.042529
O12	O	1.000137	0.566169	0.457471
O13	O	0.640934	0.057396	-0.042561
O14	O	1.140934	0.557396	0.457439
Cu15	Cu	0.570534	0.061784	-0.050293
Cu16	Cu	1.070534	0.561784	0.449707
Cu17	Cu	0.570551	0.061770	0.050061
Cu18	Cu	1.070551	0.561770	0.550061
O19	O	0.566163	0.132180	-0.042534
O20	O	1.066163	0.632180	0.457466
C21	C	0.482137	0.065983	-0.000096
C22	C	0.982137	0.565983	0.499904
C23	C	0.428480	0.065441	-0.000084
C24	C	0.928480	0.565441	0.499916
C25	C	0.045328	0.061504	0.046147
C26	C	0.545328	0.561504	0.546147
C27	C	0.246985	0.063571	0.046161
C28	C	0.746985	0.563571	0.546161
O29	O	0.273065	0.063813	0.085501
O30	O	0.773065	0.563813	0.585501
N31	N	0.272198	0.063836	-0.000094
N32	N	0.772198	0.563836	0.499906
C33	C	0.246993	0.063581	-0.046356
C34	C	0.746993	0.563581	0.453644
O35	O	0.273066	0.063849	-0.085699
O36	O	0.773066	0.563849	0.414301
C37	C	0.045337	0.061511	-0.046370
C38	C	0.545337	0.561511	0.453630
C39	C	0.020127	0.061251	-0.000112
C40	C	0.520127	0.561251	0.499888
C41	C	0.020118	0.061243	0.092401
C42	C	0.520118	0.561243	0.592401
C43	C	-0.030294	0.060729	0.092397
C44	C	0.469706	0.560729	0.592397
C45	C	-0.055495	0.060476	0.046139
C46	C	0.444505	0.560476	0.546139
C47	C	-0.030285	0.060736	-0.000116
C48	C	0.469715	0.560736	0.499884
C49	C	0.020134	0.061252	-0.092631
C50	C	0.520134	0.561252	0.407369
C51	C	-0.030283	0.060733	-0.092630
C52	C	0.469717	0.560733	0.407370
C53	C	-0.055493	0.060473	-0.046372
C54	C	0.444507	0.560473	0.453628
C55	C	-0.105898	0.059969	-0.046378
C56	C	0.394102	0.559969	0.453622
N57	N	-0.131110	0.059704	-0.000123
N58	N	0.368890	0.559704	0.499877
C59	C	-0.105909	0.059957	0.046135
C60	C	0.394091	0.559957	0.546135
C61	C	0.352865	0.064669	-0.046346
C62	C	0.852865	0.564669	0.453654
C63	C	0.403279	0.065188	-0.046343
C64	C	0.903279	0.565188	0.453657
C65	C	0.403268	0.065177	0.046175
C66	C	0.903268	0.565177	0.546175
C67	C	0.352853	0.064662	0.046171
C68	C	0.852853	0.564662	0.546171
C69	C	0.327653	0.064404	-0.000091
C70	C	0.827653	0.564404	0.499909
C71	C	-0.211777	0.058878	0.046123
C72	C	0.288223	0.558878	0.546123
C73	C	-0.262194	0.058366	0.046115
C74	C	0.237806	0.558366	0.546115
C75	C	-0.262178	0.058375	-0.046402
C76	C	0.237822	0.558375	0.453598
C77	C	-0.211766	0.058889	-0.046394
C78	C	0.288234	0.558889	0.453606
C79	C	-0.186567	0.059139	-0.000127
C80	C	0.313433	0.559139	0.499873
O81	O	-0.132008	0.059721	-0.085698
O82	O	0.367992	0.559721	0.414302
O83	O	-0.131989	0.059679	0.085472
O84	O	0.368011	0.559679	0.585472
C85	C	0.095740	0.062018	0.046151
C86	C	0.595740	0.562018	0.546151
C87	C	0.120950	0.062279	-0.000104
C88	C	0.620950	0.562279	0.499896
C89	C	0.095749	0.062025	-0.046362
C90	C	0.595749	0.562025	0.453638
C91	C	0.171364	0.062797	-0.000101
C92	C	0.671364	0.562797	0.499899
C93	C	0.196565	0.063051	0.046158
C94	C	0.696565	0.563051	0.546158
C95	C	0.171353	0.062786	0.092413
C96	C	0.671353	0.562786	0.592413
C97	C	0.120941	0.062272	0.092409
C98	C	0.620941	0.562272	0.592409
C99	C	0.120961	0.062290	-0.092617
C100	C	0.620961	0.562290	0.407383
C101	C	0.171373	0.062805	-0.092609
C102	C	0.671373	0.562805	0.407391
C103	C	0.196574	0.063058	-0.046351
C104	C	0.696574	0.563058	0.453649
C105	C	0.574732	-0.026628	-0.000128
C106	C	1.074732	0.473372	0.499872
C107	C	0.574179	-0.080282	-0.000132
C108	C	1.074179	0.419718	0.499868
C109	C	0.614884	-0.419105	-0.000115
C110	C	1.114884	0.080895	0.499885
C111	C	0.612833	-0.620765	-0.000108
C112	C	1.112833	-0.120765	0.499892
O113	O	0.650055	-0.652028	-0.000094
O114	O	1.150055	-0.152028	0.499906
N115	N	0.568497	-0.639880	-0.000098
N116	N	1.068497	-0.139880	0.499902
C117	C	0.524670	-0.608576	-0.000087
C118	C	1.024670	-0.108576	0.499913
O119	O	0.486912	-0.629462	-0.000073
O120	O	0.986912	-0.129462	0.499927
C121	C	0.526721	-0.406918	-0.000091
C122	C	1.026721	0.093082	0.499909
C123	C	0.571061	-0.387806	-0.000106
C124	C	1.071061	0.112194	0.499894
C125	C	0.659220	-0.399993	-0.000129
C126	C	1.159220	0.100007	0.499871
C127	C	0.659732	-0.349581	-0.000134
C128	C	1.159732	0.150419	0.499866
C129	C	0.615909	-0.318282	-0.000124
C130	C	1.115909	0.181718	0.499876
C131	C	0.571573	-0.337394	-0.000110
C132	C	1.071573	0.162606	0.499890
C133	C	0.482895	-0.375616	-0.000076
C134	C	0.982895	0.124384	0.499924
C135	C	0.483412	-0.325199	-0.000076
C136	C	0.983412	0.174801	0.499924
C137	C	0.527751	-0.306087	-0.000091
C138	C	1.027751	0.193913	0.499909
C139	C	0.528262	-0.255683	-0.000105
C140	C	1.028262	0.244317	0.499895
N141	N	0.572598	-0.236568	-0.000115
N142	N	1.072598	0.263432	0.499885
C143	C	0.616422	-0.267867	-0.000124
C144	C	1.116422	0.232133	0.499876
C145	C	0.523596	-0.714450	-0.000086
C146	C	1.023596	-0.214450	0.499914
C147	C	0.523083	-0.764865	-0.000086
C148	C	1.023083	-0.264865	0.499914
C149	C	0.611246	-0.777049	-0.000105
C150	C	1.111246	-0.277049	0.499895
C151	C	0.611759	-0.726634	-0.000109
C152	C	1.111759	-0.226634	0.499891
C153	C	0.567932	-0.695335	-0.000095
C154	C	1.067932	-0.195335	0.499905
C155	C	0.617494	-0.161998	-0.000135
C156	C	1.117494	0.338002	0.499865
C157	C	0.618003	-0.111582	-0.000142
C158	C	1.118003	0.388418	0.499858
C159	C	0.529839	-0.099401	-0.000119
C160	C	1.029839	0.400599	0.499881
C161	C	0.529331	-0.149814	-0.000115
C162	C	1.029331	0.350186	0.499885
C163	C	0.573162	-0.181112	-0.000121
C164	C	1.073162	0.318888	0.499879
O165	O	0.491060	-0.224392	-0.000114
O166	O	0.991060	0.275608	0.499886
O167	O	0.654174	-0.246972	-0.000127
O168	O	1.154174	0.253028	0.499873
C169	C	0.614372	-0.469517	-0.000110
C170	C	1.114372	0.030483	0.499890
C171	C	0.570036	-0.488630	-0.000096
C172	C	1.070036	0.011370	0.499904
C173	C	0.526213	-0.457331	-0.000087
C174	C	1.026213	0.042669	0.499913
C175	C	0.569523	-0.539044	-0.000096
C176	C	1.069523	-0.039044	0.499904
C177	C	0.613346	-0.570343	-0.000106
C178	C	1.113346	-0.070343	0.499894
C179	C	0.657683	-0.551228	-0.000115
C180	C	1.157683	-0.051228	0.499885
C181	C	0.658195	-0.500817	-0.000120
C182	C	1.158195	-0.000817	0.499880
C183	C	0.481876	-0.476446	-0.000077
C184	C	0.981876	0.023554	0.499923
C185	C	0.481368	-0.526858	-0.000073
C186	C	0.981368	-0.026858	0.499927
C187	C	0.525191	-0.558157	-0.000083
C188	C	1.025191	-0.058157	0.499917
C189	C	0.658949	0.057570	-0.000135
C190	C	1.158949	0.557570	0.499865
C191	C	0.712605	0.058113	-0.000143
C192	C	1.212605	0.558113	0.499857
C193	C	0.566353	0.150181	-0.000103
C194	C	1.066353	0.650181	0.499897
C195	C	0.566906	0.203836	-0.000095
C196	C	1.066906	0.703836	0.499905
N197	N	0.570526	0.061793	-0.120877
N198	N	1.070526	0.561793	0.379123
C199	C	0.603657	0.028663	-0.473403
C200	C	1.103657	0.528663	0.026597
C201	C	0.603667	0.028656	-0.687062
C202	C	1.103667	0.528656	-0.187062
O203	O	0.631818	0.000490	-0.714693
O204	O	1.131818	0.500490	-0.214693
N205	N	0.570554	0.061759	-0.713771
N206	N	1.070554	0.561759	-0.213771
C207	C	0.537433	0.094864	-0.687063
C208	C	1.037433	0.594864	-0.187063
O209	O	0.509265	0.123017	-0.714683
O210	O	1.009265	0.623017	-0.214683
C211	C	0.537421	0.094868	-0.473405
C212	C	1.037421	0.594868	0.026595
C213	C	0.570540	0.061766	-0.446698
C214	C	1.070540	0.561766	0.053302
C215	C	0.636772	-0.004437	-0.446696
C216	C	1.136772	0.495563	0.053304
C217	C	0.636771	-0.004433	-0.393285
C218	C	1.136771	0.495567	0.106715
C219	C	0.603654	0.028671	-0.366580
C220	C	1.103654	0.528671	0.133420
C221	C	0.570538	0.061770	-0.393287
C222	C	1.070538	0.561770	0.106713
C223	C	0.504298	0.127971	-0.446697
C224	C	1.004298	0.627971	0.053303
C225	C	0.504297	0.127968	-0.393280
C226	C	1.004297	0.627968	0.106720
C227	C	0.537416	0.094866	-0.366573
C228	C	1.037416	0.594866	0.133427
C229	C	0.537420	0.094877	-0.313171
C230	C	1.037420	0.594877	0.186829
N231	N	0.570533	0.061774	-0.286461
N232	N	1.070533	0.561774	0.213539
C233	C	0.603650	0.028671	-0.313166
C234	C	1.103650	0.528671	0.186834
C235	C	0.537443	0.094861	-0.799236
C236	C	1.037443	0.594861	-0.299236
C237	C	0.537446	0.094860	-0.852650
C238	C	1.037446	0.594860	-0.352650
C239	C	0.603680	0.028651	-0.852645
C240	C	1.103680	0.528651	-0.352645
C241	C	0.603678	0.028654	-0.799230
C242	C	1.103678	0.528654	-0.299230
C243	C	0.570556	0.061757	-0.772526
C244	C	1.070556	0.561757	-0.272526
C245	C	0.603646	0.028682	-0.200998
C246	C	1.103646	0.528682	0.299002
C247	C	0.603643	0.028690	-0.147582
C248	C	1.103643	0.528690	0.352418
C249	C	0.537408	0.094897	-0.147591
C250	C	1.037408	0.594897	0.352409
C251	C	0.537412	0.094891	-0.201003
C252	C	1.037412	0.594891	0.298997
C253	C	0.570533	0.061779	-0.227705
C254	C	1.070533	0.561779	0.272295
O255	O	0.509281	0.123025	-0.285506
O256	O	1.009281	0.623025	0.214494
O257	O	0.631807	0.000515	-0.285536
O258	O	1.131807	0.500515	0.214464
C259	C	0.603658	0.028659	-0.526814
C260	C	1.103658	0.528659	-0.026814
C261	C	0.570542	0.061759	-0.553521
C262	C	1.070542	0.561759	-0.053521
C263	C	0.537425	0.094862	-0.526816
C264	C	1.037425	0.594862	-0.026816
C265	C	0.570546	0.061759	-0.606935
C266	C	1.070546	0.561759	-0.106935
C267	C	0.603663	0.028655	-0.633640
C268	C	1.103663	0.528655	-0.133640
C269	C	0.636776	-0.004448	-0.606931
C270	C	1.136776	0.495552	-0.106931
C271	C	0.636775	-0.004444	-0.553519
C272	C	1.136775	0.495556	-0.053519
C273	C	0.504311	0.127965	-0.553526
C274	C	1.004311	0.627965	-0.053526
C275	C	0.504316	0.127959	-0.606937
C276	C	1.004316	0.627959	-0.106937
C277	C	0.537433	0.094856	-0.633642
C278	C	1.037433	0.594856	-0.133642
N279	N	0.570564	0.061757	0.120645
N280	N	1.070564	0.561757	0.620645
H281	H	0.423800	0.065407	-0.084011
H282	H	0.923800	0.565407	0.415989
H283	H	-0.050799	0.060528	-0.130303
H284	H	0.449201	0.560528	0.369697
H285	H	0.100419	0.062060	0.130077
H286	H	0.600419	0.562060	0.630077
H287	H	0.486977	-0.780421	-0.000083
H288	H	0.986977	-0.280421	0.499917
Cl289	Cl	0.645285	-0.012944	-0.234558
Cl290	Cl	1.145285	0.487056	0.265442
Cl291	Cl	0.645314	-0.012962	-0.765662
Cl292	Cl	1.145314	0.487038	-0.265662
Cl293	Cl	0.473589	-0.173841	-0.000106
Cl294	Cl	0.973589	0.326159	0.499894
Cl295	Cl	0.672597	-0.201337	-0.000143
Cl296	Cl	1.172597	0.298663	0.499857
H297	H	-0.191240	0.059111	-0.084061
H298	H	0.308760	0.559111	0.415939
H299	H	0.191894	0.063021	-0.130281
H300	H	0.691894	0.563021	0.369719
H301	H	0.445259	-0.542414	-0.000065
H302	H	0.945259	-0.042414	0.499935
H303	H	-0.282718	0.058156	0.083786
H304	H	0.217282	0.558156	0.583786
H305	H	0.191880	0.062995	0.130078
H306	H	0.691880	0.562995	0.630078
H307	H	0.630646	0.001698	-0.874397
H308	H	1.130646	0.501698	-0.374397
Cl309	Cl	0.678410	-0.046062	-0.640512
Cl310	Cl	1.178410	0.453938	-0.140512
Cl311	Cl	0.678411	-0.046058	-0.480259
Cl312	Cl	1.178411	0.453942	0.019741
Cl313	Cl	0.426778	-0.437105	-0.000064
Cl314	Cl	0.926778	0.062895	0.499936
H315	H	0.100448	0.062081	-0.130287
H316	H	0.600448	0.562081	0.369713
Cl317	Cl	0.678405	-0.046052	-0.359716
Cl318	Cl	1.178405	0.453948	0.140284
Cl319	Cl	0.713939	-0.476798	-0.000134
Cl320	Cl	1.213939	0.023202	0.499866
Cl321	Cl	0.714320	-0.439332	-0.000142
Cl322	Cl	1.214320	0.060668	0.499858
Cl323	Cl	-0.180106	0.059194	0.104288
Cl324	Cl	0.319894	0.559194	0.604288
Cl325	Cl	0.495816	0.136482	-0.886218
Cl326	Cl	0.995816	0.636482	-0.386218
H327	H	0.510470	0.121818	-0.777497
H328	H	1.010470	0.621818	-0.277497
H329	H	-0.282706	0.058170	-0.084064
H330	H	0.217294	0.558170	0.415936
H331	H	0.494160	-0.073909	-0.000113
H332	H	0.994160	0.426091	0.499887
Cl333	Cl	0.666338	-0.816406	-0.000115
Cl334	Cl	1.166338	-0.316406	0.499885
H335	H	0.477324	0.154924	-0.371540
H336	H	0.977324	0.654924	0.128460
Cl337	Cl	0.673747	-0.087559	-0.000159
Cl338	Cl	1.173747	0.412441	0.499841
Cl339	Cl	0.715476	-0.325562	-0.000138
Cl340	Cl	1.215476	0.174438	0.499862
Cl341	Cl	0.462660	0.169586	-0.480261
Cl342	Cl	0.962660	0.669586	0.019739
H343	H	-0.050816	0.060515	0.130065
H344	H	0.449184	0.560515	0.630065
Cl345	Cl	0.428312	-0.285854	-0.000058
Cl346	Cl	0.928312	0.214146	0.499942
Cl347	Cl	0.667501	-0.702613	-0.000127
Cl348	Cl	1.167501	-0.202613	0.499873
H349	H	0.040631	0.061448	0.130072
H350	H	0.540631	0.561448	0.630072
Cl351	Cl	0.321165	0.064333	0.104326
Cl352	Cl	0.821165	0.564333	0.604326
Cl353	Cl	0.321192	0.064353	-0.104509
Cl354	Cl	0.821192	0.564353	0.395491
Cl355	Cl	0.495781	0.136511	-0.234575
Cl356	Cl	0.995781	0.636511	0.265425
H357	H	0.630614	0.001734	-0.125839
H358	H	1.130614	0.501734	0.374161
H359	H	0.510445	0.121851	-0.125840
H360	H	1.010445	0.621851	0.374160
H361	H	0.663743	-0.031399	-0.531778
H362	H	1.163743	0.468601	-0.031778
Cl363	Cl	0.462678	0.169579	-0.640506
Cl364	Cl	0.962678	0.669579	-0.140506
H365	H	0.477343	0.154922	-0.531787
H366	H	0.977343	0.654922	-0.031787
H367	H	0.423795	0.065385	0.083840
H368	H	0.923795	0.565385	0.583840
H369	H	0.487905	-0.688970	-0.000075
H370	H	0.987905	-0.188970	0.499925
Cl371	Cl	0.712774	-0.590586	-0.000129
Cl372	Cl	1.212774	-0.090586	0.499871
H373	H	0.446789	-0.391168	-0.000061
H374	H	0.946789	0.108832	0.499939
Cl375	Cl	0.051815	0.061579	-0.150788
Cl376	Cl	0.551815	0.561579	0.349212
