data_functionalizedCrystal
_audit_creation_method	'MofGen! by Chris Wilmer'
_symmetry_space_group_name_H-M	'P1'
_symmetry_Int_Tables_number	1
_symmetry_cell_setting	triclinic
loop_
_symmetry_equiv_pos_as_xyz
  x,y,z
_cell_length_a	18.101395
_cell_length_b	16.120530
_cell_length_c	18.101390
_cell_angle_alpha	92.916565
_cell_angle_beta	90.034180
_cell_angle_gamma	87.127367
loop_
_atom_site_label
_atom_site_type_symbol
_atom_site_fract_x
_atom_site_fract_y
_atom_site_fract_z
Zn1	Zn	-0.352281	1.274485	0.476062
Zn2	Zn	0.147719	1.774485	0.976062
Zn3	Zn	-0.476132	1.274365	0.352212
Zn4	Zn	0.023868	1.774365	0.852212
Zn5	Zn	-0.346027	1.135070	0.345963
Zn6	Zn	0.153973	1.635070	0.845963
Zn7	Zn	-0.469795	1.135013	0.469743
Zn8	Zn	0.030205	1.635013	0.969743
O9	O	-0.411059	1.204733	0.410995
O10	O	0.088941	1.704733	0.910995
O11	O	-0.373980	1.391134	0.464893
O12	O	0.126020	1.891134	0.964893
O13	O	-0.458909	1.255860	0.247749
O14	O	0.041091	1.755860	0.747749
O15	O	-0.243227	1.153637	0.363249
O16	O	0.256773	1.653637	0.863249
O17	O	-0.464973	1.391045	0.373901
O18	O	0.035027	1.891045	0.873901
O19	O	-0.247822	1.256065	0.458833
O20	O	0.252178	1.756065	0.958833
O21	O	-0.363321	1.153521	0.243158
O22	O	0.136679	1.653521	0.743158
O23	O	-0.357176	1.018397	0.357123
O24	O	0.142824	1.518397	0.857123
O25	O	-0.454171	1.153541	0.574216
O26	O	0.045829	1.653541	1.074216
O27	O	-0.448107	1.018356	0.448064
O28	O	0.051893	1.518356	0.948064
O29	O	-0.367834	1.256010	0.578858
O30	O	0.132166	1.756010	1.078858
O31	O	-0.578921	1.255805	0.367774
O32	O	-0.078921	1.755805	0.867774
O33	O	-0.574265	1.153424	0.454124
O34	O	-0.074265	1.653424	0.954124
C35	C	-0.401276	0.988127	0.401230
C36	C	0.098724	1.488127	0.901230
C37	C	-0.397108	0.895461	0.397070
C38	C	0.102892	1.395461	0.897070
C39	C	-0.389482	0.725801	0.389481
C40	C	0.110518	1.225801	0.889481
C41	C	-0.432690	0.684505	0.432563
C42	C	0.067310	1.184505	0.932563
C43	C	-0.428447	0.590100	0.428341
C44	C	0.071553	1.090100	0.928341
C45	C	-0.393724	0.820214	0.393703
C46	C	0.106276	1.320214	0.893703
C47	C	-0.603464	1.204618	0.410958
C48	C	-0.103464	1.704618	0.910958
C49	C	-0.685780	1.204645	0.410971
C50	C	-0.185780	1.704645	0.910971
C51	C	-0.836492	1.204741	0.411005
C52	C	-0.336492	1.704741	0.911005
C53	C	-0.864946	1.140293	0.465288
C54	C	-0.364946	1.640293	0.965288
C55	C	-0.950575	1.140536	0.465540
C56	C	-0.450575	1.640536	0.965540
C57	C	-0.984879	1.204834	0.411038
C58	C	-0.484879	1.704834	0.911038
C59	C	-0.957658	1.292727	0.435988
C60	C	-0.457658	1.792727	0.935988
C61	C	-0.871994	1.292300	0.436367
C62	C	-0.371994	1.792300	0.936367
C63	C	-0.867114	1.182085	0.331670
C64	C	-0.367114	1.682085	0.831670
C65	C	-0.952681	1.180200	0.332019
C66	C	-0.452681	1.680200	0.832019
C67	C	-1.068741	1.204892	0.411056
C68	C	-0.568741	1.704892	0.911056
C69	C	-0.752630	1.204689	0.410989
C70	C	-0.252630	1.704689	0.910989
C71	C	-0.217903	1.204871	0.411049
C72	C	0.282097	1.704871	0.911049
C73	C	-0.135592	1.204930	0.411072
C74	C	0.364408	1.704930	0.911072
C75	C	-0.410993	1.204782	0.604159
C76	C	0.089007	1.704782	1.104159
C77	C	-0.410966	1.204804	0.686474
C78	C	0.089034	1.704804	1.186474
C79	C	-0.420881	1.422185	0.420799
C80	C	0.079119	1.922185	0.920799
C81	C	-0.425066	1.514850	0.424976
C82	C	0.074934	2.014850	0.924976
C83	C	-0.411073	1.204732	0.218584
C84	C	0.088927	1.704732	0.718584
C85	C	-0.410899	1.204872	0.136277
C86	C	0.089101	1.704872	0.636277
C87	C	-0.410921	1.204849	0.985567
C88	C	0.089079	1.704849	1.485567
C89	C	-0.356811	1.269532	0.957173
C90	C	0.143189	1.769532	1.457173
C91	C	-0.356591	1.269330	0.871545
C92	C	0.143409	1.769330	1.371545
C93	C	-0.410943	1.204827	0.837184
C94	C	0.089057	1.704827	1.337184
C95	C	-0.385779	1.117000	0.864307
C96	C	0.114221	1.617000	1.364307
C97	C	-0.385369	1.117387	0.949970
C98	C	0.114631	1.617387	1.449970
C99	C	-0.490307	1.227219	0.954984
C100	C	0.009693	1.727219	1.454984
C101	C	-0.489995	1.229147	0.869421
C102	C	0.010005	1.729147	1.369421
C103	C	-0.410957	1.204809	0.753324
C104	C	0.089043	1.704809	1.253324
C105	C	-0.410906	1.204860	1.069427
C106	C	0.089094	1.704860	1.569427
H107	H	-0.968725	1.075369	0.449485
H108	H	-0.468725	1.575369	0.949485
H109	H	-0.298413	1.254912	0.978054
H110	H	0.201587	1.754912	1.478054
H111	H	-0.423803	1.067498	0.841700
H112	H	0.076197	1.567498	1.341700
H113	H	-0.349308	0.690257	0.349429
H114	H	0.150692	1.190257	0.849429
H115	H	-0.844040	1.155126	0.523655
H116	H	-0.344040	1.655126	1.023655
H117	H	-0.841477	1.074893	0.449370
H118	H	-0.341477	1.574893	0.949370
H119	H	-0.372872	1.334870	0.980713
H120	H	0.127128	1.834870	1.480713
H121	H	-0.328252	1.097690	0.842001
H122	H	0.171748	1.597690	1.342001
H123	H	-0.422851	1.067554	0.968435
H124	H	0.077149	1.567554	1.468435
H125	H	-0.530674	1.180111	0.973114
H126	H	-0.030674	1.680111	1.473114
H127	H	-0.472867	0.720051	0.472619
H128	H	0.027133	1.220051	0.972619
H129	H	-0.971688	1.155604	0.524250
H130	H	-0.471688	1.655604	1.024250
H131	H	-0.852824	1.311478	0.494473
H132	H	-0.352824	1.811478	0.994473
H133	H	-0.853483	1.341970	0.398754
H134	H	-0.353483	1.841970	0.898754
H135	H	-0.848942	1.229020	0.291178
H136	H	-0.348942	1.729020	0.791178
H137	H	-0.327221	1.098423	0.969109
H138	H	0.172779	1.598423	1.469109
H139	H	-0.372806	1.334456	0.853466
H140	H	0.127194	1.834456	1.353466
H141	H	-0.980220	1.342084	0.397848
H142	H	-0.480220	1.842084	0.897848
H143	H	-0.979930	1.312263	0.493489
H144	H	-0.479930	1.812263	0.993489
H145	H	-0.842742	1.119059	0.309679
H146	H	-0.342742	1.619059	0.809679
H147	H	-0.970156	1.115516	0.313272
H148	H	-0.470156	1.615516	0.813272
H149	H	-0.976032	1.223720	0.289113
H150	H	-0.476032	1.723720	0.789113
H151	H	-0.297860	1.254523	0.850408
H152	H	0.202140	1.754523	1.350408
H153	H	-0.512452	1.290139	0.979458
H154	H	-0.012452	1.790139	1.479458
H155	H	-0.508898	1.293779	0.852018
H156	H	-0.008898	1.793779	1.352018
H157	H	-0.532797	1.185460	0.846038
H158	H	-0.032797	1.685460	1.346038
