data_functionalizedCrystal
_audit_creation_method	'MofGen! by Chris Wilmer'
_symmetry_space_group_name_H-M	'P1'
_symmetry_Int_Tables_number	1
_symmetry_cell_setting	triclinic
loop_
_symmetry_equiv_pos_as_xyz
  x,y,z
_cell_length_a	14.908571
_cell_length_b	18.101395
_cell_length_c	14.908308
_cell_angle_alpha	93.266316
_cell_angle_beta	90.175053
_cell_angle_gamma	86.727274
loop_
_atom_site_label
_atom_site_type_symbol
_atom_site_fract_x
_atom_site_fract_y
_atom_site_fract_z
Zn1	Zn	1.345208	-0.386468	-0.587575
Zn2	Zn	1.353762	-0.503604	-0.437213
Zn3	Zn	1.203527	-0.372244	-0.428573
Zn4	Zn	1.194790	-0.502724	-0.578865
O5	O	1.274322	-0.441260	-0.508057
O6	O	1.472167	-0.408328	-0.574890
O7	O	1.341069	-0.480594	-0.310243
O8	O	1.222397	-0.270503	-0.449694
O9	O	1.478452	-0.494387	-0.464420
O10	O	1.326490	-0.280953	-0.566512
O11	O	1.230692	-0.384085	-0.303895
O12	O	1.076543	-0.383231	-0.441249
O13	O	1.207507	-0.492887	-0.705845
O14	O	1.070124	-0.479094	-0.551667
O15	O	1.318019	-0.407474	-0.712244
O16	O	1.332598	-0.607115	-0.455974
O17	O	1.215801	-0.606469	-0.560045
C18	C	1.040709	-0.429524	-0.494576
C19	C	0.940767	-0.424523	-0.488830
C20	C	0.746339	-0.515086	-0.592857
C21	C	0.652434	-0.510389	-0.587462
C22	C	0.659052	-0.410428	-0.472648
C23	C	0.752956	-0.415125	-0.478044
C24	C	0.796596	-0.467457	-0.538149
C25	C	0.890503	-0.472157	-0.543540
C26	C	0.897118	-0.372193	-0.428731
C27	C	0.803213	-0.367496	-0.423336
C28	C	1.274203	-0.633663	-0.508023
C29	C	1.274233	-0.715980	-0.508044
C30	C	1.274427	-1.015083	-0.508104
C31	C	1.201093	-0.983397	-0.573764
C32	C	1.200777	-0.897753	-0.573527
C33	C	1.274331	-0.866694	-0.508075
C34	C	1.254147	-0.892332	-0.411835
C35	C	1.253677	-0.977973	-0.412227
C36	C	1.368144	-0.989281	-0.537857
C37	C	1.367465	-0.903695	-0.539903
C38	C	1.274278	-0.782831	-0.508053
C39	C	1.274478	-1.098945	-0.508119
C40	C	1.508847	-0.453042	-0.521591
C41	C	1.608787	-0.458063	-0.527358
C42	C	1.260834	-0.451669	-0.742582
C43	C	1.255087	-0.456105	-0.842522
C44	C	1.274464	-0.248107	-0.508111
C45	C	1.274525	-0.165797	-0.508134
C46	C	1.359359	-0.375483	-1.036986
C47	C	1.353962	-0.379648	-1.130890
C48	C	1.238890	-0.468597	-1.124234
C49	C	1.244288	-0.464432	-1.030330
C50	C	1.304525	-0.417874	-0.986710
C51	C	1.309927	-0.413713	-0.892805
C52	C	1.194851	-0.502657	-0.886151
C53	C	1.189453	-0.506822	-0.980054
C54	C	1.287808	-0.430840	-0.274447
C55	C	1.293730	-0.426205	-0.174517
H56	H	0.938048	-0.333411	-0.384182
H57	H	0.781872	-0.557700	-0.641793
H58	H	1.185333	-0.993611	-0.387659
C59	C	1.322202	-1.005493	-0.344295
C60	C	1.363847	-0.945008	-0.303083
C61	C	1.426961	-0.970325	-0.240487
H62	H	1.366180	-1.038081	-0.374040
H63	H	1.292780	-1.031102	-0.300030
H64	H	1.393268	-0.919411	-0.347341
H65	H	1.319892	-0.912414	-0.273320
H66	H	1.397539	-0.995934	-0.196222
H67	H	1.470933	-1.002913	-0.270240
H68	H	1.455219	-0.929290	-0.212512
H69	H	0.926033	-0.514769	-0.592479
H70	H	1.382784	-0.887413	-0.610757
H71	H	1.150203	-0.537177	-0.845206
C72	C	1.413607	-0.333595	-1.185320
C73	C	1.467527	-0.291946	-1.127017
C74	C	1.522492	-0.249518	-1.177126
H75	H	1.377228	-0.301168	-1.219986
H76	H	1.450710	-0.365500	-1.224187
H77	H	1.430428	-0.260045	-1.088166
H78	H	1.503924	-0.324355	-1.092351
H79	H	1.559595	-0.281423	-1.215994
H80	H	1.486107	-0.217095	-1.211790
H81	H	1.559090	-0.221260	-1.137576
C82	C	1.424876	-0.325069	-0.989582
C83	C	1.485587	-0.367508	-0.939005
C84	C	1.545964	-0.321094	-0.895336
H85	H	1.392722	-0.289437	-0.950906
H86	H	1.456819	-0.300436	-1.032951
H87	H	1.453648	-0.392129	-0.895642
H88	H	1.517763	-0.403139	-0.977660
H89	H	1.577906	-0.296461	-0.938705
H90	H	1.513802	-0.285464	-0.856665
H91	H	1.587168	-0.349883	-0.861022
H92	H	0.623503	-0.367818	-0.423719
C93	C	1.173631	-0.519230	-1.171665
C94	C	1.221403	-0.571649	-1.228496
C95	C	1.161314	-0.618306	-1.272198
H96	H	1.132353	-0.490636	-1.206108
H97	H	1.141752	-0.543928	-1.128309
H98	H	1.253267	-0.546953	-1.271846
H99	H	1.262678	-0.600261	-1.194075
H100	H	1.129435	-0.643005	-1.228842
H101	H	1.120039	-0.589705	-1.306636
H102	H	1.193719	-0.653882	-1.310757
C103	C	0.598028	-0.562191	-0.646903
C104	C	0.656351	-0.609034	-0.700679
C105	C	0.606265	-0.656771	-0.755443
H106	H	0.559155	-0.533905	-0.684113
H107	H	0.563372	-0.591097	-0.610359
H108	H	0.690992	-0.580132	-0.737219
H109	H	0.695225	-0.637337	-0.663493
H110	H	0.571609	-0.685676	-0.718899
H111	H	0.567394	-0.628478	-0.792647
H112	H	0.645829	-0.688564	-0.791930
C113	C	0.755664	-0.310754	-0.358109
C114	C	0.662669	-0.316843	-0.365079
C115	C	0.618841	-0.264589	-0.304997
H116	H	0.770215	-0.262334	-0.372193
H117	H	0.774455	-0.319608	-0.298533
H118	H	0.643885	-0.307983	-0.424642
H119	H	0.648092	-0.365251	-0.350987
H120	H	0.637632	-0.273444	-0.245420
H121	H	0.633399	-0.216173	-0.319085
H122	H	0.555741	-0.268718	-0.309711
C123	C	1.216716	-0.875059	-0.668520
C124	C	1.226730	-0.938514	-0.726646
C125	C	1.241394	-0.917641	-0.814167
H126	H	1.269676	-0.848350	-0.669852
H127	H	1.166897	-0.844572	-0.687135
H128	H	1.276545	-0.968989	-0.708036
H129	H	1.173780	-0.965231	-0.725342
H130	H	1.191575	-0.887154	-0.832782
H131	H	1.294352	-0.890932	-0.815489
H132	H	1.248182	-0.960691	-0.853617
H133	H	1.212915	-1.007887	-0.645171
C134	C	1.107974	-0.864808	-0.546848
C135	C	1.072227	-0.823495	-0.616476
C136	C	0.986730	-0.793144	-0.591933
H137	H	1.112395	-0.833462	-0.493900
H138	H	1.069797	-0.903595	-0.535930
H139	H	1.110394	-0.784712	-0.627383
H140	H	1.067783	-0.854824	-0.669430
H141	H	0.948554	-0.831932	-0.581015
H142	H	0.991160	-0.761802	-0.538984
H143	H	0.962462	-0.765116	-0.639174
H144	H	1.131935	-1.000760	-0.553850
H145	H	1.140408	-0.544727	-1.015582
H146	H	1.306121	-0.872037	-0.361340
H147	H	1.186561	-0.866562	-0.386941
C148	C	1.393924	-1.023654	-0.630250
C149	C	1.326091	-1.068674	-0.662180
C150	C	1.349791	-1.100342	-0.747296
H151	H	1.448711	-1.052746	-0.626215
H152	H	1.401211	-0.985500	-0.670372
H153	H	1.318814	-1.106823	-0.622068
H154	H	1.271298	-1.039600	-0.666236
H155	H	1.357079	-1.062188	-0.787418
H156	H	1.404580	-1.129430	-0.743253
H157	H	1.303767	-1.130886	-0.768975
H158	H	1.424553	-0.882912	-0.496001
H159	H	1.358977	-0.375804	-0.857292
H160	H	1.422713	-1.009859	-0.490101
