data_functionalizedCrystal
_audit_creation_method	'MofGen! by Chris Wilmer'
_symmetry_space_group_name_H-M	'P1'
_symmetry_Int_Tables_number	1
_symmetry_cell_setting	triclinic
loop_
_symmetry_equiv_pos_as_xyz
  x,y,z
_cell_length_a	18.215407
_cell_length_b	18.215399
_cell_length_c	21.395361
_cell_angle_alpha	90.032211
_cell_angle_beta	89.968844
_cell_angle_gamma	89.980167
loop_
_atom_site_label
_atom_site_type_symbol
_atom_site_fract_x
_atom_site_fract_y
_atom_site_fract_z
Zn1	Zn	1.125042	-0.416094	0.249437
Zn2	Zn	1.458376	-0.082761	0.582771
Zn3	Zn	1.791709	0.250573	0.916104
Zn4	Zn	1.124938	-0.293019	0.354217
Zn5	Zn	1.458271	0.040315	0.687550
Zn6	Zn	1.791605	0.373648	1.020884
Zn7	Zn	1.001975	-0.293041	0.249458
Zn8	Zn	1.335308	0.040292	0.582791
Zn9	Zn	1.668641	0.373625	0.916125
Zn10	Zn	1.001928	-0.416044	0.354182
Zn11	Zn	1.335261	-0.082710	0.687515
Zn12	Zn	1.668595	0.250623	1.020849
O13	O	1.063471	-0.354549	0.301824
O14	O	1.396804	-0.021216	0.635157
O15	O	1.730137	0.312117	0.968490
O16	O	1.228013	-0.399779	0.263343
O17	O	1.561346	-0.066446	0.596676
O18	O	1.894679	0.266887	0.930009
O19	O	1.108603	-0.190037	0.340344
O20	O	1.441936	0.143296	0.673677
O21	O	1.775269	0.476629	1.007010
O22	O	1.018363	-0.309395	0.161777
O23	O	1.351696	0.023938	0.495111
O24	O	1.685030	0.357271	0.828444
O25	O	1.227936	-0.309356	0.340324
O26	O	1.561269	0.023977	0.673657
O27	O	1.894603	0.357310	1.006990
O28	O	1.108780	-0.399802	0.161762
O29	O	1.442113	-0.066468	0.495096
O30	O	1.775447	0.266865	0.828429
O31	O	1.018262	-0.190054	0.263378
O32	O	1.351595	0.143279	0.596711
O33	O	1.684929	0.476613	0.930044
O34	O	0.898984	-0.309346	0.263344
O35	O	1.232318	0.023987	0.596677
O36	O	1.565651	0.357320	0.930010
O37	O	1.018284	-0.519035	0.340264
O38	O	1.351617	-0.185701	0.673598
O39	O	1.684950	0.147632	1.006931
O40	O	0.898950	-0.399715	0.340284
O41	O	1.232283	-0.066382	0.673617
O42	O	1.565617	0.266951	1.006951
O43	O	1.108735	-0.519072	0.263309
O44	O	1.442068	-0.185738	0.596642
O45	O	1.775402	0.147595	0.929976
O46	O	1.108557	-0.309307	0.441890
O47	O	1.441891	0.024026	0.775223
O48	O	1.775224	0.357359	1.108557
O49	O	1.018183	-0.399693	0.441865
O50	O	1.351516	-0.066360	0.775198
O51	O	1.684849	0.266973	1.108531
C52	C	0.872265	-0.354528	0.301813
C53	C	1.205598	-0.021195	0.635146
C54	C	1.538931	0.312138	0.968480
C55	C	0.790466	-0.354537	0.301823
C56	C	1.123799	-0.021203	0.635157
C57	C	1.457132	0.312130	0.968490
C58	C	0.602273	-0.401533	0.341949
C59	C	0.935606	-0.068200	0.675282
C60	C	1.268940	0.265134	1.008616
C61	C	0.525414	-0.401542	0.341951
C62	C	0.858748	-0.068209	0.675284
C63	C	1.192081	0.265125	1.008618
C64	C	0.525420	-0.307582	0.261709
C65	C	0.858754	0.025751	0.595043
C66	C	1.192087	0.359085	0.928376
C67	C	0.602278	-0.307577	0.261705
C68	C	0.935611	0.025756	0.595038
C69	C	1.268944	0.359090	0.928371
C70	C	0.640702	-0.354551	0.301828
C71	C	0.974035	-0.021218	0.635161
C72	C	1.307369	0.312115	0.968495
C73	C	0.486986	-0.354566	0.301835
C74	C	0.820319	-0.021232	0.635168
C75	C	1.153653	0.312101	0.968501
C76	C	0.403652	-0.354575	0.301837
C77	C	0.736986	-0.021242	0.635170
C78	C	1.070319	0.312092	0.968503
C79	C	0.724041	-0.354543	0.301826
C80	C	1.057374	-0.021210	0.635159
C81	C	1.390708	0.312124	0.968492
C82	C	1.063516	-0.546502	0.301780
C83	C	1.396849	-0.213169	0.635114
C84	C	1.730182	0.120164	0.968447
C85	C	1.063535	-0.628301	0.301762
C86	C	1.396868	-0.294968	0.635095
C87	C	1.730201	0.038365	0.968429
C88	C	1.110650	-0.816516	0.261654
C89	C	1.443983	-0.483183	0.594987
C90	C	1.777316	-0.149849	0.928321
C91	C	1.110658	-0.893375	0.261636
C92	C	1.443992	-0.560041	0.594969
C93	C	1.777325	-0.226708	0.928302
C94	C	1.016472	-0.893325	0.341773
C95	C	1.349805	-0.559991	0.675107
C96	C	1.683138	-0.226658	1.008440
C97	C	1.016460	-0.816467	0.341788
C98	C	1.349793	-0.483134	0.675121
C99	C	1.683127	-0.149801	1.008454
C100	C	1.063553	-0.778065	0.301729
C101	C	1.396886	-0.444732	0.635062
C102	C	1.730220	-0.111398	0.968396
C103	C	1.063574	-0.931781	0.301696
C104	C	1.396907	-0.598448	0.635030
C105	C	1.730240	-0.265114	0.968363
C106	C	1.063583	-1.015115	0.301677
C107	C	1.396916	-0.681781	0.635010
C108	C	1.730250	-0.348448	0.968343
C109	C	1.063543	-0.694726	0.301748
C110	C	1.396876	-0.361393	0.635081
C111	C	1.730210	-0.028059	0.968414
C112	C	1.255424	-0.354571	0.301835
C113	C	1.588757	-0.021238	0.635168
C114	C	1.922090	0.312096	0.968501
C115	C	1.337223	-0.354580	0.301840
C116	C	1.670556	-0.021247	0.635173
C117	C	2.003889	0.312086	0.968506
C118	C	1.063374	-0.354508	0.464611
C119	C	1.396707	-0.021175	0.797945
C120	C	1.730040	0.312158	1.131278
C121	C	1.063399	-0.354516	0.534252
C122	C	1.396733	-0.021182	0.867586
C123	C	1.730066	0.312151	1.200919
C124	C	1.063468	-0.163343	0.301821
C125	C	1.396802	0.169990	0.635155
C126	C	1.730135	0.503323	0.968488
C127	C	1.063592	-0.081545	0.301663
C128	C	1.396925	0.251789	0.634997
C129	C	1.730259	0.585122	0.968330
C130	C	1.063588	-0.354607	0.138400
C131	C	1.396922	-0.021273	0.471734
C132	C	1.730255	0.312060	0.805067
C133	C	1.063638	-0.354631	0.068759
C134	C	1.396972	-0.021298	0.402092
C135	C	1.730305	0.312036	0.735426
C136	C	1.110499	-0.307500	0.566958
C137	C	1.443833	0.025834	0.900291
C138	C	1.777166	0.359167	1.233625
C139	C	1.110533	-0.307516	0.632394
C140	C	1.443867	0.025817	0.965727
C141	C	1.777200	0.359150	1.299060
C142	C	1.063455	-0.354541	0.665121
C143	C	1.396788	-0.021207	0.998454
C144	C	1.730121	0.312126	1.331787
C145	C	1.016352	-0.401566	0.632407
C146	C	1.349685	-0.068232	0.965741
C147	C	1.683018	0.265101	1.299074
C148	C	1.016324	-0.401553	0.566973
C149	C	1.349657	-0.068220	0.900306
C150	C	1.682991	0.265114	1.233640
C151	C	0.997191	-0.360308	0.768835
C152	C	1.330524	-0.026974	1.102169
C153	C	1.663858	0.306359	1.435502
C154	C	0.997217	-0.360315	0.834268
C155	C	1.330551	-0.026982	1.167602
C156	C	1.663884	0.306352	1.500935
C157	C	1.063540	-0.354584	0.866941
C158	C	1.396874	-0.021251	1.200275
C159	C	1.730207	0.312083	1.533608
C160	C	1.129839	-0.348830	0.834174
C161	C	1.463172	-0.015496	1.167507
C162	C	1.796506	0.317837	1.500840
C163	C	1.129811	-0.348817	0.768739
C164	C	1.463145	-0.015484	1.102073
C165	C	1.796478	0.317849	1.435406
C166	C	1.063480	-0.354560	0.736073
C167	C	1.396813	-0.021227	1.069406
C168	C	1.730146	0.312107	1.402740
C169	C	1.110681	-0.307584	0.970600
C170	C	1.444015	0.025750	1.303933
C171	C	1.777348	0.359083	1.637266
C172	C	1.110717	-0.307605	1.036036
C173	C	1.444050	0.025728	1.369370
C174	C	1.777384	0.359061	1.702703
C175	C	1.016528	-0.401651	1.036049
C176	C	1.349862	-0.068317	1.369382
C177	C	1.683195	0.265016	1.702715
C178	C	1.016499	-0.401633	0.970613
C179	C	1.349833	-0.068300	1.303947
C180	C	1.683166	0.265034	1.637280
C181	C	1.063575	-0.354595	0.937893
C182	C	1.396908	-0.021262	1.271226
C183	C	1.730242	0.312071	1.604559
H184	H	1.148994	-0.785251	0.229034
H185	H	1.482327	-0.451918	0.562367
H186	H	1.815661	-0.118584	0.895700
O187	O	0.488004	-0.447076	0.380957
O188	O	0.821337	-0.113743	0.714290
O189	O	1.154670	0.219591	1.047623
C190	C	0.443517	-0.405094	0.421391
C191	C	0.776851	-0.071760	0.754725
C192	C	1.110184	0.261573	1.088058
H193	H	0.431990	-0.349372	0.399233
H194	H	0.765324	-0.016038	0.732567
H195	H	1.098657	0.317295	1.065900
H196	H	0.389480	-0.435058	0.429823
H197	H	0.722814	-0.101725	0.763156
H198	H	1.056147	0.231608	1.096490
H199	H	0.473107	-0.396904	0.467813
H200	H	0.806441	-0.063571	0.801146
H201	H	1.139774	0.269763	1.134479
O202	O	0.970769	-0.930550	0.380775
O203	O	1.304103	-0.597217	0.714108
O204	O	1.637436	-0.263884	1.047442
C205	C	0.986821	-0.911760	0.443226
C206	C	1.320154	-0.578427	0.776559
C207	C	1.653487	-0.245094	1.109892
H208	H	1.015100	-0.855961	0.444535
H209	H	1.348433	-0.522627	0.777868
H210	H	1.681766	-0.189294	1.111202
H211	H	0.933689	-0.909111	0.471320
H212	H	1.267022	-0.575778	0.804654
H213	H	1.600356	-0.242445	1.137987
H214	H	1.024651	-0.955014	0.464321
H215	H	1.357985	-0.621681	0.797655
H216	H	1.691318	-0.288347	1.130988
H217	H	1.183793	-0.344134	0.742061
H218	H	1.517127	-0.010801	1.075395
H219	H	1.850460	0.322533	1.408728
O220	O	0.970811	-0.779030	0.380751
O221	O	1.304144	-0.445697	0.714084
O222	O	1.637477	-0.112363	1.047418
C223	C	1.012677	-0.734577	0.421237
C224	C	1.346011	-0.401243	0.754570
C225	C	1.679344	-0.067910	1.087903
H226	H	1.068463	-0.723086	0.399142
H227	H	1.401796	-0.389753	0.732476
H228	H	1.735129	-0.056419	1.065809
H229	H	0.982689	-0.680520	0.429640
H230	H	1.316022	-0.347186	0.762973
H231	H	1.649356	-0.013853	1.096306
H232	H	1.020735	-0.764177	0.467665
H233	H	1.354068	-0.430844	0.800998
H234	H	1.687401	-0.097510	1.134331
H235	H	1.149076	-0.269321	1.062664
H236	H	1.482409	0.064013	1.395997
H237	H	1.815742	0.397346	1.729331
H238	H	0.494126	-0.269336	0.229043
H239	H	0.827459	0.063997	0.562377
H240	H	1.160793	0.397331	0.895710
H241	H	0.633568	-0.269319	0.229029
H242	H	0.966901	0.064014	0.562363
H243	H	1.300234	0.397348	0.895696
H244	H	1.183846	-0.344163	0.860774
H245	H	1.517179	-0.010830	1.194108
H246	H	1.850512	0.322503	1.527441
H247	H	1.148833	-0.269201	0.540319
H248	H	1.482166	0.064132	0.873652
H249	H	1.815499	0.397466	1.206986
H250	H	0.977969	-0.439840	0.540344
H251	H	1.311302	-0.106506	0.873677
H252	H	1.644635	0.226827	1.207010
H253	H	0.633556	-0.439784	0.374619
H254	H	0.966889	-0.106451	0.707952
H255	H	1.300223	0.226882	1.041285
H256	H	1.148890	-0.269231	0.659028
H257	H	1.482224	0.064103	0.992361
H258	H	1.815557	0.397436	1.325694
H259	H	1.149008	-0.924678	0.229001
H260	H	1.482341	-0.591345	0.562335
H261	H	1.815675	-0.258011	0.895668
O262	O	1.156480	-0.261873	0.938907
O263	O	1.489814	0.071460	1.272240
O264	O	1.823147	0.404793	1.605574
C265	C	1.198052	-0.220369	0.981809
C266	C	1.531385	0.112965	1.315143
C267	C	1.864718	0.446298	1.648476
H268	H	1.200608	-0.250527	1.028431
H269	H	1.533941	0.082806	1.361764
H270	H	1.867274	0.416139	1.695097
H271	H	1.256030	-0.212564	0.962860
H272	H	1.589363	0.120769	1.296194
H273	H	1.922696	0.454102	1.629527
H274	H	1.171135	-0.164454	0.988829
H275	H	1.504469	0.168879	1.322162
H276	H	1.837802	0.502212	1.655496
O277	O	0.970822	-0.447265	1.067929
O278	O	1.304155	-0.113931	1.401262
O279	O	1.637488	0.219402	1.734595
C280	C	0.980961	-0.437212	1.132697
C281	C	1.314295	-0.103879	1.466030
C282	C	1.647628	0.229455	1.799363
H283	H	1.005097	-0.380441	1.141652
H284	H	1.338431	-0.047107	1.474986
H285	H	1.671764	0.286226	1.808319
H286	H	0.925846	-0.442163	1.157606
H287	H	1.259179	-0.108829	1.490940
H288	H	1.592513	0.224504	1.824273
H289	H	1.020138	-0.480903	1.151205
H290	H	1.353471	-0.147569	1.484538
H291	H	1.686805	0.185764	1.817872
O292	O	0.970669	-0.447321	0.938936
O293	O	1.304002	-0.113987	1.272270
O294	O	1.637336	0.219346	1.605603
C295	C	0.929135	-0.488843	0.981851
C296	C	1.262468	-0.155510	1.315184
C297	C	1.595801	0.177823	1.648518
H298	H	0.926626	-0.458708	1.028516
H299	H	1.259959	-0.125375	1.361850
H300	H	1.593293	0.207959	1.695183
H301	H	0.871138	-0.496633	0.962985
H302	H	1.204471	-0.163300	1.296319
H303	H	1.537805	0.170034	1.629652
H304	H	0.956053	-0.544764	0.988753
H305	H	1.289386	-0.211430	1.322086
H306	H	1.622719	0.121903	1.655420
H307	H	0.943233	-0.364993	0.860943
H308	H	1.276566	-0.031660	1.194276
H309	H	1.609899	0.301673	1.527610
H310	H	0.943178	-0.364978	0.742239
H311	H	1.276512	-0.031644	1.075573
H312	H	1.609845	0.301689	1.408906
H313	H	0.978021	-0.439855	0.659058
H314	H	1.311354	-0.106521	0.992391
H315	H	1.644688	0.226812	1.325725
