data_functionalizedCrystal
_audit_creation_method	'MofGen! by Chris Wilmer'
_symmetry_space_group_name_H-M	'P1'
_symmetry_Int_Tables_number	1
_symmetry_cell_setting	triclinic
loop_
_symmetry_equiv_pos_as_xyz
  x,y,z
_cell_length_a	12.594516
_cell_length_b	16.959455
_cell_length_c	16.959447
_cell_angle_alpha	89.979626
_cell_angle_beta	89.974854
_cell_angle_gamma	90.013073
loop_
_atom_site_label
_atom_site_type_symbol
_atom_site_fract_x
_atom_site_fract_y
_atom_site_fract_z
Zn1	Zn	-0.423806	1.208406	-0.447065
Zn2	Zn	-0.601813	1.208338	-0.314898
Zn3	Zn	-0.423839	1.076234	-0.314888
Zn4	Zn	-0.601733	1.076208	-0.447023
O5	O	-0.512798	1.142297	-0.380968
O6	O	-0.447438	1.319008	-0.429554
O7	O	-0.578251	1.190796	-0.204286
O8	O	-0.274889	1.093807	-0.332435
O9	O	-0.578219	1.318958	-0.332452
O10	O	-0.274864	1.190913	-0.429545
O11	O	-0.447495	1.093741	-0.204279
O12	O	-0.447418	0.965620	-0.332395
O13	O	-0.578084	1.093762	-0.557639
O14	O	-0.578116	0.965601	-0.429473
O15	O	-0.447361	1.190887	-0.557670
O16	O	-0.750748	1.190771	-0.332411
O17	O	-0.750690	1.093696	-0.429483
C18	C	-0.512763	0.936930	-0.380929
C19	C	-0.512774	0.849074	-0.380930
C20	C	-0.580828	0.477561	-0.330382
C21	C	-0.444856	0.477635	-0.431652
C22	C	-0.444838	0.560181	-0.431632
C23	C	-0.512818	0.601421	-0.380988
C24	C	-0.580815	0.560115	-0.330362
C25	C	-0.376850	0.601493	-0.482263
C26	C	-0.376831	0.684044	-0.482246
C27	C	-0.444806	0.725285	-0.431597
C28	C	-0.512805	0.683974	-0.380969
C29	C	-0.580784	0.725214	-0.330324
C30	C	-0.648778	0.683905	-0.279691
C31	C	-0.648790	0.601356	-0.279713
C32	C	-0.444794	0.807834	-0.431575
C33	C	-0.580771	0.807768	-0.330305
C34	C	-0.789339	1.142245	-0.380961
C35	C	-0.907644	1.142295	-0.380984
C36	C	-0.976904	1.089491	-0.433744
C37	C	-1.047766	1.070239	-0.361616
C38	C	-1.047581	1.161619	-0.453124
C39	C	-0.976948	1.123005	-0.308818
C40	C	-0.976756	1.214418	-0.400374
C41	C	-1.047587	1.195194	-0.328197
C42	C	-0.235177	1.142370	-0.380994
C43	C	-0.116871	1.142401	-0.381004
C44	C	-0.512710	1.142329	-0.587137
C45	C	-0.512672	1.142343	-0.674993
C46	C	-0.512833	1.348465	-0.381009
C47	C	-0.512849	1.436321	-0.381026
C48	C	-0.580621	1.091869	-1.046456
C49	C	-0.444499	1.193007	-1.046483
C50	C	-0.444521	1.192985	-0.963937
C51	C	-0.512596	1.142406	-0.922647
C52	C	-0.580648	1.091848	-0.963902
C53	C	-0.376478	1.243548	-0.922675
C54	C	-0.376499	1.243530	-0.840124
C55	C	-0.444569	1.192946	-0.798832
C56	C	-0.512623	1.142385	-0.840093
C57	C	-0.580697	1.091806	-0.798803
C58	C	-0.648747	1.041241	-0.840062
C59	C	-0.648718	1.041265	-0.922610
C60	C	-0.444597	1.192923	-0.716284
C61	C	-0.580724	1.091785	-0.716249
C62	C	-0.512809	1.142309	-0.175602
C63	C	-0.512546	1.142448	-0.087746
H64	H	-0.704133	0.717493	-0.238461
H65	H	-1.078426	1.239894	-0.283537
N66	N	-1.086883	0.993782	-0.341036
N67	N	-1.023290	0.938998	-0.326912
H68	H	-1.050911	0.884998	-0.312380
H69	H	-0.946050	1.106633	-0.247802
N70	N	-0.937939	1.033374	-0.489624
N71	N	-0.840181	1.024734	-0.498973
H72	H	-0.812657	0.985100	-0.538434
H73	H	-1.078607	1.177920	-0.514124
N74	N	-0.937591	1.290848	-0.420987
N75	N	-0.879468	1.299156	-0.480172
H76	H	-0.851806	1.353135	-0.494740
H77	H	-0.636150	1.050590	-0.682636
H78	H	-0.704178	1.000063	-0.806432
H79	H	-0.704124	1.000100	-0.956211
N80	N	-0.375096	1.244577	-0.674151
N81	N	-0.314327	1.289737	-0.711027
H82	H	-0.265236	1.326220	-0.681272
N83	N	-0.650115	1.040220	-1.088607
N84	N	-0.650080	1.040237	-1.162311
H85	H	-0.699160	1.003759	-1.192083
H86	H	-0.389081	1.234190	-1.080106
H87	H	-0.636125	0.841340	-0.289061
N88	N	-0.718258	0.559172	-0.228002
N89	N	-0.778951	0.595999	-0.182788
H90	H	-0.828016	0.566205	-0.146268
N91	N	-0.307424	0.559385	-0.534011
N92	N	-0.209196	0.568609	-0.528922
H93	H	-0.160167	0.538874	-0.565481
H94	H	-0.321088	1.284703	-0.806538
N95	N	-0.650266	0.435358	-0.278664
N96	N	-0.650267	0.361655	-0.278680
H97	H	-0.699308	0.331847	-0.242153
N98	N	-0.375437	0.435500	-0.483383
N99	N	-0.375465	0.361797	-0.483397
H100	H	-0.326436	0.332035	-0.519934
N101	N	-0.306949	1.295198	-0.964867
N102	N	-0.239110	1.267410	-1.010938
H103	H	-0.190002	1.303888	-1.040742
N104	N	-0.307377	0.726224	-0.533970
N105	N	-0.246691	0.689392	-0.579186
H106	H	-0.197636	0.719182	-0.615717
N107	N	-0.375347	0.850018	-0.483297
N108	N	-0.314663	0.813187	-0.528515
H109	H	-0.265610	0.842978	-0.565045
