data_functionalizedCrystal
_audit_creation_method	'MofGen! by Chris Wilmer'
_symmetry_space_group_name_H-M	'P1'
_symmetry_Int_Tables_number	1
_symmetry_cell_setting	triclinic
loop_
_symmetry_equiv_pos_as_xyz
  x,y,z
_cell_length_a	6.817900
_cell_length_b	12.840933
_cell_length_c	11.168134
_cell_angle_alpha	82.581631
_cell_angle_beta	70.712555
_cell_angle_gamma	88.345099
loop_
_atom_site_label
_atom_site_type_symbol
_atom_site_fract_x
_atom_site_fract_y
_atom_site_fract_z
V1	V	-3.925854	0.283479	0.177682
O2	O	-3.887455	0.320310	-0.005477
O3	O	-3.904830	0.240929	0.349369
O4	O	-3.821231	0.425643	0.176292
O5	O	-3.971632	0.134317	0.168798
V6	V	-4.413220	0.270572	0.155615
O7	O	-4.178683	0.311793	0.226087
O8	O	-4.610588	0.242258	0.107210
O9	O	-4.211037	0.313123	-0.016072
O10	O	-4.569015	0.233741	0.338774
O11	O	-4.484838	0.419734	0.164498
O12	O	-4.294636	0.128408	0.157005
C13	C	-3.758310	0.225977	0.391181
C14	C	-3.822032	0.192135	0.531546
C15	C	-4.033036	0.179930	0.603949
C16	C	-4.092939	0.148146	0.735841
C17	C	-3.941835	0.128561	0.795326
C18	C	-3.730813	0.140771	0.722914
C19	C	-3.670914	0.172561	0.591026
C20	C	-3.651682	0.461599	0.170397
C21	C	-3.647528	0.579731	0.170395
C22	C	-4.127526	0.092447	0.162897
C23	C	-4.110530	-0.025685	0.162896
V24	V	-3.908804	0.769641	0.177690
O25	O	-3.943963	0.922934	0.168805
O26	O	-3.814328	0.622784	0.176301
O27	O	-3.886240	0.770719	0.349375
O28	O	-3.871553	0.773975	-0.005468
V29	V	-4.394224	0.812268	0.155631
O30	O	-4.163571	0.742744	0.226099
O31	O	-4.588861	0.861850	0.107229
O32	O	-4.265886	0.947879	0.157017
O33	O	-4.476255	0.664891	0.164518
O34	O	-4.548665	0.813850	0.338790
O35	O	-4.193974	0.799943	-0.016058
C36	C	-4.020901	0.328069	-0.057877
C37	C	-3.936415	0.361918	-0.198241
C38	C	-3.739269	0.768435	0.391177
C39	C	-3.801656	0.772458	0.531541
C40	C	-4.004877	0.785262	-0.057872
C41	C	-3.921766	0.780203	-0.198238
C42	C	-4.001532	0.777981	0.600277
C43	C	-4.066016	0.782139	0.745350
C44	C	-4.070397	0.374126	-0.270644
C45	C	-3.991036	0.405915	-0.402535
C46	C	-3.777693	0.425502	-0.462019
C47	C	-3.643701	0.413290	-0.389608
C48	C	-3.723061	0.381495	-0.257721
H49	H	-3.607799	0.124820	0.771367
H50	H	-3.499092	0.182490	0.532083
H51	H	-4.124912	0.779637	0.551723
N52	N	-4.292833	0.788416	0.823604
H53	H	-4.306747	0.790501	0.916145
H54	H	-4.353549	0.854142	0.790576
N55	N	-3.578536	0.368352	-0.179636
H56	H	-3.661160	0.345240	-0.087056
H57	H	-3.471878	0.313582	-0.212724
H58	H	-4.156101	0.195866	0.555533
H59	H	-3.750535	0.775463	0.742683
N60	N	-3.638099	0.770213	0.595765
H61	H	-3.556958	0.703160	0.582834
H62	H	-3.540664	0.832530	0.557123
H63	H	-4.244119	0.358183	-0.222229
N64	N	-4.135576	0.419099	-0.480616
H65	H	-4.282768	0.401880	-0.422909
H66	H	-4.127136	0.494075	-0.522756
N67	N	-3.692113	0.459801	-0.604269
H68	H	-3.809381	0.464564	-0.641099
H69	H	-3.621739	0.530830	-0.620535
H70	H	-3.990637	0.102676	0.902719
N71	N	-3.413601	0.434423	-0.453774
H72	H	-3.383683	0.456423	-0.548307
H73	H	-3.368591	0.492422	-0.415043
N74	N	-4.320556	0.134930	0.813872
H75	H	-4.349716	0.059953	0.855999
H76	H	-4.357184	0.183883	0.881686
