data_functionalizedCrystal
_audit_creation_method	'MofGen! by Chris Wilmer'
_symmetry_space_group_name_H-M	'P1'
_symmetry_Int_Tables_number	1
_symmetry_cell_setting	triclinic
loop_
_symmetry_equiv_pos_as_xyz
  x,y,z
_cell_length_a	13.897449
_cell_length_b	13.897448
_cell_length_c	13.897441
_cell_angle_alpha	90.030599
_cell_angle_beta	90.020733
_cell_angle_gamma	90.018972
loop_
_atom_site_label
_atom_site_type_symbol
_atom_site_fract_x
_atom_site_fract_y
_atom_site_fract_z
Zn1	Zn	1.474703	-0.383951	0.545381
Zn2	Zn	1.974703	0.116049	1.045381
Zn3	Zn	1.474597	-0.545273	0.384083
Zn4	Zn	1.974597	-0.045273	0.884083
Zn5	Zn	1.313392	-0.383997	0.384100
Zn6	Zn	1.813392	0.116003	0.884100
Zn7	Zn	1.313373	-0.545210	0.545335
Zn8	Zn	1.813373	-0.045210	1.045335
O9	O	1.394016	-0.464608	0.464725
O10	O	1.894016	0.035392	0.964725
O11	O	1.609670	-0.405358	0.523997
O12	O	2.109670	0.094642	1.023997
O13	O	1.453176	-0.523925	0.249103
O14	O	1.953176	-0.023925	0.749103
O15	O	1.334842	-0.249009	0.405520
O16	O	1.834842	0.250991	0.905520
O17	O	1.609592	-0.523881	0.405491
O18	O	2.109592	-0.023881	0.905491
O19	O	1.453356	-0.248976	0.524013
O20	O	1.953356	0.251024	1.024013
O21	O	1.334739	-0.405436	0.249116
O22	O	1.834739	0.094564	0.749116
O23	O	1.178408	-0.405375	0.405476
O24	O	1.678408	0.094625	0.905476
O25	O	1.334811	-0.523773	0.680323
O26	O	1.834811	-0.023773	1.180323
O27	O	1.178394	-0.523817	0.523935
O28	O	1.678394	-0.023817	1.023935
O29	O	1.453339	-0.405297	0.680357
O30	O	1.953339	0.094703	1.180357
O31	O	1.453158	-0.680246	0.405447
O32	O	1.953158	-0.180246	0.905447
O33	O	1.334708	-0.680200	0.523918
O34	O	1.834708	-0.180200	1.023918
C35	C	1.143402	-0.464595	0.464703
C36	C	1.643402	0.035405	0.964703
C37	C	1.036188	-0.464613	0.464716
C38	C	1.536188	0.035387	0.964716
C39	C	0.839893	-0.464616	0.464741
C40	C	1.339893	0.035384	0.964741
C41	C	0.949125	-0.464611	0.464725
C42	C	1.449125	0.035389	0.964725
C43	C	1.393946	-0.715222	0.464697
C44	C	1.893946	-0.215222	0.964697
C45	C	1.394004	-0.822436	0.464717
C46	C	1.894004	-0.322436	0.964717
C47	C	1.394105	-1.018731	0.464778
C48	C	1.894105	-0.518731	0.964778
C49	C	1.394046	-0.909499	0.464747
C50	C	1.894046	-0.409499	0.964747
C51	C	1.645609	-0.464621	0.464747
C52	C	2.145609	0.035379	0.964747
C53	C	1.752823	-0.464627	0.464757
C54	C	2.252823	0.035373	0.964757
C55	C	1.394085	-0.464522	0.716318
C56	C	1.894085	0.035478	1.216318
C57	C	1.394114	-0.464486	0.823532
C58	C	1.894114	0.035514	1.323532
C59	C	1.394113	-0.213015	0.464774
C60	C	1.894113	0.286985	0.964774
C61	C	1.394154	-0.105801	0.464795
C62	C	1.894154	0.394199	0.964795
C63	C	1.394003	-0.464623	0.214110
C64	C	1.894003	0.035377	0.714110
C65	C	1.394161	-0.464388	0.106897
C66	C	1.894161	0.035612	0.606897
C67	C	1.394140	-0.464421	1.019827
C68	C	1.894140	0.035579	1.519827
C69	C	1.394122	-0.464460	0.910594
C70	C	1.894122	0.035540	1.410594
