data_functionalizedCrystal
_audit_creation_method	'MofGen! by Chris Wilmer'
_symmetry_space_group_name_H-M	'P1'
_symmetry_Int_Tables_number	1
_symmetry_cell_setting	triclinic
loop_
_symmetry_equiv_pos_as_xyz
  x,y,z
_cell_length_a	10.685980
_cell_length_b	10.686285
_cell_length_c	10.688615
_cell_angle_alpha	90.321613
_cell_angle_beta	89.601434
_cell_angle_gamma	89.665709
loop_
_atom_site_label
_atom_site_type_symbol
_atom_site_fract_x
_atom_site_fract_y
_atom_site_fract_z
Zn1	Zn	1.898735	-0.420452	-0.826755
Zn2	Zn	1.930279	-0.611892	-0.603601
Zn3	Zn	1.704665	-0.418013	-0.601140
Zn4	Zn	1.707261	-0.643620	-0.794928
O5	O	1.810235	-0.523494	-0.706606
O6	O	2.077472	-0.433590	-0.811504
O7	O	1.912466	-0.571874	-0.428783
O8	O	1.716120	-0.243801	-0.643358
O9	O	2.100648	-0.574240	-0.647553
O10	O	1.858703	-0.245593	-0.809117
O11	O	1.746708	-0.429432	-0.426975
O12	O	1.530456	-0.460197	-0.612496
O13	O	1.720546	-0.628315	-0.973641
O14	O	1.532364	-0.625950	-0.754871
O15	O	1.861221	-0.464355	-0.997025
O16	O	1.914984	-0.790636	-0.616691
O17	O	1.751133	-0.813946	-0.757258
C18	C	1.486151	-0.546252	-0.679963
C19	C	1.347506	-0.556021	-0.668593
C20	C	1.836795	-0.847546	-0.683818
C21	C	1.848269	-0.986172	-0.674120
C22	C	2.135585	-0.500648	-0.733354
C23	C	2.274229	-0.490912	-0.744752
C24	C	1.787654	-0.550147	-1.031842
C25	C	1.778032	-0.561504	-1.170438
C26	C	1.783603	-0.198177	-0.729513
C27	C	1.772254	-0.059546	-0.739275
C28	C	1.832792	-0.496850	-0.382648
C29	C	1.842628	-0.485124	-0.244097
H30	H	1.317560	-0.427688	-0.818652
C31	C	1.926240	-0.385763	-0.186929
C32	C	1.885837	-0.267197	-0.225129
C33	C	1.962818	-0.175635	-0.172480
H34	H	2.010156	-0.399129	-0.213936
H35	H	1.921929	-0.390702	-0.098285
H36	H	1.890160	-0.262261	-0.313754
H37	H	1.801933	-0.253790	-0.198122
H38	H	1.958507	-0.180574	-0.083836
H39	H	2.046730	-0.189013	-0.199491
H40	H	1.935409	-0.095178	-0.198381
C41	C	1.289668	-0.640502	-0.570231
C42	C	1.216580	-0.731555	-0.629012
C43	C	1.163295	-0.809409	-0.538446
H44	H	1.238583	-0.591955	-0.515170
H45	H	1.354196	-0.680116	-0.523992
H46	H	1.152061	-0.691944	-0.675229
H47	H	1.267637	-0.780131	-0.684065
H48	H	1.227822	-0.849023	-0.492207
H49	H	1.112215	-0.760852	-0.483390
H50	H	1.113708	-0.871205	-0.578316
C51	C	1.694367	-0.660632	-0.227913
C52	C	1.700944	-0.652980	-0.358517
C53	C	1.623904	-0.744290	-0.411513
H54	H	1.610428	-0.647196	-0.201012
H55	H	1.721603	-0.741208	-0.202185
H56	H	1.673702	-0.572422	-0.384235
H57	H	1.784865	-0.666429	-0.385454
H58	H	1.651141	-0.824866	-0.385785
H59	H	1.539971	-0.730846	-0.384602
H60	H	1.628366	-0.739118	-0.500132
C61	C	1.673971	-1.001838	-0.823736
C62	C	1.732863	-0.928578	-0.914714
C63	C	1.642366	-0.875403	-0.992552
H64	H	1.618782	-0.950890	-0.775190
H65	H	1.627833	-1.066420	-0.863389
H66	H	1.778980	-0.864005	-0.875063
H67	H	1.788045	-0.979497	-0.963288
H68	H	1.596228	-0.939985	-1.032206
H69	H	1.587182	-0.824461	-0.943996
H70	H	1.682312	-0.825700	-1.054296
C71	C	1.946754	-1.044055	-0.589997
C72	C	1.938990	-1.174657	-0.596829
C73	C	2.029721	-1.228020	-0.519388
H74	H	1.932791	-1.017375	-0.506109
H75	H	2.027541	-1.018354	-0.616737
H76	H	1.858221	-1.200347	-0.570082
H77	H	1.952966	-1.201371	-0.680699
H78	H	2.110508	-1.202319	-0.546129
H79	H	2.015750	-1.201331	-0.435506
H80	H	2.024473	-1.316638	-0.524023
