data_functionalizedCrystal
_audit_creation_method	'MofGen! by Chris Wilmer'
_symmetry_space_group_name_H-M	'P1'
_symmetry_Int_Tables_number	1
_symmetry_cell_setting	triclinic
loop_
_symmetry_equiv_pos_as_xyz
  x,y,z
_cell_length_a	14.908558
_cell_length_b	18.050588
_cell_length_c	14.908308
_cell_angle_alpha	86.733716
_cell_angle_beta	89.824401
_cell_angle_gamma	86.724773
loop_
_atom_site_label
_atom_site_type_symbol
_atom_site_fract_x
_atom_site_fract_y
_atom_site_fract_z
Zn1	Zn	1.345223	-0.387575	0.587563
Zn2	Zn	1.353781	-0.505040	0.437201
Zn3	Zn	1.203541	-0.373308	0.428563
Zn4	Zn	1.194809	-0.504156	0.578854
O5	O	1.274339	-0.442520	0.508045
O6	O	1.472184	-0.409497	0.574877
O7	O	1.341087	-0.481965	0.310231
O8	O	1.222409	-0.271281	0.449684
O9	O	1.478471	-0.495799	0.464407
O10	O	1.326502	-0.281762	0.566501
O11	O	1.230707	-0.385183	0.303884
O12	O	1.076558	-0.384325	0.441239
O13	O	1.207526	-0.494291	0.705834
O14	O	1.070142	-0.480458	0.551658
O15	O	1.318035	-0.408640	0.712233
O16	O	1.332620	-0.608843	0.455962
O17	O	1.215824	-0.608193	0.560034
C18	C	1.040725	-0.430748	0.494566
C19	C	0.940783	-0.425731	0.488821
C20	C	0.803227	-0.368543	0.423329
C21	C	0.897132	-0.373253	0.428724
C22	C	0.890521	-0.473501	0.543531
C23	C	0.796617	-0.468790	0.538136
C24	C	0.752973	-0.416311	0.478033
C25	C	0.659067	-0.411604	0.472635
C26	C	0.652458	-0.511848	0.587446
C27	C	0.746362	-0.516558	0.592840
C28	C	1.274226	-0.635465	0.508012
C29	C	1.274259	-0.718013	0.508032
C30	C	1.210839	-0.966517	0.564632
C31	C	1.291554	-0.922159	0.591418
C32	C	1.274442	-1.015145	0.508093
C33	C	1.193639	-0.912418	0.481320
C34	C	1.274348	-0.869154	0.508065
C35	C	1.355199	-0.971879	0.534924
C36	C	1.257231	-0.962137	0.424784
C37	C	1.338004	-0.917803	0.451542
C38	C	1.274496	-1.099247	0.508111
C39	C	1.274304	-0.785055	0.508047
C40	C	1.508864	-0.454338	0.521577
C41	C	1.608805	-0.459374	0.527344
C42	C	1.260851	-0.452958	0.742571
C43	C	1.255104	-0.457406	0.842511
C44	C	1.274475	-0.248823	0.508100
C45	C	1.274533	-0.166281	0.508123
C46	C	1.287825	-0.432071	0.274435
C47	C	1.293747	-0.427422	0.174505
C48	C	1.359374	-0.376559	1.036975
C49	C	1.353977	-0.380736	1.130878
C50	C	1.238908	-0.469933	1.124223
C51	C	1.244305	-0.465756	1.030319
C52	C	1.304541	-0.419068	0.986699
C53	C	1.309943	-0.414895	0.892794
C54	C	1.194870	-0.504088	0.886140
C55	C	1.189472	-0.508266	0.980044
H56	H	0.926072	-0.516224	0.592468
N57	N	0.790931	-0.570164	0.654240
N58	N	0.775688	-0.568517	0.736617
H59	H	0.807161	-0.606379	0.779982
H60	H	1.189866	-0.507944	1.159755
H61	H	1.398625	-0.346118	1.171809
N62	N	1.107976	-0.879850	0.452910
N63	N	1.094436	-0.810758	0.447715
H64	H	1.033936	-0.787757	0.427656
N65	N	1.440900	-1.004317	0.563406
N66	N	1.486415	-1.044077	0.512179
H67	H	1.546940	-1.066988	0.532295
N68	N	0.948481	-0.324463	0.372857
N69	N	0.999083	-0.281224	0.407607
H70	H	1.035351	-0.246763	0.368151
H71	H	1.391809	-0.896541	0.403720
N72	N	0.601110	-0.560649	0.643310
N73	N	0.517269	-0.556445	0.638478
H74	H	0.481003	-0.590914	0.677925
N75	N	1.127946	-0.555945	1.024619
N76	N	1.123130	-0.559667	1.108460
H77	H	1.079677	-0.593342	1.139941
H78	H	0.767692	-0.325813	0.374389
N79	N	1.238972	-0.984375	0.336438
N80	N	1.166471	-0.963413	0.298597
H81	H	1.153566	-0.979118	0.236201
H82	H	1.358992	-0.376881	0.857280
N83	N	1.309752	-0.899909	0.679778
N84	N	1.313267	-0.832511	0.693753
H85	H	1.326108	-0.816794	0.756158
N86	N	1.143494	-0.993366	0.624686
N87	N	1.147010	-0.981514	0.706360
H88	H	1.099451	-1.000477	0.748775
H89	H	1.408426	-0.338547	1.001458
N90	N	1.138848	-0.547500	0.834773
N91	N	1.084581	-0.516155	0.779076
H92	H	1.045016	-0.546813	0.742798
N93	N	0.614498	-0.357999	0.411234
N94	N	0.659383	-0.315354	0.362399
H95	H	0.627909	-0.277492	0.319034
