data_functionalizedCrystal
_audit_creation_method	'MofGen! by Chris Wilmer'
_symmetry_space_group_name_H-M	'P1'
_symmetry_Int_Tables_number	1
_symmetry_cell_setting	triclinic
loop_
_symmetry_equiv_pos_as_xyz
  x,y,z
_cell_length_a	18.215407
_cell_length_b	17.640280
_cell_length_c	18.215399
_cell_angle_alpha	78.775397
_cell_angle_beta	89.980167
_cell_angle_gamma	78.800709
loop_
_atom_site_label
_atom_site_type_symbol
_atom_site_fract_x
_atom_site_fract_y
_atom_site_fract_z
Zn1	Zn	1.184366	-0.314661	-0.356963
Zn2	Zn	1.209181	-0.446838	-0.209048
Zn3	Zn	1.061303	-0.314687	-0.233905
Zn4	Zn	1.086163	-0.446794	-0.332082
O5	O	1.135253	-0.380745	-0.282999
O6	O	1.290643	-0.332202	-0.337352
O7	O	1.189546	-0.429337	-0.109356
O8	O	1.056838	-0.204079	-0.271045
O9	O	1.308875	-0.429312	-0.228680
O10	O	1.147252	-0.204060	-0.361454
O11	O	1.080901	-0.332246	-0.127618
O12	O	0.961615	-0.332203	-0.246918
O13	O	1.099208	-0.429237	-0.438372
O14	O	0.979879	-0.429262	-0.319048
O15	O	1.171357	-0.332159	-0.456652
O16	O	1.213652	-0.557436	-0.204553
O17	O	1.123271	-0.557404	-0.294945
C18	C	0.944044	-0.380731	-0.282981
C19	C	0.862248	-0.380745	-0.282987
C20	C	0.683598	-0.431363	-0.320471
C21	C	0.606740	-0.431365	-0.320479
C22	C	0.587662	-0.330142	-0.245542
C23	C	0.664519	-0.330136	-0.245538
C24	C	0.712485	-0.380751	-0.283000
C25	C	0.558771	-0.380759	-0.283013
C26	C	0.475438	-0.380761	-0.283022
C27	C	0.795824	-0.380748	-0.282993
C28	C	1.173871	-0.586099	-0.244368
C29	C	1.190460	-0.673950	-0.227866
C30	C	1.009534	-0.962935	-0.408631
C31	C	1.025123	-1.045484	-0.393101
C32	C	1.119295	-1.045452	-0.299071
C33	C	1.103717	-0.962901	-0.314596
C34	C	1.048835	-0.921649	-0.369375
C35	C	1.143018	-0.921615	-0.275340
C36	C	1.127438	-0.839071	-0.290861
C37	C	1.072557	-0.797813	-0.345636
C38	C	1.033255	-0.839105	-0.384896
C39	C	1.197896	-0.962869	-0.220557
C40	C	1.237196	-0.921583	-0.181301
C41	C	1.221620	-0.839038	-0.196825
C42	C	1.166739	-0.797780	-0.251601
C43	C	1.260922	-0.797746	-0.157566
C44	C	1.245342	-0.715202	-0.173086
C45	C	1.151159	-0.715236	-0.267122
C46	C	1.327209	-0.380759	-0.283018
C47	C	1.409009	-0.380765	-0.283027
C48	C	1.135288	-0.380690	-0.474963
C49	C	1.135302	-0.380667	-0.556766
C50	C	1.096504	-0.174589	-0.321798
C51	C	1.079991	-0.086738	-0.338331
C52	C	1.172878	-0.330072	-0.754489
C53	C	1.172883	-0.330049	-0.831352
C54	C	1.097755	-0.431141	-0.812304
C55	C	1.097747	-0.431159	-0.735444
C56	C	1.135313	-0.380626	-0.706537
C57	C	1.135326	-0.380584	-0.860261
C58	C	1.135330	-0.380560	-0.943600
C59	C	1.135307	-0.380649	-0.623194
C60	C	1.135250	-0.380742	-0.091794
C61	C	1.135336	-0.380543	-0.010033
H62	H	1.106474	-0.681646	-0.311735
H63	H	0.583224	-0.472577	-0.350993
O64	O	0.541167	-0.280908	-0.209136
C65	C	0.530365	-0.180546	-0.134765
C66	C	0.583099	-0.236248	-0.175982
H67	H	0.564247	-0.144435	-0.107936
H68	H	0.486640	-0.139212	-0.176354
H69	H	0.501167	-0.216800	-0.089444
H70	H	0.612348	-0.200057	-0.221301
H71	H	0.626778	-0.277583	-0.134347
H72	H	0.688037	-0.288916	-0.215026
H73	H	1.059867	-0.730600	-0.358267
H74	H	0.964849	-0.929345	-0.453244
H75	H	1.305601	-0.831346	-0.112959
O76	O	0.979906	-0.799147	-0.438120
C77	C	0.888187	-0.807880	-0.529811
C78	C	0.948565	-0.853230	-0.469542
H79	H	0.862842	-0.851587	-0.555243
H80	H	0.842391	-0.769300	-0.503287
H81	H	0.914673	-0.769172	-0.575562
H82	H	0.922147	-0.891982	-0.423773
H83	H	0.994354	-0.891761	-0.496121
H84	H	1.163978	-1.079051	-0.254467
O85	O	0.730083	-0.480547	-0.356932
C86	C	0.740895	-0.580974	-0.431230
C87	C	0.688168	-0.525301	-0.389979
H88	H	0.707030	-0.617184	-0.457947
H89	H	0.770064	-0.544772	-0.476621
H90	H	0.784643	-0.622222	-0.389610
H91	H	0.644379	-0.484042	-0.431542
H92	H	0.659055	-0.561553	-0.344577
O93	O	0.986900	-1.085467	-0.431334
C94	C	0.891812	-1.076786	-0.526215
C95	C	0.935054	-1.031408	-0.482987
H96	H	0.849873	-1.033099	-0.567975
H97	H	0.932824	-1.115361	-0.557524
H98	H	0.860691	-1.115503	-0.485102
H99	H	0.966177	-0.992648	-0.524050
H100	H	0.894005	-0.992883	-0.451667
H101	H	1.210581	-1.030082	-0.207924
O102	O	1.290508	-0.961537	-0.128046
C103	C	1.382318	-0.952790	-0.036453
C104	C	1.321947	-0.907448	-0.096731
H105	H	1.407764	-0.909079	-0.011129
H106	H	1.355891	-0.991460	0.009384
H107	H	1.428033	-0.991409	-0.063030
H108	H	1.276213	-0.868786	-0.070221
H109	H	1.348429	-0.868828	-0.142561
H110	H	1.067151	-0.472326	-0.696400
H111	H	1.277344	-0.681587	-0.141120
O112	O	1.209372	-0.280906	-0.726537
C113	C	1.283921	-0.180663	-0.753540
C114	C	1.242609	-0.236293	-0.785293
H115	H	1.310816	-0.144591	-0.801026
H116	H	1.242384	-0.139290	-0.725359
H117	H	1.329192	-0.216971	-0.710710
H118	H	1.197339	-0.200049	-0.828150
H119	H	1.284191	-0.277668	-0.813427
H120	H	1.203471	-0.288881	-0.870391
H121	H	1.067172	-0.472285	-0.835849
