data_functionalizedCrystal
_audit_creation_method	'MofGen! by Chris Wilmer'
_symmetry_space_group_name_H-M	'P1'
_symmetry_Int_Tables_number	1
_symmetry_cell_setting	triclinic
loop_
_symmetry_equiv_pos_as_xyz
  x,y,z
_cell_length_a	14.971486
_cell_length_b	9.730223
_cell_length_c	14.971486
_cell_angle_alpha	90.001545
_cell_angle_beta	83.614129
_cell_angle_gamma	89.995250
loop_
_atom_site_label
_atom_site_type_symbol
_atom_site_fract_x
_atom_site_fract_y
_atom_site_fract_z
O1	O	1.186940	0.114132	0.116559
O2	O	0.926539	0.114170	0.130518
O3	O	1.063719	0.114140	-0.006662
O4	O	1.049760	0.114162	0.253738
O5	O	1.063717	-0.114439	-0.006658
O6	O	0.926538	-0.114410	0.130521
O7	O	1.186938	-0.114447	0.116562
Zn8	Zn	1.056738	-0.150721	0.123542
Zn9	Zn	1.056740	0.150443	0.123538
O10	O	1.049758	-0.114418	0.253742
C11	C	0.893214	-0.000115	0.129895
C12	C	0.793917	-0.000101	0.128024
C13	C	0.736692	-0.000096	0.208614
C14	C	0.643392	-0.000117	0.206850
C15	C	0.607320	-0.000133	0.124497
C16	C	0.664552	-0.000141	0.043902
C17	C	0.757850	-0.000131	0.045666
C18	C	0.470090	-0.000161	0.040231
C19	C	0.376786	-0.000169	0.038466
C20	C	0.355632	-0.000147	0.201415
C21	C	0.448930	-0.000136	0.203179
C22	C	0.506156	-0.000143	0.122584
N23	N	1.056743	-0.356257	0.123545
C24	C	1.117501	-0.428196	0.062822
C25	C	1.117499	-0.572079	0.062811
C26	C	0.995977	-0.572071	0.184254
C27	C	0.995975	-0.428191	0.184259
C28	C	1.178269	-0.356262	0.002108
C29	C	1.239033	-0.428202	-0.058619
C30	C	1.239030	-0.572085	-0.058630
C31	C	1.178264	-0.644028	0.002086
C32	C	1.220263	-0.000159	0.117185
C33	C	1.319561	-0.000164	0.119056
C34	C	1.063094	-0.000149	-0.039985
C35	C	1.061223	-0.000148	-0.139282
N36	N	1.056742	0.355980	0.123528
C37	C	1.141812	-0.000160	-0.196507
C38	C	1.140049	-0.000146	-0.289807
C39	C	1.057696	-0.000129	-0.325879
C40	C	0.977101	-0.000112	-0.268646
C41	C	0.978865	-0.000117	-0.175349
C42	C	0.973430	-0.000107	-0.463109
C43	C	0.971665	-0.000105	-0.556413
C44	C	1.134614	-0.000136	-0.577567
C45	C	1.136378	-0.000141	-0.484269
C46	C	1.055782	-0.000126	-0.427043
C47	C	1.050384	-0.000125	0.287065
C48	C	1.052254	-0.000118	0.386362
H49	H	0.596802	-0.000112	0.272474
H50	H	0.766054	-0.000083	0.275675
H51	H	1.200238	-0.000144	-0.624165
C52	C	0.886512	-0.000092	-0.308326
C53	C	0.819535	-0.118773	-0.286774
C54	C	0.728945	-0.118756	-0.326453
C55	C	0.705331	-0.000058	-0.387684
C56	C	0.772309	0.118632	-0.409239
C57	C	0.862899	0.118615	-0.369560
H58	H	0.837014	-0.206649	-0.241444
H59	H	0.679364	-0.206620	-0.310495
H60	H	0.638270	-0.000046	-0.417056
H61	H	0.754829	0.206508	-0.454569
H62	H	0.912480	0.206479	-0.385518
H63	H	1.205673	-0.000159	-0.336396
C64	C	0.533042	-0.000165	-0.048424
C65	C	0.528957	-0.118863	-0.115883
C66	C	0.591910	-0.118860	-0.204534
C67	C	0.658949	-0.000158	-0.225725
C68	C	0.663037	0.118549	-0.158264
C69	C	0.600084	0.118545	-0.069613
H70	H	0.479329	-0.206741	-0.100197
H71	H	0.588884	-0.206735	-0.254473
H72	H	0.705550	-0.000156	-0.291350
H73	H	0.712665	0.206426	-0.173950
H74	H	0.603110	0.206421	-0.019674
H75	H	0.478296	-0.000111	0.270239
C76	C	1.305865	-0.651222	-0.125428
C77	C	1.372699	-0.572094	-0.192214
C78	C	1.439539	-0.651230	-0.259011
C79	C	1.439544	-0.809492	-0.259022
C80	C	1.372707	-0.888629	-0.192234
C81	C	1.305868	-0.809494	-0.125437
H82	H	1.372697	-0.454931	-0.192208
H83	H	1.489016	-0.592647	-0.308452
H84	H	1.489023	-0.868073	-0.308469
H85	H	1.372709	-1.005792	-0.192240
H86	H	1.256391	-0.868077	-0.075996
C87	C	1.226967	-0.000156	-0.444590
C88	C	1.293943	-0.118856	-0.466146
C89	C	1.384533	-0.118865	-0.426468
C90	C	1.408149	-0.000173	-0.365233
C91	C	1.341171	0.118536	-0.343673
C92	C	1.250581	0.118545	-0.383351
H93	H	1.276463	-0.206726	-0.511479
H94	H	1.434114	-0.206741	-0.442428
H95	H	1.475209	-0.000179	-0.335860
H96	H	1.358651	0.206407	-0.298340
H97	H	1.201000	0.206422	-0.367391
H98	H	1.178261	-0.761188	0.002066
H99	H	0.309033	-0.000148	0.267039
H100	H	0.804443	-0.000134	-0.019958
H101	H	1.288502	-0.369618	-0.108057
H102	H	0.347419	-0.000183	-0.028593
C103	C	0.929143	-0.651204	0.251044
C104	C	0.929262	-0.809467	0.251159
C105	C	0.862430	-0.888597	0.317954
C106	C	0.795479	-0.809465	0.384633
C107	C	0.795358	-0.651193	0.384521
C108	C	0.862191	-0.572063	0.317726
H109	H	0.978825	-0.868053	0.201796
H110	H	0.862520	-1.005760	0.318036
H111	H	0.746006	-0.868042	0.434078
H112	H	0.745796	-0.592607	0.433883
H113	H	0.862101	-0.454900	0.317643
H114	H	0.635175	-0.000174	-0.023152
H115	H	1.178278	-0.239106	0.002113
H116	H	0.904606	-0.000114	-0.585780
H117	H	0.907800	-0.000092	-0.416517
H118	H	0.946499	-0.369617	0.233705
H119	H	1.208874	-0.000182	-0.167145
H120	H	0.913240	-0.000106	-0.128756
