data_functionalizedCrystal
_audit_creation_method	'MofGen! by Chris Wilmer'
_symmetry_space_group_name_H-M	'P1'
_symmetry_Int_Tables_number	1
_symmetry_cell_setting	triclinic
loop_
_symmetry_equiv_pos_as_xyz
  x,y,z
_cell_length_a	8.497374
_cell_length_b	13.032831
_cell_length_c	13.032268
_cell_angle_alpha	90.886977
_cell_angle_beta	97.165050
_cell_angle_gamma	82.807824
loop_
_atom_site_label
_atom_site_type_symbol
_atom_site_fract_x
_atom_site_fract_y
_atom_site_fract_z
Zn1	Zn	1.065474	-1.498661	0.781026
Zn2	Zn	1.300536	-1.520443	0.609088
Zn3	Zn	0.999567	-1.348508	0.587255
Zn4	Zn	1.292006	-1.326690	0.759212
O5	O	1.164396	-1.423576	0.684146
O6	O	1.127808	-1.645476	0.776485
O7	O	1.236600	-1.515883	0.462271
O8	O	0.787549	-1.368441	0.612952
O9	O	1.300507	-1.661480	0.650163
O10	O	0.835971	-1.478758	0.755314
O11	O	1.015479	-1.389563	0.446231
O12	O	1.007208	-1.201688	0.591799
O13	O	1.285969	-1.331255	0.906027
O14	O	1.222061	-1.185658	0.718135
O15	O	1.119537	-1.457602	0.922054
O16	O	1.520166	-1.494726	0.629011
O17	O	1.513899	-1.352377	0.739306
C18	C	1.106558	-1.156355	0.650232
C19	C	1.081857	-1.042033	0.635747
C20	C	1.209153	-1.389565	0.952401
C21	C	1.228226	-1.375072	1.066715
C22	C	1.222461	-1.691840	0.718193
C23	C	1.247205	-1.806158	0.732701
C24	C	1.574276	-1.423561	0.684159
C25	C	1.752923	-1.423590	0.684145
C26	C	1.119712	-1.457513	0.416941
C27	C	1.100238	-1.472205	0.302653
C28	C	1.177288	-0.983173	0.691705
C29	C	1.151761	-0.865016	0.676736
C30	C	1.154382	-1.431124	1.125610
C31	C	1.174093	-1.416146	1.243760
H32	H	1.051147	-0.827937	0.617747
C33	C	1.050480	-1.509752	1.076067
C34	C	0.926569	-1.459293	1.006975
C35	C	0.830837	-1.531697	0.961310
H36	H	1.006542	-1.543019	1.128221
H37	H	1.113537	-1.559824	1.039786
H38	H	0.863521	-1.409240	1.043255
H39	H	0.970460	-1.426032	0.954802
H40	H	0.893893	-1.581768	0.925028
H41	H	0.786910	-1.564959	1.013470
H42	H	0.746761	-1.497472	0.914418
C43	C	1.277860	-1.337459	1.293343
C44	C	1.276830	-1.338273	1.400676
C45	C	1.372420	-1.265815	1.446388
H46	H	1.237029	-1.270505	1.267137
H47	H	1.384252	-1.354722	1.277762
H48	H	1.170459	-1.321003	1.416249
H49	H	1.317675	-1.405209	1.426911
H50	H	1.478812	-1.283078	1.430807
H51	H	1.331579	-1.198867	1.420174
H52	H	1.371745	-1.266364	1.519219
H53	H	1.347805	-0.843235	0.791701
C54	C	1.332235	-1.296372	1.115977
C55	C	1.488844	-1.322025	1.092745
C56	C	1.584700	-1.249541	1.138091
H57	H	1.331898	-1.296705	1.188831
H58	H	1.291371	-1.229464	1.089624
H59	H	1.529698	-1.388915	1.119102
H60	H	1.489231	-1.321684	1.019900
H61	H	1.543836	-1.182633	1.111738
H62	H	1.584350	-1.249880	1.210943
H63	H	1.690966	-1.266931	1.122327
H64	H	1.022410	-1.531281	1.265610
H65	H	1.277884	-1.020256	0.750697
H66	H	0.981251	-1.004949	0.576763
