data_functionalizedCrystal
_audit_creation_method	'MofGen! by Chris Wilmer'
_symmetry_space_group_name_H-M	'P1'
_symmetry_Int_Tables_number	1
_symmetry_cell_setting	triclinic
loop_
_symmetry_equiv_pos_as_xyz
  x,y,z
_cell_length_a	16.959453
_cell_length_b	12.594517
_cell_length_c	16.959447
_cell_angle_alpha	90.008738
_cell_angle_beta	90.031096
_cell_angle_gamma	90.024779
loop_
_atom_site_label
_atom_site_type_symbol
_atom_site_fract_x
_atom_site_fract_y
_atom_site_fract_z
Zn1	Zn	-0.314667	1.627144	0.446787
Zn2	Zn	-0.446859	1.627024	0.314606
Zn3	Zn	-0.314699	1.449165	0.314637
Zn4	Zn	-0.446807	1.449102	0.446758
O5	O	-0.380758	1.538109	0.380697
O6	O	-0.332211	1.776074	0.429252
O7	O	-0.429363	1.603407	0.203999
O8	O	-0.204084	1.472850	0.332192
O9	O	-0.429332	1.775986	0.332140
O10	O	-0.204060	1.603610	0.429282
O11	O	-0.332265	1.472734	0.204022
O12	O	-0.332215	1.300211	0.332164
O13	O	-0.429243	1.472744	0.557373
O14	O	-0.429274	1.300165	0.429232
O15	O	-0.332161	1.603550	0.557394
O16	O	-0.557463	1.603347	0.332112
O17	O	-0.557425	1.472628	0.429203
C18	C	-0.380743	1.261568	0.380699
C19	C	-0.380755	1.143262	0.380718
C20	C	-0.586124	1.537997	0.380668
C21	C	-0.673981	1.538046	0.380682
C22	C	-0.433642	1.003252	0.433416
C23	C	-0.452880	1.074028	0.361275
C24	C	-0.361552	1.074058	0.452851
C25	C	-0.400057	1.003253	0.308516
C26	C	-0.308695	1.003277	0.400141
C27	C	-0.327906	1.074021	0.327950
C28	C	-0.715264	1.469954	0.431197
C29	C	-0.715251	1.606192	0.330184
C30	C	-0.797797	1.606245	0.330199
C31	C	-0.839080	1.538152	0.380714
C32	C	-0.797818	1.470006	0.431215
C33	C	-0.839066	1.674396	0.279704
C34	C	-0.921617	1.674453	0.279717
C35	C	-0.962902	1.606354	0.330229
C36	C	-0.921634	1.538205	0.380731
C37	C	-0.962917	1.470112	0.431246
C38	C	-0.921650	1.401957	0.481745
C39	C	-0.839102	1.401908	0.481726
C40	C	-1.045450	1.606403	0.330248
C41	C	-1.045470	1.470165	0.431264
C42	C	-0.174590	1.538250	0.380743
C43	C	-0.086733	1.538311	0.380763
C44	C	-0.380693	1.538153	0.586865
C45	C	-0.380665	1.538172	0.674722
C46	C	-0.380774	1.815730	0.380696
C47	C	-0.380781	1.934035	0.380695
C48	C	-0.380766	1.538126	0.175331
C49	C	-0.380571	1.538313	0.087475
C50	C	-0.431128	1.470194	1.046189
C51	C	-0.330035	1.606404	1.046206
C52	C	-0.330052	1.606376	0.963660
C53	C	-0.380608	1.538257	0.922375
C54	C	-0.431148	1.470166	0.963636
C55	C	-0.279518	1.674473	0.922394
C56	C	-0.279534	1.674448	0.839843
C57	C	-0.330087	1.606323	0.798556
C58	C	-0.380628	1.538229	0.839821
C59	C	-0.431185	1.470110	0.798536
C60	C	-0.481722	1.402009	0.839800
C61	C	-0.481701	1.402041	0.922349
C62	C	-0.330108	1.606291	0.716007
C63	C	-0.431205	1.470081	0.715982
H64	H	-0.478389	0.972179	0.477935
H65	H	-0.513831	1.105105	0.344832
C66	C	-0.537351	1.327106	0.794385
H67	H	-0.567456	1.286563	0.830778
H68	H	-0.507135	1.280740	0.762180
H69	H	-0.571798	1.367822	0.762183
C70	C	-0.967067	1.327060	0.537309
H71	H	-1.022139	1.336856	0.530082
H72	H	-0.953488	1.342570	0.590426
H73	H	-0.953603	1.255542	0.525684
H74	H	-0.681663	1.414459	0.472310
H75	H	-0.238363	1.729938	0.956014
C76	C	-0.223941	1.749343	0.794456
H77	H	-0.231193	1.739574	0.739379
H78	H	-0.170830	1.733806	0.808006
H79	H	-0.235514	1.820860	0.807972
H80	H	-0.522849	1.346601	0.955953
H81	H	-0.345299	1.105160	0.513864
C82	C	-0.486718	1.395293	1.091574
H83	H	-0.479471	1.405066	1.146651
H84	H	-0.475151	1.323783	1.078051
H85	H	-0.539833	1.410840	1.078029
C86	C	-0.793708	1.326955	0.537275
H87	H	-0.738633	1.336688	0.530036
H88	H	-0.807288	1.255458	0.525669
H89	H	-0.807189	1.342500	0.590399
H90	H	-0.288878	1.661869	1.079826
H91	H	-1.079046	1.661901	0.289138
C92	C	-1.090879	1.395264	0.486831
H93	H	-1.145953	1.405051	0.479609
H94	H	-1.077297	1.410777	0.539946
H95	H	-1.077410	1.323748	0.475206
C96	C	-0.669843	1.681095	0.274628
H97	H	-0.614769	1.671301	0.281850
H98	H	-0.683318	1.752605	0.286246
H99	H	-0.683416	1.665573	0.221508
H100	H	-0.416383	0.972282	0.247487
C101	C	-0.226385	0.961246	0.422383
H102	H	-0.212809	0.985445	0.473686
H103	H	-0.188691	0.986528	0.385465
H104	H	-0.226881	0.885824	0.421739
C105	C	-0.793656	1.749311	0.224158
H106	H	-0.738583	1.739513	0.231379
H107	H	-0.807130	1.820817	0.235789
H108	H	-0.807228	1.733808	0.171035
H109	H	-0.955209	1.729948	0.238597
C110	C	-0.267499	1.115740	0.267673
H111	H	-0.228880	1.157274	0.294086
H112	H	-0.293694	1.158202	0.229505
H113	H	-0.242644	1.057473	0.242248
H114	H	-0.472367	1.414600	0.682374
H115	H	-0.288963	1.661740	0.682414
