data_functionalizedCrystal
_audit_creation_method	'MofGen! by Chris Wilmer'
_symmetry_space_group_name_H-M	'P1'
_symmetry_Int_Tables_number	1
_symmetry_cell_setting	triclinic
loop_
_symmetry_equiv_pos_as_xyz
  x,y,z
_cell_length_a	14.908571
_cell_length_b	12.759400
_cell_length_c	14.908308
_cell_angle_alpha	93.269141
_cell_angle_beta	90.175053
_cell_angle_gamma	86.710990
loop_
_atom_site_label
_atom_site_type_symbol
_atom_site_fract_x
_atom_site_fract_y
_atom_site_fract_z
Zn1	Zn	1.345342	-0.548282	-0.587598
Zn2	Zn	1.845342	-0.048282	-0.087598
Zn3	Zn	1.353936	-0.714462	-0.437243
Zn4	Zn	1.853936	-0.214462	0.062757
Zn5	Zn	1.203655	-0.528102	-0.428595
Zn6	Zn	1.703655	-0.028102	0.071405
Zn7	Zn	1.194964	-0.713214	-0.578895
Zn8	Zn	1.694964	-0.213214	-0.078895
O9	O	1.274474	-0.626015	-0.508083
O10	O	1.774474	-0.126015	-0.008083
O11	O	1.472309	-0.579294	-0.574915
O12	O	1.972309	-0.079294	-0.074915
O13	O	1.341235	-0.681818	-0.310271
O14	O	1.841235	-0.181818	0.189729
O15	O	1.222491	-0.383762	-0.449711
O16	O	1.722491	0.116238	0.050289
O17	O	1.478623	-0.701385	-0.464450
O18	O	1.978623	-0.201385	0.035550
O19	O	1.326587	-0.398588	-0.566529
O20	O	1.826587	0.101412	-0.066529
O21	O	1.230825	-0.544900	-0.303918
O22	O	1.730825	-0.044900	0.196082
O23	O	1.076676	-0.543690	-0.441272
O24	O	1.576676	-0.043690	0.058728
O25	O	1.207677	-0.699258	-0.705874
O26	O	1.707677	-0.199258	-0.205874
O27	O	1.070290	-0.679690	-0.551696
O28	O	1.570290	-0.179690	-0.051696
O29	O	1.318160	-0.578083	-0.712269
O30	O	1.818160	-0.078083	-0.212269
O31	O	1.332807	-0.861313	-0.456011
O32	O	1.832807	-0.361313	0.043989
O33	O	1.216011	-0.860396	-0.560082
O34	O	1.716011	-0.360396	-0.060082
C35	C	1.040857	-0.609366	-0.494601
C36	C	1.540857	-0.109366	0.005399
C37	C	0.940914	-0.602270	-0.488855
C38	C	1.440914	-0.102270	0.011145
C39	C	0.746517	-0.730752	-0.592888
C40	C	1.246517	-0.230752	-0.092888
C41	C	0.652611	-0.724088	-0.587492
C42	C	1.152611	-0.224088	-0.087492
C43	C	0.659193	-0.582274	-0.472673
C44	C	1.159193	-0.082274	0.027327
C45	C	0.753099	-0.588938	-0.478069
C46	C	1.253099	-0.088938	0.021931
C47	C	0.796758	-0.663180	-0.538177
C48	C	1.296758	-0.163180	-0.038177
C49	C	0.890666	-0.669848	-0.543568
C50	C	1.390666	-0.169848	-0.043568
C51	C	0.897246	-0.528030	-0.428754
C52	C	1.397246	-0.028030	0.071246
C53	C	0.803340	-0.521366	-0.423358
C54	C	1.303340	-0.021366	0.076642
C55	C	1.274422	-0.898977	-0.508061
C56	C	1.774422	-0.398977	-0.008061
C57	C	1.274480	-1.015760	-0.508087
C58	C	1.774480	-0.515760	-0.008087
C59	C	1.335356	-1.071073	-0.453964
C60	C	1.835356	-0.571073	0.046036
C61	C	1.335410	-1.180802	-0.453995
C62	C	1.835410	-0.680802	0.046005
C63	C	1.213704	-1.179896	-0.562273
C64	C	1.713704	-0.679896	-0.062273
C65	C	1.213655	-1.070169	-0.562246
C66	C	1.713655	-0.570169	-0.062246
C67	C	1.396181	-1.016664	-0.399805
C68	C	1.896181	-0.516664	0.100195
C69	C	1.457061	-1.071977	-0.345677
C70	C	1.957061	-0.571977	0.154323
C71	C	1.457115	-1.181707	-0.345708
C72	C	1.957115	-0.681707	0.154292
C73	C	1.396289	-1.236123	-0.399867
C74	C	1.896289	-0.736123	0.100133
C75	C	1.509003	-0.642730	-0.521618
C76	C	2.009003	-0.142730	-0.021618
C77	C	1.608946	-0.649853	-0.527386
C78	C	2.108946	-0.149853	-0.027386
C79	C	1.260990	-0.640783	-0.742609
C80	C	1.760990	-0.140783	-0.242609
C81	C	1.255244	-0.647076	-0.842550
C82	C	1.755244	-0.147076	-0.342550
C83	C	1.274550	-0.351990	-0.508126
C84	C	1.774550	0.148010	-0.008126
C85	C	1.274582	-0.235216	-0.508144
C86	C	1.774582	0.264784	-0.008144
C87	C	1.359489	-0.532697	-1.037009
C88	C	1.859489	-0.032697	-0.537009
C89	C	1.354093	-0.538607	-1.130913
C90	C	1.854093	-0.038607	-0.630913
C91	C	1.239052	-0.664798	-1.124262
C92	C	1.739052	-0.164798	-0.624262
C93	C	1.244448	-0.658888	-1.030358
C94	C	1.744448	-0.158888	-0.530358
C95	C	1.304670	-0.592837	-0.986735
C96	C	1.804670	-0.092837	-0.486735
C97	C	1.310070	-0.586934	-0.892830
C98	C	1.810070	-0.086934	-0.392830
C99	C	1.195025	-0.713119	-0.886181
C100	C	1.695025	-0.213119	-0.386181
C101	C	1.189629	-0.719028	-0.980085
C102	C	1.689629	-0.219028	-0.480085
C103	C	1.287957	-0.611233	-0.274473
C104	C	1.787957	-0.111233	0.225527
C105	C	1.293878	-0.604656	-0.174542
C106	C	1.793878	-0.104656	0.325458
H107	H	0.623630	-0.521823	-0.423741
H108	H	1.123630	-0.021823	0.076259
Br109	Br	0.805773	-0.831519	-0.674449
Br110	Br	1.305773	-0.331519	-0.174449
H111	H	0.767781	-0.460918	-0.374422
H112	H	1.267781	0.039082	0.125578
H113	H	0.938163	-0.473010	-0.384202
H114	H	1.438163	0.026990	0.115798
Br115	Br	1.131040	-0.995094	-0.635704
Br116	Br	1.631040	-0.495094	-0.135704
Br117	Br	0.584428	-0.815791	-0.661750
Br118	Br	1.084428	-0.315791	-0.161750
H119	H	1.396142	-0.927316	-0.399771
H120	H	1.896142	-0.427316	0.100229
H121	H	1.506590	-1.027666	-0.301588
H122	H	2.006590	-0.527666	0.198412
Br123	Br	1.539746	-1.256774	-0.272262
Br124	Br	2.039746	-0.756774	0.227738
Br125	Br	1.395976	-1.384987	-0.399472
Br126	Br	1.895976	-0.884987	0.100528
H127	H	1.164181	-1.224210	-0.606365
H128	H	1.664181	-0.724210	-0.106365
Br129	Br	1.391802	-0.497300	-0.833628
Br130	Br	1.891802	0.002700	-0.333628
Br131	Br	1.441228	-0.443076	-0.977803
Br132	Br	1.941228	0.056924	-0.477803
Br133	Br	1.428491	-0.456981	-1.199139
Br134	Br	1.928491	0.043019	-0.699139
Br135	Br	1.157321	-0.754420	-1.183479
Br136	Br	1.657321	-0.254420	-0.683479
Br137	Br	1.107901	-0.808661	-1.039295
Br138	Br	1.607901	-0.308661	-0.539295
H139	H	0.926211	-0.730302	-0.592510
H140	H	1.426211	-0.230302	-0.092510
Br141	Br	1.120635	-0.794759	-0.817948
Br142	Br	1.620635	-0.294759	-0.317948
