data_functionalizedCrystal
_audit_creation_method	'MofGen! by Chris Wilmer'
_symmetry_space_group_name_H-M	'P1'
_symmetry_Int_Tables_number	1
_symmetry_cell_setting	triclinic
loop_
_symmetry_equiv_pos_as_xyz
  x,y,z
_cell_length_a	25.639239
_cell_length_b	19.077105
_cell_length_c	25.639214
_cell_angle_alpha	92.374991
_cell_angle_beta	89.879120
_cell_angle_gamma	92.265071
loop_
_atom_site_label
_atom_site_type_symbol
_atom_site_fract_x
_atom_site_fract_y
_atom_site_fract_z
Zn1	Zn	-0.239811	-1.076326	-0.327704
Zn2	Zn	-0.327379	-1.076098	-0.240261
Zn3	Zn	-0.236450	-0.958513	-0.236769
Zn4	Zn	-0.323703	-0.958564	-0.324161
O5	O	-0.281836	-1.017375	-0.282224
O6	O	-0.254372	-1.174790	-0.319048
O7	O	-0.315449	-1.060383	-0.166629
O8	O	-0.163733	-0.974215	-0.248853
O9	O	-0.318708	-1.174622	-0.254804
O10	O	-0.166202	-1.060772	-0.315662
O11	O	-0.248644	-0.973994	-0.164063
O12	O	-0.245079	-0.860026	-0.245418
O13	O	-0.312442	-0.974302	-0.397800
O14	O	-0.309183	-0.860063	-0.309625
O15	O	-0.250808	-1.060822	-0.400403
O16	O	-0.400054	-1.060433	-0.251369
O17	O	-0.397353	-0.974081	-0.313010
C18	C	-0.417675	-1.017257	-0.282196
C19	C	-0.475789	-1.017271	-0.282204
C20	C	-0.276368	-0.834506	-0.276758
C21	C	-0.274041	-0.756274	-0.274432
C22	C	-0.281590	-1.017593	-0.418604
C23	C	-0.281485	-1.017686	-0.476721
C24	C	-0.837553	-1.062456	-0.250188
C25	C	-0.892158	-1.062483	-0.250196
O26	O	-0.921581	-1.100779	-0.222944
N27	N	-0.918078	-1.017499	-0.282262
C28	C	-0.889391	-0.972489	-0.314327
O29	O	-0.916453	-0.934230	-0.341603
C30	C	-0.834787	-0.972466	-0.314321
C31	C	-0.808869	-1.017449	-0.282249
C32	C	-0.811635	-1.107435	-0.218118
C33	C	-0.757033	-1.107407	-0.218110
C34	C	-0.728350	-1.062399	-0.250171
C35	C	-0.754268	-1.017420	-0.282240
C36	C	-0.806101	-0.927461	-0.346389
C37	C	-0.751493	-0.927442	-0.346381
C38	C	-0.725576	-0.972424	-0.314308
C39	C	-0.670983	-0.972384	-0.314293
N40	N	-0.645063	-1.017369	-0.282227
C41	C	-0.673746	-1.062376	-0.250165
C42	C	-1.004063	-0.972542	-0.314337
C43	C	-1.058666	-0.972562	-0.314340
C44	C	-1.061429	-1.062557	-0.250209
C45	C	-1.006825	-1.062533	-0.250203
C46	C	-0.978143	-1.017527	-0.282270
C47	C	-0.559079	-1.062313	-0.250150
C48	C	-0.504473	-1.062278	-0.250143
C49	C	-0.501715	-0.972286	-0.314275
C50	C	-0.556316	-0.972318	-0.314281
C51	C	-0.584997	-1.017337	-0.282216
O52	O	-0.641525	-0.934110	-0.341532
O53	O	-0.646678	-1.100636	-0.222899
C54	C	-0.145467	-1.017513	-0.282263
C55	C	-0.087354	-1.017572	-0.282280
C56	C	-0.287325	-1.200958	-0.287711
C57	C	-0.289665	-1.279190	-0.290049
C58	C	-0.306374	-0.719559	-0.306716
C59	C	-0.304181	-0.646051	-0.304533
C60	C	-0.269658	-0.609261	-0.270064
C61	C	-0.237321	-0.645982	-0.237779
C62	C	-0.239512	-0.719488	-0.239965
C63	C	-0.259519	-0.389417	-0.259950
C64	C	-0.257332	-0.315906	-0.257766
C65	C	-0.324192	-0.315981	-0.324521
C66	C	-0.326381	-0.389488	-0.326702
C67	C	-0.294043	-0.426202	-0.294419
N68	N	-0.267416	-0.534124	-0.267831
N69	N	-0.296282	-0.501337	-0.296655
C70	C	-0.282044	-1.017199	-0.146375
C71	C	-0.282006	-1.017242	-0.088263
C72	C	-0.247142	-0.972204	0.273417
C73	C	-0.247095	-0.972245	0.328020
O74	O	-0.217679	-0.933756	0.357383
N75	N	-0.281622	-1.017567	0.354009
C76	C	-0.316193	-1.062856	0.325392
O77	O	-0.345556	-1.101410	0.352511
C78	C	-0.316237	-1.062818	0.270790
C79	C	-0.281712	-1.017488	0.244804
C80	C	-0.212619	-0.926878	0.247431
C81	C	-0.212667	-0.926837	0.192832
C82	C	-0.247237	-0.972121	0.164219
C83	C	-0.281760	-1.017446	0.190205
C84	C	-0.350806	-1.108110	0.242174
C85	C	-0.350847	-1.108068	0.187568
C86	C	-0.316321	-1.062738	0.161582
C87	C	-0.316377	-1.062688	0.106992
N88	N	-0.281851	-1.017366	0.081004
C89	C	-0.247281	-0.972083	0.109617
C90	C	-0.316098	-1.062933	0.440060
C91	C	-0.316057	-1.062968	0.494661
C92	C	-0.246958	-0.972358	0.497286
C93	C	-0.247002	-0.972320	0.442684
C94	C	-0.281572	-1.017611	0.414071
C95	C	-0.247383	-0.971998	-0.005046
C96	C	-0.247435	-0.971958	-0.059650
C97	C	-0.316532	-1.062571	-0.062269
C98	C	-0.316482	-1.062608	-0.007670
C99	C	-0.281904	-1.017319	0.020941
O100	O	-0.345777	-1.101160	0.077595
O101	O	-0.217918	-0.933542	0.082490
H102	H	-0.483372	-1.098908	-0.224024
Br103	Br	-0.200583	-0.910426	-0.094913
H104	H	-0.344176	-1.099874	0.515814
Br105	Br	-0.368079	-0.266150	-0.368329
Br106	Br	-0.200143	-0.910801	0.407423
H107	H	-0.218808	-0.935487	0.520593
Br108	Br	-0.190462	-0.596053	-0.191003
Br109	Br	-0.591491	-0.911253	-0.357795
H110	H	-0.344253	-1.099813	0.416767
Br111	Br	-1.100367	-1.123636	-0.206694
H112	H	-0.213180	-0.749381	-0.213679
H113	H	-0.184552	-0.889925	0.171679
Br114	Br	-0.373240	-0.439413	-0.373480
H115	H	-0.478352	-0.935639	-0.340378
H116	H	-0.184465	-0.890002	0.270723
Br117	Br	-0.210480	-0.265976	-0.210977
Br118	Br	-0.397663	-1.169635	0.277426
Br119	Br	-0.348063	-0.596225	-0.348350
Br120	Br	-0.200455	-0.910535	0.033775
H121	H	-0.233190	-0.419301	-0.233659
H122	H	-1.079764	-0.935926	-0.340451
Br123	Br	-0.965142	-0.911452	-0.357856
Br124	Br	-0.397762	-1.169542	0.148739
Br125	Br	-0.353234	-0.769481	-0.353495
Br126	Br	-0.363347	-1.124116	0.027598
H127	H	-0.582425	-1.098973	-0.224041
Br128	Br	-0.721868	-1.168468	-0.174588
H129	H	-0.344681	-1.099436	-0.085576
H130	H	-0.834983	-1.144090	-0.192010
H131	H	-0.985726	-1.099162	-0.224087
H132	H	-0.728143	-0.890793	-0.372495
Br133	Br	-0.841262	-0.866417	-0.389924
