data_functionalizedCrystal
_audit_creation_method	'MofGen! by Chris Wilmer'
_symmetry_space_group_name_H-M	'P1'
_symmetry_Int_Tables_number	1
_symmetry_cell_setting	triclinic
loop_
_symmetry_equiv_pos_as_xyz
  x,y,z
_cell_length_a	19.188930
_cell_length_b	19.188940
_cell_length_c	17.666332
_cell_angle_alpha	89.993076
_cell_angle_beta	89.976766
_cell_angle_gamma	83.146747
loop_
_atom_site_label
_atom_site_type_symbol
_atom_site_fract_x
_atom_site_fract_y
_atom_site_fract_z
O1	O	0.926153	0.087168	-0.063192
O2	O	1.259486	0.420502	0.270141
O3	O	1.592819	0.753835	0.603474
O4	O	0.722842	0.098903	-0.063141
O5	O	1.056175	0.432236	0.270193
O6	O	1.389508	0.765569	0.603526
O7	O	0.830361	-0.008620	-0.063162
O8	O	1.163694	0.324714	0.270171
O9	O	1.497027	0.658047	0.603504
O10	O	0.818634	0.194691	-0.063171
O11	O	1.151967	0.528024	0.270163
O12	O	1.485300	0.861357	0.603496
O13	O	0.830342	-0.008625	0.062735
O14	O	1.163675	0.324708	0.396068
O15	O	1.497009	0.658041	0.729401
O16	O	0.722823	0.098897	0.062756
O17	O	1.056156	0.432230	0.396090
O18	O	1.389490	0.765564	0.729423
O19	O	0.926134	0.087163	0.062704
O20	O	1.259467	0.420496	0.396038
O21	O	1.592801	0.753829	0.729371
Cu22	Cu	0.824477	0.093029	0.074226
Cu23	Cu	1.157810	0.426363	0.407559
Cu24	Cu	1.491143	0.759696	0.740892
Cu25	Cu	0.824499	0.093036	-0.074662
Cu26	Cu	1.157832	0.426369	0.258671
Cu27	Cu	1.491166	0.759703	0.592005
O28	O	0.818615	0.194685	0.062726
O29	O	1.151948	0.528018	0.396059
O30	O	1.485281	0.861352	0.729393
C31	C	0.696821	0.098520	-0.000186
C32	C	1.030155	0.431853	0.333148
C33	C	1.363488	0.765186	0.666481
C34	C	0.619317	0.097379	-0.000166
C35	C	0.952650	0.430712	0.333168
C36	C	1.285983	0.764046	0.666501
C37	C	0.574395	0.160470	-0.000180
C38	C	0.907728	0.493803	0.333153
C39	C	1.241062	0.827136	0.666486
C40	C	0.501571	0.159398	-0.000188
C41	C	0.834905	0.492731	0.333145
C42	C	1.168238	0.826065	0.666478
C43	C	0.473672	0.095232	-0.000197
C44	C	0.807006	0.428565	0.333136
C45	C	1.140339	0.761899	0.666469
C46	C	0.518604	0.032133	-0.000179
C47	C	0.851937	0.365467	0.333155
C48	C	1.185271	0.698800	0.666488
C49	C	0.591426	0.033207	-0.000163
C50	C	0.924760	0.366540	0.333171
C51	C	1.258093	0.699873	0.666504
N52	N	0.365697	0.046187	-0.043074
N53	N	0.699030	0.379521	0.290259
N54	N	1.032364	0.712854	0.623593
N55	N	0.296518	0.045172	-0.043091
N56	N	0.629852	0.378505	0.290243
N57	N	0.963185	0.711839	0.623576
C58	C	0.254264	0.091994	-0.000244
C59	C	0.587597	0.425327	0.333090
C60	C	0.920930	0.758661	0.666423
N61	N	0.283800	0.139881	0.042611
N62	N	0.617133	0.473214	0.375945
N63	N	0.950466	0.806547	0.709278
N64	N	0.352984	0.140898	0.042625
N65	N	0.686318	0.474231	0.375958
N66	N	1.019651	0.807565	0.709291
C67	C	0.394710	0.094061	-0.000214
C68	C	0.728043	0.427394	0.333119
C69	C	1.061376	0.760728	0.666453
C70	C	0.130377	0.153927	-0.000266
C71	C	0.463711	0.487260	0.333067
C72	C	0.797044	0.820594	0.666401
C73	C	0.057553	0.152853	-0.000270
C74	C	0.390886	0.486186	0.333064
C75	C	0.724219	0.819519	0.666397
C76	C	0.074587	0.025586	-0.000267
C77	C	0.407920	0.358920	0.333066
C78	C	0.741254	0.692253	0.666399
C79	C	0.147410	0.026662	-0.000256
C80	C	0.480744	0.359996	0.333077
C81	C	0.814077	0.693329	0.666411
C82	C	0.175301	0.090835	-0.000259
C83	C	0.508634	0.424168	0.333074
C84	C	0.841967	0.757501	0.666408
C85	C	0.829970	-0.034633	-0.000214
C86	C	1.163304	0.298700	0.333120
C87	C	1.496637	0.632033	0.666453
C88	C	0.828827	-0.112138	-0.000214
C89	C	1.162160	0.221196	0.333119
C90	C	1.495494	0.554529	0.666453
C91	C	0.820682	-0.665400	0.068397
C92	C	1.154016	-0.332067	0.401730
C93	C	1.487349	0.001267	0.735063
C94	C	0.821749	-0.592575	0.068401
C95	C	1.155082	-0.259242	0.401734
C96	C	1.488416	0.074091	0.735067
C97	C	0.822296	-0.556153	-0.000225
C98	C	1.155629	-0.222820	0.333108
C99	C	1.488963	0.110514	0.666442
C100	C	0.821758	-0.592558	-0.068860
C101	C	1.155091	-0.259225	0.264474
C102	C	1.488425	0.074108	0.597807
C103	C	0.820684	-0.665380	-0.068862
C104	C	1.154018	-0.332047	0.264472
C105	C	1.487351	0.001286	0.597805
N106	N	0.863720	-0.447127	-0.051315
N107	N	1.197053	-0.113793	0.282018
N108	N	1.530386	0.219540	0.615352
N109	N	0.864741	-0.377949	-0.051308
N110	N	1.198075	-0.044615	0.282025
N111	N	1.531408	0.288718	0.615358
C112	C	0.825530	-0.336744	-0.000223
C113	C	1.158863	-0.003410	0.333110
C114	C	1.492196	0.329923	0.666443
N115	N	0.785267	-0.367331	0.050867
N116	N	1.118600	-0.033997	0.384200
N117	N	1.451933	0.299336	0.717533
N118	N	0.784248	-0.436515	0.050862
N119	N	1.117581	-0.103182	0.384196
N120	N	1.450915	0.230151	0.717529
C121	C	0.823460	-0.477189	-0.000231
C122	C	1.156793	-0.143856	0.333103
C123	C	1.490126	0.189477	0.666436
C124	C	0.827219	-0.221382	0.068411
C125	C	1.160552	0.111952	0.401745
C126	C	1.493886	0.445285	0.735078
C127	C	0.828281	-0.148555	0.068412
C128	C	1.161615	0.184778	0.401746
C129	C	1.494948	0.518111	0.735079
C130	C	0.828298	-0.148540	-0.068850
C131	C	1.161631	0.184793	0.264484
C132	C	1.494964	0.518126	0.597817
C133	C	0.827228	-0.221364	-0.068849
C134	C	1.160561	0.111969	0.264484
C135	C	1.493895	0.445302	0.597818
C136	C	0.826692	-0.257781	-0.000216
C137	C	1.160026	0.075552	0.333117
C138	C	1.493359	0.408885	0.666450
C139	C	0.952154	0.087546	-0.000252
C140	C	1.285488	0.420879	0.333081
C141	C	1.618821	0.754212	0.666414
C142	C	1.029659	0.088686	-0.000277
C143	C	1.362992	0.422020	0.333056
C144	C	1.696325	0.755353	0.666389
C145	C	0.819005	0.220699	-0.000224
C146	C	1.152338	0.554032	0.333109
C147	C	1.485672	0.887365	0.666443
C148	C	0.820148	0.298203	-0.000229
C149	C	1.153482	0.631536	0.333104
C150	C	1.486815	0.964870	0.666438
N151	N	0.824466	0.093024	0.178945
N152	N	1.157799	0.426357	0.512278
N153	N	1.491133	0.759691	0.845612
N154	N	0.824515	0.093036	-0.179381
N155	N	1.157848	0.426369	0.153952
N156	N	1.491182	0.759702	0.487285
C157	C	0.872091	0.045437	0.218545
C158	C	1.205424	0.378770	0.551879
C159	C	1.538758	0.712103	0.885212
C160	C	0.872095	0.045433	0.297793
C161	C	1.205428	0.378766	0.631126
C162	C	1.538762	0.712100	0.964460
C163	C	0.824481	0.093029	0.337437
C164	C	1.157814	0.426363	0.670771
C165	C	1.491148	0.759696	1.004104
C166	C	0.776847	0.140621	0.297828
C167	C	1.110181	0.473954	0.631161
C168	C	1.443514	0.807287	0.964494
C169	C	0.776840	0.140618	0.218581
C170	C	1.110173	0.473951	0.551915
C171	C	1.443507	0.807285	0.885248
N172	N	0.815407	0.154836	0.461855
N173	N	1.148740	0.488170	0.795188
N174	N	1.482073	0.821503	1.128521
N175	N	0.815418	0.154837	0.537135
N176	N	1.148751	0.488170	0.870468
N177	N	1.482085	0.821503	1.203802
C178	C	0.824499	0.093039	0.576201
C179	C	1.157833	0.426373	0.909535
C180	C	1.491166	0.759706	1.242868
N181	N	0.833583	0.031239	0.537143
N182	N	1.166916	0.364573	0.870476
N183	N	1.500249	0.697906	1.203810
N184	N	0.833575	0.031240	0.461856
N185	N	1.166908	0.364573	0.795189
N186	N	1.500242	0.697906	1.128522
C187	C	0.824483	0.093037	0.423366
C188	C	1.157817	0.426371	0.756700
C189	C	1.491150	0.759704	1.090033
C190	C	0.872131	0.045444	0.701731
C191	C	1.205464	0.378777	1.035064
C192	C	1.538798	0.712111	1.368397
C193	C	0.872130	0.045440	0.780980
C194	C	1.205464	0.378773	1.114313
C195	C	1.538797	0.712106	1.447646
C196	C	0.776886	0.140633	0.781013
C197	C	1.110219	0.473967	1.114346
C198	C	1.443553	0.807300	1.447680
C199	C	0.776883	0.140632	0.701765
C200	C	1.110217	0.473965	1.035099
C201	C	1.443550	0.807298	1.368432
C202	C	0.824510	0.093038	0.662129
C203	C	1.157843	0.426371	0.995462
C204	C	1.491176	0.759704	1.328796
H205	H	0.153087	0.206180	-0.000257
H206	H	0.486420	0.539513	0.333076
H207	H	0.819754	0.872847	0.666409
N208	N	0.923452	-0.005900	0.175795
N209	N	1.256785	0.327433	0.509129
N210	N	1.590119	0.660767	0.842462
H211	H	0.954279	0.020705	0.142895
H212	H	1.287612	0.354038	0.476228
H213	H	1.620946	0.687372	0.809562
H214	H	0.953575	-0.036034	0.212960
H215	H	1.286908	0.297299	0.546294
H216	H	1.620241	0.630632	0.879627
H217	H	0.910909	0.006688	0.669458
H218	H	1.244243	0.340021	1.002791
H219	H	1.577576	0.673354	1.336124
H220	H	0.828714	-0.118922	0.124298
H221	H	1.162048	0.214412	0.457631
H222	H	1.495381	0.547745	0.790965
H223	H	0.464989	0.210775	-0.000198
H224	H	0.798322	0.544109	0.333135
H225	H	1.131656	0.877442	0.666468
H226	H	0.738115	0.179384	0.813291
H227	H	1.071448	0.512718	1.146624
H228	H	1.404782	0.846051	1.479957
N229	N	0.488510	-0.037071	-0.000190
N230	N	0.821843	0.296263	0.333143
N231	N	1.155177	0.629596	0.666476
H232	H	0.504933	-0.064702	-0.046855
H233	H	0.838266	0.268631	0.286478
H234	H	1.171600	0.601964	0.619812
H235	H	0.504885	-0.064648	0.046516
H236	H	0.838218	0.268685	0.379849
H237	H	1.171551	0.602019	0.713182
N238	N	0.820090	-0.704667	0.142424
N239	N	1.153423	-0.371333	0.475757
N240	N	1.486756	-0.038000	0.809091
H241	H	0.776370	-0.729086	0.145495
H242	H	1.109703	-0.395753	0.478829
H243	H	1.443037	-0.062419	0.812162
H244	H	0.862942	-0.740638	0.145434
H245	H	1.196275	-0.407305	0.478767
H246	H	1.529609	-0.073972	0.812101
N247	N	0.923462	-0.005897	0.340518
N248	N	1.256795	0.327436	0.673851
N249	N	1.590128	0.660770	1.007184
H250	H	0.953630	-0.036048	0.303383
H251	H	1.286963	0.297285	0.636716
H252	H	1.620296	0.630618	0.970050
H253	H	0.954243	0.020764	0.373375
H254	H	1.287577	0.354097	0.706708
H255	H	1.620910	0.687430	1.040041
N256	N	0.820120	-0.704642	-0.142884
N257	N	1.153454	-0.371308	0.190450
N258	N	1.486787	-0.037975	0.523783
H259	H	0.819361	-0.756301	-0.132471
H260	H	1.152694	-0.422967	0.200862
H261	H	1.486028	-0.089634	0.534196
H262	H	0.777038	-0.686122	-0.172841
H263	H	1.110372	-0.352788	0.160492
H264	H	1.443705	-0.019455	0.493825
H265	H	0.828734	-0.118885	-0.124726
H266	H	1.162068	0.214449	0.208607
H267	H	1.495401	0.547782	0.541941
H268	H	0.826777	-0.251033	0.124296
H269	H	1.160110	0.082300	0.457629
H270	H	1.493443	0.415634	0.790963
H271	H	0.910910	0.006684	0.813223
H272	H	1.244243	0.340018	1.146556
H273	H	1.577577	0.673351	1.479890
H274	H	0.020977	0.204231	-0.000277
H275	H	0.354311	0.537564	0.333056
H276	H	0.687644	0.870897	0.666390
H277	H	0.051873	-0.026659	-0.000321
H278	H	0.385206	0.306674	0.333012
H279	H	0.718539	0.640008	0.666345
N280	N	0.195867	-0.041386	-0.000240
N281	N	0.529201	0.291948	0.333093
N282	N	0.862534	0.625281	0.666426
H283	H	0.167146	-0.082199	-0.000246
H284	H	0.500479	0.251135	0.333087
H285	H	0.833812	0.584468	0.666421
H286	H	0.226480	-0.043712	-0.046904
H287	H	0.559814	0.289621	0.286430
H288	H	0.893147	0.622954	0.619763
H289	H	0.822171	-0.562933	0.124285
H290	H	1.155504	-0.229600	0.457619
H291	H	1.488837	0.103733	0.790952
N292	N	0.822286	-0.553271	-0.142878
N293	N	1.155620	-0.219938	0.190455
N294	N	1.488953	0.113396	0.523788
H295	H	0.823030	-0.501612	-0.132464
H296	H	1.156364	-0.168279	0.200869
H297	H	1.489697	0.165054	0.534202
H298	H	0.865354	-0.571763	-0.172906
H299	H	1.198688	-0.238430	0.160427
H300	H	1.532021	0.094904	0.493761
N301	N	0.725516	0.191958	0.659048
N302	N	1.058849	0.525292	0.992381
N303	N	1.392183	0.858625	1.325714
H304	H	0.695351	0.222110	0.696185
H305	H	1.028685	0.555443	1.029518
H306	H	1.362018	0.888777	1.362851
H307	H	0.752143	0.222760	0.626146
H308	H	1.085477	0.556093	0.959479
H309	H	1.418810	0.889426	1.292812
N310	N	0.826717	-0.260636	-0.142867
N311	N	1.160050	0.072698	0.190466
N312	N	1.493384	0.406031	0.523800
H313	H	0.827246	-0.226517	-0.186342
H314	H	1.160579	0.106817	0.146991
H315	H	1.493912	0.440150	0.480325
H316	H	0.869565	-0.296619	-0.145823
H317	H	1.202899	0.036714	0.187510
H318	H	1.536232	0.370047	0.520843
H319	H	0.628002	-0.018171	-0.000151
H320	H	0.961336	0.315162	0.333182
H321	H	1.294669	0.648496	0.666515
H322	H	0.738078	0.179373	0.330110
H323	H	1.071411	0.512707	0.663443
H324	H	1.404745	0.846040	0.996777
N325	N	0.725468	0.191949	0.175871
N326	N	1.058801	0.525282	0.509204
N327	N	1.392134	0.858615	0.842537
H328	H	0.733354	0.241484	0.189650
H329	H	1.066688	0.574817	0.522983
H330	H	1.400021	0.908151	0.856317
H331	H	0.732713	0.184666	0.119667
H332	H	1.066046	0.518000	0.453000
H333	H	1.399380	0.851333	0.786334
N334	N	0.604477	0.229681	-0.000189
N335	N	0.937811	0.563014	0.333145
N336	N	1.271144	0.896347	0.666478
H337	H	0.564965	0.269486	-0.000201
H338	H	0.898298	0.602820	0.333132
H339	H	1.231631	0.936153	0.666466
H340	H	0.634296	0.232903	0.046487
H341	H	0.967629	0.566237	0.379820
H342	H	1.300963	0.899570	0.713154
