data_functionalizedCrystal
_audit_creation_method	'MofGen! by Chris Wilmer'
_symmetry_space_group_name_H-M	'P1'
_symmetry_Int_Tables_number	1
_symmetry_cell_setting	triclinic
loop_
_symmetry_equiv_pos_as_xyz
  x,y,z
_cell_length_a	17.640112
_cell_length_b	19.077068
_cell_length_c	19.076919
_cell_angle_alpha	94.470751
_cell_angle_beta	77.038285
_cell_angle_gamma	76.960565
loop_
_atom_site_label
_atom_site_type_symbol
_atom_site_fract_x
_atom_site_fract_y
_atom_site_fract_z
Zn1	Zn	1.196685	0.072021	0.185764
Zn2	Zn	1.196585	0.185193	0.072627
Zn3	Zn	1.067866	0.091489	0.092016
Zn4	Zn	1.056565	0.216177	0.216690
O5	O	1.129425	0.141220	0.141774
O6	O	1.309182	0.065919	0.149699
O7	O	1.184198	0.167944	-0.024326
O8	O	1.089725	-0.010638	0.099623
O9	O	1.309109	0.149066	0.066578
O10	O	1.184368	-0.024941	0.168500
O11	O	1.089628	0.099100	-0.010081
O12	O	0.953857	0.129144	0.129611
O13	O	1.070465	0.201873	0.312113
O14	O	0.945554	0.220751	0.221209
O15	O	1.173410	0.095963	0.289391
O16	O	1.173241	0.288848	0.096566
O17	O	1.070369	0.311612	0.202409
C18	C	1.120589	0.326037	0.150751
C19	C	1.116881	0.405090	0.154601
C20	C	0.920533	0.180423	0.180871
C21	C	0.831166	0.197212	0.197614
C22	C	1.120688	0.150203	0.327279
C23	C	1.116965	0.154030	0.406330
C24	C	0.558750	0.013664	0.014584
C25	C	0.474775	0.029455	0.030327
C26	C	0.466186	0.124963	0.125557
C27	C	0.550162	0.109178	0.109824
C28	C	0.596437	0.053528	0.054336
C29	C	0.587849	0.149042	0.149576
C30	C	0.671817	0.133261	0.133842
C31	C	0.718099	0.077615	0.078355
C32	C	0.680406	0.037747	0.038602
C33	C	0.541572	0.204695	0.205060
C34	C	0.579259	0.244559	0.244813
C35	C	0.663229	0.228775	0.229082
C36	C	0.709510	0.173129	0.173596
C37	C	0.700922	0.268643	0.268836
C38	C	0.784890	0.252861	0.253102
C39	C	0.793479	0.157347	0.157861
C40	C	1.339134	0.101865	0.102526
C41	C	1.428499	0.085094	0.085801
C42	C	1.138318	-0.044322	0.132775
C43	C	1.142107	-0.123389	0.128939
C44	C	1.168737	0.430349	0.101333
C45	C	1.165254	0.504628	0.104958
C46	C	1.109910	0.553647	0.161848
C47	C	1.058052	0.528384	0.215120
C48	C	1.061539	0.454106	0.211498
C49	C	1.093736	0.777070	0.178590
C50	C	1.090251	0.851352	0.182207
C51	C	1.197455	0.827590	0.072045
C52	C	1.200934	0.753312	0.068425
C53	C	1.149078	0.728055	0.121700
N54	N	1.106347	0.629573	0.165553
N55	N	1.152646	0.652130	0.117997
C56	C	1.138177	0.132213	-0.043020
C57	C	1.142066	0.128155	-0.122109
C58	C	1.168811	0.100689	0.431641
C59	C	1.165303	0.104285	0.505919
C60	C	1.109952	0.161225	0.554886
C61	C	1.058100	0.214569	0.529571
C62	C	1.061605	0.210970	0.455295
C63	C	1.093719	0.177900	0.778299
C64	C	1.090220	0.181496	0.852580
C65	C	1.197422	0.071211	0.828923
C66	C	1.200925	0.067619	0.754645
C67	C	1.149070	0.120961	0.729338
N68	N	1.106367	0.164903	0.630810
N69	N	1.152653	0.117279	0.653415
H70	H	0.831159	0.112022	0.112688
Cl71	Cl	0.996348	0.422353	0.278468
H72	H	1.012993	0.568302	0.261444
H73	H	1.213800	0.390441	0.055005
Cl74	Cl	0.996422	0.278029	0.423477
H75	H	1.245999	0.713401	0.022101
H76	H	0.786471	0.064768	0.065544
H77	H	0.428497	0.170275	0.170733
Cl78	Cl	1.230450	0.536377	0.037991
Cl79	Cl	1.230518	0.037249	0.537729
Cl80	Cl	0.832272	0.302978	0.303075
Cl81	Cl	0.521077	0.314524	0.314558
Cl82	Cl	1.270512	-0.003966	0.693092
Cl83	Cl	0.616932	-0.056301	-0.055169
H84	H	1.013030	0.260929	0.569447
H85	H	1.213886	0.054324	0.391776
H86	H	0.473199	0.217542	0.217869
Cl87	Cl	1.262645	0.859346	0.005079
H88	H	1.045193	0.891262	0.228544
Cl89	Cl	1.262603	0.004155	0.860744
Cl90	Cl	1.028544	0.745328	0.245563
Cl91	Cl	1.020626	0.253081	0.914139
Cl92	Cl	0.642737	0.338612	0.338576
H93	H	1.051507	0.221343	0.757702
H94	H	0.718086	-0.007579	-0.006572
H95	H	0.444094	-0.003016	-0.002044
