data_functionalizedCrystal
_audit_creation_method	'MofGen! by Chris Wilmer'
_symmetry_space_group_name_H-M	'P1'
_symmetry_Int_Tables_number	1
_symmetry_cell_setting	triclinic
loop_
_symmetry_equiv_pos_as_xyz
  x,y,z
_cell_length_a	18.426585
_cell_length_b	14.809436
_cell_length_c	14.809374
_cell_angle_alpha	57.530078
_cell_angle_beta	98.954278
_cell_angle_gamma	67.424854
loop_
_atom_site_label
_atom_site_type_symbol
_atom_site_fract_x
_atom_site_fract_y
_atom_site_fract_z
Zr1	Zr	0.758660	1.000558	-0.231382
O2	O	0.638727	1.191274	-0.398600
O3	O	0.785577	0.809847	-0.165388
O4	O	0.775930	1.000557	-0.377341
O5	O	0.667189	1.000563	-0.036213
O6	O	0.895361	1.000551	-0.377332
O7	O	0.648375	1.000564	-0.186646
O8	O	0.912619	0.659406	0.001814
O9	O	0.649931	1.341708	-0.415359
O10	O	0.898087	0.888283	-0.155035
O11	O	0.822997	0.888287	-0.042776
O12	O	0.811638	1.112823	-0.292324
O13	O	0.736549	1.112827	-0.180064
Zr14	Zr	0.979146	1.000546	0.008556
Zr15	Zr	0.949140	1.000548	-0.231367
Zr16	Zr	0.788667	1.000557	0.008541
Zr17	Zr	0.776529	1.240484	-0.258112
Zr18	Zr	0.961278	0.760621	0.035286
O19	O	0.952229	1.191257	-0.057439
O20	O	0.909564	1.191260	-0.398578
O21	O	0.681392	1.191272	-0.057460
O22	O	1.099080	0.809831	0.175773
O23	O	1.056415	0.809833	-0.165366
O24	O	0.828242	0.809845	0.175752
O25	O	1.070618	1.000542	-0.186613
O26	O	0.961877	1.000547	0.154515
O27	O	0.842445	1.000554	0.154506
O28	O	1.089432	1.000541	-0.036180
O29	O	0.801336	1.341700	-0.415347
O30	O	0.936470	0.659404	0.192521
O31	O	1.087876	0.659396	0.192533
O32	O	1.064025	0.659398	0.001826
O33	O	0.673781	1.341707	-0.224652
O34	O	0.825187	1.341699	-0.224641
O35	O	0.926168	0.888281	0.069498
O36	O	1.001258	0.888277	-0.042762
O37	O	0.914809	1.112818	-0.180050
O38	O	0.839720	1.112822	-0.067791
C39	C	0.846552	0.700442	-0.077978
C40	C	0.838967	0.598588	-0.066631
C41	C	0.864979	0.447925	-0.105560
C42	C	0.872833	0.553182	-0.117273
C43	C	0.630642	1.000565	-0.111432
C44	C	0.549779	1.000569	-0.111438
C45	C	0.484109	1.000574	-0.111438
C46	C	0.401728	1.000569	-0.111427
C47	C	0.336071	1.000555	-0.111413
C48	C	0.253685	1.000549	-0.111403
C49	C	1.107164	1.000540	-0.111395
C50	C	1.188028	1.000535	-0.111388
C51	C	0.831370	1.000554	-0.411520
C52	C	0.818632	1.000555	-0.513374
C53	C	0.891254	1.300662	-0.144848
C54	C	0.898840	1.402517	-0.156195
C55	C	0.875482	1.000552	-0.558779
C56	C	0.862317	1.000553	-0.664050
C57	C	0.906436	1.000550	0.188694
C58	C	0.919175	1.000550	0.290548
C59	C	1.084813	0.700430	-0.077960
C60	C	1.158091	0.598571	-0.066606
C61	C	0.884086	0.700440	0.222129
C62	C	0.889238	0.598585	0.335330
C63	C	1.122346	0.700428	0.222148
C64	C	1.208363	0.598568	0.335355
C65	C	0.615460	1.300677	-0.444974
C66	C	0.529444	1.402537	-0.558181
C67	C	0.652993	1.300675	-0.144867
C68	C	0.579715	1.402534	-0.156220
C69	C	0.853721	1.300664	-0.444955
C70	C	0.848568	1.402520	-0.558156
C71	C	1.138648	0.550739	-0.119890
C72	C	1.207491	0.455045	-0.109245
C73	C	1.295777	0.407178	-0.045310
C74	C	1.315220	0.455018	0.007975
C75	C	1.246377	0.550717	-0.002677
C76	C	1.287961	0.550731	0.329920
C77	C	1.368790	0.455037	0.436280
C78	C	1.370017	0.407174	0.548074
C79	C	1.290411	0.455020	0.553506
C80	C	1.209585	0.550719	0.447147
C81	C	0.449846	1.450385	-0.552748
C82	C	0.369020	1.546109	-0.659111
C83	C	0.367793	1.593977	-0.770905
C84	C	0.447399	1.546125	-0.776336
C85	C	0.528224	1.450409	-0.669975
C86	C	0.599158	1.450375	-0.102948
C87	C	0.530314	1.546096	-0.113621
C88	C	0.442027	1.593967	-0.177561
C89	C	0.422585	1.546122	-0.230840
C90	C	0.491428	1.450409	-0.220173
C91	C	0.832026	0.633635	0.379253
C92	C	0.836849	0.537945	0.485607
C93	C	0.898890	0.407205	0.548041
C94	C	0.956105	0.372155	0.504109
C95	C	0.951277	0.467844	0.397753
C96	C	0.786522	1.533244	-0.620558
C97	C	0.781679	1.628961	-0.726914
C98	C	0.838879	1.593952	-0.770872
C99	C	0.900933	1.463214	-0.708461
C100	C	0.905779	1.367500	-0.602102
H101	H	0.804160	0.559544	-0.014605
Br102	Br	0.348606	1.723864	-0.192026
Br103	Br	0.956861	0.467581	-0.242894
H104	H	0.933902	1.000542	-0.519714
H105	H	0.803898	1.000549	-0.703104
H106	H	1.351825	0.329253	-0.036644
H107	H	1.291424	0.416036	0.644543
H108	H	0.790256	0.566509	0.521361
Br109	Br	1.018837	0.615685	-0.206671
H110	H	0.450829	1.411416	-0.461728
Br111	Br	1.016555	1.000529	-0.644349
Br112	Br	1.476813	0.390121	0.428880
H113	H	1.191643	0.416105	-0.152638
Br114	Br	0.721267	1.000545	-0.578462
H115	H	1.387112	0.416031	0.060030
H116	H	1.262221	0.589649	0.040721
H117	H	1.286978	0.589687	0.238902
H118	H	1.435837	0.329249	0.634670
H119	H	0.671041	1.411406	-0.050875
H120	H	0.902812	0.329302	0.634641
Br121	Br	0.697458	1.806378	-0.811595
H122	H	1.144776	0.589655	0.451589
Br123	Br	0.260997	1.611028	-0.651711
H124	H	0.546162	1.585035	-0.070228
H125	H	0.301974	1.671915	-0.857502
H126	H	0.446388	1.585112	-0.867372
H127	H	0.593032	1.411452	-0.674413
Br128	Br	0.302762	1.611100	-0.317608
Br129	Br	1.040301	0.194715	0.588857
H130	H	0.475585	1.411460	-0.263552
H131	H	0.781502	0.740085	0.328431
H132	H	0.997872	0.439287	0.362004
Br133	Br	0.708880	1.580792	-0.560929
H134	H	0.834922	1.671901	-0.857481
Br135	Br	0.806987	0.382827	-0.018823
H136	H	0.956302	1.261059	-0.551305
Br137	Br	0.930856	0.618242	-0.203975
Br138	Br	0.978551	1.415722	-0.768140
