data_functionalizedCrystal
_audit_creation_method	'MofGen! by Chris Wilmer'
_symmetry_space_group_name_H-M	'P1'
_symmetry_Int_Tables_number	1
_symmetry_cell_setting	triclinic
loop_
_symmetry_equiv_pos_as_xyz
  x,y,z
_cell_length_a	21.295417
_cell_length_b	21.295420
_cell_length_c	18.050583
_cell_angle_alpha	89.983938
_cell_angle_beta	89.959541
_cell_angle_gamma	90.026289
loop_
_atom_site_label
_atom_site_type_symbol
_atom_site_fract_x
_atom_site_fract_y
_atom_site_fract_z
Zn1	Zn	-0.250635	0.962302	-0.419892
Zn2	Zn	-0.355921	0.962220	-0.295693
Zn3	Zn	-0.250662	0.857041	-0.295716
Zn4	Zn	-0.355862	0.856995	-0.419841
O5	O	-0.303270	0.909640	-0.357785
O6	O	-0.264615	1.050381	-0.403428
O7	O	-0.341995	0.948253	-0.191771
O8	O	-0.162569	0.871058	-0.312219
O9	O	-0.341968	1.050321	-0.312179
O10	O	-0.162549	0.948393	-0.403450
O11	O	-0.264661	0.870979	-0.191788
O12	O	-0.264604	0.768946	-0.312170
O13	O	-0.341868	0.870979	-0.523772
O14	O	-0.341894	0.768912	-0.403364
O15	O	-0.264558	0.948348	-0.523810
O16	O	-0.444003	0.948208	-0.312130
O17	O	-0.443960	0.870900	-0.403342
C18	C	-0.303246	0.746088	-0.357764
C19	C	-0.303251	0.676120	-0.357773
C20	C	-0.263087	0.176693	-0.405387
C21	C	-0.263083	0.242435	-0.405387
C22	C	-0.303289	0.275281	-0.357803
C23	C	-0.343515	0.242378	-0.310229
C24	C	-0.343523	0.176637	-0.310235
N25	N	-0.308043	0.378479	-0.292774
N26	N	-0.308032	0.440930	-0.292770
C27	C	-0.303269	0.473355	-0.357781
N28	N	-0.298505	0.440970	-0.422797
N29	N	-0.298513	0.378513	-0.422801
C30	C	-0.303285	0.346566	-0.357790
C31	C	-0.263043	0.577536	-0.405355
C32	C	-0.263043	0.643279	-0.405357
C33	C	-0.343473	0.643221	-0.310192
C34	C	-0.343476	0.577478	-0.310197
C35	C	-0.303258	0.544640	-0.357778
C36	C	-0.466822	0.909557	-0.357744
C37	C	-0.536790	0.909580	-0.357751
C38	C	-0.569658	0.949870	-0.310306
C39	C	-0.635401	0.949899	-0.310323
C40	C	-0.668272	0.909627	-0.357777
C41	C	-0.635396	0.869334	-0.405231
C42	C	-0.569655	0.869310	-0.405219
N43	N	-0.771533	0.854560	-0.363432
N44	N	-0.833985	0.854584	-0.363439
C45	C	-0.866347	0.909698	-0.357820
N46	N	-0.833899	0.964787	-0.352177
N47	N	-0.771442	0.964762	-0.352166
C48	C	-0.739558	0.909649	-0.357797
C49	C	-0.970501	0.950024	-0.310390
C50	C	-1.036245	0.950054	-0.310412
C51	C	-1.036239	0.869483	-0.405316
C52	C	-0.970496	0.869458	-0.405298
C53	C	-0.937631	0.909728	-0.357831
C54	C	-0.139080	0.909740	-0.357843
C55	C	-0.069112	0.909782	-0.357867
C56	C	-0.303295	1.073830	-0.357807
C57	C	-0.303305	1.143798	-0.357816
C58	C	-0.303203	0.909668	-0.551491
C59	C	-0.303174	0.909679	-0.634037
C60	C	-0.261113	0.951795	-0.833508
C61	C	-0.245702	0.894382	-0.882904
C62	C	-0.303164	0.909705	-0.785167
C63	C	-0.318535	0.967140	-0.882853
C64	C	-0.303152	0.909734	-0.931152
C65	C	-0.287723	0.852262	-0.833476
C66	C	-0.360582	0.925058	-0.833421
C67	C	-0.345193	0.867606	-0.882795
C68	C	-0.303169	0.909689	-0.701069
C69	C	-0.303147	0.909744	-1.015249
C70	C	-0.303292	0.909648	-0.164833
C71	C	-0.303143	0.909758	-0.082288
H72	H	-0.376215	0.669963	-0.271454
C73	C	-0.213048	0.999805	-0.804272
H74	H	-0.172266	0.988802	-0.821219
H75	H	-0.223576	1.040489	-0.821909
H76	H	-0.213643	0.999731	-0.751646
C77	C	-0.336111	1.032737	-0.912154
H78	H	-0.373251	1.029872	-0.941087
H79	H	-0.343092	1.060273	-0.871585
H80	H	-0.302829	1.048531	-0.941881
C81	C	-0.393217	0.819487	-0.911871
H82	H	-0.423992	0.840451	-0.940826
H83	H	-0.372294	0.789152	-0.941518
H84	H	-0.412999	0.799178	-0.871207
H85	H	-0.409132	0.938053	-0.811671
C86	C	-0.533507	0.994150	-0.258081
H87	H	-0.489646	0.988358	-0.264857
H88	H	-0.544231	1.036449	-0.268975
H89	H	-0.544335	0.984946	-0.208179
H90	H	-0.662165	0.836545	-0.443870
C91	C	-0.671564	0.994216	-0.258126
H92	H	-0.642574	1.018191	-0.229851
H93	H	-0.697169	1.021638	-0.286563
H94	H	-0.697249	0.970151	-0.225748
H95	H	-0.197139	0.881405	-0.904639
H96	H	-0.230294	0.670061	-0.444100
H97	H	-0.274661	0.803688	-0.811878
H98	H	-0.230295	0.550797	-0.444099
C99	C	-0.934344	0.994324	-0.258191
H100	H	-0.890483	0.988534	-0.264972
H101	H	-0.945074	1.036616	-0.269111
H102	H	-0.945163	0.985142	-0.208281
H103	H	-0.542893	0.836500	-0.443855
H104	H	-0.376223	0.550695	-0.271457
C105	C	-0.218858	0.140571	-0.457730
H106	H	-0.224619	0.096706	-0.450920
H107	H	-0.228115	0.151360	-0.507607
H108	H	-0.176548	0.151354	-0.446946
H109	H	-0.230329	0.269223	-0.444124
H110	H	-0.376254	0.269125	-0.271487
C111	C	-1.072400	0.994375	-0.258219
H112	H	-1.043409	1.018349	-0.229945
H113	H	-1.098001	1.021800	-0.286659
H114	H	-1.098090	0.970316	-0.225841
C115	C	-1.072387	0.825185	-0.457519
H116	H	-1.043393	0.801187	-0.485776
H117	H	-1.098079	0.797783	-0.429088
H118	H	-1.097986	0.849263	-0.489912
C119	C	-0.387761	0.140451	-0.257900
H120	H	-0.411705	0.169426	-0.229557
H121	H	-0.415216	0.114801	-0.286251
H122	H	-0.363647	0.114808	-0.225592
C123	C	-0.934340	0.825130	-0.457479
H124	H	-0.963331	0.801145	-0.485740
H125	H	-0.908648	0.849180	-0.489859
H126	H	-0.908740	0.797707	-0.429027
