data_functionalizedCrystal
_audit_creation_method	'MofGen! by Chris Wilmer'
_symmetry_space_group_name_H-M	'P1'
_symmetry_Int_Tables_number	1
_symmetry_cell_setting	triclinic
loop_
_symmetry_equiv_pos_as_xyz
  x,y,z
_cell_length_a	17.699083
_cell_length_b	10.723023
_cell_length_c	16.776229
_cell_angle_alpha	90.000369
_cell_angle_beta	89.998901
_cell_angle_gamma	83.875281
loop_
_atom_site_label
_atom_site_type_symbol
_atom_site_fract_x
_atom_site_fract_y
_atom_site_fract_z
O1	O	1.005074	0.157786	-0.066175
O2	O	0.784825	0.178316	-0.066201
O3	O	0.900030	-0.013612	-0.066184
O4	O	0.889869	0.349714	-0.066191
O5	O	0.900014	-0.013602	0.066393
O6	O	0.784808	0.178326	0.066376
O7	O	1.005057	0.157796	0.066402
Zn8	Zn	0.894930	0.168063	0.087438
Zn9	Zn	0.894952	0.168049	-0.087237
O10	O	0.889852	0.349725	0.066385
C11	C	0.756615	0.177585	0.000084
C12	C	0.672583	0.175379	0.000075
C13	C	0.624673	0.288036	0.000072
C14	C	0.545716	0.285955	0.000083
C15	C	0.514672	0.171215	0.000090
C16	C	0.562589	0.058549	0.000094
C17	C	0.641544	0.060631	0.000089
C18	C	0.244173	0.050148	0.000114
C19	C	0.165212	0.048075	0.000116
C20	C	0.148345	0.275473	0.000107
C21	C	0.227300	0.277555	0.000103
C22	C	0.275210	0.164889	0.000111
C23	C	0.360823	0.167147	0.000102
C24	C	0.429060	0.168956	0.000094
C25	C	0.899283	-0.060094	0.000104
C26	C	0.897071	-0.198611	0.000101
C27	C	0.896093	-0.260365	-0.068579
C28	C	0.893807	-0.403529	-0.068584
C29	C	1.033267	0.158527	0.000115
C30	C	1.117299	0.160734	0.000120
C31	C	0.890600	0.396206	0.000096
C32	C	0.892812	0.534723	0.000094
N33	N	0.894921	0.168071	0.206650
N34	N	0.894968	0.168031	-0.206448
C35	C	0.945987	0.083076	0.751822
C36	C	0.945984	0.083085	0.668370
C37	C	0.894956	0.168044	0.626649
C38	C	0.843935	0.253008	0.668385
C39	C	0.843943	0.253004	0.751836
C40	C	0.843903	0.253027	0.331838
C41	C	0.843897	0.253021	0.248381
C42	C	0.945943	0.083107	0.248372
C43	C	0.945951	0.083103	0.331822
C44	C	0.894933	0.168071	0.373551
C45	C	0.894938	0.168062	0.464039
C46	C	0.894947	0.168048	0.536162
H47	H	0.506710	0.377693	0.000080
H48	H	0.896946	-0.207245	-0.127375
O49	O	0.794306	0.335571	0.792251
C50	C	0.749277	0.410578	0.737535
H51	H	0.748153	0.359423	0.678048
H52	H	0.688938	0.429736	0.761655
H53	H	0.774326	0.503226	0.728659
H54	H	0.896210	-0.251728	0.058897
O55	O	0.654700	0.399606	0.000100
C56	C	0.595478	0.498593	0.000082
H57	H	0.541671	0.463775	0.025186
H58	H	0.612391	0.578720	0.038569
H59	H	0.584485	0.533327	-0.063522
H60	H	0.109327	0.367211	0.000104
H61	H	0.892970	-0.456636	-0.127383
H62	H	0.283172	-0.041591	0.000122
H63	H	0.802343	0.322210	0.214414
O64	O	0.794271	0.335606	0.372242
C65	C	0.749246	0.410609	0.317521
H66	H	0.748120	0.359444	0.258037
H67	H	0.688907	0.429780	0.341639
H68	H	0.774301	0.503250	0.308637
O69	O	0.893707	-0.402050	0.070298
C70	C	0.827749	-0.419410	0.114267
H71	H	0.804430	-0.509172	0.093791
H72	H	0.842383	-0.426950	0.180388
H73	H	0.783100	-0.336148	0.104179
H74	H	0.537306	-0.034875	0.000111
H75	H	0.139939	-0.045366	0.000123
H76	H	0.987536	0.013888	0.785785
H77	H	0.987528	0.013909	0.634393
O78	O	0.995593	0.000528	0.372225
C79	C	1.040612	-0.074475	0.317497
H80	H	1.041725	-0.023318	0.258010
H81	H	1.100956	-0.093633	0.341602
H82	H	1.015562	-0.167123	0.308626
H83	H	0.802390	0.322190	0.634411
H84	H	0.680552	-0.031107	0.000091
O85	O	0.995454	0.000648	0.207712
C86	C	0.984483	0.018819	0.125109
H87	H	0.956752	0.118109	0.113703
H88	H	1.041713	0.004728	0.093373
H89	H	0.946115	-0.051684	0.101458
H90	H	0.252572	0.370988	0.000093
