data_functionalizedCrystal
_audit_creation_method	'MofGen! by Chris Wilmer'
_symmetry_space_group_name_H-M	'P1'
_symmetry_Int_Tables_number	1
_symmetry_cell_setting	triclinic
loop_
_symmetry_equiv_pos_as_xyz
  x,y,z
_cell_length_a	16.959454
_cell_length_b	17.077404
_cell_length_c	17.077396
_cell_angle_alpha	90.017244
_cell_angle_beta	89.974430
_cell_angle_gamma	89.979700
loop_
_atom_site_label
_atom_site_type_symbol
_atom_site_fract_x
_atom_site_fract_y
_atom_site_fract_z
Zn1	Zn	-0.314670	-1.200052	-0.443863
Zn2	Zn	-0.446860	-1.199971	-0.312606
Zn3	Zn	-0.314700	-1.068789	-0.312611
Zn4	Zn	-0.446811	-1.068759	-0.443829
O5	O	-0.380760	-1.134393	-0.378227
O6	O	-0.332214	-1.309889	-0.426463
O7	O	-0.429362	-1.182548	-0.202759
O8	O	-0.204085	-1.086249	-0.330038
O9	O	-0.429333	-1.309829	-0.330029
O10	O	-0.204063	-1.182687	-0.426469
O11	O	-0.332264	-1.086170	-0.202763
O12	O	-0.332217	-0.958938	-0.330006
O13	O	-0.429250	-1.086196	-0.553681
O14	O	-0.429278	-0.958916	-0.426411
O15	O	-0.332166	-1.182657	-0.553706
O16	O	-0.557464	-1.182519	-0.329996
O17	O	-0.557429	-1.086117	-0.426406
C18	C	-0.380746	-0.930445	-0.378206
C19	C	-0.380759	-0.843195	-0.378215
C20	C	-0.586127	-1.134327	-0.378214
C21	C	-0.673983	-1.134371	-0.378235
C22	C	-0.380699	-1.134432	-0.582972
C23	C	-0.380673	-1.134449	-0.670222
C24	C	-1.045470	-1.084270	-0.428422
C25	C	-1.045447	-1.184735	-0.328112
C26	C	-0.962902	-1.184707	-0.328105
C27	C	-0.921636	-1.134460	-0.378256
C28	C	-0.962917	-1.084239	-0.428415
C29	C	-0.921615	-1.234921	-0.277942
C30	C	-0.839064	-1.234895	-0.277932
C31	C	-0.797797	-1.184651	-0.328088
C32	C	-0.839083	-1.134429	-0.378249
C33	C	-0.797817	-1.084181	-0.428400
C34	C	-0.839101	-1.033962	-0.478566
C35	C	-0.921650	-1.033994	-0.478571
C36	C	-0.715249	-1.184619	-0.328083
C37	C	-0.715264	-1.084150	-0.428393
C38	C	-0.174592	-1.134480	-0.378258
C39	C	-0.086736	-1.134518	-0.378271
C40	C	-0.380775	-1.339137	-0.378250
C41	C	-0.380782	-1.426387	-0.378259
C42	C	-0.431375	-0.802214	-0.428333
C43	C	-0.431377	-0.720233	-0.428345
C44	C	-0.380766	-0.679236	-0.378236
C45	C	-0.330144	-0.720223	-0.328116
C46	C	-0.330139	-0.802202	-0.328108
C47	C	-0.330160	-0.549353	-0.328134
C48	C	-0.330165	-0.467368	-0.328141
C49	C	-0.431398	-0.467384	-0.428372
C50	C	-0.431392	-0.549363	-0.428364
C51	C	-0.380771	-0.590345	-0.378243
C52	C	-0.330108	-1.084280	-0.711213
C53	C	-0.330090	-1.084293	-0.793194
C54	C	-0.380634	-1.134479	-0.834181
C55	C	-0.431204	-1.184651	-0.793184
C56	C	-0.431225	-1.184633	-0.711205
C57	C	-0.431155	-1.184685	-0.964054
C58	C	-0.431132	-1.184703	-1.046038
C59	C	-0.330020	-1.084344	-1.046043
C60	C	-0.330041	-1.084327	-0.964064
C61	C	-0.380610	-1.134499	-0.923072
C62	C	-0.380764	-1.134399	-0.174279
C63	C	-0.380568	-1.134534	-0.087030
H64	H	-0.681670	-1.043235	-0.469236
C65	C	-0.274510	-1.029077	-0.666130
H66	H	-0.281758	-1.036255	-0.611435
H67	H	-0.286070	-0.976333	-0.679559
H68	H	-0.221397	-1.040596	-0.679578
C69	C	-0.274503	-0.422268	-0.273017
H70	H	-0.281768	-0.367576	-0.280193
H71	H	-0.221404	-0.435714	-0.284587
H72	H	-0.286012	-0.435684	-0.220253
H73	H	-0.805456	-1.275786	-0.237085
H74	H	-0.288918	-0.835568	-0.287301
H75	H	-0.288919	-1.043437	-0.826565
H76	H	-0.805493	-0.993047	-0.519396
C77	C	-0.487062	-0.594460	-0.483484
H78	H	-0.517206	-0.558313	-0.513341
H79	H	-0.521460	-0.626420	-0.453395
H80	H	-0.456859	-0.626460	-0.517735
H81	H	-0.955270	-0.993108	-0.519412
C82	C	-0.487075	-0.422309	-0.483509
H83	H	-0.479824	-0.367613	-0.476346
H84	H	-0.540168	-0.435721	-0.471929
H85	H	-0.475569	-0.435772	-0.536271
H86	H	-0.288881	-1.043464	-0.930694
H87	H	-0.288932	-0.582718	-0.287327
C88	C	-0.274470	-0.675132	-0.272996
H89	H	-0.244318	-0.711282	-0.243152
H90	H	-0.304663	-0.643129	-0.238745
H91	H	-0.240067	-0.643175	-0.303091
H92	H	-0.288843	-1.043493	-1.079422
C93	C	-0.486723	-1.239912	-1.091124
H94	H	-0.516849	-1.269785	-1.054971
H95	H	-0.456475	-1.274132	-1.123107
H96	H	-0.521153	-1.209874	-1.123099
H97	H	-0.472594	-0.686870	-0.469156
C98	C	-0.486781	-1.239872	-0.918964
H99	H	-0.516875	-1.269769	-0.955115
H100	H	-0.521227	-1.209823	-0.886975
H101	H	-0.456551	-1.274083	-0.886994
H102	H	-0.472394	-1.225492	-0.677830
C103	C	-1.090877	-1.029031	-0.483598
H104	H	-1.145951	-1.036240	-0.476420
H105	H	-1.077308	-1.040479	-0.536349
H106	H	-1.077394	-0.976289	-0.472052
C107	C	-1.090837	-1.240007	-0.272955
H108	H	-1.145913	-1.232836	-0.280147
H109	H	-1.077347	-1.228556	-0.220199
H110	H	-1.077264	-1.292738	-0.284503
C111	C	-0.967006	-1.290199	-0.222791
H112	H	-1.022082	-1.283034	-0.229992
H113	H	-0.953525	-1.278749	-0.170033
H114	H	-0.953426	-1.342928	-0.234340
H115	H	-0.681639	-1.225502	-0.287235
C116	C	-0.487047	-0.847304	-0.483456
H117	H	-0.517187	-0.811153	-0.513311
H118	H	-0.521448	-0.879264	-0.453370
H119	H	-0.456845	-0.879304	-0.517709
H120	H	-0.472361	-1.225509	-0.826562
