data_functionalizedCrystal
_audit_creation_method	'MofGen! by Chris Wilmer'
_symmetry_space_group_name_H-M	'P1'
_symmetry_Int_Tables_number	1
_symmetry_cell_setting	triclinic
loop_
_symmetry_equiv_pos_as_xyz
  x,y,z
_cell_length_a	10.723024
_cell_length_b	10.723024
_cell_length_c	9.198806
_cell_angle_alpha	90.002012
_cell_angle_beta	90.003648
_cell_angle_gamma	84.467869
loop_
_atom_site_label
_atom_site_type_symbol
_atom_site_fract_x
_atom_site_fract_y
_atom_site_fract_z
O1	O	-1.657188	-0.175024	-0.120879
O2	O	-1.294035	-0.191778	-0.120884
O3	O	-1.483988	-0.001825	-0.120876
O4	O	-1.467235	-0.364977	-0.120887
O5	O	-1.483973	-0.001824	0.120909
O6	O	-1.294020	-0.191777	0.120901
O7	O	-1.657173	-0.175024	0.120906
Cu8	Cu	-1.475595	-0.183401	0.142981
Cu9	Cu	-1.475613	-0.183401	-0.142958
O10	O	-1.467220	-0.364977	0.120898
C11	C	-1.247528	-0.190558	0.000008
C12	C	-1.108974	-0.186911	0.000007
N13	N	-1.475592	-0.183399	0.344095
C14	C	-1.482762	0.044675	0.000015
C15	C	-1.479114	0.183229	0.000010
C16	C	-1.703680	-0.176243	0.000011
C17	C	-1.842234	-0.179891	0.000003
C18	C	-1.033991	-0.293198	0.000002
C19	C	-0.890788	-0.289431	0.000001
C20	C	-1.468447	-0.411477	0.000004
C21	C	-1.472094	-0.550031	-0.000000
C22	C	-1.585401	0.258212	0.000009
C23	C	-1.581634	0.401415	0.000004
N24	N	-1.475626	-0.183393	-0.344072
C25	C	-1.555347	-0.103292	0.416295
C26	C	-1.555367	-0.103288	0.583707
H27	H	-0.826355	-0.380421	-0.000009
H28	H	-1.075814	-0.386984	0.000008
H29	H	-1.407345	-0.251984	0.593848
C30	C	-1.647580	-0.010638	0.332385
C31	C	-1.647313	-0.010653	0.164980
C32	C	-1.739549	0.082005	0.081076
C33	C	-1.832052	0.174678	0.164577
C34	C	-1.832322	0.174697	0.331991
C35	C	-1.740086	0.082039	0.415896
H36	H	-1.578834	-0.079259	0.103159
H37	H	-1.739349	0.081990	-0.042856
H38	H	-1.900331	0.243269	0.102466
H39	H	-1.900801	0.243303	0.393812
H40	H	-1.740286	0.082053	0.539827
H41	H	-1.407319	-0.251975	0.406220
C42	C	-1.349158	0.362943	0.000001
C43	C	-1.320404	0.269589	-0.125549
C44	C	-1.197468	0.182553	-0.125548
C45	C	-1.103286	0.188869	0.000002
C46	C	-1.132037	0.282227	0.125561
C47	C	-1.254973	0.369263	0.125560
H48	H	-1.390126	0.264910	-0.218497
H49	H	-1.176186	0.113443	-0.218496
H50	H	-1.012281	0.124439	0.000003
H51	H	-1.062315	0.286906	0.218509
H52	H	-1.276255	0.438373	0.218508
C53	C	-1.647617	-0.010630	0.667574
C54	C	-1.643893	0.131466	0.646843
C55	C	-1.736148	0.224127	0.730713
C56	C	-1.832126	0.174692	0.835314
C57	C	-1.835853	0.032588	0.856049
C58	C	-1.743599	-0.060073	0.772179
H59	H	-1.572841	0.168068	0.569408
H60	H	-1.733387	0.329322	0.715363
H61	H	-1.900418	0.243285	0.897399
H62	H	-1.906906	-0.004014	0.933485
H63	H	-1.746359	-0.165268	0.787529
H64	H	-0.906659	-0.088896	-0.000003
H65	H	-1.385328	0.225051	-0.000001
H66	H	-1.672624	0.465848	0.000010
H67	H	-1.067152	-0.093125	-0.000028
H68	H	-1.679187	0.216390	0.000019
