data_functionalizedCrystal
_audit_creation_method	'MofGen! by Chris Wilmer'
_symmetry_space_group_name_H-M	'P1'
_symmetry_Int_Tables_number	1
_symmetry_cell_setting	triclinic
loop_
_symmetry_equiv_pos_as_xyz
  x,y,z
_cell_length_a	14.519709
_cell_length_b	11.792254
_cell_length_c	10.868271
_cell_angle_alpha	89.995741
_cell_angle_beta	89.993918
_cell_angle_gamma	83.939371
loop_
_atom_site_label
_atom_site_type_symbol
_atom_site_fract_x
_atom_site_fract_y
_atom_site_fract_z
O1	O	0.126460	1.506199	-0.102324
O2	O	0.626460	2.006199	0.397676
O3	O	0.139475	1.175787	-0.102327
O4	O	0.639475	1.675787	0.397673
O5	O	-0.001238	1.349754	-0.102314
O6	O	0.498762	1.849754	0.397686
O7	O	0.267174	1.332233	-0.102337
O8	O	0.767174	1.832233	0.397663
O9	O	-0.001244	1.349739	0.102330
O10	O	0.498756	1.849739	0.602330
O11	O	0.139470	1.175773	0.102318
O12	O	0.639470	1.675773	0.602318
O13	O	0.126455	1.506184	0.102321
O14	O	0.626455	2.006184	0.602321
Zn15	Zn	0.132961	1.340977	0.134811
Zn16	Zn	0.632961	1.840977	0.634811
Zn17	Zn	0.132968	1.340995	-0.134817
Zn18	Zn	0.632968	1.840995	0.365183
O19	O	0.267168	1.332218	0.102308
O20	O	0.767168	1.832218	0.602308
C21	C	0.138652	1.133494	-0.000005
C22	C	0.638652	1.633494	0.499995
C23	C	0.136199	1.007495	-0.000006
C24	C	0.636199	1.507495	0.499994
C25	C	0.134205	0.905169	-0.000011
C26	C	0.634205	1.405169	0.499989
C27	C	0.131711	0.776796	-0.000011
C28	C	0.631711	1.276796	0.499989
C29	C	-0.035604	1.348930	0.000008
C30	C	0.464396	1.848930	0.500008
C31	C	-0.137994	1.346483	0.000009
C32	C	0.362006	1.846483	0.500009
C33	C	-0.512923	1.337475	-0.000023
C34	C	-0.012923	1.837475	0.499977
C35	C	-0.408606	1.339976	-0.000014
C36	C	0.091394	1.839976	0.499986
C37	C	-0.325462	1.341979	-0.000006
C38	C	0.174538	1.841979	0.499994
C39	C	-0.221138	1.344481	0.000001
C40	C	0.278862	1.844481	0.500001
C41	C	0.301534	1.333042	-0.000017
C42	C	0.801534	1.833042	0.499983
C43	C	0.403924	1.335489	-0.000026
C44	C	0.903924	1.835489	0.499974
C45	C	0.127277	1.548478	-0.000004
C46	C	0.627277	2.048478	0.499996
C47	C	0.129731	1.674477	-0.000011
C48	C	0.629731	2.174477	0.499989
N49	N	0.132956	1.340972	0.318825
N50	N	0.632956	1.840972	0.818825
N51	N	0.132967	1.341009	-0.318831
N52	N	0.632967	1.841009	0.181169
C53	C	0.132967	1.340989	0.569831
C54	C	0.632967	1.840989	1.069831
C55	C	0.132963	1.340976	0.430153
C56	C	0.632963	1.840976	0.930153
