data_functionalizedCrystal
_audit_creation_method	'MofGen! by Chris Wilmer'
_symmetry_space_group_name_H-M	'P1'
_symmetry_Int_Tables_number	1
_symmetry_cell_setting	triclinic
loop_
_symmetry_equiv_pos_as_xyz
  x,y,z
_cell_length_a	14.628931
_cell_length_b	21.606444
_cell_length_c	21.606444
_cell_angle_alpha	59.999398
_cell_angle_beta	60.000432
_cell_angle_gamma	90.000628
loop_
_atom_site_label
_atom_site_type_symbol
_atom_site_fract_x
_atom_site_fract_y
_atom_site_fract_z
Zr1	Zr	-0.119917	0.596256	0.677419
O2	O	-0.265876	0.626552	0.677418
O3	O	-0.075177	0.497430	0.677424
O4	O	-0.265880	0.497431	0.806542
O5	O	0.075261	0.728403	0.446445
O6	O	-0.265877	0.497433	0.908392
O7	O	-0.075174	0.626550	0.548300
O8	O	0.075255	0.497430	0.677423
O9	O	-0.265872	0.728406	0.677414
O10	O	-0.056089	0.563461	0.753431
O11	O	0.056177	0.639472	0.601407
O12	O	-0.168351	0.639474	0.753428
O13	O	-0.056085	0.715484	0.601404
Zr14	Zr	0.120013	0.758702	0.677412
Zr15	Zr	-0.119913	0.596259	0.839859
Zr16	Zr	0.120009	0.758700	0.514972
Zr17	Zr	-0.119909	0.758702	0.677412
Zr18	Zr	0.120005	0.596257	0.677419
O19	O	0.075273	0.857529	0.677408
O20	O	-0.265871	0.626555	0.908387
O21	O	0.075267	0.857526	0.446440
O22	O	0.265972	0.728407	0.677413
O23	O	-0.075171	0.497433	0.908392
O24	O	0.265967	0.728403	0.446445
O25	O	-0.075165	0.626555	0.908386
O26	O	0.265976	0.857527	0.548290
O27	O	0.265973	0.857526	0.446439
O28	O	0.075269	0.728408	0.806531
O29	O	-0.265869	0.728408	0.806532
O30	O	0.265964	0.626551	0.548300
O31	O	0.265967	0.626552	0.677417
O32	O	0.075258	0.497432	0.806541
O33	O	-0.075162	0.857527	0.548290
O34	O	-0.075159	0.857529	0.677408
O35	O	0.168447	0.715485	0.601404
O36	O	0.056181	0.639474	0.753427
O37	O	-0.056081	0.715487	0.753424
O38	O	0.056185	0.791497	0.601401
C39	C	0.000038	0.474285	0.677424
C40	C	0.000035	0.405322	0.677427
C41	C	-0.300058	0.677479	0.677416
C42	C	-0.401911	0.677479	0.677417
C43	C	-0.058568	0.333247	0.756781
C44	C	-0.058561	0.268452	0.756779
C45	C	0.000044	0.275734	0.677422
C46	C	0.058655	0.347817	0.598062
C47	C	0.058653	0.412610	0.598065
C48	C	0.058664	0.086514	0.598046
C49	C	0.058658	0.021713	0.598049
C50	C	-0.058550	-0.057644	0.756760
C51	C	-0.058552	0.007149	0.756764
C52	C	0.000063	0.079226	0.677404
C53	C	0.000056	0.149484	0.677408
C54	C	0.000045	0.205478	0.677417
C55	C	-0.391629	0.715185	0.602003
C56	C	-0.496898	0.715186	0.602001
C57	C	0.300154	0.677480	0.677415
C58	C	0.402007	0.677480	0.677415
C59	C	0.000043	0.677476	0.474229
C60	C	0.000042	0.677475	0.405269
C61	C	0.000058	0.880674	0.677407
C62	C	0.000061	0.949636	0.677404
C63	C	-0.082837	0.621364	0.428985
C64	C	-0.082833	0.621363	0.364189
C65	C	0.000046	0.677476	0.275676
C66	C	0.082933	0.733590	0.251960
C67	C	0.082933	0.733588	0.316756
C68	C	0.082937	0.733599	-0.009357
C69	C	0.082929	0.733598	-0.074153
C70	C	-0.082829	0.621374	0.038076
C71	C	-0.082829	0.621372	0.102872
C72	C	0.000061	0.677483	0.079151
C73	C	0.000057	0.677483	0.149411
C74	C	0.000047	0.677479	0.205416
C75	C	0.000053	0.677482	0.880603
C76	C	0.000054	0.677483	0.949563
C77	C	-0.300063	0.474287	0.880612
C78	C	-0.401918	0.405326	0.949575
C79	C	0.000043	0.474288	0.880612
C80	C	0.000041	0.405326	0.949575
C81	C	0.300149	0.677477	0.474228
C82	C	0.402001	0.677476	0.405268
C83	C	0.000053	0.880671	0.474220
C84	C	0.000055	0.949632	0.405257
C85	C	0.300159	0.880671	0.474219
C86	C	0.402014	0.949633	0.405256
C87	C	-0.300053	0.677482	0.880604
C88	C	-0.401905	0.677483	0.949564
C89	C	-0.508360	0.412618	0.981966
C90	C	-0.604072	0.347828	1.046774
C91	C	-0.593341	0.275746	1.079185
C92	C	-0.486887	0.268454	1.046791
C93	C	-0.391177	0.333244	0.981989
C94	C	-0.058573	0.333257	0.981969
C95	C	-0.058597	0.268454	1.046776
C96	C	0.000000	0.275722	1.079183
C97	C	0.058616	0.347800	1.046786
C98	C	0.058633	0.412601	0.981984
C99	C	0.508445	0.717160	0.372875
C100	C	0.604154	0.717174	0.308070
C101	C	0.593417	0.677500	0.275665
C102	C	0.486962	0.637814	0.308060
C103	C	0.391255	0.637805	0.372859
C104	C	0.058659	1.021702	0.372869
C105	C	0.058657	1.086505	0.308080
C106	C	0.000056	1.079236	0.275676
C107	C	-0.058556	1.007159	0.308070
C108	C	-0.058559	0.942358	0.372862
C109	C	0.391246	1.021702	0.372862
C110	C	0.486940	1.086505	0.308055
C111	C	0.593401	1.079237	0.275647
C112	C	0.604166	1.007160	0.308044
C113	C	0.508473	0.942358	0.372846
C114	C	-0.391132	0.717161	0.981953
C115	C	-0.486823	0.717160	1.046757
C116	C	-0.593286	0.677484	1.079166
C117	C	-0.604057	0.637800	1.046774
C118	C	-0.508367	0.637798	0.981976
H119	H	-0.106297	0.327309	0.821403
H120	H	-0.106279	0.209766	0.821395
H121	H	0.478236	0.605513	0.281666
F122	F	-0.278260	0.757386	0.517611
F123	F	-0.120949	0.325504	0.947493
F124	F	0.121046	1.163207	0.273613
F125	F	-0.609286	0.635277	0.761812
F126	F	-0.717372	0.595582	1.081270
H127	H	-0.106278	0.001214	0.821384
H128	H	-0.304511	0.327296	0.955617
H129	H	0.150420	0.779276	0.179887
F130	F	0.120979	0.355524	1.081283
F131	F	0.121038	0.029469	0.513582
H132	H	0.690825	0.749491	0.281704
F133	F	0.171147	0.793307	0.291510
H134	H	-0.488269	0.747463	0.537437
H135	H	-0.150318	0.575672	0.383503
H136	H	-0.517154	0.605488	0.955607
H137	H	0.150424	0.779294	-0.146228
F138	F	0.121051	0.163216	0.513585
F139	F	-0.695215	0.206797	1.148152
F140	F	0.000071	1.148211	0.206716
F141	F	-0.171055	0.561643	0.523186
F142	F	-0.120930	-0.134360	0.841223
F143	F	-0.695119	0.677495	1.148129
H144	H	-0.478031	0.749478	1.073119
H145	H	0.106378	0.353742	0.533448
H146	H	-0.478166	0.209756	1.073190
H147	H	0.671311	1.132008	0.222881
F148	F	-0.120983	0.191751	1.081241
H149	H	-0.106267	1.001252	0.281676
F150	F	0.121029	0.489321	0.513606
F151	F	0.519897	0.759388	0.407354
F152	F	-0.120931	0.865658	0.407320
F153	F	0.121032	1.029455	0.407347
H154	H	-0.690741	0.353779	1.073138
H155	H	-0.488647	0.645201	0.741980
F156	F	-0.171042	0.561651	0.197074
H157	H	0.304569	1.027635	0.399240
H158	H	-0.000022	0.222951	1.131947
F159	F	0.171151	0.793318	-0.034607
F160	F	0.695288	0.677516	0.206700
H161	H	0.304587	0.605484	0.399232
H162	H	-0.150319	0.575683	0.057386
F163	F	-0.519807	0.489328	0.947490
H164	H	0.478153	1.145187	0.281687
F165	F	0.519950	0.865658	0.407319
F166	F	0.121029	0.489301	0.947510
H167	H	0.690860	1.001253	0.281648
H168	H	-0.304453	0.749473	0.955572
