data_functionalizedCrystal
_audit_creation_method	'MofGen! by Chris Wilmer'
_symmetry_space_group_name_H-M	'P1'
_symmetry_Int_Tables_number	1
_symmetry_cell_setting	triclinic
loop_
_symmetry_equiv_pos_as_xyz
  x,y,z
_cell_length_a	12.970454
_cell_length_b	20.016444
_cell_length_c	20.016444
_cell_angle_alpha	90.001223
_cell_angle_beta	120.003162
_cell_angle_gamma	60.002422
loop_
_atom_site_label
_atom_site_type_symbol
_atom_site_fract_x
_atom_site_fract_y
_atom_site_fract_z
Zr1	Zr	1.128574	0.643582	0.087679
O2	O	1.343665	0.536912	0.194357
O3	O	0.913484	0.676282	0.054976
O4	O	1.128584	0.676285	0.194356
O5	O	1.128557	0.536907	-0.054968
O6	O	1.128592	0.786225	0.194357
O7	O	1.128564	0.536909	0.054977
O8	O	0.743817	0.786220	-0.054969
O9	O	1.513332	0.536912	0.194358
O10	O	1.001960	0.772275	0.041030
O11	O	1.001948	0.690227	-0.041021
O12	O	1.255201	0.690230	0.123081
O13	O	1.255189	0.608182	0.041030
Zr14	Zr	1.128575	0.818920	-0.087670
Zr15	Zr	1.128587	0.818924	0.087680
Zr16	Zr	1.128562	0.643578	-0.087670
Zr17	Zr	1.399174	0.643582	0.087680
Zr18	Zr	0.857975	0.818920	-0.087671
O19	O	1.343666	0.786220	-0.054967
O20	O	1.343683	0.786225	0.194357
O21	O	1.343648	0.536907	-0.054967
O22	O	0.913485	0.925590	-0.194348
O23	O	0.913502	0.925595	0.054977
O24	O	0.913467	0.676277	-0.194348
O25	O	1.128593	0.925595	0.054977
O26	O	1.128566	0.786217	-0.194347
O27	O	1.128558	0.676277	-0.194347
O28	O	1.128585	0.925593	-0.054968
O29	O	1.513342	0.676285	0.194358
O30	O	0.743808	0.786217	-0.194348
O31	O	0.743818	0.925590	-0.194348
O32	O	0.743827	0.925593	-0.054969
O33	O	1.513322	0.536909	0.054978
O34	O	1.513333	0.676282	0.054978
O35	O	1.001949	0.772272	-0.123072
O36	O	1.001960	0.854320	-0.041021
O37	O	1.255202	0.772275	0.041030
O38	O	1.255190	0.690227	-0.041020
C39	C	0.790096	0.731251	0.000004
C40	C	0.675219	0.731251	0.000003
C41	C	1.128559	0.511926	0.000004
C42	C	1.128553	0.437489	0.000004
C43	C	0.996381	0.309048	-0.042827
C44	C	0.996387	0.239103	-0.042830
C45	C	1.260779	0.153456	0.042838
C46	C	1.260772	0.223400	0.042835
C47	C	1.128568	0.301196	0.000004
C48	C	1.128582	0.161306	0.000005
C49	C	1.128589	0.085468	0.000003
C50	C	1.128560	0.377039	0.000004
C51	C	1.467054	0.731251	0.000006
C52	C	1.581931	0.731251	0.000006
C53	C	1.128590	0.731256	0.219340
C54	C	1.128595	0.731258	0.293781
C55	C	1.128591	0.950576	0.000005
C56	C	1.128597	1.025013	0.000005
C57	C	1.128582	0.791825	0.465037
C58	C	1.128573	0.791826	0.534977
C59	C	1.128571	0.670683	0.534969
C60	C	1.128570	0.670686	0.465027
C61	C	1.128583	0.731257	0.430065
C62	C	1.128575	0.731255	0.569947
C63	C	1.128565	0.731256	0.645780
C64	C	1.128590	0.731257	0.354227
C65	C	1.128562	0.731249	0.780670
C66	C	1.128563	0.731254	0.706232
C67	C	0.790112	0.950576	0.000004
C68	C	0.675241	1.025013	0.000004
C69	C	0.790081	0.731246	-0.219332
C70	C	0.675199	0.731245	-0.293773
C71	C	0.790097	0.950572	-0.219332
C72	C	0.675221	1.025007	-0.293772
C73	C	1.467053	0.511931	0.219341
C74	C	1.581929	0.437495	0.293782
C75	C	1.467038	0.511926	0.000006
C76	C	1.581909	0.437489	0.000006
C77	C	1.467069	0.731256	0.219341
C78	C	1.581951	0.731258	0.293782
C79	C	0.621295	1.017143	0.042840
C80	C	0.513377	1.087078	0.042856
C81	C	0.459398	1.164882	0.000031
C82	C	0.513353	1.172751	-0.042808
C83	C	0.621277	1.102817	-0.042818
C84	C	0.621250	0.774070	-0.371568
C85	C	0.513321	0.774066	-0.441519
C86	C	0.459337	0.731240	-0.433674
C87	C	0.513297	0.688408	-0.355871
C88	C	0.621230	0.688409	-0.285921
C89	C	0.621280	1.102798	-0.285901
C90	C	0.513356	1.172745	-0.355839
C91	C	0.459368	1.164898	-0.433648
C92	C	0.513320	1.087099	-0.441518
C93	C	0.621249	1.017154	-0.371580
C94	C	1.635883	0.359704	0.285910
C95	C	1.743840	0.289757	0.355848
C96	C	1.797834	0.297604	0.433657
C97	C	1.743875	0.375403	0.441527
C98	C	1.635927	0.445348	0.371590
C99	C	1.635865	0.445359	-0.042824
C100	C	1.743814	0.375424	-0.042820
C101	C	1.797797	0.297620	0.000008
C102	C	1.743836	0.289751	0.042843
C103	C	1.635897	0.359685	0.042844
C104	C	1.635901	0.774092	0.285911
C105	C	1.743830	0.774110	0.355849
C106	C	1.797815	0.731287	0.433658
C107	C	1.743854	0.688451	0.441528
C108	C	1.635919	0.688439	0.371590
H109	H	0.888732	0.372390	-0.077712
H110	H	0.665186	1.109236	-0.077706
C111	C	1.470403	0.428879	0.140651
C112	C	1.576552	0.351065	0.200387
H113	H	1.433780	0.423538	0.087855
H114	H	1.512504	0.457938	0.146786
H115	H	1.392921	0.457927	0.146792
H116	H	1.654039	0.322019	0.194250
H117	H	1.534452	0.321993	0.194249
H118	H	1.591964	0.808963	0.222561
H119	H	0.371486	1.221859	-0.490589
C120	C	0.568175	1.035657	-0.536100
C121	C	0.453962	1.078488	-0.527053
H122	H	0.531519	1.030350	-0.588910
H123	H	0.640154	0.982868	-0.495590
H124	H	0.610293	1.064717	-0.529948
H125	H	0.411850	1.049425	-0.533198
H126	H	0.381957	1.131287	-0.567574
H127	H	1.368415	0.090107	0.077710
H128	H	0.665221	1.109203	-0.222551
C129	C	1.128439	0.845668	0.357777
C130	C	1.128480	0.858441	0.426567
H131	H	1.128351	0.886804	0.334023
H132	H	1.043911	0.848139	0.318946
H133	H	1.213046	0.793404	0.373717
H134	H	1.043867	0.910703	0.410627
H135	H	1.213016	0.855978	0.465406
H136	H	0.665154	0.953815	-0.378001
H137	H	1.591999	0.508688	0.378009
H138	H	0.665192	0.808945	-0.377971
C139	C	1.732907	0.212139	0.264118
C140	C	1.803122	0.204246	0.347184
H141	H	1.769497	0.159349	0.258770
H142	H	1.750595	0.241201	0.238618
H143	H	1.631007	0.241209	0.238636
H144	H	1.905021	0.175182	0.372666
H145	H	1.785445	0.175172	0.372695
H146	H	1.885688	0.240682	0.000000
C147	C	1.128596	0.911563	0.527961
C148	C	1.128582	0.858403	0.573421
H149	H	1.128608	0.952663	0.551698
H150	H	1.044035	0.936441	0.473282
H151	H	1.213170	0.881637	0.528084
H152	H	1.044001	0.888327	0.573292
H153	H	1.213151	0.833524	0.628113
H154	H	1.128564	0.621367	0.563443
C155	C	0.771029	0.290581	-0.172964
C156	C	0.851079	0.247739	-0.089910
H157	H	0.681315	0.295917	-0.202029
H158	H	0.825341	0.261520	-0.194109
H159	H	0.752123	0.343367	-0.179081
H160	H	0.869995	0.194950	-0.083792
H161	H	0.796756	0.276799	-0.068759
C162	C	0.392866	0.697455	-0.557199
C163	C	0.340685	0.731250	-0.510571
H164	H	0.319608	0.697471	-0.604675
H165	H	0.477053	0.642893	-0.525561
H166	H	0.417303	0.729094	-0.572993
H167	H	0.316258	0.699608	-0.494772
H168	H	0.256472	0.785822	-0.542215
H169	H	1.128566	0.621363	0.436549
C170	C	1.732818	0.467071	0.519212
C171	C	1.803044	0.384021	0.527059
H172	H	1.769298	0.472388	0.572018
H173	H	1.630915	0.492559	0.490056
H174	H	1.750639	0.492588	0.490251
H175	H	1.785214	0.358506	0.556015
H176	H	1.904971	0.358523	0.556228
H177	H	0.665142	0.653537	-0.222579
H178	H	0.665244	0.953797	0.077724
H179	H	0.469399	0.808947	-0.504863
H180	H	0.469326	0.653540	-0.349496
C181	C	1.909296	0.144512	0.080850
C182	C	1.803173	0.204224	0.089910
H183	H	1.945916	0.091711	0.109900
H184	H	1.986770	0.150654	0.102008
H185	H	1.867162	0.150669	0.024496
H186	H	1.845310	0.198070	0.146264
H187	H	1.725685	0.198080	0.068756
C188	C	1.952417	0.150780	0.487178
C189	C	1.916480	0.220713	0.510529
H190	H	2.025655	0.103310	0.534635
H191	H	1.987789	0.150794	0.455543
H192	H	1.868179	0.150802	0.455532
H193	H	2.000717	0.220695	0.542171
H194	H	1.881113	0.220699	0.542179
C195	C	0.568343	1.267256	-0.304300
C196	C	0.454074	1.258251	-0.347164
H197	H	0.531749	1.320039	-0.298937
H198	H	0.610430	1.261135	-0.333364
H199	H	0.640337	1.226706	-0.251522
H200	H	0.382085	1.298798	-0.399945
H201	H	0.411965	1.264380	-0.318101
C202	C	1.732981	0.858754	0.264119
C203	C	1.803146	0.821187	0.347185
H204	H	1.769609	0.887811	0.258771
H205	H	1.631091	0.895716	0.238620
H206	H	1.750683	0.818206	0.238636
H207	H	1.785436	0.861735	0.372668
H208	H	1.905060	0.784221	0.372695
H209	H	0.371517	1.221820	0.000045
C210	C	1.646757	0.267963	0.127496
C211	C	1.576577	0.351025	0.089915
H212	H	1.610130	0.262615	0.156553
H213	H	1.748645	0.242476	0.164465
H214	H	1.629066	0.242471	0.086954
H215	H	1.594277	0.376516	0.130458
H216	H	1.474665	0.376523	0.052943
C217	C	1.646724	0.522999	-0.127488
C218	C	1.576544	0.530876	-0.089905
H219	H	1.610112	0.575793	-0.156549
H220	H	1.629028	0.493937	-0.164452
H221	H	1.748626	0.493934	-0.086946
H222	H	1.474642	0.559936	-0.130447
H223	H	1.594228	0.559950	-0.052937
C224	C	1.864284	0.811743	0.510508
C225	C	1.916466	0.731302	0.510530
H226	H	1.937541	0.811751	0.557961
H227	H	1.780096	0.834660	0.510518
H228	H	1.839849	0.843369	0.463034
H229	H	1.940891	0.699677	0.558001
H230	H	2.000680	0.708375	0.510527
C231	C	0.347868	1.317990	-0.080831
C232	C	0.453996	1.258278	-0.089888
H233	H	0.311212	1.370791	-0.109905
H234	H	0.389999	1.311851	-0.024488
H235	H	0.270405	1.311831	-0.101974
H236	H	0.531465	1.264434	-0.068740
H237	H	0.411866	1.264421	-0.146243
H238	H	1.787825	0.653587	0.504889
C239	C	1.646837	0.603755	0.463318
C240	C	1.576642	0.641339	0.380251
H241	H	1.610251	0.574672	0.468667
H242	H	1.629128	0.644288	0.488807
H243	H	1.748741	0.566804	0.488810
H244	H	1.474739	0.678295	0.354760
H245	H	1.594340	0.600802	0.354751
H246	H	1.787731	0.381847	-0.077705
C247	C	1.378153	0.292593	0.080859
C248	C	1.406082	0.214771	0.089915
H249	H	1.467859	0.287266	0.109915
H250	H	1.323851	0.321644	0.102011
H251	H	1.323826	0.321642	0.024506
H252	H	1.460401	0.185725	0.146267
H253	H	1.460407	0.185708	0.068766
H254	H	0.469459	1.080655	0.077740
