data_functionalizedCrystal
_audit_creation_method	'MofGen! by Chris Wilmer'
_symmetry_space_group_name_H-M	'P1'
_symmetry_Int_Tables_number	1
_symmetry_cell_setting	triclinic
loop_
_symmetry_equiv_pos_as_xyz
  x,y,z
_cell_length_a	14.560438
_cell_length_b	27.440279
_cell_length_c	14.560438
_cell_angle_alpha	60.005457
_cell_angle_beta	90.001515
_cell_angle_gamma	60.013241
loop_
_atom_site_label
_atom_site_type_symbol
_atom_site_fract_x
_atom_site_fract_y
_atom_site_fract_z
Zr1	Zr	0.885107	0.533270	-0.120276
O2	O	0.738522	0.634912	-0.266886
O3	O	0.929998	0.431629	-0.075361
O4	O	0.930062	0.533270	-0.266922
O5	O	0.738458	0.533272	0.075814
O6	O	1.081203	0.533268	-0.266917
O7	O	0.738458	0.533272	-0.075326
O8	O	1.081088	0.351452	0.075750
O9	O	0.738573	0.715088	-0.266853
O10	O	1.061992	0.473434	-0.056167
O11	O	0.949198	0.473435	0.056623
O12	O	0.949273	0.593104	-0.168915
O13	O	0.836479	0.593105	-0.056125
Zr14	Zr	1.126159	0.533268	0.120782
Zr15	Zr	1.126159	0.533268	-0.120268
Zr16	Zr	0.885107	0.533270	0.120774
Zr17	Zr	0.885188	0.661141	-0.120223
Zr18	Zr	1.126078	0.405397	0.120729
O19	O	1.081268	0.634909	0.075867
O20	O	1.081267	0.634909	-0.266875
O21	O	0.738523	0.634912	0.075856
O22	O	1.272744	0.431626	0.267392
O23	O	1.272743	0.431626	-0.075350
O24	O	0.929999	0.431630	0.267381
O25	O	1.272808	0.533266	-0.075308
O26	O	1.081204	0.533269	0.267428
O27	O	0.930063	0.533270	0.267423
O28	O	1.272808	0.533267	0.075831
O29	O	0.930177	0.715086	-0.266847
O30	O	1.081089	0.351452	0.267353
O31	O	1.272693	0.351450	0.267359
O32	O	1.272693	0.351450	0.075756
O33	O	0.738573	0.715088	-0.075251
O34	O	0.930178	0.715086	-0.075244
O35	O	1.061993	0.473434	0.169420
O36	O	1.174787	0.473433	0.056631
O37	O	1.062068	0.593103	-0.056117
O38	O	0.949274	0.593104	0.056672
C39	C	1.005532	0.373322	0.000187
C40	C	1.005497	0.319037	0.000165
C41	C	0.946741	0.084279	0.059135
C42	C	0.946719	0.135309	0.059120
O43	O	0.896668	0.161686	0.109213
N44	N	1.005581	0.160834	0.000231
C45	C	1.064478	0.135320	-0.058639
O46	O	1.114543	0.161716	-0.108729
C47	C	1.064506	0.084288	-0.058616
C48	C	1.005631	0.058771	0.000268
C49	C	0.887872	0.058762	0.118015
C50	C	0.887892	0.007736	0.118028
C51	C	0.946782	-0.017772	0.059161
C52	C	1.005651	0.007745	0.000281
C53	C	1.123409	0.058772	-0.117478
C54	C	1.123433	0.007735	-0.117450
C55	C	1.064557	-0.017782	-0.058566
C56	C	1.064562	-0.068789	-0.058574
N57	N	1.005700	-0.094313	0.000316
C58	C	0.946810	-0.068805	0.059183
C59	C	1.064416	0.242492	-0.058679
C60	C	1.064383	0.293527	-0.058708
C61	C	0.946625	0.293511	0.059053
C62	C	0.946653	0.242479	0.059075
C63	C	1.005554	0.216967	0.000211
C64	C	0.946857	-0.175962	0.059205
C65	C	0.946879	-0.226990	0.059209
C66	C	1.064641	-0.226973	-0.058547
C67	C	1.064615	-0.175947	-0.058556
C68	C	1.005720	-0.150444	0.000328
O69	O	1.114591	-0.095200	-0.108638
O70	O	0.896765	-0.095213	0.109277
C71	C	0.704113	0.533272	0.000243
C72	C	0.601780	0.533273	0.000240
C73	C	0.553697	0.533274	-0.083022
C74	C	0.457551	0.533268	-0.083007
C75	C	0.457578	0.533262	0.083536
C76	C	0.553727	0.533264	0.083525
C77	C	0.553677	0.533280	-0.179178
C78	C	0.457532	0.533274	-0.179163
C79	C	1.307153	0.533266	0.000263
C80	C	1.409486	0.533265	0.000266
C81	C	1.005632	0.533269	-0.301264
C82	C	1.005632	0.533269	-0.403596
C83	C	1.005735	0.693216	0.000319
C84	C	1.005769	0.747501	0.000341
C85	C	0.922369	0.533267	-0.451669
C86	C	0.922367	0.533270	-0.547824
C87	C	1.088902	0.533274	-0.547820
C88	C	1.088898	0.533276	-0.451672
C89	C	0.826224	0.533261	-0.451669
C90	C	0.826222	0.533264	-0.547824
C91	C	1.005634	0.533269	0.301769
C92	C	1.005634	0.533270	0.404101
C93	C	1.307051	0.373319	0.000197
C94	C	1.409350	0.319033	0.000178
C95	C	1.005532	0.373322	0.301704
C96	C	1.005498	0.319038	0.404013
C97	C	1.307052	0.373319	0.301713
C98	C	1.409351	0.319034	0.404026
C99	C	0.704214	0.693219	-0.301208
C100	C	0.601915	0.747505	-0.403521
C101	C	0.704215	0.693220	0.000309
C102	C	0.601916	0.747505	0.000328
C103	C	1.005734	0.693216	-0.301198
C104	C	1.005768	0.747501	-0.403507
C105	C	1.398513	0.293540	-0.058720
C106	C	1.494624	0.242540	-0.058761
C107	C	1.601571	0.217030	0.000104
C108	C	1.612406	0.242528	0.059004
C109	C	1.516296	0.293531	0.059037
C110	C	1.064360	0.293544	0.510948
C111	C	1.064323	0.242546	0.607088
C112	C	1.005431	0.217037	0.596291
C113	C	0.946562	0.242535	0.489344
C114	C	0.946592	0.293537	0.393207
C115	C	1.516279	0.293540	0.393198
C116	C	1.612409	0.242540	0.489323
C117	C	1.601608	0.217031	0.596275
C118	C	1.494668	0.242530	0.607100
C119	C	1.398541	0.293532	0.510977
C120	C	0.494987	0.773005	-0.392693
C121	C	0.398857	0.824020	-0.488817
C122	C	0.409658	0.849532	-0.595769
C123	C	0.516598	0.824030	-0.606595
C124	C	0.612725	0.773019	-0.510471
C125	C	0.612753	0.773003	0.059216
C126	C	0.516642	0.824017	0.059230
C127	C	0.409695	0.849529	0.000362
C128	C	0.398860	0.824029	-0.058534
C129	C	0.494970	0.773019	-0.058554
C130	C	1.064672	0.772993	-0.392674
C131	C	1.064726	0.823992	-0.488796
C132	C	1.005869	0.849502	-0.595749
C133	C	0.946964	0.824005	-0.606581
C134	C	0.946917	0.773003	-0.510460
H135	H	0.898897	-0.155203	0.107151
H136	H	0.839917	0.079524	0.165958
C137	C	0.881790	0.214471	0.477476
H138	H	0.846727	0.236958	0.400021
H139	H	0.932591	0.166315	0.512533
H140	H	0.826077	0.222836	0.512541
C141	C	0.404715	0.533258	0.175139
H142	H	0.447128	0.533254	0.224729
H143	H	0.329563	0.573218	0.140957
H144	H	0.404860	0.493288	0.216261
C145	C	1.180494	0.533276	-0.600697
H146	H	1.230079	0.533281	-0.558297
H147	H	1.221598	0.493314	-0.600557
H148	H	1.146308	0.573244	-0.675859
C149	C	1.528182	0.321592	0.275564
H150	H	1.605639	0.299105	0.282899
H151	H	1.493124	0.313232	0.235599
H152	H	1.493148	0.369751	0.235631
C153	C	0.882216	0.852076	-0.724233
H154	H	0.890676	0.886107	-0.779918
H155	H	0.911251	0.815469	-0.732705
H156	H	0.804759	0.871986	-0.732665
H157	H	1.005415	0.175508	0.674581
H158	H	1.679890	0.175501	0.674536
H159	H	1.171351	0.079540	-0.165426
H160	H	0.699827	0.752235	0.107161
C161	C	0.837338	0.468493	-0.522060
H162	H	0.841929	0.441848	-0.446209
H163	H	0.773516	0.481834	-0.570864
H164	H	0.903434	0.441836	-0.533199
H165	H	1.485891	0.221753	0.694193
H166	H	0.525486	0.844771	0.107194
C167	C	0.882099	0.744976	-0.522385
H168	H	0.890495	0.710946	-0.449827
H169	H	0.804668	0.781605	-0.562331
H170	H	0.911162	0.725075	-0.562345
C171	C	0.531014	0.600118	-0.282458
H172	H	0.598320	0.597842	-0.278941
H173	H	0.505880	0.605404	-0.349087
H174	H	0.474867	0.638345	-0.283047
C175	C	0.881924	0.214397	0.123879
H176	H	0.846863	0.236896	0.158944
H177	H	0.826231	0.222720	0.073103
H178	H	0.932764	0.166245	0.179601
C179	C	0.848875	0.466424	-0.348402
H180	H	0.858958	0.436660	-0.368949
H181	H	0.914864	0.444217	-0.290754
H182	H	0.786760	0.477162	-0.321804
C183	C	0.882118	-0.255060	0.123984
H184	H	0.890552	-0.289100	0.115557
H185	H	0.911172	-0.274943	0.201431
H186	H	0.804666	-0.218449	0.094906
C187	C	0.881849	0.321569	0.275585
H188	H	0.846784	0.299065	0.282934
H189	H	0.826158	0.369725	0.235630
H190	H	0.932673	0.313198	0.235632
C191	C	0.823124	-0.020323	0.182796
H192	H	0.788058	0.002181	0.217853
H193	H	0.767432	-0.011984	0.131992
H194	H	0.873933	-0.068478	0.238522
C195	C	0.528464	0.852092	-0.724244
H196	H	0.455894	0.886117	-0.779932
H197	H	0.568428	0.871991	-0.732690
H198	H	0.568376	0.815473	-0.732699
H199	H	1.112317	0.314308	0.519761
C200	C	1.129093	0.214501	0.724714
H201	H	1.164185	0.236991	0.717366
H202	H	1.078290	0.222864	0.764681
H203	H	1.184784	0.166342	0.764652
H204	H	0.749776	0.582745	-0.624266
H205	H	1.699475	0.221784	0.480489
C206	C	1.005923	0.905604	-0.701475
H207	H	0.962442	0.917146	-0.766730
H208	H	0.974434	0.945396	-0.701455
H209	H	1.080938	0.888873	-0.701471
H210	H	1.311439	0.314310	-0.106669
C211	C	1.528225	0.321569	0.123828
H212	H	1.455675	0.355603	0.115417
H213	H	1.568163	0.284947	0.201271
H214	H	1.568189	0.341468	0.094747
H215	H	0.386257	0.581231	-0.261259
C216	C	1.280923	0.321567	0.522895
H217	H	1.225211	0.355600	0.450336
H218	H	1.272486	0.284943	0.562840
H219	H	1.272506	0.341468	0.562855
C220	C	0.881828	0.321587	0.123788
H221	H	0.890250	0.355633	0.115339
H222	H	0.804391	0.341466	0.094713
H223	H	0.910883	0.284984	0.201252
C224	C	0.303984	0.905637	0.000396
H225	H	0.325765	0.917160	0.043910
H226	H	0.260505	0.945437	-0.074598
H227	H	0.260475	0.888918	0.031924
C228	C	1.180482	0.533284	-0.398799
H229	H	1.230075	0.533281	-0.441198
H230	H	1.146296	0.573246	-0.398942
H231	H	1.221594	0.493317	-0.323636
H232	H	0.311770	0.844809	-0.106463
C233	C	1.482685	0.214495	-0.123539
H234	H	1.405225	0.236986	-0.158571
H235	H	1.517733	0.222857	-0.179266
H236	H	1.517717	0.166337	-0.072731
H237	H	1.112310	0.314307	-0.106671
C238	C	1.707282	0.160923	0.000070
H239	H	1.685501	0.149392	-0.043431
H240	H	1.750801	0.177632	-0.031443
H241	H	1.750750	0.121120	0.075073
C242	C	0.649951	0.468497	-0.168009
H243	H	0.624302	0.441849	-0.163397
H244	H	0.673643	0.481817	-0.231820
H245	H	0.711299	0.441852	-0.101899
C246	C	0.483035	0.744968	-0.123318
H247	H	0.405574	0.767466	-0.158361
H248	H	0.518095	0.753320	-0.179036
H249	H	0.518053	0.696812	-0.072504
C250	C	0.730340	0.744966	-0.522396
H251	H	0.722995	0.767463	-0.599861
H252	H	0.770326	0.753315	-0.487334
H253	H	0.770254	0.696810	-0.487368
H254	H	1.699496	0.221750	0.106929
H255	H	1.112692	0.844747	-0.479955
H256	H	0.474318	0.483793	-0.162380
H257	H	1.112600	0.752231	-0.305596
H258	H	1.112376	0.221727	-0.106623
C259	C	0.483090	0.744952	-0.275056
H260	H	0.555648	0.710914	-0.219348
H261	H	0.443169	0.781569	-0.266609
H262	H	0.443119	0.725056	-0.266634
C263	C	0.281239	0.852058	-0.476889
H264	H	0.288582	0.829546	-0.399424
H265	H	0.241305	0.900211	-0.511912
H266	H	0.241274	0.843697	-0.511958
H267	H	0.331376	0.891068	-0.674030
H268	H	1.112543	-0.155164	-0.106518
C269	C	1.188225	-0.020327	-0.182200
H270	H	1.179819	-0.054378	-0.173755
H271	H	1.159170	0.016282	-0.259652
H272	H	1.265669	-0.040210	-0.153121
C273	C	1.129419	-0.255041	-0.123292
H274	H	1.121005	-0.289091	-0.114834
H275	H	1.100368	-0.218438	-0.200747
H276	H	1.206865	-0.274927	-0.094213
H277	H	0.744132	0.581216	-0.470761
C278	C	0.606623	0.533254	0.175120
H279	H	0.564226	0.533254	0.224715
H280	H	0.681775	0.493292	0.216222
H281	H	0.606483	0.573222	0.140930
