data_functionalizedCrystal
_audit_creation_method	'MofGen! by Chris Wilmer'
_symmetry_space_group_name_H-M	'P1'
_symmetry_Int_Tables_number	1
_symmetry_cell_setting	triclinic
loop_
_symmetry_equiv_pos_as_xyz
  x,y,z
_cell_length_a	13.032831
_cell_length_b	18.101396
_cell_length_c	13.032268
_cell_angle_alpha	97.146132
_cell_angle_beta	89.113023
_cell_angle_gamma	97.158357
loop_
_atom_site_label
_atom_site_type_symbol
_atom_site_fract_x
_atom_site_fract_y
_atom_site_fract_z
Zn1	Zn	1.498248	0.500110	0.780795
Zn2	Zn	1.748248	0.750110	1.030795
Zn3	Zn	1.998248	1.000110	1.280795
Zn4	Zn	2.248248	1.250110	1.530795
Zn5	Zn	1.519939	0.610443	0.608806
Zn6	Zn	1.769939	0.860443	0.858806
Zn7	Zn	2.019939	1.110443	1.108806
Zn8	Zn	2.269939	1.360443	1.358806
Zn9	Zn	1.348120	0.469175	0.587038
Zn10	Zn	1.598120	0.719175	0.837038
Zn11	Zn	1.848120	0.969175	1.087038
Zn12	Zn	2.098120	1.219175	1.337038
Zn13	Zn	1.326189	0.606439	0.758932
Zn14	Zn	1.576189	0.856439	1.008932
Zn15	Zn	1.826189	1.106439	1.258932
Zn16	Zn	2.076189	1.356439	1.508932
O17	O	1.423124	0.546542	0.683893
O18	O	1.673124	0.796542	0.933893
O19	O	1.923124	1.046542	1.183893
O20	O	2.173124	1.296542	1.433893
O21	O	1.645039	0.529368	0.776240
O22	O	1.895039	0.779368	1.026240
O23	O	2.145039	1.029368	1.276240
O24	O	2.395039	1.279368	1.526240
O25	O	1.515403	0.580432	0.462003
O26	O	1.765403	0.830432	0.712003
O27	O	2.015403	1.080432	0.962003
O28	O	2.265403	1.330432	1.212003
O29	O	1.368136	0.369658	0.612781
O30	O	1.618136	0.619658	0.862781
O31	O	1.868136	0.869658	1.112781
O32	O	2.118136	1.119658	1.362781
O33	O	1.660975	0.610429	0.649881
O34	O	1.910975	0.860429	0.899881
O35	O	2.160975	1.110429	1.149881
O36	O	2.410975	1.360429	1.399881
O37	O	1.478434	0.392386	0.755133
O38	O	1.728434	0.642386	1.005133
O39	O	1.978434	0.892386	1.255133
O40	O	2.228434	1.142386	1.505133
O41	O	1.389169	0.476643	0.446010
O42	O	1.639169	0.726643	0.696010
O43	O	1.889169	0.976643	0.946010
O44	O	2.139169	1.226643	1.196010
O45	O	1.201297	0.472761	0.591581
O46	O	1.451297	0.722761	0.841581
O47	O	1.701297	0.972761	1.091581
O48	O	1.951297	1.222761	1.341581
O49	O	1.330756	0.603605	0.905748
O50	O	1.580756	0.853605	1.155748
O51	O	1.830756	1.103605	1.405748
O52	O	2.080756	1.353605	1.655748
O53	O	1.185184	0.573608	0.717870
O54	O	1.435184	0.823608	0.967870
O55	O	1.685184	1.073608	1.217870
O56	O	1.935184	1.323608	1.467870
O57	O	1.457167	0.525486	0.921811
O58	O	1.707167	0.775486	1.171811
O59	O	1.957167	1.025486	1.421811
O60	O	2.207167	1.275486	1.671811
O61	O	1.494137	0.713532	0.628681
O62	O	1.744137	0.963532	0.878681
O63	O	1.994137	1.213532	1.128681
O64	O	2.244137	1.463532	1.378681
O65	O	1.351790	0.710590	0.738977
O66	O	1.601790	0.960590	0.988977
O67	O	1.851790	1.210590	1.238977
O68	O	2.101790	1.460590	1.488977
C69	C	1.155925	0.519394	0.649991
C70	C	1.405925	0.769394	0.899991
C71	C	1.655925	1.019394	1.149991
C72	C	1.905925	1.269394	1.399991
C73	C	1.041614	0.507800	0.635513
C74	C	1.291614	0.757800	0.885513
C75	C	1.541614	1.007800	1.135513
C76	C	1.791614	1.257800	1.385513
C77	C	0.982717	0.552593	0.691449
C78	C	1.232717	0.802593	0.941449
C79	C	1.482717	1.052593	1.191449
C80	C	1.732717	1.302593	1.441449
C81	C	0.864569	0.540611	0.676486
C82	C	1.114569	0.790611	0.926486
C83	C	1.364569	1.040611	1.176486
C84	C	1.614569	1.290611	1.426486
C85	C	1.422962	0.738933	0.683845
C86	C	1.672962	0.988933	0.933845
C87	C	1.922962	1.238933	1.183845
C88	C	2.172962	1.488933	1.433845
C89	C	1.422983	0.821251	0.683870
C90	C	1.672983	1.071251	0.933870
C91	C	1.922983	1.321251	1.183870
C92	C	2.172983	1.571251	1.433870
C93	C	1.423158	1.120366	0.683953
C94	C	1.673158	1.370366	0.933953
C95	C	1.923158	1.620366	1.183953
C96	C	2.173158	1.870366	1.433953
C97	C	1.333760	1.087255	0.753570
C98	C	1.583760	1.337255	1.003570
C99	C	1.833760	1.587255	1.253570
C100	C	2.083760	1.837255	1.503570
C101	C	1.333428	1.001580	0.753273
C102	C	1.583428	1.251580	1.003273
C103	C	1.833428	1.501580	1.253273
C104	C	2.083428	1.751580	1.503273
C105	C	1.423071	0.971972	0.683913
C106	C	1.673071	1.221972	0.933913
C107	C	1.923071	1.471972	1.183913
C108	C	2.173071	1.721972	1.433913
C109	C	1.407497	0.991635	0.571808
C110	C	1.657497	1.241635	0.821808
C111	C	1.907497	1.491635	1.071808
C112	C	2.157497	1.741635	1.321808
C113	C	1.406913	1.077265	0.572220
C114	C	1.656913	1.327265	0.822220
C115	C	1.906913	1.577265	1.072220
C116	C	2.156913	1.827265	1.322220
C117	C	1.528428	1.101936	0.725510
C118	C	1.778428	1.351936	0.975510
C119	C	2.028428	1.601936	1.225510
C120	C	2.278428	1.851936	1.475510
C121	C	1.527499	1.016408	0.727806
C122	C	1.777499	1.266408	0.977806
C123	C	2.027499	1.516408	1.227806
C124	C	2.277499	1.766408	1.477806
C125	C	1.423024	0.888105	0.683884
C126	C	1.673024	1.138105	0.933884
C127	C	1.923024	1.388105	1.183884
C128	C	2.173024	1.638105	1.433884
C129	C	1.423203	1.204231	0.683975
C130	C	1.673203	1.454231	0.933975
C131	C	1.923203	1.704231	1.183975
C132	C	2.173203	1.954231	1.433975
C133	C	1.691366	0.573796	0.717927
C134	C	1.941366	0.823796	0.967927
C135	C	2.191366	1.073796	1.217927
C136	C	2.441366	1.323796	1.467927
C137	C	1.805674	0.585410	0.732431
C138	C	2.055674	0.835410	0.982431
C139	C	2.305674	1.085410	1.232431
C140	C	2.555674	1.335410	1.482431
C141	C	1.389096	0.567549	0.952138
C142	C	1.639096	0.817549	1.202138
C143	C	1.889096	1.067549	1.452138
C144	C	2.139096	1.317549	1.702138
C145	C	1.374595	0.576502	1.066449
C146	C	1.624595	0.826502	1.316449
C147	C	1.874595	1.076502	1.566449
C148	C	2.124595	1.326502	1.816449
C149	C	1.423275	1.353400	0.683967
C150	C	1.673275	1.603400	0.933967
C151	C	1.923275	1.853400	1.183967
C152	C	2.173275	2.103400	1.433967
C153	C	1.423246	1.271086	0.683996
C154	C	1.673246	1.521086	0.933996
C155	C	1.923246	1.771086	1.183996
C156	C	2.173246	2.021086	1.433996
C157	C	1.457079	0.525568	0.416698
C158	C	1.707079	0.775568	0.666698
C159	C	1.957079	1.025568	0.916698
C160	C	2.207079	1.275568	1.166698
C161	C	1.471779	0.516427	0.302414
C162	C	1.721779	0.766427	0.552414
C163	C	1.971779	1.016427	0.802414
C164	C	2.221779	1.266427	1.052414
C165	C	1.430676	0.541841	1.125359
C166	C	1.680676	0.791841	1.375359
C167	C	1.930676	1.041841	1.625359
C168	C	2.180676	1.291841	1.875359
C169	C	1.415690	0.551093	1.243505
C170	C	1.665690	0.801093	1.493505
C171	C	1.915690	1.051093	1.743505
C172	C	2.165690	1.301093	1.993505
H173	H	1.004569	0.460577	0.576550
H174	H	1.254569	0.710577	0.826550
H175	H	1.504569	0.960577	1.076550
H176	H	1.754569	1.210577	1.326550
Cl177	Cl	1.505808	0.961565	0.488607
Cl178	Cl	1.755808	1.211565	0.738607
Cl179	Cl	2.005808	1.461565	0.988607
Cl180	Cl	2.255808	1.711565	1.238607
Cl181	Cl	1.212536	0.955173	0.709100
Cl182	Cl	1.462536	1.205173	0.959100
Cl183	Cl	1.712536	1.455173	1.209100
Cl184	Cl	1.962536	1.705173	1.459100
H185	H	1.530885	0.479896	1.265388
H186	H	1.780885	0.729896	1.515388
H187	H	2.030885	0.979896	1.765388
H188	H	2.280885	1.229896	2.015388
Cl189	Cl	1.283329	0.632889	1.123612
Cl190	Cl	1.533329	0.882889	1.373612
Cl191	Cl	1.783329	1.132889	1.623612
Cl192	Cl	2.033329	1.382889	1.873612
H193	H	1.596529	0.997087	0.681894
H194	H	1.846529	1.247087	0.931894
H195	H	2.096529	1.497087	1.181894
H196	H	2.346529	1.747087	1.431894
Cl197	Cl	1.039901	0.625502	0.782489
Cl198	Cl	1.289901	0.875502	1.032489
Cl199	Cl	1.539901	1.125502	1.282489
Cl200	Cl	1.789901	1.375502	1.532489
Cl201	Cl	0.807389	0.467697	0.585444
Cl202	Cl	1.057389	0.717697	0.835444
Cl203	Cl	1.307389	0.967697	1.085444
Cl204	Cl	1.557389	1.217697	1.335444
H205	H	1.356572	0.587614	1.280531
H206	H	1.606572	0.837614	1.530531
H207	H	1.856572	1.087614	1.780531
H208	H	2.106572	1.337614	2.030531
H209	H	1.341687	1.115977	0.836500
H210	H	1.591687	1.365977	1.086500
H211	H	1.841687	1.615977	1.336500
H212	H	2.091687	1.865977	1.586500
H213	H	0.842712	0.632629	0.791408
H214	H	1.092712	0.882629	1.041408
H215	H	1.342712	1.132629	1.291408
H216	H	1.592712	1.382629	1.541408
H217	H	1.331858	0.960382	0.537893
H218	H	1.581858	1.210382	0.787893
H219	H	1.831858	1.460382	1.037893
H220	H	2.081858	1.710382	1.287893
H221	H	1.341576	0.988689	0.835967
H222	H	1.591576	1.238689	1.085967
H223	H	1.841576	1.488689	1.335967
H224	H	2.091576	1.738689	1.585967
H225	H	1.330371	1.087386	0.538619
H226	H	1.580371	1.337386	0.788619
H227	H	1.830371	1.587386	1.038619
H228	H	2.080371	1.837386	1.288619
Cl229	Cl	1.504222	1.110473	0.488254
Cl230	Cl	1.754222	1.360473	0.738254
Cl231	Cl	2.004222	1.610473	0.988254
Cl232	Cl	2.254222	1.860473	1.238254
Cl233	Cl	1.213572	1.105834	0.709869
Cl234	Cl	1.463572	1.355834	0.959869
Cl235	Cl	1.713572	1.605834	1.209869
Cl236	Cl	1.963572	1.855834	1.459869
H237	H	1.545304	1.132298	0.806588
H238	H	1.795304	1.382298	1.056588
H239	H	2.045304	1.632298	1.306588
H240	H	2.295304	1.882298	1.556588
H241	H	1.539492	1.004553	0.810376
H242	H	1.789492	1.254553	1.060376
H243	H	2.039492	1.504553	1.310376
H244	H	2.289492	1.754553	1.560376
H245	H	1.489779	0.505314	1.088328
H246	H	1.739779	0.755314	1.338328
H247	H	1.989779	1.005314	1.588328
H248	H	2.239779	1.255314	1.838328
Cl249	Cl	1.631002	1.135444	0.647504
Cl250	Cl	1.881002	1.385444	0.897504
Cl251	Cl	2.131002	1.635444	1.147504
Cl252	Cl	2.381002	1.885444	1.397504
