data_functionalizedCrystal
_audit_creation_method	'MofGen! by Chris Wilmer'
_symmetry_space_group_name_H-M	'P1'
_symmetry_Int_Tables_number	1
_symmetry_cell_setting	triclinic
loop_
_symmetry_equiv_pos_as_xyz
  x,y,z
_cell_length_a	29.839134
_cell_length_b	29.839131
_cell_length_c	29.839125
_cell_angle_alpha	89.982291
_cell_angle_beta	89.978020
_cell_angle_gamma	90.036281
loop_
_atom_site_label
_atom_site_type_symbol
_atom_site_fract_x
_atom_site_fract_y
_atom_site_fract_z
Zn1	Zn	0.686720	-0.178978	-0.254125
Zn2	Zn	1.186720	0.321022	0.245875
Zn3	Zn	0.686652	-0.254090	-0.178995
Zn4	Zn	1.186652	0.245910	0.321005
Zn5	Zn	0.611602	-0.178968	-0.178995
Zn6	Zn	1.111602	0.321032	0.321005
Zn7	Zn	0.611550	-0.254075	-0.254083
Zn8	Zn	1.111550	0.245925	0.245917
O9	O	0.649131	-0.216528	-0.216549
O10	O	1.149131	0.283472	0.283451
O11	O	0.749578	-0.188952	-0.244176
O12	O	1.249578	0.311048	0.255824
O13	O	0.676690	-0.244127	-0.116128
O14	O	1.176690	0.255873	0.383872
O15	O	0.621617	-0.116102	-0.188978
O16	O	1.121617	0.383898	0.311022
O17	O	0.749528	-0.244137	-0.188979
O18	O	1.249528	0.255863	0.311021
O19	O	0.676805	-0.116109	-0.244176
O20	O	1.176805	0.383891	0.255824
O21	O	0.621551	-0.188935	-0.116127
O22	O	1.121551	0.311065	0.383873
O23	O	0.548728	-0.188921	-0.188938
O24	O	1.048728	0.311079	0.311062
O25	O	0.621528	-0.244111	-0.316956
O26	O	1.121528	0.255889	0.183044
O27	O	0.548690	-0.244101	-0.244105
O28	O	1.048690	0.255899	0.255895
O29	O	0.676755	-0.188937	-0.316987
O30	O	1.176755	0.311063	0.183013
O31	O	0.676639	-0.316955	-0.188938
O32	O	1.176639	0.183045	0.311062
O33	O	0.621462	-0.316944	-0.244105
O34	O	1.121462	0.183056	0.255895
C35	C	0.532408	-0.216509	-0.216517
C36	C	1.032408	0.283491	0.283483
C37	C	0.482474	-0.216511	-0.216514
C38	C	0.982474	0.283489	0.283486
C39	C	0.172820	-0.245303	-0.245240
C40	C	0.672820	0.254697	0.254760
C41	C	-0.014853	-0.245315	-0.245260
C42	C	0.485147	0.254685	0.254740
O43	O	-0.039127	-0.269774	-0.269665
O44	O	0.460873	0.230226	0.230335
N45	N	-0.038311	-0.216544	-0.216583
N46	N	0.461689	0.283456	0.283417
C47	C	-0.014848	-0.187766	-0.187902
C48	C	0.485152	0.312234	0.312098
O49	O	-0.039107	-0.163291	-0.163514
O50	O	0.460893	0.336709	0.336486
C51	C	0.172824	-0.187751	-0.187884
C52	C	0.672824	0.312249	0.312116
C53	C	0.196280	-0.216527	-0.216560
C54	C	0.696280	0.283473	0.283440
C55	C	0.196276	-0.274076	-0.273913
C56	C	0.696276	0.225924	0.226087
C57	C	0.243191	-0.274075	-0.273906
C58	C	0.743191	0.225925	0.226094
C59	C	0.266651	-0.245299	-0.245226
C60	C	0.766651	0.254701	0.254774
C61	C	0.243195	-0.216526	-0.216553
C62	C	0.743195	0.283474	0.283447
C63	C	0.196286	-0.158971	-0.159205
C64	C	0.696286	0.341029	0.340795
C65	C	0.243207	-0.158969	-0.159204
C66	C	0.743207	0.341031	0.340796
C67	C	0.266663	-0.187745	-0.187880
C68	C	0.766663	0.312255	0.312120
C69	C	0.313570	-0.187749	-0.187865
C70	C	0.813570	0.312251	0.312135
N71	N	0.337029	-0.216520	-0.216542
N72	N	0.837029	0.283480	0.283458
C73	C	0.313569	-0.245295	-0.245222
C74	C	0.813569	0.254705	0.254778
C75	C	-0.113379	-0.187776	-0.187912
C76	C	0.386621	0.312224	0.312088
C77	C	-0.160297	-0.187780	-0.187916
C78	C	0.339703	0.312220	0.312084
C79	C	-0.160298	-0.245329	-0.245275
C80	C	0.339702	0.254671	0.254725
C81	C	-0.113380	-0.245327	-0.245269
C82	C	0.386620	0.254673	0.254731
C83	C	-0.089921	-0.216547	-0.216589
C84	C	0.410079	0.283453	0.283411
C85	C	0.412095	-0.245290	-0.245205
C86	C	0.912095	0.254710	0.254795
C87	C	0.459014	-0.245287	-0.245194
C88	C	0.959014	0.254713	0.254806
C89	C	0.459012	-0.187736	-0.187837
C90	C	0.959012	0.312264	0.312163
C91	C	0.412096	-0.187740	-0.187846
C92	C	0.912096	0.312260	0.312154
C93	C	0.388639	-0.216519	-0.216534
C94	C	0.888639	0.283481	0.283466
O95	O	0.337873	-0.163299	-0.163477
O96	O	0.837873	0.336701	0.336523
O97	O	0.337836	-0.269759	-0.269613
O98	O	0.837836	0.230241	0.230387
C99	C	0.125905	-0.245304	-0.245247
C100	C	0.625905	0.254696	0.254753
C101	C	0.102449	-0.216531	-0.216574
C102	C	0.602449	0.283469	0.283426
C103	C	0.125909	-0.187755	-0.187893
C104	C	0.625909	0.312245	0.312107
C105	C	0.055531	-0.216535	-0.216577
C106	C	0.555531	0.283465	0.283423
C107	C	0.032071	-0.245310	-0.245258
C108	C	0.532071	0.254690	0.254742
C109	C	0.055529	-0.274082	-0.273934
C110	C	0.555529	0.225918	0.226066
C111	C	0.102445	-0.274080	-0.273927
C112	C	0.602445	0.225920	0.226073
C113	C	0.102451	-0.158984	-0.159217
C114	C	0.602451	0.341016	0.340783
C115	C	0.055535	-0.158989	-0.159226
C116	C	0.555535	0.341011	0.340774
C117	C	0.032075	-0.187764	-0.187906
C118	C	0.532075	0.312236	0.312094
C119	C	0.649050	-0.333250	-0.216527
C120	C	1.149050	0.166750	0.283473
C121	C	0.649056	-0.383185	-0.216533
C122	C	1.149056	0.116815	0.283467
C123	C	0.677914	-0.692821	-0.187866
C124	C	1.177914	-0.192821	0.312134
C125	C	0.677969	-0.880494	-0.187883
C126	C	1.177969	-0.380494	0.312117
O127	O	0.702441	-0.904753	-0.163493
O128	O	1.202441	-0.404753	0.336507
N129	N	0.649224	-0.903970	-0.216583
N130	N	1.149224	-0.403970	0.283417
C131	C	0.620465	-0.880524	-0.245283
C132	C	1.120465	-0.380524	0.254717
O133	O	0.596020	-0.904798	-0.269698
O134	O	1.096020	-0.404798	0.230302
C135	C	0.620412	-0.692852	-0.245268
C136	C	1.120412	-0.192852	0.254732
C137	C	0.649156	-0.669379	-0.216563
C138	C	1.149156	-0.169379	0.283437
C139	C	0.706656	-0.669348	-0.159164
C140	C	1.206656	-0.169348	0.340836
C141	C	0.706640	-0.622433	-0.159158
C142	C	1.206640	-0.122433	0.340842
C143	C	0.677882	-0.598990	-0.187854
C144	C	1.177882	-0.098990	0.312146
C145	C	0.649140	-0.622463	-0.216557
C146	C	1.149140	-0.122463	0.283443
C147	C	0.591656	-0.669407	-0.273969
C148	C	1.091656	-0.169407	0.226031
C149	C	0.591646	-0.622486	-0.273964
C150	C	1.091646	-0.122486	0.226036
C151	C	0.620390	-0.599013	-0.245259
C152	C	1.120390	-0.099013	0.254741
C153	C	0.620367	-0.552106	-0.245248
C154	C	1.120367	-0.052106	0.254752
N155	N	0.649112	-0.528630	-0.216548
N156	N	1.149112	-0.028630	0.283452
C157	C	0.677869	-0.552072	-0.187851
C158	C	1.177869	-0.052072	0.312149
C159	C	0.620494	-0.979055	-0.245289
C160	C	1.120494	-0.479055	0.254711
C161	C	0.620507	-1.025973	-0.245292
C162	C	1.120507	-0.525973	0.254708
C163	C	0.678012	-1.025939	-0.187893
C164	C	1.178012	-0.525939	0.312107
C165	C	0.677996	-0.979021	-0.187887
C166	C	1.177996	-0.479021	0.312113
C167	C	0.649239	-0.955579	-0.216589
C168	C	1.149239	-0.455579	0.283411
C169	C	0.677834	-0.453547	-0.187841
C170	C	1.177834	0.046453	0.312159
C171	C	0.677814	-0.406627	-0.187836
C172	C	1.177814	0.093373	0.312164
C173	C	0.620311	-0.406664	-0.245237
C174	C	1.120311	0.093336	0.254763
C175	C	0.620329	-0.453580	-0.245240
C176	C	1.120329	0.046420	0.254760
C177	C	0.649094	-0.477020	-0.216540
C178	C	1.149094	0.022980	0.283460
O179	O	0.595912	-0.527818	-0.269629
O180	O	1.095912	-0.027818	0.230371
O181	O	0.702318	-0.527791	-0.163447
O182	O	1.202318	-0.027791	0.336553
C183	C	0.677930	-0.739737	-0.187872
C184	C	1.177930	-0.239737	0.312128
C185	C	0.649188	-0.763210	-0.216574
C186	C	1.149188	-0.263210	0.283426
C187	C	0.620430	-0.739767	-0.245271
C188	C	1.120430	-0.239767	0.254729
C189	C	0.649200	-0.810128	-0.216578
C190	C	1.149200	-0.310128	0.283422
C191	C	0.677958	-0.833570	-0.187881
C192	C	1.177958	-0.333570	0.312119
C193	C	0.706703	-0.810094	-0.159181
C194	C	1.206703	-0.310094	0.340819
C195	C	0.706687	-0.763179	-0.159175
C196	C	1.206687	-0.263179	0.340825
C197	C	0.591685	-0.763243	-0.273971
C198	C	1.091685	-0.263243	0.226029
C199	C	0.591703	-0.810158	-0.273974
C200	C	1.091703	-0.310158	0.226026
C201	C	0.620461	-0.833601	-0.245277
C202	C	1.120461	-0.333601	0.254723
C203	C	0.766309	-0.216547	-0.216582
C204	C	1.266309	0.283453	0.283418
C205	C	0.816244	-0.216555	-0.216596
C206	C	1.316244	0.283445	0.283404
C207	C	0.649143	-0.216524	-0.333728
C208	C	1.149143	0.283476	0.166272
C209	C	0.649148	-0.216522	-0.383662
C210	C	1.149148	0.283478	0.116338
C211	C	0.649225	-0.099349	-0.216582
C212	C	1.149225	0.400651	0.283418
C213	C	0.649265	-0.049415	-0.216595
C214	C	1.149265	0.450585	0.283405
C215	C	0.677935	-0.187718	-0.693325
C216	C	1.177935	0.312282	-0.193325
C217	C	0.677957	-0.187680	-0.880998
C218	C	1.177957	0.312320	-0.380998
O219	O	0.702399	-0.163232	-0.905279
O220	O	1.202399	0.336768	-0.405279
N221	N	0.649208	-0.216402	-0.904448
N222	N	1.149208	0.283598	-0.404448
C223	C	0.620449	-0.245133	-0.880976
C224	C	1.120449	0.254867	-0.380976
O225	O	0.595993	-0.269559	-0.905228
O226	O	1.095993	0.230441	-0.405228
C227	C	0.620424	-0.245169	-0.693304
C228	C	1.120424	0.254831	-0.193304
C229	C	0.649179	-0.216448	-0.669857
C230	C	1.149179	0.283552	-0.169857
C231	C	0.706687	-0.158999	-0.669877
C232	C	1.206687	0.341001	-0.169877
C233	C	0.706683	-0.159011	-0.622962
C234	C	1.206683	0.340989	-0.122962
C235	C	0.677927	-0.187741	-0.599494
C236	C	1.177927	0.312259	-0.099494
C237	C	0.649175	-0.216460	-0.622941
C238	C	1.149175	0.283540	-0.122941
C239	C	0.591663	-0.273898	-0.669833
C240	C	1.091663	0.226102	-0.169833
C241	C	0.591659	-0.273903	-0.622912
C242	C	1.091659	0.226097	-0.122912
C243	C	0.620414	-0.245183	-0.599465
C244	C	1.120414	0.254817	-0.099465
C245	C	0.620415	-0.245202	-0.552558
C246	C	1.120415	0.254798	-0.052558
N247	N	0.649164	-0.216480	-0.529108
N248	N	1.149164	0.283520	-0.029108
C249	C	0.677920	-0.187749	-0.552576
C250	C	1.177920	0.312251	-0.052576
C251	C	0.620464	-0.245113	-0.979507
C252	C	1.120464	0.254887	-0.479507
C253	C	0.620471	-0.245105	-1.026425
C254	C	1.120471	0.254895	-0.526425
C255	C	0.677979	-0.187650	-1.026443
C256	C	1.177979	0.312350	-0.526443
C257	C	0.677974	-0.187661	-0.979524
C258	C	1.177974	0.312339	-0.479524
C259	C	0.649214	-0.216391	-0.956057
C260	C	1.149214	0.283609	-0.456057
C261	C	0.677910	-0.187776	-0.454050
C262	C	1.177910	0.312224	0.045950
C263	C	0.677904	-0.187792	-0.407130
C264	C	1.177904	0.312208	0.092870
C265	C	0.620395	-0.245244	-0.407116
C266	C	1.120395	0.254756	0.092884
C267	C	0.620401	-0.245230	-0.454032
C268	C	1.120401	0.254770	0.045968
C269	C	0.649161	-0.216493	-0.477497
C270	C	1.149161	0.283507	0.022503
O271	O	0.595982	-0.269633	-0.528248
O272	O	1.095982	0.230367	-0.028248
O273	O	0.702366	-0.163320	-0.528316
O274	O	1.202366	0.336680	-0.028316
C275	C	0.677939	-0.187706	-0.740240
C276	C	1.177939	0.312294	-0.240240
C277	C	0.649187	-0.216425	-0.763688
C278	C	1.149187	0.283575	-0.263688
C279	C	0.620431	-0.245155	-0.740219
C280	C	1.120431	0.254845	-0.240219
C281	C	0.649194	-0.216417	-0.810605
C282	C	1.149194	0.283583	-0.310605
C283	C	0.677950	-0.187686	-0.834074
C284	C	1.177950	0.312314	-0.334074
C285	C	0.706699	-0.158964	-0.810624
C286	C	1.206699	0.341036	-0.310624
C287	C	0.706695	-0.158976	-0.763708
C288	C	1.206695	0.341024	-0.263708
C289	C	0.591682	-0.273877	-0.763669
C290	C	1.091682	0.226123	-0.263669
C291	C	0.591689	-0.273864	-0.810585
C292	C	1.091689	0.226136	-0.310585
C293	C	0.620445	-0.245133	-0.834053
C294	C	1.120445	0.254867	-0.334053
C295	C	0.649145	-0.216499	-0.099827
C296	C	1.149145	0.283501	0.400173
C297	C	0.649227	-0.216374	-0.049893
C298	C	1.149227	0.283626	0.450107
H299	H	0.262305	-0.135529	-0.135852
H300	H	0.762305	0.364471	0.364148
O301	O	0.389291	-0.273181	-0.273118
O302	O	0.889291	0.226819	0.226882
C303	C	0.336333	-0.279330	-0.333754
C304	C	0.836333	0.220670	0.166246
C305	C	0.362138	-0.247690	-0.302182
C306	C	0.862138	0.252310	0.197818
H307	H	0.314366	-0.258734	-0.357254
H308	H	0.814366	0.241266	0.142746
H309	H	0.361141	-0.299886	-0.354277
H310	H	0.861141	0.200114	0.145723
H311	H	0.314363	-0.302800	-0.313079
H312	H	0.814363	0.197200	0.186921
H313	H	0.384108	-0.224193	-0.322822
H314	H	0.884108	0.275807	0.177178
H315	H	0.337305	-0.227166	-0.281657
H316	H	0.837305	0.272834	0.218343
O317	O	0.481848	-0.273177	-0.273075
O318	O	0.981848	0.226823	0.226925
C319	C	0.534822	-0.279310	-0.333733
C320	C	1.034822	0.220690	0.166267
C321	C	0.509002	-0.247676	-0.302180
C322	C	1.009002	0.252324	0.197820
H323	H	0.556775	-0.258704	-0.357278
H324	H	1.056775	0.241296	0.142722
H325	H	0.556793	-0.302763	-0.313089
H326	H	1.056793	0.197237	0.186911
H327	H	0.509983	-0.299884	-0.354212
H328	H	1.009983	0.200116	0.145788
H329	H	0.533808	-0.227073	-0.281694
H330	H	1.033808	0.272927	0.218306
H331	H	0.487024	-0.224252	-0.322850
H332	H	0.987024	0.275748	0.177150
H333	H	0.036441	-0.135556	-0.135871
H334	H	0.536441	0.364444	0.364129
H335	H	0.730076	-0.688430	-0.135795
H336	H	1.230076	-0.188430	0.364205
H337	H	0.568233	-0.297294	-0.603808
H338	H	1.068233	0.202706	-0.103808
O339	O	0.592645	-1.048820	-0.273195
O340	O	1.092645	-0.548820	0.226805
C341	C	0.586573	-1.101746	-0.333872
C342	C	1.086573	-0.601746	0.166128
C343	C	0.618175	-1.075909	-0.302289
C344	C	1.118175	-0.575909	0.197711
H345	H	0.607202	-1.123646	-0.357408
H346	H	1.107202	-0.623646	0.142592
H347	H	0.563107	-1.123772	-0.313251
H348	H	1.063107	-0.623772	0.186749
H349	H	0.566010	-1.076918	-0.354360
H350	H	1.066010	-0.576918	0.145640
H351	H	0.638767	-1.100705	-0.281794
H352	H	1.138767	-0.600705	0.218206
H353	H	0.641611	-1.053876	-0.322936
H354	H	1.141611	-0.553876	0.177064
O355	O	0.032715	-0.301969	-0.301843
O356	O	0.532715	0.198031	0.198157
C357	C	-0.020258	-0.308094	-0.362469
C358	C	0.479742	0.191906	0.137531
C359	C	0.005562	-0.276466	-0.330898
C360	C	0.505562	0.223534	0.169102
H361	H	-0.042224	-0.287489	-0.385961
H362	H	0.457776	0.212511	0.114039
H363	H	0.004541	-0.328654	-0.383001
H364	H	0.504541	0.171346	0.116999
H365	H	-0.042229	-0.331562	-0.341793
H366	H	0.457771	0.168438	0.158207
H367	H	0.027535	-0.252972	-0.351539
H368	H	0.527535	0.247028	0.148461
H369	H	-0.019260	-0.255938	-0.310365
H370	H	0.480740	0.244062	0.189635
O371	O	0.592479	-0.272961	-0.956693
O372	O	1.092479	0.227039	-0.456693
C373	C	0.531827	-0.279014	-0.903690
C374	C	1.031827	0.220986	-0.403690
C375	C	0.563482	-0.247424	-0.929505
C376	C	1.063482	0.252576	-0.429505
H377	H	0.508381	-0.258382	-0.881696
H378	H	1.008381	0.241618	-0.381696
H379	H	0.511250	-0.299532	-0.928493
H380	H	1.011250	0.200468	-0.428493
H381	H	0.552440	-0.302522	-0.881747
H382	H	1.052440	0.197478	-0.381747
H383	H	0.542904	-0.223890	-0.951449
H384	H	1.042904	0.276110	-0.451449
H385	H	0.584060	-0.226938	-0.904679
H386	H	1.084060	0.273062	-0.404679
H387	H	0.730115	-0.135573	-0.829740
H388	H	1.230115	0.364427	-0.329740
H389	H	0.568265	-0.297274	-0.744566
H390	H	1.068265	0.202726	-0.244566
O391	O	0.125247	-0.302078	-0.301721
O392	O	0.625247	0.197922	0.198279
C393	C	0.178201	-0.362724	-0.307661
C394	C	0.678201	0.137276	0.192339
C395	C	0.152402	-0.331051	-0.276130
C396	C	0.652402	0.168949	0.223870
H397	H	0.200170	-0.386151	-0.286984
H398	H	0.700170	0.113849	0.213016
H399	H	0.153389	-0.383321	-0.328151
H400	H	0.653389	0.116679	0.171849
H401	H	0.200169	-0.342123	-0.331198
H402	H	0.700169	0.157877	0.168802
H403	H	0.130434	-0.351617	-0.252567
H404	H	0.630434	0.148383	0.247433
H405	H	0.177239	-0.310453	-0.255672
H406	H	0.677239	0.189547	0.244328
H407	H	-0.094285	-0.268759	-0.268619
H408	H	0.405715	0.231241	0.231381
H409	H	-0.179407	-0.268759	-0.268628
H410	H	0.320593	0.231241	0.231372
H411	H	0.262285	-0.297506	-0.297258
H412	H	0.762285	0.202494	0.202742
O413	O	0.173541	-0.302011	-0.301837
O414	O	0.673541	0.197989	0.198163
C415	C	0.159202	-0.323928	-0.378217
C416	C	0.659202	0.176072	0.121783
C417	C	0.184980	-0.292266	-0.346646
C418	C	0.684980	0.207734	0.153354
H419	H	0.168434	-0.316055	-0.414452
H420	H	0.668434	0.183945	0.085548
H421	H	0.168419	-0.360145	-0.370293
H422	H	0.668419	0.139855	0.129707
H423	H	0.121640	-0.319004	-0.373277
H424	H	0.621640	0.180996	0.126723
H425	H	0.222548	-0.297151	-0.351568
H426	H	0.722548	0.202849	0.148432
H427	H	0.175726	-0.256061	-0.354577
H428	H	0.675726	0.243939	0.145423
O429	O	0.592403	-0.383935	-0.273177
O430	O	1.092403	0.116065	0.226823
C431	C	0.570576	-0.369537	-0.349575
C432	C	1.070576	0.130463	0.150425
C433	C	0.602196	-0.395316	-0.317979
C434	C	1.102196	0.104684	0.182021
H435	H	0.578488	-0.378721	-0.385805
H436	H	1.078488	0.121279	0.114195
H437	H	0.534348	-0.378800	-0.341693
H438	H	1.034348	0.121200	0.158307
H439	H	0.575502	-0.331975	-0.344615
H440	H	1.075502	0.168025	0.155385
H441	H	0.597310	-0.432883	-0.322922
H442	H	1.097310	0.067117	0.177078
H443	H	0.638413	-0.386015	-0.325869
H444	H	1.138413	0.113985	0.174131
O445	O	0.592357	-0.476403	-0.273056
O446	O	1.092357	0.023597	0.226944
C447	C	0.531734	-0.529451	-0.279049
C448	C	1.031734	-0.029451	0.220951
C449	C	0.563374	-0.503629	-0.247491
C450	C	1.063374	-0.003629	0.252509
H451	H	0.508300	-0.551476	-0.258392
H452	H	1.008300	-0.051476	0.241608
H453	H	0.511144	-0.504653	-0.299548
H454	H	1.011144	-0.004653	0.200452
H455	H	0.552360	-0.551363	-0.302576
H456	H	1.052360	-0.051363	0.197424
H457	H	0.542783	-0.481715	-0.223937
H458	H	1.042783	0.018285	0.276063
H459	H	0.583965	-0.528450	-0.227024
H460	H	1.083965	-0.028450	0.272976
H461	H	0.701427	-1.045034	-0.164527
H462	H	1.201427	-0.545034	0.335473
O463	O	-0.183009	-0.159788	-0.160043
O464	O	0.316991	0.340212	0.339957
C465	C	-0.178043	-0.102724	-0.103134
C466	C	0.321957	0.397276	0.396866
C467	C	-0.152267	-0.134398	-0.134683
C468	C	0.347733	0.365602	0.365317
H469	H	-0.153199	-0.082195	-0.082615
H470	H	0.346801	0.417805	0.417385
H471	H	-0.199973	-0.079235	-0.123781
H472	H	0.300027	0.420765	0.376219
H473	H	-0.200043	-0.123321	-0.079625
H474	H	0.299957	0.376679	0.420375
H475	H	-0.130242	-0.113838	-0.158198
H476	H	0.369758	0.386162	0.341802
H477	H	-0.130366	-0.157889	-0.114007
H478	H	0.369634	0.342111	0.385993
H479	H	0.568274	-0.297256	-0.829671
H480	H	1.068274	0.202744	-0.329671
H481	H	0.701321	-0.164403	-0.388042
H482	H	1.201321	0.335597	0.111958
O483	O	0.705696	-0.383756	-0.159966
O484	O	1.205696	0.116244	0.340034
C485	C	0.731180	-0.311466	-0.134533
C486	C	1.231180	0.188534	0.365467
C487	C	0.699575	-0.337308	-0.166109
C488	C	1.199575	0.162692	0.333891
H489	H	0.726249	-0.273908	-0.139496
H490	H	1.226249	0.226092	0.360504
H491	H	0.723318	-0.320682	-0.098291
H492	H	1.223318	0.179318	0.401709
H493	H	0.767397	-0.320681	-0.142459
H494	H	1.267397	0.179319	0.357541
H495	H	0.663347	-0.328108	-0.158224
H496	H	1.163347	0.171892	0.341776
H497	H	0.707474	-0.328090	-0.202342
H498	H	1.207474	0.171910	0.297658
H499	H	0.701327	-0.164374	-0.473150
H500	H	1.201327	0.335626	0.026850
O501	O	0.734640	-0.131032	-0.741004
O502	O	1.234640	0.368968	-0.241004
C503	C	0.791698	-0.074064	-0.745992
C504	C	1.291698	0.425936	-0.245992
C505	C	0.760066	-0.105682	-0.771756
C506	C	1.260066	0.394318	-0.271756
H507	H	0.812270	-0.053567	-0.770843
H508	H	1.312270	0.446433	-0.270843
H509	H	0.771113	-0.050541	-0.724037
H510	H	1.271113	0.449459	-0.224037
H511	H	0.815154	-0.094702	-0.724018
H512	H	1.315154	0.405298	-0.224018
H513	H	0.736604	-0.085080	-0.793754
H514	H	1.236604	0.414920	-0.293754
H515	H	0.780679	-0.129206	-0.793683
H516	H	1.280679	0.370794	-0.293683
O517	O	0.563690	-0.692223	-0.301793
O518	O	1.063690	-0.192223	0.198207
C519	C	0.503064	-0.745265	-0.307799
C520	C	1.003064	-0.245265	0.192201
C521	C	0.534700	-0.719447	-0.276234
C522	C	1.034700	-0.219447	0.223766
H523	H	0.479624	-0.767288	-0.287148
H524	H	0.979624	-0.267288	0.212852
H525	H	0.482480	-0.720465	-0.328301
H526	H	0.982480	-0.220465	0.171699
H527	H	0.523693	-0.767179	-0.331323
H528	H	1.023693	-0.267179	0.168677
H529	H	0.514105	-0.697532	-0.252683
H530	H	1.014105	-0.197532	0.247317
H531	H	0.555285	-0.744271	-0.255763
H532	H	1.055285	-0.244271	0.244237
H533	H	0.177197	-0.135539	-0.135854
H534	H	0.677197	0.364461	0.364146
O535	O	0.734654	-0.740450	-0.131279
O536	O	1.234654	-0.240450	0.368721
C537	C	0.791672	-0.745387	-0.074329
C538	C	1.291672	-0.245387	0.425671
C539	C	0.760028	-0.771178	-0.105907
C540	C	1.260028	-0.271178	0.394093
H541	H	0.812189	-0.770219	-0.053801
H542	H	1.312189	-0.270219	0.446199
H543	H	0.815175	-0.723404	-0.094954
H544	H	1.315175	-0.223404	0.405046
H545	H	0.771053	-0.723437	-0.050830
H546	H	1.271053	-0.223437	0.449170
H547	H	0.780612	-0.793152	-0.129413
H548	H	1.280612	-0.293152	0.370587
H549	H	0.736525	-0.793133	-0.085254
H550	H	1.236525	-0.293133	0.414746
O551	O	0.592512	-0.956356	-0.273182
O552	O	1.092512	-0.456356	0.226818
C553	C	0.535491	-0.961353	-0.330127
C554	C	1.035491	-0.461353	0.169873
C555	C	0.567153	-0.987112	-0.298557
C556	C	1.067153	-0.487112	0.201443
H557	H	0.514986	-0.986207	-0.350658
H558	H	1.014986	-0.486207	0.149342
H559	H	0.511977	-0.939431	-0.309495
H560	H	1.011977	-0.439431	0.190505
H561	H	0.556095	-0.939346	-0.353624
H562	H	1.056095	-0.439346	0.146376
H563	H	0.546585	-1.009143	-0.275054
H564	H	1.046585	-0.509143	0.224946
H565	H	0.590667	-1.009006	-0.319217
H566	H	1.090667	-0.509006	0.180783
H567	H	0.597061	-0.268497	-1.045512
H568	H	1.097061	0.231503	-0.545512
H569	H	0.730097	-0.135623	-0.603875
H570	H	1.230097	0.364377	-0.103875
H571	H	0.730117	-0.829189	-0.135814
H572	H	1.230117	-0.329189	0.364186
O573	O	0.563826	-0.832937	-0.301925
O574	O	1.063826	-0.332937	0.198075
C575	C	0.541959	-0.847247	-0.378325
C576	C	1.041959	-0.347247	0.121675
C577	C	0.573559	-0.821433	-0.346719
C578	C	1.073559	-0.321433	0.153281
H579	H	0.549810	-0.837949	-0.414547
H580	H	1.049810	-0.337949	0.085453
H581	H	0.546909	-0.884813	-0.373444
H582	H	1.046909	-0.384813	0.126556
H583	H	0.505739	-0.838065	-0.370374
H584	H	1.005739	-0.338065	0.129626
H585	H	0.609791	-0.830578	-0.354650
H586	H	1.109791	-0.330578	0.145350
H587	H	0.568571	-0.783873	-0.351606
H588	H	1.068571	-0.283873	0.148394
O589	O	-0.090545	-0.159882	-0.160026
O590	O	0.409455	0.340118	0.339974
C591	C	-0.037630	-0.153741	-0.099350
C592	C	0.462370	0.346259	0.400650
C593	C	-0.063450	-0.185379	-0.130913
C594	C	0.436550	0.314621	0.369087
H595	H	-0.015725	-0.174343	-0.075799
H596	H	0.484275	0.325657	0.424201
H597	H	-0.015612	-0.130282	-0.119987
H598	H	0.484388	0.369718	0.380013
H599	H	-0.062470	-0.133172	-0.078878
H600	H	0.437530	0.366828	0.421122
H601	H	-0.038643	-0.205976	-0.151392
H602	H	0.461357	0.294024	0.348608
H603	H	-0.085475	-0.208808	-0.110251
H604	H	0.414525	0.291192	0.389749
O605	O	0.705788	-0.476242	-0.159918
O606	O	1.205788	0.023758	0.340082
C607	C	0.762836	-0.471245	-0.103000
C608	C	1.262836	0.028755	0.397000
C609	C	0.731197	-0.445487	-0.134594
C610	C	1.231197	0.054513	0.365406
H611	H	0.783395	-0.446391	-0.082524
H612	H	1.283395	0.053609	0.417476
H613	H	0.742257	-0.493227	-0.079458
H614	H	1.242257	0.006773	0.420542
H615	H	0.786304	-0.493193	-0.123657
H616	H	1.286304	0.006807	0.376343
H617	H	0.707723	-0.423515	-0.113974
H618	H	1.207723	0.076485	0.386026
H619	H	0.751805	-0.423533	-0.158138
H620	H	1.251805	0.076467	0.341862
O621	O	0.563811	-0.740455	-0.301895
O622	O	1.063811	-0.240455	0.198105
C623	C	0.557690	-0.687450	-0.362522
C624	C	1.057690	-0.187450	0.137478
C625	C	0.589314	-0.713234	-0.330934
C626	C	1.089314	-0.213234	0.169066
H627	H	0.578297	-0.665428	-0.386003
H628	H	1.078297	-0.165428	0.113997
H629	H	0.537159	-0.712273	-0.383066
H630	H	1.037159	-0.212273	0.116934
H631	H	0.534196	-0.665538	-0.341859
H632	H	1.034196	-0.165538	0.158141
H633	H	0.612835	-0.735147	-0.351563
H634	H	1.112835	-0.235147	0.148437
H635	H	0.609814	-0.688387	-0.310389
H636	H	1.109814	-0.188387	0.189611
H637	H	0.568229	-0.603402	-0.297337
H638	H	1.068229	-0.103402	0.202663
H639	H	0.392998	-0.164309	-0.164496
H640	H	0.892998	0.335691	0.335504
H641	H	0.730104	-0.135601	-0.688980
H642	H	1.230104	0.364399	-0.188980
H643	H	0.701393	-0.164257	-1.045559
H644	H	1.201393	0.335743	-0.545559
H645	H	0.121547	-0.135551	-0.135861
H646	H	0.621547	0.364449	0.364139
H647	H	0.478121	-0.164309	-0.164485
H648	H	0.978121	0.335691	0.335515
O649	O	0.734609	-0.599704	-0.131264
O650	O	1.234609	-0.099704	0.368736
C651	C	0.791634	-0.604640	-0.074320
C652	C	1.291634	-0.104640	0.425680
C653	C	0.759985	-0.630432	-0.105894
C654	C	1.259985	-0.130432	0.394106
H655	H	0.812152	-0.629473	-0.053794
H656	H	1.312152	-0.129473	0.446206
H657	H	0.815135	-0.582659	-0.094950
H658	H	1.315135	-0.082659	0.405050
H659	H	0.771018	-0.582689	-0.050820
H660	H	1.271018	-0.082689	0.449180
H661	H	0.780565	-0.652408	-0.129401
H662	H	1.280565	-0.152408	0.370599
H663	H	0.736483	-0.652385	-0.085237
H664	H	1.236483	-0.152385	0.414763
H665	H	0.568248	-0.297285	-0.688916
H666	H	1.068248	0.202715	-0.188916
O667	O	0.705918	-0.159718	-0.956819
O668	O	1.205918	0.340282	-0.456819
C669	C	0.762978	-0.102751	-0.961802
C670	C	1.262978	0.397249	-0.461802
C671	C	0.731347	-0.134369	-0.987568
C672	C	1.231347	0.365631	-0.487568
H673	H	0.783553	-0.082255	-0.986652
H674	H	1.283553	0.417745	-0.486652
H675	H	0.742391	-0.079228	-0.939849
H676	H	1.242391	0.420772	-0.439849
H677	H	0.786431	-0.123389	-0.939826
H678	H	1.286431	0.376611	-0.439826
H679	H	0.707888	-0.113767	-1.009569
H680	H	1.207888	0.386233	-0.509569
H681	H	0.751962	-0.157893	-1.009494
H682	H	1.251962	0.342107	-0.509494
O683	O	0.592431	-0.273147	-0.476742
O684	O	1.092431	0.226853	0.023258
C685	C	0.535410	-0.330153	-0.471766
C686	C	1.035410	0.169847	0.028234
C687	C	0.567060	-0.298557	-0.445996
C688	C	1.067060	0.201443	0.054004
H689	H	0.514895	-0.350713	-0.446919
H690	H	1.014895	0.149287	0.053081
H691	H	0.511905	-0.309540	-0.493711
H692	H	1.011905	0.190460	0.006289
H693	H	0.556024	-0.353622	-0.493751
H694	H	1.056024	0.146378	0.006249
H695	H	0.546481	-0.275082	-0.423986
H696	H	1.046481	0.224918	0.076014
H697	H	0.590565	-0.319199	-0.424079
H698	H	1.090565	0.180801	0.075921
H699	H	0.701402	-0.959912	-0.164514
H700	H	1.201402	-0.459912	0.335486
H701	H	0.596984	-0.268637	-0.388000
H702	H	1.096984	0.231363	0.112000
