data_functionalizedCrystal
_audit_creation_method	'MofGen! by Chris Wilmer'
_symmetry_space_group_name_H-M	'P1'
_symmetry_Int_Tables_number	1
_symmetry_cell_setting	triclinic
loop_
_symmetry_equiv_pos_as_xyz
  x,y,z
_cell_length_a	12.759401
_cell_length_b	19.121063
_cell_length_c	12.759393
_cell_angle_alpha	92.404035
_cell_angle_beta	89.979062
_cell_angle_gamma	92.470439
loop_
_atom_site_label
_atom_site_type_symbol
_atom_site_fract_x
_atom_site_fract_y
_atom_site_fract_z
Zn1	Zn	1.588334	-0.279551	-0.611809
Zn2	Zn	1.580690	-0.397017	-0.443603
Zn3	Zn	1.412630	-0.279588	-0.436146
Zn4	Zn	1.405092	-0.396968	-0.619238
O5	O	1.496686	-0.338281	-0.527699
O6	O	1.734340	-0.295138	-0.589508
O7	O	1.558352	-0.381476	-0.295595
O8	O	1.442291	-0.181299	-0.453218
O9	O	1.728724	-0.381440	-0.465928
O10	O	1.571380	-0.181271	-0.582277
O11	O	1.434879	-0.295201	-0.290117
O12	O	1.264609	-0.295154	-0.460422
O13	O	1.429444	-0.381356	-0.765271
O14	O	1.259071	-0.381393	-0.594938
O15	O	1.564071	-0.295090	-0.759813
O16	O	1.551042	-0.495295	-0.473132
O17	O	1.422032	-0.495259	-0.602169
C18	C	1.223720	-0.338272	-0.527678
C19	C	1.106942	-0.338286	-0.527694
C20	C	1.484918	-0.520761	-0.539289
C21	C	1.479980	-0.598827	-0.544282
C22	C	1.049220	-0.383259	-0.597636
C23	C	0.939495	-0.383261	-0.597657
C24	C	0.945226	-0.293316	-0.457786
C25	C	1.054948	-0.293311	-0.457771
C26	C	1.544881	-0.635498	-0.479500
C27	C	1.540243	-0.708849	-0.484203
C28	C	1.470697	-0.745528	-0.553682
C29	C	1.405794	-0.708852	-0.618471
C30	C	1.410438	-0.635502	-0.613773
C31	C	1.453316	-0.966997	-0.571229
C32	C	1.448675	-1.040352	-0.575920
C33	C	1.583126	-1.040344	-0.441653
C34	C	1.587759	-0.966993	-0.436957
C35	C	1.522860	-0.930323	-0.501749
C36	C	1.465952	-0.820504	-0.558488
C37	C	1.527611	-0.855348	-0.496948
C38	C	1.770719	-0.338290	-0.527721
C39	C	1.887495	-0.338294	-0.527731
C40	C	1.496769	-0.338214	-0.801728
C41	C	1.496805	-0.338185	-0.918503
C42	C	1.508529	-0.155088	-0.516087
C43	C	1.513576	-0.077023	-0.511139
C44	C	1.566910	-0.293259	-0.970524
C45	C	1.566930	-0.293229	-1.080246
C46	C	1.426735	-0.383056	-1.085917
C47	C	1.426711	-0.383083	-0.976196
C48	C	1.496667	-0.338298	-0.254733
C49	C	1.496848	-0.338128	-0.137946
H50	H	0.892502	-0.419882	-0.654611
H51	H	0.902879	-0.256700	-0.400855
O52	O	1.111136	-0.249720	-0.389778
C53	C	1.235520	-0.240154	-0.247295
C54	C	1.171967	-0.289598	-0.324243
H55	H	1.284701	-0.272376	-0.194276
H56	H	1.289348	-0.203478	-0.293231
H57	H	1.179495	-0.207998	-0.197364
H58	H	1.227914	-0.321799	-0.374194
H59	H	1.118127	-0.326228	-0.278244
O60	O	1.603540	-0.744449	-0.421499
C61	C	1.740374	-0.827049	-0.413037
C62	C	1.668669	-0.786799	-0.484124
H63	H	1.793034	-0.861309	-0.463641
H64	H	1.790944	-0.788204	-0.362688
H65	H	1.690166	-0.861469	-0.360143
H66	H	1.718796	-0.752378	-0.537082
H67	H	1.618094	-0.825681	-0.534402
H68	H	1.601508	-0.605639	-0.422919
H69	H	1.644389	-0.937130	-0.380382
O70	O	1.646138	-1.076074	-0.378837
C71	C	1.698552	-1.189069	-0.326539
C72	C	1.627138	-1.148694	-0.397749
H73	H	1.683199	-1.247790	-0.341789
H74	H	1.784190	-1.174637	-0.344155
H75	H	1.681082	-1.174664	-0.240892
H76	H	1.644514	-1.163077	-0.483420
H77	H	1.541521	-1.163129	-0.380044
O78	O	1.347290	-0.599986	-0.676745
C79	C	1.213501	-0.607730	-0.810472
C80	C	1.284933	-0.648038	-0.739188
H81	H	1.163083	-0.646562	-0.860991
H82	H	1.160687	-0.573462	-0.760053
H83	H	1.263914	-0.573318	-0.863198
H84	H	1.234602	-0.682488	-0.686450
H85	H	1.337752	-0.682262	-0.789670
H86	H	1.409326	-0.850376	-0.615056
H87	H	1.392055	-1.070214	-0.632517
H88	H	1.400470	-0.937146	-0.623984
O89	O	1.099892	-0.426918	-0.665464
C90	C	1.266385	-0.466740	-0.727482
C91	C	1.209136	-0.417274	-0.650589
H92	H	1.354719	-0.458950	-0.715498
H93	H	1.241230	-0.523376	-0.712495
H94	H	1.245579	-0.454480	-0.811440
H95	H	1.229913	-0.429471	-0.566603
H96	H	1.234295	-0.360653	-0.665668
O97	O	1.338263	-0.744588	-0.685871
C98	C	1.271559	-0.857588	-0.752654
C99	C	1.348072	-0.817207	-0.676260
H100	H	1.279479	-0.916307	-0.744924
H101	H	1.187736	-0.843274	-0.733210
H102	H	1.290872	-0.843069	-0.836445
H103	H	1.328855	-0.831703	-0.592442
H104	H	1.431872	-0.831524	-0.695794
H105	H	1.623982	-0.256698	-0.923553
H106	H	1.584239	-0.825482	-0.440382
H107	H	1.624015	-0.256644	-1.122597
H108	H	1.369670	-0.419612	-1.132904
H109	H	1.369615	-0.419666	-0.933840
