data_functionalizedCrystal
_audit_creation_method	'MofGen! by Chris Wilmer'
_symmetry_space_group_name_H-M	'P1'
_symmetry_Int_Tables_number	1
_symmetry_cell_setting	triclinic
loop_
_symmetry_equiv_pos_as_xyz
  x,y,z
_cell_length_a	6.817900
_cell_length_b	12.850268
_cell_length_c	9.582880
_cell_angle_alpha	84.332858
_cell_angle_beta	111.207034
_cell_angle_gamma	88.222550
loop_
_atom_site_label
_atom_site_type_symbol
_atom_site_fract_x
_atom_site_fract_y
_atom_site_fract_z
V1	V	4.056502	-0.142988	0.459925
O2	O	4.105465	0.007321	0.458061
O3	O	3.948171	-0.283955	0.450152
O4	O	4.048284	-0.140591	0.663538
O5	O	4.004659	-0.137035	0.243198
V6	V	4.542689	-0.125033	0.434808
O7	O	4.311916	-0.182375	0.515022
O8	O	4.737471	-0.085646	0.379711
O9	O	4.427814	0.015933	0.444581
O10	O	4.611122	-0.275343	0.436672
O11	O	4.711928	-0.130987	0.651535
O12	O	4.327700	-0.127430	0.231195
C13	C	3.777308	-0.318327	0.441193
C14	C	3.770159	-0.435734	0.434439
V15	V	4.029345	-0.626697	0.437101
O16	O	4.070956	-0.779636	0.442552
O17	O	3.936260	-0.479885	0.438875
O18	O	3.835445	-0.623214	0.225443
O19	O	4.172468	-0.635314	0.657462
V20	V	4.553696	-0.673994	0.502431
O21	O	4.246164	-0.601019	0.400801
O22	O	4.802440	-0.726261	0.575174
O23	O	4.415955	-0.807625	0.482589
O24	O	4.633489	-0.527990	0.506483
O25	O	4.531977	-0.672311	0.291573
O26	O	4.516770	-0.664295	0.696021
C27	C	4.262046	0.050299	0.453544
C28	C	4.248059	0.167702	0.460333
C29	C	3.904995	-0.135450	0.713379
C30	C	3.979163	-0.134423	0.879791
C31	C	4.134328	-0.132575	0.181345
C32	C	4.039401	-0.133596	0.014933
C33	C	3.641558	-0.618562	0.162182
C34	C	3.566797	-0.619560	-0.004255
C35	C	4.362514	-0.649056	0.732037
C36	C	4.415809	-0.646823	0.896792
