data_functionalizedCrystal
_audit_creation_method	'MofGen! by Chris Wilmer'
_symmetry_space_group_name_H-M	'P1'
_symmetry_Int_Tables_number	1
_symmetry_cell_setting	triclinic
loop_
_symmetry_equiv_pos_as_xyz
  x,y,z
_cell_length_a	13.185408
_cell_length_b	10.489716
_cell_length_c	8.965430
_cell_angle_alpha	89.995536
_cell_angle_beta	90.000248
_cell_angle_gamma	68.251318
loop_
_atom_site_label
_atom_site_type_symbol
_atom_site_fract_x
_atom_site_fract_y
_atom_site_fract_z
O1	O	1.444390	-0.331414	0.123948
O2	O	1.127895	-0.202469	0.123967
O3	O	1.293358	-0.455096	0.123962
O4	O	1.278927	-0.078787	0.123952
O5	O	1.293344	-0.455078	-0.124117
O6	O	1.127881	-0.202451	-0.124112
O7	O	1.444376	-0.331396	-0.124131
Cu8	Cu	1.286127	-0.266922	-0.146773
Cu9	Cu	1.286144	-0.266943	0.146609
O10	O	1.278913	-0.078769	-0.124126
C11	C	1.087361	-0.189388	-0.000070
C12	C	0.966604	-0.150452	-0.000063
C13	C	0.897812	-0.011819	-0.000063
C14	C	0.784354	0.024767	-0.000078
C15	C	0.739677	-0.077275	-0.000080
C16	C	0.808469	-0.215910	-0.000069
C17	C	0.921938	-0.252500	-0.000066
C18	C	0.763802	-0.317956	-0.000082
C19	C	0.832594	-0.456591	-0.000071
C20	C	0.946052	-0.493174	-0.000067
C21	C	0.990730	-0.391133	-0.000065
C22	C	0.650333	-0.281365	-0.000085
C23	C	0.674459	-0.522046	-0.000088
C24	C	0.787917	-0.558633	-0.000073
C25	C	1.292267	-0.502235	-0.000073
C26	C	1.289023	-0.642718	-0.000059
C27	C	1.390490	-0.776315	-0.000078
C28	C	1.336879	-0.834702	0.122237
C29	C	1.336842	-0.834640	-0.122349
C30	C	1.235455	-0.699254	0.122357
C31	C	1.235432	-0.699192	-0.122339
C32	C	1.181747	-0.757503	0.000006
C33	C	1.484910	-0.344478	-0.000090
C34	C	1.605667	-0.383414	-0.000088
C35	C	1.280004	-0.031630	-0.000088
C36	C	1.283248	0.108853	-0.000092
N37	N	1.286124	-0.266911	-0.353122
C38	C	1.209579	-0.150101	-0.450426
C39	C	1.308053	-0.159154	-0.549847
C40	C	1.187691	-0.257862	-0.549829
C41	C	1.384648	-0.275924	-0.450354
C42	C	1.264221	-0.374659	-0.450328
C43	C	1.362766	-0.383785	-0.549703
N44	N	1.286156	-0.266968	0.352958
H45	H	0.728352	0.137644	-0.000086
H46	H	1.192631	-0.640515	-0.225748
Br47	Br	1.164113	-0.601840	0.294907
Br48	Br	1.338972	-0.007333	-0.622704
H49	H	1.002060	-0.606060	-0.000077
H50	H	1.379691	-0.893277	-0.225755
H51	H	1.144907	-0.051269	-0.406836
H52	H	0.934200	0.071248	-0.000073
Br53	Br	1.034534	-0.746108	0.000114
H54	H	1.245642	-0.465709	-0.406580
Br55	Br	1.523450	-0.288539	-0.377843
H56	H	1.083116	-0.420914	-0.000058
Br57	Br	1.470792	-0.548517	-0.621913
H58	H	1.104435	-0.250187	-0.593528
H59	H	0.647293	-0.047477	-0.000093
Br60	Br	0.556987	-0.093224	-0.000104
H61	H	0.638084	-0.605137	-0.000021
Br62	Br	0.881289	-0.746775	-0.000059
Br63	Br	1.537591	-0.787262	0.000109
H64	H	1.379718	-0.893369	0.225643
