data_functionalizedCrystal
_audit_creation_method	'MofGen! by Chris Wilmer'
_symmetry_space_group_name_H-M	'P1'
_symmetry_Int_Tables_number	1
_symmetry_cell_setting	triclinic
loop_
_symmetry_equiv_pos_as_xyz
  x,y,z
_cell_length_a	13.635800
_cell_length_b	27.923497
_cell_length_c	27.923559
_cell_angle_alpha	82.409873
_cell_angle_beta	98.965071
_cell_angle_gamma	81.035752
loop_
_atom_site_label
_atom_site_type_symbol
_atom_site_fract_x
_atom_site_fract_y
_atom_site_fract_z
V1	V	1.977164	-0.067819	0.151591
V2	V	2.477164	0.432181	0.651591
O3	O	1.983034	0.002549	0.148377
O4	O	2.483034	0.502549	0.648377
O5	O	1.942183	-0.133791	0.150871
O6	O	2.442183	0.366209	0.650871
O7	O	1.942181	-0.067087	0.217561
O8	O	2.442181	0.432913	0.717561
O9	O	1.983036	-0.064616	0.081225
O10	O	2.483036	0.435384	0.581225
V11	V	2.221772	-0.059365	0.143136
V12	V	2.721772	0.440635	0.643136
O13	O	2.101549	-0.086363	0.170137
O14	O	2.601549	0.413637	0.670137
O15	O	2.322486	-0.040822	0.124590
O16	O	2.822486	0.459178	0.624590
O17	O	2.145150	0.006606	0.143857
O18	O	2.645150	0.506606	0.643857
O19	O	2.274601	-0.129733	0.146351
O20	O	2.774601	0.370267	0.646351
O21	O	2.274598	-0.062568	0.213503
O22	O	2.774598	0.437432	0.713503
O23	O	2.145152	-0.060097	0.077166
O24	O	2.645152	0.439903	0.577166
V25	V	2.477164	-0.067819	0.151591
V26	V	2.977164	0.432181	0.651591
O27	O	2.483034	0.002549	0.148377
O28	O	2.983034	0.502549	0.648377
O29	O	2.442183	-0.133791	0.150871
O30	O	2.942183	0.366209	0.650871
O31	O	2.442181	-0.067087	0.217561
O32	O	2.942181	0.432913	0.717561
O33	O	2.483036	-0.064616	0.081225
O34	O	2.983036	0.435384	0.581225
V35	V	2.721772	-0.059365	0.143136
V36	V	3.221772	0.440635	0.643136
O37	O	2.601549	-0.086363	0.170137
O38	O	3.101549	0.413637	0.670137
O39	O	2.822486	-0.040822	0.124590
O40	O	3.322486	0.459178	0.624590
O41	O	2.645150	0.006606	0.143857
O42	O	3.145150	0.506606	0.643857
O43	O	2.774601	-0.129733	0.146351
O44	O	3.274601	0.370267	0.646351
O45	O	2.774598	-0.062568	0.213503
O46	O	3.274598	0.437432	0.713503
O47	O	2.645152	-0.060097	0.077166
O48	O	3.145152	0.439903	0.577166
C49	C	1.862410	-0.149864	0.148561
C50	C	2.362410	0.350136	0.648561
C51	C	1.874380	-0.203798	0.148411
C52	C	2.374380	0.296202	0.648411
C53	C	1.937098	-0.531114	0.102970
C54	C	2.437098	-0.031114	0.602970
C55	C	1.982125	-0.733818	0.102382
C56	C	2.482125	-0.233818	0.602382
O57	O	1.978124	-0.753966	0.064493
O58	O	2.478124	-0.253966	0.564493
N59	N	1.999352	-0.766295	0.146773
N60	N	2.499352	-0.266295	0.646773
C61	C	2.005329	-0.748093	0.191313
C62	C	2.505329	-0.248093	0.691313
O63	O	2.021025	-0.780367	0.229057
O64	O	2.521025	-0.280367	0.729057
C65	C	1.960309	-0.545389	0.191901
C66	C	2.460309	-0.045389	0.691901
C67	C	1.943072	-0.512914	0.147507
C68	C	2.443072	-0.012914	0.647507
C69	C	1.919862	-0.498640	0.058579
C70	C	2.419862	0.001360	0.558579
C71	C	1.908601	-0.447966	0.058727
C72	C	2.408601	0.052034	0.558727
C73	C	1.914575	-0.429767	0.103264
C74	C	2.414575	0.070233	0.603264
C75	C	1.931810	-0.462241	0.147654
C76	C	2.431810	0.037759	0.647654
C77	C	1.966293	-0.527188	0.236441
C78	C	2.466293	-0.027188	0.736441
C79	C	1.955039	-0.476508	0.236584
C80	C	2.455039	0.023492	0.736584
C81	C	1.937802	-0.444034	0.192190
C82	C	2.437802	0.055966	0.692190
C83	C	1.926523	-0.393369	0.192339
C84	C	2.426523	0.106631	0.692339
N85	N	1.909296	-0.360892	0.147948
N86	N	2.409296	0.139108	0.647948
C87	C	1.903322	-0.379092	0.103411
C88	C	2.403322	0.120908	0.603411
C89	C	2.028963	-0.854514	0.191002
C90	C	2.528963	-0.354514	0.691002
C91	C	2.040216	-0.905190	0.190855
C92	C	2.540216	-0.405190	0.690855
C93	C	2.017013	-0.890912	0.101924
C94	C	2.517013	-0.390912	0.601924
C95	C	2.005752	-0.840236	0.102071
C96	C	2.505752	-0.340236	0.602071
C97	C	2.011736	-0.822038	0.146611
C98	C	2.511736	-0.322038	0.646611
C99	C	1.879672	-0.272675	0.103723
C100	C	2.379672	0.227325	0.603723
C101	C	1.868406	-0.221997	0.103874
C102	C	2.368406	0.278003	0.603874
C103	C	1.891615	-0.236280	0.192806
C104	C	2.391615	0.263720	0.692806
C105	C	1.902875	-0.286952	0.192655
C106	C	2.402875	0.213048	0.692655
C107	C	1.896905	-0.305148	0.148110
C108	C	2.396905	0.194852	0.648110
O109	O	1.930523	-0.373187	0.230208
O110	O	2.430523	0.126813	0.730208
O111	O	1.887647	-0.346810	0.065673
O112	O	2.387647	0.153190	0.565673
C113	C	1.948359	-0.581787	0.102822
C114	C	2.448359	-0.081787	0.602822
C115	C	1.965595	-0.614261	0.147212
C116	C	2.465595	-0.114261	0.647212
C117	C	1.971569	-0.596062	0.191750
C118	C	2.471569	-0.096062	0.691750
C119	C	1.976848	-0.664936	0.147066
C120	C	2.476848	-0.164936	0.647066
C121	C	1.970874	-0.683136	0.102528
C122	C	2.470874	-0.183136	0.602528
C123	C	1.953647	-0.650659	0.058138
C124	C	2.453647	-0.150659	0.558138
C125	C	1.942385	-0.599986	0.058285
C126	C	2.442385	-0.099986	0.558285
C127	C	1.988796	-0.628538	0.236140
C128	C	2.488796	-0.128538	0.736140
C129	C	2.000055	-0.679211	0.235989
C130	C	2.500055	-0.179211	0.735989
C131	C	1.994081	-0.697410	0.191452
C132	C	2.494081	-0.197410	0.691452
C133	C	1.862407	-0.064776	0.233630
C134	C	2.362407	0.435224	0.733630
C135	C	1.874374	-0.064614	0.287563
C136	C	2.374374	0.435386	0.787563
C137	C	2.056594	0.022677	0.146165
C138	C	2.556594	0.522677	0.646165
C139	C	2.034242	0.076611	0.146318
C140	C	2.534242	0.576611	0.646318
C141	C	2.056597	-0.062410	0.061095
C142	C	2.556597	0.437590	0.561095
C143	C	2.034249	-0.062569	0.007161
C144	C	2.534249	0.437431	0.507161
C145	C	2.362410	-0.149864	0.148561
C146	C	2.862410	0.350136	0.648561
C147	C	2.374380	-0.203798	0.148411
C148	C	2.874380	0.296202	0.648411
C149	C	1.960304	-0.108134	0.629156
C150	C	2.460304	0.391866	1.129156
C151	C	2.005334	-0.107555	0.831862
C152	C	2.505334	0.392445	1.331862
O153	O	2.021066	-0.145295	0.864147
O154	O	2.521066	0.354705	1.364147
N155	N	1.999358	-0.063018	0.850066
N156	N	2.499358	0.436982	1.350066
C157	C	1.982130	-0.018624	0.817590
C158	C	2.482130	0.481376	1.317590
O159	O	1.978091	0.019271	0.837726
O160	O	2.478091	0.519271	1.337726
C161	C	1.937108	-0.019203	0.614886
C162	C	2.437108	0.480797	1.114886
C163	C	1.943075	-0.063742	0.596684
C164	C	2.443075	0.436258	1.096684
C165	C	1.966271	-0.152669	0.610954
C166	C	2.466271	0.347331	1.110954
C167	C	1.955009	-0.152813	0.560280
C168	C	2.455009	0.347187	1.060280
C169	C	1.937780	-0.108422	0.527809
C170	C	2.437780	0.391578	1.027809
C171	C	1.931812	-0.063886	0.546011
C172	C	2.431812	0.436114	1.046011
C173	C	1.919887	0.025191	0.582411
C174	C	2.419887	0.525191	1.082411
C175	C	1.908634	0.025042	0.531732
C176	C	2.408634	0.525042	1.031732
C177	C	1.914601	-0.019497	0.513531
C178	C	2.414601	0.480503	1.013531
C179	C	1.903321	-0.019639	0.462865
C180	C	2.403321	0.480361	0.962865
N181	N	1.909296	-0.064175	0.444661
N182	N	2.409296	0.435825	0.944661
C183	C	1.926526	-0.108567	0.477133
C184	C	2.426526	0.391433	0.977133
C185	C	2.005766	-0.018322	0.924014
C186	C	2.505766	0.481678	1.424014
C187	C	2.017020	-0.018177	0.974690
C188	C	2.517020	0.481823	1.474690
C189	C	2.040225	-0.107109	0.988958
C190	C	2.540225	0.392891	1.488958
C191	C	2.028964	-0.107254	0.938281
C192	C	2.528964	0.392746	1.438281
C193	C	2.011742	-0.062859	0.905810
C194	C	2.511742	0.437141	1.405810
C195	C	1.902872	-0.108866	0.370714
C196	C	2.402872	0.391134	0.870714
C197	C	1.891604	-0.109006	0.320035
C198	C	2.391604	0.390994	0.820035
C199	C	1.868405	-0.020075	0.305771
C200	C	2.368405	0.479925	0.805771
C201	C	1.879667	-0.019934	0.356446
C202	C	2.379667	0.480066	0.856446
C203	C	1.896905	-0.064334	0.388916
C204	C	2.396905	0.435666	0.888916
O205	O	1.887598	0.018081	0.430552
O206	O	2.387598	0.518081	0.930552
O207	O	1.930584	-0.146456	0.456988
O208	O	2.430584	0.353544	0.956988
C209	C	1.971566	-0.107990	0.679830
C210	C	2.471566	0.392010	1.179830
C211	C	1.965599	-0.063454	0.698032
C212	C	2.465599	0.436546	1.198032
C213	C	1.948370	-0.019062	0.665560
C214	C	2.448370	0.480938	1.165560
C215	C	1.976853	-0.063309	0.748707
C216	C	2.476853	0.436691	1.248707
C217	C	1.994082	-0.107701	0.781179
C218	C	2.494082	0.392299	1.281179
C219	C	2.000058	-0.152237	0.762975
C220	C	2.500058	0.347763	1.262975
C221	C	1.988796	-0.152381	0.712301
C222	C	2.488796	0.347619	1.212301
C223	C	1.942394	0.025474	0.683764
C224	C	2.442394	0.525474	1.183764
C225	C	1.953656	0.025615	0.734438
C226	C	2.453656	0.525615	1.234438
C227	C	1.970886	-0.018777	0.766910
C228	C	2.470886	0.481223	1.266910
C229	C	2.362407	-0.064776	0.233630
C230	C	2.862407	0.435224	0.733630
C231	C	2.374374	-0.064614	0.287563
C232	C	2.874374	0.435386	0.787563
C233	C	2.556594	0.022677	0.146165
C234	C	3.056594	0.522677	0.646165
C235	C	2.534242	0.076611	0.146318
C236	C	3.034242	0.576611	0.646318
C237	C	2.556597	-0.062410	0.061095
C238	C	3.056597	0.437590	0.561095
C239	C	2.534249	-0.062569	0.007161
C240	C	3.034249	0.437431	0.507161
C241	C	2.470256	-0.231612	0.150777
C242	C	2.970256	0.268388	0.650777
C243	C	2.481520	-0.282291	0.150644
C244	C	2.981520	0.217709	0.650644
C245	C	2.396905	-0.305155	0.148142
C246	C	2.896905	0.194845	0.648142
C247	C	2.301021	-0.277338	0.145778
C248	C	2.801021	0.222662	0.645778
C249	C	2.289760	-0.226660	0.145914
C250	C	2.789760	0.273340	0.645914
C251	C	2.470248	-0.066969	0.315375
C252	C	2.970248	0.433031	0.815375
C253	C	2.481505	-0.066811	0.366050
C254	C	2.981505	0.433189	0.866050
C255	C	2.396889	-0.064301	0.388912
C256	C	2.896889	0.435699	0.888912
C257	C	2.301007	-0.061945	0.361097
C258	C	2.801007	0.438055	0.861097
C259	C	2.289750	-0.062100	0.310422
C260	C	2.789750	0.437900	0.810422
C261	C	2.610859	0.104424	0.143953
C262	C	3.110859	0.604424	0.643953
C263	C	2.589867	0.155102	0.144089
C264	C	3.089867	0.655102	0.644089
C265	C	2.492259	0.177966	0.146592
C266	C	2.992259	0.677966	0.646592
C267	C	2.415635	0.150150	0.148955
C268	C	2.915635	0.650150	0.648955
C269	C	2.436626	0.099473	0.148816
C270	C	2.936626	0.599473	0.648816
C271	C	2.436634	-0.065073	-0.015689
C272	C	2.936634	0.434927	0.484311
C273	C	2.415619	-0.065217	-0.066365
C274	C	2.915619	0.434783	0.433635
C275	C	2.492222	-0.062860	-0.094190
C276	C	2.992222	0.437140	0.405810
C277	C	2.589845	-0.060355	-0.071337
C278	C	3.089845	0.439645	0.428663
C279	C	2.610857	-0.060207	-0.020662
C280	C	3.110857	0.439793	0.479338
H281	H	1.854367	-0.195558	0.067722
H282	H	2.354367	0.304442	0.567722
F283	F	2.187710	-0.197064	0.143392
F284	F	2.687710	0.302936	0.643392
F285	F	2.583573	-0.311886	0.153159
F286	F	3.083573	0.188114	0.653159
F287	F	2.583558	-0.069321	0.395645
F288	F	3.083558	0.430679	0.895645
F289	F	1.897964	-0.216901	0.240203
F290	F	2.397964	0.283099	0.740203
F291	F	2.469933	0.231903	0.146739
F292	F	2.969933	0.731903	0.646739
H293	H	2.406089	-0.346420	0.148032
H294	H	2.906089	0.153580	0.648032
H295	H	1.991743	0.017831	0.897579
H296	H	2.491743	0.517831	1.397579
F297	F	2.408886	-0.064138	0.442846
F298	F	2.908886	0.435862	0.942846
H299	H	2.054235	-0.931627	0.227005
H300	H	2.554235	-0.431627	0.727005
H301	H	2.539159	-0.069013	0.296767
H302	H	3.039159	0.430987	0.796767
H303	H	2.475102	-0.062986	-0.135452
H304	H	2.975102	0.437014	0.364548
F305	F	2.311755	0.174491	0.151616
F306	F	2.811755	0.674491	0.651616
F307	F	2.210961	-0.059280	0.385437
F308	F	2.710961	0.440720	0.885437
F309	F	2.187705	-0.059599	0.280828
F310	F	2.687705	0.440401	0.780828
H311	H	1.915018	0.061460	0.597221
H312	H	2.415018	0.561460	1.097221
H313	H	2.232133	-0.295962	0.143741
H314	H	2.732133	0.204038	0.643741
H315	H	2.690347	-0.058172	-0.002061
H316	H	3.190347	0.441828	0.497939
H317	H	1.894613	0.061195	0.505296
H318	H	2.394613	0.561195	1.005296
H319	H	2.033823	-0.143521	0.923465
H320	H	2.533823	0.356479	1.423465
F321	F	2.311718	-0.067886	-0.090678
F322	F	2.811718	0.432114	0.409322
F323	F	1.873304	0.027469	0.375817
F324	F	2.373304	0.527469	0.875817
H325	H	2.374232	0.076830	0.150746
H326	H	2.874232	0.576830	0.650746
H327	H	2.652270	0.177744	0.142165
H328	H	3.152270	0.677744	0.642165
F329	F	1.961375	-0.200219	0.540916
F330	F	2.461375	0.299781	1.040916
H331	H	1.928350	-0.573549	0.022135
H332	H	2.428350	-0.073549	0.522135
H333	H	2.374247	-0.066991	0.006960
H334	H	2.874247	0.433009	0.506960
F335	F	2.671364	-0.057851	-0.100957
F336	F	3.171364	0.442149	0.399043
F337	F	1.924030	0.072725	0.649210
F338	F	2.424030	0.572725	1.149210
F339	F	2.010656	-0.910290	0.054523
F340	F	2.510656	-0.410290	0.554523
H341	H	1.874809	-0.287483	0.067450
H342	H	2.374809	0.212517	0.567450
F343	F	2.714750	0.080100	0.141289
F344	F	3.214750	0.580100	0.641289
F345	F	1.984610	-0.199921	0.645506
F346	F	2.484610	0.300079	1.145506
H347	H	1.914999	-0.513451	0.022310
H348	H	2.414999	-0.013451	0.522310
H349	H	1.894572	-0.421529	0.022577
H350	H	2.394572	0.078471	0.522577
F351	F	2.058548	-0.154354	1.023525
F352	F	2.558548	0.345646	1.523525
F353	F	2.010648	0.029228	0.994055
F354	F	2.510648	0.529228	1.494055
H355	H	2.014083	-0.705648	0.272143
H356	H	2.514083	-0.205648	0.772143
H357	H	1.991716	-0.813797	0.065921
H358	H	2.491716	-0.313797	0.565921
H359	H	1.854372	0.016068	0.279324
H360	H	2.354372	0.516068	0.779324
F361	F	2.035329	-0.835154	0.238411
F362	F	2.535329	-0.335154	0.738411
H363	H	1.959924	-0.461696	0.272856
H364	H	2.459924	0.038304	0.772856
F365	F	1.984588	-0.561738	0.283691
F366	F	2.484588	-0.061738	0.783691
F367	F	2.560325	-0.207288	0.153443
F368	F	3.060325	0.292712	0.653443
H369	H	1.948778	-0.665485	0.021874
H370	H	2.448778	-0.165485	0.521874
F371	F	1.921256	-0.321516	0.239904
F372	F	2.421256	0.178484	0.739904
H373	H	1.993656	-0.188650	0.697487
H374	H	2.493656	0.311350	1.197487
H375	H	1.993662	-0.613726	0.272409
H376	H	2.493662	-0.113726	0.772409
H377	H	1.916907	-0.145020	0.397146
H378	H	2.416907	0.354980	0.897146
F379	F	1.897955	-0.156413	0.300667
F380	F	2.397955	0.343587	0.800667
H381	H	2.014083	-0.188382	0.789422
H382	H	2.514083	0.311618	1.289422
H383	H	1.948788	0.061887	0.749252
H384	H	2.448788	0.561887	1.249252
