data_functionalizedCrystal
_audit_creation_method	'MofGen! by Chris Wilmer'
_symmetry_space_group_name_H-M	'P1'
_symmetry_Int_Tables_number	1
_symmetry_cell_setting	triclinic
loop_
_symmetry_equiv_pos_as_xyz
  x,y,z
_cell_length_a	14.044220
_cell_length_b	19.188930
_cell_length_c	12.503572
_cell_angle_alpha	93.506241
_cell_angle_beta	86.164750
_cell_angle_gamma	88.166830
loop_
_atom_site_label
_atom_site_type_symbol
_atom_site_fract_x
_atom_site_fract_y
_atom_site_fract_z
O1	O	1.262485	0.164589	-0.089229
O2	O	1.595818	0.497922	0.244105
O3	O	1.929151	0.831256	0.577438
O4	O	0.986542	0.158515	-0.089255
O5	O	1.319876	0.491849	0.244078
O6	O	1.653209	0.825182	0.577412
O7	O	1.132475	0.060411	-0.089220
O8	O	1.465809	0.393745	0.244113
O9	O	1.799142	0.727078	0.577446
O10	O	1.116552	0.262693	-0.089264
O11	O	1.449885	0.596026	0.244070
O12	O	1.783218	0.929360	0.577403
O13	O	1.121500	0.067803	0.089419
O14	O	1.454834	0.401136	0.422752
O15	O	1.788167	0.734469	0.756086
O16	O	0.975567	0.165907	0.089384
O17	O	1.308901	0.499240	0.422718
O18	O	1.642234	0.832573	0.756051
O19	O	1.251510	0.171980	0.089411
O20	O	1.584843	0.505314	0.422744
O21	O	1.918176	0.838647	0.756077
Cu22	Cu	1.112536	0.169618	0.105709
Cu23	Cu	1.445870	0.502952	0.439042
Cu24	Cu	1.779203	0.836285	0.772375
Cu25	Cu	1.125516	0.160877	-0.105553
Cu26	Cu	1.458849	0.494211	0.227780
Cu27	Cu	1.792182	0.827544	0.561114
O28	O	1.105577	0.270084	0.089376
O29	O	1.438910	0.603418	0.422709
O30	O	1.772243	0.936751	0.756042
C31	C	0.945752	0.159553	0.000061
C32	C	1.279085	0.492886	0.333395
C33	C	1.612418	0.826219	0.666728
C34	C	0.840559	0.151624	0.000052
C35	C	1.173892	0.484957	0.333386
C36	C	1.507226	0.818290	0.666719
C37	C	0.647956	0.137129	0.000077
C38	C	0.981290	0.470462	0.333410
C39	C	1.314623	0.803796	0.666743
C40	C	0.590090	0.193363	0.000069
C41	C	0.923424	0.526697	0.333403
C42	C	1.256757	0.860030	0.666736
C43	C	0.482920	0.185298	0.000083
C44	C	0.816253	0.518632	0.333416
C45	C	1.149586	0.851965	0.666749
C46	C	0.755137	0.145193	0.000063
C47	C	1.088471	0.478526	0.333396
C48	C	1.421804	0.811860	0.666730
C49	C	1.126472	0.038063	0.000102
C50	C	1.459805	0.371396	0.333436
C51	C	1.793138	0.704730	0.666769
C52	C	1.124923	-0.039541	0.000112
C53	C	1.458256	0.293792	0.333445
C54	C	1.791590	0.627125	0.666778
C55	C	1.210552	-0.078939	0.000125
C56	C	1.543886	0.254395	0.333458
C57	C	1.877219	0.587728	0.666792
C58	C	1.209099	-0.151857	0.000108
C59	C	1.542432	0.181476	0.333441
C60	C	1.875765	0.514809	0.666774
C61	C	1.122010	-0.185374	0.000098
C62	C	1.455343	0.147959	0.333432
C63	C	1.788677	0.481293	0.666765
C64	C	1.036370	-0.145968	0.000079
C65	C	1.369703	0.187366	0.333412
C66	C	1.703037	0.520699	0.666746
C67	C	1.037826	-0.073051	0.000086
C68	C	1.371160	0.260282	0.333419
C69	C	1.704493	0.593616	0.666752
N70	N	1.051706	-0.295160	0.060886
N71	N	1.385039	0.038174	0.394220
N72	N	1.718373	0.371507	0.727553
N73	N	1.050328	-0.364427	0.060882
N74	N	1.383661	-0.031094	0.394216
N75	N	1.716995	0.302239	0.727549
C76	C	1.117616	-0.405067	0.000076
C77	C	1.450950	-0.071734	0.333410
C78	C	1.784283	0.261599	0.666743
N79	N	1.186348	-0.373823	-0.060712
N80	N	1.519682	-0.040489	0.272621
N81	N	1.853015	0.292844	0.605954
N82	N	1.187729	-0.304548	-0.060704
N83	N	1.521062	0.028785	0.272630
N84	N	1.854396	0.362118	0.605963
C85	C	1.120421	-0.264440	0.000091
C86	C	1.453754	0.068894	0.333424
C87	C	1.787088	0.402227	0.666757
C88	C	1.201676	-0.523532	0.000069
C89	C	1.535009	-0.190198	0.333403
C90	C	1.868342	0.143135	0.666736
C91	C	1.200219	-0.596451	0.000045
C92	C	1.533552	-0.263118	0.333379
C93	C	1.866886	0.070215	0.666712
C94	C	1.027487	-0.590560	0.000028
C95	C	1.360820	-0.257227	0.333361
C96	C	1.694154	0.076107	0.666694
C97	C	1.028947	-0.517642	0.000041
C98	C	1.362280	-0.184309	0.333374
C99	C	1.695613	0.149025	0.666707
C100	C	1.116043	-0.484132	0.000067
C101	C	1.449377	-0.150799	0.333400
C102	C	1.782710	0.182535	0.666733
C103	C	1.292301	0.170943	0.000092
C104	C	1.625634	0.504276	0.333425
C105	C	1.958967	0.837610	0.666758
C106	C	1.397493	0.178872	0.000094
C107	C	1.730827	0.512205	0.333427
C108	C	2.064160	0.845538	0.666760
C109	C	1.111580	0.292433	0.000051
C110	C	1.444914	0.625766	0.333384
C111	C	1.778247	0.959099	0.666717
C112	C	1.113129	0.370037	0.000034
C113	C	1.446463	0.703370	0.333368
C114	C	1.779796	1.036703	0.666701
N115	N	1.103414	0.175766	0.254299
N116	N	1.436748	0.509100	0.587632
N117	N	1.770081	0.842433	0.920965
N118	N	1.134645	0.154724	-0.254143
N119	N	1.467979	0.488058	0.079190
N120	N	1.801312	0.821391	0.412523
C121	C	1.089995	0.184816	0.473411
C122	C	1.423329	0.518150	0.806744
C123	C	1.756662	0.851483	1.140077
C124	C	1.148061	0.145676	0.526752
C125	C	1.481394	0.479010	0.860085
C126	C	1.814728	0.812343	1.193418
C127	C	1.140595	0.150712	0.648673
C128	C	1.473928	0.484045	0.982006
C129	C	1.807261	0.817379	1.315340
C130	C	1.097461	0.179782	0.351478
C131	C	1.430794	0.513115	0.684812
C132	C	1.764127	0.846448	1.018145
H133	H	0.621038	0.247564	0.000052
H134	H	0.954371	0.580897	0.333386
H135	H	1.287705	0.914231	0.666719
H136	H	1.203381	0.108386	0.480852
H137	H	1.536714	0.441720	0.814185
H138	H	1.870047	0.775053	1.147519
H139	H	0.956578	-0.617849	0.000015
H140	H	1.289911	-0.284515	0.333348
H141	H	1.623244	0.048818	0.666682
H142	H	0.959218	-0.485563	0.000036
H143	H	1.292551	-0.152230	0.333369
H144	H	1.625884	0.181103	0.666703
H145	H	1.034680	0.222105	0.519305
H146	H	1.368014	0.555438	0.852638
H147	H	1.701347	0.888772	1.185971
H148	H	0.617011	0.082933	0.000094
H149	H	0.950344	0.416266	0.333428
H150	H	1.283677	0.749599	0.666761
H151	H	0.968095	-0.040973	0.000075
H152	H	1.301428	0.292360	0.333408
H153	H	1.634761	0.625693	0.666742
H154	H	1.272595	-0.496247	0.000085
H155	H	1.605928	-0.162913	0.333419
H156	H	1.939262	0.170420	0.666752
H157	H	1.281473	-0.051660	0.000142
H158	H	1.614807	0.281673	0.333476
H159	H	1.948140	0.615007	0.666809
H160	H	1.278831	-0.183941	0.000114
H161	H	1.612164	0.149392	0.333447
H162	H	1.945497	0.482726	0.666781
H163	H	0.965462	-0.173262	0.000069
H164	H	1.298795	0.160072	0.333403
H165	H	1.632128	0.493405	0.666736
H166	H	1.269952	-0.628529	0.000050
H167	H	1.603285	-0.295195	0.333383
H168	H	1.936618	0.038138	0.666717
