data_functionalizedCrystal
_audit_creation_method	'MofGen! by Chris Wilmer'
_symmetry_space_group_name_H-M	'P1'
_symmetry_Int_Tables_number	1
_symmetry_cell_setting	triclinic
loop_
_symmetry_equiv_pos_as_xyz
  x,y,z
_cell_length_a	25.639239
_cell_length_b	17.077404
_cell_length_c	17.077396
_cell_angle_alpha	90.019501
_cell_angle_beta	90.031074
_cell_angle_gamma	90.038911
loop_
_atom_site_label
_atom_site_type_symbol
_atom_site_fract_x
_atom_site_fract_y
_atom_site_fract_z
Zn1	Zn	0.208148	-1.199968	-0.443829
Zn2	Zn	0.295585	-1.199839	-0.312557
Zn3	Zn	0.208166	-1.068700	-0.312576
Zn4	Zn	0.295554	-1.068632	-0.443780
O5	O	0.251863	-1.134285	-0.378185
O6	O	0.219752	-1.309798	-0.426427
O7	O	0.284010	-1.182418	-0.202712
O8	O	0.134998	-1.086196	-0.330016
O9	O	0.283992	-1.309703	-0.329982
O10	O	0.134985	-1.182638	-0.426446
O11	O	0.219783	-1.086071	-0.202727
O12	O	0.219753	-0.958844	-0.329969
O13	O	0.283939	-1.086080	-0.553634
O14	O	0.283957	-0.958794	-0.426364
O15	O	0.219722	-1.182572	-0.553669
O16	O	0.368746	-1.182352	-0.329935
O17	O	0.368724	-1.085954	-0.426345
C18	C	0.387706	-1.134153	-0.378150
C19	C	0.445820	-1.134168	-0.378160
C20	C	0.251854	-0.930337	-0.378164
C21	C	0.251862	-0.843087	-0.378173
C22	C	0.115490	-1.134439	-0.378239
C23	C	0.057376	-1.134505	-0.378261
C24	C	0.806182	-1.184610	-0.328071
C25	C	0.860787	-1.184641	-0.328081
O26	O	0.889023	-1.227391	-0.285454
N27	N	0.888102	-1.134423	-0.378237
C28	C	0.860811	-1.084177	-0.428392
O29	O	0.889059	-1.041467	-0.471056
C30	C	0.806208	-1.084151	-0.428385
C31	C	0.778895	-1.134367	-0.378220
C32	C	0.778869	-1.234822	-0.277910
C33	C	0.724269	-1.234790	-0.277899
C34	C	0.696981	-1.184547	-0.328048
C35	C	0.724294	-1.134335	-0.378209
C36	C	0.778917	-1.033910	-0.478543
C37	C	0.724310	-1.033889	-0.478532
C38	C	0.696997	-1.084104	-0.428367
C39	C	0.642406	-1.084060	-0.428346
N40	N	0.615090	-1.134278	-0.378190
C41	C	0.642378	-1.184521	-0.328041
C42	C	0.975482	-1.084236	-0.428404
C43	C	1.030084	-1.084258	-0.428408
C44	C	1.030056	-1.184722	-0.328098
C45	C	0.975452	-1.184696	-0.328091
C46	C	0.948166	-1.134454	-0.378248
C47	C	0.527713	-1.184450	-0.328020
C48	C	0.473107	-1.184412	-0.328011
C49	C	0.473140	-1.083951	-0.428324
C50	C	0.527741	-1.083986	-0.428331
C51	C	0.555026	-1.134242	-0.378176
O52	O	0.614135	-1.041334	-0.470954
O53	O	0.614123	-1.227232	-0.285392
C54	C	0.251825	-1.134333	-0.582930
C55	C	0.251808	-1.134353	-0.670180
C56	C	0.251873	-1.339029	-0.378208
C57	C	0.251877	-1.426279	-0.378217
C58	C	0.285344	-0.802092	-0.428285
C59	C	0.285345	-0.720111	-0.428298
C60	C	0.251867	-0.679128	-0.378194
C61	C	0.218382	-0.720129	-0.328079
C62	C	0.218378	-0.802108	-0.328071
C63	C	0.218392	-0.549259	-0.328098
C64	C	0.218396	-0.467275	-0.328105
C65	C	0.285358	-0.467262	-0.428325
C66	C	0.285355	-0.549241	-0.428317
C67	C	0.251871	-0.590237	-0.378201
C68	C	0.218368	-1.184598	-0.711190
C69	C	0.218350	-1.184608	-0.793170
C70	C	0.251777	-1.134375	-0.834139
C71	C	0.285219	-1.084124	-0.793123
C72	C	0.285233	-1.084111	-0.711144
C73	C	0.285187	-1.084156	-0.963994
C74	C	0.285174	-1.084169	-1.045978
C75	C	0.218304	-1.184652	-1.046019
C76	C	0.218319	-1.184639	-0.964040
C77	C	0.251762	-1.134389	-0.923030
C78	C	0.251864	-1.134283	-0.174238
C79	C	0.251733	-1.134415	-0.086988
H80	H	0.549922	-1.225375	-0.287182
H81	H	0.702096	-0.992977	-0.519379
H82	H	0.312607	-0.835454	-0.469084
O83	O	0.554195	-1.035180	-0.477131
C84	C	0.518399	-0.990812	-0.521375
H85	H	0.479450	-1.022936	-0.524105
H86	H	0.534149	-0.982417	-0.583221
H87	H	0.512651	-0.931205	-0.492576
H88	H	0.702034	-1.275682	-0.237052
O89	O	0.446519	-1.233233	-0.279389
C90	C	0.414887	-1.283904	-0.324118
H91	H	0.406697	-1.256180	-0.383578
H92	H	0.376499	-1.294423	-0.292143
H93	H	0.435888	-1.342081	-0.332803
H94	H	1.052318	-1.043360	-0.469250
H95	H	0.191121	-0.686754	-0.287287
H96	H	0.953217	-1.225586	-0.287242
O97	O	0.185925	-0.589051	-0.279300
C98	C	0.197283	-0.568958	-0.201039
H99	H	0.239048	-0.546376	-0.196972
H100	H	0.192751	-0.622858	-0.162264
H101	H	0.169235	-0.521393	-0.180596
O102	O	0.446602	-1.035263	-0.477122
C103	C	0.414956	-1.079923	-0.527832
H104	H	0.431374	-1.141750	-0.532735
H105	H	0.414322	-1.051506	-0.588220
H106	H	0.373585	-1.082627	-0.503550
O107	O	0.317802	-0.589138	-0.477027
C108	C	0.288072	-0.636592	-0.527814
H109	H	0.248426	-0.648894	-0.500233
H110	H	0.309373	-0.694226	-0.538271
H111	H	0.282378	-0.605028	-0.586005
H112	H	0.312609	-0.686736	-0.469104
O113	O	0.185841	-0.841813	-0.279313
C114	C	0.156285	-0.788063	-0.235103
H115	H	0.177700	-0.729604	-0.232334
H116	H	0.150656	-0.811727	-0.173268
H117	H	0.116600	-0.779395	-0.263955
O118	O	1.056487	-1.233561	-0.279312
C119	C	1.020676	-1.277898	-0.235049
H120	H	0.981774	-1.245731	-0.232285
H121	H	1.036479	-1.286319	-0.173216
H122	H	1.014816	-1.337493	-0.263853
H123	H	0.801081	-1.275740	-0.237072
O124	O	0.185937	-1.233448	-0.833099
C125	C	0.215695	-1.284130	-0.880511
H126	H	0.255316	-1.256406	-0.892767
H127	H	0.194387	-1.294670	-0.938170
H128	H	0.221444	-1.342297	-0.848935
H129	H	0.312459	-1.043188	-0.677755
O130	O	0.317565	-1.035323	-1.085858
C131	C	0.287776	-0.984661	-1.133262
H132	H	0.248157	-1.012409	-1.145566
H133	H	0.309059	-0.974113	-1.190899
H134	H	0.282023	-0.926495	-1.101656
O135	O	0.949058	-1.035346	-0.477149
C136	C	0.984882	-0.991048	-0.521428
H137	H	1.023819	-0.988375	-0.489273
H138	H	0.969148	-0.929185	-0.529743
H139	H	0.990646	-1.019761	-0.581073
H140	H	0.312621	-0.433879	-0.469133
H141	H	0.191129	-0.433908	-0.287315
O142	O	0.185848	-1.233420	-0.671517
C143	C	0.156337	-1.277782	-0.725297
H144	H	0.154516	-1.245640	-0.783729
H145	H	0.115147	-1.286198	-0.701631
H146	H	0.175484	-1.337380	-0.734020
O147	O	0.805465	-0.985054	-0.527168
C148	C	0.837118	-0.934398	-0.482456
H149	H	0.820700	-0.929564	-0.420621
H150	H	0.837761	-0.873978	-0.510804
H151	H	0.878486	-0.958687	-0.479787
H152	H	0.191103	-1.225547	-0.930685
H153	H	0.191073	-1.225566	-1.079414
H154	H	0.312412	-1.043225	-0.930606
H155	H	0.312433	-1.043221	-0.826487
