data_functionalizedCrystal
_audit_creation_method	'MofGen! by Chris Wilmer'
_symmetry_space_group_name_H-M	'P1'
_symmetry_Int_Tables_number	1
_symmetry_cell_setting	triclinic
loop_
_symmetry_equiv_pos_as_xyz
  x,y,z
_cell_length_a	16.120530
_cell_length_b	21.295417
_cell_length_c	16.120297
_cell_angle_alpha	87.132998
_cell_angle_beta	89.871860
_cell_angle_gamma	87.125778
loop_
_atom_site_label
_atom_site_type_symbol
_atom_site_fract_x
_atom_site_fract_y
_atom_site_fract_z
Zn1	Zn	1.247391	-0.318915	0.534523
Zn2	Zn	1.747391	0.181085	1.034523
Zn3	Zn	1.254326	-0.419125	0.395453
Zn4	Zn	1.754326	0.080875	0.895453
Zn5	Zn	1.115383	-0.308278	0.388443
Zn6	Zn	1.615383	0.191722	0.888443
Zn7	Zn	1.108282	-0.418545	0.527422
Zn8	Zn	1.608282	0.081455	1.027422
O9	O	1.181345	-0.366216	0.461460
O10	O	1.681345	0.133784	0.961460
O11	O	1.364676	-0.336903	0.521981
O12	O	1.864676	0.163097	1.021981
O13	O	1.241769	-0.400212	0.278158
O14	O	1.741769	0.099788	0.778158
O15	O	1.132963	-0.221604	0.407859
O16	O	1.632963	0.278396	0.907859
O17	O	1.369771	-0.410526	0.419806
O18	O	1.869771	0.089474	0.919806
O19	O	1.229949	-0.229419	0.515184
O20	O	1.729949	0.270581	1.015184
O21	O	1.139688	-0.318773	0.273008
O22	O	1.639688	0.181227	0.773008
O23	O	0.998075	-0.318211	0.400973
O24	O	1.498075	0.181789	0.900973
O25	O	1.120862	-0.409538	0.644729
O26	O	1.620862	0.090462	1.144729
O27	O	0.992859	-0.399224	0.503081
O28	O	1.492859	0.100776	1.003081
O29	O	1.223064	-0.336340	0.649946
O30	O	1.723064	0.163660	1.149946
O31	O	1.234884	-0.507133	0.412921
O32	O	1.734884	-0.007133	0.912921
O33	O	1.127586	-0.506707	0.509878
O34	O	1.627586	-0.006707	1.009878
C35	C	0.965295	-0.357501	0.450496
C36	C	1.465295	0.142499	0.950496
C37	C	0.872866	-0.353788	0.445825
C38	C	1.372866	0.146212	0.945825
C39	C	0.703638	-0.346996	0.437305
C40	C	1.203638	0.153004	0.937305
C41	C	0.659891	-0.385485	0.485677
C42	C	1.159891	0.114515	0.985677
C43	C	0.565726	-0.381705	0.480936
C44	C	1.065726	0.118295	0.980936
C45	C	0.797811	-0.350774	0.442045
C46	C	1.297811	0.149226	0.942045
C47	C	1.181239	-0.529761	0.461409
C48	C	1.681239	-0.029761	0.961409
C49	C	1.181268	-0.599731	0.461418
C50	C	1.681268	-0.099731	0.961418
C51	C	1.237182	-0.632802	0.410990
C52	C	1.737182	-0.132802	0.910990
C53	C	1.237220	-0.698547	0.411010
C54	C	1.737220	-0.198547	0.911010
C55	C	1.181329	-0.731217	0.461450
C56	C	1.681329	-0.231217	0.961450
C57	C	1.125411	-0.698138	0.511889
C58	C	1.625411	-0.198138	1.011889
C59	C	1.125380	-0.632395	0.511873
C60	C	1.625380	-0.132395	1.011873
N61	N	1.108264	-0.831783	0.464098
N62	N	1.608264	-0.331783	0.964098
N63	N	1.108296	-0.894236	0.464108
N64	N	1.608296	-0.394236	0.964108
C65	C	1.181420	-0.929297	0.461503
C66	C	1.681420	-0.429297	0.961503
N67	N	1.254514	-0.899546	0.458870
N68	N	1.754514	-0.399546	0.958870
N69	N	1.254481	-0.837087	0.458855
N70	N	1.754481	-0.337087	0.958855
C71	C	1.181357	-0.802504	0.461473
C72	C	1.681357	-0.302504	0.961473
C73	C	1.237380	-1.033657	0.411094
C74	C	1.737380	-0.533657	0.911094
C75	C	1.237419	-1.099403	0.411120
C76	C	1.737419	-0.599403	0.911120
C77	C	1.125603	-1.098992	0.511994
C78	C	1.625603	-0.598992	1.011994
C79	C	1.125571	-1.033248	0.511973
C80	C	1.625571	-0.533248	1.011973
C81	C	1.181459	-1.000584	0.461518
C82	C	1.681459	-0.500584	0.961518
C83	C	1.398240	-0.374966	0.472468
C84	C	1.898240	0.125034	0.972468
C85	C	1.490667	-0.378694	0.477159
C86	C	1.990667	0.121306	0.977159
C87	C	1.170397	-0.374061	0.678353
C88	C	1.670397	0.125939	1.178353
C89	C	1.165731	-0.377404	0.770780
C90	C	1.665731	0.122596	1.270780
C91	C	1.181474	-0.202033	0.461531
C92	C	1.681474	0.297967	0.961531
C93	C	1.181529	-0.132068	0.461562
C94	C	1.681529	0.367932	0.961562
C95	C	1.192299	-0.358358	0.245413
C96	C	1.692299	0.141642	0.745413
C97	C	1.197126	-0.354844	0.152995
C98	C	1.697126	0.145156	0.652995
C99	C	1.157183	-0.383493	0.940004
C100	C	1.657183	0.116507	1.440004
C101	C	1.205672	-0.348757	0.983777
C102	C	1.705672	0.151243	1.483777
C103	C	1.200915	-0.352144	1.077938
C104	C	1.700915	0.147856	1.577938
C105	C	1.161938	-0.380106	0.845834
C106	C	1.661938	0.119894	1.345834
H107	H	0.693157	-0.421274	0.530651
H108	H	1.193157	0.078726	1.030651
H109	H	0.670373	-0.311209	0.392335
H110	H	1.170373	0.188791	0.892335
H111	H	1.282957	-1.126329	0.370057
H112	H	1.782957	-0.626329	0.870057
H113	H	1.282691	-0.606210	0.369908
H114	H	1.782691	-0.106210	0.869908
C115	C	1.298722	-0.734933	0.355530
C116	C	1.798722	-0.234933	0.855530
H117	H	1.331997	-0.706063	0.325475
H118	H	1.831997	-0.206063	0.825475
H119	H	1.333335	-0.763157	0.389205
H120	H	1.833335	-0.263157	0.889205
H121	H	1.268769	-0.758018	0.317667
H122	H	1.768769	-0.258018	0.817667
H123	H	1.080037	-1.006319	0.553033
H124	H	1.580037	-0.506319	1.053033
C125	C	1.063931	-0.734072	0.567370
C126	C	1.563931	-0.234072	1.067370
H127	H	1.071952	-0.777963	0.560151
H128	H	1.571952	-0.277963	1.060151
H129	H	1.073229	-0.725781	0.623864
H130	H	1.573229	-0.225781	1.123864
H131	H	1.008679	-0.720646	0.552312
H132	H	1.508679	-0.220646	1.052312
C133	C	1.063867	-0.596015	0.567342
C134	C	1.563867	-0.096015	1.067342
H135	H	1.030582	-0.624885	0.597385
H136	H	1.530582	-0.124885	1.097385
H137	H	1.093804	-0.572922	0.605204
H138	H	1.593804	-0.072922	1.105204
H139	H	1.029252	-0.567797	0.533652
H140	H	1.529252	-0.067797	1.033652
C141	C	1.266585	-0.305148	0.938878
C142	C	1.766585	0.194852	1.438878
H143	H	1.296381	-0.283797	0.978726
H144	H	1.796381	0.216203	1.478726
H145	H	1.304472	-0.329497	0.906833
H146	H	1.804472	0.170503	1.406833
H147	H	1.236474	-0.275239	0.903381
H148	H	1.736474	0.224761	1.403381
H149	H	1.080099	-1.125592	0.553068
H150	H	1.580099	-0.625592	1.053068
C151	C	1.096285	-0.427107	0.984903
C152	C	1.596285	0.072893	1.484903
H153	H	1.066483	-0.448457	0.945059
H154	H	1.566483	0.051543	1.445059
H155	H	1.126402	-0.457008	1.020399
H156	H	1.626402	0.042992	1.520399
H157	H	1.058391	-0.402759	1.016950
H158	H	1.558391	0.097241	1.516950
C159	C	1.298861	-0.997724	0.355606
C160	C	1.798861	-0.497724	0.855606
H161	H	1.332177	-1.026840	0.325584
H162	H	1.832177	-0.526840	0.825584
H163	H	1.268902	-0.969521	0.317727
H164	H	1.768902	-0.469521	0.817727
H165	H	1.333448	-0.974652	0.389283
H166	H	1.833448	-0.474652	0.889283
