data_functionalizedCrystal
_audit_creation_method	'MofGen! by Chris Wilmer'
_symmetry_space_group_name_H-M	'P1'
_symmetry_Int_Tables_number	1
_symmetry_cell_setting	triclinic
loop_
_symmetry_equiv_pos_as_xyz
  x,y,z
_cell_length_a	17.699104
_cell_length_b	16.776229
_cell_length_c	17.699083
_cell_angle_alpha	90.001567
_cell_angle_beta	83.287266
_cell_angle_gamma	90.008015
loop_
_atom_site_label
_atom_site_type_symbol
_atom_site_fract_x
_atom_site_fract_y
_atom_site_fract_z
O1	O	1.004069	0.066306	0.095781
O2	O	0.783693	0.066304	0.108217
O3	O	0.900107	0.066298	-0.008189
O4	O	0.887655	0.066312	0.212188
O5	O	0.900090	-0.066278	-0.008183
O6	O	0.783676	-0.066272	0.108224
O7	O	1.004052	-0.066271	0.095788
Zn8	Zn	0.893862	-0.087321	0.102006
Zn9	Zn	0.893884	0.087354	0.101998
O10	O	0.887638	-0.066264	0.212194
C11	C	0.755488	0.000016	0.107772
C12	C	0.671471	0.000015	0.106427
C13	C	0.899653	0.000010	-0.036383
C14	C	0.898314	0.000009	-0.120402
C15	C	0.146600	0.000027	0.167171
C16	C	0.225543	0.000029	0.168430
C17	C	0.274161	0.000025	0.100095
C18	C	0.243831	0.000026	0.030496
C19	C	0.164889	0.000029	0.029238
C20	C	0.562197	0.000014	0.035569
C21	C	0.641144	0.000008	0.036833
C22	C	0.622852	0.000014	0.174762
C23	C	0.543909	0.000017	0.173503
C24	C	0.513587	0.000022	0.103905
C25	C	0.427987	0.000021	0.102541
C26	C	0.359759	0.000020	0.101459
C27	C	1.032258	0.000020	0.096233
C28	C	1.116275	0.000026	0.097578
N29	N	0.893852	-0.206532	0.102012
C30	C	0.945454	-0.751700	0.050461
C31	C	0.945450	-0.668247	0.050466
C32	C	0.893888	-0.626531	0.101995
C33	C	0.842331	-0.668272	0.153527
C34	C	0.842339	-0.751723	0.153524
C35	C	0.842299	-0.331725	0.153538
C36	C	0.842293	-0.248268	0.153535
C37	C	0.945410	-0.248249	0.050480
C38	C	0.945418	-0.331700	0.050478
C39	C	0.893864	-0.373434	0.102012
C40	C	0.893870	-0.463922	0.102006
C41	C	0.893878	-0.536045	0.101997
N42	N	0.893900	0.206566	0.101987
C43	C	0.966647	0.000009	-0.169017
C44	C	0.965385	0.000016	-0.247961
C45	C	0.895789	0.000018	-0.278287
C46	C	0.827451	0.000021	-0.229665
C47	C	0.828714	0.000019	-0.150723
C48	C	0.822356	0.000027	-0.548028
C49	C	0.821098	0.000026	-0.626976
C50	C	0.959026	0.000024	-0.645266
C51	C	0.960289	0.000022	-0.566324
C52	C	0.891952	0.000029	-0.517709
C53	C	0.893321	0.000023	-0.432110
C54	C	0.894419	0.000018	-0.363885
C55	C	0.888093	0.000026	0.240388
C56	C	0.889431	0.000031	0.324406
H57	H	0.250230	0.000038	0.225100
C58	C	0.490431	0.000022	0.248673
C59	C	0.523787	0.000027	0.325227
C60	C	0.470309	0.000034	0.400398
C61	C	0.383476	0.000036	0.399015
C62	C	0.350115	0.000031	0.322459
C63	C	0.403593	0.000024	0.247287
H64	H	0.588070	0.000025	0.326253
H65	H	0.495005	0.000038	0.457070
H66	H	0.343888	0.000042	0.454661
H67	H	0.285831	0.000033	0.321432
H68	H	0.378896	0.000020	0.190615
H69	H	0.987439	-0.785659	0.008497
C70	C	0.747186	0.000018	-0.494558
C71	C	0.670635	0.000007	-0.527919
C72	C	0.595461	-0.000008	-0.474445
C73	C	0.596839	-0.000012	-0.387610
C74	C	0.673394	-0.000001	-0.354245
C75	C	0.748567	0.000014	-0.407719
H76	H	0.669612	0.000009	-0.592203
H77	H	0.538791	-0.000017	-0.499144
H78	H	0.541192	-0.000023	-0.348025
H79	H	0.674417	-0.000004	-0.289961
H80	H	0.805238	0.000022	-0.383020
H81	H	0.140200	0.000030	-0.027432
C82	C	0.785610	-0.622389	0.210210
C83	C	0.785593	-0.530597	0.210215
C84	C	0.728868	-0.484716	0.266898
C85	C	0.672161	-0.530629	0.323577
C86	C	0.672176	-0.622426	0.323575
C87	C	0.728901	-0.668306	0.266891
H88	H	0.827573	-0.496605	0.168256
H89	H	0.728857	-0.416761	0.266900
H90	H	0.630170	-0.496665	0.365538
H91	H	0.630196	-0.656418	0.365533
H92	H	0.728912	-0.736261	0.266890
C93	C	1.002157	-0.622335	-0.006215
C94	C	1.058872	-0.668213	-0.062902
C95	C	1.115581	-0.622299	-0.119585
C96	C	1.115575	-0.530507	-0.119580
C97	C	1.058857	-0.484623	-0.062890
C98	C	1.002148	-0.530537	-0.006207
H99	H	1.058879	-0.736168	-0.062908
H100	H	1.157567	-0.656266	-0.161550
H101	H	1.157554	-0.496518	-0.161539
H102	H	1.058850	-0.416668	-0.062884
H103	H	0.960162	-0.496571	0.035758
C104	C	0.785626	-0.797634	0.210203
C105	C	0.699445	-0.786184	0.209037
C106	C	0.642734	-0.832094	0.265720
C107	C	0.672203	-0.889453	0.323570
C108	C	0.758388	-0.900905	0.324738
C109	C	0.815100	-0.854995	0.268055
H110	H	0.677626	-0.743721	0.166211
H111	H	0.578933	-0.823616	0.264855
H112	H	0.630222	-0.923438	0.365530
H113	H	0.780207	-0.943368	0.367564
H114	H	0.878900	-0.863473	0.268920
H115	H	1.014670	0.000022	-0.684858
H116	H	0.987391	-0.214261	0.008520
H117	H	0.987402	-0.365663	0.008516
H118	H	0.764421	0.000026	-0.651664
H119	H	0.680728	0.000006	-0.018817
C120	C	0.528848	0.000020	-0.040987
C121	C	0.582328	0.000014	-0.116152
C122	C	0.548976	0.000023	-0.192712
C123	C	0.462144	0.000037	-0.194107
C124	C	0.408659	0.000042	-0.118939
C125	C	0.442011	0.000034	-0.042379
H126	H	0.646611	0.000004	-0.115121
H127	H	0.588570	0.000019	-0.248356
H128	H	0.437455	0.000044	-0.250781
H129	H	0.344376	0.000053	-0.119970
H130	H	0.402417	0.000038	0.013265
C131	C	0.785575	-0.202379	0.210224
C132	C	0.728884	-0.248281	0.266927
C133	C	0.672169	-0.202390	0.323612
C134	C	0.672146	-0.110598	0.323595
C135	C	0.728840	-0.064691	0.266890
C136	C	0.785555	-0.110581	0.210205
H137	H	0.728899	-0.316236	0.266942
H138	H	0.630201	-0.236375	0.365589
H139	H	0.630163	-0.076627	0.365556
H140	H	0.728825	0.003264	0.266875
H141	H	0.827523	-0.076597	0.168228
H142	H	1.023320	0.000002	-0.144333
H143	H	0.773070	0.000020	-0.111140
C144	C	1.040552	0.000015	-0.301438
C145	C	1.117106	0.000007	-0.268082
C146	C	1.192277	0.000010	-0.321560
C147	C	1.190894	0.000019	-0.408394
C148	C	1.114337	0.000027	-0.441755
C149	C	1.039166	0.000025	-0.388277
H150	H	1.118132	0.000000	-0.203799
H151	H	1.248949	0.000004	-0.296864
H152	H	1.246540	0.000021	-0.447982
H153	H	1.113311	0.000034	-0.506038
H154	H	0.982494	0.000030	-0.412973
H155	H	0.107020	0.000025	0.222818
H156	H	0.647550	0.000013	0.231432
H157	H	0.283422	0.000027	-0.025143
H158	H	1.016961	0.000017	-0.541638
H159	H	0.800320	-0.365698	0.195497
H160	H	0.770785	0.000027	-0.254362
