data_functionalizedCrystal
_audit_creation_method	'MofGen! by Chris Wilmer'
_symmetry_space_group_name_H-M	'P1'
_symmetry_Int_Tables_number	1
_symmetry_cell_setting	triclinic
loop_
_symmetry_equiv_pos_as_xyz
  x,y,z
_cell_length_a	17.640112
_cell_length_b	18.050589
_cell_length_c	17.640968
_cell_angle_alpha	101.226882
_cell_angle_beta	87.860920
_cell_angle_gamma	101.252307
loop_
_atom_site_label
_atom_site_type_symbol
_atom_site_fract_x
_atom_site_fract_y
_atom_site_fract_z
Zn1	Zn	1.247776	-0.021338	0.195082
Zn2	Zn	1.747776	0.478662	0.695082
Zn3	Zn	1.221993	-0.174558	0.068112
Zn4	Zn	1.721993	0.325442	0.568112
Zn5	Zn	1.095104	-0.069647	0.093732
Zn6	Zn	1.595104	0.430353	0.593732
Zn7	Zn	1.120735	-0.164782	0.220693
Zn8	Zn	1.620735	0.335218	0.720693
O9	O	1.171402	-0.107581	0.144405
O10	O	1.671402	0.392419	0.644405
O11	O	1.350627	-0.025537	0.156798
O12	O	1.850627	0.474463	0.656798
O13	O	1.183644	-0.184950	-0.034761
O14	O	1.683644	0.315050	0.465239
O15	O	1.115420	0.040699	0.107180
O16	O	1.615420	0.540699	0.607180
O17	O	1.331684	-0.138107	0.063514
O18	O	1.831684	0.361893	0.563514
O19	O	1.227588	0.076191	0.181641
O20	O	1.727588	0.576191	0.681641
O21	O	1.090420	-0.107872	-0.015938
O22	O	1.590420	0.392128	0.484062
O23	O	0.992234	-0.098393	0.132014
O24	O	1.492234	0.401607	0.632014
O25	O	1.159104	-0.121445	0.323567
O26	O	1.659104	0.378555	0.823567
O27	O	1.011064	-0.168289	0.225292
O28	O	1.511064	0.331711	0.725292
O29	O	1.252441	-0.016058	0.304750
O30	O	1.752441	0.483942	0.804750
O31	O	1.208498	-0.277199	0.088349
O32	O	1.708498	0.222801	0.588349
O33	O	1.134104	-0.270016	0.200449
O34	O	1.634104	0.229984	0.700449
C35	C	0.974094	-0.137523	0.184213
C36	C	1.474094	0.362477	0.684213
C37	C	0.889689	-0.150346	0.201261
C38	C	1.389689	0.349654	0.701261
C39	C	1.171308	-0.300550	0.144411
C40	C	1.671308	0.199450	0.644411
C41	C	1.171342	-0.383087	0.144424
C42	C	1.671342	0.116913	0.644424
C43	C	0.563038	-0.010153	0.014899
C44	C	1.063038	0.489847	0.514899
C45	C	0.483728	-0.022215	0.030928
C46	C	0.983728	0.477785	0.530928
C47	C	0.503357	-0.095166	0.127891
C48	C	1.003357	0.404834	0.627891
C49	C	0.582671	-0.083107	0.111873
C50	C	1.082671	0.416893	0.611873
C51	C	0.612505	-0.040601	0.055375
C52	C	1.112505	0.459399	0.555375
C53	C	0.632138	-0.113555	0.152349
C54	C	1.132138	0.386445	0.652349
C55	C	0.711444	-0.101501	0.136328
C56	C	1.211444	0.398499	0.636328
C57	C	0.741283	-0.058998	0.079832
C58	C	1.241283	0.441002	0.579832
C59	C	0.691811	-0.028547	0.039354
C60	C	1.191811	0.471453	0.539354
C61	C	0.602302	-0.156066	0.208842
C62	C	1.102302	0.343934	0.708842
C63	C	0.651768	-0.186514	0.249318
C64	C	1.151768	0.313486	0.749318
C65	C	0.731077	-0.174455	0.233302
C66	C	1.231077	0.325545	0.733302
C67	C	0.760916	-0.131952	0.176805
C68	C	1.260916	0.368048	0.676805
C69	C	0.780549	-0.204906	0.273779
C70	C	1.280549	0.295094	0.773779
C71	C	0.859855	-0.192852	0.257758
C72	C	1.359855	0.307148	0.757758
C73	C	0.840222	-0.119898	0.160785
C74	C	1.340222	0.380102	0.660785
C75	C	1.130933	-0.578655	0.205357
C76	C	1.630933	-0.078655	0.705357
C77	C	1.098407	-0.646737	0.139793
C78	C	1.598407	-0.146737	0.639793
C79	C	1.171419	-0.534204	0.144419
C80	C	1.671419	-0.034204	0.644419
C81	C	1.203984	-0.613197	0.209983
C82	C	1.703984	-0.113197	0.709983
C83	C	1.171493	-0.680174	0.144421
C84	C	1.671493	-0.180174	0.644421
C85	C	1.138849	-0.601212	0.078826
C86	C	1.638849	-0.101212	0.578826
C87	C	1.244468	-0.567652	0.149057
C88	C	1.744468	-0.067652	0.649057
C89	C	1.211958	-0.635718	0.083440
C90	C	1.711958	-0.135718	0.583440
C91	C	1.171375	-0.450114	0.144420
C92	C	1.671375	0.049886	0.644420
C93	C	1.171536	-0.764264	0.144412
C94	C	1.671536	-0.264264	0.644412
C95	C	1.369481	-0.077524	0.104442
C96	C	1.869481	0.422476	0.604442
C97	C	1.453890	-0.064715	0.087412
C98	C	1.953890	0.435285	0.587412
C99	C	1.211508	-0.062272	0.342484
C100	C	1.711508	0.437728	0.842484
C101	C	1.228598	-0.042964	0.426893
C102	C	1.728598	0.457036	0.926893
C103	C	1.171521	0.086148	0.144411
C104	C	1.671521	0.586148	0.644411
C105	C	1.171572	0.168704	0.144414
C106	C	1.671572	0.668704	0.644414
C107	C	1.131497	-0.152654	-0.052913
C108	C	1.631497	0.347346	0.447087
C109	C	1.114553	-0.171730	-0.137352
C110	C	1.614553	0.328270	0.362648
C111	C	1.041859	-0.253814	0.753484
C112	C	1.541859	0.246186	1.253484
C113	C	1.057934	-0.235659	0.832796
C114	C	1.557934	0.264341	1.332796
C115	C	1.155117	-0.125928	0.813194
C116	C	1.655117	0.374072	1.313194
C117	C	1.139048	-0.144071	0.733879
C118	C	1.639048	0.355929	1.233879
C119	C	1.082418	-0.208016	0.704030
C120	C	1.582418	0.291984	1.204030
C121	C	1.179607	-0.098273	0.684425
C122	C	1.679607	0.401727	1.184425
C123	C	1.163541	-0.116418	0.605116
C124	C	1.663541	0.383582	1.105116
C125	C	1.106916	-0.180360	0.575261
C126	C	1.606916	0.319640	1.075261
C127	C	1.066352	-0.226160	0.624721
C128	C	1.566352	0.273840	1.124721
C129	C	1.236240	-0.034333	0.714274
C130	C	1.736240	0.465667	1.214274
C131	C	1.276799	0.011465	0.664820
C132	C	1.776799	0.511465	1.164820
C133	C	1.260730	-0.006676	0.585511
C134	C	1.760730	0.493324	1.085511
C135	C	1.204105	-0.070618	0.555656
C136	C	1.704105	0.429382	1.055656
C137	C	1.301293	0.039124	0.536051
C138	C	1.801293	0.539124	1.036051
C139	C	1.285228	0.020980	0.456742
C140	C	1.785228	0.520980	0.956742
C141	C	1.188039	-0.088763	0.476347
C142	C	1.688039	0.411237	0.976347
H143	H	0.864516	-0.085271	0.114790
H144	H	1.364516	0.414729	0.614790
N145	N	0.748364	-0.250749	0.334713
N146	N	1.248364	0.249251	0.834713
H147	H	0.791737	-0.268208	0.357925
H148	H	1.291737	0.231792	0.857925
H149	H	0.709175	-0.297160	0.310388
H150	H	1.209175	0.202840	0.810388
N151	N	1.085479	-0.545656	0.273547
N152	N	1.585479	-0.045656	0.773547
H153	H	1.086182	-0.489613	0.273334
H154	H	1.586182	0.010387	0.773334
H155	H	1.109509	-0.550438	0.323019
H156	H	1.609509	-0.050438	0.823019
H157	H	1.347406	0.091183	0.560365
H158	H	1.847406	0.591183	1.060365
H159	H	1.141907	-0.140817	0.452047
H160	H	1.641907	0.359183	0.952047
H161	H	1.322909	0.063527	0.689134
H162	H	1.822909	0.563527	1.189134
H163	H	1.111265	-0.595430	0.023378
H164	H	1.611265	-0.095430	0.523378
N165	N	1.253550	-0.014746	0.799818
N166	N	1.753550	0.485254	1.299818
H167	H	1.295576	0.032712	0.811223
H168	H	1.795576	0.532712	1.311223
H169	H	1.271307	-0.059244	0.816069
H170	H	1.771307	0.440756	1.316069
H171	H	1.020221	-0.278215	0.600421
H172	H	1.520221	0.221785	1.100421
N173	N	0.619581	-0.232353	0.310254
N174	N	1.119581	0.267647	0.810254
H175	H	0.644388	-0.206380	0.361742
H176	H	1.144388	0.293620	0.861742
H177	H	0.630962	-0.286013	0.295520
H178	H	1.130962	0.213987	0.795520
H179	H	1.318254	0.058274	0.416475
H180	H	1.818254	0.558274	0.916475
N181	N	0.430380	0.010615	-0.012752
N182	N	0.930380	0.510615	0.487248
H183	H	0.390336	-0.032591	-0.041347
H184	H	0.890336	0.467409	0.458653
H185	H	0.461385	0.039368	-0.050933
H186	H	0.961385	0.539368	0.449067
H187	H	1.246217	-0.660517	0.031858
H188	H	1.746217	-0.160517	0.531858
H189	H	1.036667	-0.681002	0.135877
H190	H	1.536667	-0.181002	0.635877
H191	H	1.093839	-0.195135	0.510682
H192	H	1.593839	0.304865	1.010682
N193	N	0.516763	-0.169077	0.226115
N194	N	1.016763	0.330923	0.726115
H195	H	0.505368	-0.200633	0.268039
H196	H	1.005368	0.299367	0.768039
H197	H	0.487157	-0.197450	0.177813
H198	H	0.987157	0.302550	0.677813
N199	N	1.326240	-0.522257	0.154285
N200	N	1.826240	-0.022257	0.654285
H201	H	1.350775	-0.526069	0.203857
H202	H	1.850775	-0.026069	0.703857
H203	H	1.325559	-0.466553	0.153698
H204	H	1.825559	0.033447	0.653698
N205	N	1.240429	-0.621001	0.283422
N206	N	1.740429	-0.121001	0.783422
H207	H	1.209773	-0.600157	0.329415
H208	H	1.709773	-0.100157	0.829415
H209	H	1.295285	-0.591025	0.287325
H210	H	1.795285	-0.091025	0.787325
H211	H	0.995727	-0.305868	0.729184
H212	H	1.495727	0.194132	1.229184
N213	N	0.471177	-0.141015	0.188822
N214	N	0.971177	0.358985	0.688822
H215	H	0.413430	-0.144034	0.192828
H216	H	0.913430	0.355966	0.692828
H217	H	0.496039	-0.115015	0.240275
H218	H	0.996039	0.384985	0.740275
H219	H	1.024902	-0.272958	0.873060
H220	H	1.524902	0.227042	1.373060
N221	N	1.216196	-0.056964	0.845389
N222	N	1.716196	0.443036	1.345389
H223	H	1.220221	-0.052419	0.903135
H224	H	1.720221	0.447581	1.403135
H225	H	1.201596	-0.008885	0.833915
H226	H	1.701596	0.491115	1.333915
H227	H	0.716105	0.006080	-0.006640
H228	H	1.216105	0.506080	0.493360
N229	N	0.826820	-0.046001	0.062548
N230	N	1.326820	0.453999	0.562548
H231	H	0.856495	-0.017599	0.110803
H232	H	1.356495	0.482401	0.610803
H233	H	0.838145	-0.014478	0.020594
H234	H	1.338145	0.485522	0.520594
H235	H	0.587332	0.024473	-0.031096
H236	H	1.087332	0.524473	0.468904
H237	H	0.900133	-0.217645	0.290719
H238	H	1.400133	0.282355	0.790719
