data_functionalizedCrystal
_audit_creation_method	'MofGen! by Chris Wilmer'
_symmetry_space_group_name_H-M	'P1'
_symmetry_Int_Tables_number	1
_symmetry_cell_setting	triclinic
loop_
_symmetry_equiv_pos_as_xyz
  x,y,z
_cell_length_a	14.044220
_cell_length_b	16.992694
_cell_length_c	16.053802
_cell_angle_alpha	92.750953
_cell_angle_beta	92.799619
_cell_angle_gamma	88.071450
loop_
_atom_site_label
_atom_site_type_symbol
_atom_site_fract_x
_atom_site_fract_y
_atom_site_fract_z
O1	O	0.198305	-1.057564	-0.069327
O2	O	0.196087	-0.829125	-0.069352
O3	O	0.058952	-0.939916	-0.069331
O4	O	0.335440	-0.946774	-0.069347
O5	O	0.066468	-0.933815	0.069526
O6	O	0.203602	-0.823025	0.069506
O7	O	0.205821	-1.051464	0.069531
Zn8	Zn	0.205905	-0.936276	0.091565
Zn9	Zn	0.196003	-0.944313	-0.091386
O10	O	0.342955	-0.940673	0.069511
C11	C	0.027168	-0.933863	0.000098
C12	C	-0.078736	-0.924909	0.000098
C13	C	0.196993	-0.796663	0.000074
C14	C	0.188484	-0.709024	0.000065
C15	C	0.204915	-1.083926	0.000103
C16	C	0.213424	-1.171565	0.000107
C17	C	-0.272638	-0.908540	0.000084
C18	C	-0.325460	-0.972046	0.000088
C19	C	-0.433354	-0.962938	0.000080
C20	C	-0.164734	-0.917647	0.000091
C21	C	0.374740	-0.946726	0.000080
C22	C	0.480643	-0.955680	0.000074
N23	N	0.212662	-0.930796	0.216425
C24	C	0.270580	-0.664526	0.000061
C25	C	0.262581	-0.582179	0.000073
C26	C	0.172483	-0.544333	0.000083
C27	C	0.090381	-0.588837	0.000090
C28	C	0.098382	-0.671182	0.000084
C29	C	0.139322	-0.298414	0.000107
C30	C	0.131327	-0.216063	0.000111
C31	C	0.303528	-0.209412	0.000096
C32	C	0.311521	-0.291759	0.000085
C33	C	0.229419	-0.336255	0.000096
N34	N	0.164304	-0.460161	0.000093
N35	N	0.237599	-0.420425	0.000092
N36	N	0.189239	-0.949799	-0.216245
C37	C	0.154335	-0.977958	0.260127
C38	C	0.159071	-0.974132	0.347533
C39	C	0.222140	-0.923149	0.391235
C40	C	0.280470	-0.875982	0.347526
C41	C	0.275728	-0.879804	0.260122
C42	C	0.242827	-0.906453	0.652642
C43	C	0.247566	-0.902637	0.740052
C44	C	0.126165	-1.000787	0.740053
C45	C	0.121433	-1.004608	0.652647
C46	C	0.179759	-0.957438	0.608946
N47	N	0.226985	-0.919240	0.480578
N48	N	0.174909	-0.961343	0.519604
H49	H	-0.289655	-1.033258	0.000039
O50	O	0.338638	-0.828925	0.212993
H51	H	0.293424	-0.789544	0.173198
H52	H	0.102981	-1.019477	0.224551
O53	O	-0.320068	-0.827466	0.000084
H54	H	-0.301264	-0.797475	-0.056514
O55	O	0.367758	-0.705345	0.000058
H56	H	0.423500	-0.660565	0.000069
O57	O	0.351126	-0.534182	0.000069
H58	H	0.415120	-0.574333	0.000051
O59	O	0.408698	-0.332579	0.000095
H60	H	0.464444	-0.287801	0.000107
O61	O	0.315586	-0.847642	0.787198
H62	H	0.297822	-0.786075	0.770445
O63	O	0.392080	-0.161421	0.000101
H64	H	0.371385	-0.097802	0.000117
O65	O	0.034147	-0.175238	0.000130
H66	H	-0.021600	-0.220012	0.000145
H67	H	0.072468	-0.334634	0.000117
O68	O	-0.006800	-0.548022	0.000104
H69	H	0.001427	-0.483287	0.000099
O70	O	0.009837	-0.719183	0.000091
H71	H	-0.036049	-0.707462	-0.056504
O72	O	0.096180	-1.025015	0.394673
H73	H	0.051542	-1.061121	0.349600
O74	O	0.348502	-0.820999	0.394663
H75	H	0.388261	-0.788843	0.349587
H76	H	0.070077	-1.046122	0.617066
O77	O	0.063249	-1.051655	0.787185
H78	H	0.077133	-1.040430	0.855305
H79	H	0.290320	-0.868047	0.617067
