data_functionalizedCrystal
_audit_creation_method	'MofGen! by Chris Wilmer'
_symmetry_space_group_name_H-M	'P1'
_symmetry_Int_Tables_number	1
_symmetry_cell_setting	triclinic
loop_
_symmetry_equiv_pos_as_xyz
  x,y,z
_cell_length_a	19.288864
_cell_length_b	19.288865
_cell_length_c	17.766277
_cell_angle_alpha	90.012963
_cell_angle_beta	90.012907
_cell_angle_gamma	83.136245
loop_
_atom_site_label
_atom_site_type_symbol
_atom_site_fract_x
_atom_site_fract_y
_atom_site_fract_z
O1	O	-0.921342	-0.086651	-0.062844
O2	O	-0.719082	-0.098340	-0.062794
O3	O	-0.826056	0.008635	-0.062806
O4	O	-0.814368	-0.193626	-0.062832
O5	O	-0.826059	0.008645	0.062383
O6	O	-0.719084	-0.098329	0.062395
O7	O	-0.921345	-0.086641	0.062344
Cu8	Cu	-0.820215	-0.092484	0.073800
Cu9	Cu	-0.820212	-0.092497	-0.074250
O10	O	-0.814370	-0.193615	0.062356
C11	C	-0.693207	-0.097959	-0.000193
C12	C	-0.616103	-0.096830	-0.000173
C13	C	-0.825682	0.034516	-0.000209
C14	C	-0.824553	0.111620	-0.000202
C15	C	-0.947220	-0.087022	-0.000258
C16	C	-1.024324	-0.088151	-0.000283
C17	C	-0.571407	-0.159598	-0.000193
C18	C	-0.498960	-0.158537	-0.000201
C19	C	-0.471212	-0.094705	-0.000205
C20	C	-0.515918	-0.031929	-0.000180
C21	C	-0.588364	-0.032991	-0.000164
C22	C	-0.362949	-0.044529	-0.044082
C23	C	-0.290505	-0.043469	-0.044103
C24	C	-0.247767	-0.091425	-0.000250
C25	C	-0.277480	-0.140452	0.043614
C26	C	-0.349926	-0.141515	0.043630
C27	C	-0.392658	-0.093546	-0.000221
C28	C	-0.124514	-0.153047	-0.000278
C29	C	-0.052066	-0.151984	-0.000281
C30	C	-0.069026	-0.025374	-0.000267
C31	C	-0.141473	-0.026439	-0.000256
C32	C	-0.169212	-0.090278	-0.000265
C33	C	-0.814745	-0.219497	-0.000242
C34	C	-0.815874	-0.296601	-0.000254
C35	C	-0.887321	0.156316	-0.000214
C36	C	-0.886260	0.228763	-0.000226
C37	C	-0.822428	0.256511	-0.000210
C38	C	-0.759652	0.211805	-0.000203
C39	C	-0.760714	0.139359	-0.000198
C40	C	-0.772249	0.364802	0.043653
C41	C	-0.771189	0.437246	0.043654
C42	C	-0.819148	0.479956	-0.000226
C43	C	-0.868179	0.450215	-0.044097
C44	C	-0.869241	0.377769	-0.044093
C45	C	-0.821269	0.335065	-0.000215
C46	C	-0.880770	0.603209	-0.000252
C47	C	-0.879707	0.675657	-0.000268
C48	C	-0.753097	0.658697	-0.000238
C49	C	-0.754162	0.586250	-0.000229
C50	C	-0.818000	0.558511	-0.000232
N51	N	-0.820210	-0.092501	-0.178380
C52	C	-0.867663	-0.045224	-0.217772
C53	C	-0.867669	-0.045223	-0.296574
C54	C	-0.820210	-0.092492	-0.335981
C55	C	-0.772754	-0.139777	-0.296579
C56	C	-0.772754	-0.139781	-0.217779
C57	C	-0.756923	-0.101637	-0.460811
C58	C	-0.756922	-0.101627	-0.539610
C59	C	-0.820210	-0.092482	-0.579027
C60	C	-0.883503	-0.083330	-0.539636
C61	C	-0.883503	-0.083335	-0.460836
C62	C	-0.820205	-0.092492	-0.421426
C63	C	-0.867673	-0.045202	-0.703865
C64	C	-0.867680	-0.045205	-0.782668
C65	C	-0.772760	-0.139755	-0.782672
C66	C	-0.772759	-0.139755	-0.703870
C67	C	-0.820215	-0.092474	-0.664471
N68	N	-0.820222	-0.092475	0.177931
H69	H	-0.593987	-0.211580	-0.000202
Cl70	Cl	-0.930872	0.340381	-0.099247
Cl71	Cl	-0.711953	0.311117	0.098824
H72	H	-0.734112	-0.178280	-0.185705
H73	H	-0.734114	-0.178264	-0.328668
Cl74	Cl	-0.927336	0.014233	-0.654334
H75	H	-0.734116	-0.178249	-0.671795
Cl76	Cl	-0.442760	-0.237451	-0.000225
H77	H	-0.701123	0.681288	-0.000229
Cl78	Cl	-0.927328	0.014216	-0.346104
H79	H	-0.703049	0.549857	-0.000215
Cl80	Cl	-0.677357	-0.113193	-0.589122
H81	H	-0.935037	-0.075886	-0.428766
Cl82	Cl	-0.253157	0.018157	-0.099252
H83	H	-0.397742	-0.005477	-0.079797
H84	H	-0.930822	0.712049	-0.000282
H85	H	-0.935039	-0.075888	-0.571728
Cl86	Cl	-0.709554	0.474629	0.098808
H87	H	-0.493322	0.020044	-0.000193
Cl88	Cl	-0.387278	-0.203143	0.098773
H89	H	-0.242684	-0.179502	0.079324
H90	H	-0.906326	-0.006709	-0.814742
Cl91	Cl	0.004125	-0.230900	-0.000303
Cl92	Cl	-0.713103	-0.199184	-0.832206
H93	H	-0.707679	0.234401	-0.000192
Cl94	Cl	-0.677352	-0.113138	-0.411266
H95	H	-0.147101	-0.205028	-0.000274
Cl96	Cl	-0.644557	0.045924	-0.000140
H97	H	-0.177866	0.024674	-0.000244
Cl98	Cl	-0.034151	0.054873	-0.000262
Cl99	Cl	-0.928473	0.503899	-0.099266
H100	H	-0.709599	0.102967	-0.000188
Cl101	Cl	-0.967575	0.121448	-0.000240
H102	H	-0.932751	0.580622	-0.000258
Cl103	Cl	-0.965174	0.284963	-0.000241
H104	H	-0.906306	-0.006727	-0.185696
