data_functionalizedCrystal
_audit_creation_method	'MofGen! by Chris Wilmer'
_symmetry_space_group_name_H-M	'P1'
_symmetry_Int_Tables_number	1
_symmetry_cell_setting	triclinic
loop_
_symmetry_equiv_pos_as_xyz
  x,y,z
_cell_length_a	6.817900
_cell_length_b	15.300912
_cell_length_c	10.992410
_cell_angle_alpha	93.552804
_cell_angle_beta	108.764651
_cell_angle_gamma	104.173621
loop_
_atom_site_label
_atom_site_type_symbol
_atom_site_fract_x
_atom_site_fract_y
_atom_site_fract_z
V1	V	-4.090822	-0.124758	-0.400983
O2	O	-4.073502	0.005995	-0.392949
O3	O	-4.045377	-0.247375	-0.398626
O4	O	-4.068775	-0.122839	-0.575689
O5	O	-4.049942	-0.119402	-0.214660
V6	V	-4.570653	-0.109119	-0.378650
O7	O	-4.360181	-0.159065	-0.449971
O8	O	-4.751491	-0.074812	-0.329662
O9	O	-4.392891	0.013498	-0.381007
O10	O	-4.705370	-0.239872	-0.386684
O11	O	-4.728929	-0.114474	-0.564973
O12	O	-4.369494	-0.111038	-0.203944
C13	C	-3.890244	-0.277266	-0.392400
C14	C	-3.934550	-0.377506	-0.391637
C15	C	-4.308686	-0.813871	-0.394781
C16	C	-4.267036	-0.719683	-0.395489
C17	C	-4.063003	-0.668003	-0.389425
C18	C	-3.900603	-0.710514	-0.382640
C19	C	-3.942250	-0.804699	-0.381923
C20	C	-3.813813	-0.514203	-0.384137
C21	C	-3.772164	-0.420011	-0.384857
C22	C	-4.138599	-0.429187	-0.397703
C23	C	-4.180245	-0.523372	-0.396986
C24	C	-4.017843	-0.565877	-0.390204
C25	C	-3.920089	-0.118407	-0.618260
C26	C	-3.983365	-0.117650	-0.761086
C27	C	-3.851785	-0.110746	-0.956188
C28	C	-3.786016	-0.111908	-0.807708
C29	C	-4.164687	-0.206558	-0.838468
C30	C	-4.229148	-0.205772	-0.987032
C31	C	-4.139241	-0.033613	-0.948462
C32	C	-4.068611	-0.033192	-0.799448
C33	C	-4.211366	0.043384	-0.387230
C34	C	-4.146299	0.143624	-0.388000
C35	C	-4.181521	-0.115472	-0.161366
C36	C	-4.097482	-0.116226	-0.018539
H37	H	-4.346389	-0.565449	-0.401934
H38	H	-4.210920	-0.032148	-0.766933
H39	H	-3.681570	-0.548808	-0.378626
C40	C	-3.601867	-0.025467	-0.735455
C41	C	-3.386710	-0.006593	-0.760389
C42	C	-3.202648	0.079889	-0.688184
C43	C	-3.233742	0.147498	-0.591045
C44	C	-3.448908	0.128626	-0.566106
C45	C	-3.632970	0.042143	-0.638311
H46	H	-3.363684	-0.056643	-0.832301
H47	H	-3.043367	0.093859	-0.706646
H48	H	-3.097488	0.211517	-0.537595
H49	H	-3.471934	0.178675	-0.494194
H50	H	-3.792250	0.028174	-0.619849
H51	H	-3.815702	-0.170104	-1.004366
H52	H	-3.734469	-0.668427	-0.377694
H53	H	-3.810021	-0.839306	-0.376412
C54	C	-3.709771	-0.023792	-0.981363
C55	C	-3.734433	-0.007695	-1.121767
C56	C	-3.592426	0.079262	-1.146954
C57	C	-3.425755	0.150122	-1.031737
C58	C	-3.401086	0.134027	-0.891324
C59	C	-3.543093	0.047070	-0.866136
H60	H	-3.857819	-0.060152	-1.207066
H61	H	-3.610689	0.091176	-1.250898
H62	H	-3.320633	0.214492	-1.050383
H63	H	-3.277700	0.186483	-0.806025
H64	H	-3.524830	0.035156	-0.762192
H65	H	-3.717536	-0.172090	-0.783081
H66	H	-4.317618	-0.036844	-0.989313
H67	H	-4.201840	-0.268324	-1.033498
C68	C	-4.365958	-0.216584	-0.799588
C69	C	-4.368017	-0.143982	-0.696877
C70	C	-4.569284	-0.154007	-0.657993
C71	C	-4.768492	-0.236634	-0.721820
C72	C	-4.766440	-0.309243	-0.824538
C73	C	-4.565173	-0.299218	-0.863422
H74	H	-4.220545	-0.082811	-0.649622
H75	H	-4.570802	-0.100257	-0.581954
H76	H	-4.917482	-0.244055	-0.693036
H77	H	-4.913913	-0.370413	-0.871793
H78	H	-4.563656	-0.352967	-0.939460
C79	C	-4.086973	-0.291275	-0.804155
C80	C	-4.021442	-0.309990	-0.662666
C81	C	-3.943714	-0.394704	-0.628354
C82	C	-3.931516	-0.460702	-0.735532
C83	C	-3.997049	-0.441988	-0.877030
C84	C	-4.074777	-0.357274	-0.911341
H85	H	-4.030470	-0.261133	-0.583318
H86	H	-3.895203	-0.408557	-0.523607
H87	H	-3.873977	-0.523412	-0.710132
H88	H	-3.988021	-0.490845	-0.956378
H89	H	-4.123288	-0.343421	-1.016088
H90	H	-4.049004	0.033902	-0.968610
H91	H	-4.474832	-0.855944	-0.399727
H92	H	-4.399274	-0.685081	-0.401016
H93	H	-4.270830	-0.394575	-0.403223
H94	H	-3.606028	-0.377936	-0.379925
H95	H	-3.937707	0.032579	-0.746885
H96	H	-4.409698	-0.213503	-1.029687
