data_functionalizedCrystal
_audit_creation_method	'MofGen! by Chris Wilmer'
_symmetry_space_group_name_H-M	'P1'
_symmetry_Int_Tables_number	1
_symmetry_cell_setting	triclinic
loop_
_symmetry_equiv_pos_as_xyz
  x,y,z
_cell_length_a	14.044191
_cell_length_b	10.489716
_cell_length_c	13.101039
_cell_angle_alpha	93.400284
_cell_angle_beta	86.337551
_cell_angle_gamma	88.860456
loop_
_atom_site_label
_atom_site_type_symbol
_atom_site_fract_x
_atom_site_fract_y
_atom_site_fract_z
O1	O	1.264956	0.301341	-0.085148
O2	O	1.764956	0.801341	0.414852
O3	O	0.988912	0.290226	-0.085161
O4	O	1.488912	0.790226	0.414839
O5	O	1.133228	0.110822	-0.085158
O6	O	1.633228	0.610822	0.414842
O7	O	1.120640	0.480745	-0.085151
O8	O	1.620640	0.980745	0.414849
O9	O	1.122873	0.123717	0.085272
O10	O	1.622873	0.623717	0.585272
O11	O	0.978558	0.303121	0.085268
O12	O	1.478558	0.803121	0.585268
O13	O	1.254602	0.314237	0.085282
O14	O	1.754602	0.814237	0.585282
Zn15	Zn	1.114936	0.310726	0.112335
Zn16	Zn	1.614936	0.810726	0.612335
Zn17	Zn	1.128578	0.293736	-0.112214
Zn18	Zn	1.628578	0.793736	0.387786
O19	O	1.110286	0.493641	0.085279
O20	O	1.610286	0.993641	0.585279
C21	C	0.948388	0.291811	0.000052
C22	C	1.448388	0.791811	0.500052
C23	C	0.843064	0.277307	0.000046
C24	C	1.343064	0.777307	0.500046
C25	C	1.127105	0.069641	0.000054
C26	C	1.627105	0.569641	0.500054
C27	C	1.124276	-0.072277	0.000044
C28	C	1.624276	0.427723	0.500044
C29	C	0.593293	0.353654	0.000058
C30	C	1.093293	0.853654	0.500058
C31	C	0.650227	0.250813	0.000054
C32	C	1.150227	0.750813	0.500054
C33	C	0.757531	0.265558	0.000050
C34	C	1.257531	0.765558	0.500050
C35	C	0.485979	0.338911	0.000062
C36	C	0.985979	0.838911	0.500062
C37	C	1.212774	-0.160971	0.000058
C38	C	1.712774	0.339029	0.500058
C39	C	1.171115	-0.249435	-0.083972
C40	C	1.671115	0.250565	0.416028
C41	C	1.160886	-0.236687	0.084058
C42	C	1.660886	0.263313	0.584058
C43	C	1.082658	-0.158877	-0.084055
C44	C	1.582658	0.341123	0.415945
C45	C	1.072437	-0.146117	0.084050
C46	C	1.572437	0.353883	0.584050
C47	C	1.030714	-0.234539	-0.000001
C48	C	1.530714	0.265461	0.499999
C49	C	1.295126	0.312651	0.000067
C50	C	1.795126	0.812651	0.500067
C51	C	1.400450	0.327154	0.000066
C52	C	1.900450	0.827154	0.500066
C53	C	1.116409	0.534821	0.000065
C54	C	1.616409	1.034821	0.500065
C55	C	1.119238	0.676739	0.000067
C56	C	1.619238	1.176739	0.500067
N57	N	1.105632	0.322322	0.265583
N58	N	1.605632	0.822322	0.765583
N59	N	1.137889	0.282132	-0.265462
N60	N	1.637889	0.782132	0.234538
C61	C	1.092974	0.338109	0.474625
C62	C	1.592974	0.838109	0.974625
C63	C	1.150544	0.266348	0.525502
C64	C	1.650544	0.766348	1.025502
C65	C	1.143501	0.275132	0.641820
C66	C	1.643501	0.775132	1.141820
C67	C	1.100016	0.329326	0.358296
C68	C	1.600016	0.829326	0.858296
H69	H	0.618386	0.151689	-0.000020
H70	H	1.118386	0.651689	0.499980
H71	H	1.205120	0.198315	0.481701
H72	H	1.705120	0.698315	0.981701
Cl73	Cl	0.642458	0.506676	0.000048
Cl74	Cl	1.142458	1.006676	0.500048
H75	H	1.038403	0.406139	0.518421
H76	H	1.538403	0.906139	1.018421
Cl77	Cl	1.331628	-0.110817	-0.000063
Cl78	Cl	1.831628	0.389183	0.499937
H79	H	1.212789	-0.294514	-0.155012
H80	H	1.712789	0.205486	0.344988
Cl81	Cl	1.211927	-0.289648	0.193739
Cl82	Cl	1.711927	0.210352	0.693739
Cl83	Cl	0.911781	-0.284338	-0.000072
Cl84	Cl	1.411781	0.215662	0.499928
H85	H	1.049640	-0.124743	-0.155175
H86	H	1.549640	0.375257	0.344825
H87	H	1.030795	-0.101011	0.155092
H88	H	1.530795	0.398989	0.655092
