data_functionalizedCrystal
_audit_creation_method	'MofGen! by Chris Wilmer'
_symmetry_space_group_name_H-M	'P1'
_symmetry_Int_Tables_number	1
_symmetry_cell_setting	triclinic
loop_
_symmetry_equiv_pos_as_xyz
  x,y,z
_cell_length_a	10.686220
_cell_length_b	16.625539
_cell_length_c	10.686285
_cell_angle_alpha	94.392139
_cell_angle_beta	89.654569
_cell_angle_gamma	94.350309
loop_
_atom_site_label
_atom_site_type_symbol
_atom_site_fract_x
_atom_site_fract_y
_atom_site_fract_z
Zn1	Zn	1.956165	-0.342920	0.352082
Zn2	Zn	2.456165	0.157080	0.852082
Zn3	Zn	1.972163	-0.197047	0.561874
Zn4	Zn	2.472163	0.302953	1.061874
Zn5	Zn	1.746396	-0.217581	0.368240
Zn6	Zn	2.246396	0.282419	0.868240
Zn7	Zn	1.762490	-0.341319	0.577904
Zn8	Zn	2.262490	0.158681	1.077904
O9	O	1.859304	-0.274716	0.465025
O10	O	2.359304	0.225284	0.965025
O11	O	2.133825	-0.315646	0.366441
O12	O	2.633825	0.184354	0.866441
O13	O	1.942175	-0.086937	0.536241
O14	O	2.442175	0.413063	1.036241
O15	O	1.760791	-0.243471	0.190553
O16	O	2.260791	0.256529	0.690553
O17	O	2.145579	-0.208473	0.520574
O18	O	2.645579	0.291527	1.020574
O19	O	1.914907	-0.335557	0.178682
O20	O	2.414907	0.164443	0.678682
O21	O	1.776305	-0.102024	0.393979
O22	O	2.276305	0.397976	0.893979
O23	O	1.572993	-0.241918	0.409522
O24	O	2.072993	0.258082	0.909522
O25	O	1.788221	-0.454364	0.547894
O26	O	2.288221	0.045636	1.047894
O27	O	1.584817	-0.332828	0.563562
O28	O	2.084817	0.167172	1.063562
O29	O	1.930513	-0.455540	0.381984
O30	O	2.430513	0.044460	0.881984
O31	O	1.957781	-0.206921	0.739544
O32	O	2.457781	0.293079	1.239544
O33	O	1.803735	-0.312917	0.751321
O34	O	2.303735	0.187083	1.251321
C35	C	1.533390	-0.289428	0.490036
C36	C	2.033390	0.210572	0.990036
C37	C	1.393965	-0.295739	0.500766
C38	C	1.893965	0.204261	1.000766
C39	C	1.859378	-0.485027	0.464925
C40	C	2.359378	0.014973	0.964925
C41	C	1.859410	-0.574648	0.464883
C42	C	2.359410	-0.074648	0.964883
C43	C	1.859457	-0.902829	0.464738
C44	C	2.359457	-0.402829	0.964738
C45	C	1.859440	-0.811519	0.464782
C46	C	2.359440	-0.311519	0.964782
C47	C	1.859434	-0.738741	0.464811
C48	C	2.359434	-0.238741	0.964811
C49	C	1.859416	-0.647426	0.464854
C50	C	2.359416	-0.147426	0.964854
C51	C	2.186490	-0.259948	0.439917
C52	C	2.686490	0.240052	0.939917
C53	C	2.325917	-0.253654	0.429218
C54	C	2.825917	0.246346	0.929218
C55	C	1.884274	-0.257533	0.790946
C56	C	2.384274	0.242467	1.290946
C57	C	1.895072	-0.250204	0.930368
C58	C	2.395072	0.249796	1.430368
C59	C	1.859295	-0.065226	0.465028
C60	C	2.359295	0.434774	0.965028
C61	C	1.859479	0.024388	0.464699
C62	C	2.359479	0.524388	0.964699
C63	C	1.834270	-0.291983	0.137828
C64	C	2.334270	0.208017	0.637828
C65	C	1.823601	-0.299341	-0.001604
C66	C	2.323601	0.200659	0.498396
H67	H	1.345554	-0.336597	0.570241
H68	H	1.845554	0.163403	1.070241
H69	H	1.964515	-0.202519	0.978795
H70	H	2.464515	0.297481	1.478795
O71	O	1.390019	-0.199532	0.337191
O72	O	1.890019	0.300468	0.837191
H73	H	1.493141	-0.202909	0.342910
H74	H	1.993141	0.297091	0.842910
O75	O	1.731613	-0.362504	0.934272
O76	O	2.231613	0.137496	1.434272
H77	H	1.737296	-0.358551	0.831154
H78	H	2.237296	0.141449	1.331154
