data_functionalizedCrystal
_audit_creation_method	'MofGen! by Chris Wilmer'
_symmetry_space_group_name_H-M	'P1'
_symmetry_Int_Tables_number	1
_symmetry_cell_setting	triclinic
loop_
_symmetry_equiv_pos_as_xyz
  x,y,z
_cell_length_a	15.537862
_cell_length_b	10.654550
_cell_length_c	9.730223
_cell_angle_alpha	90.003749
_cell_angle_beta	89.997863
_cell_angle_gamma	114.125332
loop_
_atom_site_label
_atom_site_type_symbol
_atom_site_fract_x
_atom_site_fract_y
_atom_site_fract_z
O1	O	0.131918	-1.606154	-0.114402
O2	O	0.144487	-1.234799	-0.114380
O3	O	0.001538	-1.492779	-0.114383
O4	O	0.274867	-1.348175	-0.114398
O5	O	0.001542	-1.492775	0.114196
O6	O	0.144491	-1.234795	0.114200
O7	O	0.131922	-1.606150	0.114178
Zn8	Zn	0.138207	-1.420472	0.150481
Zn9	Zn	0.138202	-1.420477	-0.150683
O10	O	0.274870	-1.348171	0.114182
C11	C	0.143566	-1.188431	-0.000087
C12	C	0.140805	-1.050279	-0.000078
C13	C	-0.033458	-1.507907	-0.000094
C14	C	-0.137743	-1.552974	-0.000097
C15	C	0.132843	-1.652519	-0.000118
C16	C	0.135604	-1.790671	-0.000136
C17	C	-0.295178	-1.735651	-0.000108
C18	C	-0.197186	-1.693290	-0.000105
C19	C	-0.176277	-1.454964	-0.000098
C20	C	-0.274270	-1.497305	-0.000108
C21	C	-0.333713	-1.637651	-0.000111
C22	C	-0.312804	-1.399305	-0.000111
C23	C	-0.410789	-1.441644	-0.000113
C24	C	-0.470238	-1.581983	-0.000112
C25	C	-0.431697	-1.679990	-0.000114
C26	C	-0.253359	-1.258960	-0.000097
C27	C	-0.291894	-1.160960	-0.000100
C28	C	-0.389880	-1.203298	-0.000113
C29	C	-0.449329	-1.343637	-0.000112
C30	C	-0.428421	-1.105292	-0.000111
C31	C	-0.526405	-1.147631	-0.000114
C32	C	-0.547314	-1.385976	-0.000114
C33	C	0.309867	-1.333043	-0.000111
C34	C	0.414152	-1.287976	-0.000117
N35	N	0.138209	-1.420478	0.356017
C36	C	0.224971	-0.931440	-0.000103
C37	C	0.222371	-0.801635	-0.000127
C38	C	0.051432	-0.909523	-0.000107
C39	C	0.054033	-1.039325	-0.000073
C40	C	0.323661	-0.869151	-0.000120
C41	C	0.321061	-0.739346	-0.000144
N42	N	0.138192	-1.420485	-0.356219
C43	C	0.074933	-1.534723	0.427942
C44	C	0.074922	-1.534725	0.571825
C45	C	0.201471	-1.306229	0.571846
C46	C	0.201477	-1.306225	0.427966
C47	C	0.001874	-1.666646	0.427931
C48	C	0.001863	-1.666648	0.571814
H49	H	-0.595716	-1.500259	-0.000138
H50	H	0.252981	-1.213207	0.630442
H51	H	-0.173575	-1.224493	-0.000087
H52	H	0.362260	-0.880434	0.095543
H53	H	-0.550023	-1.616453	-0.000120
H54	H	0.358245	-0.680229	-0.095814
H55	H	-0.480100	-1.794273	-0.000137
H56	H	0.355084	-0.890115	-0.098810
H57	H	0.350888	-0.679728	0.098538
H58	H	-0.343581	-1.849934	-0.000132
H59	H	-0.165816	-1.773104	-0.000101
H60	H	0.252993	-1.213191	0.369406
H61	H	-0.070319	-1.678958	0.388882
H62	H	0.024750	-1.747134	0.383297
H63	H	-0.066359	-1.668033	0.616435
H64	H	0.017955	-1.755635	0.610857
H65	H	-0.127865	-1.340694	-0.000091
H66	H	-0.380008	-0.991023	-0.000095
H67	H	-0.243482	-1.046691	-0.000093
H68	H	-0.019216	-0.900587	-0.000124
H69	H	-0.557780	-1.067829	-0.000100
H70	H	-0.014503	-1.136083	-0.000034
