data_functionalizedCrystal
_audit_creation_method	'MofGen! by Chris Wilmer'
_symmetry_space_group_name_H-M	'P1'
_symmetry_Int_Tables_number	1
_symmetry_cell_setting	triclinic
loop_
_symmetry_equiv_pos_as_xyz
  x,y,z
_cell_length_a	6.817900
_cell_length_b	19.551823
_cell_length_c	12.908943
_cell_angle_alpha	96.125540
_cell_angle_beta	100.860631
_cell_angle_gamma	101.663376
loop_
_atom_site_label
_atom_site_type_symbol
_atom_site_fract_x
_atom_site_fract_y
_atom_site_fract_z
V1	V	-3.987271	-0.095801	-0.329170
O2	O	-3.984823	0.005501	-0.322397
O3	O	-3.930125	-0.190821	-0.327407
O4	O	-3.925722	-0.093934	-0.472510
O5	O	-3.989257	-0.092057	-0.176289
V6	V	-4.473735	-0.083731	-0.310825
O7	O	-4.242076	-0.122279	-0.369412
O8	O	-4.669128	-0.057254	-0.270584
O9	O	-4.307674	0.011289	-0.312589
O10	O	-4.593580	-0.185034	-0.317599
O11	O	-4.589146	-0.087476	-0.463707
O12	O	-4.312078	-0.085598	-0.167485
C13	C	-3.773424	-0.213997	-0.322340
C14	C	-3.807900	-0.291675	-0.321854
C15	C	-3.767806	-0.090407	-0.507433
C16	C	-3.798709	-0.089509	-0.624617
C17	C	-4.005379	-0.331707	-0.326897
C18	C	-4.037776	-0.404694	-0.326450
C19	C	-3.872677	-0.437644	-0.320939
C20	C	-3.675172	-0.397603	-0.315902
C21	C	-3.642784	-0.324619	-0.316359
C22	C	-3.765580	-0.544309	-0.254094
C23	C	-3.797974	-0.617292	-0.253630
C24	C	-3.972568	-0.662754	-0.319534
C25	C	-4.114794	-0.635223	-0.385889
C26	C	-4.082406	-0.562238	-0.386346
C27	C	-3.907777	-0.516784	-0.320444
C28	C	-4.205189	-0.781928	-0.324095
C29	C	-4.237582	-0.854917	-0.323655
C30	C	-3.874968	-0.847823	-0.313096
C31	C	-3.842585	-0.774837	-0.313547
C32	C	-4.007701	-0.741893	-0.319041
C33	C	-4.219391	-0.094755	-0.855590
C34	C	-4.248436	-0.093912	-0.965696
C35	C	-3.885845	-0.086974	-0.954934
C36	C	-3.856800	-0.087817	-0.844829
C37	C	-4.023581	-0.091709	-0.795161
C38	C	-3.994536	-0.092558	-0.685055
C39	C	-3.631944	-0.085614	-0.674294
C40	C	-3.660990	-0.084771	-0.784400
C41	C	-4.127718	0.034461	-0.317653
C42	C	-4.072479	0.112138	-0.318146
C43	C	-4.133336	-0.089128	-0.132558
C44	C	-4.081672	-0.090022	-0.015372
H45	H	-4.198593	-0.437295	-0.330557
H46	H	-3.681775	-0.742241	-0.309433
H47	H	-3.525207	-0.081600	-0.824854
N48	N	-3.644540	-0.646972	-0.182073
H49	H	-3.587505	-0.680367	-0.226960
H50	H	-3.714419	-0.673302	-0.130918
N51	N	-4.174395	-0.096746	-0.631472
H52	H	-4.192775	-0.140738	-0.596489
H53	H	-4.302740	-0.098514	-0.686517
N54	N	-3.696890	-0.883352	-0.307163
H55	H	-3.747371	-0.935663	-0.307642
H56	H	-3.591403	-0.862437	-0.239251
N57	N	-3.420737	-0.082336	-0.609120
H58	H	-3.427639	-0.083464	-0.531831
H59	H	-3.324300	-0.037185	-0.615549
N60	N	-3.577258	-0.495279	-0.183008
H61	H	-3.492088	-0.523792	-0.140897
H62	H	-3.620361	-0.461093	-0.132306
N63	N	-4.235777	-0.532542	-0.457916
H64	H	-4.351301	-0.572412	-0.499601
H65	H	-4.165788	-0.506168	-0.508994
N66	N	-4.383275	-0.746394	-0.330047
H67	H	-4.332792	-0.694083	-0.329565
H68	H	-4.447469	-0.754090	-0.266589
H69	H	-3.481970	-0.292024	-0.312253
N70	N	-4.183470	-0.296178	-0.332857
H71	H	-4.313495	-0.332619	-0.335995
H72	H	-4.198555	-0.272672	-0.398974
H73	H	-4.398399	-0.887511	-0.327769
H74	H	-4.355196	-0.097932	-0.815152
H75	H	-4.256771	-0.672247	-0.439700
N76	N	-4.459626	-0.097191	-1.030874
H77	H	-4.560864	-0.099782	-0.982697
H78	H	-4.501922	-0.140480	-1.087256
H79	H	-3.540750	-0.424436	-0.311417
N80	N	-3.705988	-0.082762	-1.008522
H81	H	-3.687667	-0.038765	-1.043496
H82	H	-3.732413	-0.125772	-1.064386
