data_functionalizedCrystal
_audit_creation_method	'MofGen! by Chris Wilmer'
_symmetry_space_group_name_H-M	'P1'
_symmetry_Int_Tables_number	1
_symmetry_cell_setting	triclinic
loop_
_symmetry_equiv_pos_as_xyz
  x,y,z
_cell_length_a	19.077269
_cell_length_b	17.637651
_cell_length_c	17.640968
_cell_angle_alpha	70.334811
_cell_angle_beta	80.585959
_cell_angle_gamma	99.411414
loop_
_atom_site_label
_atom_site_type_symbol
_atom_site_fract_x
_atom_site_fract_y
_atom_site_fract_z
Zn1	Zn	1.083755	-0.295247	-0.338266
Zn2	Zn	1.583755	0.204753	0.161734
Zn3	Zn	1.025214	-0.457674	-0.175852
Zn4	Zn	1.525214	0.042326	0.324148
Zn5	Zn	0.939174	-0.314968	-0.208631
Zn6	Zn	1.439174	0.185032	0.291369
Zn7	Zn	0.939158	-0.424892	-0.318514
Zn8	Zn	1.439158	0.075108	0.181486
O9	O	0.996825	-0.373195	-0.260316
O10	O	1.496825	0.126805	0.239684
O11	O	1.172512	-0.322259	-0.311269
O12	O	1.672512	0.177741	0.188731
O13	O	0.989307	-0.460717	-0.066243
O14	O	1.489307	0.039283	0.433757
O15	O	0.982859	-0.198372	-0.247812
O16	O	1.482859	0.301628	0.252188
O17	O	1.129502	-0.441594	-0.191944
O18	O	1.629502	0.058406	0.308056
O19	O	1.089083	-0.183883	-0.343054
O20	O	1.589083	0.316117	0.156946
O21	O	0.926093	-0.355871	-0.090326
O22	O	1.426093	0.144129	0.409674
O23	O	0.842649	-0.324084	-0.228660
O24	O	1.342649	0.175916	0.271340
O25	O	0.982833	-0.385722	-0.435091
O26	O	1.482833	0.114278	0.064909
O27	O	0.842638	-0.404845	-0.309390
O28	O	1.342638	0.095155	0.190610
O29	O	1.089068	-0.290472	-0.449603
O30	O	1.589068	0.209528	0.050397
O31	O	0.989292	-0.567306	-0.172792
O32	O	1.489292	-0.067306	0.327208
O33	O	0.926068	-0.543221	-0.277605
O34	O	1.426068	-0.043221	0.222395
C35	C	0.817616	-0.363048	-0.270439
C36	C	1.317616	0.136952	0.229561
C37	C	0.740950	-0.358722	-0.274785
C38	C	1.240950	0.141278	0.225215
C39	C	0.682537	-0.418752	-0.214640
C40	C	1.182537	0.081248	0.285360
C41	C	0.610503	-0.414686	-0.218735
C42	C	1.110503	0.085314	0.281265
C43	C	0.596883	-0.350586	-0.282972
C44	C	1.096883	0.149414	0.217028
C45	C	0.655303	-0.290554	-0.343123
C46	C	1.155303	0.209446	0.156877
C47	C	0.727335	-0.294624	-0.339031
C48	C	1.227335	0.205376	0.160969
C49	C	0.383852	-0.331762	-0.301882
C50	C	0.883852	0.168238	0.198118
C51	C	0.311813	-0.327695	-0.305968
C52	C	0.811813	0.172305	0.194032
C53	C	0.267018	-0.451828	-0.181580
C54	C	0.767018	0.048172	0.318420
C55	C	0.339054	-0.455890	-0.177491
C56	C	0.839054	0.044110	0.322509
C57	C	0.397467	-0.395860	-0.237644
C58	C	0.897467	0.104140	0.262356
N59	N	0.523253	-0.346427	-0.287157
N60	N	1.023253	0.153573	0.212843
N61	N	0.471096	-0.400023	-0.233462
N62	N	0.971096	0.099977	0.266538
C63	C	0.951348	-0.584814	-0.219515
C64	C	1.451348	-0.084814	0.280485
C65	C	0.931962	-0.675344	-0.202084
C66	C	1.431962	-0.175344	0.297916
C67	C	1.144605	-0.935011	-0.392969
C68	C	1.644605	-0.435011	0.107031
C69	C	1.126363	-1.020079	-0.376577
C70	C	1.626363	-0.520079	0.123423
C71	C	1.015790	-1.035296	-0.277298
C72	C	1.515790	-0.535296	0.222702
C73	C	1.034023	-0.950229	-0.293679
C74	C	1.534023	-0.450229	0.206321
C75	C	1.098431	-0.900092	-0.351516
C76	C	1.598431	-0.400092	0.148484
C77	C	0.987850	-0.915310	-0.252225
C78	C	1.487850	-0.415310	0.247775
C79	C	1.006081	-0.830249	-0.268608
C80	C	1.506081	-0.330249	0.231392
C81	C	1.070485	-0.780106	-0.326445
C82	C	1.570485	-0.280106	0.173555
C83	C	1.116662	-0.815031	-0.367899
C84	C	1.616662	-0.315031	0.132101
C85	C	0.923440	-0.965447	-0.194393
C86	C	1.423440	-0.465447	0.305607
C87	C	0.877267	-0.930528	-0.152940
C88	C	1.377267	-0.430528	0.347060
C89	C	0.895500	-0.845467	-0.169318
C90	C	1.395500	-0.345467	0.330682
C91	C	0.959904	-0.795324	-0.227154
C92	C	1.459904	-0.295324	0.272846
C93	C	0.849323	-0.810542	-0.127864
C94	C	1.349323	-0.310542	0.372136
C95	C	0.867554	-0.725481	-0.144247
C96	C	1.367554	-0.225481	0.355753
C97	C	0.978135	-0.710263	-0.243537
C98	C	1.478135	-0.210263	0.256463
C99	C	1.176734	-0.383383	-0.250153
C100	C	1.676734	0.116617	0.249847
C101	C	1.253400	-0.387725	-0.245822
C102	C	1.753400	0.112275	0.254178
C103	C	1.042479	-0.332240	-0.472721
C104	C	1.542479	0.167760	0.027279
C105	C	1.061934	-0.314787	-0.563235
C106	C	1.561934	0.185213	-0.063235
C107	C	1.042503	-0.160747	-0.301293
C108	C	1.542503	0.339253	0.198707
C109	C	1.061968	-0.070215	-0.318755
C110	C	1.561968	0.429785	0.181245
C111	C	0.849389	-0.505354	-0.823146
C112	C	1.349389	-0.005354	-0.323146
C113	C	0.867686	-0.488945	-0.908200
C114	C	1.367686	0.011055	-0.408200
C115	C	0.978299	-0.389769	-0.923298
C116	C	1.478299	0.110231	-0.423298
C117	C	0.960009	-0.406167	-0.838246
C118	C	1.460009	0.093833	-0.338246
C119	C	0.895554	-0.463961	-0.788176
C120	C	1.395554	0.036039	-0.288176
C121	C	1.006174	-0.364774	-0.803275
C122	C	1.506174	0.135226	-0.303275
C123	C	0.987887	-0.381174	-0.718229
C124	C	1.487887	0.118826	-0.218229
C125	C	0.923436	-0.438967	-0.668153
C126	C	1.423436	0.061033	-0.168153
C127	C	0.877267	-0.480361	-0.703129
C128	C	1.377267	0.019639	-0.203129
C129	C	1.070632	-0.306985	-0.853345
C130	C	1.570632	0.193015	-0.353345
C131	C	1.116797	-0.265592	-0.818375
C132	C	1.616797	0.234408	-0.318375
C133	C	1.098508	-0.281987	-0.733328
C134	C	1.598508	0.218013	-0.233328
C135	C	1.034056	-0.339780	-0.683252
C136	C	1.534056	0.160220	-0.183252
C137	C	1.144676	-0.240594	-0.698351
C138	C	1.644676	0.259406	-0.198351
C139	C	1.126389	-0.256994	-0.613305
C140	C	1.626389	0.243006	-0.113305
C141	C	1.015769	-0.356180	-0.598206
C142	C	1.515769	0.143820	-0.098206
C143	C	0.951402	-0.413935	-0.048746
C144	C	1.451402	0.086065	0.451254
C145	C	0.932130	-0.431166	0.041731
C146	C	1.432130	0.068834	0.541731
H147	H	0.219452	-0.500702	-0.132607
H148	H	0.719452	-0.000702	0.367393
F149	F	0.446011	-0.267873	-0.365903
F150	F	0.946011	0.232127	0.134097
F151	F	1.090095	-0.289535	-0.943859
F152	F	1.590095	0.210465	-0.443859
H153	H	1.163960	-1.048502	-0.410350
H154	H	1.663960	-0.548502	0.089650
F155	F	0.353543	-0.524097	-0.109105
F156	F	0.853543	-0.024097	0.390895
F157	F	1.046691	-0.656901	-0.305085
F158	F	1.546691	-0.156901	0.194915
F159	F	0.548338	-0.478566	-0.154708
F160	F	1.048338	0.021434	0.345292
F161	F	0.297322	-0.259466	-0.374338
F162	F	0.797322	0.240534	0.125662
F163	F	0.903975	-0.456425	-0.577637
F164	F	1.403975	0.043575	-0.077637
F165	F	1.185394	-0.204088	-0.871670
F166	F	1.685394	0.295912	-0.371670
H167	H	1.197159	-0.193544	-0.739129
H168	H	1.697159	0.306456	-0.239129
H169	H	0.824825	-0.971361	-0.105851
H170	H	1.324825	-0.471361	0.394149
F171	F	0.780771	-0.863909	-0.066323
F172	F	1.280771	-0.363909	0.433677
F173	F	0.640806	-0.222339	-0.411494
F174	F	1.140806	0.277661	0.088506
H175	H	0.774896	-0.245741	-0.388007
H176	H	1.274896	0.254259	0.111993
H177	H	1.085328	-0.710844	-0.339782
H178	H	1.585328	-0.210844	0.160218
H179	H	0.824768	-0.527402	-0.662364
H180	H	1.324768	-0.027402	-0.162364
H181	H	1.169114	-0.774208	-0.414989
H182	H	1.669114	-0.274208	0.085011
F183	F	1.175524	-0.212941	-0.576084
F184	F	1.675524	0.287059	-0.076084
F185	F	0.947241	-1.088662	-0.215751
F186	F	1.447241	-0.588662	0.284249
H187	H	1.030781	-0.342716	-0.964076
H188	H	1.530781	0.157284	-0.464076
H189	H	1.197056	-0.894188	-0.440060
H190	H	1.697056	-0.394188	0.059940
F191	F	0.904099	-1.056001	-0.176858
F192	F	1.404099	-0.556001	0.323142
F193	F	0.818545	-0.533004	-0.945415
F194	F	1.318545	-0.033004	-0.445415
F195	F	0.697024	-0.486974	-0.146268
F196	F	1.197024	0.013026	0.353732
H197	H	0.829954	-0.697051	-0.110492
H198	H	1.329954	-0.197051	0.389508
F199	F	0.947163	-0.417684	-0.544914
F200	F	1.447163	0.082316	-0.044914
H201	H	0.796890	-0.552395	-0.782381
H202	H	1.296890	-0.052395	-0.282381
