data_functionalizedCrystal
_audit_creation_method	'MofGen! by Chris Wilmer'
_symmetry_space_group_name_H-M	'P1'
_symmetry_Int_Tables_number	1
_symmetry_cell_setting	triclinic
loop_
_symmetry_equiv_pos_as_xyz
  x,y,z
_cell_length_a	21.295418
_cell_length_b	21.295417
_cell_length_c	10.685986
_cell_angle_alpha	85.582048
_cell_angle_beta	94.329988
_cell_angle_gamma	90.046319
loop_
_atom_site_label
_atom_site_type_symbol
_atom_site_fract_x
_atom_site_fract_y
_atom_site_fract_z
Zn1	Zn	0.935052	-0.222970	-0.714077
Zn2	Zn	1.435052	0.277030	-0.214077
Zn3	Zn	0.943024	-0.336332	-0.503052
Zn4	Zn	1.443024	0.163668	-0.003052
Zn5	Zn	0.837846	-0.231111	-0.503021
Zn6	Zn	1.337846	0.268889	-0.003021
Zn7	Zn	0.829751	-0.328240	-0.713921
Zn8	Zn	1.329751	0.171760	-0.213921
O9	O	0.886418	-0.279663	-0.608518
O10	O	1.386418	0.220337	-0.108518
O11	O	1.024196	-0.237987	-0.686163
O12	O	1.524196	0.262013	-0.186163
O13	O	0.935795	-0.329168	-0.326471
O14	O	1.435795	0.170832	0.173529
O15	O	0.850792	-0.141940	-0.531071
O16	O	1.350792	0.358060	-0.031071
O17	O	1.030053	-0.321274	-0.531124
O18	O	1.530053	0.178726	-0.031124
O19	O	0.922209	-0.135958	-0.686133
O20	O	1.422209	0.364042	-0.186133
O21	O	0.858521	-0.251863	-0.326448
O22	O	1.358521	0.248137	0.173552
O23	O	0.748685	-0.244016	-0.530919
O24	O	1.248685	0.255984	-0.030919
O25	O	0.836996	-0.307482	-0.890518
O26	O	1.336996	0.192518	-0.390518
O27	O	0.742738	-0.315376	-0.685866
O28	O	1.242738	0.184624	-0.185866
O29	O	0.914360	-0.230140	-0.890634
O30	O	1.414360	0.269860	-0.390634
O31	O	0.927946	-0.423350	-0.530972
O32	O	1.427946	0.076650	-0.030972
O33	O	0.844725	-0.417405	-0.685896
O34	O	1.344725	0.082595	-0.185896
C35	C	0.886338	-0.443218	-0.608448
C36	C	1.386338	0.056782	-0.108448
C37	C	0.886360	-0.513185	-0.608460
C38	C	1.386360	-0.013185	-0.108460
C39	C	0.722872	-0.279702	-0.608373
C40	C	1.222872	0.220298	-0.108373
C41	C	0.652905	-0.279733	-0.608340
C42	C	1.152905	0.220267	-0.108340
C43	C	0.929726	-0.549124	-0.527874
C44	C	1.429726	-0.049124	-0.027874
C45	C	0.929754	-0.614865	-0.527902
C46	C	1.429754	-0.114865	-0.027902
C47	C	0.886406	-0.644666	-0.608504
C48	C	1.386406	-0.144666	-0.108504
C49	C	0.843037	-0.608719	-0.689106
C50	C	1.343037	-0.108719	-0.189106
C51	C	0.843014	-0.542979	-0.689084
C52	C	1.343014	-0.042979	-0.189084
N53	N	0.830973	-0.747580	-0.618074
N54	N	1.330973	-0.247580	-0.118074
N55	N	0.830997	-0.810031	-0.618088
N56	N	1.330997	-0.310031	-0.118088
C57	C	0.886474	-0.842738	-0.608576
C58	C	1.386474	-0.342738	-0.108576
N59	N	0.941928	-0.810636	-0.599026
N60	N	1.441928	-0.310636	-0.099026
N61	N	0.941904	-0.748179	-0.599006
N62	N	1.441904	-0.248179	-0.099006
C63	C	0.886427	-0.715950	-0.608537
C64	C	1.386427	-0.215950	-0.108537
C65	C	0.929874	-0.949961	-0.528016
C66	C	1.429874	-0.449961	-0.028016
C67	C	0.929903	-1.015703	-0.528054
C68	C	1.429903	-0.515703	-0.028054
C69	C	0.843181	-1.009556	-0.689250
C70	C	1.343181	-0.509556	-0.189250
C71	C	0.843157	-0.943815	-0.689220
C72	C	1.343157	-0.443815	-0.189220
C73	C	0.886503	-0.914022	-0.608596
C74	C	1.386503	-0.414022	-0.108596
C75	C	0.616963	-0.316948	-0.688901
C76	C	1.116963	0.183052	-0.188901
C77	C	0.551218	-0.316930	-0.688957
C78	C	1.051218	0.183070	-0.188957
C79	C	0.521419	-0.279705	-0.608431
C80	C	1.021419	0.220295	-0.108431
C81	C	0.557370	-0.242482	-0.527865
C82	C	1.057370	0.257518	-0.027865
C83	C	0.623113	-0.242496	-0.527820
C84	C	1.123113	0.257504	-0.027820
N85	N	0.422363	-0.279019	-0.498067
N86	N	0.922363	0.220981	0.001933
N87	N	0.359910	-0.279010	-0.498114
N88	N	0.859910	0.220990	0.001886
C89	C	0.323339	-0.279659	-0.608565
C90	C	0.823339	0.220341	-0.108565
N91	N	0.351581	-0.280331	-0.718970
N92	N	0.851581	0.219669	-0.218970
N93	N	0.414040	-0.280344	-0.718922
N94	N	0.914040	0.219656	-0.218922
C95	C	0.450132	-0.279685	-0.608472
C96	C	0.950132	0.220315	-0.108472
C97	C	0.216109	-0.316857	-0.689194
C98	C	0.716109	0.183143	-0.189194
C99	C	0.150363	-0.316835	-0.689252
C100	C	0.650363	0.183165	-0.189252
C101	C	0.156516	-0.242391	-0.528149
C102	C	0.656516	0.257609	-0.028149
C103	C	0.222260	-0.242409	-0.528101
C104	C	0.722260	0.257591	-0.028101
C105	C	0.252053	-0.279646	-0.608622
C106	C	0.752053	0.220354	-0.108622
C107	C	1.050603	-0.279625	-0.608664
C108	C	1.550603	0.220375	-0.108664
C109	C	1.120569	-0.279609	-0.608727
C110	C	1.620569	0.220391	-0.108727
C111	C	0.873886	-0.267000	-0.937641
C112	C	1.373886	0.233000	-0.437641
C113	C	0.868546	-0.261604	-1.077893
C114	C	1.368546	0.238396	-0.577893
C115	C	0.886514	-0.115469	-0.608616
C116	C	1.386514	0.384531	-0.108616
C117	C	0.886555	-0.045500	-0.608657
C118	C	1.386555	0.454500	-0.108657
C119	C	0.898938	-0.292232	-0.280675
C120	C	1.398938	0.207768	0.219325
C121	C	0.904400	-0.297451	-0.140424
C122	C	1.404400	0.202549	0.359576
H123	H	0.965022	-0.524868	-0.462229
H124	H	1.465022	-0.024868	0.037771
F125	F	0.796856	-0.504729	-0.774859
F126	F	1.296856	-0.004729	-0.274859
H127	H	0.965171	-0.925702	-0.462371
H128	H	1.465171	-0.425702	0.037629
F129	F	0.823086	-0.216094	-1.148162
F130	F	1.323086	0.283906	-0.648162
H131	H	0.521948	-0.347235	-0.754564
H132	H	1.021948	0.152765	-0.254564
H133	H	0.965070	-0.644132	-0.462280
H134	H	1.465070	-0.144132	0.037720
F135	F	0.949869	-0.342957	-1.070150
F136	F	1.449869	0.157043	-0.570150
H137	H	0.965221	-1.044963	-0.462433
H138	H	1.465221	-0.544963	0.037567
F139	F	0.247819	-0.356484	-0.774895
F140	F	0.747819	0.143516	-0.274895
F141	F	0.796998	-0.905565	-0.774987
F142	F	1.296998	-0.405565	-0.274987
F143	F	0.796905	-0.640436	-0.774892
F144	F	1.296905	-0.140436	-0.274892
H145	H	0.807888	-1.033820	-0.754883
H146	H	1.307888	-0.533820	-0.254883
F147	F	0.648667	-0.356577	-0.774602
F148	F	1.148667	0.143423	-0.274602
H149	H	0.533103	-0.212172	-0.462303
H150	H	1.033103	0.287828	0.037697
F151	F	0.661366	-0.202884	-0.442073
F152	F	1.161366	0.297116	0.057927
H153	H	0.121100	-0.347139	-0.754862
H154	H	0.621100	0.152861	-0.254862
H155	H	0.132254	-0.212078	-0.462589
H156	H	0.632254	0.287922	0.037411
F157	F	0.260514	-0.202801	-0.442354
F158	F	0.760514	0.297199	0.057646
