data_functionalizedCrystal
_audit_creation_method	'MofGen! by Chris Wilmer'
_symmetry_space_group_name_H-M	'P1'
_symmetry_Int_Tables_number	1
_symmetry_cell_setting	triclinic
loop_
_symmetry_equiv_pos_as_xyz
  x,y,z
_cell_length_a	8.597340
_cell_length_b	13.596369
_cell_length_c	8.559649
_cell_angle_alpha	89.995606
_cell_angle_beta	102.374957
_cell_angle_gamma	82.303193
loop_
_atom_site_label
_atom_site_type_symbol
_atom_site_fract_x
_atom_site_fract_y
_atom_site_fract_z
O1	O	2.053709	-0.092257	-0.238033
O2	O	1.594582	-0.053346	-0.256297
O3	O	1.864595	-0.076230	-0.015195
O4	O	1.783696	-0.069372	-0.479135
O5	O	1.864572	-0.239811	-0.015181
O6	O	1.594560	-0.216927	-0.256283
O7	O	2.053686	-0.255838	-0.238020
Zn8	Zn	1.824120	-0.262354	-0.247150
Zn9	Zn	1.824149	-0.046829	-0.247167
O10	O	1.783674	-0.232953	-0.479122
C11	C	1.536337	-0.130201	-0.254329
C12	C	1.362820	-0.115496	-0.248467
N13	N	1.824111	-0.409446	-0.247137
C14	C	1.824147	-0.810739	-0.247169
C15	C	1.824131	-0.699087	-0.247165
C16	C	1.824129	-0.610096	-0.247154
C17	C	1.824113	-0.498436	-0.247148
C18	C	2.111931	-0.178980	-0.239987
C19	C	2.285448	-0.193679	-0.245849
C20	C	1.870714	-0.158539	0.044246
C21	C	1.888963	-0.160080	0.221341
N22	N	1.824172	0.100261	-0.247167
C23	C	1.777554	-0.150643	-0.538563
C24	C	1.759305	-0.149095	-0.715658
H25	H	1.351955	-0.271870	-0.248081
C26	C	1.590474	-0.134782	0.174191
C27	C	1.473155	-0.209785	0.183067
C28	C	1.304321	-0.195472	0.072903
C29	C	1.252808	-0.106156	-0.046136
C30	C	1.370130	-0.031147	-0.055017
C31	C	1.538963	-0.045461	0.055146
H32	H	1.511286	-0.275907	0.271191
H33	H	1.217472	-0.250999	0.079478
H34	H	1.127827	-0.095561	-0.127685
H35	H	1.331999	0.034975	-0.143141
H36	H	1.625813	0.010066	0.048572
H37	H	1.296309	-0.037300	-0.246224
C38	C	2.057803	-0.174393	0.331500
C39	C	2.109320	-0.263709	0.450539
C40	C	2.278156	-0.278023	0.560697
C41	C	2.395475	-0.203020	0.551817
C42	C	2.343960	-0.113698	0.432774
C43	C	2.175124	-0.099385	0.322616
H44	H	2.022471	-0.319236	0.457117
H45	H	2.316290	-0.344145	0.648821
H46	H	2.520457	-0.213616	0.633363
H47	H	2.430809	-0.058171	0.426196
H48	H	2.136990	-0.033262	0.234492
