data_functionalizedCrystal
_audit_creation_method	'MofGen! by Chris Wilmer'
_symmetry_space_group_name_H-M	'P1'
_symmetry_Int_Tables_number	1
_symmetry_cell_setting	triclinic
loop_
_symmetry_equiv_pos_as_xyz
  x,y,z
_cell_length_a	6.817900
_cell_length_b	15.866870
_cell_length_c	14.858572
_cell_angle_alpha	112.093349
_cell_angle_beta	104.524003
_cell_angle_gamma	102.655915
loop_
_atom_site_label
_atom_site_type_symbol
_atom_site_fract_x
_atom_site_fract_y
_atom_site_fract_z
V1	V	-4.065742	-0.133334	-0.335668
O2	O	-4.024422	0.005786	-0.282457
O3	O	-4.044008	-0.263781	-0.378402
O4	O	-4.022016	-0.131555	-0.461520
O5	O	-4.046567	-0.127355	-0.198764
V6	V	-4.545308	-0.116661	-0.313823
O7	O	-4.335678	-0.169906	-0.383586
O8	O	-4.725569	-0.080089	-0.265904
O9	O	-4.343835	0.013786	-0.271088
O10	O	-4.704024	-0.255781	-0.367033
O11	O	-4.681880	-0.122640	-0.450726
O12	O	-4.365828	-0.118440	-0.187971
C13	C	-3.895345	-0.295573	-0.384726
C14	C	-3.958894	-0.402217	-0.420506
C15	C	-3.867290	-0.126905	-0.490749
C16	C	-3.913000	-0.126314	-0.593930
C17	C	-3.935468	-0.683610	-0.088619
C18	C	-3.995192	-0.783823	-0.122270
C19	C	-4.088163	-0.811550	-0.302100
C20	C	-4.028436	-0.711337	-0.268463
C21	C	-3.952093	-0.647375	-0.161721
C22	C	-4.045061	-0.675101	-0.341565
C23	C	-3.985349	-0.574898	-0.307931
C24	C	-3.909012	-0.510929	-0.201194
C25	C	-3.892381	-0.547171	-0.128087
C26	C	-4.121418	-0.739066	-0.448307
C27	C	-4.138044	-0.702830	-0.521409
C28	C	-4.078317	-0.602624	-0.487775
C29	C	-4.001980	-0.538656	-0.381038
C30	C	-4.094948	-0.566383	-0.560882
C31	C	-4.035236	-0.466179	-0.527248
C32	C	-3.942268	-0.438452	-0.347404
C33	C	-4.080298	-0.124154	-0.971758
C34	C	-4.033742	-0.124755	-0.866634
C35	C	-3.996650	-0.125235	-0.782847
C36	C	-3.950091	-0.125834	-0.677716
C37	C	-4.155841	0.045573	-0.264763
C38	C	-4.071532	0.152216	-0.228990
C39	C	-4.183896	-0.123093	-0.158737
C40	C	-4.117424	-0.123679	-0.055554
H41	H	-3.880070	-0.386369	-0.260483
N42	N	-4.177283	-0.635377	-0.676004
H43	H	-4.178752	-0.597216	-0.717212
H44	H	-4.328750	-0.680883	-0.698173
H45	H	-3.860402	-0.429338	-0.173811
N46	N	-3.977498	-0.822910	-0.043424
H47	H	-4.026997	-0.896097	-0.080928
H48	H	-4.071531	-0.802637	-0.002656
H49	H	-3.830183	-0.495087	-0.041166
N50	N	-3.853113	-0.614611	0.026510
H51	H	-3.851633	-0.652768	0.067722
H52	H	-3.950988	-0.575767	0.040077
N53	N	-4.170554	-0.880541	-0.417225
H54	H	-4.205876	-0.949519	-0.427442
H55	H	-4.055771	-0.865760	-0.446328
N56	N	-4.185841	-0.847144	-0.484586
H57	H	-4.093838	-0.873400	-0.523704
H58	H	-4.343167	-0.879966	-0.532241
H59	H	-4.048806	-0.436677	-0.586776
N60	N	-4.220434	-0.771821	-0.636535
H61	H	-4.255757	-0.840800	-0.646752
H62	H	-4.105652	-0.757040	-0.665638
