data_functionalizedCrystal
_audit_creation_method	'MofGen! by Chris Wilmer'
_symmetry_space_group_name_H-M	'P1'
_symmetry_Int_Tables_number	1
_symmetry_cell_setting	triclinic
loop_
_symmetry_equiv_pos_as_xyz
  x,y,z
_cell_length_a	18.101398
_cell_length_b	18.215405
_cell_length_c	18.215399
_cell_angle_alpha	89.969449
_cell_angle_beta	89.974986
_cell_angle_gamma	90.020151
loop_
_atom_site_label
_atom_site_type_symbol
_atom_site_fract_x
_atom_site_fract_y
_atom_site_fract_z
Zn1	Zn	1.132158	-0.293085	-0.416204
Zn2	Zn	1.632158	0.206915	0.083796
Zn3	Zn	1.132066	-0.416156	-0.293132
Zn4	Zn	1.632066	0.083844	0.206868
Zn5	Zn	1.008315	-0.293098	-0.293140
Zn6	Zn	1.508315	0.206902	0.206860
Zn7	Zn	1.008281	-0.416104	-0.416146
Zn8	Zn	1.508281	0.083896	0.083854
O9	O	1.070205	-0.354611	-0.354656
O10	O	1.570205	0.145389	0.145344
O11	O	1.235779	-0.309427	-0.399899
O12	O	1.735779	0.190573	0.100101
O13	O	1.115626	-0.399859	-0.190149
O14	O	1.615626	0.100141	0.309851
O15	O	1.024796	-0.190112	-0.309493
O16	O	1.524796	0.309888	0.190507
O17	O	1.235711	-0.399847	-0.309479
O18	O	1.735711	0.100153	0.190521
O19	O	1.115783	-0.190102	-0.399907
O20	O	1.615783	0.309898	0.100093
O21	O	1.024707	-0.309449	-0.190155
O22	O	1.524707	0.190551	0.309845
O23	O	0.904678	-0.309398	-0.309437
O24	O	1.404678	0.190602	0.190563
O25	O	1.024738	-0.399758	-0.519138
O26	O	1.524738	0.100242	-0.019138
O27	O	0.904653	-0.399770	-0.399808
O28	O	1.404653	0.100230	0.100192
O29	O	1.115750	-0.309376	-0.519181
O30	O	1.615750	0.190624	-0.019181
O31	O	1.115593	-0.519133	-0.309423
O32	O	1.615593	-0.019133	0.190577
O33	O	1.024649	-0.519095	-0.399800
O34	O	1.524649	-0.019095	0.100200
C35	C	1.070127	-0.545817	-0.354620
C36	C	1.570127	-0.045817	0.145380
C37	C	1.070161	-0.627616	-0.354630
C38	C	1.570161	-0.127616	0.145370
C39	C	0.877795	-0.354581	-0.354617
C40	C	1.377795	0.145419	0.145383
C41	C	0.795481	-0.354586	-0.354618
C42	C	1.295481	0.145414	0.145382
C43	C	1.117627	-0.815805	-0.307657
C44	C	1.617627	-0.315805	0.192343
C45	C	1.117660	-0.892664	-0.307675
C46	C	1.617660	-0.392664	0.192325
C47	C	1.022878	-0.892664	-0.401708
C48	C	1.522878	-0.392664	0.098292
C49	C	1.022849	-0.815807	-0.401693
C50	C	1.522849	-0.315807	0.098307
C51	C	1.070223	-0.777379	-0.354663
C52	C	1.570223	-0.277379	0.145337
C53	C	1.070285	-0.931095	-0.354696
C54	C	1.570285	-0.431095	0.145304
C55	C	1.070320	-1.014429	-0.354716
C56	C	1.570320	-0.514429	0.145284
C57	C	1.070188	-0.694040	-0.354645
C58	C	1.570188	-0.194040	0.145355
C59	C	0.496390	-0.354632	-0.354680
C60	C	0.996390	0.145368	0.145320
C61	C	0.527706	-0.297488	-0.298098
C62	C	1.027706	0.202512	0.201902
C63	C	0.613324	-0.297641	-0.297857
C64	C	1.113324	0.202359	0.202143
C65	C	0.644772	-0.354608	-0.354650
C66	C	1.144772	0.145392	0.145350
C67	C	0.613662	-0.432131	-0.333455
C68	C	1.113662	0.067869	0.166545
C69	C	0.528017	-0.431814	-0.333062
C70	C	1.028017	0.068186	0.166938
C71	C	0.528003	-0.334926	-0.432590
C72	C	1.028003	0.165074	0.067410
C73	C	0.613654	-0.333200	-0.432165
C74	C	1.113654	0.166800	0.067835
C75	C	0.728632	-0.354600	-0.354633
C76	C	1.228632	0.145400	0.145367
C77	C	0.412530	-0.354645	-0.354695
C78	C	0.912530	0.145355	0.145305
C79	C	1.263367	-0.354641	-0.354695
C80	C	1.763367	0.145359	0.145305
C81	C	1.345681	-0.354654	-0.354711
C82	C	1.845681	0.145346	0.145289
C83	C	1.070250	-0.354560	-0.546609
C84	C	1.570250	0.145440	-0.046609
C85	C	1.070269	-0.354538	-0.628408
C86	C	1.570269	0.145462	-0.128408
C87	C	1.070304	-0.162658	-0.354707
C88	C	1.570304	0.337342	0.145293
C89	C	1.070346	-0.080859	-0.354729
C90	C	1.570346	0.419141	0.145271
C91	C	1.117676	-0.307432	-0.816625
C92	C	1.617676	0.192568	-0.316625
C93	C	1.117685	-0.307411	-0.893484
C94	C	1.617685	0.192589	-0.393484
C95	C	1.022915	-0.401530	-0.893428
C96	C	1.522915	0.098470	-0.393428
C97	C	1.022903	-0.401547	-0.816571
C98	C	1.522903	0.098453	-0.316571
C99	C	1.070288	-0.354500	-0.778171
C100	C	1.570288	0.145500	-0.278171
C101	C	1.070309	-0.354461	-0.931888
C102	C	1.570309	0.145539	-0.431888
C103	C	1.070318	-0.354438	-1.015221
C104	C	1.570318	0.145562	-0.515221
C105	C	1.070278	-0.354521	-0.694832
C106	C	1.570278	0.145479	-0.194832
C107	C	1.070203	-0.354608	-0.163450
C108	C	1.570203	0.145392	0.336550
C109	C	1.070327	-0.354422	-0.081651
C110	C	1.570327	0.145578	0.418349
H111	H	1.156202	-0.784519	-0.269364
H112	H	1.656202	-0.284519	0.230636
H113	H	0.633778	-0.310668	-0.240127
H114	H	1.133778	0.189332	0.259873
H115	H	0.984338	-0.439836	-0.924703
H116	H	1.484338	0.060164	-0.424703
Br117	Br	0.958516	-0.763652	-0.465499
Br118	Br	1.458516	-0.263652	0.034501
H119	H	0.635078	-0.449132	-0.277114
H120	H	1.135078	0.050868	0.222886
Br121	Br	0.648387	-0.201826	-0.320000
Br122	Br	1.148387	0.298174	0.180000
Br123	Br	0.492042	-0.242344	-0.464707
Br124	Br	0.992042	0.257656	0.035293
Br125	Br	0.491774	-0.318936	-0.202439
Br126	Br	0.991774	0.181064	0.297561
H127	H	0.507300	-0.475832	-0.372476
H128	H	1.007300	0.024168	0.127524
H129	H	1.156273	-0.269083	-0.924790
H130	H	1.656273	0.230917	-0.424790
Br131	Br	0.647564	-0.238122	-0.458813
Br132	Br	1.147564	0.261878	0.041187
Br133	Br	1.182002	-0.944811	-0.243881
Br134	Br	1.682002	-0.444811	0.256119
H135	H	1.156258	-0.269121	-0.785363
H136	H	1.656258	0.230879	-0.285363
H137	H	0.984308	-0.439874	-0.785261
H138	H	1.484308	0.060126	-0.285261
Br139	Br	0.958588	-0.944820	-0.465530
Br140	Br	1.458588	-0.444820	0.034470
H141	H	0.507129	-0.239825	-0.311238
H142	H	1.007129	0.260175	0.188762
Br143	Br	0.494251	-0.404297	-0.502858
Br144	Br	0.994251	0.095703	-0.002858
Br145	Br	0.494660	-0.459666	-0.238132
Br146	Br	0.994660	0.040334	0.261868
Br147	Br	0.649332	-0.397518	-0.506200
Br148	Br	1.149332	0.102482	-0.006200
Br149	Br	0.647599	-0.504999	-0.399999
Br150	Br	1.147599	-0.004999	0.100001
