data_functionalizedCrystal
_audit_creation_method	'MofGen! by Chris Wilmer'
_symmetry_space_group_name_H-M	'P1'
_symmetry_Int_Tables_number	1
_symmetry_cell_setting	triclinic
loop_
_symmetry_equiv_pos_as_xyz
  x,y,z
_cell_length_a	23.532407
_cell_length_b	23.532407
_cell_length_c	22.010155
_cell_angle_alpha	89.999577
_cell_angle_beta	89.994271
_cell_angle_gamma	82.848712
loop_
_atom_site_label
_atom_site_type_symbol
_atom_site_fract_x
_atom_site_fract_y
_atom_site_fract_z
O1	O	0.755264	0.069127	-0.050493
O2	O	1.255264	0.569127	0.449507
O3	O	0.589400	0.079130	-0.050503
O4	O	1.089400	0.579130	0.449497
O5	O	0.677334	-0.008803	-0.050487
O6	O	1.177334	0.491197	0.449513
O7	O	0.667330	0.157061	-0.050510
O8	O	1.167330	0.657061	0.449490
O9	O	0.677318	-0.008790	0.050564
O10	O	1.177318	0.491210	0.550564
O11	O	0.589384	0.079144	0.050547
O12	O	1.089384	0.579144	0.550547
O13	O	0.755248	0.069141	0.050557
O14	O	1.255248	0.569141	0.550557
Cu15	Cu	0.672315	0.074143	0.059779
Cu16	Cu	1.172315	0.574143	0.559779
Cu17	Cu	0.672333	0.074128	-0.059725
Cu18	Cu	1.172333	0.574128	0.440275
O19	O	0.667314	0.157074	0.050541
O20	O	1.167314	0.657074	0.550541
C21	C	0.568176	0.078882	0.000021
C22	C	1.068176	0.578882	0.500021
C23	C	0.504959	0.078116	0.000017
C24	C	1.004959	0.578116	0.500017
C25	C	0.238792	0.022921	0.000041
C26	C	0.738792	0.522921	0.500041
C27	C	0.298192	0.023632	0.000041
C28	C	0.798192	0.523632	0.500041
O29	O	0.334937	-0.020153	0.000068
O30	O	0.834937	0.479847	0.500068
N31	N	0.320818	0.075909	0.000030
N32	N	0.820818	0.575909	0.500030
C33	C	0.284041	0.127477	0.000025
C34	C	0.784041	0.627477	0.500025
O35	O	0.308740	0.172007	0.000016
O36	O	0.808740	0.672007	0.500016
C37	C	0.224642	0.126765	0.000029
C38	C	0.724642	0.626765	0.500029
C39	C	0.202019	0.074485	0.000035
C40	C	0.702019	0.574485	0.500035
C41	C	0.216168	-0.029354	0.000047
C42	C	0.716168	0.470646	0.500047
C43	C	0.156772	-0.030066	0.000046
C44	C	0.656772	0.469934	0.500046
C45	C	0.119999	0.021499	0.000039
C46	C	0.619999	0.521499	0.500039
C47	C	0.142623	0.073774	0.000034
C48	C	0.642623	0.573774	0.500034
C49	C	0.187865	0.178333	0.000029
C50	C	0.687865	0.678333	0.500029
C51	C	0.128463	0.177616	0.000034
C52	C	0.628463	0.677616	0.500034
C53	C	0.105840	0.125336	0.000039
C54	C	0.605840	0.625336	0.500039
C55	C	0.046454	0.124627	0.000026
C56	C	0.546454	0.624627	0.500026
N57	N	0.023828	0.072351	0.000037
N58	N	0.523828	0.572351	0.500037
C59	C	0.060600	0.020787	0.000044
C60	C	0.560600	0.520787	0.500044
C61	C	0.408783	0.128968	0.000016
C62	C	0.908783	0.628968	0.500016
C63	C	0.468181	0.129681	0.000007
C64	C	0.968181	0.629681	0.500007
C65	C	0.482328	0.025836	0.000025
C66	C	0.982328	0.525836	0.500025
C67	C	0.422929	0.025124	0.000029
C68	C	0.922929	0.525124	0.500029
C69	C	0.386157	0.076692	0.000027
C70	C	0.886157	0.576692	0.500027
C71	C	-0.064136	0.019297	0.000042
C72	C	0.435864	0.519297	0.500042
C73	C	-0.123538	0.018590	0.000038
C74	C	0.376462	0.518590	0.500038
C75	C	-0.137680	0.122435	0.000024
C76	C	0.362320	0.622435	0.500024
C77	C	-0.078284	0.123142	0.000024
C78	C	0.421716	0.623142	0.500024
C79	C	-0.041512	0.071568	0.000035
C80	C	0.458488	0.571568	0.500035
O81	O	0.009675	0.168390	0.000001
O82	O	0.509675	0.668390	0.500001
O83	O	0.035892	-0.023737	0.000061
O84	O	0.535892	0.476263	0.500061
C85	C	0.677071	-0.030012	0.000040
C86	C	1.177071	0.469988	0.500040
C87	C	0.676305	-0.093229	0.000045
C88	C	1.176305	0.406771	0.500045
C89	C	0.723538	-0.492332	0.000014
C90	C	1.223538	0.007668	0.500014
C91	C	0.722827	-0.551733	0.000010
C92	C	1.222827	-0.051733	0.500010
O93	O	0.766613	-0.588477	-0.000010
O94	O	1.266613	-0.088477	0.499990
N95	N	0.670551	-0.574359	0.000007
N96	N	1.170551	-0.074359	0.500007
C97	C	0.618982	-0.537581	0.000002
C98	C	1.118982	-0.037581	0.500002
O99	O	0.574452	-0.562281	-0.000001
O100	O	1.074452	-0.062281	0.499999
C101	C	0.619695	-0.478182	0.000003
C102	C	1.119695	0.021818	0.500003
C103	C	0.671974	-0.455559	0.000012
C104	C	1.171974	0.044441	0.500012
C105	C	0.775814	-0.469709	0.000023
C106	C	1.275814	0.030291	0.500023
C107	C	0.776525	-0.410313	0.000028
C108	C	1.276525	0.089687	0.500028
C109	C	0.724961	-0.373540	0.000026
C110	C	1.224961	0.126460	0.500026
C111	C	0.672685	-0.396163	0.000018
C112	C	1.172685	0.103837	0.500018
C113	C	0.568127	-0.441406	-0.000006
C114	C	1.068127	0.058594	0.499994
C115	C	0.568843	-0.382003	-0.000006
C116	C	1.068843	0.117997	0.499994
C117	C	0.621123	-0.359381	0.000003
C118	C	1.121123	0.140619	0.500003
C119	C	0.621832	-0.299994	0.000021
C120	C	1.121832	0.200006	0.500021
N121	N	0.674109	-0.277368	0.000024
N122	N	1.174109	0.222632	0.500024
C123	C	0.725673	-0.314141	0.000026
C124	C	1.225673	0.185859	0.500026
C125	C	0.617491	-0.662324	0.000001
C126	C	1.117491	-0.162324	0.500001
C127	C	0.616778	-0.721722	0.000005
C128	C	1.116778	-0.221722	0.500005
C129	C	0.720623	-0.735869	0.000011
C130	C	1.220623	-0.235869	0.500011
C131	C	0.721335	-0.676470	0.000011
C132	C	1.221335	-0.176470	0.500011
C133	C	0.669767	-0.639698	0.000004
C134	C	1.169767	-0.139698	0.500004
C135	C	0.727163	-0.189404	0.000039
C136	C	1.227163	0.310596	0.500039
C137	C	0.727869	-0.130002	0.000047
C138	C	1.227869	0.369998	0.500047
C139	C	0.624025	-0.115860	0.000038
C140	C	1.124025	0.384140	0.500038
C141	C	0.623318	-0.175257	0.000033
C142	C	1.123318	0.324743	0.500033
C143	C	0.674891	-0.212028	0.000031
C144	C	1.174891	0.287972	0.500031
O145	O	0.578069	-0.263215	0.000038
O146	O	1.078069	0.236785	0.500038
O147	O	0.770196	-0.289433	0.000022
O148	O	1.270196	0.210567	0.500022
C149	C	0.776472	0.069389	0.000032
C150	C	1.276472	0.569389	0.500032
C151	C	0.839689	0.070155	0.000032
C152	C	1.339689	0.570155	0.500032
C153	C	0.667577	0.178283	0.000013
C154	C	1.167577	0.678283	0.500013
C155	C	0.668343	0.241500	0.000004
C156	C	1.168343	0.741500	0.500004
N157	N	0.672305	0.074154	0.143831
N158	N	1.172305	0.574154	0.643831
N159	N	0.672347	0.074113	-0.143777
N160	N	1.172347	0.574113	0.356223
C161	C	0.711273	0.035196	0.563618
C162	C	1.211273	0.535196	1.063618
C163	C	0.711275	0.035192	0.627226
C164	C	1.211275	0.535192	1.127226
O165	O	0.744383	0.002077	0.660123
O166	O	1.244383	0.502077	1.160123
N167	N	0.672333	0.074116	0.659038
N168	N	1.172333	0.574116	1.159038
C169	C	0.633382	0.113042	0.627240
C170	C	1.133382	0.613042	1.127240
O171	O	0.600259	0.146148	0.660140
O172	O	1.100259	0.646148	1.160140
C173	C	0.633377	0.113042	0.563634
C174	C	1.133377	0.613042	1.063634
C175	C	0.672326	0.074120	0.531824
C176	C	1.172326	0.574120	1.031824
C177	C	0.750217	-0.003723	0.531809
C178	C	1.250217	0.496277	1.031809
C179	C	0.750215	-0.003718	0.468205
C180	C	1.250215	0.496282	0.968205
C181	C	0.711268	0.035206	0.436412
C182	C	1.211268	0.535206	0.936412
C183	C	0.672323	0.074125	0.468221
C184	C	1.172323	0.574125	0.968221
C185	C	0.594424	0.151965	0.531837
C186	C	1.094424	0.651965	1.031837
C187	C	0.594422	0.151962	0.468226
C188	C	1.094422	0.651962	0.968226
C189	C	0.633370	0.113040	0.436417
C190	C	1.133370	0.613040	0.936417
C191	C	0.633374	0.113054	0.372824
C192	C	1.133374	0.613054	0.872824
N193	N	0.672316	0.074131	0.341012
N194	N	1.172316	0.574131	0.841012
C195	C	0.711263	0.035207	0.372805
C196	C	1.211263	0.535207	0.872805
C197	C	0.633395	0.113037	0.760818
C198	C	1.133395	0.613037	1.260818
C199	C	0.633402	0.113039	0.824423
C200	C	1.133402	0.613039	1.324423
C201	C	0.711294	0.035189	0.824404
C202	C	1.211294	0.535189	1.324404
C203	C	0.711290	0.035189	0.760798
C204	C	1.211290	0.535189	1.260798
C205	C	0.672337	0.074113	0.729005
C206	C	1.172337	0.574113	1.229005
C207	C	0.711256	0.035220	0.239234
C208	C	1.211256	0.535220	0.739234
C209	C	0.711252	0.035230	0.175625
C210	C	1.211252	0.535230	0.675625
C211	C	0.633358	0.113078	0.175650
C212	C	1.133358	0.613078	0.675650
C213	C	0.633364	0.113070	0.239253
C214	C	1.133364	0.613070	0.739253
C215	C	0.672315	0.074137	0.271043
C216	C	1.172315	0.574137	0.771043
O217	O	0.600282	0.146151	0.339886
O218	O	1.100282	0.646151	0.839886
O219	O	0.744376	0.002101	0.339898
O220	O	1.244376	0.502101	0.839898
H221	H	-0.059864	0.165712	0.000019
H222	H	0.440136	0.665712	0.500019
H223	H	0.763906	-0.658055	0.000018
H224	H	1.263906	-0.158055	0.500018
H225	H	-0.167631	0.164417	0.000016
H226	H	0.332369	0.664417	0.500016
H227	H	0.601654	0.144769	0.265153
H228	H	1.101654	0.644769	0.765153
C229	C	0.785379	-0.105121	0.000054
C230	C	1.285379	0.394879	0.500054
H231	H	0.815985	-0.135532	0.000048
H232	H	1.315985	0.364468	0.500048
H233	H	0.787813	-0.082245	0.035293
H234	H	1.287813	0.417755	0.535293
H235	H	0.787820	-0.082243	-0.035188
H236	H	1.287820	0.417757	0.464812
C237	C	0.754130	-0.007633	0.859386
C238	C	1.254130	0.492367	1.359386
H239	H	0.748547	-0.002061	0.901822
H240	H	1.248547	0.497939	1.401822
H241	H	0.792105	-0.001647	0.848961
H242	H	1.292105	0.498353	1.348961
H243	H	0.748155	-0.045613	0.848962
H244	H	1.248155	0.454387	1.348962
H245	H	0.562708	0.183659	0.557727
H246	H	1.062708	0.683659	1.057727
C247	C	0.567309	-0.075403	0.000032
C248	C	1.067309	0.424597	0.500032
H249	H	0.575224	-0.036788	0.000029
H250	H	1.075224	0.463212	0.500029
H251	H	0.545846	-0.082226	0.035265
H252	H	1.045846	0.417774	0.535265
H253	H	0.545869	-0.082228	-0.035217
H254	H	1.045869	0.417772	0.464783
C255	C	0.510618	-0.466278	-0.000021
C256	C	1.010618	0.033722	0.499979
H257	H	0.480016	-0.435863	-0.000031
H258	H	0.980016	0.064137	0.499969
H259	H	0.508166	-0.489157	0.035214
H260	H	1.008166	0.010843	0.535214
H261	H	0.508189	-0.489151	-0.035268
H262	H	1.008189	0.010849	0.464732
C263	C	0.754104	-0.007604	0.274195
C264	C	1.254104	0.492396	0.774195
H265	H	0.777298	-0.030776	0.246133
H266	H	1.277298	0.469224	0.746133
H267	H	0.733760	-0.031214	0.299010
H268	H	1.233760	0.468786	0.799010
H269	H	0.777698	0.012765	0.299003
H270	H	1.277698	0.512765	0.799003
C271	C	0.590518	0.155892	0.140671
C272	C	1.090518	0.655892	0.640671
H273	H	0.567324	0.179076	0.168722
H274	H	1.067324	0.679076	0.668722
H275	H	0.566932	0.135521	0.115861
H276	H	1.066932	0.635521	0.615861
H277	H	0.610871	0.179498	0.115857
H278	H	1.110871	0.679498	0.615857
C279	C	0.793066	-0.046540	0.566772
C280	C	1.293066	0.453460	1.066772
H281	H	0.816258	-0.069712	0.538709
H282	H	1.316258	0.430288	1.038709
H283	H	0.772726	-0.070151	0.591592
H284	H	1.272726	0.429849	1.091592
H285	H	0.816661	-0.026169	0.591576
H286	H	1.316661	0.473831	1.091576
C287	C	0.783892	-0.229844	0.000042
C288	C	1.283892	0.270156	0.500042
H289	H	0.815123	-0.207856	0.000054
H290	H	1.315123	0.292144	0.500054
H291	H	0.785787	-0.253310	-0.035196
H292	H	1.285787	0.246690	0.464804
H293	H	0.785768	-0.253309	0.035285
H294	H	1.285768	0.246691	0.535285
C295	C	0.559273	-0.746603	0.000002
C296	C	1.059273	-0.246603	0.500002
H297	H	0.566228	-0.787246	0.000003
H298	H	1.066228	-0.287246	0.500003
H299	H	0.538062	-0.733957	-0.035237
H300	H	1.038062	-0.233957	0.464763
H301	H	0.538053	-0.733961	0.035245
H302	H	1.038053	-0.233961	0.535245
C303	C	0.793070	-0.046519	0.433220
C304	C	1.293070	0.453481	0.933220
H305	H	0.787503	-0.040942	0.390783
H306	H	1.287503	0.459058	0.890783
H307	H	0.787118	-0.084504	0.443639
H308	H	1.287118	0.415496	0.943639
H309	H	0.831037	-0.040507	0.443651
H310	H	1.331037	0.459493	0.943651
C311	C	0.256610	-0.086080	0.000049
C312	C	0.756610	0.413920	0.500049
H313	H	0.234621	-0.117310	0.000049
H314	H	0.734621	0.382690	0.500049
H315	H	0.280079	-0.087967	0.035283
H316	H	0.780079	0.412033	0.535283
H317	H	0.280074	-0.087966	-0.035198
H318	H	0.780074	0.412034	0.464802
H319	H	0.601676	0.144737	0.734936
H320	H	1.101676	0.644737	1.234936
C321	C	0.512117	-0.341557	-0.000012
C322	C	1.012117	0.158443	0.499988
H323	H	0.480883	-0.363541	-0.000013
H324	H	0.980883	0.136459	0.499987
H325	H	0.510241	-0.318088	-0.035248
H326	H	1.010241	0.181912	0.464752
H327	H	0.510228	-0.318094	0.035233
H328	H	1.010228	0.181906	0.535233
H329	H	0.819097	-0.391900	0.000033
H330	H	1.319097	0.108100	0.500033
H331	H	0.762610	-0.765821	0.000011
H332	H	1.262610	-0.265821	0.500011
H333	H	0.580747	-0.193677	0.000042
H334	H	1.080747	0.306323	0.500042
H335	H	0.817806	-0.499644	0.000022
H336	H	1.317806	0.000356	0.500022
H337	H	0.575496	-0.632386	-0.000000
H338	H	1.075496	-0.132386	0.500000
H339	H	0.562700	0.183658	0.442344
H340	H	1.062700	0.683658	0.942344
H341	H	0.486595	0.172252	-0.000006
H342	H	0.986595	0.672252	0.499994
C343	C	0.368338	0.185697	0.000001
C344	C	0.868338	0.685697	0.500001
H345	H	0.390325	0.216929	-0.000012
H346	H	0.890325	0.716929	0.499988
H347	H	0.344867	0.187590	0.035239
H348	H	0.844867	0.687590	0.535239
H349	H	0.344878	0.187572	-0.035243
H350	H	0.844878	0.687572	0.464757
H351	H	0.742971	0.003535	0.149728
H352	H	1.242971	0.503535	0.649728
C353	C	0.754128	-0.007628	0.725813
C354	C	1.254128	0.492372	1.225813
H355	H	0.777320	-0.030810	0.753864
H356	H	1.277320	0.469190	1.253864
H357	H	0.777717	0.012735	0.700993
H358	H	1.277717	0.512735	1.200993
H359	H	0.733772	-0.031237	0.701008
H360	H	1.233772	0.468763	1.201008
C361	C	0.522784	-0.030886	0.000037
C362	C	1.022784	0.469114	0.500037
H363	H	0.500807	-0.062125	0.000038
H364	H	1.000807	0.437875	0.500038
H365	H	0.546246	-0.032757	0.035274
H366	H	1.046246	0.467243	0.535274
H367	H	0.546252	-0.032769	-0.035207
H368	H	1.046252	0.467231	0.464793
H369	H	0.206274	0.220904	0.000022
H370	H	0.706274	0.720904	0.500022
H371	H	0.601692	0.144739	0.850318
H372	H	1.101692	0.644739	1.350318
H373	H	-0.141954	-0.023984	0.000041
H374	H	0.358046	0.476016	0.500041
H375	H	-0.034204	-0.022699	0.000050
H376	H	0.465796	0.477301	0.500050
H377	H	0.098525	0.219610	0.000035
H378	H	0.598525	0.719610	0.500035
H379	H	0.138359	-0.072637	0.000053
H380	H	0.638359	0.427363	0.500053
H381	H	0.404515	-0.017447	0.000034
H382	H	0.904515	0.482553	0.500034
