data_functionalizedCrystal
_audit_creation_method	'MofGen! by Chris Wilmer'
_symmetry_space_group_name_H-M	'P1'
_symmetry_Int_Tables_number	1
_symmetry_cell_setting	triclinic
loop_
_symmetry_equiv_pos_as_xyz
  x,y,z
_cell_length_a	6.817900
_cell_length_b	23.752963
_cell_length_c	23.753023
_cell_angle_alpha	97.113271
_cell_angle_beta	100.067528
_cell_angle_gamma	100.066732
loop_
_atom_site_label
_atom_site_type_symbol
_atom_site_fract_x
_atom_site_fract_y
_atom_site_fract_z
V1	V	-3.971794	-0.079886	-0.178727
O2	O	-3.977677	0.003095	-0.174979
O3	O	-3.907026	-0.157686	-0.177837
O4	O	-3.907021	-0.078983	-0.256524
O5	O	-3.977682	-0.076152	-0.095747
V6	V	-4.459665	-0.069922	-0.168762
O7	O	-4.223516	-0.101743	-0.200587
O8	O	-4.658140	-0.048065	-0.146902
O9	O	-4.301226	0.007878	-0.169652
O10	O	-4.571179	-0.152903	-0.172509
O11	O	-4.571174	-0.073656	-0.251741
O12	O	-4.301231	-0.070825	-0.090964
C13	C	-3.748575	-0.176641	-0.175103
C14	C	-3.776798	-0.240246	-0.174894
C15	C	-3.924670	-0.626269	-0.121105
C16	C	-3.951214	-0.686031	-0.120900
O17	O	-3.941785	-0.709812	-0.076207
N18	N	-3.991787	-0.724303	-0.173229
C19	C	-4.005838	-0.702811	-0.225766
O20	O	-4.042788	-0.740852	-0.270258
C21	C	-3.979309	-0.643050	-0.225971
C22	C	-3.938715	-0.604780	-0.173638
C23	C	-3.884081	-0.588000	-0.068776
C24	C	-3.857536	-0.528242	-0.068981
C25	C	-3.871581	-0.506753	-0.121514
C26	C	-3.912170	-0.545022	-0.173842
C27	C	-3.993374	-0.621559	-0.278507
C28	C	-3.966843	-0.561794	-0.278707
C29	C	-3.926249	-0.523524	-0.226374
C30	C	-3.899670	-0.463776	-0.226580
N31	N	-3.859097	-0.425504	-0.174251
C32	C	-3.845052	-0.446992	-0.121718
C33	C	-4.061551	-0.828312	-0.225334
C34	C	-4.088066	-0.888072	-0.225130
C35	C	-4.033443	-0.871288	-0.120264
C36	C	-4.006914	-0.811527	-0.120468
C37	C	-4.020978	-0.790040	-0.173005
C38	C	-3.789306	-0.321497	-0.122152
C39	C	-3.762753	-0.261734	-0.122361
C40	C	-3.817388	-0.278524	-0.227227
C41	C	-3.843929	-0.338281	-0.227018
C42	C	-3.829891	-0.359765	-0.174476
O43	O	-3.909078	-0.439953	-0.271251
O44	O	-3.808129	-0.408946	-0.077235
C45	C	-3.748568	-0.076248	-0.275476
C46	C	-3.776784	-0.076025	-0.339078
C47	C	-3.979301	-0.127140	-0.741885
C48	C	-4.005846	-0.126939	-0.801648
O49	O	-4.042870	-0.171425	-0.839697
N50	N	-3.991799	-0.074407	-0.823143
C51	C	-3.951223	-0.022073	-0.784872
O52	O	-3.941714	0.022628	-0.808643
C53	C	-3.924693	-0.022274	-0.725111
C54	C	-3.938724	-0.074810	-0.703619
C55	C	-3.993332	-0.179671	-0.720393
C56	C	-3.966785	-0.179871	-0.660634
C57	C	-3.926207	-0.127541	-0.622368
C58	C	-3.912177	-0.075010	-0.643861
C59	C	-3.884133	0.030059	-0.686842
C60	C	-3.857605	0.029853	-0.627077
C61	C	-3.871635	-0.022682	-0.605585
C62	C	-3.845052	-0.022880	-0.545836
N63	N	-3.859099	-0.075412	-0.524341
C64	C	-3.899677	-0.127743	-0.562607
C65	C	-4.006944	-0.021654	-0.910376
C66	C	-4.033459	-0.021451	-0.970135
C67	C	-4.088084	-0.126318	-0.986907
C68	C	-4.061554	-0.126519	-0.927146
C69	C	-4.020991	-0.074186	-0.888880
C70	C	-3.843922	-0.128160	-0.437109
C71	C	-3.817362	-0.128355	-0.377344
C72	C	-3.762750	-0.023489	-0.360578
C73	C	-3.789297	-0.023293	-0.420337
C74	C	-3.829892	-0.075633	-0.458602
O75	O	-3.808031	0.021583	-0.507753
O76	O	-3.909205	-0.172437	-0.538828
C77	C	-4.123019	0.026830	-0.172384
C78	C	-4.074034	0.090434	-0.172597
C79	C	-4.123026	-0.073562	-0.072009
C80	C	-4.074049	-0.073782	-0.008407
H81	H	-4.121086	-0.919226	-0.267744
N82	N	-3.718991	0.032956	-0.319308
H83	H	-3.588664	0.057865	-0.324057
H84	H	-3.704413	0.024812	-0.278206
N85	N	-4.018329	-0.894475	-0.063603
H86	H	-4.124787	-0.882392	-0.042669
H87	H	-3.878703	-0.878419	-0.038805
H88	H	-4.072999	-0.810823	-0.268118
H89	H	-3.828809	-0.261016	-0.269998
N90	N	-3.718905	-0.220456	-0.065913
H91	H	-3.714027	-0.243141	-0.032604
H92	H	-3.829685	-0.197270	-0.065651
N93	N	-4.037166	-0.662828	-0.334952
H94	H	-3.921490	-0.654107	-0.355963
H95	H	-4.167553	-0.658055	-0.359808
H96	H	-3.978321	-0.544304	-0.321490
H97	H	-3.777872	-0.338982	-0.079367
N98	N	-4.018317	0.035213	-0.993310
H99	H	-4.041290	0.027406	-1.036976
H100	H	-3.878739	0.060023	-0.977215
H101	H	-3.824497	-0.497088	-0.026366
H102	H	-4.072980	-0.169298	-0.909652
N103	N	-4.037113	-0.236118	-0.761661
H104	H	-4.041974	-0.269421	-0.738968
H105	H	-3.926298	-0.236373	-0.784834
H106	H	-3.872645	-0.605489	-0.025995
N107	N	-4.131870	-0.182765	-1.028182
H108	H	-4.021095	-0.183070	-1.051367
H109	H	-4.267159	-0.186932	-1.055298
N110	N	-3.963100	-0.770252	-0.064024
H111	H	-3.958216	-0.792939	-0.030716
H112	H	-4.073902	-0.747074	-0.063764
N113	N	-3.887677	-0.379561	-0.283460
H114	H	-3.892535	-0.356877	-0.316770
H115	H	-4.022899	-0.406703	-0.287611
H116	H	-3.973898	0.020966	-0.879222
N117	N	-3.813790	0.086302	-0.585806
H118	H	-3.799087	0.078208	-0.544685
H119	H	-3.929501	0.107291	-0.594570
N120	N	-3.868970	0.086728	-0.710003
H121	H	-3.975424	0.107661	-0.697917
H122	H	-3.891869	0.078884	-0.753665
N123	N	-3.832517	-0.185021	-0.354164
H124	H	-3.862268	-0.218140	-0.387478
H125	H	-3.945712	-0.189334	-0.331721
H126	H	-3.777882	0.019485	-0.437837
N127	N	-3.887710	-0.184611	-0.478375
H128	H	-3.892563	-0.217915	-0.455683
H129	H	-3.776902	-0.184864	-0.501551
N130	N	-3.981988	-0.236536	-0.637459
H131	H	-4.011749	-0.269652	-0.670776
H132	H	-4.095202	-0.240844	-0.615022
