data_functionalizedCrystal
_audit_creation_method	'MofGen! by Chris Wilmer'
_symmetry_space_group_name_H-M	'P1'
_symmetry_Int_Tables_number	1
_symmetry_cell_setting	triclinic
loop_
_symmetry_equiv_pos_as_xyz
  x,y,z
_cell_length_a	12.837943
_cell_length_b	14.044220
_cell_length_c	11.892083
_cell_angle_alpha	85.758834
_cell_angle_beta	94.313776
_cell_angle_gamma	94.008909
loop_
_atom_site_label
_atom_site_type_symbol
_atom_site_fract_x
_atom_site_fract_y
_atom_site_fract_z
O1	O	1.404554	0.242989	0.093990
O2	O	1.101614	0.230713	0.093996
O3	O	1.248537	0.098456	0.093982
O4	O	1.257632	0.375245	0.094004
O5	O	1.236274	0.109457	-0.094025
O6	O	1.089352	0.241714	-0.094011
O7	O	1.392292	0.253989	-0.094017
Zn8	Zn	1.238875	0.249598	-0.123864
Zn9	Zn	1.255031	0.235104	0.123843
O10	O	1.245370	0.386246	-0.094003
C11	C	1.056479	0.232067	-0.000007
C12	C	0.940259	0.219699	-0.000005
C13	C	1.238425	0.068282	-0.000022
C14	C	1.226550	-0.038016	-0.000023
C15	C	0.713048	0.368378	-0.000009
C16	C	0.603848	0.356763	-0.000008
C17	C	0.612657	0.184853	-0.000009
C18	C	0.721856	0.196469	-0.000011
C19	C	0.772048	0.288234	-0.000008
C20	C	0.881251	0.299849	-0.000001
C21	C	0.890056	0.127940	-0.000011
C22	C	0.780857	0.116324	-0.000010
C23	C	1.204843	-0.232639	-0.000006
C24	C	1.289060	-0.282665	-0.000005
C25	C	1.276982	-0.390960	0.000005
C26	C	1.216919	-0.124334	-0.000016
C27	C	1.437428	0.252635	-0.000012
C28	C	1.553649	0.265002	-0.000006
C29	C	1.255482	0.416420	0.000004
C30	C	1.267357	0.522717	0.000012
N31	N	1.227857	0.259489	-0.292917
C32	C	1.151257	0.328425	-0.470448
C33	C	1.158939	0.321494	-0.352106
C34	C	1.289096	0.204409	-0.352078
C35	C	1.281414	0.211340	-0.470419
C36	C	1.212494	0.273351	-0.529600
C37	C	1.204819	0.280286	-0.647943
C38	C	1.334969	0.163197	-0.647912
C39	C	1.342651	0.156266	-0.529571
N40	N	1.266057	0.225206	0.292896
H41	H	0.922115	0.374569	-0.000002
C42	C	1.091606	0.382111	-0.287043
N43	N	1.040900	0.427780	-0.238038
H44	H	1.148703	0.330781	-0.696128
H45	H	1.095147	0.378923	-0.518634
H46	H	0.753915	0.443098	-0.000005
C47	C	0.557425	0.083919	-0.000024
N48	N	0.515824	0.007894	-0.000036
C49	C	1.364859	0.136163	-0.286958
N50	N	1.421911	0.084747	-0.237909
H51	H	1.398762	0.105775	-0.481372
H52	H	0.739974	0.041612	-0.000025
H53	H	1.384835	0.118355	-0.696087
C54	C	1.095189	-0.284652	-0.000019
N55	N	1.012597	-0.323838	-0.000038
H56	H	0.555814	0.422025	-0.000011
C57	C	1.398720	-0.230651	-0.000023
N58	N	1.481312	-0.191469	-0.000043
H59	H	0.938107	0.062681	-0.000003
