data_functionalizedCrystal
_audit_creation_method	'MofGen! by Chris Wilmer'
_symmetry_space_group_name_H-M	'P1'
_symmetry_Int_Tables_number	1
_symmetry_cell_setting	triclinic
loop_
_symmetry_equiv_pos_as_xyz
  x,y,z
_cell_length_a	10.723023
_cell_length_b	14.044220
_cell_length_c	9.198806
_cell_angle_alpha	89.995861
_cell_angle_beta	89.996513
_cell_angle_gamma	88.828213
loop_
_atom_site_label
_atom_site_type_symbol
_atom_site_fract_x
_atom_site_fract_y
_atom_site_fract_z
O1	O	1.670498	0.133036	-0.120882
O2	O	2.170498	0.633036	0.379118
O3	O	1.308620	0.145772	-0.120889
O4	O	1.808620	0.645772	0.379111
O5	O	1.484127	0.001384	-0.120871
O6	O	1.984127	0.501384	0.379129
O7	O	1.494991	0.277424	-0.120900
O8	O	1.994991	0.777424	0.379100
O9	O	1.484112	0.001384	0.120914
O10	O	1.984112	0.501384	0.620914
O11	O	1.308605	0.145771	0.120896
O12	O	1.808605	0.645771	0.620896
O13	O	1.670483	0.133036	0.120903
O14	O	2.170483	0.633036	0.620903
Cu15	Cu	1.489542	0.139403	0.142977
Cu16	Cu	1.989542	0.639403	0.642977
Cu17	Cu	1.489560	0.139404	-0.142962
Cu18	Cu	1.989560	0.639404	0.357038
O19	O	1.494976	0.277423	0.120885
O20	O	1.994976	0.777423	0.620885
C21	C	1.262020	0.144845	0.000003
C22	C	1.762020	0.644845	0.500003
C23	C	1.123188	0.142072	0.000001
C24	C	1.623188	0.642072	0.500001
C25	C	1.061285	0.140836	0.125252
C26	C	1.561285	0.640836	0.625252
C27	C	0.917795	0.137971	0.125253
C28	C	1.417795	0.637971	0.625253
C29	C	1.479364	-0.033962	0.000022
C30	C	1.979364	0.466038	0.500022
C31	C	1.465180	-0.139280	0.000023
C32	C	1.965180	0.360720	0.500023
C33	C	1.439248	-0.332109	0.000002
C34	C	1.939248	0.167891	0.500002
C35	C	1.539850	-0.389089	-0.000000
C36	C	2.039850	0.110911	0.500000
C37	C	1.525421	-0.496386	-0.000012
C38	C	2.025421	0.003614	0.499988
C39	C	1.453675	-0.224802	0.000014
C40	C	1.953675	0.275198	0.500014
C41	C	1.717083	0.133963	0.000008
C42	C	2.217083	0.633963	0.500008
C43	C	1.855915	0.136735	0.000000
C44	C	2.355915	0.636735	0.500000
C45	C	1.499739	0.312769	-0.000011
C46	C	1.999739	0.812769	0.499989
C47	C	1.513923	0.418087	-0.000022
C48	C	2.013923	0.918087	0.499978
N49	N	1.489539	0.139403	0.344091
N50	N	1.989539	0.639403	0.844091
N51	N	1.489573	0.139397	-0.344076
N52	N	1.989573	0.639397	0.155924
C53	C	1.563203	0.078511	0.416295
C54	C	2.063203	0.578511	0.916295
C55	C	1.563222	0.078508	0.583707
C56	C	2.063222	0.578508	1.083707
H57	H	1.069957	0.141007	-0.107230
H58	H	1.569957	0.641007	0.392770
H59	H	1.342291	-0.363909	-0.000003
H60	H	1.842291	0.136091	0.499997
H61	H	0.864559	0.136913	0.232485
H62	H	1.364559	0.636913	0.732485
H63	H	0.909142	0.137804	-0.107237
H64	H	1.409142	0.637804	0.392763
H65	H	1.626251	0.026378	0.354175
H66	H	2.126251	0.526378	0.854175
O67	O	1.646766	0.009446	0.665938
O68	O	2.146766	0.509446	1.165938
H69	H	1.633664	0.020276	0.784526
H70	H	2.133664	0.520276	1.284526
O71	O	1.406012	0.208444	0.573685
O72	O	1.906012	0.708444	1.073685
H73	H	1.463912	0.254741	0.504305
H74	H	1.963912	0.754741	1.004305
O75	O	1.131777	0.142250	0.267305
O76	O	1.631777	0.642250	0.767305
H77	H	1.233417	0.144288	0.245013
H78	H	1.733417	0.644288	0.745013
O79	O	1.668296	-0.346977	0.000028
O80	O	2.168296	0.153023	0.500028
H81	H	1.659624	-0.268087	0.000052
H82	H	2.159624	0.231913	0.500052
O83	O	1.406022	0.208472	0.426349
O84	O	1.906022	0.708472	0.926349
H85	H	1.340795	0.168230	0.495726
H86	H	1.840795	0.668230	0.995726
