data_functionalizedCrystal
_audit_creation_method	'MofGen! by Chris Wilmer'
_symmetry_space_group_name_H-M	'P1'
_symmetry_Int_Tables_number	1
_symmetry_cell_setting	triclinic
loop_
_symmetry_equiv_pos_as_xyz
  x,y,z
_cell_length_a	9.016244
_cell_length_b	10.654550
_cell_length_c	10.654551
_cell_angle_alpha	95.514820
_cell_angle_beta	89.999561
_cell_angle_gamma	90.004115
loop_
_atom_site_label
_atom_site_type_symbol
_atom_site_fract_x
_atom_site_fract_y
_atom_site_fract_z
O1	O	-0.123223	-1.667848	0.176394
O2	O	-0.123250	-1.302369	0.193200
O3	O	-0.123233	-1.493511	0.002058
O4	O	-0.123240	-1.476706	0.367536
O5	O	0.123448	-1.493483	0.002062
O6	O	0.123431	-1.302341	0.193204
O7	O	0.123457	-1.667820	0.176398
Cu8	Cu	0.145968	-1.485078	0.184801
Cu9	Cu	-0.145761	-1.485111	0.184796
O10	O	0.123440	-1.476678	0.367540
C11	C	0.000087	-1.255557	0.191968
C12	C	0.000077	-1.116114	0.188276
N13	N	0.351154	-1.485064	0.184804
N14	N	-0.350947	-1.485135	0.184784
C15	C	0.586178	-1.382502	0.286710
C16	C	0.414287	-1.382729	0.287091
C17	C	0.413502	-1.616360	0.214570
C18	C	0.585446	-1.615800	0.215291
C19	C	0.585698	-1.457632	0.052799
C20	C	0.413744	-1.454619	0.053656
C21	C	0.000105	-1.492262	-0.044738
C22	C	0.000098	-1.488570	-0.184181
C23	C	0.000117	-1.714632	0.177630
C24	C	0.000118	-1.854075	0.181322
C25	C	0.000079	-1.036629	0.300818
C26	C	0.000104	-0.905608	0.297341
C27	C	0.000120	-0.933570	0.068772
C28	C	0.000105	-1.064588	0.072249
C29	C	-0.134369	-1.486852	-0.249687
C30	C	-0.134371	-1.483372	-0.380708
C31	C	0.134574	-1.483333	-0.380705
C32	C	0.134574	-1.486804	-0.249686
C33	C	0.000099	-1.477926	0.414336
C34	C	0.000097	-1.481619	0.553779
H35	H	0.372136	-1.285170	0.269188
Cl36	Cl	0.650039	-1.231396	0.259479
Cl37	Cl	0.303633	-1.488949	-0.167327
Cl38	Cl	0.303620	-1.481114	-0.463063
Cl39	Cl	-0.303424	-1.489065	-0.167342
Cl40	Cl	0.000052	-1.101399	0.446679
H41	H	0.629370	-1.399946	0.384077
H42	H	0.373139	-1.400403	0.385013
H43	H	0.000108	-1.129309	-0.019401
Cl44	Cl	0.350369	-1.737158	0.103079
Cl45	Cl	0.647348	-1.652945	0.363956
Cl46	Cl	-0.303423	-1.481210	-0.463053
Cl47	Cl	0.000109	-0.805688	0.438829
Cl48	Cl	0.648473	-1.573163	-0.064329
Cl49	Cl	0.346999	-1.654345	0.361555
H50	H	0.627036	-1.694618	0.144042
Cl51	Cl	0.652715	-1.312915	0.009068
H52	H	0.000153	-0.891602	-0.025693
H53	H	0.372995	-1.358030	0.031093
H54	H	0.370774	-1.524422	-0.025833
