data_functionalizedCrystal
_audit_creation_method	'MofGen! by Chris Wilmer'
_symmetry_space_group_name_H-M	'P1'
_symmetry_Int_Tables_number	1
_symmetry_cell_setting	triclinic
loop_
_symmetry_equiv_pos_as_xyz
  x,y,z
_cell_length_a	17.038272
_cell_length_b	16.992695
_cell_length_c	16.053802
_cell_angle_alpha	87.258926
_cell_angle_beta	92.761434
_cell_angle_gamma	90.889890
loop_
_atom_site_label
_atom_site_type_symbol
_atom_site_fract_x
_atom_site_fract_y
_atom_site_fract_z
O1	O	-1.051195	-0.167893	-0.069325
O2	O	-0.717862	0.165440	0.264008
O3	O	-0.384528	0.498774	0.597341
O4	O	-0.823395	-0.165177	-0.069350
O5	O	-0.490062	0.168156	0.263984
O6	O	-0.156729	0.501490	0.597317
O7	O	-0.936382	-0.052332	-0.069331
O8	O	-0.603048	0.281002	0.264002
O9	O	-0.269715	0.614335	0.597336
O10	O	-0.938209	-0.280738	-0.069344
O11	O	-0.604875	0.052595	0.263989
O12	O	-0.271542	0.385928	0.597323
O13	O	-0.930161	-0.058516	0.069527
O14	O	-0.596828	0.274818	0.402860
O15	O	-0.263494	0.608151	0.736194
O16	O	-0.817174	-0.171361	0.069508
O17	O	-0.483841	0.161972	0.402841
O18	O	-0.150508	0.495306	0.736175
O19	O	-1.044974	-0.174077	0.069533
O20	O	-0.711641	0.159256	0.402866
O21	O	-0.378308	0.492590	0.736199
Zn22	Zn	-0.930087	-0.173701	0.091567
Zn23	Zn	-0.596753	0.159633	0.424900
Zn24	Zn	-0.263420	0.492966	0.758234
Zn25	Zn	-0.938283	-0.165553	-0.091384
Zn26	Zn	-0.604950	0.167780	0.241949
Zn27	Zn	-0.271616	0.501113	0.575282
O28	O	-0.931988	-0.286922	0.069514
O29	O	-0.598655	0.046411	0.402847
O30	O	-0.265321	0.379744	0.736180
C31	C	-0.791002	-0.165799	0.000076
C32	C	-0.457668	0.167534	0.333409
C33	C	-0.124335	0.500867	0.666743
C34	C	-0.703747	-0.158432	0.000067
C35	C	-0.370414	0.174902	0.333400
C36	C	-0.037080	0.508235	0.666734
C37	C	-1.077368	-0.173454	0.000105
C38	C	-0.744035	0.159879	0.333438
C39	C	-0.410701	0.493212	0.666772
C40	C	-1.164623	-0.180822	0.000109
C41	C	-0.831290	0.152511	0.333442
C42	C	-0.497956	0.485845	0.666775
C43	C	-0.930922	-0.026054	0.000098
C44	C	-0.597588	0.307279	0.333431
C45	C	-0.264255	0.640612	0.666764
C46	C	-0.923911	0.061457	0.000097
C47	C	-0.590578	0.394791	0.333430
C48	C	-0.257245	0.728124	0.666763
C49	C	-0.657877	-0.226072	0.000064
C50	C	-0.324544	0.107262	0.333397
C51	C	0.008790	0.440595	0.666730
C52	C	-0.575891	-0.219145	0.000076
C53	C	-0.242558	0.114188	0.333409
C54	C	0.090775	0.447521	0.666742
C55	C	-0.539777	-0.144578	0.000085
C56	C	-0.206444	0.188755	0.333418
C57	C	0.126889	0.522089	0.666751
C58	C	-0.585654	-0.076933	0.000090
C59	C	-0.252320	0.256400	0.333424
C60	C	0.081013	0.589734	0.666757
C61	C	-0.667637	-0.083861	0.000084
C62	C	-0.334304	0.249473	0.333418
C63	C	-0.000971	0.582806	0.666751
C64	C	-0.292483	-0.120105	0.000108
C65	C	0.040850	0.213229	0.333442
C66	C	0.374184	0.546562	0.666775
C67	C	-0.210493	-0.113182	0.000112
C68	C	0.122840	0.220151	0.333445
C69	C	0.456174	0.553485	0.666779
C70	C	-0.200736	-0.255395	0.000099
C71	C	0.132597	0.077938	0.333432
C72	C	0.465930	0.411272	0.666765
C73	C	-0.282722	-0.262316	0.000088
C74	C	0.050611	0.071018	0.333421
C75	C	0.383944	0.404351	0.666754
C76	C	-0.328591	-0.194671	0.000098
C77	C	0.004742	0.138662	0.333431
C78	C	0.338076	0.471996	0.666764
C79	C	-0.455975	-0.137496	0.000094
C80	C	-0.122642	0.195837	0.333428
C81	C	0.210692	0.529171	0.666761
C82	C	-0.412392	-0.201754	0.000094
C83	C	-0.079058	0.131580	0.333427
C84	C	0.254275	0.464913	0.666761
C85	C	-0.937448	-0.313199	0.000083
C86	C	-0.604115	0.020134	0.333417
C87	C	-0.270781	0.353467	0.666750
C88	C	-0.944458	-0.400711	0.000079
C89	C	-0.611125	-0.067378	0.333412
C90	C	-0.277792	0.265956	0.666746
N91	N	-0.924499	-0.179261	0.216426
N92	N	-0.591165	0.154072	0.549760
N93	N	-0.257832	0.487406	0.883093
C94	C	-0.991551	0.107186	0.000105
C95	C	-0.658218	0.440519	0.333438
C96	C	-0.324885	0.773852	0.666771
C97	C	-0.984960	0.189412	0.000096
C98	C	-0.651627	0.522746	0.333429
C99	C	-0.318293	0.856079	0.666763
C100	C	-0.910728	0.225909	0.000085
C101	C	-0.577395	0.559242	0.333419
C102	C	-0.244061	0.892576	0.666752
C103	C	-0.843083	0.180175	0.000075
C104	C	-0.509750	0.513508	0.333408
C105	C	-0.176417	0.846842	0.666741
C106	C	-0.849676	0.097950	0.000077
C107	C	-0.516342	0.431283	0.333411
C108	C	-0.183009	0.764617	0.666744
C109	C	-0.883406	0.471330	0.000071
C110	C	-0.550073	0.804663	0.333404
C111	C	-0.216739	1.137997	0.666738
C112	C	-0.876819	0.553561	0.000071
C113	C	-0.543485	0.886894	0.333404
C114	C	-0.210152	1.220227	0.666737
C115	C	-1.018696	0.562793	0.000091
C116	C	-0.685363	0.896126	0.333424
C117	C	-0.352029	1.229459	0.666757
C118	C	-1.025282	0.480565	0.000098
C119	C	-0.691948	0.813899	0.333432
C120	C	-0.358615	1.147232	0.666765
C121	C	-0.957637	0.434839	0.000083
C122	C	-0.624304	0.768172	0.333417
C123	C	-0.290970	1.101505	0.666750
N124	N	-0.903989	0.309958	0.000079
N125	N	-0.570655	0.643291	0.333412
N126	N	-0.237322	0.976624	0.666746
N127	N	-0.964377	0.350792	0.000083
N128	N	-0.631044	0.684125	0.333417
N129	N	-0.297711	1.017459	0.666750
N130	N	-0.943877	-0.159987	-0.216244
N131	N	-0.610543	0.173346	0.117090
N132	N	-0.277210	0.506680	0.450423
C133	C	-0.972594	-0.131265	0.260128
C134	C	-0.639261	0.202068	0.593462
C135	C	-0.305928	0.535402	0.926795
C136	C	-0.968693	-0.135162	0.347534
C137	C	-0.635360	0.198171	0.680868
C138	C	-0.302027	0.531504	1.014201
C139	C	-0.916700	-0.187061	0.391237
C140	C	-0.583367	0.146273	0.724570
C141	C	-0.250033	0.479606	1.057904
C142	C	-0.868599	-0.235059	0.347529
C143	C	-0.535266	0.098274	0.680862
C144	C	-0.201932	0.431608	1.014196
C145	C	-0.872497	-0.231157	0.260124
C146	C	-0.539163	0.102176	0.593458
C147	C	-0.205830	0.435510	0.926791
C148	C	-0.899673	-0.204083	0.652644
C149	C	-0.566340	0.129250	0.985977
C150	C	-0.233007	0.462584	1.319311
C151	C	-0.895781	-0.207983	0.740054
C152	C	-0.562448	0.125350	1.073388
C153	C	-0.229114	0.458683	1.406721
C154	C	-0.995875	-0.108085	0.740054
C155	C	-0.662541	0.225248	1.073387
C156	C	-0.329208	0.558581	1.406721
C157	C	-0.999771	-0.104191	0.652648
C158	C	-0.666438	0.229142	0.985981
C159	C	-0.333104	0.562476	1.319314
C160	C	-0.951667	-0.152186	0.608947
C161	C	-0.618334	0.181147	0.942281
C162	C	-0.285000	0.514480	1.275614
N163	N	-0.912713	-0.191048	0.480580
N164	N	-0.579380	0.142286	0.813913
N165	N	-0.246046	0.475619	1.147247
N166	N	-0.955651	-0.148195	0.519606
N167	N	-0.622317	0.185138	0.852939
N168	N	-0.288984	0.518472	1.186272
H169	H	-0.687274	-0.286792	0.000056
H170	H	-0.353941	0.046541	0.333389
H171	H	-0.020608	0.379874	0.666722
H172	H	-1.040040	0.226641	0.000105
H173	H	-0.706706	0.559974	0.333438
H174	H	-0.373373	0.893307	0.666771
F175	F	-0.417533	-0.058138	0.000101
F176	F	-0.084200	0.275196	0.333434
F177	F	0.249134	0.608529	0.666768
F178	F	-0.151914	-0.327382	0.000090
F179	F	0.181419	0.005951	0.333423
F180	F	0.514753	0.339285	0.666756
H181	H	-0.860506	-0.243164	0.617070
H182	H	-0.527173	0.090169	0.950403
H183	H	-0.193840	0.423502	1.283736
F184	F	-0.840440	-0.263226	0.786561
F185	F	-0.507106	0.070108	1.119894
F186	F	-0.173773	0.403441	1.453227
H187	H	-0.826261	-0.277313	0.383117
H188	H	-0.492927	0.056020	0.716450
H189	H	-0.159594	0.389354	1.049783
F190	F	-0.777684	0.049283	0.000066
F191	F	-0.444351	0.382616	0.333399
F192	F	-0.111017	0.715950	0.666733
F193	F	-1.019881	-0.084079	0.394046
F194	F	-0.686548	0.249255	0.727379
F195	F	-0.353215	0.582588	1.060712
F196	F	-1.070559	0.068350	0.000124
F197	F	-0.737226	0.401684	0.333458
F198	F	-0.403893	0.735017	0.666791
F199	F	-1.055109	-0.048956	0.606137
F200	F	-0.721775	0.284377	0.939471
F201	F	-0.388442	0.617710	1.272804
H202	H	-1.085729	0.450856	0.000107
H203	H	-0.752396	0.784189	0.333441
H204	H	-0.419062	1.117523	0.666774
H205	H	-0.833331	-0.270239	0.224543
H206	H	-0.499998	0.063094	0.557876
H207	H	-0.166664	0.396427	0.891210
H208	H	-1.014936	-0.089007	0.224551
H209	H	-0.681603	0.244326	0.557885
H210	H	-0.348270	0.577659	0.891218
H211	H	-1.035038	-0.069009	0.775643
H212	H	-0.701705	0.264324	1.108976
H213	H	-0.368371	0.597658	1.442309
H214	H	-1.073768	0.600032	0.000101
H215	H	-0.740435	0.933365	0.333435
H216	H	-0.407102	1.266699	0.666768
F217	F	-0.321151	-0.341680	0.000073
F218	F	0.012182	-0.008347	0.333407
F219	F	0.345515	0.324987	0.666740
F220	F	-0.172060	-0.033814	0.000136
F221	F	0.161274	0.299519	0.333469
F222	F	0.494607	0.632852	0.666803
F223	F	-0.341289	-0.048110	0.000119
F224	F	-0.007956	0.285223	0.333452
F225	F	0.325377	0.618557	0.666786
F226	F	-0.527076	-0.291137	0.000069
F227	F	-0.193743	0.042196	0.333402
F228	F	0.139590	0.375529	0.666735
F229	F	-0.547216	0.002427	0.000106
F230	F	-0.213883	0.335761	0.333439
F231	F	0.119450	0.669094	0.666772
H232	H	-0.441799	-0.262466	0.000091
H233	H	-0.108465	0.070867	0.333425
H234	H	0.224868	0.404200	0.666758
F235	F	-0.716456	-0.011869	0.000091
F236	F	-0.383122	0.321465	0.333424
F237	F	-0.049789	0.654798	0.666758
F238	F	-0.797807	0.592401	0.000063
F239	F	-0.464474	0.925734	0.333397
F240	F	-0.131140	1.259068	0.666730
F241	F	-0.811412	0.422675	0.000053
F242	F	-0.478078	0.756008	0.333386
F243	F	-0.144745	1.089341	0.666719
H244	H	-0.782642	0.209897	0.000061
H245	H	-0.449309	0.543231	0.333394
H246	H	-0.115975	0.876564	0.666727
