data_functionalizedCrystal
_audit_creation_method	'MofGen! by Chris Wilmer'
_symmetry_space_group_name_H-M	'P1'
_symmetry_Int_Tables_number	1
_symmetry_cell_setting	triclinic
loop_
_symmetry_equiv_pos_as_xyz
  x,y,z
_cell_length_a	16.120297
_cell_length_b	16.120530
_cell_length_c	16.120484
_cell_angle_alpha	90.167327
_cell_angle_beta	84.385569
_cell_angle_gamma	89.871860
loop_
_atom_site_label
_atom_site_type_symbol
_atom_site_fract_x
_atom_site_fract_y
_atom_site_fract_z
Zn1	Zn	-0.554813	-1.224987	0.422264
Zn2	Zn	-0.304813	-0.974987	0.672264
Zn3	Zn	-0.054813	-0.724987	0.922264
Zn4	Zn	0.195187	-0.474987	1.172264
Zn5	Zn	-0.422118	-1.224883	0.554948
Zn6	Zn	-0.172118	-0.974883	0.804948
Zn7	Zn	0.077882	-0.724883	1.054948
Zn8	Zn	0.327882	-0.474883	1.304948
Zn9	Zn	-0.408056	-1.093726	0.408180
Zn10	Zn	-0.158056	-0.843726	0.658180
Zn11	Zn	0.091944	-0.593726	0.908180
Zn12	Zn	0.341944	-0.343726	1.158180
Zn13	Zn	-0.554051	-1.078880	0.554181
Zn14	Zn	-0.304051	-0.828880	0.804181
Zn15	Zn	-0.054051	-0.578880	1.054181
Zn16	Zn	0.195949	-0.328880	1.304181
O17	O	-0.484760	-1.155619	0.484893
O18	O	-0.234760	-0.905619	0.734893
O19	O	0.015240	-0.655619	0.984893
O20	O	0.265240	-0.405619	1.234893
O21	O	-0.543415	-1.341009	0.446081
O22	O	-0.293415	-1.091009	0.696081
O23	O	-0.043415	-0.841009	0.946081
O24	O	0.206585	-0.591009	1.196081
O25	O	-0.303620	-1.213654	0.529906
O26	O	-0.053620	-0.963654	0.779906
O27	O	0.196380	-0.713654	1.029906
O28	O	0.446380	-0.463654	1.279906
O29	O	-0.421958	-1.117395	0.293418
O30	O	-0.171958	-0.867395	0.543418
O31	O	0.078042	-0.617395	0.793418
O32	O	0.328042	-0.367395	1.043418
O33	O	-0.445925	-1.340932	0.543563
O34	O	-0.195925	-1.090932	0.793563
O35	O	0.054075	-0.840932	1.043563
O36	O	0.304075	-0.590932	1.293563
O37	O	-0.529780	-1.213832	0.303765
O38	O	-0.279780	-0.963832	0.553765
O39	O	-0.029780	-0.713832	0.803765
O40	O	0.220220	-0.463832	1.053765
O41	O	-0.293289	-1.117294	0.422076
O42	O	-0.043289	-0.867294	0.672076
O43	O	0.206711	-0.617294	0.922076
O44	O	0.456711	-0.367294	1.172076
O45	O	-0.421218	-0.975721	0.421332
O46	O	-0.171218	-0.725721	0.671332
O47	O	0.078782	-0.475721	0.921332
O48	O	0.328782	-0.225721	1.171332
O49	O	-0.670785	-1.092092	0.542255
O50	O	-0.420785	-0.842092	0.792255
O51	O	-0.170785	-0.592092	1.042255
O52	O	0.079215	-0.342092	1.292255
O53	O	-0.528480	-0.964814	0.528598
O54	O	-0.278480	-0.714814	0.778598
O55	O	-0.028480	-0.464814	1.028598
O56	O	0.221520	-0.214814	1.278598
O57	O	-0.671345	-1.199436	0.445336
O58	O	-0.421345	-0.949436	0.695336
O59	O	-0.171345	-0.699436	0.945336
O60	O	0.078655	-0.449436	1.195336
O61	O	-0.445185	-1.199258	0.671477
O62	O	-0.195185	-0.949258	0.921477
O63	O	0.054815	-0.699258	1.171477
O64	O	0.304815	-0.449258	1.421477
O65	O	-0.542116	-1.091990	0.670913
O66	O	-0.292116	-0.841990	0.920913
O67	O	-0.042116	-0.591990	1.170913
O68	O	0.207884	-0.341990	1.420913
C69	C	-0.495113	-1.144023	0.701438
C70	C	-0.245113	-0.894023	0.951438
C71	C	0.004887	-0.644023	1.201438
C72	C	0.254887	-0.394023	1.451438
C73	C	-0.499574	-1.139137	0.794083
C74	C	-0.249574	-0.889137	1.044083
C75	C	0.000426	-0.639137	1.294083
C76	C	0.250426	-0.389137	1.544083
C77	C	-0.702152	-1.144119	0.495281
C78	C	-0.452152	-0.894119	0.745281
C79	C	-0.202152	-0.644119	0.995281
C80	C	0.047848	-0.394119	1.245281
C81	C	-0.794791	-1.139219	0.499708
C82	C	-0.544791	-0.889219	0.749708
C83	C	-0.294791	-0.639219	0.999708
C84	C	-0.044791	-0.389219	1.249708
C85	C	-0.473241	-0.940181	0.473354
C86	C	-0.223241	-0.690181	0.723354
C87	C	0.026759	-0.440181	0.973354
C88	C	0.276759	-0.190181	1.223354
C89	C	-0.468334	-0.848013	0.468438
C90	C	-0.218334	-0.598013	0.718438
C91	C	0.031666	-0.348013	0.968438
C92	C	0.281666	-0.098013	1.218438
C93	C	-0.964403	-1.130243	0.507770
C94	C	-0.714403	-0.880243	0.757770
C95	C	-0.464403	-0.630243	1.007770
C96	C	-0.214403	-0.380243	1.257770
C97	C	-1.005965	-1.181172	0.461776
C98	C	-0.755965	-0.931172	0.711776
C99	C	-0.505965	-0.681172	0.961776
C100	C	-0.255965	-0.431172	1.211776
C101	C	-1.100342	-1.176177	0.466262
C102	C	-0.850342	-0.926177	0.716262
C103	C	-0.600342	-0.676177	0.966262
C104	C	-0.350342	-0.426177	1.216262
C105	C	-0.870017	-1.135236	0.503285
C106	C	-0.620017	-0.885236	0.753285
C107	C	-0.370017	-0.635236	1.003285
C108	C	-0.120017	-0.385236	1.253285
C109	C	-0.268213	-1.167125	0.474489
C110	C	-0.018213	-0.917125	0.724489
C111	C	0.231787	-0.667125	0.974489
C112	C	0.481787	-0.417125	1.224489
C113	C	-0.175571	-1.172198	0.469836
C114	C	0.074429	-0.922198	0.719836
C115	C	0.324429	-0.672198	0.969836
C116	C	0.574429	-0.422198	1.219836
C117	C	-0.496324	-1.371899	0.496479
C118	C	-0.246324	-1.121899	0.746479
C119	C	0.003676	-0.871899	0.996479
C120	C	0.253676	-0.621899	1.246479
C121	C	-0.501252	-1.464064	0.501416
C122	C	-0.251252	-1.214064	0.751416
C123	C	-0.001252	-0.964064	1.001416
C124	C	0.248748	-0.714064	1.251416
C125	C	-0.459381	-0.679262	0.459445
C126	C	-0.209381	-0.429262	0.709445
C127	C	0.040619	-0.179262	0.959445
C128	C	0.290619	0.070738	1.209445
C129	C	-0.510202	-0.632810	0.510407
C130	C	-0.260202	-0.382810	0.760407
C131	C	-0.010202	-0.132810	1.010407
C132	C	0.239798	0.117190	1.260407
C133	C	-0.505220	-0.538911	0.505403
C134	C	-0.255220	-0.288911	0.755403
C135	C	-0.005220	-0.038911	1.005403
C136	C	0.244780	0.211089	1.255403
C137	C	-0.464361	-0.773169	0.464448
C138	C	-0.214361	-0.523169	0.714448
C139	C	0.035639	-0.273169	0.964448
C140	C	0.285639	-0.023169	1.214448
C141	C	-0.474385	-1.167282	0.267505
C142	C	-0.224385	-0.917282	0.517505
C143	C	0.025615	-0.667282	0.767505
C144	C	0.275615	-0.417282	1.017505
C145	C	-0.469964	-1.172251	0.174867
C146	C	-0.219964	-0.922251	0.424867
C147	C	0.030036	-0.672251	0.674867
C148	C	0.280036	-0.422251	0.924867
C149	C	-0.507736	-1.130220	0.963706
C150	C	-0.257736	-0.880220	1.213706
C151	C	-0.007736	-0.630220	1.463706
C152	C	0.242264	-0.380220	1.713706
C153	C	-0.461804	-1.181166	1.005249
C154	C	-0.211804	-0.931166	1.255249
C155	C	0.038196	-0.681166	1.505249
C156	C	0.288196	-0.431166	1.755249
C157	C	-0.466346	-1.176204	1.099633
C158	C	-0.216346	-0.926204	1.349633
C159	C	0.033654	-0.676204	1.599633
C160	C	0.283654	-0.426204	1.849633
C161	C	-0.503196	-1.135180	0.869313
C162	C	-0.253196	-0.885180	1.119313
C163	C	-0.003196	-0.635180	1.369313
C164	C	0.246804	-0.385180	1.619313
H165	H	-0.970668	-1.228524	0.419031
H166	H	-0.720668	-0.978524	0.669031
H167	H	-0.470668	-0.728524	0.919031
H168	H	-0.220668	-0.478524	1.169031
N169	N	-0.561328	-1.070827	1.008017
N170	N	-0.311328	-0.820827	1.258017
N171	N	-0.061328	-0.570827	1.508017
N172	N	0.188672	-0.320827	1.758017
N173	N	-0.531418	-1.017066	1.052451
N174	N	-0.281418	-0.767066	1.302451
N175	N	-0.031418	-0.517066	1.552451
N176	N	0.218582	-0.267066	1.802451
H177	H	-0.569263	-0.975118	1.083756
H178	H	-0.319263	-0.725118	1.333756
H179	H	-0.069263	-0.475118	1.583756
H180	H	0.180737	-0.225118	1.833756
H181	H	-0.412135	-0.648511	0.412060
H182	H	-0.162135	-0.398511	0.662060
H183	H	0.087865	-0.148511	0.912060
H184	H	0.337865	0.101489	1.162060
H185	H	-0.999698	-1.082894	0.550512
H186	H	-0.749698	-0.832894	0.800512
H187	H	-0.499698	-0.582894	1.050512
H188	H	-0.249698	-0.332894	1.300512
H189	H	-0.419069	-1.228508	0.969931
H190	H	-0.169069	-0.978508	1.219931
H191	H	0.080931	-0.728508	1.469931
H192	H	0.330931	-0.478508	1.719931
H193	H	-0.557453	-0.663563	0.557794
H194	H	-0.307453	-0.413563	0.807794
H195	H	-0.057453	-0.163563	1.057794
H196	H	0.192547	0.086437	1.307794
