data_functionalizedCrystal
_audit_creation_method	'MofGen! by Chris Wilmer'
_symmetry_space_group_name_H-M	'P1'
_symmetry_Int_Tables_number	1
_symmetry_cell_setting	triclinic
loop_
_symmetry_equiv_pos_as_xyz
  x,y,z
_cell_length_a	14.044220
_cell_length_b	16.109301
_cell_length_c	14.586319
_cell_angle_alpha	90.000787
_cell_angle_beta	89.995213
_cell_angle_gamma	91.674821
loop_
_atom_site_label
_atom_site_type_symbol
_atom_site_fract_x
_atom_site_fract_y
_atom_site_fract_z
O1	O	0.121835	-1.112195	-0.076185
O2	O	0.136997	-0.871261	-0.076199
O3	O	-0.008568	-0.988112	-0.076183
O4	O	0.267399	-0.995345	-0.076201
O5	O	-0.008570	-0.988103	0.076298
O6	O	0.136995	-0.871252	0.076281
O7	O	0.121832	-1.112186	0.076296
Cu8	Cu	0.129413	-0.991719	0.090212
Cu9	Cu	0.129416	-0.991729	-0.090115
O10	O	0.267397	-0.995336	0.076280
C11	C	-0.043882	-0.984941	0.000058
C12	C	-0.149105	-0.975498	0.000058
C13	C	0.136381	-0.840236	0.000039
C14	C	0.134540	-0.747804	0.000034
C15	C	0.122448	-1.143211	0.000056
C16	C	0.124289	-1.235644	0.000055
C17	C	-0.341761	-0.958232	0.000044
C18	C	-0.399415	-1.025212	0.000045
C19	C	-0.506616	-1.015605	0.000037
C20	C	-0.234551	-0.967838	0.000052
C21	C	0.302711	-0.998506	0.000037
C22	C	0.407934	-1.007950	0.000031
N23	N	0.129411	-0.991717	0.217043
C24	C	0.216634	-0.531640	0.000039
C25	C	0.214896	-0.444790	0.000045
C26	C	0.042189	-0.451815	0.000052
C27	C	0.043927	-0.538663	0.000053
C28	C	0.131153	-0.578573	0.000042
C29	C	0.127677	-0.404875	0.000047
C30	C	0.125792	-0.310709	0.000054
C31	C	0.133038	-0.672745	0.000037
N32	N	0.129411	-0.991737	-0.216946
C33	C	0.064976	-1.043479	0.452057
C34	C	0.064974	-1.043481	0.548038
C35	C	0.193848	-0.939969	0.548033
C36	C	0.193845	-0.939963	0.452054
C37	C	0.129410	-0.991723	0.404068
C38	C	0.129411	-0.991731	0.596029
C39	C	0.129409	-0.991733	0.700096
C40	C	0.129411	-0.991720	0.299994
H41	H	-0.372911	-0.893680	0.000038
H42	H	0.246315	-0.897813	0.412979
H43	H	-0.028827	-0.419309	0.000067
O44	O	0.002290	-1.093775	0.405585
C45	C	-0.054566	-1.139470	0.468528
H46	H	-0.055643	-1.105307	0.536948
H47	H	-0.130261	-1.146537	0.440806
H48	H	-0.023771	-1.203514	0.478727
H49	H	0.287658	-0.564132	0.000037
H50	H	0.284504	-0.406580	0.000045
O51	O	-0.362103	-1.102170	0.000100
C52	C	-0.261822	-1.094757	0.000084
H53	H	-0.238707	-1.031565	0.028942
H54	H	-0.231393	-1.145914	0.044365
H55	H	-0.234278	-1.100799	-0.073066
H56	H	0.246311	-0.897829	0.587113
O57	O	-0.039202	-0.584134	0.000014
C58	C	-0.116562	-0.530288	0.000038
H59	H	-0.092490	-0.467349	-0.028833
H60	H	-0.176451	-0.557842	-0.044227
H61	H	-0.143301	-0.522130	0.073192
O62	O	0.002291	-1.093637	0.594695
C63	C	-0.056188	-1.044784	0.650238
H64	H	-0.057812	-0.979098	0.621319
H65	H	-0.131517	-1.073121	0.651330
H66	H	-0.026526	-1.042629	0.722978
