data_functionalizedCrystal
_audit_creation_method	'MofGen! by Chris Wilmer'
_symmetry_space_group_name_H-M	'P1'
_symmetry_Int_Tables_number	1
_symmetry_cell_setting	triclinic
loop_
_symmetry_equiv_pos_as_xyz
  x,y,z
_cell_length_a	14.971486
_cell_length_b	10.723024
_cell_length_c	14.048226
_cell_angle_alpha	89.994758
_cell_angle_beta	89.998499
_cell_angle_gamma	84.040999
loop_
_atom_site_label
_atom_site_type_symbol
_atom_site_fract_x
_atom_site_fract_y
_atom_site_fract_z
O1	O	1.187820	0.162616	-0.079049
O2	O	0.927525	0.182090	-0.079074
O3	O	1.063676	-0.009286	-0.079057
O4	O	1.051668	0.353992	-0.079066
O5	O	1.063660	-0.009297	0.079264
O6	O	0.927508	0.182079	0.079247
O7	O	1.187804	0.162605	0.079273
Zn8	Zn	1.057653	0.172340	0.104397
Zn9	Zn	1.057675	0.172355	-0.104198
O10	O	1.051652	0.353981	0.079256
C11	C	0.894187	0.181213	0.000083
C12	C	0.794876	0.178604	0.000073
C13	C	1.062794	-0.055782	0.000102
C14	C	1.060180	-0.194309	0.000099
C15	C	0.738254	0.291032	0.000072
C16	C	0.644941	0.288572	0.000086
C17	C	0.608252	0.173683	0.000095
C18	C	0.664881	0.061246	0.000099
C19	C	0.758192	0.063707	0.000092
C20	C	0.470391	0.056125	0.000112
C21	C	0.377074	0.053663	0.000118
C22	C	0.357141	0.280990	0.000107
C23	C	0.450452	0.283451	0.000100
C24	C	0.507074	0.171013	0.000102
C25	C	1.136363	-0.270088	0.000105
C26	C	1.133663	-0.413263	0.000101
C27	C	1.221141	0.163482	0.000113
C28	C	1.320452	0.166091	0.000117
C29	C	1.052534	0.400477	0.000094
C30	C	1.055148	0.539004	0.000092
N31	N	1.057645	0.172329	0.246758
N32	N	1.057690	0.172356	-0.246559
C33	C	1.117952	0.087623	0.296583
C34	C	1.117958	0.087622	0.396241
C35	C	1.057660	0.172335	0.446071
C36	C	0.997347	0.257045	0.396238
C37	C	0.997337	0.257039	0.296583
C38	C	0.997373	0.257054	0.603953
C39	C	0.997383	0.257062	0.703615
C40	C	1.117994	0.087638	0.703611
C41	C	1.117984	0.087631	0.603955
C42	C	1.057671	0.172344	0.554129
H43	H	0.768119	0.384588	0.000064
F44	F	1.224231	-0.216348	0.000108
F45	F	1.182135	-0.002536	0.243559
H46	H	0.992957	-0.235428	0.000086
F47	F	1.182183	-0.002517	0.756643
F48	F	0.933204	0.347224	0.756642
H49	H	0.948228	0.326013	0.256016
F50	F	0.296878	0.400655	0.000107
F51	F	1.218912	-0.498368	0.000115
F52	F	0.584684	0.408234	0.000081
H53	H	0.804293	-0.027843	0.000092
H54	H	0.480320	0.377003	0.000084
H55	H	0.989926	-0.395889	0.000093
F56	F	0.625831	-0.061028	0.000114
F57	F	0.933168	0.347198	0.449272
H58	H	0.948256	0.326032	0.563388
H59	H	0.347205	-0.039889	0.000126
F60	F	0.530651	-0.063544	0.000118
F61	F	1.182143	-0.002533	0.449269
F62	F	1.182164	-0.002520	0.550921
