data_functionalizedCrystal
_audit_creation_method	'MofGen! by Chris Wilmer'
_symmetry_space_group_name_H-M	'P1'
_symmetry_Int_Tables_number	1
_symmetry_cell_setting	triclinic
loop_
_symmetry_equiv_pos_as_xyz
  x,y,z
_cell_length_a	16.704493
_cell_length_b	21.606444
_cell_length_c	21.606444
_cell_angle_alpha	59.998557
_cell_angle_beta	85.835707
_cell_angle_gamma	57.668107
loop_
_atom_site_label
_atom_site_type_symbol
_atom_site_fract_x
_atom_site_fract_y
_atom_site_fract_z
Zr1	Zr	0.773461	0.677340	-0.124577
O2	O	0.645339	0.806442	-0.216202
O3	O	0.812709	0.548240	-0.096495
O4	O	0.812751	0.677342	-0.225608
O5	O	0.645296	0.677338	0.014765
O6	O	0.944841	0.677341	-0.233021
O7	O	0.645297	0.677340	-0.087088
O8	O	0.944766	0.446401	-0.002061
O9	O	0.645372	0.908278	-0.216195
O10	O	0.928059	0.601339	-0.090044
O11	O	0.829482	0.601338	-0.008499
O12	O	0.829531	0.753339	-0.160513
O13	O	0.730953	0.753338	-0.078969
Zr14	Zr	0.984128	0.677334	0.026044
Zr15	Zr	0.984129	0.677338	-0.136400
Zr16	Zr	0.773460	0.677336	0.037867
Zr17	Zr	0.773513	0.839756	-0.124567
Zr18	Zr	0.984076	0.514919	0.026034
O19	O	0.944880	0.806434	-0.002039
O20	O	0.944882	0.806440	-0.233013
O21	O	0.645337	0.806437	0.014773
O22	O	1.112250	0.548232	0.117668
O23	O	1.112252	0.548238	-0.113306
O24	O	0.812707	0.548235	0.134480
O25	O	1.112293	0.677337	-0.113298
O26	O	0.944838	0.677332	0.127075
O27	O	0.812748	0.677333	0.134488
O28	O	1.112292	0.677334	-0.011445
O29	O	0.812825	0.908276	-0.225593
O30	O	0.944765	0.446398	0.127060
O31	O	1.112218	0.446397	0.117662
O32	O	1.112219	0.446400	-0.011459
O33	O	0.645371	0.908274	-0.087074
O34	O	0.812824	0.908273	-0.096472
O35	O	0.928058	0.601336	0.061980
O36	O	1.026636	0.601337	-0.019564
O37	O	0.928108	0.753336	-0.090034
O38	O	0.829530	0.753335	-0.008490
C39	C	0.878730	0.474180	-0.049279
C40	C	0.878708	0.405230	-0.049284
C41	C	0.951620	-0.074240	0.002775
C42	C	0.951599	-0.009431	0.002768
C43	C	0.878834	0.079060	-0.049260
C44	C	0.806092	0.102743	-0.101290
C45	C	0.806118	0.037935	-0.101286
C46	C	0.805986	0.364106	-0.101307
C47	C	0.805964	0.428913	-0.101305
C48	C	0.951468	0.316739	0.002747
C49	C	0.951494	0.251931	0.002751
C50	C	0.878755	0.275620	-0.049281
C51	C	0.878779	0.205347	-0.049274
C52	C	0.878805	0.149332	-0.049264
C53	C	0.615281	0.677339	-0.034477
C54	C	0.525847	0.677340	-0.029458
C55	C	0.357800	0.677328	-0.132256
C56	C	0.273769	0.677329	-0.127543
C57	C	0.273755	0.677336	-0.015316
C58	C	0.357787	0.677335	-0.020029
C59	C	0.399805	0.677333	-0.078502
C60	C	0.483834	0.677338	-0.083217
C61	C	0.483823	0.677339	0.029012
C62	C	0.399792	0.677340	0.033725
C63	C	1.142308	0.677335	-0.064056
C64	C	1.231743	0.677334	-0.069075
C65	C	0.878796	0.677342	-0.252459
C66	C	0.878797	0.677344	-0.321421
C67	C	0.878859	0.880494	-0.049254
C68	C	0.878881	0.949444	-0.049249
C69	C	0.951566	0.677345	-0.357903
C70	C	0.951569	0.677339	-0.422697
C71	C	0.878798	0.677338	-0.451009
C72	C	0.806025	0.677334	-0.414521
C73	C	0.806027	0.677334	-0.349726
C74	C	0.806016	0.677333	-0.675830
C75	C	0.806018	0.677336	-0.740631
C76	C	0.951559	0.677338	-0.748801
C77	C	0.951561	0.677338	-0.684006
C78	C	0.878791	0.677330	-0.647521
C79	C	0.878790	0.677335	-0.577265
C80	C	0.878794	0.677339	-0.521268
C81	C	0.878793	0.677332	0.153926
C82	C	0.878793	0.677331	0.222888
C83	C	1.142244	0.474178	-0.064069
C84	C	1.231656	0.405228	-0.069092
C85	C	0.878728	0.474175	0.153913
C86	C	0.878706	0.405224	0.222871
C87	C	1.142242	0.474173	0.139124
C88	C	1.231654	0.405221	0.203062
C89	C	0.615347	0.880501	-0.237657
C90	C	0.525936	0.949453	-0.301595
C91	C	0.615346	0.880497	-0.034464
C92	C	0.525933	0.949447	-0.029441
C93	C	0.878861	0.880499	-0.252447
C94	C	0.878883	0.949451	-0.321404
C95	C	1.222189	0.372849	-0.108248
C96	C	1.306193	0.308072	-0.112983
C97	C	1.399664	0.275670	-0.078558
C98	C	1.409129	0.308055	-0.039401
C99	C	1.325125	0.372835	-0.034671
C100	C	0.930151	0.372842	0.292050
C101	C	0.930126	0.308064	0.356850
C102	C	0.878661	0.275665	0.352467
C103	C	0.827210	0.308053	0.283281
C104	C	0.827229	0.372834	0.218483
C105	C	1.325108	0.372841	0.190522
C106	C	1.409128	0.308062	0.250592
C107	C	1.399691	0.275660	0.323201
C108	C	1.306227	0.308047	0.335740
C109	C	1.222210	0.372829	0.275671
C110	C	0.432481	0.981841	-0.289055
C111	C	0.348462	1.046640	-0.349125
C112	C	0.357898	1.079046	-0.421735
C113	C	0.451362	1.046655	-0.434273
C114	C	0.535380	0.981862	-0.374204
C115	C	0.535400	0.981832	0.009708
C116	C	0.451396	1.046627	0.014425
C117	C	0.357926	1.079032	-0.020003
C118	C	0.348461	1.046644	-0.059156
C119	C	0.432464	0.981854	-0.063877
C120	C	0.930359	0.981830	-0.316998
C121	C	0.930399	1.046608	-0.381786
C122	C	0.878958	1.079011	-0.450978
C123	C	0.827481	1.046625	-0.455383
C124	C	0.827447	0.981844	-0.390596
H125	H	1.010698	0.297457	0.045112
O126	O	0.233072	0.677181	0.041567
C127	C	0.302478	0.601811	0.109505
H128	H	0.359739	0.549121	0.099807
H129	H	0.263618	0.576506	0.149790
H130	H	0.340198	0.618860	0.133853
O131	O	0.460633	1.078113	-0.504778
C132	C	0.512547	1.115545	-0.516062
H133	H	0.505520	1.135114	-0.474726
H134	H	0.480702	1.175964	-0.574920
H135	H	0.593396	1.065829	-0.507668
H136	H	1.010821	0.677351	-0.334859
O137	O	0.735201	0.677490	-0.640501
C138	C	0.642068	0.752867	-0.688812
H139	H	0.650501	0.805554	-0.733437
H140	H	0.592647	0.778172	-0.656083
H141	H	0.607744	0.735827	-0.715981
H142	H	0.746772	0.677331	-0.320021
O143	O	1.022378	0.677235	-0.458018
C144	C	1.115520	0.601849	-0.409730
H145	H	1.111123	0.576709	-0.349869
H146	H	1.171091	0.618817	-0.419112
H147	H	1.139664	0.549061	-0.421160
H148	H	0.746776	0.677328	-0.437574
H149	H	0.424779	0.955461	-0.229938
H150	H	1.485223	0.281700	0.240370
H151	H	0.518043	0.677340	-0.130830
H152	H	0.272346	1.073037	-0.087186
H153	H	0.611501	0.955454	0.037749
H154	H	0.878993	1.131760	-0.503726
O155	O	1.500002	0.276448	-0.005974
C156	C	1.572104	0.212341	-0.018563
H157	H	1.539324	0.184030	-0.031349
H158	H	1.636889	0.157821	0.033020
H159	H	1.598403	0.243333	-0.067540
O160	O	1.022348	0.677299	-0.656586
C161	C	1.086565	0.677319	-0.702690
H162	H	1.083092	0.649765	-0.734906
H163	H	1.164855	0.635058	-0.667233
H164	H	1.063679	0.747149	-0.743212
O165	O	1.131472	0.404249	-0.141763
C166	C	1.141150	0.361756	-0.177321
H167	H	1.216129	0.335063	-0.189386
H168	H	1.080899	0.410359	-0.231574
H169	H	1.134248	0.305486	-0.139758
H170	H	0.459122	1.072987	0.046311
H171	H	1.298467	0.281712	-0.144868
H172	H	0.611472	0.955492	-0.384423
H173	H	0.272368	1.073002	-0.338901
O174	O	0.777570	0.950273	-0.394838
C175	C	0.843552	0.859486	-0.363427
H176	H	0.921086	0.841715	-0.364789
H177	H	0.821201	0.840881	-0.396534
H178	H	0.841724	0.822451	-0.303560
O179	O	0.777523	1.078234	-0.522656
C180	C	0.788615	1.142342	-0.578886
H181	H	0.807588	1.170652	-0.554679
H182	H	0.717014	1.196862	-0.624831
H183	H	0.850209	1.111352	-0.602617
O184	O	0.735410	0.677172	-0.768031
C185	C	0.740000	0.601792	-0.714756
H186	H	0.816735	0.549107	-0.674907
H187	H	0.723401	0.576485	-0.743784
H188	H	0.683575	0.618828	-0.682498
H189	H	0.972061	0.399215	0.295633
H190	H	0.785308	0.281663	0.279724
O191	O	1.022400	-0.160158	0.053349
C192	C	1.086581	-0.167160	0.099276
H193	H	1.083107	-0.104515	0.069236
H194	H	1.164879	-0.225104	0.112997
H195	H	1.063658	-0.177523	0.152734
O196	O	0.233127	0.677211	-0.179750
C197	C	0.302523	0.601812	-0.180072
H198	H	0.379824	0.576680	-0.155885
H199	H	0.294416	0.618763	-0.239427
H200	H	0.289445	0.549026	-0.145165
H201	H	1.010833	-0.028723	0.045130
O202	O	0.423435	0.950319	-0.101895
C203	C	0.517613	0.886163	-0.098666
H204	H	0.573334	0.896790	-0.087193
H205	H	0.516670	0.891417	-0.153837
H206	H	0.538990	0.818407	-0.052360
H207	H	0.972248	0.955457	-0.260664
O208	O	1.481159	0.212710	-0.083197
C209	C	1.452747	0.191100	-0.125154
H210	H	1.375184	0.208961	-0.123776
H211	H	1.505801	0.117877	-0.100669
H212	H	1.454282	0.228985	-0.184944
O213	O	0.358833	0.677499	0.090434
C214	C	0.261351	0.752872	0.061562
H215	H	0.252525	0.805558	0.003868
H216	H	0.243984	0.778184	0.099508
H217	H	0.208717	0.735826	0.057962
H218	H	1.332847	0.399189	-0.002782
O219	O	0.878617	0.212815	0.415472
C220	C	0.837694	0.244489	0.461171
H221	H	0.844696	0.299604	0.446595
H222	H	0.878535	0.189165	0.521731
H223	H	0.756763	0.270309	0.452142
H224	H	1.010744	0.179879	0.045120
H225	H	0.392007	0.677335	-0.179870
O226	O	1.296894	0.276692	0.406228
C227	C	1.196394	0.319142	0.404427
H228	H	1.151579	0.384813	0.349130
H229	H	1.184704	0.330294	0.451563
H230	H	1.171631	0.276646	0.411132
H231	H	0.972028	0.281702	0.413178
H232	H	0.746704	0.500971	-0.143673
H233	H	0.972316	1.072970	-0.378185
O234	O	0.735228	0.387271	-0.151875
C235	C	0.671013	0.479272	-0.197803
H236	H	0.674457	0.509016	-0.167766
H237	H	0.592729	0.499768	-0.211518
H238	H	0.693927	0.503427	-0.251263
H239	H	0.785340	0.399191	0.162157
O240	O	1.334208	0.404422	0.119972
C241	C	1.288755	0.495197	0.082644
H242	H	1.231454	0.522723	0.110557
H243	H	1.251510	0.528730	0.022378
H244	H	1.346544	0.507543	0.084813
O245	O	1.131356	0.404396	0.287727
C246	C	1.059211	0.468505	0.219146
H247	H	1.091943	0.496859	0.174348
H248	H	0.994428	0.522995	0.223514
H249	H	1.032925	0.437504	0.204119
H250	H	0.746849	0.174799	-0.143655
H251	H	0.289477	1.131804	-0.470640
O252	O	0.735360	0.061091	-0.151852
C253	C	0.671144	0.153091	-0.197786
H254	H	0.674579	0.182841	-0.167752
H255	H	0.592861	0.173584	-0.211504
H256	H	0.694061	0.177243	-0.251244
H257	H	0.518031	0.677346	0.072780
H258	H	1.010815	0.677341	-0.778513
O259	O	0.276431	1.141937	-0.015309
C260	C	0.304843	1.163580	0.026616
H261	H	0.382392	1.106752	0.064208
H262	H	0.251769	1.177037	0.061902
H263	H	0.303341	1.224450	-0.012359
H264	H	1.468112	0.222910	0.372107
