data_functionalizedCrystal
_audit_creation_method	'MofGen! by Chris Wilmer'
_symmetry_space_group_name_H-M	'P1'
_symmetry_Int_Tables_number	1
_symmetry_cell_setting	triclinic
loop_
_symmetry_equiv_pos_as_xyz
  x,y,z
_cell_length_a	18.215407
_cell_length_b	21.295416
_cell_length_c	18.215399
_cell_angle_alpha	89.970321
_cell_angle_beta	90.019833
_cell_angle_gamma	89.969221
loop_
_atom_site_label
_atom_site_type_symbol
_atom_site_fract_x
_atom_site_fract_y
_atom_site_fract_z
Zn1	Zn	1.125044	0.250608	0.416107
Zn2	Zn	1.375044	0.500608	0.666107
Zn3	Zn	1.625044	0.750608	0.916107
Zn4	Zn	1.875044	1.000608	1.166107
Zn5	Zn	1.124941	0.355879	0.293037
Zn6	Zn	1.374941	0.605879	0.543037
Zn7	Zn	1.624941	0.855879	0.793037
Zn8	Zn	1.874941	1.105879	1.043037
Zn9	Zn	1.001977	0.250629	0.293054
Zn10	Zn	1.251977	0.500629	0.543054
Zn11	Zn	1.501977	0.750629	0.793054
Zn12	Zn	1.751977	1.000629	1.043054
Zn13	Zn	1.001931	0.355844	0.416062
Zn14	Zn	1.251931	0.605844	0.666062
Zn15	Zn	1.501931	0.855844	0.916062
Zn16	Zn	1.751931	1.105844	1.166062
O17	O	1.063473	0.303240	0.354565
O18	O	1.313473	0.553240	0.604565
O19	O	1.563473	0.803240	0.854565
O20	O	1.813473	1.053240	1.104565
O21	O	1.228015	0.264579	0.399793
O22	O	1.478015	0.514579	0.649793
O23	O	1.728015	0.764579	0.899793
O24	O	1.978015	1.014579	1.149793
O25	O	1.108605	0.341941	0.190055
O26	O	1.358605	0.591941	0.440055
O27	O	1.608605	0.841941	0.690055
O28	O	1.858605	1.091941	0.940055
O29	O	1.018364	0.162537	0.309404
O30	O	1.268364	0.412537	0.559404
O31	O	1.518364	0.662537	0.809404
O32	O	1.768364	0.912537	1.059404
O33	O	1.227939	0.341921	0.309374
O34	O	1.477939	0.591921	0.559374
O35	O	1.727939	0.841921	0.809374
O36	O	1.977939	1.091921	1.059374
O37	O	1.108781	0.162521	0.399810
O38	O	1.358781	0.412521	0.649810
O39	O	1.608781	0.662521	0.899810
O40	O	1.858781	0.912521	1.149810
O41	O	1.018264	0.264614	0.190068
O42	O	1.268264	0.514614	0.440068
O43	O	1.518264	0.764614	0.690068
O44	O	1.768264	1.014614	0.940068
O45	O	0.898986	0.264580	0.309360
O46	O	1.148986	0.514580	0.559360
O47	O	1.398986	0.764580	0.809360
O48	O	1.648986	1.014580	1.059360
O49	O	1.018286	0.341861	0.519052
O50	O	1.268286	0.591861	0.769052
O51	O	1.518286	0.841861	1.019052
O52	O	1.768286	1.091861	1.269052
O53	O	0.898953	0.341881	0.399733
O54	O	1.148953	0.591881	0.649733
O55	O	1.398953	0.841881	0.899733
O56	O	1.648953	1.091881	1.149733
O57	O	1.108737	0.264545	0.519085
O58	O	1.358737	0.514545	0.769085
O59	O	1.608737	0.764545	1.019085
O60	O	1.858737	1.014545	1.269085
O61	O	1.108561	0.443964	0.309330
O62	O	1.358561	0.693964	0.559330
O63	O	1.608561	0.943964	0.809330
O64	O	1.858561	1.193964	1.059330
O65	O	1.018186	0.443938	0.399716
O66	O	1.268186	0.693938	0.649716
O67	O	1.518186	0.943938	0.899716
O68	O	1.768186	1.193938	1.149716
C69	C	0.872267	0.303229	0.354544
C70	C	1.122267	0.553229	0.604544
C71	C	1.372267	0.803229	0.854544
C72	C	1.622267	1.053229	1.104544
C73	C	0.790468	0.303240	0.354552
C74	C	1.040468	0.553240	0.604552
C75	C	1.290468	0.803240	0.854552
C76	C	1.540468	1.053240	1.104552
C77	C	1.063377	0.466792	0.354533
C78	C	1.313377	0.716792	0.604533
C79	C	1.563377	0.966792	0.854533
C80	C	1.813377	1.216792	1.104533
C81	C	1.063404	0.536760	0.354543
C82	C	1.313404	0.786760	0.604543
C83	C	1.563404	1.036760	0.854543
C84	C	1.813404	1.286760	1.104543
C85	C	0.602276	0.343554	0.401551
C86	C	0.852276	0.593554	0.651551
C87	C	1.102276	0.843554	0.901551
C88	C	1.352276	1.093554	1.151551
C89	C	0.525417	0.343556	0.401560
C90	C	0.775417	0.593556	0.651560
C91	C	1.025417	0.843556	0.901560
C92	C	1.275417	1.093556	1.151560
C93	C	0.525422	0.262938	0.307596
C94	C	0.775422	0.512938	0.557596
C95	C	1.025422	0.762938	0.807596
C96	C	1.275422	1.012938	1.057596
C97	C	0.602280	0.262933	0.307591
C98	C	0.852280	0.512933	0.557591
C99	C	1.102280	0.762933	0.807591
C100	C	1.352280	1.012933	1.057591
C101	C	0.640704	0.303245	0.354567
C102	C	0.890704	0.553245	0.604567
C103	C	1.140704	0.803245	0.854567
C104	C	1.390704	1.053245	1.104567
C105	C	0.486988	0.303251	0.354581
C106	C	0.736988	0.553251	0.604581
C107	C	0.986988	0.803251	0.854581
C108	C	1.236988	1.053251	1.104581
C109	C	0.403655	0.303253	0.354591
C110	C	0.653655	0.553253	0.604591
C111	C	0.903655	0.803253	0.854591
C112	C	1.153655	1.053253	1.104591
C113	C	0.724043	0.303242	0.354559
C114	C	0.974043	0.553242	0.604559
C115	C	1.224043	0.803242	0.854559
C116	C	1.474043	1.053242	1.104559
C117	C	1.110504	0.569619	0.307529
C118	C	1.360504	0.819619	0.557529
C119	C	1.610504	1.069619	0.807529
C120	C	1.860504	1.319619	1.057529
C121	C	1.110538	0.635361	0.307549
C122	C	1.360538	0.885361	0.557549
C123	C	1.610538	1.135361	0.807549
C124	C	1.860538	1.385361	1.057549
C125	C	1.063460	0.668242	0.354575
C126	C	1.313460	0.918242	0.604575
C127	C	1.563460	1.168242	0.854575
C128	C	1.813460	1.418242	1.104575
C129	C	1.016356	0.635375	0.401598
C130	C	1.266356	0.885375	0.651598
C131	C	1.516356	1.135375	0.901598
C132	C	1.766356	1.385375	1.151598
C133	C	1.016328	0.569634	0.401582
C134	C	1.266328	0.819634	0.651582
C135	C	1.516328	1.069634	0.901582
C136	C	1.766328	1.319634	1.151582
N137	N	0.999082	0.771508	0.360184
N138	N	1.249082	1.021508	0.610184
N139	N	1.499082	1.271508	0.860184
N140	N	1.749082	1.521508	1.110184
N141	N	0.999110	0.833960	0.360195
N142	N	1.249110	1.083960	0.610195
N143	N	1.499110	1.333960	0.860195
N144	N	1.749110	1.583960	1.110195
C145	C	1.063543	0.866317	0.354627
C146	C	1.313543	1.116317	0.604627
C147	C	1.563543	1.366317	0.854627
C148	C	1.813543	1.616317	1.104627
N149	N	1.127947	0.833863	0.349035
N150	N	1.377947	1.083863	0.599035
N151	N	1.627947	1.333863	0.849035
N152	N	1.877947	1.583863	1.099035
N153	N	1.127917	0.771406	0.349020
N154	N	1.377917	1.021406	0.599020
N155	N	1.627917	1.271406	0.849020
N156	N	1.877917	1.521406	1.099020
C157	C	1.063485	0.739528	0.354598
C158	C	1.313485	0.989528	0.604598
C159	C	1.563485	1.239528	0.854598
C160	C	1.813485	1.489528	1.104598
C161	C	1.110685	0.970462	0.307632
C162	C	1.360685	1.220462	0.557632
C163	C	1.610685	1.470462	0.807632
C164	C	1.860685	1.720462	1.057632
C165	C	1.110721	1.036205	0.307658
C166	C	1.360721	1.286205	0.557658
C167	C	1.610721	1.536205	0.807658
C168	C	1.860721	1.786205	1.057658
C169	C	1.016532	1.036218	0.401703
C170	C	1.266532	1.286218	0.651703
C171	C	1.516532	1.536218	0.901703
C172	C	1.766532	1.786218	1.151703
C173	C	1.016503	0.970475	0.401682
C174	C	1.266503	1.220475	0.651682
C175	C	1.516503	1.470475	0.901682
C176	C	1.766503	1.720475	1.151682
C177	C	1.063578	0.937601	0.354643
C178	C	1.313578	1.187601	0.604643
C179	C	1.563578	1.437601	0.854643
C180	C	1.813578	1.687601	1.104643
C181	C	1.255426	0.303251	0.354587
C182	C	1.505426	0.553251	0.604587
C183	C	1.755426	0.803251	0.854587
C184	C	2.005426	1.053251	1.104587
C185	C	1.337225	0.303256	0.354596
C186	C	1.587225	0.553256	0.604596
C187	C	1.837225	0.803256	0.854596
C188	C	2.087225	1.053256	1.104596
C189	C	1.063518	0.303197	0.546518
C190	C	1.313518	0.553197	0.796518
C191	C	1.563518	0.803197	1.046518
C192	C	1.813518	1.053197	1.296518
C193	C	1.063537	0.303178	0.628317
C194	C	1.313537	0.553178	0.878317
C195	C	1.563537	0.803178	1.128317
C196	C	1.813537	1.053178	1.378317
C197	C	1.063590	1.139050	0.354626
C198	C	1.313590	1.389050	0.604626
C199	C	1.563590	1.639050	0.854626
C200	C	1.813590	1.889050	1.104626
C201	C	1.063643	1.069082	0.354685
C202	C	1.313643	1.319082	0.604685
C203	C	1.563643	1.569082	0.854685
C204	C	1.813643	1.819082	1.104685
C205	C	1.063471	0.303238	0.163359
C206	C	1.313471	0.553238	0.413359
C207	C	1.563471	0.803238	0.663359
C208	C	1.813471	1.053238	0.913359
C209	C	1.063594	0.303079	0.081560
C210	C	1.313594	0.553079	0.331560
C211	C	1.563594	0.803079	0.581560
C212	C	1.813594	1.053079	0.831560
C213	C	1.110652	0.262882	0.816529
C214	C	1.360652	0.512882	1.066529
C215	C	1.610652	0.762882	1.316529
C216	C	1.860652	1.012882	1.566529
C217	C	1.110660	0.262863	0.893388
C218	C	1.360660	0.512863	1.143388
C219	C	1.610660	0.762863	1.393388
C220	C	1.860660	1.012863	1.643388
C221	C	1.016474	0.343377	0.893343
C222	C	1.266474	0.593377	1.143343
C223	C	1.516474	0.843377	1.393343
C224	C	1.766474	1.093377	1.643343
C225	C	1.016463	0.343392	0.816485
C226	C	1.266463	0.593392	1.066485
C227	C	1.516463	0.843392	1.316485
C228	C	1.766463	1.093392	1.566485
C229	C	1.063555	0.303145	0.778081
C230	C	1.313555	0.553145	1.028081
C231	C	1.563555	0.803145	1.278081
C232	C	1.813555	1.053145	1.528081
C233	C	1.063576	0.303112	0.931797
C234	C	1.313576	0.553112	1.181797
C235	C	1.563576	0.803112	1.431797
C236	C	1.813576	1.053112	1.681797
C237	C	1.063585	0.303093	1.015130
C238	C	1.313585	0.553093	1.265130
C239	C	1.563585	0.803093	1.515130
C240	C	1.813585	1.053093	1.765130
C241	C	1.063545	0.303164	0.694742
C242	C	1.313545	0.553164	0.944742
C243	C	1.563545	0.803164	1.194742
C244	C	1.813545	1.053164	1.444742
H245	H	0.633559	0.376377	0.439804
H246	H	0.883559	0.626377	0.689804
H247	H	1.133559	0.876377	0.939804
H248	H	1.383559	1.126377	1.189804
F249	F	0.643181	0.220025	0.257586
F250	F	0.893181	0.470025	0.507586
F251	F	1.143181	0.720025	0.757586
F252	F	1.393181	0.970025	1.007586
F253	F	0.966361	0.386211	0.934222
F254	F	1.216361	0.636211	1.184222
F255	F	1.466361	0.886211	1.434222
F256	F	1.716361	1.136211	1.684222
H257	H	1.149080	1.062958	0.269374
H258	H	1.399080	1.312958	0.519374
H259	H	1.649080	1.562958	0.769374
H260	H	1.899080	1.812958	1.019374
H261	H	0.494132	0.376379	0.439820
H262	H	0.744132	0.626379	0.689820
H263	H	0.994132	0.876379	0.939820
H264	H	1.244132	1.126379	1.189820
H265	H	0.978106	0.376179	0.785179
H266	H	1.228106	0.626179	1.035179
H267	H	1.478106	0.876179	1.285179
H268	H	1.728106	1.126179	1.535179
F269	F	0.484522	0.220038	0.257602
F270	F	0.734522	0.470038	0.507602
F271	F	0.984522	0.720038	0.757602
F272	F	1.234522	0.970038	1.007602
F273	F	1.160785	0.935472	0.257570
F274	F	1.410785	1.185472	0.507570
F275	F	1.660785	1.435472	0.757570
F276	F	1.910785	1.685472	1.007570
H277	H	1.148896	0.662121	0.269265
H278	H	1.398896	0.912121	0.519265
H279	H	1.648896	1.162121	0.769265
H280	H	1.898896	1.412121	1.019265
H281	H	0.978203	1.062989	0.439996
H282	H	1.228203	1.312989	0.689996
H283	H	1.478203	1.562989	0.939996
H284	H	1.728203	1.812989	1.189996
H285	H	1.148837	0.542855	0.269229
H286	H	1.398837	0.792855	0.519229
H287	H	1.648837	1.042855	0.769229
H288	H	1.898837	1.292855	1.019229
H289	H	0.978026	0.662151	0.439889
H290	H	1.228026	0.912151	0.689889
H291	H	1.478026	1.162151	0.939889
H292	H	1.728026	1.412151	1.189889
H293	H	0.978146	0.943720	0.439962
H294	H	1.228146	1.193720	0.689962
H295	H	1.478146	1.443720	0.939962
H296	H	1.728146	1.693720	1.189962
F297	F	1.160792	0.220014	0.934305
F298	F	1.410792	0.470014	1.184305
F299	F	1.660792	0.720014	1.434305
F300	F	1.910792	0.970014	1.684305
H301	H	0.977973	0.542879	0.439868
H302	H	1.227973	0.792879	0.689868
H303	H	1.477973	1.042879	0.939868
H304	H	1.727973	1.292879	1.189868
F305	F	1.160770	0.220046	0.775659
F306	F	1.410770	0.470046	1.025659
F307	F	1.660770	0.720046	1.275659
F308	F	1.910770	0.970046	1.525659
