data_functionalizedCrystal
_audit_creation_method	'MofGen! by Chris Wilmer'
_symmetry_space_group_name_H-M	'P1'
_symmetry_Int_Tables_number	1
_symmetry_cell_setting	triclinic
loop_
_symmetry_equiv_pos_as_xyz
  x,y,z
_cell_length_a	6.817900
_cell_length_b	17.982959
_cell_length_c	11.102193
_cell_angle_alpha	94.235331
_cell_angle_beta	108.604059
_cell_angle_gamma	102.451857
loop_
_atom_site_label
_atom_site_type_symbol
_atom_site_fract_x
_atom_site_fract_y
_atom_site_fract_z
V1	V	-4.080382	-0.105418	-0.396788
O2	O	-4.072042	0.005060	-0.388689
O3	O	-4.026563	-0.209021	-0.394600
O4	O	-4.057634	-0.103799	-0.569602
O5	O	-4.040755	-0.100890	-0.212475
V6	V	-4.561388	-0.092203	-0.374679
O7	O	-4.347161	-0.134406	-0.445286
O8	O	-4.744806	-0.063216	-0.326181
O9	O	-4.392001	0.011399	-0.376868
O10	O	-4.687125	-0.202681	-0.382778
O11	O	-4.718412	-0.096731	-0.558992
O12	O	-4.360929	-0.093822	-0.201866
C13	C	-3.869415	-0.234277	-0.388476
C14	C	-3.906869	-0.318973	-0.387838
C15	C	-4.107326	-0.362645	-0.393898
C16	C	-4.142510	-0.442227	-0.393306
C17	C	-3.977230	-0.478135	-0.386646
C18	C	-3.776759	-0.434458	-0.380590
C19	C	-3.741582	-0.354879	-0.381191
C20	C	-3.918620	-0.755394	-0.378169
C21	C	-3.953811	-0.834979	-0.377565
C22	C	-4.319548	-0.842742	-0.390285
C23	C	-4.284371	-0.763162	-0.390885
C24	C	-4.083907	-0.719493	-0.384836
C25	C	-4.045760	-0.633202	-0.385480
C26	C	-4.015370	-0.564424	-0.385993
C27	C	-3.909049	-0.100055	-0.611706
C28	C	-3.971698	-0.099417	-0.752986
C29	C	-4.050815	-0.238963	-0.790015
C30	C	-4.119798	-0.308434	-0.874901
C31	C	-4.178663	-0.307830	-1.007644
C32	C	-4.168547	-0.237748	-1.055502
C33	C	-4.099564	-0.168277	-0.970617
C34	C	-4.040696	-0.168889	-0.837873
C35	C	-4.020462	-0.028733	-0.933588
C36	C	-3.961582	-0.029335	-0.800844
C37	C	-4.010347	0.041349	-0.981446
C38	C	-3.941348	0.110821	-0.896560
C39	C	-3.882479	0.110214	-0.763809
C40	C	-3.892599	0.040135	-0.715958
C41	C	-4.212490	0.036652	-0.382988
C42	C	-4.154275	0.121347	-0.383634
C43	C	-4.172856	-0.097569	-0.159754
C44	C	-4.089445	-0.098203	-0.018474
H45	H	-3.819212	-0.864214	-0.372150
C46	C	-4.245640	0.076605	-1.167640
C47	C	-4.075067	0.042011	-1.127360
H48	H	-4.285599	0.077009	-1.257723
H49	H	-4.203099	0.128002	-1.123943
H50	H	-4.363915	0.048253	-1.148589
H51	H	-3.956786	0.070367	-1.146402
H52	H	-4.117600	-0.009395	-1.171072
C53	C	-3.942883	0.186901	-0.599177
C54	C	-3.806664	0.186581	-0.670509
H55	H	-3.896085	0.234050	-0.541588
H56	H	-3.940455	0.145088	-0.551674
H57	H	-4.084490	0.181793	-0.655897
H58	H	-3.665059	0.191682	-0.613790
H59	H	-3.809070	0.228405	-0.718016
H60	H	-3.755391	-0.719847	-0.373236
H61	H	-4.002857	-0.239461	-0.681930
H62	H	-3.933133	0.167876	-0.935538
C63	C	-3.668273	-0.552998	-0.374009
C64	C	-3.595075	-0.473927	-0.373267
H65	H	-3.556096	-0.577360	-0.369477
H66	H	-3.785592	-0.574594	-0.451011
H67	H	-3.712739	-0.560664	-0.302028
H68	H	-3.550623	-0.466261	-0.445254
H69	H	-3.477717	-0.452324	-0.296256
H70	H	-3.844657	0.039635	-0.607874
H71	H	-4.482780	-0.878307	-0.395212
H72	H	-4.241915	-0.333413	-0.399309
C73	C	-3.436133	-0.250610	-0.264677
C74	C	-3.521233	-0.306869	-0.374526
H75	H	-3.300104	-0.220969	-0.260574
H76	H	-3.421014	-0.274855	-0.190228
H77	H	-3.529555	-0.217842	-0.268746
H78	H	-3.427818	-0.339640	-0.370454
H79	H	-3.536340	-0.282623	-0.448995
H80	H	-4.418959	-0.733929	-0.396302
C81	C	-4.064660	-0.371330	-0.687854
C82	C	-4.130905	-0.385465	-0.822292
H83	H	-4.071510	-0.418887	-0.655382
H84	H	-4.155768	-0.345206	-0.662652
H85	H	-3.921758	-0.340321	-0.654355
H86	H	-4.273813	-0.416470	-0.855792
H87	H	-4.039796	-0.411602	-0.847506
H88	H	-4.305740	-0.477781	-0.398242
C89	C	-4.250951	-0.445832	-1.030928
C90	C	-4.254494	-0.384191	-1.100958
H91	H	-4.297756	-0.492972	-1.088539
H92	H	-4.343346	-0.445605	-0.982540
H93	H	-4.109332	-0.440727	-0.974227
H94	H	-4.396116	-0.389293	-1.157653
H95	H	-4.162098	-0.384419	-1.149368
H96	H	-4.216508	-0.237263	-1.163591
