data_functionalizedCrystal
_audit_creation_method	'MofGen! by Chris Wilmer'
_symmetry_space_group_name_H-M	'P1'
_symmetry_Int_Tables_number	1
_symmetry_cell_setting	triclinic
loop_
_symmetry_equiv_pos_as_xyz
  x,y,z
_cell_length_a	21.395364
_cell_length_b	16.625545
_cell_length_c	16.625539
_cell_angle_alpha	89.971893
_cell_angle_beta	89.979410
_cell_angle_gamma	90.040509
loop_
_atom_site_label
_atom_site_type_symbol
_atom_site_fract_x
_atom_site_fract_y
_atom_site_fract_z
Zn1	Zn	0.957857	-0.320679	-0.455911
Zn2	Zn	1.207857	-0.070679	-0.205911
Zn3	Zn	1.457857	0.179321	0.044089
Zn4	Zn	1.707857	0.429321	0.294089
Zn5	Zn	0.957776	-0.455522	-0.321079
Zn6	Zn	1.207776	-0.205522	-0.071079
Zn7	Zn	1.457776	0.044478	0.178921
Zn8	Zn	1.707776	0.294478	0.428921
Zn9	Zn	0.853079	-0.320742	-0.321092
Zn10	Zn	1.103079	-0.070742	-0.071092
Zn11	Zn	1.353079	0.179258	0.178908
Zn12	Zn	1.603079	0.429258	0.428908
Zn13	Zn	0.853051	-0.455508	-0.455869
Zn14	Zn	1.103051	-0.205508	-0.205869
Zn15	Zn	1.353051	0.044492	0.044131
Zn16	Zn	1.603051	0.294492	0.294131
O17	O	0.905441	-0.388113	-0.388487
O18	O	1.155441	-0.138113	-0.138487
O19	O	1.405441	0.111887	0.111513
O20	O	1.655441	0.361887	0.361513
O21	O	1.045524	-0.338545	-0.438038
O22	O	1.295524	-0.088545	-0.188038
O23	O	1.545524	0.161455	0.061962
O24	O	1.795524	0.411455	0.311962
O25	O	0.943866	-0.437675	-0.208248
O26	O	1.193866	-0.187675	0.041752
O27	O	1.443866	0.062325	0.291752
O28	O	1.693866	0.312325	0.541752
O29	O	0.867024	-0.207901	-0.338999
O30	O	1.117024	0.042099	-0.088999
O31	O	1.367024	0.292099	0.161001
O32	O	1.617024	0.542099	0.411001
O33	O	1.045465	-0.437614	-0.338977
O34	O	1.295465	-0.187614	-0.088977
O35	O	1.545465	0.062386	0.161023
O36	O	1.795465	0.312386	0.411023
O37	O	0.944004	-0.207855	-0.438050
O38	O	1.194004	0.042145	-0.188050
O39	O	1.444004	0.292145	0.061950
O40	O	1.694004	0.542145	0.311950
O41	O	0.866946	-0.338653	-0.208257
O42	O	1.116946	-0.088653	0.041743
O43	O	1.366946	0.161347	0.291743
O44	O	1.616946	0.411347	0.541743
O45	O	0.765398	-0.338640	-0.338958
O46	O	1.015398	-0.088640	-0.088958
O47	O	1.265398	0.161360	0.161042
O48	O	1.515398	0.411360	0.411042
O49	O	0.866975	-0.437590	-0.568707
O50	O	1.116975	-0.187590	-0.318707
O51	O	1.366975	0.062410	-0.068707
O52	O	1.616975	0.312410	0.181293
O53	O	0.765377	-0.437652	-0.437978
O54	O	1.015377	-0.187652	-0.187978
O55	O	1.265377	0.062348	0.062022
O56	O	1.515377	0.312348	0.312022
O57	O	0.943976	-0.338532	-0.568738
O58	O	1.193976	-0.088532	-0.318738
O59	O	1.443976	0.161468	-0.068738
O60	O	1.693976	0.411468	0.181262
O61	O	0.943838	-0.568352	-0.338936
O62	O	1.193838	-0.318352	-0.088936
O63	O	1.443838	-0.068352	0.161064
O64	O	1.693838	0.181648	0.411064
O65	O	0.866897	-0.568342	-0.437965
O66	O	1.116897	-0.318342	-0.187965
O67	O	1.366897	-0.068342	0.062035
O68	O	1.616897	0.181658	0.312035
C69	C	0.742653	-0.388152	-0.388465
C70	C	0.992653	-0.138152	-0.138465
C71	C	1.242653	0.111848	0.111535
C72	C	1.492653	0.361848	0.361535
C73	C	0.673012	-0.388188	-0.388474
C74	C	0.923012	-0.138188	-0.138474
C75	C	1.173012	0.111812	0.111526
C76	C	1.423012	0.361812	0.361526
C77	C	0.640352	-0.336687	-0.440135
C78	C	0.890352	-0.086687	-0.190135
C79	C	1.140352	0.163313	0.059865
C80	C	1.390352	0.413313	0.309865
C81	C	0.574917	-0.336666	-0.440138
C82	C	0.824917	-0.086666	-0.190138
C83	C	1.074917	0.163334	0.059862
C84	C	1.324917	0.413334	0.309862
C85	C	0.542144	-0.388159	-0.388489
C86	C	0.792144	-0.138159	-0.138489
C87	C	1.042144	0.111841	0.111511
C88	C	1.292144	0.361841	0.361511
C89	C	0.574811	-0.439664	-0.336818
C90	C	0.824811	-0.189664	-0.086818
C91	C	1.074811	0.060336	0.163182
C92	C	1.324811	0.310336	0.413182
C93	C	0.640246	-0.439678	-0.336811
C94	C	0.890246	-0.189678	-0.086811
C95	C	1.140246	0.060322	0.163189
C96	C	1.390246	0.310322	0.413189
C97	C	0.438425	-0.460774	-0.382009
C98	C	0.688425	-0.210774	-0.132009
C99	C	0.938425	0.039226	0.117991
C100	C	1.188425	0.289226	0.367991
C101	C	0.372992	-0.460761	-0.382022
C102	C	0.622992	-0.210761	-0.132022
C103	C	0.872992	0.039239	0.117978
C104	C	1.122992	0.289239	0.367978
C105	C	0.340323	-0.388115	-0.388507
C106	C	0.590323	-0.138115	-0.138507
C107	C	0.840323	0.111885	0.111493
C108	C	1.090323	0.361885	0.361493
C109	C	0.373095	-0.315480	-0.394996
C110	C	0.623095	-0.065480	-0.144996
C111	C	0.873095	0.184520	0.105004
C112	C	1.123095	0.434520	0.355004
C113	C	0.438529	-0.315494	-0.394988
C114	C	0.688529	-0.065494	-0.144988
C115	C	0.938529	0.184506	0.105012
C116	C	1.188529	0.434506	0.355012
C117	C	0.471191	-0.388149	-0.388491
C118	C	0.721191	-0.138149	-0.138491
C119	C	0.971191	0.111851	0.111509
C120	C	1.221191	0.361851	0.361509
C121	C	0.236711	-0.336587	-0.440174
C122	C	0.486711	-0.086587	-0.190174
C123	C	0.736711	0.163413	0.059826
C124	C	0.986711	0.413413	0.309826
C125	C	0.171274	-0.336564	-0.440171
C126	C	0.421274	-0.086564	-0.190171
C127	C	0.671274	0.163436	0.059829
C128	C	0.921274	0.413436	0.309829
C129	C	0.171170	-0.439569	-0.336856
C130	C	0.421170	-0.189569	-0.086856
C131	C	0.671170	0.060431	0.163144
C132	C	0.921170	0.310431	0.413144
C133	C	0.236605	-0.439585	-0.336854
C134	C	0.486605	-0.189585	-0.086854
C135	C	0.736605	0.060415	0.163146
C136	C	0.986605	0.310415	0.413146
C137	C	0.269372	-0.388095	-0.388517
C138	C	0.519372	-0.138095	-0.138517
C139	C	0.769372	0.111905	0.111483
C140	C	1.019372	0.361905	0.361483
C141	C	0.905373	-0.597603	-0.388462
C142	C	1.155373	-0.347603	-0.138462
C143	C	1.405373	-0.097603	0.111538
C144	C	1.655373	0.152397	0.361538
C145	C	0.905401	-0.687225	-0.388478
C146	C	1.155401	-0.437225	-0.138478
C147	C	1.405401	-0.187225	0.111522
C148	C	1.655401	0.062775	0.361522
C149	C	0.905425	-0.760007	-0.388494
C150	C	1.155425	-0.510007	-0.138494
C151	C	1.405425	-0.260007	0.111506
C152	C	1.655425	-0.010007	0.361506
C153	C	0.905462	-0.851315	-0.388512
C154	C	1.155462	-0.601315	-0.138512
C155	C	1.405462	-0.351315	0.111488
C156	C	1.655462	-0.101315	0.361488
C157	C	0.905494	-0.924092	-0.388522
C158	C	1.155494	-0.674092	-0.138522
C159	C	1.405494	-0.424092	0.111478
C160	C	1.655494	-0.174092	0.361478
C161	C	0.905530	-1.015406	-0.388539
C162	C	1.155530	-0.765406	-0.138539
C163	C	1.405530	-0.515406	0.111461
C164	C	1.655530	-0.265406	0.361461
C165	C	1.068864	-0.388074	-0.388511
C166	C	1.318864	-0.138074	-0.138511
C167	C	1.568864	0.111926	0.111489
C168	C	1.818864	0.361926	0.361489
C169	C	1.138505	-0.388057	-0.388521
C170	C	1.388505	-0.138057	-0.138521
C171	C	1.638505	0.111943	0.111479
C172	C	1.888505	0.361943	0.361479
C173	C	0.905482	-0.388052	-0.598796
C174	C	1.155482	-0.138052	-0.348796
C175	C	1.405482	0.111948	-0.098796
C176	C	1.655482	0.361948	0.151204
C177	C	0.905499	-0.388027	-0.688418
C178	C	1.155499	-0.138027	-0.438418
C179	C	1.405499	0.111973	-0.188418
C180	C	1.655499	0.361973	0.061582
C181	C	0.905526	-0.177804	-0.388531
C182	C	1.155526	0.072196	-0.138531
C183	C	1.405526	0.322196	0.111469
C184	C	1.655526	0.572196	0.361469
C185	C	0.905563	-0.088182	-0.388549
C186	C	1.155563	0.161818	-0.138549
C187	C	1.405563	0.411818	0.111451
C188	C	1.655563	0.661818	0.361451
C189	C	0.905528	-0.387937	-1.016593
C190	C	1.155528	-0.137937	-0.766593
C191	C	1.405528	0.112063	-0.516593
C192	C	1.655528	0.362063	-0.266593
C193	C	0.905518	-0.387964	-0.925285
C194	C	1.155518	-0.137964	-0.675285
C195	C	1.405518	0.112036	-0.425285
C196	C	1.655518	0.362036	-0.175285
C197	C	0.905514	-0.387982	-0.852508
C198	C	1.155514	-0.137982	-0.602508
C199	C	1.405514	0.112018	-0.352508
C200	C	1.655514	0.362018	-0.102508
C201	C	0.905503	-0.388009	-0.761194
C202	C	1.155503	-0.138009	-0.511194
C203	C	1.405503	0.111991	-0.261194
C204	C	1.655503	0.361991	-0.011194
C205	C	0.905436	-0.388114	-0.178997
C206	C	1.155436	-0.138114	0.071003
C207	C	1.405436	0.111886	0.321003
C208	C	1.655436	0.361886	0.571003
C209	C	0.905540	-0.387913	-0.089376
C210	C	1.155540	-0.137913	0.160624
C211	C	1.405540	0.112087	0.410624
C212	C	1.655540	0.362087	0.660624
H213	H	0.144487	-0.481496	-0.294802
H214	H	0.394487	-0.231496	-0.044802
H215	H	0.644487	0.018504	0.205198
H216	H	0.894487	0.268504	0.455198
H217	H	0.465018	-0.519935	-0.376728
H218	H	0.715018	-0.269935	-0.126728
H219	H	0.965018	-0.019935	0.123272
H220	H	1.215018	0.230065	0.373272
H221	H	0.548123	-0.481590	-0.294765
H222	H	0.798123	-0.231590	-0.044765
H223	H	1.048123	0.018410	0.205235
H224	H	1.298123	0.268410	0.455235
N225	N	0.539685	-0.281119	-0.495868
N226	N	0.789685	-0.031119	-0.245868
N227	N	1.039685	0.218881	0.004132
N228	N	1.289685	0.468881	0.254132
H229	H	0.512529	-0.313936	-0.533173
H230	H	0.762529	-0.063936	-0.283173
H231	H	1.012529	0.186064	-0.033173
H232	H	1.262529	0.436064	0.216827
H233	H	0.512585	-0.243714	-0.463117
H234	H	0.762585	0.006286	-0.213117
H235	H	1.012585	0.256286	0.036883
H236	H	1.262585	0.506286	0.286883
N237	N	0.675470	-0.495235	-0.281091
N238	N	0.925470	-0.245235	-0.031091
N239	N	1.175470	0.004765	0.218909
N240	N	1.425470	0.254765	0.468909
H241	H	0.702603	-0.532649	-0.313790
H242	H	0.952603	-0.282649	-0.063790
H243	H	1.202603	-0.032649	0.186210
H244	H	1.452603	0.217351	0.436210
H245	H	0.702594	-0.462370	-0.243791
H246	H	0.952594	-0.212370	0.006209
H247	H	1.202594	0.037630	0.256209
H248	H	1.452594	0.287630	0.506209
H249	H	0.263197	-0.481525	-0.294789
H250	H	0.513197	-0.231525	-0.044789
H251	H	0.763197	0.018475	0.205211
H252	H	1.013197	0.268475	0.455211
H253	H	0.667027	-0.294759	-0.482203
H254	H	0.917027	-0.044759	-0.232203
H255	H	1.167027	0.205241	0.017797
H256	H	1.417027	0.455241	0.267797
N257	N	0.272055	-0.281063	-0.495902
N258	N	0.522055	-0.031063	-0.245902
N259	N	0.772055	0.218937	0.004098
N260	N	1.022055	0.468937	0.254098
H261	H	0.318464	-0.288896	-0.488070
H262	H	0.568464	-0.038896	-0.238070
H263	H	0.818464	0.211104	0.011930
H264	H	1.068464	0.461104	0.261930
H265	H	0.260618	-0.293700	-0.553459
H266	H	0.510618	-0.043700	-0.303459
H267	H	0.760618	0.206300	-0.053459
H268	H	1.010618	0.456300	0.196541
N269	N	0.473878	-0.237160	-0.401983
N270	N	0.723878	0.012840	-0.151983
N271	N	0.973878	0.262840	0.098017
N272	N	1.223878	0.512840	0.348017
H273	H	0.443258	-0.191134	-0.406093
H274	H	0.693258	0.058866	-0.156093
H275	H	0.943258	0.308866	0.093907
H276	H	1.193258	0.558866	0.343907
H277	H	0.501014	-0.229621	-0.352864
H278	H	0.751014	0.020379	-0.102864
H279	H	1.001014	0.270379	0.147136
H280	H	1.251014	0.520379	0.397136
N281	N	0.337870	-0.237119	-0.401997
N282	N	0.587870	0.012881	-0.151997
N283	N	0.837870	0.262881	0.098003
N284	N	1.087870	0.512881	0.348003
H285	H	0.291446	-0.248128	-0.401014
H286	H	0.541446	0.001872	-0.151014
H287	H	0.791446	0.251872	0.098986
H288	H	1.041446	0.501872	0.348986
H289	H	0.349319	-0.201014	-0.355433
H290	H	0.599319	0.048986	-0.105433
H291	H	0.849319	0.298986	0.144567
H292	H	1.099319	0.548986	0.394567
H293	H	0.144683	-0.294621	-0.482238
H294	H	0.394683	-0.044621	-0.232238
H295	H	0.644683	0.205379	0.017762
H296	H	0.894683	0.455379	0.267762
H297	H	0.346314	-0.519904	-0.376742
H298	H	0.596314	-0.269904	-0.126742
H299	H	0.846314	-0.019904	0.123258
H300	H	1.096314	0.230096	0.373258
