data_functionalizedCrystal
_audit_creation_method	'MofGen! by Chris Wilmer'
_symmetry_space_group_name_H-M	'P1'
_symmetry_Int_Tables_number	1
_symmetry_cell_setting	triclinic
loop_
_symmetry_equiv_pos_as_xyz
  x,y,z
_cell_length_a	12.837943
_cell_length_b	15.944551
_cell_length_c	11.295483
_cell_angle_alpha	94.094426
_cell_angle_beta	85.461227
_cell_angle_gamma	89.163839
loop_
_atom_site_label
_atom_site_type_symbol
_atom_site_fract_x
_atom_site_fract_y
_atom_site_fract_z
O1	O	1.382450	0.213265	-0.099009
O2	O	1.080644	0.202478	-0.099016
O3	O	1.239788	0.086257	-0.099002
O4	O	1.223306	0.329487	-0.099023
O5	O	1.225810	0.096448	0.099048
O6	O	1.066666	0.212669	0.099034
O7	O	1.368472	0.223456	0.099040
Cu8	Cu	1.216293	0.218993	0.117121
Cu9	Cu	1.232823	0.206941	-0.117096
O10	O	1.209328	0.339677	0.099026
C11	C	1.035034	0.203930	0.000008
C12	C	0.919957	0.193062	0.000006
C13	C	0.679007	0.323714	0.000011
C14	C	0.570881	0.313507	0.000010
C15	C	0.595575	0.162440	0.000011
C16	C	0.703701	0.172648	0.000012
C17	C	0.745413	0.253287	0.000011
C18	C	0.853542	0.263494	0.000003
C19	C	0.878234	0.112428	0.000013
C20	C	0.770107	0.102221	0.000011
C21	C	1.232115	0.060004	0.000023
C22	C	1.230063	-0.033407	0.000024
C23	C	1.126515	-0.256548	0.000005
C24	C	1.167708	-0.308694	0.097657
C25	C	1.226352	-0.204430	0.000015
C26	C	1.181513	-0.318722	-0.097604
C27	C	1.222761	-0.369631	0.000001
C28	C	1.267567	-0.255341	0.097747
C29	C	1.281364	-0.265369	-0.097602
C30	C	1.322627	-0.317491	0.000073
C31	C	1.228418	-0.109262	0.000024
C32	C	1.220702	-0.464796	0.000000
C33	C	1.414082	0.222005	0.000014
C34	C	1.529160	0.232872	0.000008
C35	C	1.217002	0.365931	-0.000001
C36	C	1.219054	0.459340	-0.000010
N37	N	1.204674	0.227469	0.281856
N38	N	1.244451	0.198459	-0.281831
C39	C	1.328092	0.137394	0.531156
C40	C	1.319318	0.143806	0.655819
C41	C	1.178349	0.246701	0.655847
C42	C	1.187123	0.240289	0.531184
C43	C	1.261997	0.185634	0.468843
C44	C	1.270775	0.179227	0.344178
C45	C	1.129802	0.282117	0.344208
C46	C	1.121028	0.288530	0.468871
H47	H	0.736129	0.036567	0.000026
H48	H	1.075986	0.321401	0.293458
C49	C	1.391209	0.091390	0.723260
C50	C	1.458670	0.042170	0.641976
C51	C	1.524920	-0.006122	0.704058
H52	H	1.350613	0.055856	0.771905
H53	H	1.431001	0.127560	0.771854
H54	H	1.418882	0.006005	0.593403
H55	H	1.499289	0.077683	0.593328
H56	H	1.564711	0.030048	0.752653
H57	H	1.484315	-0.041650	0.752702
H58	H	1.570706	-0.039517	0.648918
C59	C	1.409243	0.078020	0.463295
C60	C	1.359087	0.018486	0.391699
C61	C	1.433818	-0.036206	0.329150
H62	H	1.447409	0.050123	0.518111
H63	H	1.455788	0.109206	0.414595
H64	H	1.312560	-0.012696	0.440395
H65	H	1.320926	0.046359	0.336860
H66	H	1.480363	-0.005021	0.280450
H67	H	1.471980	-0.064097	0.383976
H68	H	1.399799	-0.076601	0.280557
C69	C	1.345551	-0.239800	-0.207642
C70	C	1.447654	-0.272034	-0.208396
C71	C	1.506800	-0.248505	-0.309763
H72	H	1.347031	-0.180206	-0.206548
H73	H	1.314937	-0.261584	-0.276994
H74	H	1.478260	-0.250247	-0.139062
H75	H	1.446206	-0.331627	-0.209507
H76	H	1.476187	-0.270288	-0.379115
H77	H	1.508272	-0.188910	-0.308661
H78	H	1.576080	-0.270378	-0.310294
C79	C	1.096891	0.305911	0.723489
C80	C	0.997164	0.282512	0.693210
C81	C	0.922095	0.337025	0.755514
H82	H	1.109433	0.361860	0.703123
H83	H	1.101065	0.302800	0.806667
H84	H	0.992993	0.285631	0.610050
H85	H	0.984588	0.226572	0.713579
H86	H	0.926269	0.333914	0.838692
H87	H	0.934647	0.392971	0.735143
H88	H	0.854421	0.321152	0.734987
H89	H	1.119654	-0.327932	0.180211
H90	H	0.516815	0.370856	0.000014
C91	C	1.039577	0.347751	0.536501
C92	C	0.939846	0.324362	0.506223
C93	C	0.864787	0.378892	0.568511
H94	H	1.052133	0.403695	0.516122
H95	H	1.043746	0.344649	0.619682
H96	H	0.935679	0.327472	0.423061
H97	H	0.927257	0.268427	0.526606
H98	H	0.868956	0.375790	0.651692
H99	H	0.877352	0.434833	0.548127
H100	H	0.797110	0.363025	0.547985
H101	H	1.331744	0.134727	0.293421
C102	C	0.898628	0.351115	0.000065
C103	C	0.817321	0.410607	0.000100
C104	C	0.858809	0.491335	0.000177
H105	H	0.945151	0.354809	-0.068980
H106	H	0.935390	0.361830	0.069158
H107	H	0.780576	0.399895	-0.068985
H108	H	0.770792	0.406940	0.069140
H109	H	0.895571	0.502050	0.069270
H110	H	0.905332	0.495020	-0.068869
H111	H	0.803648	0.531711	0.000212
C112	C	0.550077	0.074962	-0.000033
C113	C	0.441173	0.081101	-0.000052
C114	C	0.399226	0.000533	-0.000104
H115	H	0.567887	0.049080	0.069015
H116	H	0.577678	0.042028	-0.069122
H117	H	0.413582	0.114022	0.069031
H118	H	0.423334	0.106968	-0.069095
H119	H	0.426827	-0.032401	-0.069194
H120	H	0.417043	-0.025343	0.068945
H121	H	0.325332	0.004687	-0.000128
C122	C	0.950467	0.036021	-0.000176
C123	C	1.020465	0.032242	-0.102058
C124	C	1.087030	-0.038125	-0.102272
H125	H	0.910268	-0.013525	-0.000239
H126	H	0.988356	0.040406	0.068849
H127	H	0.982580	0.027850	-0.171065
H128	H	1.060688	0.081771	-0.102017
H129	H	1.124918	-0.033739	-0.033246
H130	H	1.046822	-0.087665	-0.102331
H131	H	1.134537	-0.040694	-0.171391
H132	H	1.145100	-0.346426	-0.180167
H133	H	1.043639	-0.229864	0.000101
C134	C	1.316248	-0.218582	0.207852
C135	C	1.418569	-0.250177	0.207960
C136	C	1.463446	-0.216323	0.309360
H137	H	1.276255	-0.233711	0.277197
H138	H	1.317290	-0.159049	0.207204
H139	H	1.417520	-0.309697	0.208618
H140	H	1.458588	-0.235049	0.138638
H141	H	1.464488	-0.156790	0.308713
H142	H	1.423445	-0.231454	0.378698
H143	H	1.532878	-0.237749	0.309442
H144	H	0.712969	0.389374	0.000008
C145	C	1.433148	-0.353016	0.000043
C146	C	1.430153	-0.440807	-0.000974
C147	C	1.531947	-0.473558	-0.001029
H148	H	1.463665	-0.331203	0.069426
H149	H	1.473713	-0.337503	-0.068707
H150	H	1.389604	-0.456312	0.067769
H151	H	1.399656	-0.462642	-0.070352
H152	H	1.572511	-0.458045	-0.069779
H153	H	1.562455	-0.451739	0.068354
H154	H	1.529929	-0.533127	-0.001730
