data_functionalizedCrystal
_audit_creation_method	'MofGen! by Chris Wilmer'
_symmetry_space_group_name_H-M	'P1'
_symmetry_Int_Tables_number	1
_symmetry_cell_setting	triclinic
loop_
_symmetry_equiv_pos_as_xyz
  x,y,z
_cell_length_a	18.101398
_cell_length_b	18.050589
_cell_length_c	18.101390
_cell_angle_alpha	89.971488
_cell_angle_beta	89.975319
_cell_angle_gamma	90.023488
loop_
_atom_site_label
_atom_site_type_symbol
_atom_site_fract_x
_atom_site_fract_y
_atom_site_fract_z
Zn1	Zn	1.132138	-0.295725	-0.418861
Zn2	Zn	1.132040	-0.419930	-0.295029
Zn3	Zn	1.008297	-0.295749	-0.295023
Zn4	Zn	1.008254	-0.419867	-0.418818
O5	O	1.070182	-0.357818	-0.356933
O6	O	1.235758	-0.312217	-0.402456
O7	O	1.115601	-0.403494	-0.191396
O8	O	1.024783	-0.191821	-0.311465
O9	O	1.235686	-0.403471	-0.311477
O10	O	1.115770	-0.191803	-0.402449
O11	O	1.024688	-0.312258	-0.191391
O12	O	0.904658	-0.312197	-0.311423
O13	O	1.024711	-0.403363	-0.522457
O14	O	0.904627	-0.403386	-0.402375
O15	O	1.115729	-0.312156	-0.522489
O16	O	1.115560	-0.523847	-0.311435
O17	O	1.024616	-0.523800	-0.402382
C18	C	0.877772	-0.357788	-0.356894
C19	C	0.795458	-0.357793	-0.356895
C20	C	0.496367	-0.357839	-0.356957
C21	C	0.527687	-0.300178	-0.300012
C22	C	0.613305	-0.300333	-0.299769
C23	C	0.644749	-0.357815	-0.356927
C24	C	0.613635	-0.436048	-0.335608
C25	C	0.527990	-0.435728	-0.335212
C26	C	0.527981	-0.337947	-0.435355
C27	C	0.613632	-0.336205	-0.434927
C28	C	0.728609	-0.357807	-0.356910
C29	C	0.412507	-0.357853	-0.356972
C30	C	1.070093	-0.550770	-0.356921
C31	C	1.070122	-0.633316	-0.356940
C32	C	1.020715	-0.832768	-0.406380
C33	C	1.002663	-0.882213	-0.338801
C34	C	1.070195	-0.784446	-0.356950
C35	C	1.088284	-0.882083	-0.424536
C36	C	1.070264	-0.930431	-0.356965
C37	C	1.052107	-0.832803	-0.289335
C38	C	1.137760	-0.832669	-0.375116
C39	C	1.119733	-0.882092	-0.307491
C40	C	1.070154	-0.700348	-0.356942
C41	C	1.070306	-1.014528	-0.356965
C42	C	1.263344	-0.357849	-0.356972
C43	C	1.345658	-0.357862	-0.356989
C44	C	1.070226	-0.357750	-0.550095
C45	C	1.070245	-0.357721	-0.632409
C46	C	1.070292	-0.164112	-0.356961
C47	C	1.070339	-0.081566	-0.356974
C48	C	1.070285	-0.357675	-0.931500
C49	C	1.127739	-0.300492	-0.900195
C50	C	1.127560	-0.300280	-0.814577
C51	C	1.070266	-0.357698	-0.783117
C52	C	0.992248	-0.336428	-0.814182
C53	C	0.992592	-0.336000	-0.899828
C54	C	1.090162	-0.436274	-0.899920
C55	C	1.091874	-0.435873	-0.814270
C56	C	1.070250	-0.357712	-0.699258
C57	C	1.070296	-0.357659	-1.015360
C58	C	1.070181	-0.357832	-0.164522
C59	C	1.070306	-0.357651	-0.082209
H60	H	0.506138	-0.313180	-0.242258
H61	H	0.978810	-0.811110	-0.448122
C62	C	0.969816	-0.258390	-0.926834
H63	H	0.969817	-0.257447	-0.979310
H64	H	1.003867	-0.222701	-0.908729
H65	H	0.921698	-0.247149	-0.909129
C66	C	1.205718	-0.318233	-0.786197
H67	H	1.205715	-0.318121	-0.733713
H68	H	1.239437	-0.281948	-0.803801
H69	H	1.220220	-0.365709	-0.803564
C70	C	0.640942	-0.318090	-0.221292
H71	H	0.599826	-0.325247	-0.189437
H72	H	0.670080	-0.278075	-0.203614
H73	H	0.669962	-0.361916	-0.222406
H74	H	1.103556	-0.903730	-0.481687
C75	C	0.500952	-0.458508	-0.257788
H76	H	0.542311	-0.467867	-0.226872
H77	H	0.471713	-0.502061	-0.261470
H78	H	0.472163	-0.419636	-0.237249
H79	H	0.506406	-0.281892	-0.454739
C80	C	1.206150	-0.318255	-0.928032
H81	H	1.239994	-0.283115	-0.908513
H82	H	1.207033	-0.316054	-0.980459
H83	H	1.219806	-0.366557	-0.912288
C84	C	0.925519	-0.911614	-0.318046
H85	H	0.890394	-0.894731	-0.353209
H86	H	0.912352	-0.894017	-0.270379
H87	H	0.926216	-0.964239	-0.317764
C88	C	0.500618	-0.394676	-0.492676
H89	H	0.470074	-0.430313	-0.468986
H90	H	0.541803	-0.418831	-0.514517
H91	H	0.473077	-0.369882	-0.529879
C92	C	0.932795	-0.389809	-0.927805
H93	H	0.908396	-0.411830	-0.886826
H94	H	0.955162	-0.427361	-0.956963
H95	H	0.897922	-0.363423	-0.956876
H96	H	1.114403	-0.242052	-0.794098
C97	C	1.110196	-0.222267	-0.929276
H98	H	1.145170	-0.188061	-0.910101
H99	H	1.061966	-0.208320	-0.913972
H100	H	1.112644	-0.222160	-0.981702
H101	H	0.635039	-0.375141	-0.479629
C102	C	1.176300	-0.911174	-0.250972
H103	H	1.212505	-0.940098	-0.275690
H104	H	1.151740	-0.940851	-0.215231
H105	H	1.199560	-0.870509	-0.227133
H106	H	0.507270	-0.480145	-0.374880
C107	C	0.641152	-0.495646	-0.389877
H108	H	0.671937	-0.473292	-0.426103
H109	H	0.600039	-0.518333	-0.413356
H110	H	0.668472	-0.532075	-0.363649
C111	C	1.165697	-0.462412	-0.929110
H112	H	1.176638	-0.509942	-0.909392
H113	H	1.202833	-0.428254	-0.914456
H114	H	1.164217	-0.465174	-0.981497
H115	H	0.635050	-0.453209	-0.278915
H116	H	1.149288	-0.451912	-0.793967
H117	H	1.053070	-0.480769	-0.792853
C118	C	0.969072	-0.259667	-0.785233
H119	H	0.921784	-0.247288	-0.804340
H120	H	1.004113	-0.223664	-0.800697
H121	H	0.967010	-0.260697	-0.732800
H122	H	1.036769	-0.811246	-0.232168
H123	H	0.948278	-0.376795	-0.793803
C124	C	0.641111	-0.258434	-0.456649
H125	H	0.671425	-0.239210	-0.418349
H126	H	0.599963	-0.226615	-0.463930
H127	H	0.668915	-0.261503	-0.501065
H128	H	0.507114	-0.241988	-0.313227
H129	H	1.194851	-0.810893	-0.390500
C130	C	1.033636	-0.493836	-0.927265
H131	H	1.045933	-0.541216	-0.907996
H132	H	1.034467	-0.495557	-0.979708
H133	H	0.985632	-0.480246	-0.910949
C134	C	0.641729	-0.221961	-0.317803
H135	H	0.600933	-0.189740	-0.325341
H136	H	0.671011	-0.223565	-0.361334
H137	H	0.670768	-0.204218	-0.277843
