data_functionalizedCrystal
_audit_creation_method	'MofGen! by Chris Wilmer'
_symmetry_space_group_name_H-M	'P1'
_symmetry_Int_Tables_number	1
_symmetry_cell_setting	triclinic
loop_
_symmetry_equiv_pos_as_xyz
  x,y,z
_cell_length_a	10.723024
_cell_length_b	14.472310
_cell_length_c	10.723024
_cell_angle_alpha	89.999556
_cell_angle_beta	95.532131
_cell_angle_gamma	90.012758
loop_
_atom_site_label
_atom_site_type_symbol
_atom_site_fract_x
_atom_site_fract_y
_atom_site_fract_z
O1	O	1.657205	0.076834	-0.175019
O2	O	1.294052	0.076837	-0.191772
O3	O	1.484005	0.076830	-0.001819
O4	O	1.467252	0.076840	-0.364972
O5	O	1.483956	-0.076852	-0.001830
O6	O	1.294003	-0.076845	-0.191783
O7	O	1.657156	-0.076848	-0.175030
Cu8	Cu	1.475575	-0.090879	-0.183407
Cu9	Cu	1.475633	0.090868	-0.183395
O10	O	1.467203	-0.076842	-0.364982
C11	C	1.247528	-0.000004	-0.190558
C12	C	1.108974	-0.000003	-0.186911
C13	C	1.033991	0.000001	-0.293198
C14	C	0.890788	0.000002	-0.289431
N15	N	1.475543	-0.218710	-0.183415
C16	C	1.475631	-0.592801	-0.183389
C17	C	1.373645	-0.553632	-0.284683
C18	C	1.373885	-0.446544	-0.285057
C19	C	1.475586	-0.407210	-0.183402
C20	C	1.606038	-0.446047	-0.212956
C21	C	1.605466	-0.553169	-0.213678
C22	C	1.448326	-0.553334	-0.052249
C23	C	1.445347	-0.446206	-0.053097
C24	C	1.475569	-0.302322	-0.183407
C25	C	1.475657	-0.697689	-0.183387
C26	C	1.703680	-0.000005	-0.176243
C27	C	1.842234	-0.000001	-0.179891
C28	C	1.482762	-0.000010	0.044675
C29	C	1.479114	-0.000008	0.183229
N30	N	1.475675	0.218699	-0.183377
C31	C	1.585401	-0.000008	0.258212
C32	C	1.581634	-0.000006	0.401415
C33	C	1.468447	-0.000001	0.588523
C34	C	1.472094	-0.000004	0.449969
H35	H	0.826355	0.000009	-0.380421
C36	C	1.712107	-0.000010	0.201725
C37	C	1.745550	-0.079815	0.115994
C38	C	1.872260	-0.079818	0.059510
C39	C	1.965525	-0.000016	0.088756
C40	C	1.932084	0.079795	0.174491
C41	C	1.805375	0.079798	0.230975
H42	H	1.676508	-0.138895	0.094341
H43	H	1.897014	-0.138899	-0.003957
H44	H	2.059323	-0.000018	0.046943
H45	H	2.001127	0.138875	0.196144
H46	H	1.780620	0.138879	0.294442
C47	C	1.352407	-0.000005	0.239713
C48	C	1.259142	-0.079807	0.210464
C49	C	1.132431	-0.079805	0.266944
C50	C	1.098984	-0.000000	0.352673
C51	C	1.192251	0.079808	0.381927
C52	C	1.318962	0.079805	0.325447
H53	H	1.283899	-0.138889	0.146998
H54	H	1.063388	-0.138885	0.245288
H55	H	1.005185	0.000001	0.394483
H56	H	1.167494	0.138889	0.445392
H57	H	1.388005	0.138885	0.347103
H58	H	1.075814	-0.000002	-0.386984
C59	C	1.711086	-0.411626	-0.116014
C60	C	1.819953	-0.354014	-0.158808
C61	C	1.924999	-0.319592	-0.061865
C62	C	1.921180	-0.342783	0.077873
C63	C	1.812310	-0.400398	0.120675
C64	C	1.707263	-0.434820	0.023731
H65	H	1.822784	-0.336844	-0.262257
H66	H	2.005593	-0.276941	-0.093550
H67	H	1.998942	-0.317302	0.149637
H68	H	1.809478	-0.417568	0.224123
H69	H	1.626670	-0.477471	0.055416
H70	H	0.906659	0.000002	-0.088896
H71	H	1.683787	-0.579077	-0.142869
H72	H	1.067152	0.000018	-0.093125
H73	H	1.630472	-0.419208	-0.307546
H74	H	1.276954	-0.420287	-0.267285
H75	H	1.672624	-0.000010	0.465848
C76	C	1.242254	-0.588389	-0.260980
C77	C	1.225953	-0.652773	-0.149368
C78	C	1.094551	-0.687496	-0.125624
C79	C	0.979448	-0.657836	-0.213491
C80	C	0.995745	-0.593448	-0.325111
C81	C	1.127148	-0.558725	-0.348855
H82	H	1.311163	-0.674732	-0.084317
H83	H	1.082487	-0.735160	-0.042995
H84	H	0.882176	-0.683540	-0.195914
H85	H	0.910536	-0.571489	-0.390162
H86	H	1.139211	-0.511061	-0.431484
C87	C	1.322500	-0.589861	-0.014249
C88	C	1.318860	-0.646621	0.106818
C89	C	1.193028	-0.683148	0.144802
C90	C	1.070835	-0.662915	0.061718
C91	C	1.074470	-0.606152	-0.059358
C92	C	1.200302	-0.569625	-0.097341
H93	H	1.409318	-0.661601	0.168329
H94	H	1.190337	-0.725168	0.234430
H95	H	0.977686	-0.689954	0.089835
H96	H	0.984011	-0.591172	-0.120868
H97	H	1.202992	-0.527605	-0.186969
C98	C	1.539060	-0.410045	0.053630
C99	C	1.645161	-0.344181	0.024197
C100	C	1.738886	-0.308020	0.130921
C101	C	1.726509	-0.337723	0.267078
C102	C	1.620403	-0.403591	0.296518
C103	C	1.526678	-0.439752	0.189794
H104	H	1.654327	-0.322189	-0.076601
H105	H	1.817433	-0.259260	0.109127
H106	H	1.795889	-0.310955	0.346081
H107	H	1.611237	-0.425582	0.397315
H108	H	1.448132	-0.488511	0.211588
H109	H	1.390962	-0.580539	-0.381427
H110	H	1.381099	-0.000010	0.385544
H111	H	1.391438	-0.420907	-0.382351
H112	H	1.629358	-0.578142	-0.309351
H113	H	1.349380	-0.420824	-0.030694
H114	H	1.522687	-0.578663	0.023143
