data_functionalizedCrystal
_audit_creation_method	'MofGen! by Chris Wilmer'
_symmetry_space_group_name_H-M	'P1'
_symmetry_Int_Tables_number	1
_symmetry_cell_setting	triclinic
loop_
_symmetry_equiv_pos_as_xyz
  x,y,z
_cell_length_a	8.497374
_cell_length_b	19.805407
_cell_length_c	19.805405
_cell_angle_alpha	89.973590
_cell_angle_beta	89.985911
_cell_angle_gamma	90.004504
loop_
_atom_site_label
_atom_site_type_symbol
_atom_site_fract_x
_atom_site_fract_y
_atom_site_fract_z
Zn1	Zn	0.892011	1.034635	0.269581
Zn2	Zn	0.628188	1.034580	0.382739
Zn3	Zn	0.628226	0.921479	0.269569
Zn4	Zn	0.891907	0.921413	0.382733
O5	O	0.760083	0.978027	0.326155
O6	O	0.857043	1.129344	0.284598
O7	O	0.407431	1.019581	0.367724
O8	O	0.663277	0.936541	0.174854
O9	O	0.663213	1.129303	0.367735
O10	O	0.857079	1.019676	0.174862
O11	O	0.407458	0.936487	0.284579
O12	O	0.663176	0.826754	0.284573
O13	O	1.112683	0.936428	0.367725
O14	O	0.856901	0.826705	0.367714
O15	O	1.112760	1.019611	0.284593
O16	O	0.663111	1.019517	0.477455
O17	O	0.856864	0.936374	0.477450
C18	C	0.760032	0.802171	0.326142
C19	C	0.760048	0.726939	0.326153
C20	C	0.860757	0.691587	0.369510
C21	C	0.860779	0.620899	0.369511
C22	C	0.760083	0.585563	0.326158
C23	C	0.659369	0.620920	0.282797
C24	C	0.659356	0.691607	0.282793
C25	C	0.659421	0.335847	0.282812
C26	C	0.659439	0.265155	0.282821
C27	C	0.860844	0.265138	0.369530
C28	C	0.860831	0.335825	0.369526
C29	C	0.760124	0.371176	0.326162
C30	C	0.760103	0.447824	0.326161
C31	C	0.760095	0.508916	0.326163
C32	C	0.760007	0.977951	0.502011
C33	C	0.760027	0.977980	0.577243
C34	C	1.171563	0.978022	0.326156
C35	C	1.350207	0.978023	0.326164
C36	C	0.760135	1.154569	0.326169
C37	C	0.760157	1.229801	0.326175
C38	C	0.760194	0.978122	0.149613
C39	C	0.760241	0.978162	0.074381
C40	C	0.659245	1.021314	0.612567
C41	C	0.659280	1.021343	0.683256
C42	C	0.760090	0.978034	0.718619
C43	C	0.860882	0.934697	0.683290
C44	C	0.860854	0.934672	0.612603
C45	C	0.860999	0.934797	0.968363
C46	C	0.861016	0.934824	1.039055
C47	C	0.659425	1.021468	1.039016
C48	C	0.659397	1.021443	0.968329
C49	C	0.760195	0.978109	0.933006
C50	C	0.760158	0.978080	0.856358
C51	C	0.760120	0.978059	0.795266
H52	H	0.577356	0.720390	0.247484
O53	O	0.959037	0.892848	1.073483
C54	C	1.172094	0.883709	1.153236
C55	C	1.061170	0.931318	1.114301
H56	H	1.254718	0.914793	1.186236
H57	H	1.099692	0.848364	1.186416
H58	H	1.244064	0.852720	1.115835
H59	H	0.989176	0.962352	1.151653
H60	H	1.133661	0.966619	1.081111
H61	H	0.942823	0.364592	0.404830
O62	O	0.958919	0.892674	0.578255
C63	C	1.171795	0.883469	0.498384
C64	C	1.060851	0.931106	0.537253
H65	H	1.254213	0.914522	0.465214
H66	H	1.243970	0.852528	0.535768
H67	H	1.099246	0.848080	0.465360
H68	H	1.133279	0.966536	0.570278
H69	H	0.988671	0.962000	0.499833
O70	O	0.561720	1.063600	0.717548
C71	C	0.541113	1.155154	0.797149
C72	C	0.651705	1.107288	0.758377
H73	H	0.613820	1.190478	0.830178
H74	H	0.469235	1.186146	0.759703
H75	H	0.458389	1.124235	0.830305
H76	H	0.734525	1.138154	0.725220
H77	H	0.723473	1.076294	0.795859
O78	O	0.561391	0.586565	0.240779
C79	C	0.348524	0.506712	0.231527
C80	C	0.459362	0.545587	0.279190
H81	H	0.266029	0.473562	0.262563
H82	H	0.276428	0.544091	0.200547
H83	H	0.421152	0.473668	0.196177
H84	H	0.386857	0.578633	0.314582
H85	H	0.531465	0.508172	0.310123
O86	O	0.958937	0.892631	0.934161
C87	C	1.158925	0.806703	0.941666
C88	C	1.048070	0.854417	0.980487
H89	H	1.231042	0.775805	0.979104
H90	H	1.086467	0.771284	0.908636
H91	H	1.241415	0.837737	0.908511
H92	H	0.965558	0.823438	1.013679
H93	H	1.120626	0.889839	1.013475
H94	H	0.577357	1.056755	1.067784
O95	O	0.561656	0.230724	0.240774
C96	C	0.472453	0.121831	0.202345
C97	C	0.583249	0.160740	0.249999
H98	H	0.489896	0.065242	0.209777
H99	H	0.345163	0.135671	0.214149
H100	H	0.500356	0.135784	0.147790
H101	H	0.555489	0.146808	0.304571
H102	H	0.710507	0.146897	0.238137
O103	O	0.561262	1.063448	0.578323
C104	C	0.361239	1.149364	0.585753
C105	C	0.472151	1.101691	0.624616
H106	H	0.289140	1.180286	0.623164
H107	H	0.433651	1.184763	0.552635
H108	H	0.278735	1.118296	0.552682
H109	H	0.554676	1.132705	0.657724
H110	H	0.399640	1.066290	0.657692
O111	O	0.958378	0.586480	0.411662
C112	C	0.979196	0.506662	0.503088
C113	C	0.868485	0.545588	0.455382
H114	H	0.906560	0.473603	0.538456
H115	H	1.061803	0.473542	0.472109
H116	H	1.051195	0.544068	0.534047
H117	H	0.796383	0.508231	0.424413
H118	H	0.785982	0.578719	0.486399
O119	O	0.958736	0.892532	0.717564
C120	C	1.035017	0.777377	0.739300
C121	C	0.924124	0.825055	0.700433
H122	H	1.007051	0.722810	0.725474
H123	H	1.162269	0.789157	0.725356
H124	H	1.017754	0.784870	0.795887
H125	H	0.941247	0.817588	0.643838
H126	H	0.796913	0.813262	0.714433
H127	H	0.942851	0.236347	0.404836
H128	H	0.942751	0.720352	0.404815
H129	H	0.577407	0.364621	0.247508
O130	O	0.561422	1.063578	0.934083
C131	C	0.361409	1.149499	0.941506
C132	C	0.472307	1.101824	0.980372
H133	H	0.289308	1.180423	0.978914
H134	H	0.433832	1.184897	0.908390
H135	H	0.278907	1.118433	0.908433
H136	H	0.554832	1.132836	1.013482
H137	H	0.399786	1.066425	1.013446
