data_functionalizedCrystal
_audit_creation_method	'MofGen! by Chris Wilmer'
_symmetry_space_group_name_H-M	'P1'
_symmetry_Int_Tables_number	1
_symmetry_cell_setting	triclinic
loop_
_symmetry_equiv_pos_as_xyz
  x,y,z
_cell_length_a	13.185408
_cell_length_b	11.792254
_cell_length_c	11.804365
_cell_angle_alpha	101.913421
_cell_angle_beta	82.233045
_cell_angle_gamma	68.086049
loop_
_atom_site_label
_atom_site_type_symbol
_atom_site_fract_x
_atom_site_fract_y
_atom_site_fract_z
O1	O	1.467043	-0.324702	-0.098930
O2	O	1.150235	-0.209874	-0.098953
O3	O	1.316318	-0.434851	-0.098932
O4	O	1.300960	-0.099726	-0.098950
O5	O	1.272595	-0.375669	0.099118
O6	O	1.106511	-0.150693	0.099097
O7	O	1.423320	-0.265521	0.099121
Cu8	Cu	1.260923	-0.202703	0.117193
Cu9	Cu	1.312631	-0.272692	-0.117025
O10	O	1.257237	-0.040545	0.099100
C11	C	1.087815	-0.168643	0.000069
C12	C	0.966963	-0.133970	0.000060
C13	C	1.293489	-0.447249	0.000092
C14	C	1.290593	-0.572359	0.000091
C15	C	0.897830	-0.010511	0.000051
C16	C	0.784280	0.022075	0.000060
C17	C	0.739853	-0.068798	0.000069
C18	C	0.808987	-0.192262	0.000070
C19	C	0.922547	-0.224849	0.000070
C20	C	0.764570	-0.283136	0.000088
C21	C	0.833704	-0.406600	0.000088
C22	C	0.947253	-0.439181	0.000088
C23	C	0.991680	-0.348308	0.000079
C24	C	0.651010	-0.250550	0.000087
C25	C	0.675727	-0.464888	0.000106
C26	C	0.789277	-0.497473	0.000097
C27	C	1.288240	-0.673963	0.000087
C28	C	1.285300	-0.801435	0.000075
C29	C	1.485741	-0.306753	0.000096
C30	C	1.606594	-0.341428	0.000097
C31	C	1.280067	-0.028147	0.000073
C32	C	1.282964	0.096961	0.000066
N33	N	1.224562	-0.153480	0.281929
N34	N	1.349001	-0.321927	-0.281761
C35	C	1.436316	-0.440152	0.655904
C36	C	1.463822	-0.477394	0.531246
C37	C	1.404009	-0.396419	0.468910
C38	C	1.316687	-0.278195	0.531245
C39	C	1.289184	-0.240945	0.655916
C40	C	1.256877	-0.197212	0.468922
C41	C	1.169554	-0.078988	0.531257
C42	C	1.142055	-0.041745	0.655916
C43	C	1.201868	-0.122720	0.718251
C44	C	1.284379	-0.234462	0.344252
C45	C	1.137247	-0.035255	0.344264
C46	C	1.109741	0.001987	0.468922
H47	H	0.594731	-0.150023	0.000089
H48	H	1.179471	-0.092401	0.819758
H49	H	0.845582	-0.598000	0.000098
H50	H	0.934012	0.063467	0.000053
H51	H	0.639567	-0.538901	0.000058
H52	H	1.534920	-0.573650	0.480497
H53	H	1.038641	0.098248	0.519691
O54	O	1.079232	0.043555	0.283780
C55	C	1.090848	0.159423	0.314252
H56	H	1.170441	0.143648	0.348510
H57	H	1.096749	0.195601	0.232264
H58	H	1.014748	0.232713	0.386619
H59	H	1.355478	-0.330719	0.293510
O60	O	1.057376	0.073181	0.716525
C61	C	1.100169	0.146837	0.788645
H62	H	1.194311	0.111361	0.751062
H63	H	1.055973	0.250848	0.790064
H64	H	1.084827	0.137864	0.883126
O65	O	0.717223	0.141951	-0.000157
C66	C	0.760111	0.168541	-0.102720
H67	H	0.814375	0.075455	-0.174408
H68	H	0.687429	0.228296	-0.137152
H69	H	0.813206	0.223373	-0.079537
H70	H	1.485014	-0.506068	0.706665
O71	O	0.629540	-0.036956	0.000016
C72	C	0.578041	0.091509	0.000041
H73	H	0.644758	0.122217	-0.037451
H74	H	0.514017	0.102638	-0.057464
H75	H	0.533702	0.153552	0.095054
O76	O	1.430833	-0.432816	0.347818
C77	C	1.520747	-0.554512	0.306166
H78	H	1.523494	-0.606322	0.378012
H79	H	1.508238	-0.611365	0.222776
H80	H	1.603216	-0.544258	0.284027
H81	H	1.084140	-0.374832	0.000075
H82	H	1.003537	-0.539709	0.000103
