data_functionalizedCrystal
_audit_creation_method	'MofGen! by Chris Wilmer'
_symmetry_space_group_name_H-M	'P1'
_symmetry_Int_Tables_number	1
_symmetry_cell_setting	triclinic
loop_
_symmetry_equiv_pos_as_xyz
  x,y,z
_cell_length_a	12.827892
_cell_length_b	19.077300
_cell_length_c	19.076919
_cell_angle_alpha	94.667263
_cell_angle_beta	87.724465
_cell_angle_gamma	92.279524
loop_
_atom_site_label
_atom_site_type_symbol
_atom_site_fract_x
_atom_site_fract_y
_atom_site_fract_z
Zn1	Zn	-0.500501	-1.061702	0.355322
Zn2	Zn	-0.668504	-1.066374	0.237448
Zn3	Zn	-0.487041	-0.948558	0.242185
Zn4	Zn	-0.668458	-0.943806	0.360027
O5	O	-0.581126	-1.005110	0.298745
O6	O	-0.528439	-1.160968	0.335733
O7	O	-0.638819	-1.054690	0.139428
O8	O	-0.342594	-0.963600	0.257207
O9	O	-0.651870	-1.164401	0.249132
O10	O	-0.352482	-1.046727	0.340327
O11	O	-0.505499	-0.968131	0.142909
O12	O	-0.505454	-0.849281	0.261769
O13	O	-0.651792	-0.955501	0.458050
O14	O	-0.638740	-0.845790	0.348347
O15	O	-0.528395	-1.042118	0.454593
O16	O	-0.814731	-1.050082	0.253694
O17	O	-0.814697	-0.960031	0.343753
C18	C	-0.570633	-0.821958	0.306083
C19	C	-0.566170	-0.743604	0.309239
C20	C	-0.852633	-1.005066	0.298735
C21	C	-0.968790	-1.005111	0.298751
C22	C	-0.534079	-0.302361	0.331884
C23	C	-0.538292	-0.375983	0.328915
C24	C	-0.604548	-0.414575	0.282268
C25	C	-0.666603	-0.379541	0.238593
C26	C	-0.662395	-0.305920	0.241566
C27	C	-0.624017	-0.634949	0.268537
C28	C	-0.628218	-0.708575	0.265565
C29	C	-0.499907	-0.705012	0.355888
C30	C	-0.495701	-0.631389	0.358854
C31	C	-0.557760	-0.596362	0.315182
N32	N	-0.608853	-0.489829	0.279231
N33	N	-0.553460	-0.521110	0.318224
C34	C	-1.020562	-1.049720	0.254233
C35	C	-1.140616	-1.049768	0.254249
C36	C	-0.308561	-1.005172	0.298771
C37	C	-0.192410	-1.005199	0.298781
C38	C	-0.591590	-0.997758	0.482615
C39	C	-0.596049	-0.994625	0.560970
C40	C	-0.591655	-0.188978	0.291372
C41	C	-0.596127	-0.267332	0.288210
C42	C	-0.570630	-1.012474	0.115589
C43	C	-0.565885	-1.015743	0.037229
C44	C	-0.533900	-1.038248	0.595982
C45	C	-0.538085	-1.035296	0.669605
C46	C	-0.604425	-0.988724	0.708214
C47	C	-0.666576	-0.945096	0.673196
C48	C	-0.662385	-0.948045	0.599575
C49	C	-0.623844	-0.975065	0.928591
C50	C	-0.628033	-0.972120	1.002217
C51	C	-0.499540	-1.062320	0.998621
C52	C	-0.495360	-1.065268	0.924998
C53	C	-0.557506	-1.021637	0.889987
N54	N	-0.608707	-0.985707	0.783468
N55	N	-0.553218	-1.024651	0.814734
H56	H	-0.480120	-0.270944	0.369864
Cl57	Cl	-0.421901	-0.749050	0.410791
H58	H	-0.487480	-1.070820	0.698109
H59	H	-1.013345	-0.966958	0.336879
Cl60	Cl	-0.711432	-0.913564	1.050753
H61	H	-0.674547	-0.606439	0.232974
Cl62	Cl	-0.411958	-1.123818	0.876467
Cl63	Cl	-0.740514	-0.893200	0.555559
H64	H	-0.479882	-1.076175	0.564552
H65	H	-0.674465	-0.939548	0.900093
H66	H	-0.712924	-0.277401	0.206004
Cl67	Cl	-0.951782	-1.108638	0.195371
Cl68	Cl	-1.209350	-1.108731	0.195397
Cl69	Cl	-0.421414	-1.117163	1.042639
H70	H	-0.487769	-0.404500	0.364480
H71	H	-0.441752	-0.599972	0.396841
H72	H	-0.720555	-0.410969	0.200615
H73	H	-0.720587	-0.907173	0.704637
H74	H	-1.147895	-0.967003	0.336895
H75	H	-0.682175	-0.739995	0.227579
