data_functionalizedCrystal
_audit_creation_method	'MofGen! by Chris Wilmer'
_symmetry_space_group_name_H-M	'P1'
_symmetry_Int_Tables_number	1
_symmetry_cell_setting	triclinic
loop_
_symmetry_equiv_pos_as_xyz
  x,y,z
_cell_length_a	25.639242
_cell_length_b	25.639239
_cell_length_c	19.121175
_cell_angle_alpha	92.412705
_cell_angle_beta	87.534810
_cell_angle_gamma	90.033587
loop_
_atom_site_label
_atom_site_type_symbol
_atom_site_fract_x
_atom_site_fract_y
_atom_site_fract_z
Zn1	Zn	0.811850	-0.220847	-0.397264
Zn2	Zn	1.145183	0.112486	-0.063931
Zn3	Zn	1.478516	0.445820	0.269403
Zn4	Zn	0.808041	-0.304552	-0.279810
Zn5	Zn	1.141374	0.028781	0.053523
Zn6	Zn	1.474707	0.362115	0.386856
Zn7	Zn	0.720693	-0.217125	-0.279811
Zn8	Zn	1.054027	0.116209	0.053522
Zn9	Zn	1.387360	0.449542	0.386855
Zn10	Zn	0.724369	-0.308244	-0.397204
Zn11	Zn	1.057702	0.025090	-0.063870
Zn12	Zn	1.391036	0.358423	0.269463
O13	O	0.766238	-0.262692	-0.338522
O14	O	1.099571	0.070642	-0.005189
O15	O	1.432905	0.403975	0.328144
O16	O	0.884510	-0.231964	-0.381708
O17	O	1.217844	0.101370	-0.048375
O18	O	1.551177	0.434703	0.284958
O19	O	0.793321	-0.289852	-0.181527
O20	O	1.126655	0.043482	0.151807
O21	O	1.459988	0.376815	0.485140
O22	O	0.732841	-0.144454	-0.295417
O23	O	1.066175	0.188879	0.037916
O24	O	1.399508	0.522213	0.371249
O25	O	0.881712	-0.293461	-0.295416
O26	O	1.215045	0.039872	0.037918
O27	O	1.548378	0.373205	0.371251
O28	O	0.799813	-0.147189	-0.381709
O29	O	1.133147	0.186144	-0.048376
O30	O	1.466480	0.519478	0.284957
O31	O	0.729148	-0.225619	-0.181527
O32	O	1.062481	0.107714	0.151806
O33	O	1.395814	0.441047	0.485139
O34	O	0.648015	-0.229199	-0.295359
O35	O	0.981348	0.104135	0.037975
O36	O	1.314682	0.437468	0.371308
O37	O	0.739106	-0.299753	-0.495496
O38	O	1.072439	0.033580	-0.162162
O39	O	1.405773	0.366914	0.171171
O40	O	0.650716	-0.296144	-0.381607
O41	O	0.984049	0.037190	-0.048273
O42	O	1.317382	0.370523	0.285060
O43	O	0.803378	-0.235543	-0.495540
O44	O	1.136711	0.097790	-0.162207
O45	O	1.470044	0.431123	0.171127
O46	O	0.796886	-0.378206	-0.295357
O47	O	1.130219	-0.044873	0.037976
O48	O	1.463552	0.288461	0.371309
O49	O	0.735412	-0.380918	-0.381606
O50	O	1.068746	-0.047585	-0.048272
O51	O	1.402079	0.285748	0.285061
C52	C	0.630394	-0.262668	-0.338477
C53	C	0.963727	0.070665	-0.005143
C54	C	1.297061	0.403998	0.328190
C55	C	0.572280	-0.262671	-0.338474
C56	C	0.905613	0.070662	-0.005140
C57	C	1.238947	0.403995	0.328193
C58	C	0.319676	-0.227780	-0.293691
C59	C	0.653009	0.105553	0.039642
C60	C	0.986342	0.438886	0.372976
C61	C	0.374280	-0.227775	-0.293682
C62	C	0.707613	0.105558	0.039651
C63	C	1.040946	0.438891	0.372985
O64	O	0.401315	-0.198078	-0.255566
O65	O	0.734649	0.135256	0.077767
O66	O	1.067982	0.468589	0.411100
N67	N	0.403007	-0.262679	-0.338509
N68	N	0.736341	0.070654	-0.005176
N69	N	1.069674	0.403988	0.328158
C70	C	0.377128	-0.297586	-0.383353
C71	C	0.710462	0.035747	-0.050020
C72	C	1.043795	0.369080	0.283313
O73	O	0.406577	-0.327274	-0.421482
O74	O	0.739911	0.006059	-0.088149
O75	O	1.073244	0.339393	0.245185
C76	C	0.322525	-0.297589	-0.383365
C77	C	0.655859	0.035745	-0.050032
C78	C	0.989192	0.369078	0.283302
C79	C	0.293800	-0.262686	-0.338530
C80	C	0.627134	0.070647	-0.005197
C81	C	0.960467	0.403980	0.328137
C82	C	0.290951	-0.192880	-0.248860
C83	C	0.624284	0.140453	0.084473
C84	C	0.957617	0.473786	0.417807
C85	C	0.236350	-0.192886	-0.248868
C86	C	0.569684	0.140447	0.084465
C87	C	0.903017	0.473780	0.417799
C88	C	0.210475	-0.227792	-0.293707
C89	C	0.543808	0.105541	0.039626
C90	C	0.877142	0.438875	0.372959
C91	C	0.239200	-0.262692	-0.338538
C92	C	0.572533	0.070641	-0.005205
C93	C	0.905867	0.403975	0.328129
C94	C	0.296647	-0.332493	-0.428212
C95	C	0.629981	0.000840	-0.094879
C96	C	0.963314	0.334173	0.238454
C97	C	0.242041	-0.332492	-0.428221
C98	C	0.575374	0.000841	-0.094887
C99	C	0.908707	0.334175	0.238446
C100	C	0.213316	-0.297590	-0.383386
C101	C	0.546649	0.035744	-0.050052
C102	C	0.879982	0.369077	0.283281
C103	C	0.158724	-0.297604	-0.383385
C104	C	0.492058	0.035729	-0.050052
C105	C	0.825391	0.369063	0.283281
N106	N	0.129997	-0.262700	-0.338558
N107	N	0.463330	0.070633	-0.005225
N108	N	0.796663	0.403966	0.328108
C109	C	0.155872	-0.227794	-0.293719
C110	C	0.489205	0.105539	0.039614
C111	C	0.822539	0.438872	0.372948
C112	C	0.491798	-0.297579	-0.383326
C113	C	0.825131	0.035755	-0.049992
C114	C	1.158465	0.369088	0.283341
C115	C	0.546400	-0.297579	-0.383311
C116	C	0.879733	0.035754	-0.049977
C117	C	1.213066	0.369087	0.283356
C118	C	0.543548	-0.227767	-0.293640
C119	C	0.876881	0.105566	0.039693
C120	C	1.210214	0.438899	0.373027
C121	C	0.488945	-0.227769	-0.293652
C122	C	0.822278	0.105564	0.039681
C123	C	1.155611	0.438897	0.373015
C124	C	0.463070	-0.262675	-0.338498
C125	C	0.796404	0.070658	-0.005165
C126	C	1.129737	0.403992	0.328168
C127	C	0.041208	-0.227810	-0.293739
C128	C	0.374541	0.105524	0.039594
C129	C	0.707874	0.438857	0.372927
C130	C	-0.013397	-0.227820	-0.293749
C131	C	0.319936	0.105513	0.039584
C132	C	0.653269	0.438846	0.372917
C133	C	-0.010540	-0.297630	-0.383422
C134	C	0.322793	0.035703	-0.050089
C135	C	0.656126	0.369037	0.283244
C136	C	0.044060	-0.297622	-0.383410
C137	C	0.377393	0.035712	-0.050076
C138	C	0.710727	0.369045	0.283257
C139	C	0.069933	-0.262707	-0.338566
C140	C	0.403266	0.070626	-0.005233
C141	C	0.736599	0.403959	0.328101
O142	O	0.131653	-0.327285	-0.421484
O143	O	0.464987	0.006048	-0.088150
O144	O	0.798320	0.339382	0.245183
O145	O	0.126417	-0.198107	-0.255603
O146	O	0.459750	0.135226	0.077730
O147	O	0.793084	0.468560	0.411063
C148	C	0.766149	-0.398533	-0.338490
C149	C	1.099483	-0.065200	-0.005157
C150	C	1.432816	0.268133	0.328176
C151	C	0.766160	-0.456648	-0.338500
C152	C	1.099493	-0.123314	-0.005167
C153	C	1.432826	0.210019	0.328167
C154	C	0.798337	-0.815589	-0.293689
C155	C	1.131670	-0.482256	0.039644
C156	C	1.465004	-0.148922	0.372977
C157	C	0.798357	-0.870194	-0.293699
C158	C	1.131691	-0.536860	0.039635
C159	C	1.465024	-0.203527	0.372968
O160	O	0.825623	-0.897220	-0.255564
O161	O	1.158957	-0.563887	0.077769
O162	O	1.492290	-0.230554	0.411103
N163	N	0.766332	-0.898932	-0.338569
N164	N	1.099665	-0.565599	-0.005236
N165	N	1.432998	-0.232266	0.328098
C166	C	0.734287	-0.873064	-0.383438
C167	C	1.067620	-0.539730	-0.050104
C168	C	1.400954	-0.206397	0.283229
O169	O	0.707049	-0.902522	-0.421605
O170	O	1.040382	-0.569189	-0.088271
O171	O	1.373715	-0.235856	0.245062
C172	C	0.734269	-0.818460	-0.383431
C173	C	1.067603	-0.485127	-0.050098
C174	C	1.400936	-0.151794	0.283235
C175	C	0.766294	-0.789724	-0.338553
C176	C	1.099627	-0.456391	-0.005220
C177	C	1.432960	-0.123058	0.328113
C178	C	0.830359	-0.786853	-0.248816
C179	C	1.163692	-0.453520	0.084518
C180	C	1.497025	-0.120186	0.417851
C181	C	0.830337	-0.732252	-0.248805
C182	C	1.163671	-0.398919	0.084528
C183	C	1.497004	-0.065585	0.417861
C184	C	0.798294	-0.706387	-0.293669
C185	C	1.131627	-0.373054	0.039664
C186	C	1.464961	-0.039721	0.372998
C187	C	0.766272	-0.735123	-0.338543
C188	C	1.099605	-0.401790	-0.005210
C189	C	1.432939	-0.068457	0.328124
C190	C	0.702228	-0.792593	-0.428303
C191	C	1.035561	-0.459260	-0.094970
C192	C	1.368895	-0.125926	0.238364
C193	C	0.702214	-0.737986	-0.428293
C194	C	1.035547	-0.404652	-0.094960
C195	C	1.368880	-0.071319	0.238373
C196	C	0.734238	-0.709249	-0.383415
C197	C	1.067571	-0.375916	-0.050082
C198	C	1.400904	-0.042583	0.283252
C199	C	0.734207	-0.654658	-0.383397
C200	C	1.067541	-0.321324	-0.050063
C201	C	1.400874	0.012009	0.283270
N202	N	0.766233	-0.625919	-0.338527
N203	N	1.099567	-0.292586	-0.005193
N204	N	1.432900	0.040748	0.328140
C205	C	0.798277	-0.651784	-0.293663
C206	C	1.131610	-0.318450	0.039671
C207	C	1.464943	0.014883	0.373004
C208	C	0.734327	-0.987735	-0.383449
C209	C	1.067660	-0.654401	-0.050115
C210	C	1.400993	-0.321068	0.283218
C211	C	0.734341	-1.042337	-0.383452
C212	C	1.067674	-0.709004	-0.050119
C213	C	1.401008	-0.375670	0.283215
C214	C	0.798412	-1.039463	-0.293714
C215	C	1.131746	-0.706130	0.039620
C216	C	1.465079	-0.372797	0.372953
C217	C	0.798395	-0.984860	-0.293707
C218	C	1.131728	-0.651526	0.039626
C219	C	1.465062	-0.318193	0.372959
C220	C	0.766353	-0.958996	-0.338578
C221	C	1.099686	-0.625663	-0.005245
C222	C	1.433019	-0.292329	0.328088
C223	C	0.798229	-0.537118	-0.293644
C224	C	1.131562	-0.203785	0.039689
C225	C	1.464896	0.129549	0.373022
C226	C	0.798203	-0.482513	-0.293636
C227	C	1.131536	-0.149179	0.039697
C228	C	1.464870	0.184154	0.373030
C229	C	0.734134	-0.485391	-0.383377
C230	C	1.067467	-0.152058	-0.050043
C231	C	1.400801	0.181275	0.283290
C232	C	0.734158	-0.539992	-0.383383
C233	C	1.067491	-0.206659	-0.050049
C234	C	1.400824	0.126675	0.283284
C235	C	0.766209	-0.565854	-0.338514
C236	C	1.099543	-0.232521	-0.005181
C237	C	1.432876	0.100813	0.328153
O238	O	0.706957	-0.627596	-0.421514
O239	O	1.040290	-0.294262	-0.088181
O240	O	1.373624	0.039071	0.245153
O241	O	0.825515	-0.622319	-0.255509
O242	O	1.158849	-0.288986	0.077825
O243	O	1.492182	0.044348	0.411158
C244	C	0.902613	-0.262716	-0.338569
C245	C	1.235946	0.070618	-0.005235
C246	C	1.569279	0.403951	0.328098
C247	C	0.960727	-0.262726	-0.338588
C248	C	1.294061	0.070607	-0.005255
C249	C	1.627394	0.403941	0.328078
C250	C	0.772077	-0.268475	-0.521714
C251	C	1.105410	0.064858	-0.188381
C252	C	1.438743	0.398192	0.144952
C253	C	0.774565	-0.270940	-0.599780
C254	C	1.107898	0.062394	-0.266447
C255	C	1.441231	0.395727	0.066887
C256	C	0.766342	-0.126320	-0.338570
C257	C	1.099676	0.207013	-0.005237
C258	C	1.433009	0.540346	0.328097
C259	C	0.766387	-0.068207	-0.338590
C260	C	1.099720	0.265126	-0.005257
C261	C	1.433053	0.598460	0.328076
C262	C	0.742323	-0.238656	-0.636455
C263	C	1.075657	0.094678	-0.303122
C264	C	1.408990	0.428011	0.030212
C265	C	0.744659	-0.240976	-0.709806
C266	C	1.077992	0.092358	-0.376473
C267	C	1.411326	0.425691	-0.043139
C268	C	0.779239	-0.275577	-0.746480
C269	C	1.112573	0.057756	-0.413147
C270	C	1.445906	0.391089	-0.079814
C271	C	0.811482	-0.307865	-0.709800
C272	C	1.144815	0.025468	-0.376467
C273	C	1.478149	0.358802	-0.043133
C274	C	0.809143	-0.305547	-0.636450
C275	C	1.142476	0.027786	-0.303117
C276	C	1.475810	0.361119	0.030216
C277	C	0.787970	-0.284251	-0.967948
C278	C	1.121303	0.049082	-0.634615
C279	C	1.454636	0.382416	-0.301282
C280	C	0.790307	-0.286565	-1.041303
C281	C	1.123641	0.046768	-0.707970
C282	C	1.456974	0.380101	-0.374636
C283	C	0.723483	-0.219677	-1.041304
C284	C	1.056817	0.113657	-0.707970
C285	C	1.390150	0.446990	-0.374637
C286	C	0.721150	-0.217360	-0.967953
C287	C	1.054483	0.115974	-0.634620
C288	C	1.387817	0.449307	-0.301286
C289	C	0.753391	-0.249649	-0.931279
C290	C	1.086724	0.083684	-0.597946
C291	C	1.420057	0.417018	-0.264612
C292	C	0.781629	-0.277949	-0.821457
C293	C	1.114962	0.055385	-0.488123
C294	C	1.448295	0.388718	-0.154790
C295	C	0.750998	-0.247280	-0.856304
C296	C	1.084331	0.086053	-0.522971
C297	C	1.417665	0.419386	-0.189637
C298	C	0.760452	-0.256893	-0.156043
C299	C	1.093786	0.076440	0.177290
C300	C	1.427119	0.409773	0.510624
C301	C	0.758066	-0.254281	-0.077978
C302	C	1.091399	0.079052	0.255355
C303	C	1.424732	0.412385	0.588689
H304	H	0.220977	-0.360915	-0.464743
H305	H	0.554310	-0.027582	-0.131410
H306	H	0.887644	0.305751	0.201923
N307	N	0.569977	-0.192100	-0.247842
N308	N	0.903310	0.141233	0.085492
N309	N	1.236643	0.474567	0.418825
N310	N	0.544328	-0.160935	-0.207819
N311	N	0.877661	0.172399	0.125514
N312	N	1.210994	0.505732	0.458848
H313	H	0.562994	-0.135746	-0.175476
H314	H	0.896327	0.197588	0.157858
H315	H	1.229660	0.530921	0.491191
N316	N	0.073407	-0.333282	-0.429191
N317	N	0.406740	0.000051	-0.095857
N318	N	0.740073	0.333385	0.237476
N319	N	0.067136	-0.381372	-0.424413
N320	N	0.400469	-0.048039	-0.091079
N321	N	0.733802	0.285295	0.242254
H322	H	0.087860	-0.406556	-0.456749
H323	H	0.421193	-0.073222	-0.123416
H324	H	0.754526	0.260111	0.209918
N325	N	0.459597	-0.192121	-0.247859
N326	N	0.792930	0.141212	0.085474
N327	N	1.126264	0.474545	0.418808
N328	N	0.427675	-0.209049	-0.203065
N329	N	0.761008	0.124284	0.130269
N330	N	1.094342	0.457618	0.463602
H331	H	0.406949	-0.183871	-0.170722
H332	H	0.740283	0.149463	0.162611
H333	H	1.073616	0.482796	0.495944
N334	N	0.830956	-0.563531	-0.247799
N335	N	1.164290	-0.230197	0.085534
N336	N	1.497623	0.103136	0.418868
N337	N	0.811169	-0.592612	-0.203019
N338	N	1.144502	-0.259279	0.130314
N339	N	1.477835	0.074055	0.463648
H340	H	0.834279	-0.611266	-0.170637
H341	H	1.167612	-0.277933	0.162697
H342	H	1.500946	0.055400	0.496030
H343	H	0.818469	-0.314743	-1.071161
H344	H	1.151802	0.018591	-0.737828
H345	H	1.485135	0.351924	-0.404495
N346	N	-0.036985	-0.333282	-0.429215
N347	N	0.296348	0.000051	-0.095882
N348	N	0.629681	0.333384	0.237452
N349	N	-0.085738	-0.333276	-0.429213
N350	N	0.247595	0.000057	-0.095879
N351	N	0.580929	0.333390	0.237454
H352	H	-0.104417	-0.358454	-0.461557
H353	H	0.228916	-0.025120	-0.128224
H354	H	0.562250	0.308213	0.205109
N355	N	0.701451	-0.569347	-0.429231
N356	N	1.034785	-0.236013	-0.095898
N357	N	1.368118	0.097320	0.237435
N358	N	0.721262	-0.601192	-0.474024
N359	N	1.054596	-0.267859	-0.140691
N360	N	1.387929	0.065474	0.192642
H361	H	0.698167	-0.621921	-0.506412
H362	H	1.031500	-0.288587	-0.173078
H363	H	1.364833	0.044746	0.160255
H364	H	0.824281	-0.459117	-0.257089
H365	H	1.157614	-0.125784	0.076245
H366	H	1.490947	0.207550	0.409578
N367	N	0.669480	-0.711559	-0.474118
N368	N	1.002813	-0.378226	-0.140785
N369	N	1.336146	-0.044892	0.192549
N370	N	0.669461	-0.662806	-0.474106
N371	N	1.002795	-0.329473	-0.140773
N372	N	1.336128	0.003860	0.192561
H373	H	0.646342	-0.644142	-0.506468
H374	H	0.979676	-0.310809	-0.173135
H375	H	1.313009	0.022524	0.160199
N376	N	0.711732	-0.208002	-0.747283
N377	N	1.045065	0.125331	-0.413950
N378	N	1.378398	0.458665	-0.080617
N379	N	0.679705	-0.227681	-0.788198
N380	N	1.013038	0.105653	-0.454865
N381	N	1.346372	0.438986	-0.121532
H382	H	0.656450	-0.204392	-0.814670
H383	H	0.989783	0.128942	-0.481336
H384	H	1.323116	0.462275	-0.148003
N385	N	0.846806	-0.343201	-0.747275
N386	N	1.180139	-0.009867	-0.413942
N387	N	1.513472	0.323466	-0.080609
N388	N	0.881439	-0.326098	-0.788222
N389	N	1.214773	0.007236	-0.454889
N390	N	1.548106	0.340569	-0.121555
H391	H	0.906389	-0.351052	-0.814691
H392	H	1.239722	-0.017718	-0.481358
H393	H	1.573056	0.315615	-0.148025
H394	H	0.697234	-0.193389	-1.071172
H395	H	1.030568	0.139944	-0.737838
H396	H	1.363901	0.473278	-0.404505
H397	H	0.320026	-0.360915	-0.464722
H398	H	0.653359	-0.027581	-0.131388
H399	H	0.986693	0.305752	0.201945
H400	H	0.856416	-0.708858	-0.212264
H401	H	1.189749	-0.375525	0.121069
H402	H	1.523082	-0.042192	0.454403
H403	H	0.835401	-0.331832	-0.606590
H404	H	1.168735	0.001501	-0.273257
H405	H	1.502068	0.334834	0.060076
H406	H	0.814217	-0.310549	-0.938097
H407	H	1.147550	0.022784	-0.604764
H408	H	1.480883	0.356118	-0.271431
H409	H	0.722841	-0.219109	-0.826441
H410	H	1.056175	0.114224	-0.493107
H411	H	1.389508	0.447557	-0.159774
N412	N	0.067629	-0.192155	-0.247919
N413	N	0.400962	0.141178	0.085414
N414	N	0.734296	0.474512	0.418747
N415	N	0.096644	-0.209081	-0.203108
N416	N	0.429977	0.124252	0.130225
N417	N	0.763310	0.457586	0.463558
H418	H	0.115303	-0.183902	-0.170744
H419	H	0.448637	0.149431	0.162589
H420	H	0.781970	0.482764	0.495923
N421	N	0.863091	-0.813258	-0.202972
N422	N	1.196424	-0.479925	0.130361
N423	N	1.529758	-0.146592	0.463695
N424	N	0.857589	-0.805122	-0.138161
N425	N	1.190922	-0.471789	0.195173
N426	N	1.524256	-0.138456	0.528506
H427	H	0.880706	-0.823767	-0.105776
H428	H	1.214039	-0.490434	0.227557
H429	H	1.547373	-0.157100	0.560890
H430	H	0.708043	-0.464324	-0.419902
H431	H	1.041376	-0.130990	-0.086569
H432	H	1.374710	0.202343	0.246764
H433	H	0.714167	-0.210476	-0.606600
H434	H	1.047501	0.122857	-0.273267
H435	H	1.380834	0.456190	0.060067
N436	N	0.207003	-0.157236	-0.203078
N437	N	0.540337	0.176098	0.130255
N438	N	0.873670	0.509431	0.463588
N439	N	0.175082	-0.174159	-0.158280
N440	N	0.508415	0.159174	0.175053
N441	N	0.841748	0.492507	0.508386
H442	H	0.154356	-0.148979	-0.125941
H443	H	0.487690	0.184355	0.207392
H444	H	0.821023	0.517688	0.540725
N445	N	0.831108	-0.955517	-0.247860
N446	N	1.164442	-0.622184	0.085473
N447	N	1.497775	-0.288850	0.418807
N448	N	0.859712	-0.978624	-0.207805
N449	N	1.193045	-0.645290	0.125528
N450	N	1.526378	-0.311957	0.458861
H451	H	0.882818	-0.957903	-0.175423
H452	H	1.216151	-0.624570	0.157910
H453	H	1.549484	-0.291236	0.491243
H454	H	0.809783	-0.306122	-0.851325
H455	H	1.143117	0.027211	-0.517992
H456	H	1.476450	0.360545	-0.184658
N457	N	0.317368	-0.157216	-0.203052
N458	N	0.650701	0.176117	0.130281
N459	N	0.984035	0.509451	0.463614
N460	N	0.291704	-0.126060	-0.163034
N461	N	0.625037	0.207273	0.170299
N462	N	0.958371	0.540607	0.503633
H463	H	0.310357	-0.100871	-0.130676
H464	H	0.643691	0.232462	0.202657
H465	H	0.977024	0.565795	0.535991
H466	H	0.569783	-0.326006	-0.419812
H467	H	0.903116	0.007328	-0.086479
H468	H	1.236450	0.340661	0.246854
H469	H	0.470735	-0.326007	-0.419844
H470	H	0.804068	0.007326	-0.086510
H471	H	1.137401	0.340660	0.246823
N472	N	0.831149	-1.065880	-0.247880
N473	N	1.164482	-0.732547	0.085453
N474	N	1.497815	-0.399214	0.418786
N475	N	0.825657	-1.057760	-0.183065
N476	N	1.158990	-0.724427	0.150268
N477	N	1.492323	-0.391093	0.483602
H478	H	0.848775	-1.076417	-0.150696
H479	H	1.182109	-0.743084	0.182637
H480	H	1.515442	-0.409751	0.515971
H481	H	0.692990	-0.189185	-0.938098
H482	H	1.026323	0.144149	-0.604764
H483	H	1.359656	0.477482	-0.271431
H484	H	0.708230	-0.966679	-0.419986
H485	H	1.041563	-0.633346	-0.086652
H486	H	1.374896	-0.300013	0.246681
N487	N	-0.042731	-0.192166	-0.247941
N488	N	0.290603	0.141168	0.085392
N489	N	0.623936	0.474501	0.418725
N490	N	-0.019617	-0.161003	-0.207911
N491	N	0.313717	0.172331	0.125422
N492	N	0.647050	0.505664	0.458756
H493	H	-0.040331	-0.135822	-0.175560
H494	H	0.293002	0.197512	0.157774
H495	H	0.626335	0.530845	0.491107
N496	N	0.701617	-1.071679	-0.429287
N497	N	1.034950	-0.738345	-0.095954
N498	N	1.368284	-0.405012	0.237380
N499	N	0.673009	-1.048572	-0.469335
N500	N	1.006342	-0.715238	-0.136002
N501	N	1.339676	-0.381905	0.197331
H502	H	0.649897	-1.069292	-0.501710
H503	H	0.983231	-0.735959	-0.168377
H504	H	1.316564	-0.402625	0.164956
H505	H	0.676148	-0.815981	-0.464844
H506	H	1.009481	-0.482647	-0.131511
H507	H	1.342815	-0.149314	0.201822
