data_functionalizedCrystal
_audit_creation_method	'MofGen! by Chris Wilmer'
_symmetry_space_group_name_H-M	'P1'
_symmetry_Int_Tables_number	1
_symmetry_cell_setting	triclinic
loop_
_symmetry_equiv_pos_as_xyz
  x,y,z
_cell_length_a	6.394989
_cell_length_b	10.654546
_cell_length_c	9.730223
_cell_angle_alpha	89.998853
_cell_angle_beta	90.001664
_cell_angle_gamma	85.490597
loop_
_atom_site_label
_atom_site_type_symbol
_atom_site_fract_x
_atom_site_fract_y
_atom_site_fract_z
O1	O	0.293398	1.670944	-0.114310
O2	O	0.321363	1.305761	-0.114305
O3	O	0.003391	1.493536	-0.114309
O4	O	0.611369	1.483169	-0.114306
O5	O	0.003399	1.493534	0.114271
O6	O	0.321371	1.305759	0.114275
O7	O	0.293406	1.670942	0.114270
Zn8	Zn	0.307389	1.488350	0.150564
Zn9	Zn	0.307379	1.488353	-0.150600
O10	O	0.611377	1.483167	0.114274
C11	C	0.319315	1.258940	-0.000015
C12	C	0.313176	1.119432	-0.000013
C13	C	0.310267	1.053907	-0.124619
C14	C	0.304482	0.922825	-0.124630
C15	C	0.304508	0.922804	0.124581
C16	C	0.310308	1.053883	0.124590
C17	C	0.310243	1.053919	-0.268498
C18	C	0.304458	0.922837	-0.268510
C19	C	0.689225	1.485218	-0.000022
C20	C	0.925550	1.491482	-0.000027
C21	C	0.295454	1.717763	-0.000024
C22	C	0.301592	1.857271	-0.000034
N23	N	0.307396	1.488357	0.356101
N24	N	0.307356	1.488355	-0.356136
C25	C	0.166646	1.571526	0.428025
C26	C	0.166620	1.571523	0.571908
C27	C	0.448113	1.405177	0.571930
C28	C	0.448127	1.405176	0.428049
C29	C	0.004134	1.667569	0.428014
C30	C	0.004109	1.667565	0.571897
H31	H	0.312700	1.107226	0.226056
Cl32	Cl	0.076689	0.882103	-0.353786
H33	H	0.161454	1.104066	-0.313134
H34	H	0.055016	1.759292	0.383387
H35	H	0.453242	0.872701	-0.313167
H36	H	0.562718	1.337442	0.369490
H37	H	0.302174	0.869418	0.226029
H38	H	0.562691	1.337452	0.630525
H39	H	-0.156448	1.644425	0.388959
Cl40	Cl	-0.230164	1.617964	0.640791
H41	H	0.457759	1.080301	-0.323740
H42	H	0.039903	1.764456	0.610946
