data_functionalizedCrystal
_audit_creation_method	'MofGen! by Chris Wilmer'
_symmetry_space_group_name_H-M	'P1'
_symmetry_Int_Tables_number	1
_symmetry_cell_setting	triclinic
loop_
_symmetry_equiv_pos_as_xyz
  x,y,z
_cell_length_a	13.032721
_cell_length_b	11.169417
_cell_length_c	11.169409
_cell_angle_alpha	90.019824
_cell_angle_beta	97.146003
_cell_angle_gamma	82.795004
loop_
_atom_site_label
_atom_site_type_symbol
_atom_site_fract_x
_atom_site_fract_y
_atom_site_fract_z
Zn1	Zn	-0.415926	-1.774209	-0.739163
Zn2	Zn	0.084074	-1.274209	-0.239163
Zn3	Zn	-0.590714	-1.748568	-0.563955
Zn4	Zn	-0.090714	-1.248568	-0.063955
Zn5	Zn	-0.415989	-1.573486	-0.538507
Zn6	Zn	0.084011	-1.073486	-0.038507
Zn7	Zn	-0.590629	-1.547984	-0.764588
Zn8	Zn	-0.090629	-1.047984	-0.264588
O9	O	-0.503314	-1.661062	-0.651553
O10	O	-0.003314	-1.161062	-0.151553
O11	O	-0.439121	-1.938756	-0.715931
O12	O	0.060879	-1.438756	-0.215931
O13	O	-0.567598	-1.725284	-0.392639
O14	O	-0.067598	-1.225284	0.107361
O15	O	-0.269744	-1.621516	-0.543834
O16	O	0.230256	-1.121516	-0.043834
O17	O	-0.567537	-1.919918	-0.587207
O18	O	-0.067537	-1.419918	-0.087207
O19	O	-0.269697	-1.768986	-0.691255
O20	O	0.230303	-1.268986	-0.191255
O21	O	-0.439229	-1.596652	-0.373942
O22	O	0.060771	-1.096652	0.126058
O23	O	-0.439147	-1.402155	-0.568487
O24	O	0.060853	-0.902155	-0.068487
O25	O	-0.567392	-1.578052	-0.929156
O26	O	-0.067392	-1.078052	-0.429156
O27	O	-0.567453	-1.383419	-0.734588
O28	O	-0.067453	-0.883419	-0.234588
O29	O	-0.439038	-1.744259	-0.910477
O30	O	0.060962	-1.244259	-0.410477
O31	O	-0.736939	-1.700556	-0.611860
O32	O	-0.236939	-1.200556	-0.111860
O33	O	-0.736877	-1.553189	-0.759264
O34	O	-0.236877	-1.053189	-0.259264
C35	C	-0.503298	-1.349239	-0.651535
C36	C	-0.003298	-0.849239	-0.151535
C37	C	-0.503317	-1.215837	-0.651560
C38	C	-0.003317	-0.715837	-0.151560
C39	C	-0.774825	-1.621355	-0.691108
C40	C	-0.274825	-1.121355	-0.191108
C41	C	-0.890979	-1.604479	-0.708070
C42	C	-0.390979	-1.104479	-0.208070
C43	C	-0.503198	-1.661171	-0.964579
C44	C	-0.003198	-1.161171	-0.464579
C45	C	-0.503149	-1.661217	-1.097972
C46	C	-0.003149	-1.161217	-0.597972
C47	C	-0.942760	-1.669934	-0.642755
C48	C	-0.442760	-1.169934	-0.142755
C49	C	-1.062811	-1.652492	-0.660284
C50	C	-0.562811	-1.152492	-0.160284
C51	C	-0.230743	-1.700956	-0.611870
C52	C	0.269257	-1.200956	-0.111870
C53	C	-0.114589	-1.717956	-0.594959
C54	C	0.385411	-1.217956	-0.094959
C55	C	-0.503331	-1.974102	-0.651572
C56	C	-0.003331	-1.474102	-0.151572
C57	C	-0.503338	-2.107501	-0.651580
C58	C	-0.003338	-1.607501	-0.151580
C59	C	-0.503355	-1.661033	-0.339734
C60	C	-0.003355	-1.161033	0.160266
C61	C	-0.503110	-1.661262	-0.206299
C62	C	-0.003110	-1.161262	0.293701
H63	H	-0.898217	-1.738890	-0.573862
H64	H	-0.398217	-1.238890	-0.073862
C65	C	-1.122980	-1.559334	-0.753366
C66	C	-0.622980	-1.059334	-0.253366
N67	N	-1.168302	-1.489166	-0.823472
N68	N	-0.668302	-0.989166	-0.323472
C69	C	-1.054422	-1.811114	-0.501874
C70	C	-0.554422	-1.311114	-0.001874
N71	N	-1.009103	-1.881278	-0.431762
N72	N	-0.509103	-1.381278	0.068238
C73	C	-0.951152	-1.511325	-0.801148
C74	C	-0.451152	-1.011325	-0.301148
N75	N	-0.996474	-1.441157	-0.871254
N76	N	-0.496474	-0.941157	-0.371254
