data_functionalizedCrystal
_audit_creation_method	'MofGen! by Chris Wilmer'
_symmetry_space_group_name_H-M	'P1'
_symmetry_Int_Tables_number	1
_symmetry_cell_setting	triclinic
loop_
_symmetry_equiv_pos_as_xyz
  x,y,z
_cell_length_a	16.974885
_cell_length_b	19.188930
_cell_length_c	18.266242
_cell_angle_alpha	90.009615
_cell_angle_beta	86.353602
_cell_angle_gamma	83.269424
loop_
_atom_site_label
_atom_site_type_symbol
_atom_site_fract_x
_atom_site_fract_y
_atom_site_fract_z
O1	O	1.048827	0.088963	-0.001195
O2	O	1.548827	0.588963	0.498805
O3	O	0.818584	0.100303	0.012437
O4	O	1.318584	0.600303	0.512437
O5	O	0.940350	-0.007012	0.005213
O6	O	1.440350	0.492988	0.505213
O7	O	0.927061	0.196277	0.006029
O8	O	1.427061	0.696277	0.506029
O9	O	0.940337	-0.007014	-0.116548
O10	O	1.440337	0.492986	0.383452
O11	O	0.818571	0.100300	-0.109324
O12	O	1.318571	0.600300	0.390676
O13	O	1.048814	0.088960	-0.122956
O14	O	1.548814	0.588960	0.377044
Zn15	Zn	0.933690	0.094630	-0.135472
Zn16	Zn	1.433690	0.594630	0.364528
Zn17	Zn	0.933707	0.094633	0.024953
Zn18	Zn	1.433707	0.594633	0.524953
O19	O	0.927048	0.196275	-0.115732
O20	O	1.427048	0.696275	0.384268
C21	C	0.789121	0.099871	-0.046700
C22	C	1.289121	0.599871	0.453300
C23	C	0.701350	0.098580	-0.041504
C24	C	1.201350	0.598580	0.458496
C25	C	0.207297	0.091291	-0.005082
C26	C	0.707297	0.591291	0.494918
C27	C	0.289767	0.092504	-0.009974
C28	C	0.789767	0.592504	0.490026
C29	C	0.330986	0.093114	-0.078793
C30	C	0.830986	0.593114	0.421207
C31	C	0.289732	0.092504	-0.142724
C32	C	0.789732	0.592504	0.357276
C33	C	0.207264	0.091286	-0.137831
C34	C	0.707264	0.591286	0.362169
C35	C	0.577628	0.096752	-0.100543
C36	C	1.077628	0.596752	0.399457
C37	C	0.660101	0.097972	-0.105430
C38	C	1.160101	0.597972	0.394570
C39	C	0.660131	0.097971	0.027320
C40	C	1.160131	0.597971	0.527320
C41	C	0.577661	0.096757	0.032206
C42	C	1.077661	0.596757	0.532206
C43	C	0.536414	0.096143	-0.031725
C44	C	1.036414	0.596143	0.468275
N45	N	0.415283	0.094356	-0.083795
N46	N	0.915283	0.594356	0.416205
N47	N	0.452119	0.094896	-0.026722
N48	N	0.952119	0.594896	0.473278
C49	C	0.939913	-0.033025	-0.055644
C50	C	1.439913	0.466975	0.444356
C51	C	0.938621	-0.110531	-0.055574
C52	C	1.438621	0.389469	0.444426
C53	C	1.010069	-0.155333	-0.059807
C54	C	1.510069	0.344667	0.440193
C55	C	1.008855	-0.228159	-0.059724
C56	C	1.508855	0.271841	0.440276
C57	C	0.936190	-0.256180	-0.055421
C58	C	1.436190	0.243820	0.444579
C59	C	0.864732	-0.211368	-0.051183
C60	C	1.364732	0.288632	0.448817
C61	C	0.865948	-0.138544	-0.051259
C62	C	1.365948	0.361456	0.448741
N63	N	0.880641	-0.364281	-0.093570
N64	N	1.380641	0.135719	0.406430
N65	N	0.879491	-0.433461	-0.093499
N66	N	1.379491	0.066539	0.406501
C67	C	0.932523	-0.475595	-0.055189
C68	C	1.432523	0.024405	0.444811
N69	N	0.986760	-0.445935	-0.016962
N70	N	1.486760	0.054065	0.483038
N71	N	0.987912	-0.376749	-0.017036
N72	N	1.487912	0.123251	0.482964
C73	C	0.934863	-0.335145	-0.055337
C74	C	1.434863	0.164855	0.444663
C75	C	1.002660	-0.599363	-0.059331
C76	C	1.502660	-0.099363	0.440669
C77	C	1.001443	-0.672190	-0.059243
C78	C	1.501443	-0.172190	0.440757
C79	C	0.857318	-0.655398	-0.050709
C80	C	1.357318	-0.155398	0.449291
C81	C	0.858536	-0.582572	-0.050790
C82	C	1.358536	-0.082572	0.449210
C83	C	0.931210	-0.554560	-0.055105
C84	C	1.431210	-0.054560	0.444895
C85	C	1.078277	0.089392	-0.063817
C86	C	1.578277	0.589392	0.436183
C87	C	1.166048	0.090683	-0.069008
C88	C	1.666048	0.590683	0.430992
C89	C	0.927485	0.222288	-0.054874
C90	C	1.427485	0.722288	0.445126
C91	C	0.928777	0.299794	-0.054939
C92	C	1.428777	0.799794	0.445061
N93	N	0.933684	0.094627	-0.244959
N94	N	1.433684	0.594627	0.255041
C95	C	0.987639	0.047125	-0.830437
C96	C	1.487639	0.547125	-0.330437
C97	C	0.987640	0.047126	-0.753792
C98	C	1.487640	0.547126	-0.253792
C99	C	0.933708	0.094627	-0.712273
C100	C	1.433708	0.594627	-0.212273
C101	C	0.879785	0.142142	-0.747406
C102	C	1.379785	0.642142	-0.247406
C103	C	0.879791	0.142143	-0.824049
C104	C	1.379791	0.642143	-0.324049
N105	N	0.863708	0.103555	-0.587801
N106	N	1.363708	0.603555	-0.087801
N107	N	0.863705	0.103549	-0.514993
N108	N	1.363705	0.603549	-0.014993
C109	C	0.933689	0.094625	-0.481349
C110	C	1.433689	0.594625	0.018651
N111	N	1.003678	0.085694	-0.523265
N112	N	1.503678	0.585694	-0.023265
N113	N	1.003680	0.085696	-0.596080
N114	N	1.503680	0.585696	-0.096080
C115	C	0.933696	0.094630	-0.629165
C116	C	1.433696	0.594630	-0.129165
C117	C	0.987613	0.047119	-0.363119
C118	C	1.487613	0.547119	0.136881
C119	C	0.987615	0.047125	-0.286473
C120	C	1.487615	0.547125	0.213527
C121	C	0.879754	0.142137	-0.280087
C122	C	1.379754	0.642137	0.219913
C123	C	0.879759	0.142134	-0.356732
C124	C	1.379759	0.642134	0.143268
C125	C	0.933687	0.094621	-0.398244
C126	C	1.433687	0.594621	0.101756
N127	N	0.933720	0.094630	0.134439
N128	N	1.433720	0.594630	0.634439
H129	H	0.693659	0.098474	-0.161474
H130	H	1.193659	0.598474	0.338526
H131	H	0.835883	0.180829	-0.852647
H132	H	1.335883	0.680829	-0.352647
H133	H	1.067039	-0.264643	-0.063168
H134	H	1.567039	0.235357	0.436832
O135	O	1.078511	-0.720514	-0.063817
O136	O	1.578511	-0.220514	0.436183
H137	H	1.113316	-0.710547	-0.016259
H138	H	1.613316	-0.210547	0.483741
H139	H	1.031553	0.008438	-0.864233
H140	H	1.531553	0.508438	-0.364233
O141	O	0.821612	0.193377	-0.702634
O142	O	1.321612	0.693377	-0.202634
H143	H	0.760011	0.184514	-0.713722
H144	H	1.260011	0.684514	-0.213722
O145	O	0.334255	0.093159	0.058976
O146	O	0.834255	0.593159	0.558976
H147	H	0.364622	0.141274	0.060355
H148	H	0.864622	0.641274	0.560355
O149	O	0.821599	0.193382	-0.394607
O150	O	1.321599	0.693382	0.105393
H151	H	0.783269	0.164026	-0.427277
H152	H	1.283269	0.664026	0.072723
O153	O	1.081041	-0.569146	-0.063974
O154	O	1.581041	-0.069146	0.436026
H155	H	1.069884	-0.510980	-0.063326
H156	H	1.569884	-0.010980	0.436674
O157	O	0.788881	-0.090219	-0.046706
O158	O	1.288881	0.409781	0.453294
H159	H	0.754092	-0.100159	0.004979
H160	H	1.254092	0.399841	0.504979
O161	O	0.334188	0.093169	-0.216950
O162	O	0.834188	0.593169	0.283050
H163	H	0.325576	0.045370	-0.248277
H164	H	0.825576	0.545370	0.251723
O165	O	1.045785	-0.004120	-0.407895
O166	O	1.545785	0.495880	0.092105
H167	H	1.036723	0.003855	-0.467091
H168	H	1.536723	0.503855	0.032909
H169	H	0.835845	0.180816	-0.246283
H170	H	1.335845	0.680816	0.253717
O171	O	1.045771	-0.004118	-0.248583
O172	O	1.545771	0.495882	0.251417
H173	H	1.083263	-0.037159	-0.290328
H174	H	1.583263	0.462841	0.209672
O175	O	0.778939	-0.685608	-0.046072
O176	O	1.278939	-0.185608	0.453928
H177	H	0.790095	-0.743775	-0.046734
H178	H	1.290095	-0.243775	0.453266
H179	H	0.693723	0.098469	0.079369
H180	H	1.193723	0.598469	0.579369
H181	H	1.031549	0.008440	-0.725189
H182	H	1.531549	0.508440	-0.225189
O183	O	1.088448	-0.125117	-0.064440
O184	O	1.588448	0.374883	0.435560
H185	H	1.137927	-0.168510	-0.067359
H186	H	1.637927	0.331490	0.432641
H187	H	0.805567	-0.234188	-0.047678
H188	H	1.305567	0.265812	0.452322
O189	O	0.781475	-0.534243	-0.046242
O190	O	1.281475	-0.034243	0.453758
H191	H	0.730740	-0.565960	-0.043245
H192	H	1.230740	-0.065960	0.456755
H193	H	0.173741	0.090799	0.050957
H194	H	0.673741	0.590799	0.550957
O195	O	0.162606	0.090725	-0.206690
O196	O	0.662606	0.590725	0.293310
H197	H	0.185497	0.043429	-0.240003
H198	H	0.685497	0.543429	0.259997
O199	O	0.533208	0.096056	0.106431
O200	O	1.033208	0.596056	0.606431
H201	H	0.575750	0.096662	0.150063
H202	H	1.075750	0.596662	0.650063
H203	H	0.544056	0.096242	-0.152600
H204	H	1.044056	0.596242	0.347400
