data_functionalizedCrystal
_audit_creation_method	'MofGen! by Chris Wilmer'
_symmetry_space_group_name_H-M	'P1'
_symmetry_Int_Tables_number	1
_symmetry_cell_setting	triclinic
loop_
_symmetry_equiv_pos_as_xyz
  x,y,z
_cell_length_a	10.654550
_cell_length_b	17.699083
_cell_length_c	9.730223
_cell_angle_alpha	89.997786
_cell_angle_beta	89.996251
_cell_angle_gamma	83.883958
loop_
_atom_site_label
_atom_site_type_symbol
_atom_site_fract_x
_atom_site_fract_y
_atom_site_fract_z
O1	O	1.665973	0.106299	-0.114406
O2	O	1.300318	0.116427	-0.114384
O3	O	1.493476	0.001240	-0.114384
O4	O	1.472815	0.221487	-0.114407
O5	O	1.493474	0.001243	0.114196
O6	O	1.300315	0.116430	0.114196
O7	O	1.665971	0.106302	0.114174
Zn8	Zn	1.483143	0.111366	0.150477
Zn9	Zn	1.483146	0.111363	-0.150687
O10	O	1.472813	0.221490	0.114173
C11	C	1.253531	0.115685	-0.000091
C12	C	1.114127	0.113460	-0.000083
C13	C	1.033454	0.181281	-0.000110
C14	C	0.902470	0.179185	-0.000133
C15	C	0.932845	0.041443	-0.000108
C16	C	1.063826	0.043539	-0.000075
C17	C	1.015917	0.260805	-0.000130
C18	C	0.884933	0.258710	-0.000154
C19	C	1.492735	-0.026961	-0.000093
C20	C	1.490514	-0.110993	-0.000093
C21	C	1.603894	-0.158893	-0.000097
C22	C	1.601799	-0.237850	-0.000109
C23	C	1.486324	-0.268905	-0.000107
C24	C	1.372935	-0.220998	-0.000106
C25	C	1.375031	-0.142043	-0.000104
C26	C	1.364481	-0.539415	-0.000117
C27	C	1.362394	-0.618376	-0.000115
C28	C	1.591249	-0.635222	-0.000122
C29	C	1.593345	-0.556266	-0.000120
C30	C	1.479957	-0.508367	-0.000127
C31	C	1.482229	-0.422753	-0.000116
C32	C	1.484050	-0.354517	-0.000107
C33	C	1.712757	0.107044	-0.000122
C34	C	1.852161	0.109269	-0.000140
C35	C	1.473554	0.249690	-0.000120
C36	C	1.475775	0.333722	-0.000130
N37	N	1.483150	0.111369	0.356013
N38	N	1.483149	0.111355	-0.356223
C39	C	1.568702	0.060381	0.427940
C40	C	1.568699	0.060372	0.571823
C41	C	1.397587	0.162345	0.571840
C42	C	1.397585	0.162349	0.427960
C43	C	1.667496	0.001510	0.427931
C44	C	1.667493	0.001501	0.571814
H45	H	0.891873	-0.015484	-0.000123
H46	H	0.838840	0.282744	0.098528
C47	C	1.054812	0.302821	0.129105
N48	N	1.084108	0.334465	0.226445
H49	H	1.327911	0.203861	0.369399
C50	C	1.235355	-0.652534	-0.000123
N51	N	1.139675	-0.678262	-0.000131
C52	C	1.730928	-0.124741	-0.000100
N53	N	1.826614	-0.099020	-0.000108
H54	H	1.683575	-0.674231	-0.000124
C55	C	1.790247	0.026408	0.367625
N56	N	1.882705	0.045161	0.322203
C57	C	1.303470	0.218419	0.650995
N58	N	1.232578	0.260656	0.710613
C59	C	1.726527	-0.290537	-0.000092
N60	N	1.820477	-0.330221	-0.000073
H61	H	1.051130	0.286125	-0.098820
C62	C	1.797534	0.019077	0.624566
N63	N	1.895466	0.032338	0.664298
C64	C	0.827842	0.299180	-0.129404
N65	N	0.784843	0.329659	-0.226754
C66	C	1.639895	-0.077076	0.375174
N67	N	1.619102	-0.136265	0.335438
C68	C	1.245910	-0.255161	-0.000092
N69	N	1.150232	-0.280892	-0.000071
C70	C	1.720377	-0.522111	-0.000123
N71	N	1.816060	-0.496386	-0.000131
H72	H	1.637942	-0.053472	0.616437
H73	H	1.129507	-0.011687	-0.000033
C74	C	1.239750	-0.486736	-0.000132
N75	N	1.145797	-0.447055	-0.000147
H76	H	1.282705	-0.103043	-0.000100
