data_functionalizedCrystal
_audit_creation_method	'MofGen! by Chris Wilmer'
_symmetry_space_group_name_H-M	'P1'
_symmetry_Int_Tables_number	1
_symmetry_cell_setting	triclinic
loop_
_symmetry_equiv_pos_as_xyz
  x,y,z
_cell_length_a	25.639243
_cell_length_b	25.639240
_cell_length_c	12.594509
_cell_angle_alpha	90.041310
_cell_angle_beta	90.023577
_cell_angle_gamma	90.035481
loop_
_atom_site_label
_atom_site_type_symbol
_atom_site_fract_x
_atom_site_fract_y
_atom_site_fract_z
Zn1	Zn	0.799286	-0.208097	0.601827
Zn2	Zn	1.132619	0.125236	0.935161
Zn3	Zn	1.465953	0.458570	1.268494
Zn4	Zn	0.799207	-0.295539	0.423808
Zn5	Zn	1.132540	0.037794	0.757141
Zn6	Zn	1.465873	0.371127	1.090475
Zn7	Zn	0.711851	-0.208124	0.423849
Zn8	Zn	1.045184	0.125209	0.757182
Zn9	Zn	1.378517	0.458543	1.090516
Zn10	Zn	0.711816	-0.295507	0.601731
Zn11	Zn	1.045150	0.037826	0.935064
Zn12	Zn	1.378483	0.371159	1.268398
O13	O	0.755540	-0.251817	0.512804
O14	O	1.088873	0.081516	0.846137
O15	O	1.422207	0.414850	1.179471
O16	O	0.872441	-0.219699	0.578236
O17	O	1.205774	0.113635	0.911569
O18	O	1.539107	0.446968	1.244902
O19	O	0.787600	-0.283968	0.274868
O20	O	1.120933	0.049365	0.608201
O21	O	1.454267	0.382699	0.941534
O22	O	0.723497	-0.134955	0.447516
O23	O	1.056830	0.198378	0.780849
O24	O	1.390163	0.531712	1.114182
O25	O	0.872383	-0.283942	0.447446
O26	O	1.205716	0.049391	0.780779
O27	O	1.539049	0.382725	1.114112
O28	O	0.787735	-0.134935	0.578275
O29	O	1.121068	0.198398	0.911609
O30	O	1.454402	0.531731	1.244942
O31	O	0.723420	-0.219744	0.274898
O32	O	1.056753	0.113589	0.608231
O33	O	1.390086	0.446922	0.941564
O34	O	0.638681	-0.219713	0.447422
O35	O	0.972014	0.113620	0.780756
O36	O	1.305348	0.446953	1.114089
O37	O	0.723438	-0.283888	0.750690
O38	O	1.056772	0.049446	1.084023
O39	O	1.390105	0.382779	1.417356
O40	O	0.638656	-0.283914	0.578112
O41	O	0.971989	0.049420	0.911445
O42	O	1.305322	0.382753	1.244778
O43	O	0.787702	-0.219668	0.750760
O44	O	1.121035	0.113666	1.084094
O45	O	1.454368	0.446999	1.417427
O46	O	0.787567	-0.368700	0.447352
O47	O	1.120900	-0.035367	0.780686
O48	O	1.454234	0.297966	1.114019
O49	O	0.723361	-0.368677	0.578072
O50	O	1.056695	-0.035344	0.911405
O51	O	1.390028	0.297990	1.244738
C52	C	0.619697	-0.251813	0.512762
C53	C	0.953031	0.081520	0.846095
C54	C	1.286364	0.414853	1.179428
C55	C	0.561583	-0.251824	0.512769
C56	C	0.894917	0.081509	0.846102
C57	C	1.228250	0.414842	1.179435
C58	C	0.201245	-0.218418	0.581020
C59	C	0.534578	0.114915	0.914353
C60	C	0.867912	0.448249	1.247686
C61	C	0.146641	-0.218417	0.581026
C62	C	0.479974	0.114916	0.914360
C63	C	0.813307	0.448249	1.247693
O64	O	0.118425	-0.190004	0.639003
O65	O	0.451758	0.143329	0.972336
O66	O	0.785092	0.476662	1.305670
N67	N	0.119301	-0.251815	0.512833
N68	N	0.452634	0.081518	0.846166
N69	N	0.785968	0.414851	1.179500
C70	C	0.146568	-0.285212	0.444621
C71	C	0.479902	0.048121	0.777955
C72	C	0.813235	0.381454	1.111288
O73	O	0.118300	-0.313619	0.386618
O74	O	0.451633	0.019714	0.719951
O75	O	0.784966	0.353047	1.053284
C76	C	0.201172	-0.285210	0.444610
C77	C	0.534505	0.048124	0.777943
C78	C	0.867838	0.381457	1.111277
C79	C	0.228509	-0.251813	0.512815
C80	C	0.561842	0.081520	0.846149
C81	C	0.895175	0.414853	1.179482
C82	C	0.228582	-0.185024	0.649219
C83	C	0.561915	0.148310	0.982552
C84	C	0.895249	0.481643	1.315885
C85	C	0.283183	-0.185025	0.649213
C86	C	0.616516	0.148308	0.982546
C87	C	0.949849	0.481642	1.315880
C88	C	0.310446	-0.218420	0.581009
C89	C	0.643779	0.114913	0.914342
C90	C	0.977113	0.448246	1.247675
C91	C	0.283109	-0.251814	0.512810
C92	C	0.616442	0.081519	0.846143
C93	C	0.949776	0.414852	1.179477
C94	C	0.228438	-0.318603	0.376394
C95	C	0.561771	0.014730	0.709727
C96	C	0.895105	0.348063	1.043060
C97	C	0.283045	-0.318598	0.376388
C98	C	0.616378	0.014736	0.709721
C99	C	0.949712	0.348069	1.043054
C100	C	0.310382	-0.285201	0.444593
C101	C	0.643715	0.048132	0.777926
C102	C	0.977049	0.381465	1.111260
C103	C	0.364973	-0.285211	0.444600
C104	C	0.698306	0.048122	0.777933
C105	C	1.031640	0.381456	1.111267
N106	N	0.392313	-0.251813	0.512793
N107	N	0.725646	0.081520	0.846127
N108	N	1.058980	0.414854	1.179460
C109	C	0.365049	-0.218418	0.580998
C110	C	0.698383	0.114916	0.914331
C111	C	1.031716	0.448249	1.247664
C112	C	0.031898	-0.285214	0.444649
C113	C	0.365231	0.048119	0.777982
C114	C	0.698564	0.381452	1.111315
C115	C	-0.022705	-0.285220	0.444664
C116	C	0.310629	0.048113	0.777998
C117	C	0.643962	0.381447	1.111331
C118	C	-0.022629	-0.218424	0.581068
C119	C	0.310705	0.114909	0.914402
C120	C	0.644038	0.448242	1.247735
C121	C	0.031975	-0.218422	0.581057
C122	C	0.365308	0.114911	0.914390
C123	C	0.698641	0.448245	1.247724
C124	C	0.059237	-0.251816	0.512842
C125	C	0.392571	0.081517	0.846175
C126	C	0.725904	0.414850	1.179508
C127	C	0.479714	-0.218423	0.580982
C128	C	0.813048	0.114910	0.914315
C129	C	1.146381	0.448243	1.247648
C130	C	0.534320	-0.218429	0.580973
C131	C	0.867653	0.114904	0.914306
C132	C	1.200986	0.448238	1.247640
C133	C	0.534239	-0.285222	0.444566
C134	C	0.867572	0.048111	0.777899
C135	C	1.200906	0.381444	1.111232
C136	C	0.479638	-0.285219	0.444578
C137	C	0.812972	0.048114	0.777911
C138	C	1.146305	0.381448	1.111244
C139	C	0.452377	-0.251815	0.512789
C140	C	0.785711	0.081518	0.846122
C141	C	1.119044	0.414852	1.179456
O142	O	0.393224	-0.313608	0.386650
O143	O	0.726557	0.019725	0.719983
O144	O	1.059890	0.353058	1.053316
O145	O	0.393325	-0.190011	0.638982
O146	O	0.726658	0.143323	0.972315
O147	O	1.059991	0.476656	1.305648
C148	C	0.755466	-0.387659	0.512720
C149	C	1.088799	-0.054326	0.846054
C150	C	1.422133	0.279007	1.179387
C151	C	0.755482	-0.445774	0.512720
C152	C	1.088816	-0.112440	0.846054
C153	C	1.422149	0.220893	1.179387
C154	C	0.789005	-0.806088	0.581013
C155	C	1.122339	-0.472754	0.914347
C156	C	1.455672	-0.139421	1.247680
C157	C	0.789021	-0.860692	0.581035
C158	C	1.122354	-0.527359	0.914368
C159	C	1.455688	-0.194025	1.247702
O160	O	0.817436	-0.888887	0.639014
O161	O	1.150769	-0.555554	0.972348
O162	O	1.484102	-0.222221	1.305681
N163	N	0.755613	-0.888056	0.512907
N164	N	1.088946	-0.554723	0.846240
N165	N	1.422279	-0.221389	1.179573
C166	C	0.722183	-0.860813	0.444760
C167	C	1.055516	-0.527479	0.778093
C168	C	1.388849	-0.194146	1.111427
O169	O	0.693767	-0.889102	0.386814
O170	O	1.027101	-0.555768	0.720148
O171	O	1.360434	-0.222435	1.053481
C172	C	0.722165	-0.806209	0.444745
C173	C	1.055498	-0.472876	0.778078
C174	C	1.388832	-0.139543	1.111411
C175	C	0.755579	-0.778848	0.512870
C176	C	1.088913	-0.445515	0.846203
C177	C	1.422246	-0.112182	1.179536
C178	C	0.822417	-0.778727	0.649134
C179	C	1.155750	-0.445393	0.982467
C180	C	1.489083	-0.112060	1.315800
C181	C	0.822402	-0.724126	0.649110
C182	C	1.155735	-0.390793	0.982444
C183	C	1.489068	-0.057460	1.315777
C184	C	0.788976	-0.696887	0.580967
C185	C	1.122309	-0.363553	0.914300
C186	C	1.455642	-0.030220	1.247633
C187	C	0.755565	-0.724248	0.512846
C188	C	1.088898	-0.390914	0.846180
C189	C	1.422231	-0.057581	1.179513
C190	C	0.688733	-0.778967	0.376604
C191	C	1.022066	-0.445634	0.709937
C192	C	1.355400	-0.112300	1.043271
C193	C	0.688718	-0.724360	0.376595
C194	C	1.022051	-0.391027	0.709928
C195	C	1.355385	-0.057693	1.043262
C196	C	0.722132	-0.696999	0.444720
C197	C	1.055466	-0.363666	0.778053
C198	C	1.388799	-0.030332	1.111387
C199	C	0.722124	-0.642408	0.444679
C200	C	1.055457	-0.309074	0.778013
C201	C	1.388790	0.024259	1.111346
N202	N	0.755532	-0.615044	0.512808
N203	N	1.088865	-0.281711	0.846141
N204	N	1.422199	0.051623	1.179474
C205	C	0.788958	-0.642283	0.580951
C206	C	1.122291	-0.308950	0.914285
C207	C	1.455625	0.024383	1.247618
C208	C	0.722222	-0.975483	0.444799
C209	C	1.055555	-0.642150	0.778132
C210	C	1.388888	-0.308817	1.111466
C211	C	0.722242	-1.030086	0.444808
C212	C	1.055575	-0.696752	0.778142
C213	C	1.388908	-0.363419	1.111475
C214	C	0.789079	-1.029961	0.581085
C215	C	1.122413	-0.696628	0.914418
C216	C	1.455746	-0.363295	1.247752
C217	C	0.789062	-0.975358	0.581069
C218	C	1.122395	-0.642025	0.914403
C219	C	1.455728	-0.308691	1.247736
C220	C	0.755630	-0.948119	0.512927
C221	C	1.088963	-0.614786	0.846261
C222	C	1.422297	-0.281453	1.179594
C223	C	0.788925	-0.527618	0.580897
C224	C	1.122258	-0.194285	0.914230
C225	C	1.455591	0.139048	1.247563
C226	C	0.788908	-0.473013	0.580864
C227	C	1.122242	-0.139680	0.914197
C228	C	1.455575	0.193654	1.247531
C229	C	0.722069	-0.473142	0.444592
C230	C	1.055402	-0.139809	0.777925
C231	C	1.388736	0.193525	1.111259
C232	C	0.722087	-0.527743	0.444620
C233	C	1.055420	-0.194409	0.777953
C234	C	1.388754	0.138924	1.111287
C235	C	0.755517	-0.554979	0.512781
C236	C	1.088850	-0.221646	0.846114
C237	C	1.422183	0.111687	1.179448
O238	O	0.693722	-0.614178	0.386733
O239	O	1.027055	-0.280844	0.720066
O240	O	1.360389	0.052489	1.053399
O241	O	0.817364	-0.613988	0.638897
O242	O	1.150697	-0.280654	0.972230
O243	O	1.484030	0.052679	1.305564
C244	C	0.891913	-0.251821	0.512847
C245	C	1.225246	0.081513	0.846180
C246	C	1.558580	0.414846	1.179514
C247	C	0.950027	-0.251823	0.512865
C248	C	1.283360	0.081511	0.846199
C249	C	1.616694	0.414844	1.179532
C250	C	0.755575	-0.251771	0.790425
C251	C	1.088908	0.081562	1.123758
C252	C	1.422242	0.414896	1.457092
C253	C	0.755590	-0.251752	0.908730
C254	C	1.088923	0.081582	1.242064
C255	C	1.422257	0.414915	1.575397
C256	C	0.755628	-0.115444	0.512911
C257	C	1.088962	0.217889	0.846244
C258	C	1.422295	0.551223	1.179578
C259	C	0.755666	-0.057330	0.512956
C260	C	1.088999	0.276004	0.846290
C261	C	1.422333	0.609337	1.179623
C262	C	0.755535	-0.251825	0.236263
C263	C	1.088868	0.081509	0.569596
C264	C	1.422202	0.414842	0.902930
C265	C	0.755622	-0.251697	0.117958
C266	C	1.088955	0.081636	0.451291
C267	C	1.422288	0.414970	0.784625
C268	C	0.720648	-0.286661	0.977945
C269	C	1.053981	0.046672	1.311279
C270	C	1.387315	0.380006	1.644612
C271	C	0.768352	-0.299433	1.048734
C272	C	1.101685	0.033900	1.382067
C273	C	1.435019	0.367233	1.715400
C274	C	0.707923	-0.238948	1.048741
C275	C	1.041257	0.094386	1.382075
C276	C	1.374590	0.427719	1.715408
C277	C	0.803319	-0.264549	0.977961
C278	C	1.136652	0.068784	1.311294
C279	C	1.469985	0.402118	1.644627
C280	C	0.742858	-0.204041	0.977962
C281	C	1.076191	0.129292	1.311295
C282	C	1.409525	0.462626	1.644629
C283	C	0.790595	-0.216795	1.048718
C284	C	1.123928	0.116538	1.382052
C285	C	1.457261	0.449871	1.715385
H286	H	0.556447	-0.312413	0.389038
H287	H	0.889780	0.020920	0.722371
H288	H	1.223113	0.354253	1.055704
H289	H	0.667599	-0.228141	1.079833
H290	H	1.000932	0.105193	1.413167
H291	H	1.334266	0.438526	1.746500
H292	H	0.843655	-0.275402	0.947000
H293	H	1.176988	0.057932	1.280333
H294	H	1.510321	0.391265	1.613666
H295	H	0.206390	-0.157826	0.704759
H296	H	0.539723	0.175507	1.038092
H297	H	0.873056	0.508840	1.371426
H298	H	0.054229	-0.191226	0.636594
H299	H	0.387562	0.142107	0.969927
H300	H	0.720896	0.475440	1.303260
H301	H	0.556575	-0.191233	0.636518
H302	H	0.889908	0.142100	0.969851
H303	H	1.223242	0.475434	1.303184
Br304	Br	0.724858	-0.136849	0.926106
Br305	Br	1.058192	0.196485	1.259439
Br306	Br	1.391525	0.529818	1.592772
H307	H	0.849609	-0.701852	0.704587
H308	H	1.182942	-0.368519	1.037920
H309	H	1.516276	-0.035185	1.371253
Br310	Br	0.442726	-0.173089	0.673554
Br311	Br	0.776059	0.160245	1.006887
Br312	Br	1.109393	0.493578	1.340221
Br313	Br	0.676708	-0.436164	0.352114
Br314	Br	1.010041	-0.102830	0.685447
Br315	Br	1.343375	0.230503	1.018781
Br316	Br	0.867784	-0.815684	0.741633
Br317	Br	1.201117	-0.482351	1.074966
Br318	Br	1.534451	-0.149018	1.408300
Br319	Br	0.786332	-0.366643	1.100548
Br320	Br	1.119665	-0.033309	1.433881
Br321	Br	1.452998	0.300024	1.767214
H322	H	0.816120	-0.450737	0.636339
H323	H	1.149453	-0.117404	0.969673
H324	H	1.482787	0.215929	1.303006
H325	H	0.305239	-0.345791	0.320836
H326	H	0.638573	-0.012458	0.654169
H327	H	0.971906	0.320875	0.987502
Br328	Br	0.839922	-0.167551	1.100193
Br329	Br	1.173255	0.165782	1.433526
Br330	Br	1.506589	0.499116	1.766859
Br331	Br	0.671435	-0.335939	0.926149
Br332	Br	1.004768	-0.002606	1.259482
Br333	Br	1.338101	0.330728	1.592815
Br334	Br	-0.059640	-0.173100	0.673630
Br335	Br	0.273694	0.160233	1.006963
Br336	Br	0.607027	0.493566	1.340297
H337	H	0.054091	-0.312413	0.389102
H338	H	0.387425	0.020920	0.722436
H339	H	0.720758	0.354254	1.055769
H340	H	0.305435	-0.157829	0.704751
H341	H	0.638769	0.175504	1.038085
H342	H	0.972102	0.508837	1.371418
H343	H	-0.044958	-0.312421	0.389137
H344	H	0.288375	0.020913	0.722470
H345	H	0.621709	0.354246	1.055803
Br346	Br	0.834411	-0.938231	0.673528
Br347	Br	1.167744	-0.604898	1.006861
Br348	Br	1.501078	-0.271564	1.340194
Br349	Br	0.191352	-0.363920	0.283802
Br350	Br	0.524685	-0.030586	0.617135
Br351	Br	0.858018	0.302747	0.950469
H352	H	0.816143	-0.549788	0.636407
H353	H	1.149476	-0.216455	0.969740
H354	H	1.482809	0.116879	1.303074
Br355	Br	0.442537	-0.330560	0.352049
Br356	Br	0.775870	0.002773	0.685382
Br357	Br	1.109203	0.336106	1.018716
Br358	Br	0.676747	-0.564877	0.352147
Br359	Br	1.010080	-0.231543	0.685481
Br360	Br	1.343414	0.101790	1.018814
H361	H	0.816296	-1.052150	0.636573
H362	H	1.149629	-0.718816	0.969907
H363	H	1.482962	-0.385483	1.303240
H364	H	0.695038	-1.052358	0.389323
H365	H	1.028371	-0.719025	0.722656
H366	H	1.361705	-0.385692	1.055989
H367	H	0.661524	-0.801235	0.321129
H368	H	0.994857	-0.467902	0.654462
H369	H	1.328190	-0.134568	0.987796
Br370	Br	0.643343	-0.687397	0.284113
Br371	Br	0.976676	-0.354063	0.617446
Br372	Br	1.310010	-0.020730	0.950780
Br373	Br	0.676849	-0.938522	0.352306
Br374	Br	1.010182	-0.605189	0.685639
Br375	Br	1.343515	-0.271855	1.018973
