data_functionalizedCrystal
_audit_creation_method	'MofGen! by Chris Wilmer'
_symmetry_space_group_name_H-M	'P1'
_symmetry_Int_Tables_number	1
_symmetry_cell_setting	triclinic
loop_
_symmetry_equiv_pos_as_xyz
  x,y,z
_cell_length_a	18.215407
_cell_length_b	10.685194
_cell_length_c	18.215399
_cell_angle_alpha	94.396576
_cell_angle_beta	90.019833
_cell_angle_gamma	94.377432
loop_
_atom_site_label
_atom_site_type_symbol
_atom_site_fract_x
_atom_site_fract_y
_atom_site_fract_z
Zn1	Zn	1.102699	-0.502407	0.393658
Zn2	Zn	1.352699	-0.252407	0.643658
Zn3	Zn	1.602699	-0.002407	0.893658
Zn4	Zn	1.852699	0.247593	1.143658
Zn5	Zn	1.093210	-0.713450	0.261159
Zn6	Zn	1.343210	-0.463450	0.511159
Zn7	Zn	1.593210	-0.213450	0.761159
Zn8	Zn	1.843210	0.036550	1.011159
Zn9	Zn	0.979630	-0.502448	0.270604
Zn10	Zn	1.229630	-0.252448	0.520604
Zn11	Zn	1.479630	-0.002448	0.770604
Zn12	Zn	1.729630	0.247552	1.020604
Zn13	Zn	0.970203	-0.713379	0.384187
Zn14	Zn	1.220203	-0.463379	0.634187
Zn15	Zn	1.470203	-0.213379	0.884187
Zn16	Zn	1.720203	0.036621	1.134187
O17	O	1.036436	-0.607921	0.327402
O18	O	1.286436	-0.357921	0.577402
O19	O	1.536436	-0.107921	0.827402
O20	O	1.786436	0.142079	1.077402
O21	O	1.204424	-0.530414	0.376093
O22	O	1.454424	-0.280414	0.626093
O23	O	1.704424	-0.030414	0.876093
O24	O	1.954424	0.219586	1.126093
O25	O	1.078117	-0.685507	0.159425
O26	O	1.328117	-0.435507	0.409425
O27	O	1.578117	-0.185507	0.659425
O28	O	1.828117	0.064493	0.909425
O29	O	1.003872	-0.325846	0.294844
O30	O	1.253872	-0.075846	0.544844
O31	O	1.503872	0.174154	0.794844
O32	O	1.753872	0.424154	1.044844
O33	O	1.197452	-0.685467	0.278746
O34	O	1.447452	-0.435467	0.528746
O35	O	1.697452	-0.185467	0.778746
O36	O	1.947452	0.064533	1.028746
O37	O	1.094291	-0.325815	0.385252
O38	O	1.344291	-0.075815	0.635252
O39	O	1.594291	0.174185	0.885252
O40	O	1.844291	0.424185	1.135252
O41	O	0.994671	-0.530485	0.166365
O42	O	1.244671	-0.280485	0.416365
O43	O	1.494671	-0.030485	0.666365
O44	O	1.744671	0.219515	0.916365
O45	O	0.875396	-0.530417	0.285660
O46	O	1.125396	-0.280417	0.535660
O47	O	1.375396	-0.030417	0.785660
O48	O	1.625396	0.219583	1.035660
O49	O	0.987805	-0.685347	0.488430
O50	O	1.237805	-0.435347	0.738430
O51	O	1.487805	-0.185347	0.988430
O52	O	1.737805	0.064653	1.238430
O53	O	0.868470	-0.685387	0.369109
O54	O	1.118470	-0.435387	0.619109
O55	O	1.368470	-0.185387	0.869109
O56	O	1.618470	0.064613	1.119109
O57	O	1.085150	-0.530346	0.495388
O58	O	1.335150	-0.280346	0.745388
O59	O	1.585150	-0.030346	0.995388
O60	O	1.835150	0.219654	1.245388
O61	O	1.068976	-0.890038	0.269562
O62	O	1.318976	-0.640038	0.519562
O63	O	1.568976	-0.390038	0.769562
O64	O	1.818976	-0.140038	1.019562
O65	O	0.978604	-0.889986	0.359950
O66	O	1.228604	-0.639986	0.609950
O67	O	1.478604	-0.389986	0.859950
O68	O	1.728604	-0.139986	1.109950
C69	C	0.845230	-0.607900	0.327382
C70	C	1.095230	-0.357900	0.577382
C71	C	1.345230	-0.107900	0.827382
C72	C	1.595230	0.142100	1.077382
C73	C	0.763430	-0.607921	0.327389
C74	C	1.013430	-0.357921	0.577389
C75	C	1.263430	-0.107921	0.827389
C76	C	1.513430	0.142079	1.077389
C77	C	0.571644	-0.688740	0.370776
C78	C	0.821644	-0.438740	0.620776
C79	C	1.071644	-0.188740	0.870776
C80	C	1.321644	0.061260	1.120776
C81	C	0.494785	-0.688744	0.370785
C82	C	0.744785	-0.438744	0.620785
C83	C	0.994785	-0.188744	0.870785
C84	C	1.244785	0.061256	1.120785
C85	C	0.501978	-0.527125	0.284043
C86	C	0.751978	-0.277125	0.534043
C87	C	1.001978	-0.027125	0.784043
C88	C	1.251978	0.222875	1.034043
C89	C	0.578836	-0.527115	0.284038
C90	C	0.828836	-0.277115	0.534038
C91	C	1.078836	-0.027115	0.784038
C92	C	1.328836	0.222885	1.034038
C93	C	0.613667	-0.607930	0.327404
C94	C	0.863667	-0.357930	0.577404
C95	C	1.113667	-0.107930	0.827404
C96	C	1.363667	0.142070	1.077404
C97	C	0.459950	-0.607944	0.327417
C98	C	0.709950	-0.357944	0.577417
C99	C	0.959950	-0.107944	0.827417
C100	C	1.209950	0.142056	1.077417
C101	C	0.376616	-0.607947	0.327427
C102	C	0.626616	-0.357947	0.577427
C103	C	0.876616	-0.107947	0.827427
C104	C	1.126616	0.142053	1.077427
C105	C	0.697006	-0.607925	0.327395
C106	C	0.947006	-0.357925	0.577395
C107	C	1.197006	-0.107925	0.827395
C108	C	1.447006	0.142075	1.077395
C109	C	1.021757	-0.935802	0.312719
C110	C	1.271757	-0.685802	0.562719
C111	C	1.521757	-0.435802	0.812719
C112	C	1.771757	-0.185802	1.062719
C113	C	1.015545	-1.076070	0.306462
C114	C	1.265545	-0.826070	0.556462
C115	C	1.515545	-0.576070	0.806462
C116	C	1.765545	-0.326070	1.056462
C117	C	1.228387	-0.607944	0.327423
C118	C	1.478387	-0.357944	0.577423
C119	C	1.728387	-0.107944	0.827423
C120	C	1.978387	0.142056	1.077423
C121	C	1.310186	-0.607953	0.327431
C122	C	1.560186	-0.357953	0.577431
C123	C	1.810186	-0.107953	0.827431
C124	C	2.060186	0.142047	1.077431
C125	C	1.036484	-0.607834	0.519359
C126	C	1.286484	-0.357834	0.769359
C127	C	1.536484	-0.107834	1.019359
C128	C	1.786484	0.142166	1.269359
C129	C	1.036505	-0.607797	0.601159
C130	C	1.286505	-0.357797	0.851159
C131	C	1.536505	-0.107797	1.101159
C132	C	1.786505	0.142203	1.351159
C133	C	1.051191	-0.278760	0.342158
C134	C	1.301191	-0.028760	0.592158
C135	C	1.551191	0.221240	0.842158
C136	C	1.801191	0.471240	1.092158
C137	C	1.057480	-0.138492	0.348447
C138	C	1.307480	0.111508	0.598447
C139	C	1.557480	0.361508	0.848447
C140	C	1.807480	0.611508	1.098447
C141	C	1.036433	-0.607917	0.136196
C142	C	1.286433	-0.357917	0.386196
C143	C	1.536433	-0.107917	0.636196
C144	C	1.786433	0.142083	0.886196
C145	C	1.036571	-0.607598	0.054412
C146	C	1.286571	-0.357598	0.304412
C147	C	1.536571	-0.107598	0.554412
C148	C	1.786571	0.142402	0.804412
C149	C	1.087213	-0.527013	0.792982
C150	C	1.337213	-0.277013	1.042982
C151	C	1.587213	-0.027013	1.292982
C152	C	1.837213	0.222987	1.542982
C153	C	1.087223	-0.526976	0.869842
C154	C	1.337223	-0.276976	1.119842
C155	C	1.587223	-0.026976	1.369842
C156	C	1.837223	0.223024	1.619842
C157	C	0.985858	-0.688386	0.862584
C158	C	1.235858	-0.438386	1.112584
C159	C	1.485858	-0.188386	1.362584
C160	C	1.735858	0.061614	1.612584
C161	C	0.985845	-0.688416	0.785725
C162	C	1.235845	-0.438416	1.035725
C163	C	1.485845	-0.188416	1.285725
C164	C	1.735845	0.061584	1.535725
C165	C	1.036526	-0.607731	0.750926
C166	C	1.286526	-0.357731	1.000926
C167	C	1.536526	-0.107731	1.250926
C168	C	1.786526	0.142269	1.500926
C169	C	1.036550	-0.607665	0.904645
C170	C	1.286550	-0.357665	1.154645
C171	C	1.536550	-0.107665	1.404645
C172	C	1.786550	0.142335	1.654645
C173	C	1.036561	-0.607625	0.987981
C174	C	1.286561	-0.357625	1.237981
C175	C	1.536561	-0.107625	1.487981
C176	C	1.786561	0.142375	1.737981
C177	C	1.036515	-0.607768	0.667585
C178	C	1.286515	-0.357768	0.917585
C179	C	1.536515	-0.107768	1.167585
C180	C	1.786515	0.142232	1.417585
H181	H	0.460573	-0.754546	0.406105
H182	H	0.710573	-0.504546	0.656105
H183	H	0.960573	-0.254546	0.906105
H184	H	1.210573	-0.004546	1.156105
H185	H	0.473610	-0.461330	0.248735
H186	H	0.723610	-0.211330	0.498735
H187	H	0.973610	0.038670	0.748735
H188	H	1.223610	0.288670	0.998735
H189	H	1.128479	-0.461311	0.764651
H190	H	1.378479	-0.211311	1.014651
H191	H	1.628479	0.038689	1.264651
H192	H	1.878479	0.288689	1.514651
F193	F	0.623563	-0.441095	0.237877
F194	F	0.873563	-0.191095	0.487877
F195	F	1.123563	0.058905	0.737877
F196	F	1.373563	0.308905	0.987877
F197	F	0.962394	-1.146483	0.253223
F198	F	1.212394	-0.896483	0.503223
F199	F	1.462394	-0.646483	0.753223
F200	F	1.712394	-0.396483	1.003223
F201	F	0.931925	-0.774256	0.899626
F202	F	1.181925	-0.524256	1.149626
F203	F	1.431925	-0.274256	1.399626
F204	F	1.681925	-0.024256	1.649626
F205	F	0.931891	-0.774325	0.740964
F206	F	1.181891	-0.524325	0.990964
F207	F	1.431891	-0.274325	1.240964
F208	F	1.681891	-0.024325	1.490964
F209	F	1.141175	-0.441073	0.914597
F210	F	1.391175	-0.191073	1.164597
F211	F	1.641175	0.058927	1.414597
F212	F	1.891175	0.308927	1.664597
F213	F	1.110620	-1.068085	0.401691
F214	F	1.360620	-0.818085	0.651691
F215	F	1.610620	-0.568085	0.901691
F216	F	1.860620	-0.318085	1.151691
H217	H	0.600000	-0.754542	0.406089
H218	H	0.850000	-0.504542	0.656089
H219	H	1.100000	-0.254542	0.906089
H220	H	1.350000	-0.004542	1.156089
