data_functionalizedCrystal
_audit_creation_method	'MofGen! by Chris Wilmer'
_symmetry_space_group_name_H-M	'P1'
_symmetry_Int_Tables_number	1
_symmetry_cell_setting	triclinic
loop_
_symmetry_equiv_pos_as_xyz
  x,y,z
_cell_length_a	6.817900
_cell_length_b	10.992421
_cell_length_c	16.255661
_cell_angle_alpha	93.806276
_cell_angle_beta	103.488922
_cell_angle_gamma	108.764763
loop_
_atom_site_label
_atom_site_type_symbol
_atom_site_fract_x
_atom_site_fract_y
_atom_site_fract_z
V1	V	-4.053775	-0.178799	-0.263859
O2	O	-4.013052	0.007524	-0.258849
O3	O	-4.031770	-0.353500	-0.262043
O4	O	-4.004992	-0.176517	-0.378943
O5	O	-4.040015	-0.170685	-0.141140
V6	V	-4.534033	-0.156457	-0.249182
O7	O	-4.322197	-0.227807	-0.296054
O8	O	-4.715808	-0.107448	-0.216988
O9	O	-4.332831	0.018245	-0.250999
O10	O	-4.692153	-0.342779	-0.254193
O11	O	-4.665190	-0.164571	-0.371902
O12	O	-4.359610	-0.158738	-0.134099
C13	C	-3.883205	-0.396074	-0.257877
C14	C	-3.946497	-0.538898	-0.257160
C15	C	-3.815488	-0.734162	-0.251372
C16	C	-3.749312	-0.585520	-0.251783
C17	C	-4.035194	-0.577223	-0.178237
C18	C	-4.099622	-0.725763	-0.177401
C19	C	-4.194048	-0.764981	-0.339188
C20	C	-4.124601	-0.616474	-0.340901
C21	C	-3.849045	-0.170313	-0.406994
C22	C	-3.890617	-0.169603	-0.501075
C23	C	-3.799891	-0.161127	-0.723894
C24	C	-3.972865	-0.270520	-0.793363
C25	C	-3.966800	-0.168273	-0.673324
C26	C	-3.867927	-0.057628	-0.771492
C27	C	-4.040373	-0.166982	-0.839707
C28	C	-4.139271	-0.277763	-0.741562
C29	C	-4.034257	-0.064775	-0.719676
C30	C	-4.207372	-0.174198	-0.789126
C31	C	-3.924412	-0.169017	-0.577474
C32	C	-4.082780	-0.166247	-0.935556
C33	C	-4.144740	0.060812	-0.255162
C34	C	-4.060686	0.203635	-0.255885
C35	C	-4.178899	-0.164947	-0.106044
C36	C	-4.116564	-0.165650	-0.011962
H37	H	-3.679264	-0.559977	-0.308177
C38	C	-4.440699	-0.181727	-0.827454
N39	N	-4.616442	-0.187413	-0.856338
H40	H	-4.062219	-0.592808	-0.399291
H41	H	-3.614411	-0.532841	-0.191658
H42	H	-4.253584	-0.370896	-0.728089
H43	H	-4.059685	0.022215	-0.687573
C44	C	-4.231644	-0.536372	-0.179459
N45	N	-4.379608	-0.505598	-0.180381
C46	C	-3.969323	-0.749095	-0.092749
N47	N	-3.871169	-0.766661	-0.028989
H48	H	-4.272363	-0.586301	-0.349715
H49	H	-3.627322	-0.155743	-0.695414
H50	H	-3.776821	-0.780803	-0.307416
C51	C	-3.677653	-0.761651	-0.170226
N52	N	-3.573843	-0.782370	-0.109111
H53	H	-4.174023	-0.814732	-0.398907
C54	C	-4.337706	-0.780995	-0.177224
N55	N	-4.517021	-0.822588	-0.177083
C56	C	-3.864457	-0.503630	-0.094481
N57	N	-3.735847	-0.448204	-0.031398
H58	H	-3.753615	0.035381	-0.785108
H59	H	-4.372949	-0.806114	-0.343325
H60	H	-3.947358	-0.357505	-0.825443
