data_functionalizedCrystal
_audit_creation_method	'MofGen! by Chris Wilmer'
_symmetry_space_group_name_H-M	'P1'
_symmetry_Int_Tables_number	1
_symmetry_cell_setting	triclinic
loop_
_symmetry_equiv_pos_as_xyz
  x,y,z
_cell_length_a	23.532407
_cell_length_b	23.532407
_cell_length_c	13.448316
_cell_angle_alpha	89.992978
_cell_angle_beta	89.997365
_cell_angle_gamma	82.848712
loop_
_atom_site_label
_atom_site_type_symbol
_atom_site_fract_x
_atom_site_fract_y
_atom_site_fract_z
O1	O	0.755260	0.069133	-0.082639
O2	O	1.255260	0.569133	0.417361
O3	O	0.589397	0.079136	-0.082656
O4	O	1.089397	0.579136	0.417344
O5	O	0.677330	-0.008797	-0.082629
O6	O	1.177330	0.491203	0.417371
O7	O	0.667327	0.157066	-0.082666
O8	O	1.167327	0.657066	0.417334
O9	O	0.677321	-0.008795	0.082755
O10	O	1.177321	0.491205	0.582755
O11	O	0.589388	0.079138	0.082728
O12	O	1.089388	0.579138	0.582728
O13	O	0.755251	0.069135	0.082745
O14	O	1.255251	0.569135	0.582745
Cu15	Cu	0.672318	0.074136	0.097837
Cu16	Cu	1.172318	0.574136	0.597837
Cu17	Cu	0.672330	0.074135	-0.097749
Cu18	Cu	1.172330	0.574135	0.402251
O19	O	0.667318	0.157068	0.082717
O20	O	1.167318	0.657068	0.582717
C21	C	0.568176	0.078882	0.000034
C22	C	1.068176	0.578882	0.500034
C23	C	0.504959	0.078116	0.000028
C24	C	1.004959	0.578116	0.500028
C25	C	0.238792	0.022921	0.000067
C26	C	0.738792	0.522921	0.500067
C27	C	0.298192	0.023632	0.000067
C28	C	0.798192	0.523632	0.500067
O29	O	0.334937	-0.020153	0.000111
O30	O	0.834937	0.479847	0.500111
N31	N	0.320818	0.075909	0.000048
N32	N	0.820818	0.575909	0.500048
C33	C	0.284041	0.127477	0.000040
C34	C	0.784041	0.627477	0.500040
O35	O	0.308740	0.172007	0.000026
O36	O	0.808740	0.672007	0.500026
C37	C	0.224642	0.126765	0.000048
C38	C	0.724642	0.626765	0.500048
C39	C	0.202019	0.074485	0.000056
C40	C	0.702019	0.574485	0.500056
C41	C	0.216169	-0.029354	0.000077
C42	C	0.716169	0.470646	0.500077
C43	C	0.156772	-0.030066	0.000076
C44	C	0.656772	0.469934	0.500076
C45	C	0.119999	0.021499	0.000065
C46	C	0.619999	0.521499	0.500065
C47	C	0.142623	0.073774	0.000055
C48	C	0.642623	0.573774	0.500055
C49	C	0.187865	0.178333	0.000047
C50	C	0.687865	0.678333	0.500047
C51	C	0.128463	0.177616	0.000055
C52	C	0.628463	0.677616	0.500055
C53	C	0.105840	0.125336	0.000064
C54	C	0.605840	0.625336	0.500064
C55	C	0.046454	0.124627	0.000043
C56	C	0.546454	0.624627	0.500043
N57	N	0.023828	0.072351	0.000061
N58	N	0.523828	0.572351	0.500061
C59	C	0.060600	0.020787	0.000072
C60	C	0.560600	0.520787	0.500072
C61	C	0.408783	0.128968	0.000026
C62	C	0.908783	0.628968	0.500026
C63	C	0.468181	0.129681	0.000012
C64	C	0.968181	0.629681	0.500012
C65	C	0.482328	0.025836	0.000040
C66	C	0.982328	0.525836	0.500040
C67	C	0.422929	0.025124	0.000048
C68	C	0.922929	0.525124	0.500048
C69	C	0.386157	0.076692	0.000045
C70	C	0.886157	0.576692	0.500045
C71	C	-0.064136	0.019297	0.000068
C72	C	0.435864	0.519297	0.500068
C73	C	-0.123538	0.018590	0.000063
C74	C	0.376462	0.518590	0.500063
C75	C	-0.137680	0.122435	0.000040
C76	C	0.362320	0.622435	0.500040
C77	C	-0.078284	0.123142	0.000040
C78	C	0.421716	0.623142	0.500040
C79	C	-0.041512	0.071568	0.000058
C80	C	0.458488	0.571568	0.500058
O81	O	0.009675	0.168390	0.000002
O82	O	0.509675	0.668390	0.500002
O83	O	0.035892	-0.023737	0.000100
O84	O	0.535892	0.476263	0.500100
C85	C	0.677071	-0.030012	0.000065
C86	C	1.177071	0.469988	0.500065
C87	C	0.676305	-0.093229	0.000073
C88	C	1.176305	0.406771	0.500073
C89	C	0.723538	-0.492332	0.000023
C90	C	1.223538	0.007668	0.500023
C91	C	0.722827	-0.551733	0.000016
C92	C	1.222827	-0.051733	0.500016
O93	O	0.766613	-0.588477	-0.000016
O94	O	1.266613	-0.088477	0.499984
N95	N	0.670551	-0.574359	0.000011
N96	N	1.170551	-0.074359	0.500011
C97	C	0.618982	-0.537581	0.000004
C98	C	1.118982	-0.037581	0.500004
O99	O	0.574452	-0.562281	-0.000002
O100	O	1.074452	-0.062281	0.499998
C101	C	0.619695	-0.478182	0.000004
C102	C	1.119695	0.021818	0.500004
C103	C	0.671974	-0.455559	0.000019
C104	C	1.171974	0.044441	0.500019
C105	C	0.775814	-0.469709	0.000037
C106	C	1.275814	0.030291	0.500037
C107	C	0.776525	-0.410313	0.000047
C108	C	1.276525	0.089687	0.500047
C109	C	0.724961	-0.373540	0.000042
C110	C	1.224961	0.126460	0.500042
C111	C	0.672685	-0.396163	0.000029
C112	C	1.172685	0.103837	0.500029
C113	C	0.568127	-0.441406	-0.000010
C114	C	1.068127	0.058594	0.499990
C115	C	0.568843	-0.382003	-0.000010
C116	C	1.068843	0.117997	0.499990
C117	C	0.621123	-0.359381	0.000005
C118	C	1.121123	0.140619	0.500005
C119	C	0.621832	-0.299994	0.000034
C120	C	1.121832	0.200006	0.500034
N121	N	0.674109	-0.277368	0.000039
N122	N	1.174109	0.222632	0.500039
C123	C	0.725673	-0.314141	0.000043
C124	C	1.225673	0.185859	0.500043
C125	C	0.617491	-0.662324	0.000001
C126	C	1.117491	-0.162324	0.500001
C127	C	0.616778	-0.721722	0.000008
C128	C	1.116778	-0.221722	0.500008
C129	C	0.720623	-0.735869	0.000018
C130	C	1.220623	-0.235869	0.500018
C131	C	0.721335	-0.676470	0.000018
C132	C	1.221335	-0.176470	0.500018
C133	C	0.669767	-0.639698	0.000006
C134	C	1.169767	-0.139698	0.500006
C135	C	0.727163	-0.189404	0.000064
C136	C	1.227163	0.310596	0.500064
C137	C	0.727869	-0.130002	0.000077
C138	C	1.227869	0.369998	0.500077
C139	C	0.624025	-0.115860	0.000062
C140	C	1.124025	0.384140	0.500062
C141	C	0.623318	-0.175257	0.000054
C142	C	1.123318	0.324743	0.500054
C143	C	0.674891	-0.212028	0.000051
C144	C	1.174891	0.287972	0.500051
O145	O	0.578069	-0.263215	0.000062
O146	O	1.078069	0.236785	0.500062
O147	O	0.770196	-0.289433	0.000035
O148	O	1.270196	0.210567	0.500035
C149	C	0.776472	0.069389	0.000053
C150	C	1.276472	0.569389	0.500053
C151	C	0.839689	0.070155	0.000052
C152	C	1.339689	0.570155	0.500052
C153	C	0.667577	0.178283	0.000021
C154	C	1.167577	0.678283	0.500021
C155	C	0.668343	0.241500	0.000007
C156	C	1.168343	0.741500	0.500007
N157	N	0.672315	0.074137	0.235401
N158	N	1.172315	0.574137	0.735401
C159	C	0.637991	0.039765	0.712653
C160	C	1.137991	0.539765	1.212653
C161	C	0.637989	0.039763	0.608550
C162	C	1.137989	0.539763	1.108550
C163	C	0.672328	0.074132	0.556483
C164	C	1.172328	0.574132	1.056483
C165	C	0.706674	0.108501	0.608524
C166	C	1.206674	0.608501	1.108524
C167	C	0.706678	0.108500	0.712625
C168	C	1.206678	0.608500	1.212625
C169	C	0.706662	0.108503	0.391544
C170	C	1.206662	0.608503	0.891544
C171	C	0.706657	0.108505	0.287435
C172	C	1.206657	0.608505	0.787435
C173	C	0.637973	0.039766	0.287469
C174	C	1.137973	0.539766	0.787469
C175	C	0.637977	0.039765	0.391570
C176	C	1.137977	0.539765	0.891570
C177	C	0.672323	0.074135	0.443604
C178	C	1.172323	0.574135	0.943604
N179	N	0.672333	0.074133	0.764687
N180	N	1.172333	0.574133	1.264687
H181	H	0.486595	0.172252	-0.000009
H182	H	0.986595	0.672252	0.499991
C183	C	0.224170	-0.132068	0.000088
C184	C	0.724170	0.367932	0.500088
C185	C	0.256583	-0.086041	0.000080
C186	C	0.756583	0.413959	0.500080
H187	H	0.249119	-0.167065	0.000078
H188	H	0.749119	0.332935	0.500078
H189	H	0.200712	-0.130184	0.057763
H190	H	0.700712	0.369816	0.557763
H191	H	0.200702	-0.130173	-0.057584
H192	H	0.700702	0.369827	0.442416
H193	H	0.280048	-0.087934	0.057756
H194	H	0.780048	0.412066	0.557756
H195	H	0.280051	-0.087926	-0.057600
H196	H	0.780051	0.412074	0.442400
H197	H	0.734617	0.136493	0.245044
H198	H	1.234617	0.636493	0.745044
H199	H	-0.141954	-0.023984	0.000067
H200	H	0.358046	0.476016	0.500067
H201	H	-0.034204	-0.022699	0.000082
H202	H	0.465796	0.477301	0.500082
H203	H	0.575496	-0.632386	-0.000000
H204	H	1.075496	-0.132386	0.500000
C205	C	0.542696	0.017889	0.255467
C206	C	1.042696	0.517889	0.755467
C207	C	0.600215	0.001985	0.230288
C208	C	1.100215	0.501985	0.730288
H209	H	0.519385	-0.005431	0.220161
H210	H	1.019385	0.494569	0.720161
H211	H	0.537793	0.012973	0.324911
H212	H	1.037793	0.512973	0.824911
H213	H	0.531902	0.056911	0.238388
H214	H	1.031902	0.556911	0.738388
H215	H	0.611010	-0.037036	0.247373
H216	H	1.111010	0.462964	0.747373
H217	H	0.605121	0.006896	0.160829
H218	H	1.105121	0.506896	0.660829
H219	H	0.098525	0.219610	0.000058
H220	H	0.598525	0.719610	0.500058
C221	C	0.465557	-0.421430	-0.000049
C222	C	0.965557	0.078570	0.499951
C223	C	0.510658	-0.466262	-0.000035
C224	C	1.010658	0.033738	0.499965
H225	H	0.430077	-0.436776	-0.000073
H226	H	0.930077	0.063224	0.499927
H227	H	0.467991	-0.398566	0.057625
H228	H	0.967991	0.101434	0.557625
H229	H	0.468012	-0.398551	-0.057722
H230	H	0.968012	0.101449	0.442278
H231	H	0.508206	-0.489138	0.057641
H232	H	1.008206	0.010862	0.557641
H233	H	0.508223	-0.489136	-0.057715
H234	H	1.008223	0.010864	0.442285
H235	H	0.206274	0.220904	0.000036
H236	H	0.706274	0.720904	0.500036
H237	H	0.734632	0.136489	0.433906
H238	H	1.234632	0.636489	0.933906
H239	H	0.512280	-0.016150	0.000049
H240	H	1.012280	0.483850	0.500049
H241	H	0.610025	0.011776	0.566189
H242	H	1.110025	0.511776	1.066189
H243	H	0.763906	-0.658055	0.000029
H244	H	1.263906	-0.158055	0.500029
H245	H	0.610013	0.011781	0.433961
H246	H	1.110013	0.511781	0.933961
C247	C	0.709785	0.185088	0.491443
C248	C	1.209785	0.685088	0.991443
C249	C	0.744420	0.146282	0.551294
C250	C	1.244420	0.646282	1.051294
H251	H	0.733088	0.208415	0.456119
H252	H	1.233088	0.708415	0.956119
H253	H	0.689337	0.164620	0.445558
H254	H	1.189337	0.664620	0.945558
H255	H	0.683447	0.208554	0.532068
H256	H	1.183447	0.708554	1.032068
H257	H	0.770755	0.122813	0.510668
H258	H	1.270755	0.622813	1.010668
H259	H	0.764878	0.166752	0.597185
H260	H	1.264878	0.666752	1.097185
H261	H	0.580747	-0.193677	0.000069
H262	H	1.080747	0.306323	0.500069
H263	H	0.378846	0.170964	0.000017
H264	H	0.878846	0.670964	0.500017
H265	H	-0.059864	0.165712	0.000032
H266	H	0.440136	0.665712	0.500032
H267	H	0.762610	-0.765821	0.000017
H268	H	1.262610	-0.265821	0.500017
H269	H	0.526850	-0.352065	-0.000022
H270	H	1.026850	0.147935	0.499978
H271	H	0.138359	-0.072637	0.000087
H272	H	0.638359	0.427363	0.500087
H273	H	0.404515	-0.017447	0.000055
H274	H	0.904515	0.482553	0.500055
C275	C	-0.212699	0.181871	-0.084978
C276	C	0.287301	0.681871	0.415022
C277	C	-0.178111	0.179111	0.000033
C278	C	0.321889	0.679111	0.500033
H279	H	-0.237662	0.216859	-0.084971
H280	H	0.262338	0.716859	0.415029
H281	H	-0.189234	0.180001	-0.142643
H282	H	0.310766	0.680001	0.357357
H283	H	-0.234665	0.150628	-0.084964
H284	H	0.265335	0.650628	0.415036
H285	H	-0.156141	0.210352	0.000015
H286	H	0.343859	0.710352	0.500015
H287	H	-0.201579	0.180987	0.057713
H288	H	0.298421	0.680987	0.557713
C289	C	0.774565	0.176449	0.702142
C290	C	1.274565	0.676449	1.202142
C291	C	0.744427	0.146279	0.769825
C292	C	1.244427	0.646279	1.269825
H293	H	0.797869	0.199773	0.737456
H294	H	1.297869	0.699773	1.237456
H295	H	0.798048	0.150122	0.661540
H296	H	1.298048	0.650122	1.161540
H297	H	0.748215	0.199919	0.661539
H298	H	1.248215	0.699919	1.161539
H299	H	0.770778	0.122806	0.810423
H300	H	1.270778	0.622806	1.310423
H301	H	0.720943	0.172609	0.810444
H302	H	1.220943	0.672609	1.310444
H303	H	0.574207	-0.740135	0.000013
H304	H	1.074207	-0.240135	0.500013
C305	C	0.830446	-0.149962	0.000079
C306	C	1.330446	0.350038	0.500079
C307	C	0.785339	-0.105137	0.000085
C308	C	1.285339	0.394863	0.500085
H309	H	0.865924	-0.134611	0.000075
H310	H	1.365924	0.365389	0.500075
H311	H	0.828006	-0.172840	0.057745
H312	H	1.328006	0.327160	0.557745
H313	H	0.828005	-0.172830	-0.057601
H314	H	1.328005	0.327170	0.442399
H315	H	0.787778	-0.082271	0.057769
H316	H	1.287778	0.417729	0.557769
H317	H	0.787781	-0.082250	-0.057588
H318	H	1.287781	0.417750	0.442412
H319	H	0.769159	-0.219337	0.000058
H320	H	1.269159	0.280663	0.500058
H321	H	0.819097	-0.391900	0.000055
H322	H	1.319097	0.108100	0.500055
H323	H	0.582043	-0.085909	0.000062
H324	H	1.082043	0.414091	0.500062
C325	C	0.878527	-0.477710	0.000065
C326	C	1.378527	0.022290	0.500065
C327	C	0.832500	-0.510124	0.000050
C328	C	1.332500	-0.010124	0.500050
H329	H	0.913525	-0.502659	0.000086
H330	H	1.413525	-0.002659	0.500086
H331	H	0.876647	-0.454249	-0.057608
H332	H	1.376647	0.045751	0.442392
H333	H	0.876628	-0.454247	0.057739
H334	H	1.376628	0.045753	0.557739
H335	H	0.834397	-0.533584	-0.057628
H336	H	1.334397	-0.033584	0.442372
H337	H	0.834381	-0.533596	0.057729
H338	H	1.334381	-0.033596	0.557729
C339	C	0.570104	-0.028184	0.702221
C340	C	1.070104	0.471816	1.202221
C341	C	0.600245	0.001984	0.769882
C342	C	1.100245	0.501984	1.269882
H343	H	0.546805	-0.051513	0.737552
H344	H	1.046805	0.448487	1.237552
H345	H	0.546616	-0.001857	0.661621
H346	H	1.046616	0.498143	1.161621
H347	H	0.596452	-0.051651	0.661614
H348	H	1.096452	0.448349	1.161614
H349	H	0.573897	0.025454	0.810484
H350	H	1.073897	0.525454	1.310484
H351	H	0.623735	-0.024347	0.810499
H352	H	1.123735	0.475653	1.310499
