data_functionalizedCrystal
_audit_creation_method	'MofGen! by Chris Wilmer'
_symmetry_space_group_name_H-M	'P1'
_symmetry_Int_Tables_number	1
_symmetry_cell_setting	triclinic
loop_
_symmetry_equiv_pos_as_xyz
  x,y,z
_cell_length_a	14.044191
_cell_length_b	12.503567
_cell_length_c	10.654550
_cell_angle_alpha	86.444345
_cell_angle_beta	91.161660
_cell_angle_gamma	86.157210
loop_
_atom_site_label
_atom_site_type_symbol
_atom_site_fract_x
_atom_site_fract_y
_atom_site_fract_z
O1	O	1.265126	-0.089263	-0.296380
O2	O	0.989085	-0.089277	-0.285437
O3	O	1.133452	-0.089266	-0.108807
O4	O	1.120759	-0.089275	-0.473009
O5	O	1.122581	0.089376	-0.122105
O6	O	0.978215	0.089364	-0.298734
O7	O	1.254255	0.089378	-0.309678
Cu8	Cu	1.115242	0.105683	-0.305420
Cu9	Cu	1.128098	-0.105582	-0.289694
O10	O	1.109889	0.089367	-0.486307
C11	C	0.948304	0.000042	-0.287298
C12	C	0.842985	0.000037	-0.273019
N13	N	1.106207	0.254275	-0.316481
C14	C	0.593192	0.000046	-0.348185
C15	C	0.650155	0.000046	-0.246934
C16	C	0.757455	0.000041	-0.261451
C17	C	0.485882	0.000051	-0.333670
C18	C	1.150422	0.526711	-0.262364
C19	C	1.092924	0.473383	-0.332752
C20	C	1.100317	0.351460	-0.323696
C21	C	1.143031	0.648645	-0.271418
C22	C	1.295037	0.000057	-0.307816
C23	C	1.400357	0.000055	-0.322095
C24	C	1.127085	0.000053	-0.068564
C25	C	1.124297	0.000050	0.071159
N26	N	1.137136	0.745826	-0.278639
C27	C	1.116256	0.000045	-0.526550
C28	C	1.119045	0.000042	-0.666273
C29	C	1.209297	0.000057	0.142100
C30	C	1.206672	0.000049	0.273385
C31	C	1.034037	0.000031	0.262777
C32	C	1.036664	0.000031	0.131495
C33	C	1.308967	0.000072	0.148225
C34	C	1.306341	0.000065	0.279511
H35	H	0.618343	-0.000027	-0.149343
H36	H	0.625007	0.000040	-0.445762
H37	H	1.339346	0.074826	0.311931
H38	H	1.038147	0.519294	-0.399816
H39	H	1.205197	0.480805	-0.195307
H40	H	0.962690	0.000016	0.311918
H41	H	1.336011	0.077208	0.103666
H42	H	1.352500	-0.074682	0.120513
C43	C	1.386898	-0.172420	0.253784
C44	C	1.353349	-0.104048	0.344803
H45	H	1.415923	-0.236689	0.294097
H46	H	1.335029	-0.189167	0.201595
H47	H	1.432509	-0.137776	0.203944
H48	H	1.307733	-0.138689	0.394638
H49	H	1.405225	-0.087303	0.397014
H50	H	0.967449	0.000010	0.073741
