data_functionalizedCrystal
_audit_creation_method	'MofGen! by Chris Wilmer'
_symmetry_space_group_name_H-M	'P1'
_symmetry_Int_Tables_number	1
_symmetry_cell_setting	triclinic
loop_
_symmetry_equiv_pos_as_xyz
  x,y,z
_cell_length_a	25.639242
_cell_length_b	25.639239
_cell_length_c	25.639233
_cell_angle_alpha	90.018747
_cell_angle_beta	89.977834
_cell_angle_gamma	89.965787
loop_
_atom_site_label
_atom_site_type_symbol
_atom_site_fract_x
_atom_site_fract_y
_atom_site_fract_z
Zn1	Zn	0.799225	0.208277	-0.295742
Zn2	Zn	1.299225	0.708277	0.204258
Zn3	Zn	0.799149	0.295696	-0.208307
Zn4	Zn	1.299149	0.795696	0.291693
Zn5	Zn	0.711801	0.208269	-0.208306
Zn6	Zn	1.211801	0.708269	0.291694
Zn7	Zn	0.711746	0.295676	-0.295696
Zn8	Zn	1.211746	0.795676	0.204304
O9	O	0.755480	0.251979	-0.252013
O10	O	1.255480	0.751979	0.247987
O11	O	0.872380	0.219884	-0.284163
O12	O	1.372380	0.719884	0.215837
O13	O	0.787553	0.284103	-0.135141
O14	O	1.287553	0.784103	0.364859
O15	O	0.723453	0.135105	-0.219924
O16	O	1.223453	0.635105	0.280076
O17	O	0.872324	0.284111	-0.219924
O18	O	1.372324	0.784111	0.280076
O19	O	0.787683	0.135111	-0.284163
O20	O	1.287683	0.635111	0.215837
O21	O	0.723379	0.219871	-0.135141
O22	O	1.223379	0.719871	0.364859
O23	O	0.638629	0.219853	-0.219880
O24	O	1.138629	0.719853	0.280120
O25	O	0.723360	0.284078	-0.368868
O26	O	1.223360	0.784078	0.131132
O27	O	0.638589	0.284070	-0.284085
O28	O	1.138589	0.784070	0.215915
O29	O	0.787630	0.219866	-0.368901
O30	O	1.287630	0.719866	0.131099
O31	O	0.787499	0.368858	-0.219880
O32	O	1.287499	0.868858	0.280120
O33	O	0.723286	0.368844	-0.284085
O34	O	1.223286	0.868844	0.215915
C35	C	0.619638	0.251959	-0.251977
C36	C	1.119638	0.751959	0.248023
C37	C	0.561524	0.251963	-0.251975
C38	C	1.061524	0.751963	0.248025
C39	C	0.755392	0.387822	-0.251989
C40	C	1.255392	0.887822	0.248011
C41	C	0.755403	0.445936	-0.251996
C42	C	1.255403	0.945936	0.248004
C43	C	0.755497	0.251970	-0.388386
C44	C	1.255497	0.751970	0.111614
C45	C	0.755504	0.251966	-0.446500
C46	C	1.255504	0.751966	0.053500
C47	C	0.201149	0.285473	-0.285413
C48	C	0.701149	0.785473	0.214587
C49	C	0.146544	0.285477	-0.285421
C50	C	0.646544	0.785477	0.214579
O51	O	0.118297	0.313943	-0.313821
O52	O	0.618297	0.813943	0.186179
N53	N	0.119241	0.251994	-0.252047
N54	N	0.619241	0.751994	0.247953
C55	C	0.146545	0.218502	-0.218666
C56	C	0.646545	0.718502	0.281334
O57	O	0.118308	0.190022	-0.190280
O58	O	0.618308	0.690022	0.309720
C59	C	0.201149	0.218496	-0.218661
C60	C	0.701149	0.718496	0.281339
C61	C	0.228449	0.251985	-0.252034
C62	C	0.728449	0.751985	0.247966
C63	C	0.228449	0.318959	-0.318783
C64	C	0.728449	0.818959	0.181217
C65	C	0.283049	0.318956	-0.318774
C66	C	0.783049	0.818956	0.181226
C67	C	0.310350	0.285468	-0.285395
C68	C	0.810350	0.785468	0.214605
C69	C	0.283049	0.251983	-0.252024
C70	C	0.783049	0.751983	0.247976
C71	C	0.228452	0.185002	-0.185283
C72	C	0.728452	0.685002	0.314717
C73	C	0.283059	0.185000	-0.185281
C74	C	0.783059	0.685000	0.314719
C75	C	0.310359	0.218488	-0.218654
C76	C	0.810359	0.718488	0.281346
C77	C	0.364950	0.218492	-0.218636
C78	C	0.864950	0.718492	0.281364
N79	N	0.392253	0.251974	-0.252010
N80	N	0.892253	0.751974	0.247990
C81	C	0.364953	0.285463	-0.285389
C82	C	0.864953	0.785463	0.214611
C83	C	0.031875	0.218515	-0.218680
C84	C	0.531875	0.718515	0.281320
C85	C	-0.022728	0.218523	-0.218683
C86	C	0.477272	0.718523	0.281317
C87	C	-0.022725	0.285497	-0.285438
C88	C	0.477275	0.785497	0.214562
C89	C	0.031878	0.285492	-0.285433
C90	C	0.531878	0.785492	0.214567
C91	C	0.059178	0.251998	-0.252054
C92	C	0.559178	0.751998	0.247946
C93	C	0.479618	0.285455	-0.285368
C94	C	0.979618	0.785455	0.214632
C95	C	0.534223	0.285451	-0.285354
C96	C	1.034223	0.785451	0.214646
C97	C	0.534216	0.218475	-0.218601
C98	C	1.034216	0.718475	0.281399
C99	C	0.479615	0.218481	-0.218612
C100	C	0.979615	0.718481	0.281388
C101	C	0.452318	0.251972	-0.252000
C102	C	0.952318	0.751972	0.248000
O103	O	0.393232	0.190038	-0.190252
O104	O	0.893232	0.690038	0.309748
O105	O	0.393197	0.313933	-0.313776
O106	O	0.893197	0.813933	0.186224
C107	C	0.891853	0.252000	-0.252049
C108	C	1.391853	0.752000	0.247951
C109	C	0.949967	0.252009	-0.252064
C110	C	1.449967	0.752009	0.247936
C111	C	0.755583	0.115606	-0.252048
C112	C	1.255583	0.615606	0.247952
C113	C	0.755627	0.057492	-0.252064
C114	C	1.255627	0.557492	0.247936
C115	C	0.789004	0.806294	-0.218638
C116	C	1.289004	1.306294	0.281362
C117	C	0.789024	0.860898	-0.218645
C118	C	1.289024	1.360898	0.281355
O119	O	0.817502	0.889131	-0.190257
O120	O	1.317502	1.389131	0.309743
N121	N	0.755572	0.888218	-0.252048
N122	N	1.255572	1.388218	0.247952
C123	C	0.722102	0.860932	-0.285449
C124	C	1.222102	1.360932	0.214551
O125	O	0.693651	0.889184	-0.313861
O126	O	1.193651	1.389184	0.186139
C127	C	0.722085	0.806328	-0.285444
C128	C	1.222085	1.306328	0.214556
C129	C	0.755535	0.779011	-0.252036
C130	C	1.255535	1.279011	0.247964
C131	C	0.822452	0.778976	-0.185233
C132	C	1.322452	1.278976	0.314767
C133	C	0.822431	0.724376	-0.185226
C134	C	1.322431	1.224376	0.314774
C135	C	0.788962	0.697093	-0.218623
C136	C	1.288962	1.197093	0.281377
C137	C	0.755514	0.724410	-0.252028
C138	C	1.255514	1.224410	0.247972
C139	C	0.688617	0.779042	-0.318847
C140	C	1.188617	1.279042	0.181153
C141	C	0.688603	0.724435	-0.318840
C142	C	1.188603	1.224435	0.181160
C143	C	0.722053	0.697118	-0.285432
C144	C	1.222053	1.197118	0.214568
C145	C	0.722024	0.642527	-0.285418
C146	C	1.222024	1.142527	0.214582
N147	N	0.755475	0.615206	-0.252016
N148	N	1.255475	1.115206	0.247984
C149	C	0.788944	0.642490	-0.218618
C150	C	1.288944	1.142490	0.281382
C151	C	0.722141	0.975602	-0.285457
C152	C	1.222141	1.475602	0.214543
C153	C	0.722155	1.030204	-0.285459
C154	C	1.222155	1.530204	0.214541
C155	C	0.789078	1.030167	-0.218656
C156	C	1.289078	1.530167	0.281344
C157	C	0.789061	0.975564	-0.218652
C158	C	1.289061	1.475564	0.281348
C159	C	0.755593	0.948282	-0.252055
C160	C	1.255593	1.448282	0.247945
C161	C	0.788897	0.527824	-0.218605
C162	C	1.288897	1.027824	0.281395
C163	C	0.788872	0.473219	-0.218599
C164	C	1.288872	0.973219	0.281401
C165	C	0.721951	0.473261	-0.285403
C166	C	1.221951	0.973261	0.214597
C167	C	0.721974	0.527862	-0.285408
C168	C	1.221974	1.027862	0.214592
C169	C	0.755452	0.555142	-0.252007
C170	C	1.255452	1.055142	0.247993
O171	O	0.693562	0.614260	-0.313793
O172	O	1.193562	1.114260	0.186207
O173	O	0.817396	0.614231	-0.190216
O174	O	1.317396	1.114231	0.309784
C175	C	0.789012	0.218432	-0.806886
C176	C	1.289012	0.718432	-0.306886
C177	C	0.789019	0.218417	-0.861491
C178	C	1.289019	0.718417	-0.361491
O179	O	0.817466	0.189967	-0.889747
O180	O	1.317466	0.689967	-0.389747
N181	N	0.755562	0.251844	-0.888783
N182	N	1.255562	0.751844	-0.388783
C183	C	0.722093	0.285283	-0.861468
C184	C	1.222093	0.785283	-0.361468
O185	O	0.693636	0.313713	-0.889695
O186	O	1.193636	0.813713	-0.389695
C187	C	0.722084	0.285294	-0.806864
C188	C	1.222084	0.785294	-0.306864
C189	C	0.755547	0.251870	-0.779575
C190	C	1.255547	0.751870	-0.279575
C191	C	0.822472	0.185009	-0.779597
C192	C	1.322472	0.685009	-0.279597
C193	C	0.822466	0.185025	-0.724997
C194	C	1.322466	0.685025	-0.224997
C195	C	0.789000	0.218462	-0.697685
C196	C	1.289000	0.718462	-0.197685
C197	C	0.755541	0.251885	-0.724974
C198	C	1.255541	0.751885	-0.224974
C199	C	0.688613	0.318731	-0.779550
C200	C	1.188613	0.818731	-0.279550
C201	C	0.688607	0.318739	-0.724943
C202	C	1.188607	0.818739	-0.224943
C203	C	0.722069	0.285314	-0.697654
C204	C	1.222069	0.785314	-0.197654
C205	C	0.722070	0.285338	-0.643063
C206	C	1.222070	0.785338	-0.143063
N207	N	0.755526	0.251912	-0.615771
N208	N	1.255526	0.751912	-0.115771
C209	C	0.788992	0.218474	-0.643082
C210	C	1.288992	0.718474	-0.143082
C211	C	0.722113	0.285256	-0.976138
C212	C	1.222113	0.785256	-0.476138
C213	C	0.722124	0.285247	-1.030741
C214	C	1.222124	0.785247	-0.530741
C215	C	0.789049	0.218381	-1.030760
C216	C	1.289049	0.718381	-0.530760
C217	C	0.789041	0.218392	-0.976157
C218	C	1.289041	0.718392	-0.476157
C219	C	0.755570	0.251829	-0.948846
C220	C	1.255570	0.751829	-0.448846
C221	C	0.788977	0.218509	-0.528417
C222	C	1.288977	0.718509	-0.028417
C223	C	0.788970	0.218529	-0.473811
C224	C	1.288970	0.718529	0.026189
C225	C	0.722043	0.285393	-0.473797
C226	C	1.222043	0.785393	0.026203
C227	C	0.722052	0.285375	-0.528397
C228	C	1.222052	0.785375	-0.028397
C229	C	0.755521	0.251929	-0.555706
C230	C	1.255521	0.751929	-0.055706
O231	O	0.693635	0.313773	-0.614771
O232	O	1.193635	0.813773	-0.114771
O233	O	0.817439	0.190044	-0.614847
O234	O	1.317439	0.690044	-0.114847
C235	C	0.755494	0.251951	-0.116170
C236	C	1.255494	0.751951	0.383830
C237	C	0.755588	0.251807	-0.058057
C238	C	1.255588	0.751807	0.441943
H239	H	0.457399	0.312726	-0.312556
H240	H	0.957399	0.812726	0.187444
H241	H	0.816298	0.191153	-1.053007
H242	H	1.316298	0.691153	-0.553007
C243	C	0.685249	0.322189	-0.443750
C244	C	1.185249	0.822189	0.056250
H245	H	0.665328	0.342103	-0.467820
H246	H	1.165328	0.842103	0.032180
H247	H	0.662479	0.302203	-0.422435
H248	H	1.162479	0.802203	0.077565
H249	H	0.705249	0.344974	-0.422462
H250	H	1.205249	0.844974	0.077538
H251	H	0.054099	0.191241	-0.191496
H252	H	0.554099	0.691241	0.308504
H253	H	0.305272	0.346225	-0.345950
H254	H	0.805272	0.846225	0.154050
C255	C	0.651799	0.355494	-0.809556
C256	C	1.151799	0.855494	-0.309556
H257	H	0.631865	0.375401	-0.785463
H258	H	1.131865	0.875401	-0.285463
H259	H	0.671775	0.378279	-0.830863
H260	H	1.171775	0.878279	-0.330863
H261	H	0.629033	0.335479	-0.830849
H262	H	1.129033	0.835479	-0.330849
H263	H	0.816300	0.953325	-0.191448
H264	H	1.316300	1.453325	0.308552
H265	H	0.206233	0.157734	-0.158106
H266	H	0.706233	0.657734	0.341894
C267	C	0.198427	0.355800	-0.355503
C268	C	0.698427	0.855800	0.144497
H269	H	0.222513	0.375741	-0.375371
H270	H	0.722513	0.875741	0.124629
H271	H	0.177146	0.335842	-0.378326
H272	H	0.677146	0.835842	0.121674
H273	H	0.177107	0.378558	-0.335461
H274	H	0.677107	0.878558	0.164539
C275	C	0.564251	0.322287	-0.322068
C276	C	1.064251	0.822287	0.177932
H277	H	0.540168	0.342227	-0.341952
H278	H	1.040168	0.842227	0.158048
H279	H	0.585529	0.345039	-0.302026
H280	H	1.085529	0.845039	0.197974
H281	H	0.585573	0.302316	-0.344884
H282	H	1.085573	0.802316	0.155116
C283	C	0.825778	0.181759	-0.443794
C284	C	1.325778	0.681759	0.056206
H285	H	0.820987	0.186558	-0.407362
H286	H	1.320987	0.686558	0.092638
H287	H	0.818153	0.146627	-0.452743
H288	H	1.318153	0.646627	0.047257
H289	H	0.860904	0.189418	-0.452753
H290	H	1.360904	0.689418	0.047247
H291	H	0.849670	0.702137	-0.158024
H292	H	1.349670	1.202137	0.341976
C293	C	0.313085	0.148155	-0.148564
C294	C	0.813085	0.648155	0.351436
H295	H	0.289003	0.128216	-0.128690
H296	H	0.789003	0.628216	0.371310
H297	H	0.334409	0.125404	-0.168603
H298	H	0.834409	0.625404	0.331397
H299	H	0.334362	0.168120	-0.125739
H300	H	0.834362	0.668120	0.374261
H301	H	0.556454	0.191211	-0.191422
H302	H	1.056454	0.691211	0.308578
H303	H	0.054103	0.312760	-0.312609
H304	H	0.554103	0.812760	0.187391
H305	H	0.694809	0.312597	-0.550617
H306	H	1.194809	0.812597	-0.050617
H307	H	-0.044963	0.312763	-0.312619
H308	H	0.455037	0.812763	0.187381
C309	C	0.859268	0.808980	-0.148490
C310	C	1.359268	1.308980	0.351510
H311	H	0.879179	0.784883	-0.128595
H312	H	1.379179	1.284883	0.371405
H313	H	0.882046	0.830254	-0.168508
H314	H	1.382046	1.330254	0.331492
H315	H	0.839286	0.830304	-0.125685
H316	H	1.339286	1.330304	0.374315
H317	H	0.816111	0.450979	-0.191392
H318	H	1.316111	0.950979	0.308608
C319	C	-0.052752	0.181689	-0.181970
C320	C	0.447248	0.681689	0.318030
H321	H	-0.028668	0.161743	-0.162093
H322	H	0.471332	0.661743	0.337907
H323	H	-0.074077	0.201653	-0.159154
H324	H	0.425923	0.701653	0.340846
H325	H	-0.074027	0.158935	-0.202017
H326	H	0.425973	0.658935	0.297983
C327	C	0.651790	0.355521	-0.694902
C328	C	1.151790	0.855521	-0.194902
H329	H	0.656573	0.350742	-0.658473
H330	H	1.156573	0.850742	-0.158473
H331	H	0.659413	0.390649	-0.703852
H332	H	1.159413	0.890649	-0.203852
H333	H	0.616666	0.347854	-0.703843
H334	H	1.116666	0.847854	-0.203843
H335	H	0.816159	0.550030	-0.191408
H336	H	1.316159	1.050030	0.308592
H337	H	0.816333	1.052391	-0.191464
H338	H	1.316333	1.552391	0.308536
H339	H	0.694857	0.312487	-0.953905
H340	H	1.194857	0.812487	-0.453905
H341	H	0.816229	0.191272	-0.550645
H342	H	1.316229	0.691272	-0.050645
H343	H	0.457387	0.191213	-0.191436
H344	H	0.957387	0.691213	0.308564
C345	C	0.685357	1.060248	-0.322205
C346	C	1.185357	1.560248	0.177795
H347	H	0.665426	1.036174	-0.342095
H348	H	1.165426	1.536174	0.157905
H349	H	0.662596	1.081581	-0.302186
H350	H	1.162596	1.581581	0.197814
H351	H	0.705352	1.081517	-0.345014
H352	H	1.205352	1.581517	0.154986
C353	C	0.685317	0.945596	-0.322196
C354	C	1.185317	1.445596	0.177804
H355	H	0.665396	0.969691	-0.342084
H356	H	1.165396	1.469691	0.157916
H357	H	0.705290	0.924267	-0.344999
H358	H	1.205290	1.424267	0.155001
H359	H	0.662540	0.924327	-0.302166
H360	H	1.162540	1.424327	0.197834
H361	H	0.694738	0.550105	-0.312613
H362	H	1.194738	1.050105	0.187387
C363	C	0.651787	0.694426	-0.355583
C364	C	1.151787	1.194426	0.144417
H365	H	0.656566	0.657993	-0.350799
H366	H	1.156566	1.157993	0.149201
H367	H	0.616666	0.703413	-0.347897
H368	H	1.116666	1.203413	0.152103
H369	H	0.659425	0.703353	-0.390722
H370	H	1.159425	1.203353	0.109278
C371	C	0.651825	0.809080	-0.355601
C372	C	1.151825	1.309080	0.144399
H373	H	0.631898	0.785003	-0.375492
H374	H	1.131898	1.285003	0.124508
H375	H	0.629060	0.830413	-0.335587
H376	H	1.129060	1.330413	0.164413
H377	H	0.671822	0.830348	-0.378409
H378	H	1.171822	1.330348	0.121591
H379	H	0.694699	0.451039	-0.312594
H380	H	1.194699	0.951039	0.187406
H381	H	0.849714	0.157806	-0.702783
H382	H	1.349714	0.657806	-0.202783
C383	C	0.859290	0.148228	-0.809631
C384	C	1.359290	0.648228	-0.309631
H385	H	0.879216	0.128330	-0.785551
H386	H	1.379216	0.628330	-0.285551
H387	H	0.839319	0.125434	-0.830933
H388	H	1.339319	0.625434	-0.330933
H389	H	0.882063	0.168231	-0.830931
H390	H	1.382063	0.668231	-0.330931
H391	H	0.816288	0.191174	-0.953941
H392	H	1.316288	0.691174	-0.453941
C393	C	0.685319	0.322018	-1.060753
C394	C	1.185319	0.822018	-0.560753
H395	H	0.665387	0.341930	-1.036662
H396	H	1.165387	0.841930	-0.536662
H397	H	0.705301	0.344798	-1.082059
H398	H	1.205301	0.844798	-0.582059
H399	H	0.662551	0.302006	-1.082047
H400	H	1.162551	0.802006	-0.582047
