data_functionalizedCrystal
_audit_creation_method	'MofGen! by Chris Wilmer'
_symmetry_space_group_name_H-M	'P1'
_symmetry_Int_Tables_number	1
_symmetry_cell_setting	triclinic
loop_
_symmetry_equiv_pos_as_xyz
  x,y,z
_cell_length_a	13.897448
_cell_length_b	19.805407
_cell_length_c	19.805399
_cell_angle_alpha	90.019573
_cell_angle_beta	89.974981
_cell_angle_gamma	89.982308
loop_
_atom_site_label
_atom_site_type_symbol
_atom_site_fract_x
_atom_site_fract_y
_atom_site_fract_z
Zn1	Zn	-0.384037	-1.034777	-0.382732
Zn2	Zn	-0.545343	-1.034709	-0.269549
Zn3	Zn	-0.384064	-0.921591	-0.269556
Zn4	Zn	-0.545292	-0.921572	-0.382695
O5	O	-0.464684	-0.978162	-0.326133
O6	O	-0.405445	-1.129484	-0.367730
O7	O	-0.523982	-1.019683	-0.174833
O8	O	-0.249079	-0.936642	-0.284588
O9	O	-0.523956	-1.129434	-0.284575
O10	O	-0.249059	-1.019799	-0.367737
O11	O	-0.405490	-0.936576	-0.174839
O12	O	-0.405441	-0.826872	-0.284552
O13	O	-0.523869	-0.936609	-0.477417
O14	O	-0.523894	-0.826858	-0.367675
O15	O	-0.405395	-1.019780	-0.477443
O16	O	-0.680318	-1.019664	-0.284539
O17	O	-0.680280	-0.936543	-0.367668
C18	C	-0.464666	-0.802306	-0.326111
C19	C	-0.464681	-0.727074	-0.326118
C20	C	-0.715298	-0.978113	-0.326113
C21	C	-0.822512	-0.978154	-0.326128
C22	C	-0.464623	-0.978200	-0.502676
C23	C	-0.464597	-0.978216	-0.577908
C24	C	-1.018807	-0.978225	-0.326170
C25	C	-0.909575	-0.978183	-0.326149
C26	C	-0.213091	-0.978230	-0.326167
C27	C	-0.105877	-0.978259	-0.326182
C28	C	-0.464703	-1.154705	-0.326155
C29	C	-0.464711	-1.229937	-0.326165
C30	C	-0.526453	-0.691740	-0.369330
C31	C	-0.526454	-0.621052	-0.369339
C32	C	-0.464688	-0.585699	-0.326133
C33	C	-0.402910	-0.621037	-0.282919
C34	C	-0.402904	-0.691725	-0.282913
C35	C	-0.402931	-0.335964	-0.282941
C36	C	-0.402944	-0.265272	-0.282949
C37	C	-0.526481	-0.265292	-0.369367
C38	C	-0.526476	-0.335979	-0.369362
C39	C	-0.464694	-0.371311	-0.326151
C40	C	-0.464692	-0.447960	-0.326142
C41	C	-0.464695	-0.509051	-0.326138
C42	C	-0.402905	-1.021524	-0.613267
C43	C	-0.402877	-1.021531	-0.683955
C44	C	-0.464547	-0.978233	-0.719283
C45	C	-0.526242	-0.934920	-0.683919
C46	C	-0.526264	-0.934910	-0.613232
C47	C	-0.526152	-0.934958	-0.968993
C48	C	-0.526127	-0.934973	-1.039685
C49	C	-0.402765	-1.021579	-1.039716
C50	C	-0.402787	-1.021570	-0.969029
C51	C	-0.464478	-0.978255	-0.933671
C52	C	-0.464507	-0.978247	-0.857022
C53	C	-0.464524	-0.978244	-0.795931
C54	C	-0.464675	-0.978163	-0.150277
C55	C	-0.464429	-0.978278	-0.075045
H56	H	-0.576753	-0.720520	-0.404511
H57	H	-0.352573	-1.056830	-0.940268
O58	O	-0.342694	-1.063618	-1.073989
C59	C	-0.246561	-1.048841	-1.056736
H60	H	-0.244579	-1.022814	-1.005407
H61	H	-0.203318	-1.097702	-1.054330
H62	H	-0.214049	-1.014058	-1.096516
H63	H	-0.576398	-0.899699	-0.940213
O64	O	-0.586062	-0.892843	-1.073899
C65	C	-0.640533	-0.854620	-1.027534
H66	H	-0.601042	-0.852279	-0.977151
H67	H	-0.650802	-0.801293	-1.047951
H68	H	-0.713801	-0.879380	-1.020010
O69	O	-0.586046	-0.892763	-0.718204
C70	C	-0.564979	-0.825307	-0.700909
H71	H	-0.487925	-0.821907	-0.681490
H72	H	-0.573273	-0.791873	-0.747387
H73	H	-0.616702	-0.807595	-0.659865
H74	H	-0.576490	-0.899638	-0.584444
H75	H	-0.352615	-0.592247	-0.247743
H76	H	-0.352632	-0.364723	-0.247751
O77	O	-0.586562	-0.586834	-0.411329
C78	C	-0.641068	-0.633195	-0.449467
H79	H	-0.644338	-0.683572	-0.421736
H80	H	-0.717087	-0.612764	-0.456583
H81	H	-0.605858	-0.640738	-0.500922
H82	H	-0.576775	-0.364760	-0.404542
H83	H	-0.576783	-0.236515	-0.404554
H84	H	-0.352641	-0.236489	-0.247765
O85	O	-0.342874	-0.725945	-0.240869
C86	C	-0.288344	-0.679586	-0.202745
H87	H	-0.327852	-0.629189	-0.200359
H88	H	-0.277957	-0.699989	-0.149427
H89	H	-0.215131	-0.672092	-0.227620
H90	H	-0.352690	-1.056785	-0.584508
H91	H	-0.352644	-1.056799	-0.712742
