data_functionalizedCrystal
_audit_creation_method	'MofGen! by Chris Wilmer'
_symmetry_space_group_name_H-M	'P1'
_symmetry_Int_Tables_number	1
_symmetry_cell_setting	triclinic
loop_
_symmetry_equiv_pos_as_xyz
  x,y,z
_cell_length_a	25.639242
_cell_length_b	25.639239
_cell_length_c	25.639234
_cell_angle_alpha	90.024905
_cell_angle_beta	90.029352
_cell_angle_gamma	90.034213
loop_
_atom_site_label
_atom_site_type_symbol
_atom_site_fract_x
_atom_site_fract_y
_atom_site_fract_z
Zn1	Zn	0.799262	-0.208245	0.295742
Zn2	Zn	1.132595	0.125088	0.629076
Zn3	Zn	1.465929	0.458422	0.962409
Zn4	Zn	0.799175	-0.295673	0.208307
Zn5	Zn	1.132508	0.037660	0.541640
Zn6	Zn	1.465841	0.370994	0.874973
Zn7	Zn	0.711827	-0.208247	0.208306
Zn8	Zn	1.045161	0.125087	0.541640
Zn9	Zn	1.378494	0.458420	0.874973
Zn10	Zn	0.711784	-0.295644	0.295696
Zn11	Zn	1.045117	0.037689	0.629030
Zn12	Zn	1.378450	0.371022	0.962363
O13	O	0.755512	-0.251952	0.252013
O14	O	1.088845	0.081381	0.585346
O15	O	1.422179	0.414714	0.918680
O16	O	0.872416	-0.219854	0.284163
O17	O	1.205749	0.113480	0.617496
O18	O	1.539082	0.446813	0.950830
O19	O	0.787570	-0.284089	0.135141
O20	O	1.120903	0.049245	0.468475
O21	O	1.454236	0.382578	0.801808
O22	O	0.723481	-0.135081	0.219924
O23	O	1.056814	0.198252	0.553257
O24	O	1.390148	0.531585	0.886591
O25	O	0.872351	-0.284087	0.219924
O26	O	1.205685	0.049246	0.553258
O27	O	1.539018	0.382580	0.886591
O28	O	0.787719	-0.135080	0.284163
O29	O	1.121052	0.198253	0.617496
O30	O	1.454385	0.531587	0.950829
O31	O	0.723396	-0.219857	0.135141
O32	O	1.056729	0.113477	0.468474
O33	O	1.390063	0.446810	0.801808
O34	O	0.638656	-0.219829	0.219880
O35	O	0.971990	0.113504	0.553213
O36	O	1.305323	0.446838	0.886546
O37	O	0.723406	-0.284038	0.368868
O38	O	1.056739	0.049295	0.702201
O39	O	1.390073	0.382629	1.035534
O40	O	0.638624	-0.284040	0.284085
O41	O	0.971958	0.049294	0.617418
O42	O	1.305291	0.382627	0.950751
O43	O	0.787676	-0.219826	0.368901
O44	O	1.121010	0.113507	0.702235
O45	O	1.454343	0.446841	1.035568
O46	O	0.787527	-0.368835	0.219880
O47	O	1.120860	-0.035501	0.553213
O48	O	1.454194	0.297832	0.886547
O49	O	0.723321	-0.368813	0.284085
O50	O	1.056655	-0.035480	0.617418
O51	O	1.389988	0.297853	0.950752
C52	C	0.619669	-0.251932	0.251977
C53	C	0.953003	0.081402	0.585311
C54	C	1.286336	0.414735	0.918644
C55	C	0.561555	-0.251935	0.251975
C56	C	0.894889	0.081398	0.585308
C57	C	1.228222	0.414731	0.918641
C58	C	0.201184	-0.285443	0.285413
C59	C	0.534518	0.047891	0.618746
C60	C	0.867851	0.381224	0.952080
C61	C	0.146580	-0.285446	0.285421
C62	C	0.479913	0.047887	0.618754
C63	C	0.813247	0.381221	0.952088
O64	O	0.118337	-0.313909	0.313821
O65	O	0.451670	0.019424	0.647155
O66	O	0.785003	0.352757	0.980488
N67	N	0.119273	-0.251967	0.252047
N68	N	0.452606	0.081367	0.585380
N69	N	0.785940	0.414700	0.918714
C70	C	0.146573	-0.218478	0.218666
C71	C	0.479906	0.114855	0.552000
C72	C	0.813240	0.448188	0.885333
O73	O	0.118332	-0.190002	0.190280
O74	O	0.451665	0.143332	0.523613
O75	O	0.784999	0.476665	0.856947
C76	C	0.201176	-0.218473	0.218661
C77	C	0.534510	0.114860	0.551994
C78	C	0.867843	0.448194	0.885328
C79	C	0.228481	-0.251958	0.252034
C80	C	0.561814	0.081375	0.585367
C81	C	0.895147	0.414709	0.918700
C82	C	0.228489	-0.318925	0.318783
C83	C	0.561822	0.014409	0.652116
C84	C	0.895155	0.347742	0.985450
C85	C	0.283089	-0.318922	0.318774
C86	C	0.616423	0.014411	0.652107
C87	C	0.949756	0.347745	0.985441
C88	C	0.310385	-0.285437	0.285395
C89	C	0.643719	0.047896	0.618728
C90	C	0.977052	0.381229	0.952061
C91	C	0.283081	-0.251955	0.252024
C92	C	0.616414	0.081378	0.585358
C93	C	0.949748	0.414711	0.918691
C94	C	0.228475	-0.184982	0.185283
C95	C	0.561809	0.148351	0.518617
C96	C	0.895142	0.481684	0.851950
C97	C	0.283082	-0.184980	0.185281
C98	C	0.616416	0.148354	0.518615
C99	C	0.949749	0.481687	0.851948
C100	C	0.310387	-0.218465	0.218654
C101	C	0.643720	0.114869	0.551987
C102	C	0.977053	0.448202	0.885320
C103	C	0.364978	-0.218468	0.218636
C104	C	0.698311	0.114865	0.551969
C105	C	1.031644	0.448198	0.885303
N106	N	0.392285	-0.251947	0.252010
N107	N	0.725618	0.081386	0.585344
N108	N	1.058952	0.414719	0.918677
C109	C	0.364989	-0.285432	0.285389
C110	C	0.698322	0.047901	0.618723
C111	C	1.031655	0.381235	0.952056
C112	C	0.031902	-0.218492	0.218680
C113	C	0.365236	0.114842	0.552014
C114	C	0.698569	0.448175	0.885347
C115	C	-0.022700	-0.218499	0.218683
C116	C	0.310633	0.114834	0.552016
C117	C	0.643967	0.448167	0.885349
C118	C	-0.022689	-0.285466	0.285438
C119	C	0.310644	0.047867	0.618772
C120	C	0.643978	0.381200	0.952105
C121	C	0.031914	-0.285461	0.285433
C122	C	0.365248	0.047872	0.618766
C123	C	0.698581	0.381206	0.952100
C124	C	0.059209	-0.251971	0.252054
C125	C	0.392543	0.081362	0.585388
C126	C	0.725876	0.414696	0.918721
C127	C	0.479654	-0.285424	0.285368
C128	C	0.812987	0.047909	0.618701
C129	C	1.146321	0.381242	0.952034
C130	C	0.534259	-0.285420	0.285354
C131	C	0.867593	0.047913	0.618687
C132	C	1.200926	0.381247	0.952021
C133	C	0.534243	-0.218451	0.218601
C134	C	0.867577	0.114882	0.551934
C135	C	1.200910	0.448215	0.885267
C136	C	0.479643	-0.218457	0.218612
C137	C	0.812976	0.114876	0.551945
C138	C	1.146310	0.448209	0.885279
C139	C	0.452349	-0.251945	0.252000
C140	C	0.785683	0.081388	0.585333
C141	C	1.119016	0.414721	0.918666
O142	O	0.393256	-0.190018	0.190252
O143	O	0.726589	0.143316	0.523585
O144	O	1.059923	0.476649	0.856918
O145	O	0.393236	-0.313899	0.313776
O146	O	0.726570	0.019434	0.647109
O147	O	1.059903	0.352768	0.980442
C148	C	0.755424	-0.387795	0.251989
C149	C	1.088757	-0.054462	0.585322
C150	C	1.422091	0.278872	0.918656
C151	C	0.755434	-0.445909	0.251996
C152	C	1.088768	-0.112576	0.585330
C153	C	1.422101	0.220758	0.918663
C154	C	0.789031	-0.806270	0.218638
C155	C	1.122365	-0.472937	0.551972
C156	C	1.455698	-0.139604	0.885305
C157	C	0.789051	-0.860875	0.218645
C158	C	1.122385	-0.527541	0.551979
C159	C	1.455718	-0.194208	0.885312
O160	O	0.817526	-0.889110	0.190257
O161	O	1.150859	-0.555777	0.523590
O162	O	1.484192	-0.222443	0.856924
N163	N	0.755604	-0.888191	0.252048
N164	N	1.088937	-0.554858	0.585381
N165	N	1.422271	-0.221525	0.918714
C166	C	0.722138	-0.860901	0.285449
C167	C	1.055471	-0.527568	0.618782
C168	C	1.388804	-0.194234	0.952115
O169	O	0.693690	-0.889150	0.313861
O170	O	1.027023	-0.555816	0.647194
O171	O	1.360357	-0.222483	0.980528
C172	C	0.722120	-0.806298	0.285444
C173	C	1.055454	-0.472964	0.618777
C174	C	1.388787	-0.139631	0.952111
C175	C	0.755566	-0.778984	0.252036
C176	C	1.088900	-0.445650	0.585369
C177	C	1.422233	-0.112317	0.918702
C178	C	0.822475	-0.778957	0.185233
C179	C	1.155808	-0.445623	0.518567
C180	C	1.489142	-0.112290	0.851900
C181	C	0.822454	-0.724356	0.185226
C182	C	1.155787	-0.391023	0.518559
C183	C	1.489121	-0.057689	0.851892
C184	C	0.788989	-0.697069	0.218623
C185	C	1.122322	-0.363736	0.551957
C186	C	1.455656	-0.030403	0.885290
C187	C	0.755545	-0.724383	0.252028
C188	C	1.088879	-0.391050	0.585362
C189	C	1.422212	-0.057717	0.918695
C190	C	0.688657	-0.779008	0.318847
C191	C	1.021990	-0.445675	0.652181
C192	C	1.355324	-0.112341	0.985514
C193	C	0.688643	-0.724401	0.318840
C194	C	1.021976	-0.391068	0.652173
C195	C	1.355310	-0.057734	0.985507
C196	C	0.722089	-0.697087	0.285432
C197	C	1.055422	-0.363754	0.618765
C198	C	1.388756	-0.030421	0.952099
C199	C	0.722059	-0.642496	0.285418
C200	C	1.055393	-0.309163	0.618752
C201	C	1.388726	0.024171	0.952085
N202	N	0.755507	-0.615179	0.252016
N203	N	1.088840	-0.281846	0.585349
N204	N	1.422174	0.051487	0.918683
C205	C	0.788972	-0.642466	0.218619
C206	C	1.122305	-0.309133	0.551952
C207	C	1.455638	0.024201	0.885285
C208	C	0.722177	-0.975571	0.285457
C209	C	1.055510	-0.642238	0.618790
C210	C	1.388844	-0.308905	0.952123
C211	C	0.722191	-1.030174	0.285459
C212	C	1.055524	-0.696840	0.618793
C213	C	1.388858	-0.363507	0.952126
C214	C	0.789106	-1.030144	0.218656
C215	C	1.122439	-0.696811	0.551990
C216	C	1.455773	-0.363477	0.885323
C217	C	0.789089	-0.975541	0.218652
C218	C	1.122422	-0.642207	0.551985
C219	C	1.455755	-0.308874	0.885318
C220	C	0.755625	-0.948255	0.252055
C221	C	1.088958	-0.614921	0.585388
C222	C	1.422291	-0.281588	0.918721
C223	C	0.788925	-0.527801	0.218605
C224	C	1.122258	-0.194468	0.551938
C225	C	1.455591	0.138866	0.885272
C226	C	0.788899	-0.473196	0.218599
C227	C	1.122232	-0.139862	0.551932
C228	C	1.455566	0.193471	0.885265
C229	C	0.721987	-0.473230	0.285403
C230	C	1.055320	-0.139897	0.618737
C231	C	1.388653	0.193436	0.952070
C232	C	0.722010	-0.527831	0.285408
C233	C	1.055343	-0.194498	0.618741
C234	C	1.388677	0.138836	0.952074
C235	C	0.755483	-0.555115	0.252007
C236	C	1.088817	-0.221782	0.585340
C237	C	1.422150	0.111552	0.918673
O238	O	0.693601	-0.614226	0.313794
O239	O	1.026935	-0.280893	0.647127
O240	O	1.360268	0.052441	0.980460
O241	O	0.817419	-0.614210	0.190216
O242	O	1.150753	-0.280877	0.523549
O243	O	1.484086	0.052456	0.856883
C244	C	0.891885	-0.251973	0.252049
C245	C	1.225218	0.081360	0.585382
C246	C	1.558552	0.414693	0.918715
C247	C	0.949999	-0.251982	0.252064
C248	C	1.283332	0.081351	0.585397
C249	C	1.616666	0.414684	0.918731
C250	C	0.755546	-0.251928	0.388386
C251	C	1.088879	0.081405	0.721719
C252	C	1.422213	0.414738	1.055053
C253	C	0.755560	-0.251918	0.446500
C254	C	1.088894	0.081415	0.779833
C255	C	1.422227	0.414748	1.113167
C256	C	0.755614	-0.115579	0.252048
C257	C	1.088948	0.217754	0.585382
C258	C	1.422281	0.551087	0.918715
C259	C	0.755658	-0.057465	0.252064
C260	C	1.088992	0.275868	0.585397
C261	C	1.422325	0.609201	0.918730
C262	C	0.755508	-0.251938	0.116170
C263	C	1.088842	0.081395	0.449504
C264	C	1.422175	0.414728	0.782837
C265	C	0.755595	-0.251801	0.058057
C266	C	1.088928	0.081532	0.391390
C267	C	1.422262	0.414865	0.724723
C268	C	0.722160	-0.218411	0.806869
C269	C	1.055493	0.114923	1.140202
C270	C	1.388827	0.448256	1.473535
C271	C	0.722163	-0.218401	0.861473
C272	C	1.055496	0.114932	1.194806
C273	C	1.388829	0.448266	1.528140
O274	O	0.693738	-0.189969	0.889714
O275	O	1.027071	0.143364	1.223048
O276	O	1.360405	0.476698	1.556381
N277	N	0.755578	-0.251836	0.888783
N278	N	1.088911	0.081497	1.222116
N279	N	1.422244	0.414830	1.555449
C280	C	0.788988	-0.285287	0.861485
C281	C	1.122322	0.048046	1.194819
C282	C	1.455655	0.381380	1.528152
O283	O	0.817411	-0.313726	0.889728
O284	O	1.150744	0.019608	1.223062
O285	O	1.484077	0.352941	1.556395
C286	C	0.788983	-0.285299	0.806882
C287	C	1.122316	0.048035	1.140215
C288	C	1.455649	0.381368	1.473549
C289	C	0.755569	-0.251857	0.779575
C290	C	1.088902	0.081476	1.112908
C291	C	1.422236	0.414809	1.446242
C292	C	0.688749	-0.184972	0.779562
C293	C	1.022082	0.148361	1.112895
C294	C	1.355415	0.481694	1.446228
C295	C	0.688747	-0.184981	0.724961
C296	C	1.022080	0.148352	1.058294
C297	C	1.355413	0.481685	1.391628
C298	C	0.722156	-0.218428	0.697668
C299	C	1.055489	0.114905	1.031001
C300	C	1.388823	0.448238	1.364334
C301	C	0.755567	-0.251866	0.724974
C302	C	1.088900	0.081467	1.058308
C303	C	1.422234	0.414800	1.391641
C304	C	0.822390	-0.318752	0.779585
C305	C	1.155724	0.014582	1.112919
C306	C	1.489057	0.347915	1.446252
C307	C	0.822381	-0.318761	0.724978
C308	C	1.155715	0.014573	1.058312
C309	C	1.489048	0.347906	1.391645
C310	C	0.788968	-0.285319	0.697672
C311	C	1.122301	0.048014	1.031005
C312	C	1.455634	0.381347	1.364338
C313	C	0.788974	-0.285322	0.643080
C314	C	1.122308	0.048011	0.976414
C315	C	1.455641	0.381344	1.309747
N316	N	0.755559	-0.251887	0.615771
N317	N	1.088893	0.081446	0.949104
N318	N	1.422226	0.414780	1.282437
C319	C	0.722150	-0.218440	0.643064
C320	C	1.055483	0.114893	0.976398
C321	C	1.388817	0.448227	1.309731
C322	C	0.788998	-0.285260	0.976156
C323	C	1.122331	0.048073	1.309489
C324	C	1.455664	0.381406	1.642823
C325	C	0.789006	-0.285246	1.030758
C326	C	1.122340	0.048087	1.364092
C327	C	1.455673	0.381420	1.697425
C328	C	0.722180	-0.218361	1.030742
C329	C	1.055513	0.114972	1.364076
C330	C	1.388847	0.448306	1.697409
C331	C	0.722174	-0.218373	0.976139
C332	C	1.055507	0.114960	1.309472
C333	C	1.388841	0.448294	1.642806
C334	C	0.755583	-0.251825	0.948846
C335	C	1.088916	0.081508	1.282180
C336	C	1.422249	0.414841	1.615513
C337	C	0.722149	-0.218461	0.528399
C338	C	1.055482	0.114872	0.861732
C339	C	1.388815	0.448206	1.195066
C340	C	0.722151	-0.218471	0.473794
C341	C	1.055485	0.114862	0.807127
C342	C	1.388818	0.448195	1.140460
C343	C	0.788976	-0.285358	0.473814
C344	C	1.122309	0.047975	0.807148
C345	C	1.455642	0.381308	1.140481
C346	C	0.788975	-0.285346	0.528415
C347	C	1.122309	0.047987	0.861748
C348	C	1.455642	0.381320	1.195082
C349	C	0.755558	-0.251896	0.555706
C350	C	1.088891	0.081437	0.889039
C351	C	1.422224	0.414771	1.222373
O352	O	0.817383	-0.313741	0.614804
O353	O	1.150716	0.019592	0.948138
O354	O	1.484050	0.352925	1.281471
O355	O	0.693728	-0.190011	0.614814
O356	O	1.027061	0.143322	0.948148
O357	O	1.360395	0.476656	1.281481
H358	H	-0.044924	-0.312730	0.312619
H359	H	0.288410	0.020604	0.645953
H360	H	0.621743	0.353937	0.979286
H361	H	0.206253	-0.157717	0.158106
H362	H	0.539587	0.175617	0.491440
H363	H	0.872920	0.508950	0.824773
H364	H	0.305303	-0.157704	0.158103
H365	H	0.638636	0.175629	0.491436
H366	H	0.971970	0.508962	0.824770
H367	H	0.206270	-0.346192	0.345967
H368	H	0.539603	-0.012859	0.679301
H369	H	0.872937	0.320475	1.012634
F370	F	0.824551	-0.556831	0.183056
F371	F	1.157884	-0.223498	0.516389
F372	F	1.491217	0.109836	0.849722
H373	H	0.694942	-0.191237	0.451563
H374	H	1.028275	0.142096	0.784896
H375	H	1.361609	0.475430	1.118229
H376	H	0.816209	-0.312498	0.953938
H377	H	1.149543	0.020835	1.287271
H378	H	1.482876	0.354168	1.620604
F379	F	0.857939	-0.354368	0.695935
F380	F	1.191272	-0.021034	1.029268
F381	F	1.524605	0.312299	1.362601
H382	H	0.556488	-0.312690	0.312530
H383	H	0.889821	0.020644	0.645864
H384	H	1.223155	0.353977	0.979197
F385	F	0.857951	-0.354348	0.808636
F386	F	1.191284	-0.021015	1.141969
F387	F	1.524618	0.312319	1.475302
H388	H	0.457411	-0.191192	0.191436
H389	H	0.790744	0.142141	0.524770
H390	H	1.124077	0.475475	0.858103
F391	F	0.824546	-0.320930	0.557478
F392	F	1.157879	0.012404	0.890811
F393	F	1.491212	0.345737	1.224145
H394	H	0.457438	-0.312692	0.312556
H395	H	0.790771	0.020641	0.645890
H396	H	1.124105	0.353974	0.979223
F397	F	0.563304	-0.182817	0.183077
F398	F	0.896637	0.150517	0.516411
F399	F	1.229970	0.483850	0.849744
H400	H	0.694922	-0.953358	0.312656
H401	H	1.028255	-0.620025	0.645989
H402	H	1.361589	-0.286691	0.979323
F403	F	-0.051754	-0.182866	0.183157
F404	F	0.281580	0.150467	0.516490
F405	F	0.614913	0.483800	0.849823
F406	F	0.686584	-0.182857	0.557436
F407	F	1.019918	0.150476	0.890770
F408	F	1.353251	0.483810	1.224103
F409	F	0.824498	-0.444129	0.183039
F410	F	1.157832	-0.110796	0.516373
F411	F	1.491165	0.222537	0.849706
H412	H	0.849690	-0.702120	0.158024
H413	H	1.183023	-0.368787	0.491357
H414	H	1.516357	-0.035454	0.824690
F415	F	0.858097	-0.807989	0.149685
F416	F	1.191430	-0.474656	0.483018
F417	F	1.524764	-0.141322	0.816352
H418	H	0.054123	-0.191221	0.191496
H419	H	0.387456	0.142113	0.524829
H420	H	0.720789	0.475446	0.858162
F421	F	0.653181	-0.149391	0.695906
F422	F	0.986514	0.183943	1.029239
F423	F	1.319847	0.517276	1.362573
H424	H	0.816324	-0.953305	0.191448
H425	H	1.149657	-0.619971	0.524782
H426	H	1.482990	-0.286638	0.858115
H427	H	0.816221	-0.312472	1.052987
H428	H	1.149554	0.020862	1.386320
H429	H	1.482888	0.354195	1.719654
F430	F	0.686374	-0.444180	0.320947
F431	F	1.019707	-0.110847	0.654280
F432	F	1.353041	0.222486	0.987613
F433	F	0.824722	-1.059194	0.183111
F434	F	1.158055	-0.725861	0.516444
F435	F	1.491388	-0.392527	0.849778
H436	H	0.661540	-0.157736	0.801778
H437	H	0.994874	0.175598	1.135112
H438	H	1.328207	0.508931	1.468445
F439	F	0.686587	-1.059237	0.321011
F440	F	1.019921	-0.725904	0.654344
F441	F	1.353254	-0.392571	0.987678
F442	F	0.686611	-0.182781	0.947082
F443	F	1.019944	0.150552	1.280415
F444	F	1.353277	0.483885	1.613748
H445	H	0.054142	-0.312727	0.312609
H446	H	0.387475	0.020607	0.645942
H447	H	0.720808	0.353940	0.979275
F448	F	0.653063	-0.808066	0.354410
F449	F	0.986396	-0.474732	0.687743
F450	F	1.319730	-0.141399	1.021077
H451	H	0.816178	-0.312589	0.451582
H452	H	1.149511	0.020745	0.784915
H453	H	1.482845	0.354078	1.118249
H454	H	0.305316	-0.346188	0.345950
H455	H	0.638649	-0.012855	0.679284
H456	H	0.971982	0.320479	1.012617
H457	H	0.661393	-0.702188	0.346042
H458	H	0.994726	-0.368854	0.679376
H459	H	1.328060	-0.035521	1.012709
H460	H	0.694777	-0.550071	0.312613
H461	H	1.028110	-0.216738	0.645946
H462	H	1.361444	0.116596	0.979280
H463	H	0.694976	-0.191127	1.052975
H464	H	1.028309	0.142206	1.386308
H465	H	1.361643	0.475540	1.719641
