data_functionalizedCrystal
_audit_creation_method	'MofGen! by Chris Wilmer'
_symmetry_space_group_name_H-M	'P1'
_symmetry_Int_Tables_number	1
_symmetry_cell_setting	triclinic
loop_
_symmetry_equiv_pos_as_xyz
  x,y,z
_cell_length_a	14.971486
_cell_length_b	10.268362
_cell_length_c	11.792254
_cell_angle_alpha	90.005455
_cell_angle_beta	83.906363
_cell_angle_gamma	89.999627
loop_
_atom_site_label
_atom_site_type_symbol
_atom_site_fract_x
_atom_site_fract_y
_atom_site_fract_z
O1	O	1.187543	0.108151	0.147907
O2	O	0.927214	0.108187	0.165619
O3	O	1.063690	0.108159	-0.008447
O4	O	1.051067	0.108179	0.321973
O5	O	1.063678	-0.108442	-0.008455
O6	O	0.927202	-0.108414	0.165612
O7	O	1.187531	-0.108450	0.147900
Cu8	Cu	1.057365	-0.128209	0.156755
Cu9	Cu	1.057379	0.127946	0.156764
O10	O	1.051055	-0.108422	0.321966
C11	C	0.893880	-0.000109	0.164823
C12	C	0.794574	-0.000096	0.162450
N13	N	1.057362	-0.308375	0.156748
C14	C	0.737762	-0.000092	0.264709
C15	C	0.644453	-0.000111	0.262472
C16	C	0.607958	-0.000126	0.157974
C17	C	0.664778	-0.000134	0.055707
C18	C	0.758084	-0.000124	0.057945
C19	C	0.470296	-0.000152	0.051049
C20	C	0.376983	-0.000160	0.048810
C21	C	0.356665	-0.000140	0.255575
C22	C	0.449972	-0.000129	0.257814
C23	C	0.506785	-0.000135	0.155546
C24	C	1.057375	-0.574046	0.156761
C25	C	1.057365	-0.426208	0.156757
C26	C	1.220865	-0.000151	0.148695
C27	C	1.320171	-0.000156	0.151069
C28	C	1.062889	-0.000141	-0.050737
C29	C	1.060509	-0.000140	-0.176734
N30	N	1.057390	0.308112	0.156761
C31	C	1.058575	-0.000135	-0.279058
C32	C	1.056157	-0.000122	-0.407429
C33	C	1.051856	-0.000119	0.364255
C34	C	1.054236	-0.000112	0.490253
H35	H	0.767468	-0.000079	0.349803
H36	H	0.479682	-0.000105	0.342905
H37	H	0.347273	-0.000174	-0.036281
C38	C	0.624640	-0.000149	-0.059241
H39	H	0.671842	-0.000161	-0.119823
H40	H	0.588660	0.075381	-0.064411
H41	H	0.588668	-0.075695	-0.064414
H42	H	0.598200	-0.000106	0.345742
C43	C	0.820577	-0.000116	-0.054540
H44	H	0.785481	-0.000112	-0.117096
H45	H	0.857406	-0.075643	-0.057971
H46	H	0.857391	0.075433	-0.057957
H47	H	0.310403	-0.000141	0.338845
H48	H	0.516551	-0.000159	-0.032229
