data_functionalizedCrystal
_audit_creation_method	'MofGen! by Chris Wilmer'
_symmetry_space_group_name_H-M	'P1'
_symmetry_Int_Tables_number	1
_symmetry_cell_setting	triclinic
loop_
_symmetry_equiv_pos_as_xyz
  x,y,z
_cell_length_a	16.959455
_cell_length_b	17.640280
_cell_length_c	16.959447
_cell_angle_alpha	101.226742
_cell_angle_beta	90.014701
_cell_angle_gamma	78.799886
loop_
_atom_site_label
_atom_site_type_symbol
_atom_site_fract_x
_atom_site_fract_y
_atom_site_fract_z
Zn1	Zn	1.272047	-0.314663	0.383378
Zn2	Zn	1.772047	0.185337	0.883378
Zn3	Zn	1.298714	-0.446849	0.224507
Zn4	Zn	1.798714	0.053151	0.724507
Zn5	Zn	1.139882	-0.314694	0.251208
Zn6	Zn	1.639882	0.185306	0.751208
Zn7	Zn	1.166574	-0.446796	0.356656
Zn8	Zn	1.666574	0.053204	0.856656
O9	O	1.219304	-0.380751	0.303937
O10	O	1.719304	0.119249	0.803937
O11	O	1.386197	-0.332207	0.362312
O12	O	1.886197	0.167793	0.862312
O13	O	1.277634	-0.429354	0.117431
O14	O	1.777634	0.070646	0.617431
O15	O	1.135083	-0.204084	0.291098
O16	O	1.635083	0.295916	0.791098
O17	O	1.405789	-0.429324	0.245591
O18	O	1.905789	0.070676	0.745591
O19	O	1.232184	-0.204062	0.388203
O20	O	1.732184	0.295938	0.888203
O21	O	1.160941	-0.332260	0.137048
O22	O	1.660941	0.167740	0.637048
O23	O	1.032810	-0.332208	0.265187
O24	O	1.532810	0.167792	0.765187
O25	O	1.180576	-0.429233	0.470818
O26	O	1.680576	0.070767	0.970818
O27	O	1.052420	-0.429263	0.342659
O28	O	1.552420	0.070737	0.842659
O29	O	1.258066	-0.332156	0.490451
O30	O	1.758066	0.167844	0.990451
O31	O	1.303516	-0.557448	0.219679
O32	O	1.803516	-0.057448	0.719679
O33	O	1.206433	-0.557409	0.316768
O34	O	1.706433	-0.057409	0.816768
C35	C	1.013934	-0.380733	0.303921
C36	C	1.513934	0.119267	0.803921
C37	C	0.926080	-0.380745	0.303929
C38	C	1.426080	0.119255	0.803929
C39	C	1.260786	-0.586107	0.262444
C40	C	1.760786	-0.086107	0.762444
C41	C	1.278605	-0.673960	0.244719
C42	C	1.778605	-0.173960	0.744719
C43	C	0.894990	-0.431237	0.243100
C44	C	1.394990	0.068763	0.743100
C45	C	0.874618	-0.330259	0.364763
C46	C	1.374618	0.169741	0.864763
C47	C	0.792073	-0.330265	0.364771
C48	C	1.292073	0.169735	0.864771
C49	C	0.760983	-0.380757	0.303942
C50	C	1.260983	0.119243	0.803942
C51	C	0.812438	-0.431243	0.243105
C52	C	1.312438	0.068757	0.743105
C53	C	0.740611	-0.279775	0.425603
C54	C	1.240611	0.220225	0.925603
C55	C	0.658061	-0.279778	0.425613
C56	C	1.158061	0.220222	0.925613
C57	C	0.626971	-0.330275	0.364786
C58	C	1.126971	0.169725	0.864786
C59	C	0.678431	-0.380764	0.303947
C60	C	1.178431	0.119236	0.803947
C61	C	0.647341	-0.431256	0.243119
C62	C	1.147341	0.068744	0.743119
C63	C	0.698801	-0.481749	0.182282
C64	C	1.198801	0.018251	0.682282
C65	C	0.781348	-0.481740	0.182279
C66	C	1.281348	0.018260	0.682279
C67	C	0.544424	-0.330284	0.364790
C68	C	1.044424	0.169716	0.864790
C69	C	0.564789	-0.431262	0.243124
C70	C	1.064789	0.068738	0.743124
C71	C	1.084263	-0.962931	0.438876
C72	C	1.584263	-0.462931	0.938876
C73	C	1.101008	-1.045481	0.422196
C74	C	1.601008	-0.545481	0.922196
C75	C	1.202163	-1.045457	0.321200
C76	C	1.702163	-0.545457	0.821200
C77	C	1.185430	-0.962904	0.337874
C78	C	1.685430	-0.462904	0.837874
C79	C	1.126478	-0.921648	0.396713
C80	C	1.626478	-0.421648	0.896713
C81	C	1.227644	-0.921621	0.295710
C82	C	1.727644	-0.421621	0.795710
C83	C	1.210909	-0.839076	0.312381
C84	C	1.710909	-0.339076	0.812381
C85	C	1.151959	-0.797814	0.371215
C86	C	1.651959	-0.297814	0.871215
C87	C	1.109743	-0.839103	0.413383
C88	C	1.609743	-0.339103	0.913383
C89	C	1.286592	-0.962879	0.236868
C90	C	1.786592	-0.462879	0.736868
C91	C	1.328807	-0.921597	0.194705
C92	C	1.828807	-0.421597	0.694705
C93	C	1.312075	-0.839050	0.211379
C94	C	1.812075	-0.339050	0.711379
C95	C	1.253125	-0.797788	0.270213
C96	C	1.753125	-0.297788	0.770213
C97	C	1.354291	-0.797761	0.169210
C98	C	1.854291	-0.297761	0.669210
C99	C	1.337556	-0.715216	0.185881
C100	C	1.837556	-0.215216	0.685881
C101	C	1.236390	-0.715242	0.286883
C102	C	1.736390	-0.215242	0.786883
C103	C	1.425476	-0.380768	0.303954
C104	C	1.925476	0.119232	0.803954
C105	C	1.513334	-0.380776	0.303961
C106	C	2.013334	0.119224	0.803961
C107	C	1.219324	-0.380685	0.510119
C108	C	1.719324	0.119315	1.010119
C109	C	1.219332	-0.380657	0.597981
C110	C	1.719332	0.119343	1.097981
C111	C	1.177682	-0.174592	0.345610
C112	C	1.677682	0.325408	0.845610
C113	C	1.159945	-0.086740	0.363368
C114	C	1.659945	0.413260	0.863368
C115	C	1.219319	-0.380759	0.098569
C116	C	1.719319	0.119241	0.598569
C117	C	1.219418	-0.380564	0.010752
C118	C	1.719418	0.119436	0.510752
C119	C	1.179064	-0.431118	0.959254
C120	C	1.679064	0.068882	1.459254
C121	C	1.259756	-0.330030	0.979693
C122	C	1.759756	0.169970	1.479693
C123	C	1.259738	-0.330047	0.897144
C124	C	1.759738	0.169953	1.397144
C125	C	1.219384	-0.380601	0.845646
C126	C	1.719384	0.119399	1.345646
C127	C	1.179047	-0.431138	0.876697
C128	C	1.679047	0.068862	1.376697
C129	C	1.300081	-0.279517	0.866085
C130	C	1.800081	0.220483	1.366085
C131	C	1.300066	-0.279532	0.783531
C132	C	1.800066	0.220468	1.283531
C133	C	1.259706	-0.330082	0.732032
C134	C	1.759706	0.169918	1.232032
C135	C	1.219367	-0.380621	0.763088
C136	C	1.719367	0.119379	1.263088
C137	C	1.179012	-0.431174	0.711590
C138	C	1.679012	0.068826	1.211590
C139	C	1.138668	-0.481709	0.742645
C140	C	1.638668	0.018291	1.242645
C141	C	1.138687	-0.481688	0.825198
C142	C	1.638687	0.018312	1.325198
C143	C	1.259687	-0.330104	0.649479
C144	C	1.759687	0.169896	1.149479
C145	C	1.178995	-0.431194	0.629032
C146	C	1.678995	0.068806	1.129032
H147	H	0.539483	-0.472383	0.193591
H148	H	1.039483	0.027617	0.693591
H149	H	1.402284	-0.831365	0.121299
H150	H	1.902284	-0.331365	0.621299
H151	H	1.105844	-0.522833	0.850490
H152	H	1.605844	-0.022833	1.350490
H153	H	0.673476	-0.522856	0.132753
H154	H	1.173476	-0.022856	0.632753
Cl155	Cl	1.131100	-0.694041	0.392356
Cl156	Cl	1.631100	-0.194041	0.892356
H157	H	0.765930	-0.238664	0.475124
H158	H	1.265930	0.261336	0.975124
H159	H	1.146214	-0.472260	0.984544
H160	H	1.646214	0.027740	1.484544
H161	H	0.936893	-0.472350	0.193571
H162	H	1.436893	0.027650	0.693571
H163	H	1.292537	-0.288961	0.624197
H164	H	1.792537	0.211039	1.124197
H165	H	1.061744	-0.805510	0.461301
H166	H	1.561744	-0.305510	0.961301
H167	H	1.300217	-1.030093	0.223299
H168	H	1.800217	-0.530093	0.723299
Cl169	Cl	1.310491	-0.266486	1.044432
Cl170	Cl	1.810491	0.233514	1.544432
H171	H	1.250159	-1.079059	0.273291
H172	H	1.750159	-0.579059	0.773291
Cl173	Cl	1.350816	-0.215974	0.930826
Cl174	Cl	1.850816	0.284026	1.430826
H175	H	1.188391	-0.681650	0.334801
H176	H	1.688391	-0.181650	0.834801
H177	H	0.899936	-0.289147	0.414284
H178	H	1.399936	0.210853	0.914284
H179	H	1.376802	-0.955199	0.146796
H180	H	1.876802	-0.455199	0.646796
H181	H	0.823253	-0.522847	0.132748
H182	H	1.323253	-0.022847	0.632748
Cl183	Cl	0.593377	-0.216307	0.502095
Cl184	Cl	1.093377	0.283693	1.002095
H185	H	1.371931	-0.681603	0.151546
H186	H	1.871931	-0.181603	0.651546
H187	H	0.502528	-0.289167	0.414317
H188	H	1.002528	0.210833	0.914317
Cl189	Cl	1.350780	-0.216001	0.744498
Cl190	Cl	1.850780	0.283999	1.244498
H191	H	1.036265	-0.929338	0.486795
H192	H	1.536265	-0.429338	0.986795
H193	H	1.146125	-0.472355	0.587108
H194	H	1.646125	0.027645	1.087108
Cl195	Cl	1.047922	-1.097377	0.475200
Cl196	Cl	1.547922	-0.597377	0.975200
H197	H	1.105815	-0.522874	0.700704
H198	H	1.605815	-0.022874	1.200704
