data_functionalizedCrystal
_audit_creation_method	'MofGen! by Chris Wilmer'
_symmetry_space_group_name_H-M	'P1'
_symmetry_Int_Tables_number	1
_symmetry_cell_setting	triclinic
loop_
_symmetry_equiv_pos_as_xyz
  x,y,z
_cell_length_a	21.395362
_cell_length_b	21.395364
_cell_length_c	21.395356
_cell_angle_alpha	90.017542
_cell_angle_beta	90.027748
_cell_angle_gamma	90.025457
loop_
_atom_site_label
_atom_site_type_symbol
_atom_site_fract_x
_atom_site_fract_y
_atom_site_fract_z
Zn1	Zn	0.249493	-0.957821	-0.354281
Zn2	Zn	0.749493	-0.457821	0.145719
Zn3	Zn	0.354271	-0.957743	-0.249504
Zn4	Zn	0.854271	-0.457743	0.250496
Zn5	Zn	0.249506	-0.853051	-0.249516
Zn6	Zn	0.749506	-0.353051	0.250484
Zn7	Zn	0.354232	-0.853010	-0.354242
Zn8	Zn	0.854232	-0.353010	0.145758
O9	O	0.301876	-0.905406	-0.301886
O10	O	0.801876	-0.405406	0.198114
O11	O	0.263403	-1.045489	-0.340393
O12	O	0.763403	-0.545489	0.159607
O13	O	0.340395	-0.943840	-0.161828
O14	O	0.840395	-0.443840	0.338172
O15	O	0.161827	-0.866998	-0.263434
O16	O	0.661827	-0.366998	0.236566
O17	O	0.340382	-1.045432	-0.263414
O18	O	0.840382	-0.545432	0.236586
O19	O	0.161817	-0.943973	-0.340404
O20	O	0.661817	-0.443973	0.159596
O21	O	0.263425	-0.866923	-0.161836
O22	O	0.763425	-0.366923	0.338164
O23	O	0.263388	-0.765368	-0.263397
O24	O	0.763388	-0.265368	0.236603
O25	O	0.340317	-0.866929	-0.441925
O26	O	0.840317	-0.366929	0.058075
O27	O	0.340330	-0.765338	-0.340339
O28	O	0.840330	-0.265338	0.159661
O29	O	0.263365	-0.943933	-0.441954
O30	O	0.763365	-0.443933	0.058046
O31	O	0.441943	-0.943801	-0.263377
O32	O	0.941943	-0.443801	0.236623
O33	O	0.441915	-0.866854	-0.340328
O34	O	0.941915	-0.366854	0.159672
C35	C	0.301856	-0.742619	-0.301865
C36	C	0.801856	-0.242619	0.198135
C37	C	0.301863	-0.672978	-0.301871
C38	C	0.801863	-0.172978	0.198129
C39	C	0.342002	-0.171182	-0.341900
C40	C	0.842002	0.328818	0.158100
C41	C	0.342003	-0.236618	-0.341894
C42	C	0.842003	0.263382	0.158106
C43	C	0.301880	-0.269339	-0.301896
C44	C	0.801880	0.230661	0.198104
C45	C	0.261764	-0.236620	-0.261889
C46	C	0.761764	0.263380	0.238111
C47	C	0.261769	-0.171186	-0.261891
C48	C	0.761769	0.328814	0.238109
C49	C	0.245417	-0.373026	-0.297046
C50	C	0.745417	0.126974	0.202954
C51	C	0.245412	-0.438459	-0.297048
C52	C	0.745412	0.061541	0.202952
C53	C	0.301866	-0.471160	-0.301885
C54	C	0.801866	0.028840	0.198115
C55	C	0.358329	-0.438420	-0.306734
C56	C	0.858329	0.061580	0.193266
C57	C	0.358333	-0.372986	-0.306736
C58	C	0.858333	0.127014	0.193264
C59	C	0.301871	-0.340292	-0.301889
C60	C	0.801871	0.159708	0.198111
C61	C	0.341984	-0.574824	-0.341881
C62	C	0.841984	-0.074824	0.158119
C63	C	0.341986	-0.640261	-0.341871
C64	C	0.841986	-0.140261	0.158129
C65	C	0.261742	-0.640262	-0.261869
C66	C	0.761742	-0.140262	0.238131
C67	C	0.261745	-0.574826	-0.261875
C68	C	0.761745	-0.074826	0.238125
C69	C	0.301865	-0.542111	-0.301885
C70	C	0.801865	-0.042111	0.198115
C71	C	0.464663	-0.905332	-0.301861
C72	C	0.964663	-0.405332	0.198139
C73	C	0.534304	-0.905357	-0.301871
C74	C	1.034304	-0.405357	0.198129
C75	C	1.036094	-0.945618	-0.261943
C76	C	1.536094	-0.445618	0.238057
C77	C	0.970659	-0.945595	-0.261926
C78	C	1.470659	-0.445595	0.238074
C79	C	0.937943	-0.905490	-0.301951
C80	C	1.437943	-0.405490	0.198049
C81	C	0.970667	-0.865395	-0.341984
C82	C	1.470667	-0.365395	0.158016
C83	C	1.036101	-0.865415	-0.341995
C84	C	1.536101	-0.365415	0.158005
C85	C	0.834242	-0.900475	-0.358378
C86	C	1.334242	-0.400475	0.141622
C87	C	0.768809	-0.900460	-0.358368
C88	C	1.268809	-0.400460	0.141632
C89	C	0.736122	-0.905425	-0.301916
C90	C	1.236122	-0.405425	0.198084
C91	C	0.768876	-0.910419	-0.245473
C92	C	1.268876	-0.410419	0.254527
C93	C	0.834310	-0.910439	-0.245484
C94	C	1.334310	-0.410439	0.254516
C95	C	0.866990	-0.905464	-0.301943
C96	C	1.366990	-0.405464	0.198057
C97	C	0.632453	-0.945490	-0.261864
C98	C	1.132453	-0.445490	0.238136
C99	C	0.567016	-0.945462	-0.261846
C100	C	1.067016	-0.445462	0.238154
C101	C	0.567026	-0.865266	-0.341910
C102	C	1.067026	-0.365266	0.158090
C103	C	0.632461	-0.865290	-0.341922
C104	C	1.132461	-0.365290	0.158078
C105	C	0.665171	-0.905406	-0.301900
C106	C	1.165171	-0.405406	0.198100
C107	C	1.138452	-0.905497	-0.301933
C108	C	1.638452	-0.405497	0.198067
C109	C	1.068811	-0.905530	-0.301973
C110	C	1.568811	-0.405530	0.198027
C111	C	0.301835	-0.905436	-0.465309
C112	C	0.801835	-0.405436	0.034691
C113	C	0.301818	-0.905448	-0.534950
C114	C	0.801818	-0.405448	-0.034950
C115	C	0.301892	-0.068830	-0.301903
C116	C	0.801892	0.431170	0.198097
C117	C	0.301889	-0.138471	-0.301900
C118	C	0.801889	0.361529	0.198100
C119	C	0.261650	-0.945603	-1.036762
C120	C	0.761650	-0.445603	-0.536762
C121	C	0.261665	-0.945598	-0.971327
C122	C	0.761665	-0.445598	-0.471327
C123	C	0.301735	-0.905502	-0.938589
C124	C	0.801735	-0.405502	-0.438589
C125	C	0.341804	-0.865419	-0.971292
C126	C	0.841804	-0.365419	-0.471292
C127	C	0.341792	-0.865429	-1.036726
C128	C	0.841792	-0.365429	-0.536726
C129	C	0.306694	-0.849033	-0.834912
C130	C	0.806694	-0.349033	-0.334912
C131	C	0.306702	-0.849021	-0.769479
C132	C	0.806702	-0.349021	-0.269479
C133	C	0.301775	-0.905470	-0.736768
C134	C	0.801775	-0.405470	-0.236768
C135	C	0.296827	-0.961931	-0.769498
C136	C	0.796827	-0.461931	-0.269498
C137	C	0.296816	-0.961942	-0.834932
C138	C	0.796816	-0.461942	-0.334932
C139	C	0.301752	-0.905486	-0.867636
C140	C	0.801752	-0.405486	-0.367636
C141	C	0.261728	-0.945548	-0.633121
C142	C	0.761728	-0.445548	-0.133121
C143	C	0.261747	-0.945544	-0.567684
C144	C	0.761747	-0.445544	-0.067684
C145	C	0.341883	-0.865359	-0.567650
C146	C	0.841883	-0.365359	-0.067650
C147	C	0.341867	-0.865368	-0.633085
C148	C	0.841867	-0.365368	-0.133085
C149	C	0.301786	-0.905462	-0.665817
C150	C	0.801786	-0.405462	-0.165817
C151	C	0.301870	-0.905414	-0.139098
C152	C	0.801870	-0.405414	0.360902
C153	C	0.301711	-0.905523	-0.069457
C154	C	0.801711	-0.405523	0.430543
H155	H	0.404307	-0.346332	-0.310682
H156	H	0.904307	0.153668	0.189318
H157	H	0.229040	-0.978236	-0.944702
H158	H	0.729040	-0.478236	-0.444702
C159	C	0.385961	-0.821253	-0.531642
C160	C	0.885961	-0.321253	-0.031642
N161	N	0.419163	-0.788033	-0.504517
N162	N	0.919163	-0.288033	-0.004517
C163	C	0.312139	-0.786912	-0.733482
C164	C	0.812139	-0.286912	-0.233482
N165	N	0.316235	-0.740130	-0.706371
N166	N	0.816235	-0.240130	-0.206371
H167	H	0.742262	-0.914464	-0.199505
H168	H	1.242262	-0.414464	0.300495
H169	H	0.310707	-0.803063	-0.861540
H170	H	0.810707	-0.303063	-0.361540
H171	H	0.199442	-0.346406	-0.293096
H172	H	0.699442	0.153594	0.206904
C173	C	0.870192	-0.895024	-0.420484
C174	C	1.370192	-0.395024	0.079516
N175	N	0.897268	-0.890923	-0.467262
N176	N	1.397268	-0.390923	0.032738
H177	H	1.062723	-0.978281	-0.229351
H178	H	1.562723	-0.478281	0.270649
C179	C	0.291411	-1.024030	-0.733521
C180	C	0.791411	-0.524030	-0.233521
N181	N	0.287331	-1.070801	-0.706421
N182	N	0.787331	-0.570801	-0.206421
C183	C	0.217625	-0.272615	-0.217895
C184	C	0.717625	0.227385	0.282105
N185	N	0.184378	-0.299726	-0.184757
N186	N	0.684378	0.200274	0.315243
H187	H	0.374655	-0.666893	-0.374441
H188	H	0.874655	-0.166893	0.125559
H189	H	0.404299	-0.465044	-0.310677
H190	H	0.904299	0.034956	0.189323
C191	C	0.386121	-0.538835	-0.385887
C192	C	0.886121	-0.038835	0.114113
N193	N	0.419365	-0.511731	-0.419032
N194	N	0.919365	-0.011731	0.080968
H195	H	0.659086	-0.978153	-0.229275
H196	H	1.159086	-0.478153	0.270725
C197	C	0.386127	-0.272608	-0.385902
C198	C	0.886127	0.227392	0.114098
N199	N	0.419360	-0.299713	-0.419051
N200	N	0.919360	0.200287	0.080949
C201	C	0.217564	-0.989712	-1.072763
C202	C	0.717564	-0.489712	-0.572763
N203	N	0.184360	-1.022936	-1.099880
N204	N	0.684360	-0.522936	-0.599880
C205	C	0.934678	-0.821281	-0.386013
C206	C	1.434678	-0.321281	0.113987
N207	N	0.907571	-0.788053	-0.419176
N208	N	1.407571	-0.288053	0.080824
H209	H	0.199436	-0.465111	-0.293107
H210	H	0.699436	0.034889	0.206893
C211	C	0.217645	-0.989657	-0.669127
C212	C	0.717645	-0.489657	-0.169127
N213	N	0.184442	-1.022883	-0.696246
N214	N	0.684442	-0.522883	-0.196246
C215	C	0.217608	-0.676252	-0.217868
C216	C	0.717608	-0.176252	0.282132
N217	N	0.184366	-0.703362	-0.184725
N218	N	0.684366	-0.203362	0.315275
C219	C	0.217609	-0.538842	-0.217881
C220	C	0.717609	-0.038842	0.282119
N221	N	0.184364	-0.511739	-0.184742
N222	N	0.684364	-0.011739	0.315258
C223	C	0.217635	-0.135202	-0.217892
C224	C	0.717635	0.364798	0.282108
N225	N	0.184390	-0.108098	-0.184753
N226	N	0.684390	0.391902	0.315247
H227	H	0.944016	-0.978240	-0.229327
H228	H	1.444016	-0.478240	0.270673
C229	C	0.385861	-0.821332	-1.072691
C230	C	0.885861	-0.321332	-0.572691
N231	N	0.419052	-0.788115	-1.099781
N232	N	0.919052	-0.288115	-0.599781
C233	C	0.732787	-0.894965	-0.420456
C234	C	1.232787	-0.394965	0.079544
N235	N	0.705656	-0.890825	-0.467223
N236	N	1.205656	-0.390825	0.032777
C237	C	0.668451	-0.821195	-0.385964
C238	C	1.168451	-0.321195	0.114036
N239	N	0.695558	-0.787979	-0.419138
N240	N	1.195558	-0.287979	0.080862
H241	H	0.540378	-0.978104	-0.229245
H242	H	1.040378	-0.478104	0.270755
C243	C	0.385879	-0.821311	-0.935278
C244	C	0.885879	-0.321311	-0.435278
N245	N	0.419079	-0.788088	-0.908153
N246	N	0.919079	-0.288088	-0.408153
H247	H	0.374486	-0.832728	-0.659706
H248	H	0.874486	-0.332728	-0.159706
C249	C	0.217673	-0.989636	-0.531720
C250	C	0.717673	-0.489636	-0.031720
N251	N	0.184473	-1.022846	-0.504631
N252	N	0.684473	-0.522846	-0.004631
H253	H	0.860975	-0.914504	-0.199526
H254	H	1.360975	-0.414504	0.300474
H255	H	0.540389	-0.832610	-0.374497
H256	H	1.040389	-0.332610	0.125503
H257	H	1.062739	-0.832771	-0.374595
H258	H	1.562739	-0.332771	0.125405
H259	H	0.292789	-1.007915	-0.861579
H260	H	0.792789	-0.507915	-0.361579
H261	H	0.374673	-0.144550	-0.374476
H262	H	0.874673	0.355450	0.125524
