data_functionalizedCrystal
_audit_creation_method	'MofGen! by Chris Wilmer'
_symmetry_space_group_name_H-M	'P1'
_symmetry_Int_Tables_number	1
_symmetry_cell_setting	triclinic
loop_
_symmetry_equiv_pos_as_xyz
  x,y,z
_cell_length_a	27.271600
_cell_length_b	9.582860
_cell_length_c	9.582880
_cell_angle_alpha	90.100092
_cell_angle_beta	111.206715
_cell_angle_gamma	68.793552
loop_
_atom_site_label
_atom_site_type_symbol
_atom_site_fract_x
_atom_site_fract_y
_atom_site_fract_z
V1	V	-1.039083	0.206404	-0.466307
O2	O	-1.025083	-0.010590	-0.457713
O3	O	-1.036609	0.409909	-0.462846
O4	O	-1.036610	0.202943	-0.669813
O5	O	-1.025083	0.197809	-0.249314
V6	V	-1.157494	0.180480	-0.440384
O7	O	-1.109812	0.263263	-0.523166
O8	O	-1.199314	0.123619	-0.383522
O9	O	-1.104166	-0.023024	-0.443845
O10	O	-1.200843	0.397473	-0.448977
O11	O	-1.200843	0.189074	-0.657377
O12	O	-1.104166	0.183942	-0.236879
V13	V	-0.907492	0.180485	-0.440389
O14	O	-0.921492	0.189080	-0.657382
O15	O	-0.909965	0.183945	-0.236883
O16	O	-0.909965	-0.023020	-0.443849
O17	O	-0.921491	0.397479	-0.448983
V18	V	-0.789080	0.206409	-0.466312
O19	O	-0.836762	0.123626	-0.383530
O20	O	-0.747261	0.263270	-0.523173
O21	O	-0.842409	0.202947	-0.669817
O22	O	-0.745731	0.197814	-0.249319
O23	O	-0.745732	-0.010584	-0.457718
O24	O	-0.842408	0.409913	-0.462850
V25	V	-1.289081	0.206399	-0.466302
O26	O	-1.275082	-0.010595	-0.457708
O27	O	-1.286608	0.409904	-0.462841
O28	O	-1.286608	0.202938	-0.669808
O29	O	-1.275081	0.197804	-0.249309
V30	V	-1.407493	0.180475	-0.440379
O31	O	-1.359811	0.263258	-0.523161
O32	O	-1.449312	0.123614	-0.383517
O33	O	-1.354165	-0.023029	-0.443840
O34	O	-1.450841	0.397468	-0.448972
O35	O	-1.450842	0.189069	-0.657372
O36	O	-1.354164	0.183937	-0.236874
V37	V	-0.657492	0.180485	-0.440389
O38	O	-0.671490	0.189079	-0.657381
O39	O	-0.659967	0.183948	-0.236885
O40	O	-0.659967	-0.023018	-0.443851
O41	O	-0.671490	0.397478	-0.448982
V42	V	-0.539077	0.206399	-0.466302
O43	O	-0.586762	0.123622	-0.383525
O44	O	-0.497256	0.263256	-0.523159
O45	O	-0.592405	0.202940	-0.669809
O46	O	-0.495730	0.197803	-0.249308
O47	O	-0.495730	-0.010595	-0.457707
O48	O	-0.592404	0.409905	-0.462843
C49	C	-0.999890	0.459529	-0.455421
C50	C	-1.018253	0.625896	-0.453947
C51	C	-0.999890	0.195522	-0.719425
C52	C	-1.018253	0.194039	-0.885789
C53	C	-1.056722	-0.072635	-0.451269
C54	C	-1.033168	-0.238999	-0.452752
C55	C	-1.056721	0.191370	-0.187261
C56	C	-1.033168	0.192845	-0.020895
C57	C	-0.946684	0.191372	-0.187263
C58	C	-0.928321	0.192849	-0.020898
C59	C	-0.946685	-0.072632	-0.451272
C60	C	-0.928323	-0.238997	-0.452758
C61	C	-0.889853	0.195523	-0.719427
C62	C	-0.913407	0.194038	-0.885791
C63	C	-0.889853	0.459532	-0.455425
C64	C	-0.913408	0.625899	-0.453958
C65	C	-1.249889	0.459524	-0.455416
C66	C	-1.268252	0.625891	-0.453942
C67	C	-1.249889	0.195517	-0.719420
C68	C	-1.268251	0.194034	-0.885784
C69	C	-1.306720	-0.072640	-0.451264
C70	C	-1.283167	-0.239004	-0.452747
C71	C	-1.306720	0.191365	-0.187256
C72	C	-1.283167	0.192840	-0.020890
C73	C	-0.696687	0.191378	-0.187269
C74	C	-0.678325	0.192855	-0.020903
C75	C	-0.696688	-0.072627	-0.451278
C76	C	-0.678328	-0.238991	-0.452764
C77	C	-0.639850	0.195519	-0.719423
C78	C	-0.663402	0.194034	-0.885787
C79	C	-0.639850	0.459528	-0.455421
C80	C	-0.663403	0.625895	-0.453954
