data_functionalizedCrystal
_audit_creation_method	'MofGen! by Chris Wilmer'
_symmetry_space_group_name_H-M	'P1'
_symmetry_Int_Tables_number	1
_symmetry_cell_setting	triclinic
loop_
_symmetry_equiv_pos_as_xyz
  x,y,z
_cell_length_a	11.169416
_cell_length_b	13.033293
_cell_length_c	11.169409
_cell_angle_alpha	82.788591
_cell_angle_beta	89.969126
_cell_angle_gamma	97.180672
loop_
_atom_site_label
_atom_site_type_symbol
_atom_site_fract_x
_atom_site_fract_y
_atom_site_fract_z
Zn1	Zn	-0.244860	1.597832	-0.912094
Zn2	Zn	0.255140	2.097832	-0.412094
Zn3	Zn	-0.445614	1.597736	-0.711402
Zn4	Zn	0.054386	2.097736	-0.211402
Zn5	Zn	-0.270400	1.423056	-0.685883
Zn6	Zn	0.229600	1.923056	-0.185883
Zn7	Zn	-0.470968	1.423063	-0.886516
Zn8	Zn	0.029032	1.923063	-0.386516
O9	O	-0.357960	1.510422	-0.798974
O10	O	0.142040	2.010422	-0.298974
O11	O	-0.250191	1.744065	-0.906855
O12	O	0.249809	2.244065	-0.406855
O13	O	-0.422449	1.574521	-0.540060
O14	O	0.077551	2.074521	-0.040060
O15	O	-0.099056	1.446278	-0.715915
O16	O	0.400944	1.946278	-0.215915
O17	O	-0.397684	1.743994	-0.759408
O18	O	0.102316	2.243994	-0.259408
O19	O	-0.080292	1.574685	-0.882111
O20	O	0.419708	2.074685	-0.382111
O21	O	-0.293720	1.446185	-0.521312
O22	O	0.206280	1.946185	-0.021312
O23	O	-0.318305	1.276811	-0.691113
O24	O	0.181695	1.776811	-0.191113
O25	O	-0.440897	1.446289	-1.057865
O26	O	0.059103	1.946289	-0.557865
O27	O	-0.465662	1.276816	-0.838518
O28	O	0.034338	1.776816	-0.338518
O29	O	-0.274776	1.574692	-1.076657
O30	O	0.225224	2.074692	-0.576657
O31	O	-0.616933	1.574527	-0.734607
O32	O	-0.116933	2.074527	-0.234607
O33	O	-0.635560	1.446196	-0.863263
O34	O	-0.135560	1.946196	-0.363263
C35	C	-0.397507	1.238894	-0.759272
C36	C	0.102493	1.738894	-0.259272
C37	C	-0.414454	1.122733	-0.742316
C38	C	0.085546	1.622733	-0.242316
C39	C	-0.349146	1.070980	-0.807823
C40	C	0.150854	1.570980	-0.307823
C41	C	-0.366660	0.950921	-0.790300
C42	C	0.133340	1.450921	-0.290300
C43	C	-0.669791	1.510380	-0.798958
C44	C	-0.169791	2.010380	-0.298958
C45	C	-0.803180	1.510458	-0.799006
C46	C	-0.303180	2.010458	-0.299006
C47	C	-0.044908	1.510492	-0.799019
C48	C	0.455092	2.010492	-0.299019
C49	C	0.088497	1.510522	-0.799039
C50	C	0.588497	2.010522	-0.299039
C51	C	-0.357815	1.510502	-1.112028
C52	C	0.142185	2.010502	-0.612028
C53	C	-0.357754	1.510536	-1.245433
C54	C	0.142246	2.010536	-0.745433
C55	C	-0.318260	1.783010	-0.838831
C56	C	0.181740	2.283010	-0.338831
C57	C	-0.301342	1.899171	-0.855816
C58	C	0.198658	2.399171	-0.355816
C59	C	-0.358009	1.510402	-0.487146
C60	C	0.141991	2.010402	0.012854
C61	C	-0.357704	1.510570	-0.353771
C62	C	0.142296	2.010570	0.146229
H63	H	-0.483330	1.078158	-0.673257
H64	H	0.016670	1.578158	-0.173257
O65	O	-0.210096	0.958193	-0.947303
O66	O	0.289904	1.458193	-0.447303
H67	H	-0.210663	1.043229	-0.946720
H68	H	0.289337	1.543229	-0.446720
O69	O	-0.257896	1.130013	-0.899292
O70	O	0.242104	1.630013	-0.399292
H71	H	-0.281595	1.109162	-0.990432
H72	H	0.218405	1.609162	-0.490432
H73	H	-0.435541	0.906351	-0.721236
H74	H	0.064459	1.406351	-0.221236
