data_functionalizedCrystal
_audit_creation_method	'MofGen! by Chris Wilmer'
_symmetry_space_group_name_H-M	'P1'
_symmetry_Int_Tables_number	1
_symmetry_cell_setting	triclinic
loop_
_symmetry_equiv_pos_as_xyz
  x,y,z
_cell_length_a	16.109302
_cell_length_b	12.503567
_cell_length_c	16.109301
_cell_angle_alpha	86.482070
_cell_angle_beta	96.538369
_cell_angle_gamma	86.475616
loop_
_atom_site_label
_atom_site_type_symbol
_atom_site_fract_x
_atom_site_fract_y
_atom_site_fract_z
O1	O	1.107936	-0.089373	-0.102059
O2	O	1.357936	0.160627	0.147941
O3	O	1.607936	0.410627	0.397941
O4	O	1.857936	0.660627	0.647941
O5	O	0.865874	-0.089365	-0.115358
O6	O	1.115874	0.160635	0.134642
O7	O	1.365874	0.410635	0.384642
O8	O	1.615874	0.660635	0.634642
O9	O	0.993554	-0.089358	0.012322
O10	O	1.243554	0.160642	0.262322
O11	O	1.493554	0.410642	0.512322
O12	O	1.743554	0.660642	0.762322
O13	O	0.980256	-0.089379	-0.229739
O14	O	1.230256	0.160621	0.020261
O15	O	1.480256	0.410621	0.270261
O16	O	1.730256	0.660621	0.520261
O17	O	0.983940	0.089284	0.002709
O18	O	1.233940	0.339284	0.252709
O19	O	1.483940	0.589284	0.502709
O20	O	1.733940	0.839284	0.752709
O21	O	0.856259	0.089277	-0.124971
O22	O	1.106259	0.339277	0.125029
O23	O	1.356259	0.589277	0.375029
O24	O	1.606259	0.839277	0.625029
O25	O	1.098322	0.089269	-0.111672
O26	O	1.348322	0.339269	0.138328
O27	O	1.598322	0.589269	0.388328
O28	O	1.848322	0.839269	0.638328
Cu29	Cu	0.976413	0.105585	-0.119199
Cu30	Cu	1.226413	0.355585	0.130801
Cu31	Cu	1.476413	0.605585	0.380801
Cu32	Cu	1.726413	0.855585	0.630801
Cu33	Cu	0.987783	-0.105680	-0.107831
Cu34	Cu	1.237783	0.144320	0.142169
Cu35	Cu	1.487783	0.394320	0.392169
Cu36	Cu	1.737783	0.644320	0.642169
O37	O	0.970641	0.089263	-0.239351
O38	O	1.220641	0.339263	0.010649
O39	O	1.470641	0.589263	0.260649
O40	O	1.720641	0.839263	0.510649
C41	C	0.830092	-0.000042	-0.119626
C42	C	1.080092	0.249958	0.130374
C43	C	1.330092	0.499958	0.380374
C44	C	1.580092	0.749958	0.630374
C45	C	0.737796	-0.000039	-0.118010
C46	C	0.987796	0.249961	0.131990
C47	C	1.237796	0.499961	0.381990
C48	C	1.487796	0.749961	0.631990
N49	N	0.968422	0.254177	-0.127194
N50	N	1.218422	0.504177	0.122806
N51	N	1.468422	0.754177	0.372806
N52	N	1.718422	1.004177	0.622806
C53	C	0.520215	0.097328	-0.119515
C54	C	0.770215	0.347328	0.130485
C55	C	1.020215	0.597328	0.380485
C56	C	1.270215	0.847328	0.630485
C57	C	0.433495	0.097325	-0.117988
C58	C	0.683495	0.347325	0.132012
C59	C	0.933495	0.597325	0.382012
C60	C	1.183495	0.847325	0.632012
C61	C	0.443988	-0.097441	-0.107512
C62	C	0.693988	0.152559	0.142488
C63	C	0.943988	0.402559	0.392488
C64	C	1.193988	0.652559	0.642488
C65	C	0.530707	-0.097436	-0.109033
C66	C	0.780707	0.152564	0.140967
C67	C	1.030707	0.402564	0.390967
C68	C	1.280707	0.652564	0.640967
C69	C	0.568817	-0.000048	-0.115039
C70	C	0.818817	0.249952	0.134961
C71	C	1.068817	0.499952	0.384961
C72	C	1.318817	0.749952	0.634961
C73	C	0.395378	-0.000056	-0.111991
C74	C	0.645378	0.249944	0.138009
C75	C	0.895378	0.499944	0.388009
C76	C	1.145378	0.749944	0.638009
C77	C	0.301353	-0.000061	-0.110335
C78	C	0.551353	0.249939	0.139665
C79	C	0.801353	0.499939	0.389665
C80	C	1.051353	0.749939	0.639665
C81	C	0.662849	-0.000043	-0.116693
C82	C	0.912849	0.249957	0.133307
C83	C	1.162849	0.499957	0.383307
C84	C	1.412849	0.749957	0.633307
C85	C	1.007526	0.526612	-0.088076
C86	C	1.257526	0.776612	0.161924
C87	C	1.507526	1.026612	0.411924
C88	C	1.757526	1.276612	0.661924
C89	C	0.956674	0.473286	-0.138955
C90	C	1.206674	0.723286	0.111045
C91	C	1.456674	0.973286	0.361045
C92	C	1.706674	1.223286	0.611045
C93	C	0.963212	0.351362	-0.132409
C94	C	1.213212	0.601362	0.117591
C95	C	1.463212	0.851362	0.367591
C96	C	1.713212	1.101362	0.617591
C97	C	1.000989	0.648547	-0.094620
C98	C	1.250989	0.898547	0.155380
C99	C	1.500989	1.148547	0.405380
C100	C	1.750989	1.398547	0.655380
C101	C	1.134104	-0.000055	-0.107404
C102	C	1.384104	0.249945	0.142596
C103	C	1.634104	0.499945	0.392596
C104	C	1.884104	0.749945	0.642596
C105	C	1.226400	-0.000066	-0.109019
C106	C	1.476400	0.249934	0.140981
C107	C	1.726400	0.499934	0.390981
C108	C	1.976400	0.749934	0.640981
C109	C	0.988208	-0.000036	0.038490
C110	C	1.238208	0.249964	0.288490
C111	C	1.488208	0.499964	0.538490
C112	C	1.738208	0.749964	0.788490
C113	C	0.986593	-0.000035	0.130786
C114	C	1.236593	0.249965	0.380786
C115	C	1.486593	0.499965	0.630786
C116	C	1.736593	0.749965	0.880786
N117	N	0.995775	0.745728	-0.099839
N118	N	1.245775	0.995728	0.150161
N119	N	1.495775	1.245728	0.400161
N120	N	1.745775	1.495728	0.650161
C121	C	0.975987	-0.000061	-0.265520
C122	C	1.225987	0.249939	-0.015520
C123	C	1.475987	0.499939	0.234480
C124	C	1.725987	0.749939	0.484480
C125	C	0.977603	-0.000070	-0.357815
C126	C	1.227603	0.249930	-0.107815
C127	C	1.477603	0.499930	0.142185
C128	C	1.727603	0.749930	0.392185
C129	C	1.058601	-0.000054	0.353059
C130	C	1.308601	0.249946	0.603059
C131	C	1.558601	0.499946	0.853059
C132	C	1.808601	0.749946	1.103059
C133	C	1.057078	-0.000063	0.439780
C134	C	1.307078	0.249937	0.689780
C135	C	1.557078	0.499937	0.939780
C136	C	1.807078	0.749937	1.189780
C137	C	0.905589	-0.000054	0.419905
C138	C	1.155589	0.249946	0.669905
C139	C	1.405589	0.499946	0.919905
C140	C	1.655589	0.749946	1.169905
C141	C	0.907114	-0.000053	0.333187
C142	C	1.157114	0.249947	0.583187
C143	C	1.407114	0.499947	0.833187
C144	C	1.657114	0.749947	1.083187
C145	C	0.983622	-0.000047	0.299766
C146	C	1.233622	0.249953	0.549766
C147	C	1.483622	0.499953	0.799766
C148	C	1.733622	0.749953	1.049766
C149	C	0.980574	-0.000057	0.473205
C150	C	1.230574	0.249943	0.723205
C151	C	1.480574	0.499943	0.973205
C152	C	1.730574	0.749943	1.223205
C153	C	0.978921	-0.000067	0.567232
C154	C	1.228921	0.249933	0.817232
C155	C	1.478921	0.499933	1.067232
C156	C	1.728921	0.749933	1.317232
C157	C	0.985275	-0.000040	0.205733
C158	C	1.235275	0.249960	0.455733
C159	C	1.485275	0.499960	0.705733
C160	C	1.735275	0.749960	0.955733
H161	H	0.551242	0.176628	-0.124405
H162	H	0.801242	0.426628	0.125595
H163	H	1.051242	0.676628	0.375595
H164	H	1.301242	0.926628	0.625595
O165	O	0.380985	0.202291	-0.122877
O166	O	0.630985	0.452291	0.127123
O167	O	0.880985	0.702291	0.377123
O168	O	1.130985	0.952291	0.627123
H169	H	0.402459	0.249089	-0.069079
H170	H	0.652459	0.499089	0.180921
H171	H	0.902459	0.749089	0.430921
H172	H	1.152459	0.999089	0.680921
O173	O	0.402882	-0.202478	-0.101047
O174	O	0.652882	0.047522	0.148953
O175	O	0.902882	0.297522	0.398953
O176	O	1.152882	0.547522	0.648953
H177	H	0.334414	-0.186124	-0.100751
H178	H	0.584414	0.063876	0.149249
H179	H	0.834414	0.313876	0.399249
H180	H	1.084414	0.563876	0.649249
H181	H	0.843298	-0.000056	0.447127
H182	H	1.093298	0.249944	0.697127
H183	H	1.343298	0.499944	0.947127
H184	H	1.593298	0.749944	1.197127
H185	H	0.570281	-0.176736	-0.105385
H186	H	0.820281	0.073264	0.144615
H187	H	1.070281	0.323264	0.394615
H188	H	1.320281	0.573264	0.644615
H189	H	0.908228	0.519199	-0.187430
H190	H	1.158228	0.769199	0.062570
H191	H	1.408228	1.019199	0.312570
H192	H	1.658228	1.269199	0.562570
O193	O	1.071681	0.465810	-0.023850
O194	O	1.321681	0.715810	0.226150
O195	O	1.571681	0.965810	0.476150
O196	O	1.821681	1.215810	0.726150
H197	H	1.066807	0.378201	-0.028720
H198	H	1.316807	0.628201	0.221280
H199	H	1.566807	0.878201	0.471280
H200	H	1.816807	1.128201	0.721280
H201	H	1.120900	-0.000052	0.325851
H202	H	1.370900	0.249948	0.575851
H203	H	1.620900	0.499948	0.825851
H204	H	1.870900	0.749948	1.075851
H205	H	0.846053	-0.000050	0.289793
H206	H	1.096053	0.249950	0.539793
H207	H	1.346053	0.499950	0.789793
H208	H	1.596053	0.749950	1.039793
O209	O	1.137947	-0.000057	0.497263
O210	O	1.387947	0.249943	0.747263
O211	O	1.637947	0.499943	0.997263
O212	O	1.887947	0.749943	1.247263
H213	H	1.191400	-0.000042	0.459450
H214	H	1.441400	0.249958	0.709450
H215	H	1.691400	0.499958	0.959450
H216	H	1.941400	0.749958	1.209450
