data_functionalizedCrystal
_audit_creation_method	'MofGen! by Chris Wilmer'
_symmetry_space_group_name_H-M	'P1'
_symmetry_Int_Tables_number	1
_symmetry_cell_setting	triclinic
loop_
_symmetry_equiv_pos_as_xyz
  x,y,z
_cell_length_a	27.731994
_cell_length_b	19.188905
_cell_length_c	17.666332
_cell_angle_alpha	89.983521
_cell_angle_beta	89.998007
_cell_angle_gamma	97.122314
loop_
_atom_site_label
_atom_site_type_symbol
_atom_site_fract_x
_atom_site_fract_y
_atom_site_fract_z
O1	O	-0.060292	0.925759	-0.063059
O2	O	-0.068429	0.722392	-0.063031
O3	O	0.006019	0.830411	-0.063057
O4	O	-0.134740	0.817740	-0.063033
O5	O	0.006023	0.830392	0.062839
O6	O	-0.068425	0.722373	0.062866
O7	O	-0.060288	0.925741	0.062838
Cu8	Cu	-0.064356	0.824055	0.074347
Cu9	Cu	-0.064361	0.824077	-0.074540
O10	O	-0.134736	0.817721	0.062864
C11	C	-0.068165	0.696373	-0.000079
C12	C	-0.067380	0.618872	-0.000070
C13	C	-0.067005	0.582493	-0.068698
C14	C	-0.066262	0.509675	-0.068708
C15	C	-0.065885	0.473240	-0.000085
C16	C	-0.066262	0.509627	0.068553
C17	C	-0.067010	0.582443	0.068560
N18	N	-0.037201	0.364403	0.050979
N19	N	-0.036490	0.295230	0.050968
C20	C	-0.063633	0.253848	-0.000104
N21	N	-0.091508	0.284252	-0.051174
N22	N	-0.092218	0.353431	-0.051164
C23	C	-0.065074	0.394283	-0.000085
C24	C	-0.062453	0.138511	-0.068747
C25	C	-0.061713	0.065690	-0.068754
C26	C	-0.061708	0.065645	0.068508
C27	C	-0.062453	0.138463	0.068513
C28	C	-0.062823	0.174892	-0.000117
C29	C	-0.152746	0.817991	-0.000082
C30	C	-0.206405	0.818774	-0.000073
C31	C	-0.539140	0.823718	-0.068734
C32	C	-0.740807	0.826695	-0.068745
O33	O	-0.766883	0.827119	-0.127109
N34	N	-0.766021	0.827055	-0.000119
C35	C	-0.740815	0.826675	0.068514
O36	O	-0.766887	0.827056	0.126885
C37	C	-0.539148	0.823702	0.068525
C38	C	-0.513937	0.823335	-0.000105
C39	C	-0.513929	0.823352	-0.137358
C40	C	-0.463516	0.822604	-0.137355
C41	C	-0.438313	0.822221	-0.068726
C42	C	-0.463524	0.822587	-0.000102
C43	C	-0.513942	0.823327	0.137158
C44	C	-0.463522	0.822585	0.137155
C45	C	-0.438311	0.822219	0.068524
C46	C	-0.387908	0.821457	0.068530
N47	N	-0.362694	0.821097	-0.000095
C48	C	-0.387897	0.821479	-0.068724
C49	C	-0.846693	0.828234	0.068504
C50	C	-0.897109	0.828976	0.068501
C51	C	-0.897098	0.828998	-0.068758
C52	C	-0.846681	0.828251	-0.068755
C53	C	-0.821479	0.827874	-0.000122
C54	C	-0.282025	0.819908	-0.068711
C55	C	-0.231607	0.819156	-0.068701
C56	C	-0.231623	0.819138	0.068558
C57	C	-0.282036	0.819886	0.068549
C58	C	-0.307236	0.820273	-0.000092
O59	O	-0.361800	0.821040	0.126864
O60	O	-0.361814	0.821114	-0.127085
C61	C	-0.589554	0.824466	-0.068737
C62	C	-0.614764	0.824832	-0.000112
C63	C	-0.589561	0.824449	0.068516
C64	C	-0.665181	0.825574	-0.000115
C65	C	-0.690383	0.825956	-0.068743
C66	C	-0.665170	0.825596	-0.137369
C67	C	-0.614756	0.824848	-0.137365
C68	C	-0.614775	0.824809	0.137142
C69	C	-0.665189	0.825556	0.137133
C70	C	-0.690392	0.825939	0.068504
C71	C	0.024029	0.830142	-0.000113
C72	C	0.077688	0.829358	-0.000127
C73	C	-0.060551	0.951760	-0.000115
C74	C	-0.061336	1.029260	-0.000130
N75	N	-0.064352	0.824044	0.179067
N76	N	-0.064360	0.824093	-0.179260
C77	C	-0.031403	0.871891	0.218665
C78	C	-0.031401	0.871895	0.297912
C79	C	-0.064356	0.824059	0.337559
C80	C	-0.097308	0.776204	0.297951
C81	C	-0.097306	0.776197	0.218705
N82	N	-0.107148	0.814698	0.461985
N83	N	-0.107148	0.814709	0.537266
C84	C	-0.064363	0.824078	0.576323
N85	N	-0.021576	0.833448	0.537255
N86	N	-0.021576	0.833440	0.461968
C87	C	-0.064361	0.824062	0.423488
C88	C	-0.031408	0.871931	0.701850
C89	C	-0.031405	0.871930	0.781099
C90	C	-0.097317	0.776243	0.781136
C91	C	-0.097316	0.776240	0.701889
C92	C	-0.064362	0.824088	0.662250
H93	H	-0.211084	0.818855	-0.124591
C94	C	-0.065847	0.469552	0.144039
C95	C	-0.107915	0.471135	0.200663
C96	C	-0.107502	0.431060	0.276152
C97	C	-0.065021	0.389401	0.295016
C98	C	-0.022949	0.387816	0.238390
C99	C	-0.023362	0.427891	0.162902
H100	H	-0.139365	0.501975	0.186699
H101	H	-0.138646	0.432233	0.318069
H102	H	-0.064715	0.359735	0.350897
H103	H	0.008501	0.356976	0.252354
H104	H	0.007782	0.426718	0.120984
C105	C	-0.061301	0.025671	-0.144251
C106	C	-0.018824	-0.015982	-0.163134
C107	C	-0.018412	-0.056000	-0.238634
C108	C	-0.060477	-0.054366	-0.295250
C109	C	-0.102958	-0.012711	-0.276369
C110	C	-0.103370	0.027307	-0.200869
H111	H	0.012318	-0.017193	-0.121222
H112	H	0.013036	-0.086836	-0.252611
H113	H	-0.060172	-0.083990	-0.351139
H114	H	-0.134100	-0.011500	-0.318281
H115	H	-0.134817	0.058143	-0.186892
C116	C	-0.062866	0.178587	-0.144236
C117	C	-0.062462	0.138565	-0.219730
C118	C	-0.062875	0.178639	-0.295219
C119	C	-0.063693	0.258735	-0.295215
C120	C	-0.064098	0.298762	-0.219718
C121	C	-0.063684	0.258688	-0.144229
H122	H	-0.061856	0.079269	-0.219736
H123	H	-0.062576	0.149009	-0.351107
H124	H	-0.063999	0.288401	-0.351097
H125	H	-0.064703	0.358058	-0.219712
H126	H	-0.063984	0.288318	-0.088341
H127	H	-0.061404	0.035979	0.124382
H128	H	-0.067316	0.612063	0.124447
C129	C	-0.067418	0.622560	-0.144191
C130	C	-0.025351	0.620967	-0.200817
C131	C	-0.025765	0.661033	-0.276311
C132	C	-0.068245	0.702692	-0.295180
C133	C	-0.110315	0.704287	-0.238553
C134	C	-0.109901	0.664220	-0.163059
H135	H	0.006098	0.590127	-0.186850
H136	H	0.005379	0.659852	-0.318230
H137	H	-0.068551	0.732351	-0.351065
H138	H	-0.141764	0.735126	-0.252520
H139	H	-0.141045	0.665401	-0.121140
C140	C	-0.065846	0.469649	-0.144204
C141	C	-0.107295	0.411189	-0.163085
C142	C	-0.106878	0.371167	-0.238581
C143	C	-0.065012	0.389604	-0.295197
C144	C	-0.023560	0.448066	-0.276317
C145	C	-0.023977	0.488088	-0.200821
H146	H	-0.138290	0.397539	-0.121174
H147	H	-0.137564	0.327889	-0.252557
H148	H	-0.064703	0.359977	-0.351084
H149	H	0.007435	0.461716	-0.318228
H150	H	0.006709	0.531366	-0.186845
C151	C	-0.818952	0.827853	-0.144249
C152	C	-0.789915	0.766695	-0.163121
C153	C	-0.762188	0.766299	-0.238619
C154	C	-0.763499	0.827062	-0.295244
C155	C	-0.792537	0.888225	-0.276374
C156	C	-0.820263	0.888621	-0.200876
H157	H	-0.788944	0.721710	-0.121202
H158	H	-0.740692	0.721022	-0.252588
H159	H	-0.742974	0.826769	-0.351132
H160	H	-0.793508	0.933210	-0.318293
H161	H	-0.841759	0.933898	-0.186907
C162	C	-0.587027	0.824453	-0.212860
C163	C	-0.557993	0.763293	-0.231738
C164	C	-0.530267	0.762900	-0.307237
C165	C	-0.531576	0.823667	-0.363858
C166	C	-0.560612	0.884832	-0.344981
C167	C	-0.588338	0.885224	-0.269483
H168	H	-0.557023	0.718306	-0.189823
H169	H	-0.508773	0.717622	-0.321210
H170	H	-0.511052	0.823377	-0.419747
H171	H	-0.561582	0.929819	-0.386897
H172	H	-0.609832	0.930502	-0.255509
H173	H	-0.124148	0.737282	0.669646
C174	C	-0.587061	0.824398	0.212643
C175	C	-0.599630	0.763846	0.269275
C176	C	-0.571921	0.763437	0.344784
C177	C	-0.531643	0.823580	0.363662
C178	C	-0.519072	0.884137	0.307029
C179	C	-0.546781	0.884546	0.231520
H180	H	-0.629448	0.719320	0.255302
H181	H	-0.581226	0.718609	0.386707
H182	H	-0.511130	0.823278	0.419559
H183	H	-0.489254	0.928663	0.321003
H184	H	-0.537475	0.929374	0.189597
C185	C	-0.435799	0.822163	0.212653
C186	C	-0.448363	0.761602	0.269275
C187	C	-0.420641	0.761174	0.344771
C188	C	-0.380354	0.821307	0.363645
C189	C	-0.367788	0.881872	0.307021
C190	C	-0.395510	0.882300	0.231525
H191	H	-0.478188	0.717084	0.255305
H192	H	-0.429943	0.716340	0.386688
H193	H	-0.359833	0.820991	0.419532
H194	H	-0.337964	0.926390	0.320991
H195	H	-0.386208	0.927135	0.189608
H196	H	-0.062755	0.168084	0.124398
H197	H	-0.004568	0.910858	0.330159
C198	C	-0.133555	0.723566	0.175141
C199	C	-0.169821	0.670965	0.218743
C200	C	-0.206071	0.618335	0.175178
C201	C	-0.206056	0.618308	0.088010
C202	C	-0.169789	0.670912	0.044403
C203	C	-0.133539	0.723541	0.087969
H204	H	-0.169833	0.670983	0.283274
H205	H	-0.232918	0.579395	0.207459
H206	H	-0.232890	0.579349	0.055760
H207	H	-0.169777	0.670893	-0.020128
H208	H	-0.106692	0.762481	0.055688
C209	C	-0.818969	0.827817	0.144002
C210	C	-0.778688	0.887959	0.162872
C211	C	-0.750964	0.887541	0.238367
C212	C	-0.763522	0.826981	0.294993
C213	C	-0.803805	0.766835	0.276125
C214	C	-0.831528	0.767253	0.200629
H215	H	-0.769390	0.932793	0.120953
H216	H	-0.721144	0.932065	0.252335
H217	H	-0.742999	0.826672	0.350880
H218	H	-0.813102	0.722001	0.318044
H219	H	-0.861349	0.722729	0.186662
C220	C	-0.309741	0.820329	-0.144215
C221	C	-0.297173	0.880882	-0.200845
C222	C	-0.324889	0.881297	-0.276348
C223	C	-0.365173	0.821159	-0.295220
C224	C	-0.377742	0.760602	-0.238588
C225	C	-0.350026	0.760186	-0.163086
H226	H	-0.267351	0.925403	-0.186876
H227	H	-0.315584	0.926126	-0.318271
H228	H	-0.385690	0.821467	-0.351112
H229	H	-0.407564	0.716080	-0.252557
H230	H	-0.359331	0.715357	-0.121163
H231	H	-0.004574	0.910890	0.669575
C232	C	-0.924826	0.829423	-0.144252
C233	C	-0.912269	0.889988	-0.200872
C234	C	-0.939999	0.890418	-0.276361
C235	C	-0.980285	0.830284	-0.295230
C236	C	-0.992844	0.769714	-0.238609
C237	C	-0.965114	0.769284	-0.163120
H238	H	-0.882445	0.934507	-0.186904
H239	H	-0.930702	0.935256	-0.318275
H240	H	-1.000812	0.830603	-0.351112
H241	H	-1.022668	0.725195	-0.252576
H242	H	-0.974412	0.724446	-0.121206
H243	H	-0.442994	0.822310	-0.193241
C244	C	0.004849	0.924515	0.175061
C245	C	0.041097	0.977145	0.218620
C246	C	0.077350	1.029767	0.175013
C247	C	0.077354	1.029759	0.087845
C248	C	0.041104	0.977127	0.044280
C249	C	0.004851	0.924505	0.087888
H250	H	0.041096	0.977153	0.283152
H251	H	0.104184	1.068729	0.207263
H252	H	0.104190	1.068713	0.055564
H253	H	0.041105	0.977119	-0.020251
H254	H	-0.021983	0.885543	0.055638
H255	H	-0.534444	0.823665	-0.193247
H256	H	-0.004571	0.910890	0.813341
H257	H	-0.124140	0.737254	0.330235
H258	H	-0.534459	0.823633	0.193044
H259	H	-0.917633	0.829261	0.124387
C260	C	-0.203888	0.818716	0.144042
C261	C	-0.174851	0.757549	0.162913
C262	C	-0.147112	0.757131	0.238395
C263	C	-0.148411	0.817879	0.295005
C264	C	-0.177449	0.879050	0.276135
C265	C	-0.205188	0.879468	0.200653
H266	H	-0.173888	0.712576	0.121006
H267	H	-0.125616	0.711847	0.252364
H268	H	-0.127877	0.817569	0.350882
H269	H	-0.178411	0.924023	0.318043
H270	H	-0.226684	0.924752	0.186684
H271	H	-0.302566	0.820156	0.124433
H272	H	-0.685699	0.825903	-0.193249
H273	H	-0.685712	0.825848	0.193024
H274	H	-0.124148	0.737291	0.813416
