data_functionalizedCrystal
_audit_creation_method	'MofGen! by Chris Wilmer'
_symmetry_space_group_name_H-M	'P1'
_symmetry_Int_Tables_number	1
_symmetry_cell_setting	triclinic
loop_
_symmetry_equiv_pos_as_xyz
  x,y,z
_cell_length_a	10.654554
_cell_length_b	23.532357
_cell_length_c	9.130313
_cell_angle_alpha	89.993247
_cell_angle_beta	89.999583
_cell_angle_gamma	83.657567
loop_
_atom_site_label
_atom_site_type_symbol
_atom_site_fract_x
_atom_site_fract_y
_atom_site_fract_z
O1	O	1.665264	0.079997	-0.121825
O2	O	1.299542	0.087615	-0.121829
O3	O	1.493464	0.000944	-0.121797
O4	O	1.471342	0.166667	-0.121857
O5	O	1.493462	0.000947	0.121802
O6	O	1.299540	0.087617	0.121770
O7	O	1.665262	0.079999	0.121773
Cu8	Cu	1.482401	0.083808	0.144014
Cu9	Cu	1.482404	0.083806	-0.144070
O10	O	1.471340	0.166670	0.121741
C11	C	1.252761	0.087056	-0.000030
C12	C	1.113372	0.085381	-0.000029
C13	C	0.932548	0.031201	-0.000022
C14	C	1.063519	0.032774	-0.000012
C15	C	1.032246	0.136417	-0.000042
C16	C	0.901277	0.134843	-0.000041
C17	C	0.882703	-0.021409	-0.000020
C18	C	0.963820	-0.072446	-0.000004
C19	C	1.094791	-0.070872	0.000006
C20	C	1.144645	-0.018262	0.000000
C21	C	1.492910	-0.020275	0.000007
C22	C	1.491246	-0.083504	0.000021
C23	C	1.480803	-0.475585	-0.132844
C24	C	1.479222	-0.534995	-0.132853
O25	O	1.478363	-0.565718	-0.245782
N26	N	1.478436	-0.564710	-0.000069
C27	C	1.479220	-0.535011	0.132732
O28	O	1.478405	-0.565741	0.245675
C29	C	1.480792	-0.475602	0.132739
C30	C	1.481590	-0.445891	-0.000053
C31	C	1.481600	-0.445874	-0.265626
C32	C	1.483184	-0.386468	-0.265617
C33	C	1.483971	-0.356774	-0.132826
C34	C	1.483174	-0.386485	-0.000045
C35	C	1.481566	-0.445904	0.265539
C36	C	1.483138	-0.386491	0.265534
C37	C	1.483936	-0.356780	0.132741
C38	C	1.485545	-0.297386	0.132755
N39	N	1.486330	-0.267671	-0.000029
C40	C	1.485543	-0.297365	-0.132819
C41	C	1.475915	-0.659774	0.132708
C42	C	1.474352	-0.719183	0.132703
C43	C	1.474352	-0.719162	-0.132883
C44	C	1.475924	-0.659753	-0.132876
C45	C	1.476701	-0.630059	-0.000076
C46	C	1.488870	-0.172609	-0.132791
C47	C	1.490459	-0.113198	-0.132770
C48	C	1.490453	-0.113224	0.132814
C49	C	1.488870	-0.172630	0.132795
C50	C	1.488075	-0.202320	-0.000020
O51	O	1.486400	-0.266625	0.245627
O52	O	1.486341	-0.266626	-0.245743
C53	C	1.712043	0.080558	-0.000029
C54	C	1.851432	0.082233	-0.000039
C55	C	1.471894	0.187889	-0.000066
C56	C	1.473558	0.251118	-0.000089
N57	N	1.482408	0.083810	0.346637
N58	N	1.482407	0.083799	-0.346692
C59	C	1.568298	0.045445	0.423303
C60	C	1.568295	0.045439	0.576640
C61	C	1.396507	0.122166	0.576631
C62	C	1.396505	0.122169	0.423297
C63	C	1.654201	0.007086	0.346643
C64	C	1.740099	-0.031281	0.423309
C65	C	1.740096	-0.031288	0.576646
C66	C	1.654194	0.007072	0.653317
H67	H	0.835230	0.176398	-0.000049
O68	O	1.488035	-0.204673	0.276029
H69	H	1.572921	-0.236479	0.282384
O70	O	1.086006	0.193159	-0.000054
H71	H	1.144918	0.196358	-0.099349
O72	O	1.832713	-0.072665	0.340611
H73	H	1.893443	-0.048439	0.270746
O74	O	1.480693	-0.477936	0.408773
H75	H	1.565577	-0.509742	0.415161
H76	H	1.810029	-0.062532	0.639066
O77	O	0.910050	-0.129186	0.000019
H78	H	0.988462	-0.164408	0.000052
H79	H	1.251292	-0.016985	0.000022
O80	O	1.473512	-0.751230	0.275924
H81	H	1.388210	-0.735092	0.339595
O82	O	1.491303	-0.081150	-0.276001
H83	H	1.490471	-0.111782	-0.368336
O84	O	1.488001	-0.204628	-0.276035
H85	H	1.488826	-0.173980	-0.368353
H86	H	0.776062	-0.022696	-0.000032
H87	H	1.326571	0.153398	0.639066
O88	O	1.491299	-0.081192	0.276037
H89	H	1.492520	-0.034890	0.253720
O90	O	1.480752	-0.477892	-0.408869
H91	H	1.479517	-0.524196	-0.386595
O92	O	1.484012	-0.354423	-0.408843
H93	H	1.483179	-0.385059	-0.501169
O94	O	1.654186	0.007068	0.818703
H95	H	1.728347	-0.026053	0.859138
O96	O	1.476763	-0.627707	-0.276099
H97	H	1.475942	-0.658341	-0.368430
O98	O	1.182279	-0.125917	0.000031
H99	H	1.242682	-0.127682	0.099330
H100	H	1.473707	-0.743350	-0.241009
O101	O	1.483978	-0.354465	0.408774
H102	H	1.570296	-0.332139	0.415133
O103	O	1.476786	-0.627750	0.275950
H104	H	1.475992	-0.658399	0.368271
H105	H	1.654213	0.007089	0.221788
H106	H	1.326565	0.153409	0.360875
