data_functionalizedCrystal
_audit_creation_method	'MofGen! by Chris Wilmer'
_symmetry_space_group_name_H-M	'P1'
_symmetry_Int_Tables_number	1
_symmetry_cell_setting	triclinic
loop_
_symmetry_equiv_pos_as_xyz
  x,y,z
_cell_length_a	12.759401
_cell_length_b	12.594516
_cell_length_c	12.759393
_cell_angle_alpha	89.969200
_cell_angle_beta	89.981433
_cell_angle_gamma	90.010860
loop_
_atom_site_label
_atom_site_type_symbol
_atom_site_fract_x
_atom_site_fract_y
_atom_site_fract_z
Zn1	Zn	1.606276	-0.423706	-0.593989
Zn2	Zn	2.106276	0.076294	-0.093989
Zn3	Zn	1.606180	-0.601726	-0.418311
Zn4	Zn	2.106180	-0.101726	0.081689
Zn5	Zn	1.430578	-0.423759	-0.418328
Zn6	Zn	1.930578	0.076241	0.081672
Zn7	Zn	1.430576	-0.601640	-0.593953
Zn8	Zn	1.930576	-0.101640	-0.093953
O9	O	1.518403	-0.512708	-0.506145
O10	O	2.018403	-0.012708	-0.006145
O11	O	1.753285	-0.447335	-0.570693
O12	O	2.253285	0.052665	-0.070693
O13	O	1.582846	-0.578176	-0.271292
O14	O	2.082846	-0.078176	0.228708
O15	O	1.453927	-0.274806	-0.441652
O16	O	1.953927	0.225194	0.058348
O17	O	1.753213	-0.578125	-0.441624
O18	O	2.253213	-0.078125	0.058376
O19	O	1.583011	-0.274768	-0.570709
O20	O	2.083011	0.225232	-0.070709
O21	O	1.453833	-0.447424	-0.271305
O22	O	1.953833	0.052576	0.228695
O23	O	1.283557	-0.447341	-0.441617
O24	O	1.783557	0.052659	0.058383
O25	O	1.453922	-0.577979	-0.740979
O26	O	1.953922	-0.077979	-0.240979
O27	O	1.283555	-0.578030	-0.570647
O28	O	1.783555	-0.078030	-0.070647
O29	O	1.583009	-0.447252	-0.741005
O30	O	2.083009	0.052748	-0.241005
O31	O	1.582844	-0.750660	-0.441588
O32	O	2.082844	-0.250660	0.058412
O33	O	1.453829	-0.750597	-0.570631
O34	O	1.953829	-0.250597	-0.070631
C35	C	1.245435	-0.512683	-0.506131
C36	C	1.745435	-0.012683	-0.006131
C37	C	1.128659	-0.512698	-0.506149
C38	C	1.628659	-0.012698	-0.006149
C39	C	1.073827	-0.444724	-0.573460
C40	C	1.573827	0.055276	-0.073460
C41	C	0.964103	-0.444744	-0.573467
C42	C	1.464103	0.055256	-0.073467
C43	C	0.964052	-0.580722	-0.438849
C44	C	1.464052	-0.080722	0.061151
C45	C	1.073774	-0.580695	-0.438838
C46	C	1.573774	-0.080695	0.061162
C47	C	1.128711	-0.376727	-0.640771
C48	C	1.628711	0.123273	-0.140771
C49	C	1.073879	-0.308748	-0.708088
C50	C	1.573879	0.191252	-0.208088
C51	C	0.964155	-0.308769	-0.708095
C52	C	1.464155	0.191231	-0.208095
C53	C	0.909263	-0.376767	-0.640785
C54	C	1.409263	0.123233	-0.140785
C55	C	1.518354	-0.789249	-0.506127
C56	C	2.018354	-0.289249	-0.006127
C57	C	1.518429	-0.907554	-0.506154
C58	C	2.018429	-0.407554	-0.006154
C59	C	1.588682	-0.976803	-0.436043
C60	C	2.088682	-0.476803	0.063957
C61	C	1.614358	-1.047495	-0.531935
C62	C	2.114358	-0.547495	-0.031935
C63	C	1.492885	-1.047661	-0.410323
C64	C	1.992885	-0.547661	0.089677
C65	C	1.544154	-0.976688	-0.602097
C66	C	2.044154	-0.476688	-0.102097
C67	C	1.422637	-0.976848	-0.480420
C68	C	1.922637	-0.476848	0.019580
C69	C	1.448276	-1.047508	-0.576379
C70	C	1.948276	-0.547508	-0.076379
C71	C	1.792436	-0.512734	-0.506161
C72	C	2.292436	-0.012734	-0.006161
C73	C	1.909212	-0.512745	-0.506167
C74	C	2.409212	-0.012745	-0.006167
C75	C	1.518476	-0.512600	-0.780179
C76	C	2.018476	-0.012600	-0.280179
C77	C	1.518507	-0.512555	-0.896955
C78	C	2.018507	-0.012555	-0.396955
C79	C	1.518480	-0.235087	-0.506187
C80	C	2.018480	0.264913	-0.006187
C81	C	1.518513	-0.116782	-0.506204
C82	C	2.018513	0.383218	-0.006204
C83	C	1.585732	-0.444479	-0.951833
C84	C	2.085732	0.055521	-0.451833
C85	C	1.585757	-0.444440	-1.061557
C86	C	2.085757	0.055560	-0.561557
C87	C	1.451330	-0.580563	-1.061516
C88	C	1.951330	-0.080563	-0.561516
C89	C	1.451300	-0.580595	-0.951794
C90	C	1.951300	-0.080595	-0.451794
C91	C	1.652939	-0.376438	-0.896994
C92	C	2.152939	0.123562	-0.396994
C93	C	1.720170	-0.308357	-0.951872
C94	C	2.220170	0.191643	-0.451872
C95	C	1.720195	-0.308318	-1.061596
C96	C	2.220195	0.191682	-0.561596
C97	C	1.652989	-0.376361	-1.116443
C98	C	2.152989	0.123639	-0.616443
C99	C	1.518390	-0.512738	-0.233178
C100	C	2.018390	-0.012738	0.266822
C101	C	1.518562	-0.512484	-0.116402
C102	C	2.018562	-0.012484	0.383598
H103	H	0.819918	-0.376756	-0.640773
H104	H	1.319918	0.123244	-0.140773
H105	H	1.471245	-1.078835	-0.329259
H106	H	1.971245	-0.578835	0.170741
Cl107	Cl	1.142884	-0.223260	-0.792693
Cl108	Cl	1.642884	0.276740	-0.292693
Cl109	Cl	1.366853	-0.666100	-1.130467
Cl110	Cl	1.866853	-0.166100	-0.630467
H111	H	0.919350	-0.636085	-0.384050
H112	H	1.419350	-0.136085	0.115950
H113	H	0.919514	-0.253410	-0.762900
H114	H	1.419514	0.246590	-0.262900
H115	H	1.396544	-0.636013	-0.907112
H116	H	1.896544	-0.136013	-0.407112
Cl117	Cl	1.577726	-0.928768	-0.727287
Cl118	Cl	2.077726	-0.428768	-0.227287
H119	H	1.648102	-0.945756	-0.376805
H120	H	2.148102	-0.445756	0.123195
H121	H	1.118419	-0.636045	-0.384028
H122	H	1.618419	-0.136045	0.115972
Cl123	Cl	1.356606	-1.095145	-0.668054
Cl124	Cl	1.856606	-0.595145	-0.168054
H125	H	1.218054	-0.376702	-0.640773
H126	H	1.718054	0.123298	-0.140773
Cl127	Cl	1.804715	-0.222736	-1.130583
Cl128	Cl	2.304715	0.277264	-0.630583
H129	H	1.695404	-1.078530	-0.553730
H130	H	2.195404	-0.578530	-0.053730
H131	H	1.341614	-0.945790	-0.458597
H132	H	1.841614	-0.445790	0.041403
Cl133	Cl	1.652916	-0.376485	-0.759056
Cl134	Cl	2.152916	0.123515	-0.259056
Cl135	Cl	1.804636	-0.222806	-0.882924
Cl136	Cl	2.304636	0.277194	-0.382924
Cl137	Cl	1.653008	-0.376295	-1.254383
Cl138	Cl	2.153008	0.123705	-0.754383
