data_functionalizedCrystal
_audit_creation_method	'MofGen! by Chris Wilmer'
_symmetry_space_group_name_H-M	'P1'
_symmetry_Int_Tables_number	1
_symmetry_cell_setting	triclinic
loop_
_symmetry_equiv_pos_as_xyz
  x,y,z
_cell_length_a	19.077105
_cell_length_b	16.959454
_cell_length_c	16.959455
_cell_angle_alpha	90.010582
_cell_angle_beta	92.299293
_cell_angle_gamma	87.716588
loop_
_atom_site_label
_atom_site_type_symbol
_atom_site_fract_x
_atom_site_fract_y
_atom_site_fract_z
Zn1	Zn	1.075880	-0.363425	0.495439
Zn2	Zn	1.575880	0.136575	0.995439
Zn3	Zn	1.075837	-0.495578	0.363267
Zn4	Zn	1.575837	0.004422	0.863267
Zn5	Zn	0.958218	-0.358101	0.357972
Zn6	Zn	1.458218	0.141899	0.857972
Zn7	Zn	0.958160	-0.490244	0.490100
Zn8	Zn	1.458160	0.009756	0.990100
O9	O	1.017024	-0.426837	0.426695
O10	O	1.517024	0.073163	0.926695
O11	O	1.174364	-0.385415	0.482357
O12	O	1.674364	0.114585	0.982357
O13	O	1.060241	-0.477345	0.251954
O14	O	1.560241	0.022655	0.751954
O15	O	0.973868	-0.248198	0.376225
O16	O	1.473868	0.251802	0.876225
O17	O	1.174333	-0.482508	0.385251
O18	O	1.674333	0.017492	0.885251
O19	O	1.060314	-0.252109	0.477222
O20	O	1.560314	0.247891	0.977222
O21	O	0.973826	-0.376341	0.248064
O22	O	1.473826	0.123659	0.748064
O23	O	0.859720	-0.371169	0.371048
O24	O	1.359720	0.128831	0.871048
O25	O	0.973770	-0.473417	0.601419
O26	O	1.473770	0.026583	1.101419
O27	O	0.859678	-0.468254	0.468122
O28	O	1.359678	0.031746	0.968122
O29	O	1.060258	-0.380243	0.605342
O30	O	1.560258	0.119757	1.105342
O31	O	1.060185	-0.605479	0.380073
O32	O	1.560185	-0.105479	0.880073
O33	O	0.973728	-0.601560	0.473257
O34	O	1.473728	-0.101560	0.973257
C35	C	0.834162	-0.418556	0.418431
C36	C	1.334162	0.081444	0.918431
C37	C	0.755932	-0.415032	0.414915
C38	C	1.255932	0.084968	0.914915
C39	C	1.016965	-0.632200	0.426678
C40	C	1.516965	-0.132200	0.926678
C41	C	1.017004	-0.720059	0.426701
C42	C	1.517004	-0.220059	0.926701
C43	C	0.719176	-0.464000	0.463725
C44	C	1.219176	0.036000	0.963725
C45	C	0.645672	-0.460679	0.460424
C46	C	1.145672	0.039321	0.960424
C47	C	0.608924	-0.408393	0.408310
C48	C	1.108924	0.091607	0.908310
C49	C	0.645685	-0.359420	0.359498
C50	C	1.145685	0.140580	0.859498
C51	C	0.719189	-0.362738	0.362803
C52	C	1.219189	0.137262	0.862803
C53	C	0.389093	-0.393038	0.393019
C54	C	0.889093	0.106962	0.893019
C55	C	0.315585	-0.389726	0.389716
C56	C	0.815585	0.110274	0.889716
C57	C	0.315576	-0.490984	0.490644
C58	C	0.815576	0.009016	0.990644
C59	C	0.389081	-0.494300	0.493941
C60	C	0.889081	0.005700	0.993941
C61	C	0.425836	-0.445324	0.445132
C62	C	0.925836	0.054676	0.945132
N63	N	0.533791	-0.404999	0.404934
N64	N	1.033791	0.095001	0.904934
N65	N	0.500968	-0.448715	0.448513
N66	N	1.000968	0.051285	0.948513
C67	C	0.972071	-1.089527	0.475213
C68	C	1.472071	-0.589527	0.975213
C69	C	1.062172	-1.093552	0.378266
C70	C	1.562172	-0.593552	0.878266
C71	C	1.062148	-1.011005	0.378257
C72	C	1.562148	-0.511005	0.878257
C73	C	1.017083	-0.967715	0.426726
C74	C	1.517083	-0.467715	0.926726
C75	C	0.972044	-1.006973	0.475204
C76	C	1.472044	-0.506973	0.975204
C77	C	1.107182	-0.971741	0.329775
C78	C	1.607182	-0.471741	0.829775
C79	C	1.107158	-0.889189	0.329764
C80	C	1.607158	-0.389189	0.829764
C81	C	1.062097	-0.845898	0.378238
C82	C	1.562097	-0.345898	0.878238
C83	C	1.017056	-0.885160	0.426718
C84	C	1.517056	-0.385160	0.926718
C85	C	0.971991	-0.841871	0.475187
C86	C	1.471991	-0.341871	0.975187
C87	C	0.926953	-0.881132	0.523672
C88	C	1.426953	-0.381132	1.023672
C89	C	0.926982	-0.963682	0.523678
C90	C	1.426982	-0.463682	1.023678
C91	C	1.062068	-0.763348	0.378232
C92	C	1.562068	-0.263348	0.878232
C93	C	0.971964	-0.759316	0.475178
C94	C	1.471964	-0.259316	0.975178
C95	C	1.200600	-0.435151	0.434991
C96	C	1.700600	0.064849	0.934991
C97	C	1.278829	-0.438693	0.438526
C98	C	1.778829	0.061307	0.938526
C99	C	1.017012	-0.426829	0.632862
C100	C	1.517012	0.073171	1.132862
C101	C	1.017007	-0.426826	0.720719
C102	C	1.517007	0.073174	1.220719
C103	C	1.017102	-0.220672	0.426729
C104	C	1.517102	0.279328	0.926729
C105	C	1.017135	-0.132817	0.426743
C106	C	1.517135	0.367183	0.926743
C107	C	0.971987	-0.475359	1.090155
C108	C	1.471987	0.024641	1.590155
C109	C	1.062048	-0.378336	1.094235
C110	C	1.562048	0.121664	1.594235
C111	C	1.062046	-0.378330	1.011689
C112	C	1.562046	0.121670	1.511689
C113	C	1.017014	-0.426839	0.968372
C114	C	1.517014	0.073161	1.468372
C115	C	0.971985	-0.475355	1.007601
C116	C	1.471985	0.024645	1.507601
C117	C	1.107079	-0.329820	0.972454
C118	C	1.607079	0.170180	1.472454
C119	C	1.107079	-0.329812	0.889903
C120	C	1.607079	0.170188	1.389903
C121	C	1.062043	-0.378318	0.846584
C122	C	1.562043	0.121682	1.346584
C123	C	1.017012	-0.426836	0.885818
C124	C	1.517012	0.073164	1.385818
C125	C	0.971980	-0.475345	0.842501
C126	C	1.471980	0.024655	1.342501
C127	C	0.926945	-0.523859	0.881734
C128	C	1.426945	-0.023859	1.381734
C129	C	0.926949	-0.523861	0.964282
C130	C	1.426949	-0.023861	1.464282
C131	C	1.062039	-0.378316	0.764035
C132	C	1.562039	0.121684	1.264035
C133	C	0.971978	-0.475342	0.759948
C134	C	1.471978	0.024658	1.259948
C135	C	1.017026	-0.426858	1.221328
C136	C	1.517026	0.073142	1.721328
C137	C	1.017019	-0.426849	1.133471
C138	C	1.517019	0.073151	1.633471
H139	H	0.749091	-0.506579	0.506159
H140	H	1.249091	-0.006579	1.006159
H141	H	0.418996	-0.536878	0.536376
H142	H	0.918996	-0.036878	1.036376
O143	O	0.878343	-0.834433	0.575938
O144	O	1.378343	-0.334433	1.075938
H145	H	0.847024	-0.875596	0.609649
H146	H	1.347024	-0.375596	1.109649
O147	O	0.606056	-0.303044	0.303267
O148	O	1.106056	0.196956	0.803267
H149	H	0.548769	-0.308976	0.309154
H150	H	1.048769	0.191024	0.809154
O151	O	0.878394	-1.006024	0.575953
O152	O	1.378394	-0.506024	1.075953
H153	H	0.885976	-1.070698	0.567803
H154	H	1.385976	-0.570698	1.067803
O155	O	0.275936	-0.543798	0.543295
O156	O	0.775936	-0.043798	1.043295
H157	H	0.218651	-0.532704	0.532250
H158	H	0.718651	-0.032704	1.032250
O159	O	0.758829	-0.309924	0.310150
O160	O	1.258829	0.190076	0.810150
H161	H	0.792327	-0.271267	0.347101
H162	H	1.292327	0.228733	0.847101
O163	O	0.923350	-0.712625	0.527447
O164	O	1.423350	-0.212625	1.027447
H165	H	0.892034	-0.753795	0.561152
H166	H	1.392034	-0.253795	1.061152
O167	O	0.923402	-0.527662	0.713233
O168	O	1.423402	-0.027662	1.213233
H169	H	0.930962	-0.519509	0.649240
H170	H	1.430962	-0.019509	1.149240
O171	O	1.155783	-1.018449	0.277515
O172	O	1.655783	-0.518449	0.777515
H173	H	1.143758	-1.002113	0.214915
H174	H	1.643758	-0.502113	0.714915
H175	H	0.935404	-1.121498	0.514690
H176	H	1.435404	-0.621498	1.014690
H177	H	1.098734	-0.731385	0.338752
H178	H	1.598734	-0.231385	0.838752
H179	H	0.419010	-0.353164	0.353269
H180	H	0.919010	0.146836	0.853269
O181	O	0.275936	-0.333353	0.333489
O182	O	0.775936	0.166647	0.833489
H183	H	0.242443	-0.291690	0.367418
H184	H	0.742443	0.208310	0.867418
H185	H	1.098857	-1.128803	0.338800
H186	H	1.598857	-0.628803	0.838800
O187	O	0.878373	-0.576178	0.835012
O188	O	1.378373	-0.076178	1.335012
H189	H	0.885939	-0.568019	0.771021
H190	H	1.385939	-0.068019	1.271021
H191	H	0.890286	-0.563361	0.996233
H192	H	1.390286	-0.063361	1.496233
O193	O	1.155740	-0.846844	0.277483
O194	O	1.655740	-0.346844	0.777483
H195	H	1.187084	-0.890815	0.243787
H196	H	1.687084	-0.390815	0.743787
H197	H	0.935318	-0.514855	1.122101
H198	H	1.435318	-0.014855	1.622101
H199	H	1.098714	-0.338847	1.129508
H200	H	1.598714	0.161153	1.629508
H201	H	0.615748	-0.500554	0.500170
H202	H	1.115748	-0.000554	1.000170
H203	H	1.143746	-0.290332	1.007728
H204	H	1.643746	0.209668	1.507728
H205	H	1.143749	-0.290309	0.857967
H206	H	1.643749	0.209691	1.357967
O207	O	1.110605	-0.325998	0.721717
O208	O	1.610605	0.174002	1.221717
H209	H	1.141918	-0.292266	0.765706
H210	H	1.641918	0.207734	1.265706
