data_functionalizedCrystal
_audit_creation_method	'MofGen! by Chris Wilmer'
_symmetry_space_group_name_H-M	'P1'
_symmetry_Int_Tables_number	1
_symmetry_cell_setting	triclinic
loop_
_symmetry_equiv_pos_as_xyz
  x,y,z
_cell_length_a	9.065218
_cell_length_b	10.654550
_cell_length_c	8.140239
_cell_angle_alpha	89.997641
_cell_angle_beta	89.997198
_cell_angle_gamma	84.750394
loop_
_atom_site_label
_atom_site_type_symbol
_atom_site_fract_x
_atom_site_fract_y
_atom_site_fract_z
O1	O	1.959391	0.184157	-0.136613
O2	O	1.530024	0.199263	-0.136615
O3	O	1.754580	0.009010	-0.136608
O4	O	1.734836	0.374410	-0.136620
O5	O	1.754567	0.009008	0.136619
O6	O	1.530011	0.199261	0.136612
O7	O	1.959379	0.184155	0.136614
Zn8	Zn	1.744693	0.191708	0.179994
Zn9	Zn	1.744710	0.191711	-0.179995
O10	O	1.734823	0.374408	0.136607
C11	C	1.475039	0.197810	-0.000002
C12	C	1.311220	0.193469	-0.000003
C13	C	1.753124	-0.037795	0.000004
C14	C	1.748786	-0.177255	-0.000002
C15	C	1.881001	-0.256217	0.000003
C16	C	1.876917	-0.387254	-0.000008
C17	C	1.608391	-0.360354	-0.000024
C18	C	1.612477	-0.229320	-0.000024
C19	C	2.017310	-0.204153	0.000025
C20	C	2.149536	-0.283116	0.000033
C21	C	2.145452	-0.414153	0.000021
C22	C	2.009142	-0.466226	0.000002
C23	C	2.014364	0.185608	-0.000003
C24	C	2.178183	0.189949	-0.000013
C25	C	1.736279	0.421213	-0.000008
C26	C	1.740616	0.560673	-0.000013
N27	N	1.744693	0.191705	0.425676
N28	N	1.744722	0.191704	-0.425677
H29	H	2.020651	-0.097457	0.000040
H30	H	2.260515	-0.240708	0.000007
O31	O	1.476116	-0.411143	0.000043
C32	C	1.350820	-0.601090	-0.000051
C33	C	1.500725	-0.543742	-0.000096
H34	H	1.370664	-0.708304	-0.000198
H35	H	1.285385	-0.568789	0.114320
H36	H	1.285423	-0.568620	-0.114371
H37	H	1.566243	-0.576186	0.114147
H38	H	1.566047	-0.576039	-0.114542
O39	O	1.484088	-0.152554	-0.000314
C40	C	1.332930	0.011066	-0.141824
C41	C	1.478370	-0.075821	-0.141710
H42	H	1.328274	0.073145	-0.256113
H43	H	1.234745	-0.048586	-0.141931
H44	H	1.328147	0.073026	-0.027428
H45	H	1.483298	-0.137797	-0.256086
H46	H	1.576488	-0.016094	-0.141517
H47	H	2.005827	-0.572927	-0.000025
H48	H	2.253116	-0.478442	0.000010
