data_functionalizedCrystal
_audit_creation_method	'MofGen! by Chris Wilmer'
_symmetry_space_group_name_H-M	'P1'
_symmetry_Int_Tables_number	1
_symmetry_cell_setting	triclinic
loop_
_symmetry_equiv_pos_as_xyz
  x,y,z
_cell_length_a	19.121063
_cell_length_b	11.169417
_cell_length_c	11.169409
_cell_angle_alpha	90.019824
_cell_angle_beta	92.400753
_cell_angle_gamma	87.530272
loop_
_atom_site_label
_atom_site_type_symbol
_atom_site_fract_x
_atom_site_fract_y
_atom_site_fract_z
Zn1	Zn	-0.279539	-1.814442	-0.698851
Zn2	Zn	-0.397012	-1.805707	-0.506702
Zn3	Zn	-0.279582	-1.613724	-0.498188
Zn4	Zn	-0.396955	-1.605116	-0.707343
O5	O	-0.338272	-1.709747	-0.602771
O6	O	-0.295128	-1.981232	-0.673371
O7	O	-0.381477	-1.780188	-0.337626
O8	O	-0.181292	-1.647608	-0.517690
O9	O	-0.381435	-1.974815	-0.532200
O10	O	-0.181261	-1.795074	-0.665116
O11	O	-0.295201	-1.639139	-0.331371
O12	O	-0.295146	-1.444633	-0.525924
O13	O	-0.381338	-1.632936	-0.874163
O14	O	-0.381379	-1.438308	-0.679589
O15	O	-0.295073	-1.786727	-0.867924
O16	O	-0.495289	-1.771840	-0.540435
O17	O	-0.495247	-1.624466	-0.687844
C18	C	-0.338261	-1.397923	-0.602755
C19	C	-0.338274	-1.264522	-0.602778
C20	C	-0.520752	-1.696304	-0.616011
C21	C	-0.598817	-1.690663	-0.621715
C22	C	-0.338194	-1.709845	-0.915808
C23	C	-0.338161	-1.709887	-1.049206
C24	C	-0.635491	-1.764802	-0.547710
C25	C	-0.708842	-1.759503	-0.553082
C26	C	-0.745518	-1.680059	-0.632454
C27	C	-0.708838	-1.605917	-0.706467
C28	C	-0.635489	-1.611222	-0.701100
C29	C	-0.966986	-1.660204	-0.652499
C30	C	-1.040340	-1.654902	-0.657858
C31	C	-1.040339	-1.808490	-0.504474
C32	C	-0.966988	-1.813784	-0.499110
C33	C	-0.930315	-1.739646	-0.573127
C34	C	-0.820494	-1.674638	-0.637944
C35	C	-0.855340	-1.745073	-0.567642
C36	C	-0.155080	-1.723276	-0.589506
C37	C	-0.077014	-1.729041	-0.583853
C38	C	-0.338283	-2.022789	-0.602788
C39	C	-0.338288	-2.156188	-0.602795
C40	C	-0.338299	-1.709722	-0.290948
C41	C	-0.338134	-1.709928	-0.157537
H42	H	-0.738699	-1.819874	-0.492818
H43	H	-1.070206	-1.868851	-0.444215
N44	N	-0.929527	-1.584494	-0.728113
N45	N	-0.888547	-1.629657	-0.801639
H46	H	-0.862090	-1.576188	-0.855051
H47	H	-0.937128	-1.878474	-0.434479
H48	H	-0.738706	-1.541236	-0.771098
N49	N	-0.817870	-1.826203	-0.486563
N50	N	-0.776998	-1.786953	-0.407070
H51	H	-0.750528	-1.844247	-0.349802
N52	N	-1.077794	-1.573730	-0.738936
N53	N	-1.045044	-1.507537	-0.805011
H54	H	-1.071495	-1.450208	-0.862266
N55	N	-0.598036	-1.535490	-0.776711
N56	N	-0.630788	-1.464565	-0.847576
H57	H	-0.604338	-1.411080	-0.900984
H58	H	-0.605635	-1.829489	-0.483072
N59	N	-0.857972	-1.593483	-0.718995
N60	N	-0.898965	-1.514076	-0.679687
H61	H	-0.925437	-1.456761	-0.736930
