data_functionalizedCrystal
_audit_creation_method	'MofGen! by Chris Wilmer'
_symmetry_space_group_name_H-M	'P1'
_symmetry_Int_Tables_number	1
_symmetry_cell_setting	triclinic
loop_
_symmetry_equiv_pos_as_xyz
  x,y,z
_cell_length_a	14.044220
_cell_length_b	10.654550
_cell_length_c	9.130313
_cell_angle_alpha	90.003780
_cell_angle_beta	89.997493
_cell_angle_gamma	91.163110
loop_
_atom_site_label
_atom_site_type_symbol
_atom_site_fract_x
_atom_site_fract_y
_atom_site_fract_z
O1	O	0.133227	-1.681222	-0.121925
O2	O	0.145921	-1.317019	-0.121902
O3	O	0.001554	-1.493654	-0.121899
O4	O	0.277595	-1.504587	-0.121929
O5	O	0.001557	-1.493652	0.121700
O6	O	0.145925	-1.317017	0.121696
O7	O	0.133231	-1.681220	0.121673
Cu8	Cu	0.139578	-1.499119	0.143927
Cu9	Cu	0.139574	-1.499121	-0.144156
O10	O	0.277598	-1.504585	0.121670
C11	C	-0.033790	-1.488867	-0.000099
C12	C	-0.139110	-1.474592	-0.000096
C13	C	0.144991	-1.270127	-0.000100
C14	C	0.142202	-1.130403	-0.000091
N15	N	0.139581	-1.499126	0.346550
C16	C	-0.331943	-1.448493	-0.000116
C17	C	-0.388911	-1.549741	-0.000126
C18	C	-0.496210	-1.535219	-0.000137
C19	C	-0.224634	-1.463013	-0.000105
C20	C	0.312942	-1.509372	-0.000133
C21	C	0.418262	-1.523648	-0.000146
C22	C	0.134161	-1.728113	-0.000132
C23	C	0.136950	-1.867836	-0.000151
C24	C	0.227203	-1.059459	-0.000121
C25	C	0.224578	-0.928175	-0.000146
C26	C	0.051942	-0.938790	-0.000116
C27	C	0.054569	-1.070072	-0.000081
C28	C	0.326873	-1.053329	-0.000145
C29	C	0.324247	-0.922045	-0.000170
N30	N	0.139564	-1.499122	-0.346779
C31	C	0.075677	-1.577364	0.423203
C32	C	0.075666	-1.577359	0.576540
C33	C	0.203470	-1.420876	0.576557
C34	C	0.203477	-1.420875	0.423223
C35	C	0.001893	-1.667713	0.423195
C36	C	0.001881	-1.667708	0.576532
H37	H	-0.357098	-1.647328	-0.000231
O38	O	0.364579	-1.099756	-0.125685
C39	C	0.296609	-1.178445	-0.195499
H40	H	0.222124	-1.152296	-0.158220
H41	H	0.310202	-1.280389	-0.165498
C42	C	0.396104	-1.194129	-0.408427
C43	C	0.304618	-1.162006	-0.362651
H44	H	0.401046	-1.183995	-0.511535
H45	H	0.441898	-1.141119	-0.361392
H46	H	0.407420	-1.279081	-0.383414
H47	H	0.293308	-1.077051	-0.387648
H48	H	0.258822	-1.215001	-0.409695
O49	O	0.360097	-0.870955	0.125231
C50	C	0.355286	-0.739059	0.117771
H51	H	0.297801	-0.711881	0.036224
H52	H	0.426989	-0.698387	0.080538
C53	C	0.401427	-0.720016	0.370235
C54	C	0.330817	-0.686636	0.270085
H55	H	0.386338	-0.687676	0.464189
H56	H	0.404672	-0.808876	0.375260
H57	H	0.461173	-0.686120	0.339189
H58	H	0.271075	-0.720544	0.301122
H59	H	0.327561	-0.597779	0.265069
H60	H	-0.363754	-1.350913	-0.000113
H61	H	0.365856	-1.086577	0.101803
H62	H	-0.019406	-0.889652	-0.000131
O63	O	-0.028090	-1.138798	-0.000098
C64	C	-0.105996	-1.057393	-0.000060
H65	H	-0.082569	-0.962268	-0.046217
H66	H	-0.132800	-1.045028	0.116813
C67	C	-0.215307	-1.230504	-0.038852
C68	C	-0.186535	-1.113674	-0.095555
H69	H	-0.264990	-1.265222	-0.097752
H70	H	-0.162821	-1.285350	-0.038873
H71	H	-0.237638	-1.220184	0.058541
H72	H	-0.164194	-1.123997	-0.192938
H73	H	-0.239020	-1.058830	-0.095553
O74	O	0.369176	-0.876887	-0.121753
C75	C	0.464675	-0.915221	-0.121507
H76	H	0.471431	-1.002716	-0.050708
H77	H	0.512137	-0.836683	-0.075321
C78	C	0.487455	-0.837536	-0.366224
C79	C	0.495751	-0.945005	-0.279277
H80	H	0.506626	-0.855902	-0.463544
H81	H	0.423116	-0.811704	-0.366389
H82	H	0.527007	-0.772097	-0.327718
H83	H	0.456190	-1.010435	-0.317773
H84	H	0.560084	-0.970848	-0.279123
H85	H	0.255492	-1.357165	0.639000
H86	H	0.024996	-1.761218	0.375628
H87	H	0.255504	-1.357156	0.360813
O88	O	-0.085047	-1.633161	0.373620
C89	C	-0.105015	-1.511787	0.425260
H90	H	-0.035467	-1.459906	0.452508
H91	H	-0.151012	-1.519293	0.527896
C92	C	-0.244062	-1.502866	0.272753
C93	C	-0.158641	-1.439142	0.306207
H94	H	-0.277145	-1.458056	0.199320
H95	H	-0.230612	-1.584640	0.237966
H96	H	-0.282381	-1.509117	0.358293
H97	H	-0.120319	-1.432906	0.220673
H98	H	-0.172086	-1.357364	0.340977
O99	O	-0.080235	-1.622863	0.633331
C100	C	-0.059390	-1.516418	0.720233
H101	H	0.011604	-1.472649	0.684427
H102	H	-0.054845	-1.545524	0.840142
C103	C	-0.225854	-1.473707	0.745529
C104	C	-0.138663	-1.419943	0.701543
H105	H	-0.274755	-1.414198	0.734007
H106	H	-0.239899	-1.545423	0.686987
H107	H	-0.222053	-1.497960	0.845451
H108	H	-0.142461	-1.395705	0.601619
H109	H	-0.124620	-1.348220	0.760069
O110	O	0.021151	-1.784878	0.626014
C111	C	-0.049001	-1.870487	0.574436
H112	H	-0.083649	-1.830958	0.471868
H113	H	-0.105469	-1.886112	0.662633
C114	C	0.040006	-2.044844	0.663482
C115	C	-0.002543	-1.996298	0.537499
H116	H	0.068661	-2.122452	0.640703
H117	H	0.087267	-1.987168	0.698237
H118	H	-0.007058	-2.057853	0.736968
H119	H	0.044522	-1.983274	0.464022
H120	H	-0.049796	-2.053975	0.502731
