data_functionalizedCrystal
_audit_creation_method	'MofGen! by Chris Wilmer'
_symmetry_space_group_name_H-M	'P1'
_symmetry_Int_Tables_number	1
_symmetry_cell_setting	triclinic
loop_
_symmetry_equiv_pos_as_xyz
  x,y,z
_cell_length_a	10.967926
_cell_length_b	9.482900
_cell_length_c	10.967971
_cell_angle_alpha	111.340423
_cell_angle_beta	97.833681
_cell_angle_gamma	87.450100
loop_
_atom_site_label
_atom_site_type_symbol
_atom_site_fract_x
_atom_site_fract_y
_atom_site_fract_z
O1	O	1.603209	-0.338187	-0.229200
O2	O	1.253909	-0.251386	-0.232047
O3	O	1.443860	-0.251395	-0.042098
O4	O	1.413258	-0.338179	-0.419149
O5	O	1.405272	-0.493225	-0.080844
O6	O	1.215320	-0.493216	-0.270793
O7	O	1.564621	-0.580017	-0.267946
Cu8	Cu	1.386447	-0.558698	-0.272907
Cu9	Cu	1.432082	-0.272706	-0.227086
O10	O	1.374669	-0.580009	-0.457895
C11	C	1.190023	-0.360344	-0.248285
C12	C	1.057155	-0.324711	-0.238929
C13	C	0.977929	-0.434100	-0.254829
C14	C	0.840602	-0.397275	-0.245159
N15	N	1.354359	-0.759851	-0.305134
C16	C	1.422610	-0.831979	-0.236584
C17	C	1.395920	-0.999429	-0.263409
C18	C	1.628507	-0.471056	-0.251707
C19	C	1.761376	-0.506679	-0.261062
C20	C	1.425255	-0.360351	-0.013056
C21	C	1.427294	-0.324716	0.131205
N22	N	1.464181	-0.071552	-0.194848
C23	C	1.393275	-0.471049	-0.486936
C24	C	1.391237	-0.506675	-0.631196
C25	C	1.408214	-0.434102	0.175457
C26	C	1.410321	-0.397273	0.324558
H27	H	0.806771	-0.276351	-0.224383
H28	H	1.500797	-0.769762	-0.158032
H29	H	1.023318	-0.203796	-0.218154
H30	H	0.795207	-0.627602	-0.281830
H31	H	1.390324	-0.555018	0.102959
C32	C	1.291555	-1.082082	-0.368158
C33	C	1.233742	-0.983078	-0.426179
C34	C	1.137587	-1.059159	-0.522663
H35	H	1.323573	-1.165945	-0.433879
H36	H	1.233511	-1.116966	-0.328518
H37	H	1.291775	-0.948216	-0.465820
H38	H	1.201697	-0.899214	-0.360493
H39	H	1.079544	-1.094043	-0.483022
H40	H	1.169616	-1.143020	-0.588374
H41	H	1.098342	-0.991993	-0.562033
H42	H	1.542373	-1.009339	-0.116291
C43	C	1.434245	-0.235947	0.421005
C44	C	1.451459	-0.142172	0.351287
C45	C	1.473507	0.006444	0.440090
H46	H	1.365804	-0.201320	0.468450
H47	H	1.505988	-0.233370	0.481084
H48	H	1.379725	-0.144743	0.291231
H49	H	1.519904	-0.176751	0.303847
H50	H	1.545250	0.009022	0.500169
H51	H	1.405062	0.041056	0.487529
H52	H	1.485201	0.070086	0.392800
H53	H	1.276163	-0.822065	-0.383677
C54	C	1.367130	-0.667834	0.272072
C55	C	1.261390	-0.671093	0.183705
C56	C	1.239136	-0.819526	0.094591
H57	H	1.435510	-0.702428	0.224523
H58	H	1.355360	-0.731718	0.319121
H59	H	1.273168	-0.607231	0.136660
H60	H	1.192989	-0.636528	0.231216
H61	H	1.227366	-0.883410	0.141640
H62	H	1.307522	-0.854107	0.047051
H63	H	1.167384	-0.821759	0.034630
C64	C	1.023236	-0.595222	-0.282317
C65	C	1.110607	-0.598463	-0.177647
C66	C	1.152379	-0.746861	-0.202931
H67	H	0.955851	-0.659224	-0.291003
H68	H	1.059713	-0.629679	-0.361782
H69	H	1.074128	-0.564026	-0.098204
H70	H	1.178012	-0.534492	-0.168944
H71	H	1.188857	-0.781318	-0.282396
H72	H	1.084987	-0.810851	-0.211618
H73	H	1.211673	-0.749077	-0.131924
H74	H	1.445196	-0.203802	0.203705
