data_functionalizedCrystal
_audit_creation_method	'MofGen! by Chris Wilmer'
_symmetry_space_group_name_H-M	'P1'
_symmetry_Int_Tables_number	1
_symmetry_cell_setting	triclinic
loop_
_symmetry_equiv_pos_as_xyz
  x,y,z
_cell_length_a	27.732048
_cell_length_b	27.731996
_cell_length_c	16.098571
_cell_angle_alpha	86.929421
_cell_angle_beta	86.913523
_cell_angle_gamma	82.632022
loop_
_atom_site_label
_atom_site_type_symbol
_atom_site_fract_x
_atom_site_fract_y
_atom_site_fract_z
O1	O	0.639001	0.055606	0.069159
O2	O	1.139001	0.555606	0.569159
O3	O	0.498205	0.064351	0.069186
O4	O	0.998205	0.564351	0.569186
O5	O	0.572989	-0.010419	0.069154
O6	O	1.072989	0.489581	0.569154
O7	O	0.564216	0.130377	0.069191
O8	O	1.064216	0.630377	0.569191
O9	O	0.576820	-0.006592	-0.069358
O10	O	1.076820	0.493408	0.430642
O11	O	0.502035	0.068179	-0.069326
O12	O	1.002035	0.568179	0.430674
O13	O	0.642831	0.059434	-0.069353
O14	O	1.142831	0.559434	0.430647
Zn15	Zn	0.573041	0.064414	-0.091331
Zn16	Zn	1.073041	0.564414	0.408669
Zn17	Zn	0.567995	0.059371	0.091164
Zn18	Zn	1.067995	0.559371	0.591164
O19	O	0.568047	0.134204	-0.069320
O20	O	1.068047	0.634204	0.430680
C21	C	0.482113	0.066081	-0.000067
C22	C	0.982113	0.566081	0.499933
C23	C	0.428458	0.065528	-0.000057
C24	C	0.928458	0.565528	0.499943
C25	C	0.089636	0.106234	-0.000083
C26	C	0.589636	0.606234	0.499917
C27	C	-0.112023	0.104183	-0.000091
C28	C	0.387977	0.604183	0.499909
O29	O	-0.143285	0.141405	-0.000117
O30	O	0.356715	0.641405	0.499883
N31	N	-0.131138	0.059847	-0.000101
N32	N	0.368862	0.559847	0.499899
C33	C	-0.099835	0.016021	-0.000115
C34	C	0.400165	0.516021	0.499885
O35	O	-0.120720	-0.021737	-0.000132
O36	O	0.379280	0.478263	0.499868
C37	C	0.101823	0.018072	-0.000113
C38	C	0.601823	0.518072	0.499887
C39	C	0.120935	0.062411	-0.000094
C40	C	0.620935	0.562411	0.499906
C41	C	0.108748	0.150569	-0.000065
C42	C	0.608748	0.650569	0.499935
C43	C	0.159160	0.151081	-0.000058
C44	C	0.659160	0.651081	0.499942
C45	C	0.190459	0.107258	-0.000070
C46	C	0.690459	0.607258	0.499930
C47	C	0.171347	0.062923	-0.000087
C48	C	0.671347	0.562923	0.499913
C49	C	0.133126	-0.025754	-0.000133
C50	C	0.633126	0.474246	0.499867
C51	C	0.183543	-0.025237	-0.000134
C52	C	0.683543	0.474763	0.499866
C53	C	0.202655	0.019102	-0.000115
C54	C	0.702655	0.519102	0.499885
C55	C	0.253058	0.019612	-0.000092
C56	C	0.753058	0.519612	0.499908
N57	N	0.272173	0.063948	-0.000082
N58	N	0.772173	0.563948	0.499918
C59	C	0.240874	0.107771	-0.000071
C60	C	0.740874	0.607771	0.499929
C61	C	-0.205709	0.014947	-0.000114
C62	C	0.294291	0.514947	0.499886
C63	C	-0.256123	0.014434	-0.000113
C64	C	0.243877	0.514434	0.499887
C65	C	-0.268308	0.102596	-0.000091
C66	C	0.231692	0.602596	0.499909
C67	C	-0.217893	0.103109	-0.000086
C68	C	0.282107	0.603109	0.499914
C69	C	-0.186594	0.059283	-0.000104
C70	C	0.313406	0.559283	0.499896
C71	C	0.346742	0.108843	-0.000056
C72	C	0.846742	0.608843	0.499944
C73	C	0.397159	0.109351	-0.000046
C74	C	0.897159	0.609351	0.499954
C75	C	0.409339	0.021189	-0.000073
C76	C	0.909339	0.521189	0.499927
C77	C	0.358927	0.020681	-0.000079
C78	C	0.858927	0.520681	0.499921
C79	C	0.327629	0.064512	-0.000073
C80	C	0.827629	0.564512	0.499927
O81	O	0.284348	-0.017590	-0.000076
O82	O	0.784348	0.482410	0.499924
O83	O	0.261769	0.145523	-0.000071
O84	O	0.761769	0.645523	0.499929
C85	C	0.039224	0.105722	-0.000089
C86	C	0.539224	0.605722	0.499911
C87	C	0.020112	0.061387	-0.000107
C88	C	0.520112	0.561387	0.499893
C89	C	0.051411	0.017564	-0.000118
C90	C	0.551411	0.517564	0.499882
C91	C	-0.030302	0.060873	-0.000106
C92	C	0.469698	0.560873	0.499894
C93	C	-0.061602	0.104697	-0.000095
C94	C	0.438398	0.604697	0.499905
C95	C	-0.042487	0.149033	-0.000084
C96	C	0.457513	0.649033	0.499916
C97	C	0.007925	0.149545	-0.000078
C98	C	0.507925	0.649545	0.499922
C99	C	0.032296	-0.026773	-0.000129
C100	C	0.532296	0.473227	0.499871
C101	C	-0.018116	-0.027281	-0.000134
C102	C	0.481884	0.472719	0.499866
C103	C	-0.049416	0.016542	-0.000123
C104	C	0.450584	0.516542	0.499877
C105	C	0.574724	-0.026513	-0.000105
C106	C	1.074724	0.473487	0.499895
C107	C	0.574182	-0.080169	-0.000113
C108	C	1.074182	0.419831	0.499887
C109	C	0.568678	-0.414973	0.075431
C110	C	1.068678	0.085027	0.575431
C111	C	0.566616	-0.616631	0.075446
C112	C	1.066616	-0.116631	0.575446
O113	O	0.564553	-0.644477	0.139658
O114	O	1.064553	-0.144477	0.639658
N115	N	0.568448	-0.639762	-0.000056
N116	N	1.068448	-0.139762	0.499944
C117	C	0.570793	-0.612474	-0.075567
C118	C	1.070793	-0.112474	0.424433
O119	O	0.572299	-0.636775	-0.139786
O120	O	1.072299	-0.136775	0.360214
C121	C	0.572851	-0.410816	-0.075582
C122	C	1.072851	0.089184	0.424418
C123	C	0.571023	-0.387689	-0.000075
C124	C	1.071023	0.112311	0.499925
C125	C	0.566850	-0.391845	0.150931
C126	C	1.066850	0.108155	0.650931
C127	C	0.567368	-0.341434	0.150927
C128	C	1.067368	0.158566	0.650927
C129	C	0.569714	-0.314150	0.075422
C130	C	1.069714	0.185850	0.575422
C131	C	0.571541	-0.337278	-0.000079
C132	C	1.071541	0.162722	0.499921
C133	C	0.575191	-0.383529	-0.151092
C134	C	1.075191	0.116471	0.348908
C135	C	0.575705	-0.333111	-0.151089
C136	C	1.075705	0.166889	0.348911
C137	C	0.573877	-0.309984	-0.075582
C138	C	1.073877	0.190016	0.424418
C139	C	0.574405	-0.259583	-0.075589
C140	C	1.074405	0.240417	0.424411
N141	N	0.572573	-0.236452	-0.000087
N142	N	1.072573	0.263548	0.499913
C143	C	0.570228	-0.263736	0.075418
C144	C	1.070228	0.236264	0.575418
C145	C	0.569713	-0.718348	-0.075555
C146	C	1.069713	-0.218348	0.424445
C147	C	0.569199	-0.768763	-0.075551
C148	C	1.069199	-0.268763	0.424449
C149	C	0.565022	-0.772916	0.075462
C150	C	1.065022	-0.272916	0.575462
C151	C	0.565539	-0.722501	0.075458
C152	C	1.065539	-0.222501	0.575458
C153	C	0.567881	-0.695217	-0.000053
C154	C	1.067881	-0.195217	0.499947
C155	C	0.571316	-0.157868	0.075403
C156	C	1.071316	0.342132	0.575403
C157	C	0.571836	-0.107453	0.075392
C158	C	1.071836	0.392547	0.575392
C159	C	0.576011	-0.103303	-0.075621
C160	C	1.076011	0.396697	0.424379
C161	C	0.575493	-0.153715	-0.075610
C162	C	1.075493	0.346285	0.424390
C163	C	0.573144	-0.180996	-0.000091
C164	C	1.073144	0.319004	0.499909
O165	O	0.576462	-0.231707	-0.139768
O166	O	1.076462	0.268293	0.360232
O167	O	0.568711	-0.239425	0.139627
O168	O	1.068711	0.260575	0.639627
C169	C	0.568160	-0.465384	0.075435
C170	C	1.068160	0.034616	0.575435
C171	C	0.569987	-0.488512	-0.000066
C172	C	1.069987	0.011488	0.499934
C173	C	0.572333	-0.461228	-0.075571
C174	C	1.072333	0.038772	0.424429
C175	C	0.569474	-0.538926	-0.000062
C176	C	1.069474	-0.038926	0.499938
C177	C	0.567128	-0.566210	0.075443
C178	C	1.067128	-0.066210	0.575443
C179	C	0.565296	-0.543079	0.150945
C180	C	1.065296	-0.043079	0.650945
C181	C	0.565814	-0.492668	0.150941
C182	C	1.065814	0.007332	0.650941
C183	C	0.574165	-0.484358	-0.151073
C184	C	1.074165	0.015642	0.348927
C185	C	0.573647	-0.534770	-0.151062
C186	C	1.073647	-0.034770	0.348938
C187	C	0.571302	-0.562054	-0.075557
C188	C	1.071302	-0.062054	0.424443
C189	C	0.658923	0.057704	-0.000098
C190	C	1.158923	0.557704	0.499902
C191	C	0.712578	0.058257	-0.000102
C192	C	1.212578	0.558257	0.499898
C193	C	0.566312	0.150298	-0.000060
C194	C	1.066312	0.650298	0.499940
C195	C	0.566854	0.203954	-0.000046
C196	C	1.066854	0.703954	0.499954
N197	N	0.576489	0.067856	-0.215879
N198	N	1.076489	0.567856	0.284121
C199	C	0.592435	0.083837	-0.740694
C200	C	1.092435	0.583837	-0.240694
C201	C	0.590026	0.081426	-0.653506
C202	C	1.090026	0.581426	-0.153506
C203	C	0.559734	0.051100	-0.609913
C204	C	1.059734	0.551100	-0.109913
C205	C	0.531846	0.023188	-0.653512
C206	C	1.031846	0.523188	-0.153512
C207	C	0.534253	0.025602	-0.740699
C208	C	1.034253	0.525602	-0.240699
C209	C	0.551008	0.042357	-0.346665
C210	C	1.051008	0.542357	0.153335
C211	C	0.548604	0.039944	-0.259473
C212	C	1.048604	0.539944	0.240527
C213	C	0.606784	0.098183	-0.259472
C214	C	1.106784	0.598183	0.240528
C215	C	0.609190	0.100592	-0.346660
C216	C	1.109190	0.600592	0.153340
C217	C	0.581301	0.072682	-0.390252
C218	C	1.081301	0.572682	0.109748
C219	C	0.557272	0.048634	-0.520792
C220	C	1.057272	0.548634	-0.020792
C221	C	0.583761	0.075151	-0.479371
C222	C	1.083761	0.575151	0.020629
N223	N	0.564551	0.055925	0.215712
N224	N	1.064551	0.555925	0.715712
H225	H	-0.180229	-0.020744	-0.000129
H226	H	0.319771	0.479256	0.499871
H227	H	0.608422	0.099844	-0.514868
H228	H	1.108422	0.599844	-0.014868
H229	H	0.174716	0.187186	-0.000043
H230	H	0.674716	0.687186	0.499957
O231	O	0.499173	-0.009519	-0.606493
O232	O	0.999173	0.490481	-0.106493
H233	H	0.480183	-0.028518	-0.651457
H234	H	0.980183	0.471482	-0.151457
O235	O	0.564320	-0.421271	0.232374
O236	O	1.064320	0.078729	0.732374
H237	H	0.531024	-0.439779	0.236001
H238	H	1.031024	0.060221	0.736001
O239	O	0.562762	-0.572510	0.232386
O240	O	1.062762	-0.072510	0.732386
H241	H	0.562705	-0.611450	0.219695
H242	H	1.062705	-0.111450	0.719695
O243	O	0.443106	-0.026073	-0.000093
O244	O	0.943106	0.473927	0.499907
H245	H	0.434796	-0.048874	0.056355
H246	H	0.934796	0.451126	0.556355
H247	H	0.532609	0.023941	-0.485289
H248	H	1.032609	0.523941	0.014711
H249	H	0.511545	0.002874	-0.776192
H250	H	1.011545	0.502874	-0.276192
O251	O	0.074993	0.197839	-0.000049
O252	O	0.574993	0.697839	0.499951
H253	H	0.096761	0.228749	-0.000031
H254	H	0.596761	0.728749	0.499969
H255	H	0.117574	-0.061859	-0.000149
H256	H	0.617574	0.438141	0.499851
O257	O	-0.197284	0.150933	-0.000078
O258	O	0.302716	0.650933	0.499922
H259	H	-0.176174	0.151723	0.056379
H260	H	0.323826	0.651723	0.556379
O261	O	0.515970	0.007193	-0.212456
O262	O	1.015970	0.507193	0.287544
H263	H	0.519002	0.010185	-0.144506
H264	H	1.019002	0.510185	0.355494
O265	O	0.575617	-0.559713	-0.232507
O266	O	1.075617	-0.059713	0.267493
H267	H	0.577330	-0.532265	-0.285006
H268	H	1.077330	-0.032265	0.214994
O269	O	0.217298	-0.072510	-0.000152
O270	O	0.717298	0.427490	0.499848
H271	H	0.242121	-0.072826	-0.056611
H272	H	0.742121	0.427174	0.443389
H273	H	-0.033672	-0.063390	-0.000143
H274	H	0.466328	0.436610	0.499857
H275	H	0.528300	0.019629	-0.382148
H276	H	1.028300	0.519629	0.117852
H277	H	-0.293800	0.138279	-0.000082
H278	H	0.206200	0.638279	0.499918
H279	H	0.617104	0.108530	-0.776181
H280	H	1.117104	0.608530	-0.276181
O281	O	0.636858	0.128288	-0.212451
O282	O	1.136858	0.628288	0.287549
H283	H	0.658328	0.149779	-0.257412
H284	H	1.158328	0.649779	0.242588
H285	H	0.412717	0.145459	-0.000030
H286	H	0.912717	0.645459	0.499970
O287	O	0.641863	0.133302	-0.393674
O288	O	1.141863	0.633302	0.106326
H289	H	0.619585	0.160538	-0.433385
H290	H	1.119585	0.660538	0.066615
H291	H	0.612733	0.104154	-0.618016
H292	H	1.112733	0.604154	-0.118016
O293	O	0.028537	0.197367	-0.000075
O294	O	0.528537	0.697367	0.499925
H295	H	-0.001703	0.227750	-0.000079
H296	H	0.498297	0.727750	0.499921
H297	H	0.577923	-0.081080	-0.137096
H298	H	1.077923	0.418920	0.362904
O299	O	0.312989	0.156116	-0.000043
O300	O	0.812989	0.656116	0.499957
H301	H	0.334755	0.187027	-0.000021
H302	H	0.834755	0.687027	0.499979
H303	H	-0.067979	0.184715	-0.000072
H304	H	0.432021	0.684715	0.499928
H305	H	-0.271680	-0.021672	-0.000116
H306	H	0.228320	0.478328	0.499884
H307	H	0.563113	-0.795139	0.136942
H308	H	1.063113	-0.295139	0.636942
O309	O	0.565389	-0.316497	0.232372
O310	O	1.065389	0.183503	0.732372
H311	H	0.598483	-0.298188	0.235996
H312	H	1.098483	0.201812	0.735996
O313	O	0.338308	-0.027140	-0.000096
O314	O	0.838308	0.472860	0.499904
H315	H	0.368544	-0.057526	-0.000107
H316	H	0.868544	0.442474	0.499893
H317	H	0.057775	-0.062459	-0.000140
H318	H	0.557775	0.437541	0.499860
O319	O	0.577474	-0.178657	-0.157054
O320	O	1.077474	0.321343	0.342946
H321	H	0.610300	-0.206082	-0.160674
H322	H	1.110300	0.293918	0.339326
H323	H	0.570349	-0.088625	0.136881
H324	H	1.070349	0.411375	0.636881
H325	H	0.569401	-0.180075	0.136898
H326	H	1.069401	0.319925	0.636898
O327	O	0.563560	-0.697556	0.156896
O328	O	1.063560	-0.197556	0.656896
H329	H	0.561839	-0.725002	0.209395
H330	H	1.061839	-0.225002	0.709395
O331	O	0.571175	-0.793706	-0.156990
O332	O	1.071175	-0.293706	0.343010
H333	H	0.572887	-0.766259	-0.209489
H334	H	1.072887	-0.266259	0.290511
H335	H	0.571622	-0.696138	-0.137048
H336	H	1.071622	-0.196138	0.362952
H337	H	0.576680	-0.402350	-0.212578
H338	H	1.076680	0.097650	0.287422
H339	H	0.577604	-0.310898	-0.212580
H340	H	1.077604	0.189102	0.287420
O341	O	0.563835	-0.467725	0.232380
O342	O	1.063835	0.032275	0.732380
H343	H	0.562111	-0.495172	0.284877
H344	H	1.062111	0.004828	0.784877
O345	O	0.576704	-0.454935	-0.232514
O346	O	1.076704	0.045065	0.267486
H347	H	0.577896	-0.479494	-0.285008
H348	H	1.077896	0.020506	0.214992
