data_functionalizedCrystal
_audit_creation_method	'MofGen! by Chris Wilmer'
_symmetry_space_group_name_H-M	'P1'
_symmetry_Int_Tables_number	1
_symmetry_cell_setting	triclinic
loop_
_symmetry_equiv_pos_as_xyz
  x,y,z
_cell_length_a	13.897449
_cell_length_b	25.639239
_cell_length_c	13.897441
_cell_angle_alpha	90.034305
_cell_angle_beta	90.020733
_cell_angle_gamma	90.039966
loop_
_atom_site_label
_atom_site_type_symbol
_atom_site_fract_x
_atom_site_fract_y
_atom_site_fract_z
Zn1	Zn	1.474562	-0.208116	0.545356
Zn2	Zn	1.807895	0.125217	0.878690
Zn3	Zn	2.141229	0.458550	1.212023
Zn4	Zn	1.474397	-0.295559	0.384047
Zn5	Zn	1.807730	0.037775	0.717381
Zn6	Zn	2.141063	0.371108	1.050714
Zn7	Zn	1.313251	-0.208141	0.384075
Zn8	Zn	1.646584	0.125192	0.717408
Zn9	Zn	1.979918	0.458525	1.050741
Zn10	Zn	1.313174	-0.295524	0.545300
Zn11	Zn	1.646507	0.037809	0.878633
Zn12	Zn	1.979840	0.371142	1.211967
O13	O	1.393846	-0.251835	0.464695
O14	O	1.727179	0.081498	0.798028
O15	O	2.060513	0.414831	1.131361
O16	O	1.609522	-0.219720	0.523970
O17	O	1.942855	0.113614	0.857304
O18	O	2.276188	0.446947	1.190637
O19	O	1.452984	-0.283987	0.249069
O20	O	1.786317	0.049346	0.582402
O21	O	2.119650	0.382679	0.915736
O22	O	1.334751	-0.134973	0.405504
O23	O	1.668084	0.198361	0.738837
O24	O	2.001417	0.531694	1.072171
O25	O	1.609400	-0.283963	0.405457
O26	O	1.942734	0.049370	0.738791
O27	O	2.276067	0.382703	1.072124
O28	O	1.453265	-0.134954	0.523997
O29	O	1.786598	0.198379	0.857330
O30	O	2.119932	0.531712	1.190664
O31	O	1.334591	-0.219762	0.249089
O32	O	1.667924	0.113571	0.582423
O33	O	2.001257	0.446905	0.915756
O34	O	1.178259	-0.219729	0.405449
O35	O	1.511592	0.113605	0.738783
O36	O	1.844926	0.446938	1.072116
O37	O	1.334619	-0.283905	0.680289
O38	O	1.667952	0.049429	1.013622
O39	O	2.001286	0.382762	1.346956
O40	O	1.178202	-0.283929	0.523901
O41	O	1.511536	0.049404	0.857234
O42	O	1.844869	0.382738	1.190567
O43	O	1.453190	-0.219686	0.680331
O44	O	1.786523	0.113647	1.013664
O45	O	2.119857	0.446980	1.346997
O46	O	1.452909	-0.368719	0.405403
O47	O	1.786242	-0.035386	0.738736
O48	O	2.119575	0.297947	1.072069
O49	O	1.334459	-0.368694	0.523874
O50	O	1.667792	-0.035361	0.857208
O51	O	2.001125	0.297972	1.190541
C52	C	1.143232	-0.251828	0.464673
C53	C	1.476565	0.081505	0.798006
C54	C	1.809898	0.414838	1.131339
C55	C	1.036018	-0.251838	0.464686
C56	C	1.369351	0.081496	0.798019
C57	C	1.702684	0.414829	1.131353
C58	C	0.839722	-0.251840	0.464711
C59	C	1.173056	0.081494	0.798045
C60	C	1.506389	0.414827	1.131378
C61	C	0.948955	-0.251837	0.464695
C62	C	1.282288	0.081496	0.798028
C63	C	1.615622	0.414830	1.131361
C64	C	1.393684	-0.387678	0.464650
C65	C	1.727017	-0.054344	0.797984
C66	C	2.060350	0.278989	1.131317
C67	C	1.393702	-0.445792	0.464664
C68	C	1.727036	-0.112458	0.797997
C69	C	2.060369	0.220875	1.131330
C70	C	1.455684	-0.806155	0.403111
C71	C	1.789017	-0.472822	0.736445
C72	C	2.122350	-0.139489	1.069778
C73	C	1.455721	-0.860760	0.403124
C74	C	1.789054	-0.527426	0.736458
C75	C	2.122388	-0.194093	1.069791
O76	O	1.508251	-0.888997	0.350742
O77	O	1.841585	-0.555664	0.684075
O78	O	2.174918	-0.222330	1.017409
N79	N	1.394015	-0.888074	0.464758
N80	N	1.727349	-0.554741	0.798092
N81	N	2.060682	-0.221408	1.131425
C82	C	1.332275	-0.860782	0.526391
C83	C	1.665609	-0.527448	0.859724
C84	C	1.998942	-0.194115	1.193057
O85	O	1.279794	-0.889029	0.578817
O86	O	1.613127	-0.555695	0.912150
O87	O	1.946460	-0.222362	1.245484
C88	C	1.332243	-0.806178	0.526382
C89	C	1.665577	-0.472845	0.859715
C90	C	1.998910	-0.139512	1.193048
C91	C	1.393946	-0.778867	0.464737
C92	C	1.727280	-0.445533	0.798070
C93	C	2.060613	-0.112200	1.131403
C94	C	1.517382	-0.778844	0.341472
C95	C	1.850716	-0.445510	0.674806
C96	C	2.184049	-0.112177	1.008139
C97	C	1.517343	-0.724243	0.341458
C98	C	1.850677	-0.390910	0.674792
C99	C	2.184010	-0.057576	1.008125
C100	C	1.455606	-0.696954	0.403084
C101	C	1.788939	-0.363621	0.736417
C102	C	2.122273	-0.030288	1.069750
C103	C	1.393907	-0.724266	0.464723
C104	C	1.727241	-0.390933	0.798056
C105	C	2.060574	-0.057599	1.131390
C106	C	1.270509	-0.778887	0.588018
C107	C	1.603842	-0.445553	0.921351
C108	C	1.937175	-0.112220	1.254685
C109	C	1.270483	-0.724280	0.588004
C110	C	1.603816	-0.390946	0.921338
C111	C	1.937150	-0.057613	1.254671
C112	C	1.332186	-0.696968	0.526359
C113	C	1.665519	-0.363635	0.859693
C114	C	1.998852	-0.030301	1.193026
C115	C	1.332131	-0.642377	0.526334
C116	C	1.665464	-0.309043	0.859668
C117	C	1.998798	0.024290	1.193001
N118	N	1.393837	-0.615062	0.464700
N119	N	1.727170	-0.281729	0.798033
N120	N	2.060503	0.051604	1.131367
C121	C	1.455574	-0.642351	0.403075
C122	C	1.788907	-0.309018	0.736408
C123	C	2.122241	0.024316	1.069742
C124	C	1.332348	-0.975452	0.526405
C125	C	1.665681	-0.642119	0.859739
C126	C	1.999015	-0.308786	1.193072
C127	C	1.332374	-1.030055	0.526410
C128	C	1.665707	-0.696721	0.859743
C129	C	1.999041	-0.363388	1.193077
C130	C	1.455821	-1.030029	0.403145
C131	C	1.789155	-0.696695	0.736478
C132	C	2.122488	-0.363362	1.069812
C133	C	1.455790	-0.975426	0.403136
C134	C	1.789123	-0.642092	0.736469
C135	C	2.122456	-0.308759	1.069803
C136	C	1.394054	-0.948138	0.464771
C137	C	1.727387	-0.614804	0.798105
C138	C	2.060720	-0.281471	1.131438
C139	C	1.455487	-0.527686	0.403050
C140	C	1.788820	-0.194353	0.736383
C141	C	2.122154	0.138981	1.069716
C142	C	1.455440	-0.473081	0.403038
C143	C	1.788773	-0.139747	0.736372
C144	C	2.122107	0.193586	1.069705
C145	C	1.331997	-0.473111	0.526307
C146	C	1.665330	-0.139778	0.859640
C147	C	1.998663	0.193556	1.192973
C148	C	1.332040	-0.527712	0.526315
C149	C	1.665373	-0.194378	0.859648
C150	C	1.998706	0.138955	1.192981
C151	C	1.393793	-0.554998	0.464683
C152	C	1.727126	-0.221664	0.798016
C153	C	2.060460	0.111669	1.131350
O154	O	1.279630	-0.614105	0.578693
O155	O	1.612963	-0.280772	0.912026
O156	O	1.946297	0.052562	1.245359
O157	O	1.508056	-0.614097	0.350666
O158	O	1.841389	-0.280764	0.684000
O159	O	2.174722	0.052569	1.017333
C160	C	1.645439	-0.251843	0.464717
C161	C	1.978772	0.081491	0.798050
C162	C	2.312105	0.414824	1.131384
C163	C	1.752653	-0.251846	0.464727
C164	C	2.085986	0.081488	0.798060
C165	C	2.419319	0.414821	1.131393
C166	C	1.393914	-0.251789	0.716288
C167	C	1.727248	0.081544	1.049621
C168	C	2.060581	0.414878	1.382954
C169	C	1.393943	-0.251769	0.823502
C170	C	1.727277	0.081564	1.156835
C171	C	2.060610	0.414897	1.490168
C172	C	1.394035	-0.115462	0.464760
C173	C	1.727368	0.217871	0.798093
C174	C	2.060702	0.551205	1.131427
C175	C	1.394116	-0.057348	0.464788
C176	C	1.727449	0.275985	0.798121
C177	C	2.060782	0.609319	1.131455
C178	C	1.393833	-0.251843	0.214080
C179	C	1.727167	0.081490	0.547414
C180	C	2.060500	0.414823	0.880747
C181	C	1.393991	-0.251716	0.106867
C182	C	1.727324	0.081617	0.440200
C183	C	2.060658	0.414951	0.773533
C184	C	1.393970	-0.251734	1.019797
C185	C	1.727303	0.081599	1.353130
C186	C	2.060636	0.414933	1.686464
C187	C	1.393952	-0.251755	0.910564
C188	C	1.727285	0.081578	1.243898
C189	C	2.060619	0.414912	1.577231
H190	H	1.505774	-0.549896	0.352865
H191	H	1.839108	-0.216563	0.686199
H192	H	2.172441	0.116771	1.019532
H193	H	1.220211	-0.702064	0.638198
H194	H	1.553544	-0.368731	0.971532
H195	H	1.886878	-0.035398	1.304865
O196	O	1.515684	-0.948954	0.343125
O197	O	1.849017	-0.615621	0.676459
O198	O	2.182350	-0.282288	1.009792
C199	C	1.494643	-0.962336	0.246972
C200	C	1.827976	-0.629003	0.580305
C201	C	2.161309	-0.295669	0.913638
H202	H	1.457579	-1.002001	0.244949
H203	H	1.790913	-0.668668	0.578283
H204	H	2.124246	-0.335334	0.911616
H205	H	1.564281	-0.964187	0.203781
H206	H	1.897614	-0.630853	0.537115
H207	H	2.230948	-0.297520	0.870448
H208	H	1.445055	-0.931642	0.214431
H209	H	1.778389	-0.598309	0.547765
H210	H	2.111722	-0.264976	0.881098
O211	O	1.515430	-0.446493	0.343289
O212	O	1.848763	-0.113160	0.676622
O213	O	2.182097	0.220174	1.009956
C214	C	1.577697	-0.414860	0.398252
C215	C	1.911030	-0.081526	0.731586
C216	C	2.244364	0.251807	1.064919
H217	H	1.543632	-0.406667	0.471318
H218	H	1.876966	-0.073334	0.804652
H219	H	2.210299	0.260000	1.137985
H220	H	1.590621	-0.376472	0.358961
H221	H	1.923955	-0.043139	0.692294
H222	H	2.257288	0.290195	1.025627
H223	H	1.649187	-0.435859	0.408923
H224	H	1.982520	-0.102525	0.742256
H225	H	2.315854	0.230808	1.075589
O226	O	1.577383	-0.697797	0.281555
O227	O	1.910716	-0.364464	0.614889
O228	O	2.244050	-0.031131	0.948222
C229	C	1.631861	-0.733601	0.227160
C230	C	1.965194	-0.400268	0.560494
C231	C	2.298528	-0.066934	0.893827
H232	H	1.635186	-0.772506	0.266686
H233	H	1.968519	-0.439173	0.600019
H234	H	2.301853	-0.105839	0.933353
H235	H	1.707862	-0.717793	0.216944
H236	H	2.041195	-0.384460	0.550278
H237	H	2.374529	-0.051127	0.883611
H238	H	1.596589	-0.739456	0.153867
H239	H	1.929923	-0.406123	0.487200
H240	H	2.263256	-0.072789	0.820534
H241	H	1.282067	-0.953237	0.576593
H242	H	1.615400	-0.619904	0.909927
H243	H	1.948734	-0.286570	1.243260
O244	O	1.515834	-1.056623	0.343441
O245	O	1.849168	-0.723290	0.676774
O246	O	2.182501	-0.389957	1.010107
C247	C	1.502645	-1.110673	0.356695
C248	C	1.835978	-0.777340	0.690028
C249	C	2.169312	-0.444006	1.023361
H250	H	1.470924	-1.118102	0.431074
H251	H	1.804258	-0.784769	0.764408
H252	H	2.137591	-0.451435	1.097741
H253	H	1.574939	-1.131372	0.350343
H254	H	1.908272	-0.798038	0.683676
H255	H	2.241606	-0.464705	1.017010
H256	H	1.451408	-1.126251	0.299386
H257	H	1.784742	-0.792918	0.632719
H258	H	2.118075	-0.459585	0.966053
H259	H	1.567662	-0.801056	0.291289
H260	H	1.900995	-0.467723	0.624623
H261	H	2.234328	-0.134390	0.957956
O262	O	1.272398	-1.056501	0.586375
O263	O	1.605731	-0.723168	0.919709
O264	O	1.939064	-0.389834	1.253042
C265	C	1.217885	-1.020699	0.640741
C266	C	1.551218	-0.687366	0.974074
C267	C	1.884551	-0.354033	1.307407
H268	H	1.257371	-0.981754	0.644100
H269	H	1.590704	-0.648420	0.977433
H270	H	1.924038	-0.315087	1.310767
H271	H	1.207562	-1.036448	0.716737
H272	H	1.540895	-0.703114	1.050070
H273	H	1.874228	-0.369781	1.383404
H274	H	1.144642	-1.014947	0.605348
H275	H	1.477976	-0.681614	0.938682
H276	H	1.811309	-0.348281	1.272015
O277	O	1.210542	-0.805328	0.647995
O278	O	1.543876	-0.471994	0.981329
O279	O	1.877209	-0.138661	1.314662
C280	C	1.156041	-0.769522	0.702364
C281	C	1.489375	-0.436189	1.035697
C282	C	1.822708	-0.102856	1.369031
H283	H	1.195533	-0.730578	0.705714
H284	H	1.528866	-0.397244	1.039047
H285	H	1.862200	-0.063911	1.372380
H286	H	1.145727	-0.785267	0.778364
H287	H	1.479060	-0.451934	1.111697
H288	H	1.812393	-0.118601	1.445030
H289	H	1.082795	-0.763769	0.666981
H290	H	1.416128	-0.430435	1.000314
H291	H	1.749462	-0.097102	1.333648
H292	H	1.281799	-0.549950	0.576514
H293	H	1.615133	-0.216617	0.909848
H294	H	1.948466	0.116717	1.243181
H295	H	1.281728	-0.450884	0.576479
H296	H	1.615061	-0.117551	0.909812
H297	H	1.948394	0.215783	1.243145
