data_functionalizedCrystal
_audit_creation_method	'MofGen! by Chris Wilmer'
_symmetry_space_group_name_H-M	'P1'
_symmetry_Int_Tables_number	1
_symmetry_cell_setting	triclinic
loop_
_symmetry_equiv_pos_as_xyz
  x,y,z
_cell_length_a	10.654550
_cell_length_b	10.654551
_cell_length_c	9.130313
_cell_angle_alpha	90.001552
_cell_angle_beta	89.996220
_cell_angle_gamma	84.485132
loop_
_atom_site_label
_atom_site_type_symbol
_atom_site_fract_x
_atom_site_fract_y
_atom_site_fract_z
O1	O	1.667835	0.176393	-0.121910
O2	O	1.302356	0.193199	-0.121885
O3	O	1.493498	0.002057	-0.121899
O4	O	1.476693	0.367535	-0.121896
O5	O	1.493496	0.002062	0.121700
O6	O	1.302354	0.193204	0.121713
O7	O	1.667832	0.176398	0.121689
Cu8	Cu	1.485093	0.184802	0.143944
Cu9	Cu	1.485096	0.184796	-0.144140
O10	O	1.476691	0.367540	0.121703
C11	C	1.255557	0.191968	-0.000083
C12	C	1.116114	0.188276	-0.000074
C13	C	1.036629	0.300817	-0.000095
C14	C	0.905608	0.297341	-0.000120
C15	C	0.933570	0.068771	-0.000110
C16	C	1.064589	0.072249	-0.000074
C17	C	1.088154	0.416844	-0.000094
C18	C	1.008667	0.529395	-0.000116
C19	C	0.877647	0.525918	-0.000142
C20	C	0.826112	0.409891	-0.000145
C21	C	1.492263	-0.044739	-0.000103
C22	C	1.488570	-0.184182	-0.000112
C23	C	1.486839	-0.249696	-0.132895
C24	C	1.483359	-0.380717	-0.132888
C25	C	1.483346	-0.380697	0.132696
C26	C	1.486817	-0.249678	0.132688
C27	C	1.488592	-0.184201	-0.265696
C28	C	1.486863	-0.249716	-0.398490
C29	C	1.483382	-0.380736	-0.398483
C30	C	1.481632	-0.446241	-0.265682
C31	C	1.714632	0.177629	-0.000117
C32	C	1.854075	0.181321	-0.000135
C33	C	1.477926	0.414336	-0.000097
C34	C	1.481619	0.553779	-0.000097
N35	N	1.485100	0.184805	0.346566
N36	N	1.485098	0.184782	-0.346763
C37	C	1.569760	0.100196	0.423212
C38	C	1.569756	0.100181	0.576549
C39	C	1.400430	0.269395	0.576581
C40	C	1.400428	0.269403	0.423246
C41	C	1.654431	0.015599	0.346532
C42	C	1.739099	-0.069016	0.423178
C43	C	1.739095	-0.069031	0.576515
C44	C	1.654425	0.015569	0.653206
H45	H	0.719425	0.407069	-0.000143
C46	C	0.790215	0.649724	-0.000147
N47	N	0.724364	0.742980	-0.000154
C48	C	1.654426	0.015547	0.821882
N49	N	1.654434	0.015536	0.948927
C50	C	1.477803	-0.590368	-0.265682
N51	N	1.474928	-0.698924	-0.265684
C52	C	0.876876	-0.058850	-0.000128
N53	N	0.834175	-0.154976	-0.000148
C54	C	1.488728	-0.177608	0.278756
N55	N	1.490166	-0.123325	0.388779
C56	C	1.481518	-0.452804	-0.544556
N57	N	1.480138	-0.507085	-0.654584
C58	C	1.152027	-0.051552	-0.000059
N59	N	1.217887	-0.144803	-0.000046
C60	C	1.492301	-0.040061	-0.265715
N61	N	1.495052	0.068510	-0.265729
H62	H	1.481921	-0.434042	0.240816
H63	H	1.331496	0.338274	0.639032
C64	C	1.832215	-0.162086	0.338816
N65	N	1.902348	-0.232193	0.275276
C66	C	1.832212	-0.162125	0.660822
N67	N	1.902351	-0.232246	0.724318
H68	H	1.654444	0.015606	0.221678
H69	H	1.194836	0.419687	-0.000080
C70	C	1.065358	0.657017	-0.000104
N71	N	1.108056	0.753146	-0.000094
H72	H	1.488276	-0.196371	-0.506611
C73	C	1.307271	0.362449	0.338931
N74	N	1.237089	0.432521	0.275425
