data_functionalizedCrystal
_audit_creation_method	'MofGen! by Chris Wilmer'
_symmetry_space_group_name_H-M	'P1'
_symmetry_Int_Tables_number	1
_symmetry_cell_setting	triclinic
loop_
_symmetry_equiv_pos_as_xyz
  x,y,z
_cell_length_a	18.101395
_cell_length_b	18.101398
_cell_length_c	16.120256
_cell_angle_alpha	92.887765
_cell_angle_beta	92.874436
_cell_angle_gamma	90.026661
loop_
_atom_site_label
_atom_site_type_symbol
_atom_site_fract_x
_atom_site_fract_y
_atom_site_fract_z
Zn1	Zn	-0.316171	1.110900	-0.471191
Zn2	Zn	0.183829	1.610900	0.028809
Zn3	Zn	-0.433731	1.117074	-0.331781
Zn4	Zn	0.066269	1.617074	0.168219
Zn5	Zn	-0.309900	0.993336	-0.331815
Zn6	Zn	0.190100	1.493336	0.168185
Zn7	Zn	-0.439965	0.987010	-0.471171
Zn8	Zn	0.060035	1.487010	0.028829
O9	O	-0.374942	1.052080	-0.401489
O10	O	0.125058	1.552080	0.098511
O11	O	-0.331781	1.215352	-0.452692
O12	O	0.168219	1.715352	0.047308
O13	O	-0.412072	1.105891	-0.215121
O14	O	0.087928	1.605891	0.284879
O15	O	-0.207100	1.008994	-0.350327
O16	O	0.292900	1.508994	0.149673
O17	O	-0.418152	1.219888	-0.350268
O18	O	0.081848	1.719888	0.149732
O19	O	-0.211707	1.095368	-0.452725
O20	O	0.288293	1.595368	0.047275
O21	O	-0.321094	1.014981	-0.215146
O22	O	0.178906	1.514981	0.284854
O23	O	-0.327138	0.888863	-0.350307
O24	O	0.172862	1.388863	0.149693
O25	O	-0.428776	0.998213	-0.587838
O26	O	0.071224	1.498213	-0.087838
O27	O	-0.422696	0.884216	-0.452691
O28	O	0.077304	1.384216	0.047309
O29	O	-0.337825	1.089234	-0.587853
O30	O	0.162175	1.589234	-0.087853
O31	O	-0.538190	1.099758	-0.350248
O32	O	-0.038190	1.599758	0.149752
O33	O	-0.542770	1.004200	-0.452657
O34	O	-0.042770	1.504200	0.047343
C35	C	-0.374913	0.859669	-0.401501
C36	C	0.125087	1.359669	0.098499
C37	C	-0.374920	0.777354	-0.401526
C38	C	0.125080	1.277354	0.098474
C39	C	-0.374962	0.478264	-0.401491
C40	C	0.125038	0.978264	0.098509
C41	C	-0.435346	0.506704	-0.465590
C42	C	0.064654	1.006704	0.034410
C43	C	-0.435178	0.592311	-0.465853
C44	C	0.064822	1.092311	0.034147
C45	C	-0.374941	0.626646	-0.401508
C46	C	0.125059	1.126646	0.098492
C47	C	-0.298022	0.594510	-0.425515
C48	C	0.201978	1.094510	0.074485
C49	C	-0.298388	0.508845	-0.425971
C50	C	0.201612	1.008845	0.074029
C51	C	-0.390802	0.513787	-0.313230
C52	C	0.109198	1.013787	0.186770
C53	C	-0.392535	0.599415	-0.313702
C54	C	0.107465	1.099415	0.186298
C55	C	-0.374925	0.710505	-0.401517
C56	C	0.125075	1.210505	0.098483
C57	C	-0.374973	0.394405	-0.401485
C58	C	0.125027	0.894405	0.098515
C59	C	-0.567351	1.051982	-0.401465
C60	C	-0.067351	1.551982	0.098535
C61	C	-0.649666	1.052006	-0.401482
C62	C	-0.149666	1.552006	0.098518
C63	C	-0.948759	1.052167	-0.401527
C64	C	-0.448759	1.552167	0.098473
C65	C	-0.920353	0.992170	-0.466120
C66	C	-0.420353	1.492170	0.033880
C67	C	-0.834726	0.991908	-0.465918
C68	C	-0.334726	1.491908	0.034082
C69	C	-0.800376	1.052087	-0.401505
C70	C	-0.300376	1.552087	0.098495
C71	C	-0.827562	1.034915	-0.313645
C72	C	-0.327562	1.534915	0.186355
C73	C	-0.913225	1.034530	-0.314032
C74	C	-0.413225	1.534530	0.185968
C75	C	-0.918123	1.129496	-0.424021
C76	C	-0.418123	1.629496	0.075979
C77	C	-0.832559	1.128948	-0.425948
C78	C	-0.332559	1.628948	0.074052
C79	C	-0.716515	1.052044	-0.401488
C80	C	-0.216515	1.552044	0.098512
C81	C	-1.032619	1.052209	-0.401539
C82	C	-0.532619	1.552209	0.098461
C83	C	-0.181782	1.052198	-0.401532
C84	C	0.318218	1.552198	0.098468
C85	C	-0.099468	1.052248	-0.401550
C86	C	0.400532	1.552248	0.098450
C87	C	-0.384695	1.042329	-0.618941
C88	C	0.115305	1.542329	-0.118941
C89	C	-0.388852	1.038174	-0.711605
C90	C	0.111148	1.538174	-0.211605
C91	C	-0.374971	1.245242	-0.401478
C92	C	0.125029	1.745242	0.098522
C93	C	-0.374983	1.327556	-0.401473
C94	C	0.125017	1.827556	0.098527
C95	C	-0.353247	1.073747	-0.922560
C96	C	0.146753	1.573747	-0.422560
C97	C	-0.396410	1.030563	-0.881260
C98	C	0.103590	1.530563	-0.381260
C99	C	-0.392203	1.034799	-0.786855
C100	C	0.107797	1.534799	-0.286855
C101	C	-0.357453	1.069512	-1.016973
C102	C	0.142547	1.569512	-0.516973
C103	C	-0.365173	1.061835	-0.184884
C104	C	0.134827	1.561835	0.315116
C105	C	-0.360807	1.066134	-0.092220
C106	C	0.139193	1.566134	0.407780
H107	H	-0.492343	0.613984	-0.450807
H108	H	0.007657	1.113984	0.049193
H109	H	-0.449116	0.620535	-0.295595
H110	H	0.050884	1.120535	0.204405
H111	H	-0.351430	0.623082	-0.263378
H112	H	0.148570	1.123082	0.236622
Cl113	Cl	-0.291312	1.135727	-0.867689
Cl114	Cl	0.208688	1.635727	-0.367689
H115	H	-0.436517	0.990406	-0.916802
H116	H	0.063483	1.490406	-0.416802
Cl117	Cl	-0.942839	0.947439	-0.284612
Cl118	Cl	-0.442839	1.447439	0.215388
Cl119	Cl	-0.322823	0.485828	-0.239491
Cl120	Cl	0.177177	0.985828	0.260509
H121	H	-0.492707	0.486759	-0.450712
H122	H	0.007293	0.986759	0.049288
Cl123	Cl	-0.419899	0.468958	-0.565970
Cl124	Cl	0.080101	0.968958	-0.065970
H125	H	-0.251984	0.616912	-0.380285
H126	H	0.248016	1.116912	0.119715
Cl127	Cl	-0.955777	1.154858	-0.521250
Cl128	Cl	-0.455777	1.654858	-0.021250
Cl129	Cl	-0.806740	1.007784	-0.566502
Cl130	Cl	-0.306740	1.507784	-0.066502
Cl131	Cl	-0.793195	0.948782	-0.283695
Cl132	Cl	-0.293195	1.448782	0.216305
H133	H	-0.284486	0.485978	-0.490494
H134	H	0.215514	0.985978	0.009506
Cl135	Cl	-0.419483	0.619423	-0.566819
Cl136	Cl	0.080517	1.119423	-0.066819
H137	H	-0.804965	1.077414	-0.264207
H138	H	-0.304965	1.577414	0.235793
H139	H	-0.252006	0.490129	-0.381425
H140	H	0.247994	0.990129	0.118575
Cl141	Cl	-0.276039	0.623208	-0.524052
Cl142	Cl	0.223961	1.123208	-0.024052
Cl143	Cl	-0.941754	1.099392	-0.237189
Cl144	Cl	-0.441754	1.599392	0.262811
H145	H	-0.445724	0.493156	-0.291412
H146	H	0.054276	0.993156	0.208588
H147	H	-0.943850	1.002315	-0.531479
H148	H	-0.443850	1.502315	-0.031479
H149	H	-0.815114	1.141970	-0.490608
H150	H	-0.315114	1.641970	0.009392
H151	H	-0.809183	1.175696	-0.382329
H152	H	-0.309183	1.675696	0.117671
H153	H	-0.941272	0.935117	-0.451409
H154	H	-0.441272	1.435117	0.048591
H155	H	-0.813626	0.934510	-0.451019
H156	H	-0.313626	1.434510	0.048981
Cl157	Cl	-0.946132	1.198437	-0.351400
Cl158	Cl	-0.446132	1.698437	0.148600
