data_functionalizedCrystal
_audit_creation_method	'MofGen! by Chris Wilmer'
_symmetry_space_group_name_H-M	'P1'
_symmetry_Int_Tables_number	1
_symmetry_cell_setting	triclinic
loop_
_symmetry_equiv_pos_as_xyz
  x,y,z
_cell_length_a	10.540535
_cell_length_b	10.540539
_cell_length_c	9.616153
_cell_angle_alpha	90.000094
_cell_angle_beta	89.995499
_cell_angle_gamma	95.475433
loop_
_atom_site_label
_atom_site_type_symbol
_atom_site_fract_x
_atom_site_fract_y
_atom_site_fract_z
O1	O	1.685895	-0.178868	-0.115562
O2	O	1.316482	-0.195730	-0.115581
O3	O	1.509617	-0.002592	-0.115570
O4	O	1.492761	-0.372006	-0.115574
O5	O	1.509590	-0.002596	0.115722
O6	O	1.316455	-0.195734	0.115710
O7	O	1.685869	-0.178872	0.115729
Zn8	Zn	1.501158	-0.187304	0.152442
Zn9	Zn	1.501193	-0.187298	-0.152294
O10	O	1.492734	-0.372010	0.115717
C11	C	1.269165	-0.194469	0.000062
C12	C	1.128217	-0.190689	0.000055
C13	C	1.091546	-0.049675	0.000062
C14	C	0.944946	-0.045698	0.000601
C15	C	0.918866	-0.255062	0.131892
C16	C	1.065631	-0.258062	0.131989
C17	C	1.065545	-0.260109	-0.131042
C18	C	0.919199	-0.253588	-0.132760
C19	C	1.508339	0.044709	0.000073
C20	C	1.504557	0.185657	0.000066
C21	C	1.733185	-0.180133	0.000083
C22	C	1.874134	-0.183913	0.000081
C23	C	1.494011	-0.419311	0.000071
C24	C	1.497793	-0.560259	0.000070
N25	N	1.501143	-0.187307	0.360417
C26	C	1.359640	0.369081	-0.000461
C27	C	1.363474	0.222463	0.000060
C28	C	1.572438	0.247313	0.132148
C29	C	1.567623	0.393858	0.132259
C30	C	1.570523	0.394380	-0.130762
C31	C	1.571822	0.247399	-0.132509
N32	N	1.501218	-0.187285	-0.360269
C33	C	1.397513	-0.290276	0.580780
C34	C	1.397741	-0.290661	0.419613
C35	C	1.633867	-0.217438	0.418872
C36	C	1.633302	-0.218167	0.580090
C37	C	1.473371	-0.053868	0.580328
C38	C	1.470324	-0.054733	0.419101
H39	H	0.890608	-0.201810	-0.230276
C40	C	1.264516	-0.266195	0.366217
H41	H	1.209764	-0.255935	0.443057
H42	H	1.270795	-0.191040	0.311144
H43	H	1.230780	-0.336541	0.311530
H44	H	0.916482	0.009669	0.095648
C45	C	1.263872	-0.266180	0.633217
H46	H	1.270119	-0.193100	0.691539
H47	H	1.210549	-0.252432	0.556106
H48	H	1.228508	-0.338144	0.684392
C49	C	0.854888	-0.392534	0.138026
H50	H	0.800192	-0.407793	0.060071
H51	H	0.918460	-0.450621	0.136584
H52	H	0.806517	-0.403989	0.221205
C53	C	1.508861	0.436999	-0.266007
H54	H	1.554185	0.408665	-0.343686
H55	H	1.422719	0.401299	-0.270071
H56	H	1.511654	0.527337	-0.267704
H57	H	1.657657	-0.315504	0.617679
H58	H	1.108016	-0.216105	-0.230985
H59	H	1.674684	0.223179	-0.140479
H60	H	1.134993	0.003567	0.094449
C61	C	0.852982	-0.389876	-0.144048
H62	H	0.796740	-0.406145	-0.067545
H63	H	0.806004	-0.398329	-0.228377
H64	H	0.915359	-0.449246	-0.143149
C65	C	1.508713	0.189779	0.264932
H66	H	1.550469	0.227699	0.344308
H67	H	1.421517	0.205684	0.266113
H68	H	1.514859	0.100453	0.266299
H69	H	1.548983	0.022788	0.618448
C70	C	1.421400	-0.423249	0.635430
H71	H	1.358332	-0.484908	0.599308
H72	H	1.503362	-0.443227	0.606579
H73	H	1.417230	-0.423652	0.734118
C74	C	1.338423	-0.023875	0.367499
H75	H	1.302280	-0.091491	0.310421
H76	H	1.284347	-0.014030	0.445006
H77	H	1.347275	0.052927	0.315205
H78	H	0.887952	-0.206251	0.230366
C79	C	1.096751	-0.397706	0.139578
H80	H	1.019724	-0.452352	0.142600
H81	H	1.144482	-0.417151	0.059861
H82	H	1.145229	-0.409767	0.220983
H83	H	1.517433	0.422055	0.230988
H84	H	1.105791	-0.210016	0.230899
C85	C	1.740674	-0.118883	0.367071
H86	H	1.820084	-0.138895	0.403651
H87	H	1.743714	-0.120707	0.268368
H88	H	1.724124	-0.036241	0.397260
C89	C	1.421928	-0.424375	0.367484
H90	H	1.431664	-0.478667	0.444839
H91	H	1.351736	-0.458226	0.312656
H92	H	1.497330	-0.418725	0.312815
C93	C	1.704681	0.458674	0.140398
H94	H	1.702670	0.548591	0.140517
H95	H	1.744003	0.433151	0.223388
H96	H	1.751920	0.434275	0.062296
C97	C	1.504827	0.192097	-0.264515
H98	H	1.436154	0.131626	-0.238956
H99	H	1.473050	0.258938	-0.316378
H100	H	1.563950	0.151577	-0.319639
H101	H	1.540851	0.025589	0.378810
H102	H	1.087730	-0.363861	-0.132318
H103	H	0.915619	0.009945	-0.093868
H104	H	1.310061	0.179861	-0.094622
H105	H	1.303919	0.397682	-0.095179
C106	C	1.708183	0.458177	-0.131971
H107	H	1.751652	0.430389	-0.211256
H108	H	1.706889	0.548113	-0.135362
H109	H	1.750942	0.435368	-0.050032
H110	H	1.676045	0.224961	0.137064
C111	C	1.148286	0.023499	-0.127589
H112	H	1.194853	-0.031288	-0.182033
H113	H	1.081412	0.052281	-0.181883
H114	H	1.203637	0.094645	-0.097591
C115	C	1.284642	0.409866	0.126776
H116	H	1.337160	0.469766	0.180223
H117	H	1.211233	0.447742	0.096407
H118	H	1.259287	0.337246	0.182215
C119	C	1.290802	0.166044	0.128182
H120	H	1.258829	0.232747	0.180122
H121	H	1.221870	0.107587	0.098734
H122	H	1.346891	0.123007	0.184756
C123	C	1.740757	-0.120772	0.632775
H124	H	1.784569	-0.080944	0.555645
H125	H	1.705294	-0.058072	0.687680
H126	H	1.798717	-0.163228	0.687484
H127	H	1.658764	-0.313675	0.378482
H128	H	1.378634	-0.025190	0.621060
