data_functionalizedCrystal
_audit_creation_method	'MofGen! by Chris Wilmer'
_symmetry_space_group_name_H-M	'P1'
_symmetry_Int_Tables_number	1
_symmetry_cell_setting	triclinic
loop_
_symmetry_equiv_pos_as_xyz
  x,y,z
_cell_length_a	14.519731
_cell_length_b	19.188924
_cell_length_c	13.596369
_cell_angle_alpha	89.991944
_cell_angle_beta	89.994584
_cell_angle_gamma	83.415409
loop_
_atom_site_label
_atom_site_type_symbol
_atom_site_fract_x
_atom_site_fract_y
_atom_site_fract_z
O1	O	1.223284	0.091596	-0.081798
O2	O	1.723284	0.591596	0.418202
O3	O	0.954743	0.102358	-0.081800
O4	O	1.454743	0.602358	0.418200
O5	O	1.096766	-0.004651	-0.081788
O6	O	1.596766	0.495349	0.418212
O7	O	1.081261	0.198605	-0.081811
O8	O	1.581261	0.698605	0.418189
O9	O	1.096752	-0.004657	0.081795
O10	O	1.596752	0.495343	0.581795
O11	O	0.954729	0.102352	0.081783
O12	O	1.454729	0.602352	0.581783
O13	O	1.223270	0.091590	0.081785
O14	O	1.723270	0.591590	0.581785
Zn15	Zn	1.088997	0.096970	0.107756
Zn16	Zn	1.588997	0.596970	0.607756
Zn17	Zn	1.089016	0.096978	-0.107771
Zn18	Zn	1.589016	0.596978	0.392229
O19	O	1.081247	0.198599	0.081772
O20	O	1.581247	0.698599	0.581772
C21	C	0.920380	0.101851	-0.000009
C22	C	1.420380	0.601851	0.499991
C23	C	0.818009	0.100340	-0.000009
C24	C	1.318009	0.600340	0.499991
C25	C	0.734872	0.099112	-0.000013
C26	C	1.234872	0.599112	0.499987
C27	C	0.630573	0.097578	-0.000013
C28	C	1.130573	0.597578	0.499987
C29	C	0.547442	0.096360	-0.000013
C30	C	1.047442	0.596360	0.499987
C31	C	0.443136	0.094826	-0.000015
C32	C	0.943136	0.594826	0.499985
C33	C	1.096258	-0.030667	0.000005
C34	C	1.596258	0.469333	0.500005
C35	C	1.094754	-0.108177	0.000007
C36	C	1.594754	0.391823	0.500007
C37	C	1.094060	-0.144575	-0.089162
C38	C	1.594060	0.355425	0.410838
C39	C	1.092633	-0.217403	-0.089169
C40	C	1.592633	0.282597	0.410831
C41	C	1.091920	-0.253832	-0.000002
C42	C	1.591920	0.246168	0.499998
C43	C	1.092609	-0.217424	0.089179
C44	C	1.592609	0.282576	0.589179
C45	C	1.094026	-0.144597	0.089184
C46	C	1.594026	0.355403	0.589184
N47	N	1.142169	-0.373316	0.066363
N48	N	1.642169	0.126684	0.566363
N49	N	1.140825	-0.442499	0.066352
N50	N	1.640825	0.057501	0.566352
C51	C	1.087648	-0.473256	-0.000012
C52	C	1.587648	0.026744	0.499988
N53	N	1.035878	-0.432219	-0.066380
N54	N	1.535878	0.067781	0.433620
N55	N	1.037227	-0.363030	-0.066372
N56	N	1.537227	0.136970	0.433628
C57	C	1.090383	-0.332801	0.000002
C58	C	1.590383	0.167199	0.500002
C59	C	1.085406	-0.588623	-0.089195
C60	C	1.585406	-0.088623	0.410805
C61	C	1.083974	-0.661452	-0.089199
C62	C	1.583974	-0.161452	0.410801
C63	C	1.083959	-0.661472	0.089151
C64	C	1.583959	-0.161472	0.589151
C65	C	1.085382	-0.588644	0.089152
C66	C	1.585382	-0.088644	0.589152
C67	C	1.086110	-0.552224	-0.000024
C68	C	1.586110	-0.052224	0.499976
C69	C	1.257634	0.092097	-0.000009
C70	C	1.757634	0.592097	0.499991
C71	C	1.360004	0.093608	-0.000015
C72	C	1.860004	0.593608	0.499985
C73	C	1.081755	0.224615	-0.000022
C74	C	1.581755	0.724615	0.499978
C75	C	1.083259	0.302125	-0.000032
C76	C	1.583259	0.802125	0.499968
N77	N	1.088991	0.096965	0.254848
N78	N	1.588991	0.596965	0.754848
N79	N	1.089029	0.096978	-0.254863
N80	N	1.589029	0.596978	0.245137
C81	C	1.089015	0.096978	0.656139
C82	C	1.589015	0.596978	1.156139
C83	C	1.089005	0.096977	0.544487
C84	C	1.589005	0.596977	1.044487
C85	C	1.089003	0.096972	0.455497
C86	C	1.589003	0.596972	0.955497
C87	C	1.088993	0.096970	0.343838
C88	C	1.588993	0.596970	0.843838
H89	H	1.094650	-0.114927	-0.161776
H90	H	1.594650	0.385073	0.338224
C91	C	1.091906	-0.257454	-0.187259
C92	C	1.591906	0.242546	0.312741
H93	H	1.092558	-0.225334	-0.240367
H94	H	1.592558	0.274666	0.259633
H95	H	1.037600	-0.280620	-0.190996
H96	H	1.537600	0.219380	0.309004
H97	H	1.145140	-0.291109	-0.190935
H98	H	1.645140	0.208891	0.309065
C99	C	1.094792	-0.104554	0.187271
C100	C	1.594792	0.395446	0.687271
H101	H	1.095734	-0.055964	0.174503
H102	H	1.595734	0.444036	0.674503
H103	H	1.148319	-0.121749	0.223916
H104	H	1.648319	0.378251	0.723916
H105	H	1.040780	-0.111236	0.223903
H106	H	1.540780	0.388764	0.723903
C107	C	1.083206	-0.701490	-0.187291
C108	C	1.583206	-0.201490	0.312709
H109	H	1.083849	-0.669367	-0.240396
H110	H	1.583849	-0.169367	0.259604
H111	H	1.028885	-0.724641	-0.191005
H112	H	1.528885	-0.224641	0.308995
H113	H	1.136424	-0.735157	-0.190994
H114	H	1.636424	-0.235157	0.309006
C115	C	1.091827	-0.257493	0.187259
C116	C	1.591827	0.242507	0.687259
H117	H	1.090893	-0.306080	0.174486
H118	H	1.590893	0.193920	0.674486
H119	H	1.038289	-0.240308	0.223899
H120	H	1.538289	0.259692	0.723899
H121	H	1.145828	-0.250816	0.223899
H122	H	1.645828	0.249184	0.723899
H123	H	1.085993	-0.558968	-0.161808
H124	H	1.585993	-0.058968	0.338192
C125	C	1.083167	-0.701534	0.187233
C126	C	1.583167	-0.201534	0.687233
H127	H	1.082226	-0.750121	0.174461
H128	H	1.582226	-0.250121	0.674461
H129	H	1.029629	-0.684345	0.223869
H130	H	1.529629	-0.184345	0.723869
H131	H	1.137168	-0.694862	0.223876
H132	H	1.637168	-0.194862	0.723876
C133	C	1.086161	-0.548605	0.187240
C134	C	1.586161	-0.048605	0.687240
H135	H	1.085540	-0.580730	0.240345
H136	H	1.585540	-0.080730	0.740345
H137	H	1.032950	-0.514938	0.190952
H138	H	1.532950	-0.014938	0.690952
H139	H	1.140489	-0.525455	0.190945
H140	H	1.640489	-0.025455	0.690945
