data_functionalizedCrystal
_audit_creation_method	'MofGen! by Chris Wilmer'
_symmetry_space_group_name_H-M	'P1'
_symmetry_Int_Tables_number	1
_symmetry_cell_setting	triclinic
loop_
_symmetry_equiv_pos_as_xyz
  x,y,z
_cell_length_a	15.995350
_cell_length_b	9.130313
_cell_length_c	10.654550
_cell_angle_alpha	89.999890
_cell_angle_beta	83.988639
_cell_angle_gamma	90.003412
loop_
_atom_site_label
_atom_site_type_symbol
_atom_site_fract_x
_atom_site_fract_y
_atom_site_fract_z
O1	O	1.111921	-0.121671	0.161867
O2	O	1.611921	0.378329	0.661867
O3	O	0.868262	-0.121701	0.181857
O4	O	1.368262	0.378299	0.681857
O5	O	0.995693	-0.121680	-0.010950
O6	O	1.495693	0.378320	0.489050
O7	O	0.984489	-0.121692	0.354674
O8	O	1.484489	0.378308	0.854674
O9	O	0.995692	0.121919	-0.010945
O10	O	1.495692	0.621919	0.489055
O11	O	0.868260	0.121898	0.181862
O12	O	1.368260	0.621898	0.681862
O13	O	1.111919	0.121927	0.161873
O14	O	1.611919	0.621927	0.661873
Cu15	Cu	0.990089	0.144155	0.171868
Cu16	Cu	1.490089	0.644155	0.671868
Cu17	Cu	0.990091	-0.143929	0.171862
Cu18	Cu	1.490091	0.356071	0.671862
O19	O	0.984487	0.121906	0.354680
O20	O	1.484487	0.621906	0.854680
C21	C	0.837061	0.000095	0.181033
C22	C	1.337061	0.500095	0.681033
C23	C	0.744096	0.000083	0.178555
C24	C	1.244096	0.500083	0.678555
N25	N	0.990094	0.346778	0.171871
N26	N	1.490094	0.846778	0.671871
N27	N	0.990093	-0.346551	0.171848
N28	N	1.490093	0.153449	0.671848
C29	C	0.406297	0.000114	0.169658
C30	C	0.906297	0.500114	0.669658
C31	C	0.452934	0.000662	0.032344
C32	C	0.952934	0.500662	0.532344
C33	C	0.549639	0.000103	0.034822
C34	C	1.049639	0.500103	0.534822
C35	C	0.573883	0.000100	0.174071
C36	C	1.073883	0.500100	0.674071
C37	C	0.533190	-0.139004	0.241796
C38	C	1.033190	0.360996	0.741796
C39	C	0.436535	-0.139110	0.238347
C40	C	0.936535	0.360890	0.738347
C41	C	0.436210	0.137907	0.241190
C42	C	0.936210	0.637907	0.741190
C43	C	0.533156	0.139736	0.241157
C44	C	1.033156	0.639736	0.741157
C45	C	0.668595	0.000086	0.176573
C46	C	1.168595	0.500086	0.676573
C47	C	0.311585	0.000117	0.167161
C48	C	0.811585	0.500117	0.667161
C49	C	1.143119	0.000129	0.162696
C50	C	1.643119	0.500129	0.662696
C51	C	1.236084	0.000130	0.165174
C52	C	1.736084	0.500130	0.665174
C53	C	0.994870	0.000117	-0.057735
C54	C	1.494870	0.500117	0.442265
C55	C	0.992409	0.000112	-0.197146
C56	C	1.492409	0.500112	0.302854
C57	C	1.046536	0.423439	0.086525
C58	C	1.546536	0.923439	0.586525
C59	C	1.046533	0.576776	0.086510
C60	C	1.546533	1.076776	0.586510
C61	C	0.933646	0.576777	0.257198
C62	C	1.433646	1.076777	0.757198
C63	C	0.933644	0.423443	0.257206
C64	C	1.433644	0.923443	0.757206
C65	C	1.102985	0.346774	0.001190
C66	C	1.602985	0.846774	0.501190
C67	C	1.159432	0.423436	-0.084162
C68	C	1.659432	0.923436	0.415838
C69	C	1.159430	0.576772	-0.084177
C70	C	1.659430	1.076772	0.415823
C71	C	1.102981	0.653448	0.001160
C72	C	1.602981	1.153448	0.501160
C73	C	1.067438	0.000126	-0.277612
C74	C	1.567438	0.500126	0.222388
C75	C	1.065121	0.000115	-0.408603
C76	C	1.565121	0.500115	0.091397
C77	C	0.912737	0.000084	-0.378648
C78	C	1.412737	0.500084	0.121352
C79	C	0.915055	0.000084	-0.247660
C80	C	1.415055	0.500084	0.252340
C81	C	1.144792	0.000154	-0.227098
C82	C	1.644792	0.500154	0.272902
C83	C	1.219828	0.000169	-0.307565
C84	C	1.719828	0.500169	0.192435
C85	C	1.217510	0.000159	-0.438555
C86	C	1.717510	0.500159	0.061445
C87	C	1.140156	0.000133	-0.489079
C88	C	1.640156	0.500133	0.010921
C89	C	0.985311	0.000106	0.401464
C90	C	1.485311	0.500106	0.901464
C91	C	0.987772	0.000101	0.540875
C92	C	1.487772	0.500101	1.040875
H93	H	0.577758	0.099818	-0.018413
H94	H	1.077758	0.599818	0.481587
H95	H	0.549110	0.148136	0.342702
H96	H	1.049110	0.648136	0.842702
H97	H	0.887684	0.361024	0.326702
H98	H	1.387684	0.861024	0.826702
H99	H	0.415414	0.243344	0.196301
H100	H	0.915414	0.743344	0.696301
H101	H	0.853959	0.000074	-0.182142
H102	H	1.353959	0.500074	0.317858
H103	H	1.282806	0.000154	-0.266420
H104	H	1.782806	0.500154	0.233580
H105	H	0.405037	0.138846	0.342430
H106	H	0.905037	0.638846	0.842430
H107	H	0.547909	-0.144178	0.344099
H108	H	1.047909	0.355822	0.844099
H109	H	1.205385	0.639189	-0.153682
H110	H	1.705385	1.139189	0.346318
H111	H	0.561292	-0.242525	0.194753
H112	H	1.061292	0.257475	0.694753
H113	H	0.560185	0.242644	0.191718
H114	H	1.060185	0.742644	0.691718
H115	H	1.102978	0.778305	0.001132
H116	H	1.602978	1.278305	0.501132
H117	H	1.102994	0.221920	0.001197
H118	H	1.602994	0.721920	0.501197
H119	H	0.887688	0.639216	0.326678
H120	H	1.387688	1.139216	0.826678
H121	H	0.849759	0.000065	-0.419796
H122	H	1.349759	0.500065	0.080204
H123	H	1.138275	0.000109	-0.595741
H124	H	1.638275	0.500109	-0.095741
H125	H	1.146687	0.000167	-0.120440
H126	H	1.646687	0.500167	0.379560
H127	H	1.278608	0.000156	-0.504069
H128	H	1.778608	0.500156	-0.004069
H129	H	0.433024	-0.098541	-0.022293
H130	H	0.933024	0.401459	0.477707
H131	H	0.434092	0.100419	-0.022541
H132	H	0.934092	0.600419	0.477459
H133	H	0.417940	-0.243091	0.188954
H134	H	0.917940	0.256909	0.688954
H135	H	0.577186	-0.099783	-0.018777
H136	H	1.077186	0.400217	0.481223
H137	H	0.404872	-0.145425	0.339160
H138	H	0.904872	0.354575	0.839160
H139	H	1.205386	0.360999	-0.153648
H140	H	1.705386	0.860999	0.346352
