data_functionalizedCrystal
_audit_creation_method	'MofGen! by Chris Wilmer'
_symmetry_space_group_name_H-M	'P1'
_symmetry_Int_Tables_number	1
_symmetry_cell_setting	triclinic
loop_
_symmetry_equiv_pos_as_xyz
  x,y,z
_cell_length_a	21.606444
_cell_length_b	18.426585
_cell_length_c	21.606444
_cell_angle_alpha	90.001433
_cell_angle_beta	59.991153
_cell_angle_gamma	60.004303
loop_
_atom_site_label
_atom_site_type_symbol
_atom_site_fract_x
_atom_site_fract_y
_atom_site_fract_z
Zr1	Zr	0.677539	0.699110	-0.081351
O2	O	0.806669	0.583229	-0.180197
O3	O	0.548408	0.734634	-0.051035
O4	O	0.677544	0.734627	-0.180179
O5	O	0.677529	0.583242	0.050801
O6	O	0.677548	0.854053	-0.180181
O7	O	0.677533	0.583236	-0.051053
O8	O	0.446548	0.854065	0.050834
O9	O	0.908529	0.583230	-0.180214
O10	O	0.601525	0.838911	-0.038125
O11	O	0.601518	0.749789	0.037889
O12	O	0.753559	0.749781	-0.114161
O13	O	0.753552	0.660659	-0.038147
Zr14	Zr	0.677538	0.889590	0.081090
Zr15	Zr	0.677545	0.889581	-0.081355
Zr16	Zr	0.677532	0.699120	0.081094
Zr17	Zr	0.839994	0.699111	-0.081378
Zr18	Zr	0.515083	0.889589	0.081117
O19	O	0.806669	0.854067	0.050774
O20	O	0.806679	0.854053	-0.180203
O21	O	0.806659	0.583243	0.050779
O22	O	0.548408	1.005472	0.179936
O23	O	0.548418	1.005458	-0.051041
O24	O	0.548398	0.734647	0.179942
O25	O	0.677548	1.005459	-0.051062
O26	O	0.677533	0.854074	0.179918
O27	O	0.677529	0.734648	0.179920
O28	O	0.677544	1.005465	0.050792
O29	O	0.908534	0.734628	-0.180218
O30	O	0.446543	0.854073	0.179956
O31	O	0.446548	1.005471	0.179953
O32	O	0.446554	1.005463	0.050831
O33	O	0.908523	0.583237	-0.051092
O34	O	0.908529	0.734636	-0.051095
O35	O	0.601518	0.838920	0.113900
O36	O	0.601525	0.928041	0.037886
O37	O	0.753559	0.838912	-0.038151
O38	O	0.753552	0.749790	0.037864
C39	C	0.474332	0.794349	-0.000097
C40	C	0.405365	0.794349	-0.000085
C41	C	0.429100	0.728550	-0.056212
C42	C	0.364311	0.728552	-0.056228
C43	C	0.275787	0.794350	-0.000113
C44	C	0.252053	0.860155	0.056017
C45	C	0.316841	0.860156	0.056029
C46	C	-0.009234	0.860155	0.055969
C47	C	-0.074023	0.860148	0.055954
C48	C	0.038236	0.728551	-0.056287
C49	C	0.103024	0.728552	-0.056275
C50	C	0.079284	0.794359	-0.000148
C51	C	0.149537	0.794357	-0.000133
C52	C	0.205536	0.794350	-0.000125
C53	C	0.677530	0.556101	-0.000125
C54	C	0.677527	0.475241	-0.000124
C55	C	0.677553	0.179126	-0.000137
C56	C	0.677550	0.261512	-0.000135
C57	C	0.677540	0.327181	-0.000131
C58	C	0.677536	0.409572	-0.000128
C59	C	0.880745	0.794352	-0.000165
C60	C	0.949712	0.794352	-0.000176
C61	C	0.677547	0.794338	-0.203325
C62	C	0.677550	0.794334	-0.272288
C63	C	0.677547	1.032600	-0.000136
C64	C	0.677550	1.113460	-0.000138
C65	C	0.756910	0.747809	-0.344376
C66	C	0.756907	0.747817	-0.409171
C67	C	0.677544	0.794345	-0.401876
C68	C	0.598179	0.840876	-0.329779
C69	C	0.598182	0.840873	-0.264986
C70	C	0.598163	0.840890	-0.591082
C71	C	0.598166	0.840887	-0.655883
C72	C	0.756889	0.747834	-0.735267
C73	C	0.756892	0.747831	-0.670474
C74	C	0.677527	0.794365	-0.598384
C75	C	0.677531	0.794358	-0.528126
C76	C	0.677540	0.794348	-0.472132
C77	C	0.677530	0.794362	0.203064
C78	C	0.677527	0.794367	0.272026
C79	C	0.474340	1.032599	-0.000102
C80	C	0.405377	1.113458	-0.000092
C81	C	0.474323	0.794361	0.203098
C82	C	0.405354	0.794365	0.272072
C83	C	0.474332	1.032611	0.203093
C84	C	0.405365	1.113474	0.272065
C85	C	0.880745	0.556090	-0.203354
C86	C	0.949712	0.475227	-0.272326
C87	C	0.880737	0.556102	-0.000159
C88	C	0.949700	0.475243	-0.000169
C89	C	0.880754	0.794340	-0.203359
C90	C	0.949723	0.794336	-0.272333
C91	C	0.372991	1.104905	-0.039771
C92	C	0.308201	1.180874	-0.039777
C93	C	0.275794	1.265394	-0.000099
C94	C	0.308187	1.273945	0.039581
C95	C	0.372980	1.197978	0.039582
C96	C	0.372965	0.840892	0.344146
C97	C	0.308170	0.840892	0.408961
C98	C	0.275760	0.794370	0.401699
C99	C	0.308155	0.747837	0.329617
C100	C	0.372954	0.747832	0.264804
C101	C	0.372981	1.197977	0.264776
C102	C	0.308189	1.273964	0.329577
C103	C	0.275777	1.265446	0.401665
C104	C	0.308168	1.180934	0.408953
C105	C	0.372963	1.104949	0.344153
C106	C	0.982104	0.390724	-0.265037
C107	C	1.046916	0.314737	-0.329838
C108	C	1.079331	0.323255	-0.401926
C109	C	1.046937	0.407766	-0.409214
C110	C	0.982130	0.483751	-0.344414
C111	C	0.982093	0.483796	0.039503
C112	C	1.046900	0.407827	0.039491
C113	C	1.079310	0.323307	-0.000189
C114	C	1.046914	0.314755	-0.039866
C115	C	0.982112	0.390723	-0.039858
C116	C	0.982112	0.840867	-0.265047
C117	C	1.046908	0.840881	-0.329849
C118	C	1.079318	0.794358	-0.401937
C119	C	1.046922	0.747825	-0.409221
C120	C	0.982124	0.747817	-0.344420
H121	H	0.057560	0.674971	-0.101991
N122	N	-0.169507	0.931126	0.116472
H123	H	-0.198905	0.902426	0.145957
H124	H	-0.174645	0.972797	0.151978
N125	N	0.947180	0.574891	-0.352284
H126	H	0.901202	0.621743	-0.300300
H127	H	0.996667	0.581933	-0.380948
H128	H	0.281792	1.342772	0.071885
H129	H	0.281823	1.342770	0.323630
H130	H	0.955715	0.383771	-0.206345
N131	N	0.205890	1.347406	0.471553
H132	H	0.190296	1.402228	0.455990
H133	H	0.152159	1.347370	0.502722
H134	H	0.281758	0.709960	0.323716
N135	N	1.081829	0.223598	-0.321959
H136	H	1.070557	0.189997	-0.347074
H137	H	1.146865	0.190063	-0.347057
N138	N	0.947177	0.381492	-0.082649
H139	H	0.977545	0.316419	-0.107784
H140	H	0.882128	0.410979	-0.046208
N141	N	1.081832	0.417062	0.082288
H142	H	1.051457	0.482134	0.107431
H143	H	1.070557	0.387566	0.122180
H144	H	1.073312	0.245928	-0.072173
H145	H	0.281769	1.174012	0.467656
H146	H	1.132101	0.261375	-0.454684
N147	N	0.407867	0.697663	0.187069
H148	H	0.453833	0.704715	0.147106
H149	H	0.434699	0.632601	0.181064
H150	H	0.399322	1.036146	0.350098
N151	N	1.081902	0.416939	-0.486971
H152	H	1.032469	0.450490	-0.493042
H153	H	1.108804	0.450475	-0.493010
N154	N	0.524577	0.657587	-0.116741
H155	H	0.553954	0.623011	-0.092259
H156	H	0.529704	0.615969	-0.152281
H157	H	0.955710	0.552610	0.071820
H158	H	0.533535	0.878779	-0.649935
H159	H	1.132075	0.261456	-0.000189
N160	N	1.081850	0.891059	-0.321980
H161	H	1.127816	0.884013	-0.373966
H162	H	1.032357	0.956119	-0.293308
H163	H	0.383644	0.674972	-0.101931
N164	N	1.081890	0.697644	-0.486976
H165	H	1.051544	0.668161	-0.481767
H166	H	1.070614	0.740366	-0.515583
N167	N	1.149203	0.794384	-0.471820
H168	H	1.202967	0.767914	-0.471849
H169	H	1.164755	0.757869	-0.518562
H170	H	0.955734	0.878752	-0.206356
N171	N	0.407904	1.207209	0.082384
H172	H	0.377536	1.272282	0.107519
H173	H	0.396615	1.177725	0.122283
H174	H	0.955760	0.709922	-0.350363
N175	N	0.407911	0.891075	0.351990
H176	H	0.377555	0.920543	0.407488
H177	H	0.472961	0.848356	0.326820
H178	H	0.533560	0.878765	-0.323844
N179	N	0.198501	0.657594	-0.116809
H180	H	0.211765	0.597184	-0.114377
H181	H	0.211694	0.660561	-0.168292
N182	N	-0.034840	0.931131	0.116502
H183	H	-0.100751	0.972810	0.152048
H184	H	-0.010418	0.902367	0.145939
H185	H	0.297510	0.913736	0.101733
N186	N	0.156574	0.931126	0.116535
H187	H	0.127179	0.902423	0.146017
H188	H	0.151440	0.972791	0.152042
N189	N	0.842510	0.697620	-0.352248
H190	H	0.892782	0.668150	-0.407750
H191	H	0.845969	0.740337	-0.327093
N192	N	0.512585	0.891057	-0.187232
H193	H	0.509042	0.848393	-0.158575
H194	H	0.509108	0.937872	-0.158648
H195	H	0.821530	0.709933	-0.467867
N196	N	0.407939	1.207181	0.187030
H197	H	0.453903	1.146227	0.147078
H198	H	0.358452	1.240784	0.181035
H199	H	0.821518	0.709939	-0.676421
H200	H	0.821512	0.709945	-0.793973
N201	N	0.512567	0.891078	-0.513335
H202	H	0.462293	0.920550	-0.518548
H203	H	0.509105	0.848363	-0.484719
N204	N	0.407932	1.013750	-0.082567
H205	H	0.434826	1.006627	-0.138080
H206	H	0.453858	0.966971	-0.076489
N207	N	0.273227	0.891089	0.486702
H208	H	0.322669	0.866696	0.492759
H209	H	0.246329	0.956160	0.492719
N210	N	0.273273	1.171639	-0.082577
H211	H	0.303632	1.106567	-0.107704
H212	H	0.208222	1.201139	-0.046140
H213	H	0.223035	1.327245	-0.000105
H214	H	0.222997	0.794381	0.454480
