data_functionalizedCrystal
_audit_creation_method	'MofGen! by Chris Wilmer'
_symmetry_space_group_name_H-M	'P1'
_symmetry_Int_Tables_number	1
_symmetry_cell_setting	triclinic
loop_
_symmetry_equiv_pos_as_xyz
  x,y,z
_cell_length_a	16.625546
_cell_length_b	16.625547
_cell_length_c	14.908858
_cell_angle_alpha	93.273493
_cell_angle_beta	86.668924
_cell_angle_gamma	90.022405
loop_
_atom_site_label
_atom_site_type_symbol
_atom_site_fract_x
_atom_site_fract_y
_atom_site_fract_z
Zn1	Zn	-0.294670	1.206369	-0.510189
Zn2	Zn	0.205330	1.706369	-0.010189
Zn3	Zn	-0.437299	1.214052	-0.359324
Zn4	Zn	0.062701	1.714052	0.140676
Zn5	Zn	-0.302484	1.079310	-0.359333
Zn6	Zn	0.197516	1.579310	0.140667
Zn7	Zn	-0.429467	1.071504	-0.510124
Zn8	Zn	0.070533	1.571504	-0.010124
O9	O	-0.365980	1.142809	-0.434743
O10	O	0.134020	1.642809	0.065257
O11	O	-0.313598	1.320219	-0.490200
O12	O	0.186402	1.820219	0.009800
O13	O	-0.425964	1.202661	-0.233081
O14	O	0.074036	1.702661	0.266919
O15	O	-0.188613	1.096216	-0.379376
O16	O	0.311387	1.596216	0.120624
O17	O	-0.418387	1.325864	-0.379360
O18	O	0.081613	1.825864	0.120640
O19	O	-0.182872	1.189565	-0.490209
O20	O	0.317128	1.689565	0.009791
O21	O	-0.326915	1.103667	-0.233088
O22	O	0.173085	1.603667	0.266912
O23	O	-0.319321	0.965444	-0.379313
O24	O	0.180679	1.465444	0.120687
O25	O	-0.405038	1.082911	-0.636377
O26	O	0.094962	1.582911	-0.136377
O27	O	-0.412615	0.959708	-0.490098
O28	O	0.087385	1.459708	0.009902
O29	O	-0.306003	1.181996	-0.636424
O30	O	0.193997	1.681996	-0.136424
O31	O	-0.549094	1.195092	-0.379297
O32	O	-0.049094	1.695092	0.120703
O33	O	-0.543340	1.090362	-0.490089
O34	O	-0.043340	1.590362	0.009911
C35	C	-0.365967	0.933320	-0.434700
C36	C	0.134033	1.433320	0.065300
C37	C	-0.365979	0.843699	-0.434703
C38	C	0.134021	1.343699	0.065297
C39	C	-0.365980	0.770916	-0.434715
C40	C	0.134020	1.270916	0.065285
C41	C	-0.365983	0.679606	-0.434737
C42	C	0.134017	1.179606	0.065263
C43	C	-0.365990	0.606829	-0.434760
C44	C	0.134010	1.106829	0.065240
C45	C	-0.365994	0.515513	-0.434782
C46	C	0.134006	1.015513	0.065218
C47	C	-0.575473	1.142734	-0.434705
C48	C	-0.075473	1.642734	0.065295
C49	C	-0.665093	1.142775	-0.434719
C50	C	-0.165093	1.642775	0.065281
C51	C	-0.993264	1.142911	-0.434813
C52	C	-0.493264	1.642911	0.065187
C53	C	-0.901957	1.142870	-0.434789
C54	C	-0.401957	1.642870	0.065211
C55	C	-0.829182	1.142842	-0.434766
C56	C	-0.329182	1.642842	0.065234
C57	C	-0.737869	1.142803	-0.434743
C58	C	-0.237869	1.642803	0.065257
C59	C	-0.155668	1.142904	-0.434800
C60	C	0.344332	1.642904	0.065200
C61	C	-0.066046	1.142945	-0.434825
C62	C	0.433954	1.642945	0.065175
C63	C	-0.353776	1.130726	-0.670050
C64	C	0.146224	1.630726	-0.170050
C65	C	-0.348575	1.125577	-0.770323
C66	C	0.151425	1.625577	-0.270323
C67	C	-0.365994	1.353115	-0.434786
C68	C	0.134006	1.853115	0.065214
C69	C	-0.366000	1.442736	-0.434805
C70	C	0.134000	1.942736	0.065195
C71	C	-0.289677	1.066784	-0.911658
C72	C	0.210323	1.566784	-0.411658
C73	C	-0.294562	1.071619	-0.817441
C74	C	0.205438	1.571619	-0.317441
C75	C	-0.397704	1.174705	-0.817428
C76	C	0.102296	1.674705	-0.317428
C77	C	-0.392819	1.169870	-0.911644
C78	C	0.107181	1.669870	-0.411644
C79	C	-0.338804	1.115907	-0.958756
C80	C	0.161196	1.615907	-0.458756
C81	C	-0.333924	1.111068	-1.052973
C82	C	0.166076	1.611068	-0.552973
C83	C	-0.437061	1.214158	-1.052958
C84	C	0.062939	1.714158	-0.552958
C85	C	-0.441946	1.218993	-0.958742
C86	C	0.058054	1.718993	-0.458742
C87	C	-0.378079	1.154891	-0.200351
C88	C	0.121921	1.654891	0.299649
C89	C	-0.383053	1.160197	-0.100078
C90	C	0.116947	1.660197	0.399922
H91	H	-0.289943	1.067128	-1.091330
H92	H	0.210057	1.567128	-0.591330
C93	C	-0.230269	1.007427	-0.963483
C94	C	0.269731	1.507427	-0.463483
H95	H	-0.201707	0.978864	-0.921938
H96	H	0.298293	1.478864	-0.421938
H97	H	-0.259207	0.970399	-1.000223
H98	H	0.240793	1.470399	-0.500223
H99	H	-0.193228	1.036404	-1.000249
H100	H	0.306772	1.536404	-0.500249
C101	C	-0.240530	1.017577	-0.765636
C102	C	0.259470	1.517577	-0.265636
H103	H	-0.207669	0.984743	-0.807191
H104	H	0.292331	1.484743	-0.307191
H105	H	-0.207304	1.050316	-0.728893
H106	H	0.292696	1.550316	-0.228893
H107	H	-0.273287	0.984315	-0.728873
H108	H	0.226713	1.484315	-0.228873
H109	H	-0.441674	1.218644	-0.779054
H110	H	0.058326	1.718644	-0.279054
C111	C	-0.501359	1.278344	-0.906915
C112	C	-0.001359	1.778344	-0.406915
H113	H	-0.497238	1.274185	-0.844058
H114	H	0.002762	1.774185	-0.344058
H115	H	-0.488768	1.331732	-0.922369
H116	H	0.011232	1.831732	-0.422369
H117	H	-0.554736	1.265716	-0.922338
H118	H	-0.054736	1.765716	-0.422338
C119	C	-0.491100	1.268197	-1.104768
C120	C	0.008900	1.768197	-0.604768
H121	H	-0.480453	1.257594	-1.167628
H122	H	0.019547	1.757594	-0.667628
H123	H	-0.546076	1.257168	-1.089307
H124	H	-0.046076	1.757168	-0.589307
H125	H	-0.480097	1.323173	-1.089341
H126	H	0.019903	1.823173	-0.589341
