data_functionalizedCrystal
_audit_creation_method	'MofGen! by Chris Wilmer'
_symmetry_space_group_name_H-M	'P1'
_symmetry_Int_Tables_number	1
_symmetry_cell_setting	triclinic
loop_
_symmetry_equiv_pos_as_xyz
  x,y,z
_cell_length_a	10.489716
_cell_length_b	10.489716
_cell_length_c	14.586319
_cell_angle_alpha	90.000245
_cell_angle_beta	89.996864
_cell_angle_gamma	84.529136
loop_
_atom_site_label
_atom_site_type_symbol
_atom_site_fract_x
_atom_site_fract_y
_atom_site_fract_z
O1	O	1.694054	0.179819	-0.076224
O2	O	2.194054	0.679819	0.423776
O3	O	1.322853	0.196745	-0.076227
O4	O	1.822853	0.696745	0.423773
O5	O	1.516917	0.002681	-0.076228
O6	O	2.016917	0.502681	0.423772
O7	O	1.499991	0.373883	-0.076222
O8	O	1.999991	0.873883	0.423778
O9	O	1.516903	0.002678	0.076252
O10	O	2.016903	0.502678	0.576252
O11	O	1.322840	0.196742	0.076254
O12	O	1.822840	0.696742	0.576254
O13	O	1.694041	0.179816	0.076257
O14	O	2.194041	0.679816	0.576257
Cu15	Cu	1.508439	0.188279	0.090178
Cu16	Cu	2.008439	0.688279	0.590178
Cu17	Cu	1.508455	0.188282	-0.090148
Cu18	Cu	2.008455	0.688282	0.409852
O19	O	1.499977	0.373880	0.076259
O20	O	1.999977	0.873880	0.576259
C21	C	1.275314	0.195472	0.000013
C22	C	1.775314	0.695472	0.500013
C23	C	1.133684	0.191667	0.000012
C24	C	1.633684	0.691667	0.500012
C25	C	1.515638	-0.044852	0.000009
C26	C	2.015638	0.455148	0.500009
C27	C	1.511833	-0.186483	0.000001
C28	C	2.011833	0.313517	0.500001
C29	C	1.035999	0.310673	0.000012
C30	C	1.535999	0.810673	0.500012
C31	C	0.958652	0.247786	0.075196
C32	C	1.458652	0.747786	0.575196
C33	C	0.958672	0.247761	-0.075138
C34	C	1.458672	0.747761	0.424862
C35	C	1.058202	0.128830	0.075258
C36	C	1.558202	0.628830	0.575258
C37	C	1.058227	0.128822	-0.075144
C38	C	1.558227	0.628822	0.424856
C39	C	0.980929	0.065848	0.000059
C40	C	1.480929	0.565848	0.500059
C41	C	1.630839	-0.284167	0.000010
C42	C	2.130839	0.215833	0.500010
C43	C	1.567960	-0.361521	-0.075169
C44	C	2.067960	0.138479	0.424831
C45	C	1.567920	-0.361488	0.075165
C46	C	2.067920	0.138512	0.575165
C47	C	1.449004	-0.261971	-0.075240
C48	C	1.949004	0.238029	0.424760
C49	C	1.448981	-0.261933	0.075161
C50	C	1.948981	0.238067	0.575161
C51	C	1.386015	-0.339237	-0.000036
C52	C	1.886015	0.160763	0.499964
C53	C	1.741580	0.181089	0.000015
C54	C	2.241580	0.681089	0.500015
C55	C	1.883210	0.184894	0.000010
C56	C	2.383210	0.684894	0.500010
C57	C	1.501256	0.421413	0.000019
C58	C	2.001256	0.921413	0.500019
C59	C	1.505061	0.563044	0.000021
C60	C	2.005061	1.063044	0.500021
N61	N	1.508437	0.188276	0.217010
N62	N	2.008437	0.688276	0.717010
N63	N	1.508467	0.188276	-0.216980
N64	N	2.008467	0.688276	0.283020
C65	C	1.594397	0.102374	0.452016
C66	C	2.094397	0.602374	0.952016
C67	C	1.594401	0.102370	0.547997
C68	C	2.094401	0.602370	1.047997
C69	C	1.422498	0.274182	0.548008
C70	C	1.922498	0.774182	1.048008
C71	C	1.422489	0.274177	0.452028
C72	C	1.922489	0.774177	0.952028
C73	C	1.508446	0.188275	0.404035
C74	C	2.008446	0.688275	0.904035
C75	C	1.508458	0.188276	0.595996
C76	C	2.008458	0.688276	1.095996
C77	C	1.508462	0.188273	0.700063
C78	C	2.008462	0.688273	1.200063
C79	C	1.508441	0.188276	0.299961
C80	C	2.008441	0.688276	0.799961
H81	H	1.060659	0.414190	0.000084
H82	H	1.560659	0.914190	0.500084
H83	H	1.352515	0.344123	0.587094
H84	H	1.852515	0.844123	1.087094
F85	F	1.114812	0.063204	0.158422
F86	F	1.614812	0.563204	0.658422
F87	F	0.901802	0.313446	0.158277
F88	F	1.401802	0.813446	0.658277
H89	H	1.618203	-0.405019	-0.138728
H90	H	2.118203	0.094981	0.361272
H91	H	1.101733	0.078625	-0.138710
H92	H	1.601733	0.578625	0.361290
F93	F	0.948999	-0.069551	0.000113
F94	F	1.448999	0.430449	0.500113
F95	F	0.901838	0.313455	-0.158207
F96	F	1.401838	0.813455	0.341793
F97	F	1.766138	-0.251922	-0.000086
F98	F	2.266138	0.248078	0.499914
H99	H	1.352491	0.344129	0.412960
H100	H	1.852491	0.844129	0.912960
F101	F	1.383387	-0.205368	-0.158410
F102	F	1.883387	0.294632	0.341590
H103	H	1.282422	-0.363659	-0.000077
H104	H	1.782422	0.136341	0.499923
F105	F	1.383388	-0.205021	0.158242
F106	F	1.883388	0.294979	0.658242
F107	F	1.633605	-0.418314	0.158239
F108	F	2.133605	0.081686	0.658239
F109	F	1.685877	0.010945	0.400941
F110	F	2.185877	0.510945	0.900941
H111	H	1.664388	0.032420	0.587060
H112	H	2.164388	0.532420	1.087060
