data_functionalizedCrystal
_audit_creation_method	'MofGen! by Chris Wilmer'
_symmetry_space_group_name_H-M	'P1'
_symmetry_Int_Tables_number	1
_symmetry_cell_setting	triclinic
loop_
_symmetry_equiv_pos_as_xyz
  x,y,z
_cell_length_a	16.793024
_cell_length_b	16.793047
_cell_length_c	33.586455
_cell_angle_alpha	113.253857
_cell_angle_beta	66.219990
_cell_angle_gamma	112.758327
loop_
_atom_site_label
_atom_site_type_symbol
_atom_site_fract_x
_atom_site_fract_y
_atom_site_fract_z
O1	O	0.005016	-0.570216	-0.583573
O2	O	-0.034529	-0.474528	-0.453458
O3	O	0.114723	-0.474535	-0.528082
O4	O	-0.144235	-0.570209	-0.508949
O5	O	0.108729	-0.346329	-0.530229
O6	O	-0.040523	-0.346322	-0.455605
O7	O	-0.000977	-0.442010	-0.585721
Zn8	Zn	-0.021701	-0.373810	-0.521004
Zn9	Zn	-0.013805	-0.542728	-0.518175
O10	O	-0.150229	-0.442003	-0.511097
C11	C	0.005100	-0.790970	-0.238461
C12	C	-0.040584	-0.395375	-0.435637
C13	C	-0.044693	-0.353446	-0.386631
C14	C	-0.039275	-0.401741	-0.363054
C15	C	-0.040566	-0.125547	-0.300731
C16	C	-0.044689	-0.223451	-0.321635
C17	C	-0.039266	-0.270752	-0.297563
C18	C	0.005118	-0.521142	-0.103554
C19	C	-0.046224	-0.263935	-0.366370
C20	C	-0.036476	-0.360146	-0.318399
C21	C	-0.030850	-0.408530	-0.294565
C22	C	-0.028014	-0.367522	-0.249895
C23	C	-0.030804	-0.278128	-0.229058
C24	C	-0.036430	-0.229743	-0.252892
C25	C	-0.027971	-0.237122	-0.184383
C26	C	-0.022345	-0.285507	-0.160550
C27	C	-0.019555	-0.374900	-0.181386
C28	C	-0.022391	-0.415909	-0.226057
C29	C	-0.019601	-0.505302	-0.246894
C30	C	-0.013975	-0.553687	-0.223060
C31	C	-0.011142	-0.512684	-0.178391
C32	C	-0.013932	-0.423291	-0.157554
C33	C	-0.005516	-0.561069	-0.154557
C34	C	-0.002726	-0.650463	-0.175394
C35	C	-0.005562	-0.691471	-0.220064
C36	C	-0.011185	-0.643081	-0.243897
C37	C	-0.022434	-0.546309	-0.291568
C38	C	-0.019644	-0.635702	-0.312405
C39	C	-0.014021	-0.684089	-0.288567
C40	C	-0.022480	-0.676711	-0.357076
C41	C	-0.028106	-0.628326	-0.380910
C42	C	-0.030896	-0.538933	-0.360073
C43	C	-0.028060	-0.497924	-0.315402
C44	C	-0.036522	-0.490548	-0.383907
C45	C	0.815184	-0.521162	-0.508596
C46	C	0.415541	-0.125553	-0.528781
C47	C	0.375032	-0.223457	-0.531493
C48	C	0.423813	-0.270761	-0.529101
C49	C	0.149318	-0.395376	-0.530584
C50	C	0.246774	-0.353455	-0.532364
C51	C	0.294574	-0.401748	-0.529976
C52	C	0.548961	-0.790984	-0.510398
C53	C	0.286104	-0.263940	-0.532530
C54	C	0.383336	-0.360149	-0.528302
C55	C	0.432207	-0.407971	-0.525810
C56	C	0.392316	-0.497392	-0.524993
C57	C	0.303554	-0.538991	-0.526667
C58	C	0.254683	-0.491169	-0.529159
C59	C	0.263666	-0.628421	-0.525851
C60	C	0.312537	-0.676243	-0.523359
C61	C	0.401299	-0.634644	-0.521685
C62	C	0.441190	-0.545223	-0.522502
C63	C	0.529952	-0.503624	-0.520828
C64	C	0.578823	-0.551446	-0.518336
C65	C	0.538939	-0.640864	-0.517520
C66	C	0.450177	-0.682463	-0.519194
C67	C	0.587810	-0.688687	-0.515028
C68	C	0.676572	-0.647088	-0.513354
C69	C	0.716463	-0.557666	-0.514172
C70	C	0.667586	-0.509847	-0.516662
C71	C	0.569840	-0.414195	-0.521644
C72	C	0.658602	-0.372596	-0.519970
C73	C	0.707476	-0.420426	-0.517480
C74	C	0.698493	-0.283174	-0.520788
C75	C	0.649622	-0.235352	-0.523280
C76	C	0.560860	-0.276951	-0.524954
C77	C	0.520969	-0.366372	-0.524136
C78	C	0.511989	-0.229129	-0.527446
C79	C	-0.040530	-0.395407	-0.935652
C80	C	0.005063	-0.791004	-0.738448
C81	C	0.009186	-0.693099	-0.717543
C82	C	0.003779	-0.645796	-0.741620
C83	C	0.005077	-0.521171	-0.603544
C84	C	0.009198	-0.563096	-0.652550
C85	C	0.003786	-0.514804	-0.676131
C86	C	-0.040516	-0.125574	-0.800747
C87	C	0.010719	-0.652613	-0.672809
C88	C	0.000994	-0.556406	-0.720789
C89	C	-0.004621	-0.508585	-0.744908
C90	C	-0.007444	-0.419162	-0.724369
C91	C	-0.004651	-0.377560	-0.679711
C92	C	0.000964	-0.425381	-0.655592
C93	C	-0.007471	-0.288129	-0.659174
C94	C	-0.013086	-0.240308	-0.683293
C95	C	-0.015878	-0.281910	-0.727951
C96	C	-0.013056	-0.371333	-0.748490
C97	C	-0.015848	-0.412935	-0.793148
C98	C	-0.021463	-0.365114	-0.817267
C99	C	-0.024282	-0.275694	-0.796731
C100	C	-0.021490	-0.234092	-0.752073
C101	C	-0.029897	-0.227873	-0.820850
C102	C	-0.032690	-0.269476	-0.865508
C103	C	-0.029867	-0.358899	-0.886047
C104	C	-0.024255	-0.406717	-0.861925
C105	C	-0.013028	-0.502367	-0.813685
C106	C	-0.015821	-0.543969	-0.858343
C107	C	-0.021433	-0.496140	-0.882464
C108	C	-0.012998	-0.633392	-0.878882
C109	C	-0.007383	-0.681213	-0.854763
C110	C	-0.004591	-0.639611	-0.810105
C111	C	-0.007414	-0.550188	-0.789566
C112	C	0.001024	-0.687432	-0.785986
O113	O	-0.000965	0.173549	-0.277957
O114	O	-0.040516	-0.085616	-0.325254
O115	O	0.108737	0.059592	-0.327284
O116	O	-0.150219	0.028341	-0.275927
O117	O	0.114753	0.055151	-0.263265
O118	O	-0.034500	-0.090057	-0.261234
O119	O	0.005051	0.169108	-0.213937
Zn120	Zn	-0.013769	0.038820	-0.227421
Zn121	Zn	-0.021696	0.044672	-0.311770
O122	O	-0.144202	0.023900	-0.211907
O123	O	-0.034458	-0.474571	0.046517
O124	O	0.005076	-0.570190	-0.083599
O125	O	-0.144170	-0.570237	-0.008972
O126	O	0.114787	-0.474523	-0.028110
O127	O	-0.150200	-0.442024	-0.011093
O128	O	-0.000954	-0.441976	-0.085720
O129	O	-0.040488	-0.346357	0.044396
Zn130	Zn	-0.021679	-0.373810	-0.020999
Zn131	Zn	-0.013734	-0.542737	-0.018204
O132	O	0.108757	-0.346309	-0.030231
C133	C	-0.850734	0.086244	-0.289716
C134	C	-0.450996	0.035117	-0.097351
C135	C	-0.410501	0.028587	-0.146852
C136	C	-0.459292	0.034683	-0.169840
C137	C	-0.184802	0.024283	-0.235878
C138	C	-0.282257	0.023363	-0.213592
C139	C	-0.330068	0.029423	-0.237088
C140	C	-0.584541	0.075410	-0.428242
C141	C	-0.321573	0.024104	-0.168302
C142	C	-0.418828	0.035176	-0.215083
C143	C	-0.467711	0.041476	-0.238329
C144	C	-0.427833	0.042022	-0.283580
C145	C	-0.339073	0.036269	-0.305586
C146	C	-0.290190	0.029970	-0.282340
C147	C	-0.299198	0.036812	-0.350842
C148	C	-0.348081	0.043111	-0.374088
C149	C	-0.436841	0.048864	-0.352082
C150	C	-0.476719	0.048318	-0.306830
C151	C	-0.565480	0.054071	-0.284825
C152	C	-0.614362	0.060370	-0.308071
C153	C	-0.574491	0.060913	-0.353321
C154	C	-0.485730	0.055160	-0.375326
C155	C	-0.623374	0.067212	-0.376567
C156	C	-0.712134	0.072965	-0.354561
C157	C	-0.752012	0.072419	-0.309309
C158	C	-0.703123	0.066123	-0.286065
C159	C	-0.605355	0.053528	-0.239569
C160	C	-0.694115	0.059281	-0.217564
C161	C	-0.743001	0.065577	-0.240813
C162	C	-0.733993	0.058735	-0.172312
C163	C	-0.685110	0.052436	-0.149066
C164	C	-0.596350	0.046683	-0.171072
C165	C	-0.556472	0.047229	-0.216323
C166	C	-0.547467	0.040383	-0.147826
O167	O	0.585213	0.169090	-0.504004
O168	O	0.494056	-0.090076	-0.525516
O169	O	0.488081	0.055124	-0.449918
O170	O	0.591189	0.023889	-0.579602
O171	O	0.359978	0.059584	-0.452885
O172	O	0.365953	-0.085616	-0.528483
O173	O	0.457110	0.173550	-0.506971
Zn174	Zn	0.391193	0.044675	-0.518198
Zn175	Zn	0.559974	0.038798	-0.514289
O176	O	0.463086	0.028349	-0.582569
C177	C	0.815354	-0.521094	-0.008709
C178	C	0.415547	-0.125494	-0.028771
C179	C	0.375059	-0.223405	-0.031498
C180	C	0.423859	-0.270708	-0.029121
C181	C	0.149365	-0.395355	-0.030599
C182	C	0.246820	-0.353421	-0.032381
C183	C	0.294640	-0.401713	-0.030008
C184	C	0.549171	-0.790955	-0.010537
C185	C	0.286131	-0.263897	-0.032533
C186	C	0.383402	-0.360104	-0.028335
C187	C	0.432293	-0.407926	-0.025859
C188	C	0.392422	-0.497356	-0.025055
C189	C	0.303660	-0.538965	-0.026727
C190	C	0.254769	-0.491143	-0.029204
C191	C	0.263791	-0.628403	-0.025925
C192	C	0.312683	-0.676224	-0.023448
C193	C	0.401445	-0.634615	-0.021775
C194	C	0.441316	-0.545185	-0.022579
C195	C	0.530078	-0.503576	-0.020906
C196	C	0.578969	-0.551398	-0.018429
C197	C	0.539104	-0.640825	-0.017627
C198	C	0.450342	-0.682434	-0.019300
C199	C	0.587995	-0.688646	-0.015150
C200	C	0.676757	-0.647037	-0.013477
C201	C	0.716628	-0.557607	-0.014281
C202	C	0.667731	-0.509789	-0.016757
C203	C	0.569946	-0.414138	-0.021709
C204	C	0.658708	-0.372530	-0.020036
C205	C	0.707602	-0.420359	-0.017561
C206	C	0.698579	-0.283100	-0.020840
C207	C	0.649688	-0.235278	-0.023317
C208	C	0.560926	-0.276887	-0.024990
C209	C	0.521055	-0.366317	-0.024186
C210	C	0.512035	-0.229066	-0.027467
O211	O	-0.620614	0.089309	0.052274
O212	O	-0.529507	0.043784	-0.078544
O213	O	-0.523494	0.194833	-0.006033
O214	O	-0.626628	-0.061740	-0.020236
O215	O	-0.395386	0.185419	-0.005549
O216	O	-0.401400	0.034370	-0.078059
O217	O	-0.492507	0.079895	0.052758
Zn218	Zn	-0.426614	0.055638	-0.012574
Zn219	Zn	-0.595401	0.068041	-0.013212
O220	O	-0.498521	-0.071154	-0.019752
C221	C	-0.437537	0.048335	0.402491
C222	C	-0.837226	0.099430	0.210091
C223	C	-0.739773	0.100339	0.187806
C224	C	-0.691967	0.094287	0.211308
C225	C	-0.571027	0.088563	0.071568
C226	C	-0.611521	0.095108	0.121070
C227	C	-0.562739	0.089011	0.144061
C228	C	-0.171338	0.037467	0.263967
C229	C	-0.700452	0.099593	0.142516
C230	C	-0.603213	0.088528	0.189308
C231	C	-0.554892	0.082255	0.212848
C232	C	-0.466098	0.076466	0.191141
C233	C	-0.425624	0.076949	0.145894
C234	C	-0.473945	0.083222	0.122354
C235	C	-0.336822	0.071163	0.124188
C236	C	-0.288502	0.064890	0.147728
C237	C	-0.328975	0.064407	0.192975
C238	C	-0.417770	0.070196	0.214682
C239	C	-0.458244	0.069713	0.259929
C240	C	-0.409923	0.063441	0.283469
C241	C	-0.321132	0.057655	0.261765
C242	C	-0.280658	0.058138	0.216518
C243	C	-0.272811	0.051382	0.285305
C244	C	-0.313285	0.050899	0.330552
C245	C	-0.402079	0.056688	0.352259
C246	C	-0.450397	0.062957	0.328716
C247	C	-0.547046	0.075500	0.281635
C248	C	-0.587520	0.075016	0.326882
C249	C	-0.539191	0.068747	0.350423
C250	C	-0.676314	0.080806	0.348589
C251	C	-0.724634	0.087078	0.325049
C252	C	-0.684160	0.087561	0.279802
C253	C	-0.595366	0.081772	0.258095
C254	C	-0.732481	0.093834	0.256262
O255	O	-0.040608	-1.085661	-0.825229
O256	O	-0.001018	-0.826491	-0.777938
O257	O	-0.150287	-0.971682	-0.775894
O258	O	0.108661	-0.940470	-0.827272
O259	O	-0.144253	-0.976123	-0.711878
O260	O	0.005016	-0.830932	-0.713922
O261	O	-0.034575	-1.090102	-0.761213
Zn262	Zn	-0.013821	-0.961222	-0.727403
Zn263	Zn	-0.021771	-0.955371	-0.811747
O264	O	0.114695	-0.944911	-0.763256
O265	O	-0.049524	-0.216405	-0.390125
C266	C	-0.131927	-0.204545	-0.431045
C267	C	-0.128318	-0.258447	-0.404142
H268	H	-0.195616	-0.238525	-0.442393
H269	H	-0.132936	-0.133089	-0.408598
H270	H	-0.069853	-0.202148	-0.462092
H271	H	-0.190379	-0.260916	-0.373094
H272	H	-0.127263	-0.329875	-0.426621
O273	O	-0.811210	0.092860	0.346182
C274	C	-0.915431	0.180480	0.369864
C275	C	-0.817360	0.174028	0.345914
H276	H	-0.920432	0.246109	0.369664
H277	H	-0.962292	0.121120	0.351301
H278	H	-0.936161	0.179012	0.406391
H279	H	-0.796546	0.175522	0.309388
H280	H	-0.770556	0.233385	0.364512
O281	O	0.177178	-0.668847	-0.027511
C282	C	0.020946	-0.667637	0.008189
C283	C	0.118993	-0.621730	0.010046
H284	H	-0.026127	-0.629573	0.038555
H285	H	0.015584	-0.667291	-0.024512
H286	H	0.000790	-0.740083	0.009165
H287	H	0.139212	-0.549267	0.009088
H288	H	0.124301	-0.622148	0.042745
H289	H	-0.805083	0.098565	0.274011
O290	O	-0.019733	-0.763889	-0.377473
C291	C	-0.020433	-0.888655	-0.445230
C292	C	-0.023536	-0.789919	-0.422188
H293	H	-0.023526	-0.909737	-0.481383
H294	H	0.045033	-0.895789	-0.446015
H295	H	-0.080580	-0.933557	-0.425333
H296	H	0.036566	-0.744956	-0.442066
H297	H	-0.089040	-0.782857	-0.421397
O298	O	-0.201899	0.059197	0.126618
C299	C	-0.069611	0.047178	0.133246
C300	C	-0.167688	0.053608	0.157205
H301	H	-0.041916	0.042677	0.157967
H302	H	-0.067988	-0.015415	0.102863
H303	H	-0.026299	0.109585	0.121174
H304	H	-0.211058	-0.008752	0.169306
H305	H	-0.169241	0.116240	0.187566
H306	H	-0.005182	-0.254109	-0.622664
O307	O	0.237846	-0.216325	-0.533700
C308	C	0.106274	-0.159747	-0.496749
C309	C	0.160855	-0.213669	-0.495366
H310	H	0.044006	-0.157598	-0.465765
H311	H	0.150120	-0.088210	-0.496642
H312	H	0.084259	-0.193570	-0.528887
H313	H	0.182880	-0.179924	-0.463233
H314	H	0.116976	-0.285205	-0.495498
H315	H	0.280077	-0.749342	-0.022791
H316	H	-0.030422	-0.661858	-0.417434
O317	O	0.168104	-0.531869	-0.530770
C318	C	0.045171	-0.667445	-0.531389
C319	C	0.143224	-0.621456	-0.529553
H320	H	0.025031	-0.739889	-0.530415
H321	H	-0.001945	-0.629395	-0.501043
H322	H	0.039858	-0.667108	-0.564104
H323	H	0.148623	-0.621782	-0.496858
H324	H	0.190294	-0.659520	-0.559921
O325	O	-0.015842	-0.673910	-0.922426
C326	C	-0.099965	-0.719521	-0.974997
C327	C	-0.096846	-0.673592	-0.925672
H328	H	-0.165460	-0.719295	-0.977636
H329	H	-0.039842	-0.681406	-0.998295
H330	H	-0.096923	-0.791927	-0.985572
H331	H	-0.099916	-0.601187	-0.915054
H332	H	-0.156963	-0.711775	-0.902403
H333	H	-0.226632	0.032105	-0.368836
O334	O	0.794161	-0.379625	-0.015912
C335	C	0.917116	-0.244070	-0.015337
C336	C	0.819079	-0.290079	-0.017196
H337	H	0.937298	-0.171670	-0.016384
H338	H	0.922489	-0.244296	0.017387
H339	H	0.964163	-0.282212	-0.045673
H340	H	0.771972	-0.251973	0.013117
H341	H	0.813779	-0.289863	-0.049939
H342	H	-0.005085	-0.754331	-0.871556
O343	O	0.411309	-0.769628	-0.018462
C344	C	0.290133	-0.873391	0.020592
C345	C	0.334226	-0.774613	0.019695
H346	H	0.227814	-0.877451	0.051445
H347	H	0.269433	-0.915312	-0.011623
H348	H	0.340558	-0.900533	0.022635
H349	H	0.283849	-0.747390	0.017668
H350	H	0.354945	-0.732754	0.051909
H351	H	-0.806568	0.063430	-0.154318
H352	H	-0.453130	0.055597	-0.412328
H353	H	-0.572284	0.068372	0.387422
H354	H	0.191099	-0.662437	-0.527221
H355	H	-0.015393	-0.167196	-0.666497
O356	O	0.785138	-0.242369	-0.019194
C357	C	0.908090	-0.106812	-0.018619
C358	C	0.810054	-0.152824	-0.020479
H359	H	0.928271	-0.034413	-0.019667
H360	H	0.913463	-0.107036	0.014106
H361	H	0.955139	-0.144954	-0.048954
H362	H	0.762945	-0.114718	0.009834
H363	H	0.804754	-0.152610	-0.053222
O364	O	0.688461	-0.147991	-0.024016
C365	C	0.682064	0.005955	0.012711
C366	C	0.638085	-0.092857	0.013561
H367	H	0.641343	0.050557	0.043083
H368	H	0.754187	0.027661	0.014370
H369	H	0.683190	0.012788	-0.019973
H370	H	0.636894	-0.099764	0.046240
H371	H	0.565986	-0.114518	0.011877
H372	H	-0.303725	0.071562	0.087197
H373	H	0.003321	-0.760550	-0.802778
H374	H	-0.038719	-0.156659	-0.235851
H375	H	-0.740818	0.102779	0.123104
H376	H	-0.815575	0.070280	-0.222817
O377	O	-0.268588	0.032054	0.350232
C378	C	-0.204921	-0.075741	0.348760
C379	C	-0.255522	-0.054507	0.326421
H380	H	-0.194358	-0.145733	0.329524
H381	H	-0.136514	-0.023738	0.347829
H382	H	-0.246491	-0.073492	0.385489
H383	H	-0.214027	-0.056769	0.289684
H384	H	-0.323934	-0.106513	0.327388
O385	O	0.273508	-0.763471	-0.522589
C386	C	0.140183	-0.888881	-0.523681
C387	C	0.184280	-0.790098	-0.524568
H388	H	0.068030	-0.910434	-0.525271
H389	H	0.180744	-0.933608	-0.554070
H390	H	0.139117	-0.895714	-0.491009
H391	H	0.185355	-0.783179	-0.557220
H392	H	0.143705	-0.745419	-0.494156
O393	O	-0.715733	0.080209	0.392707
C394	C	-0.762174	-0.001205	0.447053
C395	C	-0.717495	-0.000630	0.397077
H396	H	-0.763631	-0.066564	0.450600
H397	H	-0.721819	0.058427	0.468983
H398	H	-0.834215	0.004077	0.458567
H399	H	-0.645457	-0.005941	0.385520
H400	H	-0.757918	-0.060252	0.375176
H401	H	-0.717713	0.052007	-0.112064
H402	H	-0.030255	-0.164038	-0.167345
H403	H	-0.023718	-0.530163	-0.918978
H404	H	-0.038841	-0.524079	-0.420431
O405	O	0.237853	-0.216284	-0.033688
C406	C	0.106262	-0.159736	0.003281
C407	C	0.160865	-0.213657	0.004647
H408	H	0.043996	-0.157611	0.034266
H409	H	0.150094	-0.088192	0.003398
H410	H	0.084243	-0.193545	-0.028856
H411	H	0.182894	-0.179925	0.036779
H412	H	0.117000	-0.285200	0.004506
O413	O	0.717250	-0.691678	-0.504529
C414	C	0.714020	-0.758086	-0.451879
C415	C	0.667843	-0.707645	-0.461840
H416	H	0.674104	-0.770994	-0.417361
H417	H	0.716419	-0.825050	-0.479233
H418	H	0.785769	-0.715494	-0.451657
H419	H	0.596075	-0.750162	-0.462054
H420	H	0.665515	-0.640674	-0.434484
H421	H	0.012418	-0.684570	-0.156900
H422	H	0.013347	-0.692513	-0.652885
H423	H	-0.580066	0.039960	-0.110823
H424	H	-0.020027	-0.251971	-0.124027
H425	H	0.771070	-0.249160	-0.519423
H426	H	-0.011621	-0.389765	-0.121028
H427	H	-0.011748	-0.757184	-0.305606
H428	H	0.182201	-0.525171	-0.030575
O429	O	0.688662	-0.148132	-0.524069
C430	C	0.821915	-0.022658	-0.522869
C431	C	0.777827	-0.121451	-0.521996
H432	H	0.894006	-0.001050	-0.521184
H433	H	0.823123	-0.015719	-0.555545
H434	H	0.781221	0.021955	-0.492487
H435	H	0.818485	-0.166125	-0.552356
H436	H	0.776606	-0.128318	-0.489300
H437	H	0.544632	-0.155941	-0.028119
O438	O	0.551017	-0.141900	-0.528222
C439	C	0.684247	-0.016404	-0.526991
C440	C	0.640179	-0.115212	-0.526143
H441	H	0.756335	0.005210	-0.525302
H442	H	0.685460	-0.009435	-0.559662
H443	H	0.643537	0.028184	-0.496602
H444	H	0.680853	-0.159861	-0.556509
H445	H	0.638953	-0.122109	-0.493453
O446	O	-0.273345	0.020181	-0.145217
C447	C	-0.191582	-0.064417	-0.140318
C448	C	-0.246168	-0.060082	-0.166510
H449	H	-0.169609	-0.129313	-0.157518
H450	H	-0.129299	-0.004150	-0.140056
H451	H	-0.235487	-0.063020	-0.103966
H452	H	-0.202338	-0.061506	-0.202873
H453	H	-0.308457	-0.120344	-0.166736
O454	O	-0.024081	-0.146820	-0.732043
C455	C	0.051891	0.003725	-0.696235
C456	C	0.054953	-0.095070	-0.718917
H457	H	0.115773	0.045589	-0.685608
H458	H	0.047437	0.030937	-0.721237
H459	H	-0.009847	0.007773	-0.665037
H460	H	0.116685	-0.099197	-0.750112
H461	H	0.059359	-0.122239	-0.693885
O462	O	-0.203612	0.024401	-0.303867
C463	C	-0.080696	0.019822	-0.373324
C464	C	-0.178747	0.026151	-0.348997
H465	H	-0.060568	0.021216	-0.409819
H466	H	-0.033573	0.079242	-0.354942
H467	H	-0.075380	-0.045749	-0.373226
H468	H	-0.184150	0.091686	-0.349088
H469	H	-0.225824	-0.033315	-0.367387
H470	H	0.417564	-0.755580	-0.518528
H471	H	-0.440845	0.083623	0.085362
O472	O	-0.752815	0.091656	-0.376328
C473	C	-0.749605	0.196741	-0.409647
C474	C	-0.703431	0.175674	-0.385010
H475	H	-0.709708	0.264678	-0.416666
H476	H	-0.751974	0.142051	-0.443085
H477	H	-0.821366	0.199114	-0.387397
H478	H	-0.631651	0.173315	-0.407224
H479	H	-0.701134	0.230369	-0.351568
H480	H	0.780052	-0.386407	-0.516111
H481	H	-0.208057	0.053400	0.198770
H482	H	0.710969	-0.684436	-0.006165
H483	H	0.003251	-0.391359	-0.619081
H484	H	-0.047834	-0.232081	-0.882358
H485	H	-0.315470	0.043557	-0.411085
