data_functionalizedCrystal
_audit_creation_method	'MofGen! by Chris Wilmer'
_symmetry_space_group_name_H-M	'P1'
_symmetry_Int_Tables_number	1
_symmetry_cell_setting	triclinic
loop_
_symmetry_equiv_pos_as_xyz
  x,y,z
_cell_length_a	12.996460
_cell_length_b	10.654550
_cell_length_c	14.519731
_cell_angle_alpha	95.913108
_cell_angle_beta	89.992872
_cell_angle_gamma	90.002324
loop_
_atom_site_label
_atom_site_type_symbol
_atom_site_fract_x
_atom_site_fract_y
_atom_site_fract_z
O1	O	-0.085493	-1.666611	0.129533
O2	O	0.414507	-1.166611	0.629533
O3	O	-0.085512	-1.301015	0.141874
O4	O	0.414488	-0.801015	0.641874
O5	O	-0.085492	-1.493492	0.001516
O6	O	0.414508	-0.993492	0.501516
O7	O	-0.085512	-1.474134	0.269890
O8	O	0.414488	-0.974134	0.769890
O9	O	0.085641	-1.493472	0.001509
O10	O	0.585641	-0.993472	0.501509
O11	O	0.085622	-1.300995	0.141866
O12	O	0.585622	-0.800995	0.641866
O13	O	0.085641	-1.666591	0.129525
O14	O	0.585641	-1.166591	0.629525
Cu15	Cu	0.101257	-1.483791	0.135695
Cu16	Cu	0.601257	-0.983791	0.635695
Cu17	Cu	-0.101128	-1.483815	0.135704
Cu18	Cu	0.398872	-0.983815	0.635704
O19	O	0.085622	-1.474114	0.269882
O20	O	0.585622	-0.974114	0.769882
C21	C	0.000053	-1.254216	0.140964
C22	C	0.500053	-0.754216	0.640964
C23	C	0.000046	-1.114798	0.138253
C24	C	0.500046	-0.614798	0.638253
N25	N	0.243605	-1.483784	0.135688
N26	N	0.743605	-0.983784	0.635688
N27	N	-0.243475	-1.483832	0.135704
N28	N	0.256525	-0.983832	0.635704
C29	C	0.663419	-1.483813	0.135705
C30	C	1.163419	-0.983813	0.635705
C31	C	0.546614	-1.483801	0.135703
C32	C	1.046614	-0.983801	0.635703
C33	C	0.453515	-1.483799	0.135697
C34	C	0.953515	-0.983799	0.635697
C35	C	0.336703	-1.483786	0.135694
C36	C	0.836703	-0.983786	0.635694
C37	C	0.000075	-1.492575	-0.032852
C38	C	0.500075	-0.992575	0.467148
C39	C	0.000075	-1.489857	-0.135246
C40	C	0.500075	-0.989857	0.364754
C41	C	0.000074	-1.713390	0.130435
C42	C	0.500074	-1.213390	0.630435
C43	C	0.000075	-1.852808	0.133146
C44	C	0.500075	-1.352808	0.633146
C45	C	0.000043	-1.034527	0.220893
C46	C	0.500043	-0.534527	0.720893
C47	C	0.000061	-0.903530	0.218340
C48	C	0.500061	-0.403530	0.718340
C49	C	0.000081	-0.933090	0.050500
C50	C	0.500081	-0.433090	0.550500
C51	C	0.000070	-1.064084	0.053053
C52	C	0.500070	-0.564084	0.553053
C53	C	0.000073	-1.487648	-0.218402
C54	C	0.500073	-0.987648	0.281598
C55	C	0.000065	-1.484889	-0.322725
C56	C	0.500065	-0.984889	0.177275
C57	C	0.000058	-1.482698	-0.405875
C58	C	0.500058	-0.982698	0.094125
C59	C	0.000052	-1.479939	-0.510205
C60	C	0.500052	-0.979939	-0.010205
C61	C	0.000052	-1.475031	0.304251
C62	C	0.500052	-0.975031	0.804251
C63	C	0.000045	-1.477749	0.406645
C64	C	0.500045	-0.977749	0.906645
H65	H	0.000060	-0.838177	0.285634
H66	H	0.500060	-0.338177	0.785634
H67	H	0.000031	-1.075814	0.290268
H68	H	0.500031	-0.575814	0.790268
C69	C	0.000144	-0.878267	-0.042091
C70	C	0.500144	-0.378267	0.457909
C71	C	0.000171	-0.976609	-0.113918
C72	C	0.500171	-0.476609	0.386082
C73	C	0.000238	-0.926158	-0.199226
C74	C	0.500238	-0.426158	0.300774
H75	H	-0.059516	-0.827798	-0.046703
H76	H	0.440484	-0.327798	0.453297
H77	H	0.059848	-0.827818	-0.046630
H78	H	0.559848	-0.327818	0.453370
H79	H	-0.059527	-1.027037	-0.109381
H80	H	0.440473	-0.527037	0.390619
H81	H	0.059826	-1.027086	-0.109336
H82	H	0.559826	-0.527086	0.390664
H83	H	0.059942	-0.875709	-0.203765
H84	H	0.559942	-0.375709	0.296235
H85	H	-0.059423	-0.875690	-0.203829
H86	H	0.440577	-0.375690	0.296171
H87	H	0.000266	-0.992874	-0.247971
H88	H	0.500266	-0.492874	0.252029
H89	H	0.000076	-1.129445	-0.014246
H90	H	0.500076	-0.629445	0.485754
