data_functionalizedCrystal
_audit_creation_method	'MofGen! by Chris Wilmer'
_symmetry_space_group_name_H-M	'P1'
_symmetry_Int_Tables_number	1
_symmetry_cell_setting	triclinic
loop_
_symmetry_equiv_pos_as_xyz
  x,y,z
_cell_length_a	19.188930
_cell_length_b	10.540539
_cell_length_c	9.616153
_cell_angle_alpha	90.004920
_cell_angle_beta	90.012579
_cell_angle_gamma	96.164863
loop_
_atom_site_label
_atom_site_type_symbol
_atom_site_fract_x
_atom_site_fract_y
_atom_site_fract_z
O1	O	0.098395	-1.683705	0.115598
O2	O	0.107665	-1.314088	0.115617
O3	O	0.001446	-1.509563	0.115579
O4	O	0.204615	-1.488230	0.115635
O5	O	0.001435	-1.509574	-0.115712
O6	O	0.107655	-1.314099	-0.115675
O7	O	0.098384	-1.683717	-0.115694
Zn8	Zn	0.103018	-1.498910	-0.152407
Zn9	Zn	0.103032	-1.498894	0.152330
O10	O	0.204604	-1.488242	-0.115657
C11	C	0.106965	-1.266806	-0.000027
C12	C	0.104885	-1.125904	-0.000021
N13	N	0.103036	-1.498885	0.360304
C14	C	-0.024575	-1.508878	-0.000070
C15	C	-0.102094	-1.506804	-0.000082
C16	C	-0.146253	-1.621502	-0.000095
C17	C	-0.219090	-1.619554	-0.000072
C18	C	-0.247764	-1.502901	-0.000065
C19	C	-0.203595	-1.388187	-0.000045
C20	C	-0.130760	-1.390139	-0.000053
N21	N	-0.356367	-1.413737	-0.078774
N22	N	-0.425558	-1.411891	-0.078769
C23	C	-0.467212	-1.497014	-0.000037
N24	N	-0.437062	-1.584072	0.078672
N25	N	-0.367865	-1.585922	0.078661
C26	C	-0.326741	-1.500772	-0.000055
C27	C	-0.590350	-1.609608	-0.000023
C28	C	-0.663188	-1.607655	0.000008
C29	C	-0.647691	-1.376285	0.000021
C30	C	-0.574855	-1.378241	0.000004
C31	C	-0.546189	-1.494906	-0.000025
C32	C	0.230625	-1.488927	-0.000004
C33	C	0.308143	-1.491000	0.000017
C34	C	0.099085	-1.730998	-0.000047
C35	C	0.101165	-1.871901	-0.000044
C36	C	0.025184	-0.944233	-0.000583
C37	C	0.027292	-1.090805	-0.000047
C38	C	0.142232	-1.063402	0.132063
C39	C	0.139584	-0.916915	0.132158
C40	C	0.141150	-0.916405	-0.130863
C41	C	0.141865	-1.063372	-0.132594
N42	N	0.103008	-1.498930	-0.360381
C43	C	0.159910	-1.394445	0.580694
C44	C	0.159777	-1.394049	0.419526
C45	C	0.029984	-1.470710	0.418760
C46	C	0.030301	-1.469985	0.579978
C47	C	0.118510	-1.631898	0.580190
C48	C	0.120177	-1.630975	0.418963
H49	H	-0.122918	-1.716500	-0.000113
C50	C	-0.679228	-1.247964	0.000034
N51	N	-0.702986	-1.151310	0.000046
H52	H	0.198435	-1.086352	-0.140553
C53	C	-0.267674	-1.745736	-0.000095
N54	N	-0.304266	-1.840777	-0.000116
C55	C	-0.558815	-1.737940	-0.000034
N56	N	-0.535065	-1.834601	-0.000037
C57	C	-0.012413	-1.149260	-0.127954
N58	N	-0.042324	-1.193283	-0.224294
H59	H	-0.013356	-1.543231	0.618953
C60	C	0.233107	-1.416520	0.366135
N61	N	0.288346	-1.433422	0.325927
H62	H	-0.226946	-1.293208	-0.000036
H63	H	0.173926	-1.652362	0.380784
H64	H	-0.002292	-1.133197	0.094785
H65	H	0.199214	-1.084499	0.136992
H66	H	-0.094804	-1.296735	-0.000044
C67	C	0.067911	-1.740850	0.364509
N68	N	0.028539	-1.823606	0.323496
H69	H	0.214356	-1.410844	0.619504
H70	H	-0.005474	-0.916328	-0.095309
C71	C	0.188987	-1.668735	0.635167
N72	N	0.242074	-1.696466	0.676576
H73	H	0.150057	-1.296311	0.621213
C74	C	-0.711764	-1.733839	-0.000013
N75	N	-0.748352	-1.828884	-0.000036
H76	H	0.111990	-0.889308	0.230877
C77	C	0.062469	-1.736929	0.631675
N78	N	0.020257	-1.816030	0.670463
H79	H	0.116035	-0.885418	-0.230981
H80	H	-0.538899	-1.284841	0.000006
H81	H	0.149793	-1.295351	0.380966
H82	H	-0.013404	-1.544809	0.380394
C83	C	-0.016054	-0.904309	0.126636
N84	N	-0.047113	-0.874232	0.222457
H85	H	0.197195	-0.867944	-0.131740
C86	C	0.214970	-0.850447	0.140307
N87	N	0.271750	-0.800388	0.146459
C88	C	0.107192	-1.121691	0.264844
N89	N	0.080795	-1.165592	0.364853
H90	H	0.016770	-1.373034	0.617585
C91	C	0.104985	-1.119480	-0.264605
N92	N	0.077201	-1.161739	-0.364033
H93	H	0.016149	-1.374866	0.378377
