data_functionalizedCrystal
_audit_creation_method	'MofGen! by Chris Wilmer'
_symmetry_space_group_name_H-M	'P1'
_symmetry_Int_Tables_number	1
_symmetry_cell_setting	triclinic
loop_
_symmetry_equiv_pos_as_xyz
  x,y,z
_cell_length_a	16.109301
_cell_length_b	12.376457
_cell_length_c	16.109301
_cell_angle_alpha	78.728360
_cell_angle_beta	83.461481
_cell_angle_gamma	101.287118
loop_
_atom_site_label
_atom_site_type_symbol
_atom_site_fract_x
_atom_site_fract_y
_atom_site_fract_z
O1	O	1.119069	0.093935	0.090939
O2	O	1.619069	0.593935	0.590939
O3	O	0.877010	0.093954	0.104235
O4	O	1.377010	0.593954	0.604235
O5	O	1.004687	0.093933	-0.023442
O6	O	1.504687	0.593933	0.476558
O7	O	0.991392	0.093957	0.218616
O8	O	1.491392	0.593957	0.718616
O9	O	0.972779	-0.094074	0.008434
O10	O	1.472779	0.405926	0.508434
O11	O	0.845102	-0.094053	0.136111
O12	O	1.345102	0.405947	0.636111
O13	O	1.087161	-0.094071	0.122815
O14	O	1.587161	0.405929	0.622815
Zn15	Zn	0.961065	-0.123912	0.134524
Zn16	Zn	1.461065	0.376088	0.634524
Zn17	Zn	1.003105	0.123795	0.092526
Zn18	Zn	1.503105	0.623795	0.592526
O19	O	0.959484	-0.094050	0.250492
O20	O	1.459484	0.405950	0.750492
C21	C	0.830081	-0.000047	0.119634
C22	C	1.330081	0.499953	0.619634
C23	C	0.737787	-0.000041	0.118018
C24	C	1.237787	0.499959	0.618018
N25	N	0.932380	-0.292966	0.163185
N26	N	1.432380	0.207034	0.663185
C27	C	0.515514	-0.000047	0.190026
C28	C	1.015514	0.499953	0.690026
C29	C	0.428792	-0.000054	0.188503
C30	C	0.928792	0.499946	0.688503
C31	C	0.448665	-0.000064	0.037016
C32	C	0.948665	0.499936	0.537016
C33	C	0.535383	-0.000065	0.038541
C34	C	1.035383	0.499935	0.538541
C35	C	0.568806	-0.000050	0.115048
C36	C	1.068806	0.499950	0.615048
C37	C	0.395366	-0.000057	0.112000
C38	C	0.895366	0.499943	0.612000
C39	C	0.301339	-0.000065	0.110348
C40	C	0.801339	0.499935	0.610348
C41	C	0.662839	-0.000045	0.116700
C42	C	1.162839	0.499955	0.616700
C43	C	1.098385	-0.647978	-0.002692
C44	C	1.598385	-0.147978	0.497308
C45	C	1.118457	-0.529642	-0.022753
C46	C	1.618457	-0.029642	0.477247
C47	C	1.071939	-0.470467	0.023730
C48	C	1.571939	0.029533	0.523730
C49	C	1.005346	-0.529640	0.090277
C50	C	1.505346	-0.029640	0.590277
C51	C	0.985277	-0.647988	0.110344
C52	C	1.485277	-0.147988	0.610344
C53	C	0.958831	-0.470477	0.136766
C54	C	1.458831	0.029523	0.636766
C55	C	0.892238	-0.529650	0.203313
C56	C	1.392238	-0.029650	0.703313
C57	C	0.872172	-0.647987	0.223376
C58	C	1.372172	-0.147987	0.723376
C59	C	0.918689	-0.707162	0.176894
C60	C	1.418689	-0.207162	0.676894
C61	C	0.978901	-0.352129	0.116699
C62	C	1.478901	0.147871	0.616699
C63	C	0.865793	-0.352139	0.229735
C64	C	1.365793	0.147861	0.729735
C65	C	0.845721	-0.470476	0.249796
C66	C	1.345721	0.029524	0.749796
C67	C	1.134090	-0.000068	0.107415
C68	C	1.634090	0.499932	0.607415
C69	C	1.226385	-0.000067	0.109030
C70	C	1.726385	0.499933	0.609030
C71	C	0.988194	-0.000071	-0.038479
C72	C	1.488194	0.499929	0.461521
C73	C	0.986579	-0.000073	-0.130774
C74	C	1.486579	0.499927	0.369226
N75	N	1.031797	0.292848	0.063858
N76	N	1.531797	0.792848	0.563858
C77	C	1.058589	-0.000060	-0.353049
C78	C	1.558589	0.499940	0.146951
C79	C	1.057066	-0.000051	-0.439771
C80	C	1.557066	0.499949	0.060229
C81	C	0.905579	-0.000044	-0.419897
C82	C	1.405579	0.499956	0.080103
C83	C	0.907103	-0.000045	-0.333178
C84	C	1.407103	0.499955	0.166822
C85	C	0.983610	-0.000059	-0.299756
C86	C	1.483610	0.499941	0.200244
C87	C	0.980563	-0.000048	-0.473197
C88	C	1.480563	0.499952	0.026803
C89	C	0.978911	-0.000038	-0.567224
C90	C	1.478911	0.499962	-0.067224
C91	C	0.985262	-0.000067	-0.205722
C92	C	1.485262	0.499933	0.294278
C93	C	0.975977	-0.000044	0.265528
C94	C	1.475977	0.499956	0.765528
C95	C	0.977594	-0.000035	0.357822
C96	C	1.477594	0.499965	0.857822
H97	H	0.385404	-0.000053	0.249559
H98	H	0.885404	0.499947	0.749559
N99	N	0.823060	-0.000040	-0.455940
N100	N	1.323060	0.499960	0.044060
H101	H	0.830875	0.069652	-0.503291
H102	H	1.330875	0.569652	-0.003291
H103	H	0.807266	-0.069783	-0.479613
H104	H	1.307266	0.430217	0.020387
H105	H	0.421440	-0.000083	-0.025271
H106	H	0.921440	0.499917	0.474729
N107	N	0.826231	-0.000036	-0.275691
N108	N	1.326231	0.499964	0.224309
H109	H	0.777532	-0.000035	-0.310021
H110	H	1.277532	0.499965	0.189979
H111	H	0.811738	-0.069731	-0.227464
H112	H	1.311738	0.430269	0.272536
H113	H	0.542722	-0.000043	0.252324
H114	H	1.042722	0.499957	0.752324
N115	N	0.592869	-0.000082	-0.042329
N116	N	1.092869	0.499918	0.457671
H117	H	0.558540	-0.000085	-0.091028
H118	H	1.058540	0.499915	0.408972
H119	H	0.641111	0.069610	-0.056813
H120	H	1.141111	0.569610	0.443187
H121	H	1.120885	-0.000069	-0.325839
H122	H	1.620885	0.499931	0.174161
H123	H	1.033121	-0.303961	0.062517
H124	H	1.533121	0.196039	0.562517
N125	N	1.190274	-0.465823	-0.094524
N126	N	1.690274	0.034177	0.405476
H127	H	1.235400	-0.416719	-0.071061
H128	H	1.735400	0.083281	0.428939
H129	H	1.216628	-0.521337	-0.120898
H130	H	1.716628	-0.021337	0.379102
N131	N	1.093584	-0.342833	0.002096
N132	N	1.593584	0.157167	0.502096
H133	H	1.142827	-0.314326	-0.047115
H134	H	1.642827	0.185674	0.452885
H135	H	1.041890	-0.314432	-0.014811
H136	H	1.541890	0.185568	0.485189
N137	N	1.148551	-0.711810	-0.052811
N138	N	1.648551	-0.211810	0.447189
H139	H	1.108466	-0.760925	-0.081304
H140	H	1.608466	-0.260925	0.418696
H141	H	1.193780	-0.656306	-0.097971
H142	H	1.693780	-0.156306	0.402029
N143	N	0.897038	-0.834800	0.198532
N144	N	1.397038	-0.334800	0.698532
H145	H	0.936610	-0.863302	0.158984
H146	H	1.436610	-0.363302	0.658984
H147	H	0.904269	-0.863207	0.259871
H148	H	1.404269	-0.363207	0.759871
N149	N	0.800346	-0.711813	0.295148
N150	N	1.300346	-0.211813	0.795148
H151	H	0.773918	-0.656373	0.321546
H152	H	1.273918	-0.156373	0.821546
H153	H	0.755283	-0.760917	0.271618
H154	H	1.255283	-0.260917	0.771618
N155	N	0.773899	-0.534310	0.321568
N156	N	1.273899	-0.034310	0.821568
H157	H	0.797330	-0.583401	0.366714
H158	H	1.297330	-0.083401	0.866714
H159	H	0.747496	-0.478806	0.347906
H160	H	1.247496	0.021194	0.847906
H161	H	0.827915	-0.303960	0.267587
H162	H	1.327915	0.196040	0.767587
N163	N	1.137936	-0.000052	-0.497252
N164	N	1.637936	0.499948	0.002748
H165	H	1.186630	-0.000061	-0.462916
H166	H	1.686630	0.499939	0.037084
H167	H	1.128774	-0.069746	-0.521854
H168	H	1.628774	0.430254	-0.021854
