data_functionalizedCrystal
_audit_creation_method	'MofGen! by Chris Wilmer'
_symmetry_space_group_name_H-M	'P1'
_symmetry_Int_Tables_number	1
_symmetry_cell_setting	triclinic
loop_
_symmetry_equiv_pos_as_xyz
  x,y,z
_cell_length_a	33.510554
_cell_length_b	33.509711
_cell_length_c	33.506470
_cell_angle_alpha	60.004186
_cell_angle_beta	60.008358
_cell_angle_gamma	59.994760
loop_
_atom_site_label
_atom_site_type_symbol
_atom_site_fract_x
_atom_site_fract_y
_atom_site_fract_z
O1	O	0.055430	-0.583081	0.487524
O2	O	0.020931	-0.453975	0.392819
O3	O	0.102693	-0.535652	0.392731
O4	O	-0.026332	-0.501404	0.487613
O5	O	0.129823	-0.508526	0.419767
O6	O	0.048062	-0.426850	0.419856
O7	O	0.082561	-0.555956	0.514561
Cu8	Cu	0.067789	-0.488926	0.469677
Cu9	Cu	0.035703	-0.521005	0.437703
O10	O	0.000799	-0.474279	0.514649
N11	N	0.090357	-0.466366	0.492168
N12	N	0.013139	-0.543569	0.415212
C13	C	0.143028	-0.279707	0.544737
C14	C	0.143165	-0.413746	0.678712
C15	C	0.143043	-0.413725	0.544739
C16	C	0.277090	-0.413694	0.544637
C17	C	0.157791	-0.323929	0.559462
C18	C	0.157869	-0.398994	0.634489
C19	C	0.232865	-0.398963	0.559407
C20	C	0.157801	-0.398982	0.559463
C21	C	0.124237	-0.223419	0.525994
C22	C	0.124262	-0.432490	0.525997
C23	C	0.176583	-0.380217	0.578205
C24	C	0.358938	-0.399566	0.501510
C25	C	0.410104	-0.416609	0.484423
C26	C	0.410135	-0.499402	0.515995
C27	C	0.358969	-0.482358	0.533084
C28	C	0.136554	-0.197822	0.475693
C29	C	0.119469	-0.146653	0.458657
C30	C	0.077755	-0.146680	0.542223
C31	C	0.094840	-0.197850	0.559260
C32	C	0.073954	-0.420144	0.538396
C33	C	0.056884	-0.437203	0.521352
C34	C	0.140427	-0.478952	0.479524
C35	C	0.157498	-0.461894	0.496561
C36	C	0.074158	-0.420182	0.760618
C37	C	0.057149	-0.437256	0.811786
C38	C	0.140732	-0.479014	0.811717
C39	C	0.157740	-0.461942	0.760547
C40	C	0.124452	-0.432525	0.734999
C41	C	0.333372	-0.432439	0.525839
C42	C	-0.020612	-0.577650	0.170305
C43	C	-0.020943	-0.788098	0.380897
C44	C	-0.020912	-0.577638	0.380991
C45	C	-0.231336	-0.577418	0.380585
C46	C	-0.129735	-0.611383	0.346870
C47	C	-0.054722	-0.611464	0.347017
C48	C	-0.073450	-0.630202	0.328195
C49	C	-0.087616	-0.712029	0.371239
C50	C	-0.070599	-0.763199	0.388315
C51	C	0.012191	-0.763282	0.356872
C52	C	-0.004828	-0.712113	0.339795
C53	C	-0.155381	-0.623711	0.397158
C54	C	-0.206547	-0.606601	0.414133
C55	C	-0.206417	-0.564839	0.330529
C56	C	-0.155251	-0.581949	0.313554
C57	C	-0.067051	-0.561160	0.334643
C58	C	-0.050026	-0.544131	0.351759
C59	C	-0.008343	-0.627704	0.393612
C60	C	-0.025368	-0.644736	0.376502
C61	C	-0.066922	-0.561168	0.246303
C62	C	-0.049794	-0.544141	0.195134
C63	C	-0.008048	-0.627719	0.195183
C64	C	-0.025175	-0.644745	0.246352
C65	C	-0.054614	-0.611468	0.271911
C66	C	-0.054732	-0.686488	0.346980
C67	C	-0.002117	-0.558258	0.114025
C68	C	-0.002879	-0.844379	0.399940
C69	C	-0.002504	-0.558243	0.399473
C70	C	-0.287615	-0.558285	0.398601
N71	N	0.434975	-0.466279	0.491900
O72	O	0.591199	-0.470749	0.375150
O73	O	0.591395	-0.565767	0.504116
O74	O	0.591311	-0.565550	0.422329
O75	O	0.591283	-0.470966	0.456937
O76	O	0.510024	-0.538522	0.449509
O77	O	0.510108	-0.538739	0.531297
O78	O	0.509913	-0.443721	0.402330
Cu79	Cu	0.502588	-0.488762	0.469295
Cu80	Cu	0.598719	-0.520726	0.437151
O81	O	0.509997	-0.443938	0.484117
N82	N	0.666332	-0.543209	0.414541
N83	N	0.090323	-0.121809	0.492157
O84	O	-0.026342	0.034503	0.487582
O85	O	0.102626	0.034543	0.392540
O86	O	0.020797	0.034507	0.392812
O87	O	0.055487	0.034539	0.487310
O88	O	0.047933	-0.046785	0.419900
O89	O	0.129763	-0.046749	0.419628
O90	O	0.000794	-0.046789	0.514670
Cu91	Cu	0.067756	-0.054192	0.469623
Cu92	Cu	0.035664	0.041946	0.437588
O93	O	0.082623	-0.046753	0.514399
N94	N	0.013091	0.109564	0.415054
N95	N	0.090671	-0.466416	0.836606
O96	O	0.086120	-0.583065	0.992910
O97	O	-0.008880	-0.454051	0.992954
O98	O	-0.008658	-0.535864	0.992931
O99	O	0.085897	-0.501252	0.992933
O100	O	0.018407	-0.508749	0.911642
O101	O	0.018185	-0.426936	0.911665
O102	O	0.113185	-0.555949	0.911621
Cu103	Cu	0.068156	-0.488967	0.904221
Cu104	Cu	0.036148	-0.521034	1.000355
O105	O	0.112963	-0.474136	0.911644
N106	N	0.013633	-0.543590	1.067970
C107	C	0.031262	-0.424144	0.393290
C108	C	0.132513	-0.525291	0.393180
C109	C	0.072229	-0.585787	0.514090
C110	C	-0.029022	-0.484640	0.514200
C111	C	0.550775	-0.565338	0.533954
C112	C	0.550672	-0.565070	0.432670
C113	C	0.550530	-0.444149	0.372492
C114	C	0.550635	-0.444418	0.473776
C115	C	0.132408	-0.005998	0.392963
C116	C	0.031106	-0.006142	0.393333
C117	C	-0.029021	-0.006147	0.514213
C118	C	0.072314	-0.006104	0.513878
C119	C	-0.008430	-0.424240	0.952316
C120	C	-0.008150	-0.525550	0.952271
C121	C	0.112735	-0.585760	0.952260
C122	C	0.112461	-0.484444	0.952286
H123	H	0.016194	-0.427197	0.832639
H124	H	-0.038255	-0.387188	0.952329
H125	H	-0.037843	-0.532946	0.952238
H126	H	0.169570	-0.532590	0.363385
O127	O	0.022236	-0.006069	0.357872
C128	C	0.027642	0.036028	0.316647
H129	H	0.022356	0.065464	0.328329
H130	H	-0.000853	0.050144	0.299336
H131	H	0.065794	0.026517	0.288938
O132	O	0.550689	-0.409030	0.482643
C133	C	0.592824	-0.425834	0.494086
H134	H	0.606902	-0.467499	0.508101
H135	H	0.583378	-0.411716	0.523497
H136	H	0.622263	-0.411875	0.459916
H137	H	-0.066081	-0.477343	0.543993
O138	O	0.550599	-0.600475	0.423845
C139	C	0.508478	-0.583663	0.412375
H140	H	0.479046	-0.553330	0.428176
H141	H	0.494381	-0.615160	0.428690
H142	H	0.517945	-0.568905	0.370987
O143	O	0.550755	-0.600915	0.578161
C144	C	0.508689	-0.614087	0.599821
H145	H	0.479223	-0.582709	0.583691
H146	H	0.494603	-0.622182	0.640952
H147	H	0.518224	-0.648021	0.592335
O148	O	0.041688	-0.391645	0.567054
C149	C	0.049101	-0.414902	0.612526
H150	H	0.067680	-0.455922	0.619548
H151	H	0.012361	-0.407779	0.642749
H152	H	0.073257	-0.399810	0.612050
H153	H	0.550467	-0.414317	0.335455
O154	O	0.081136	-0.006164	0.549362
C155	C	0.075750	-0.048278	0.590571
H156	H	0.051232	-0.062325	0.590202
H157	H	0.058525	-0.038812	0.625261
H158	H	0.113137	-0.077749	0.589572
O159	O	0.080940	-0.630034	0.549594
C160	C	0.047414	-0.651756	0.562760
H161	H	0.013558	-0.622158	0.552979
H162	H	0.036458	-0.672305	0.603772
H163	H	0.065116	-0.678370	0.542178
O164	O	0.148259	-0.629996	0.952263
C165	C	0.130671	-0.660409	0.952242
H166	H	0.089039	-0.647175	0.967641
H167	H	0.145670	-0.699566	0.975828
H168	H	0.143081	-0.659077	0.913239
O169	O	0.147856	-0.475523	0.952258
C170	C	0.130046	-0.427480	0.952284
H171	H	0.098660	-0.404354	0.936907
H172	H	0.160649	-0.411032	0.928680
H173	H	0.116428	-0.428204	0.991285
O174	O	0.334018	-0.351093	0.494561
C175	C	0.304460	-0.344143	0.540239
H176	H	0.296817	-0.379327	0.568754
H177	H	0.268468	-0.313423	0.537309
H178	H	0.324195	-0.334058	0.551591
H179	H	0.047048	-0.396226	0.739820
H180	H	0.169370	-0.005761	0.363053
O181	O	-0.073208	-0.006091	0.549828
C182	C	-0.094838	0.036020	0.562934
H183	H	-0.065197	0.050069	0.553001
H184	H	-0.115276	0.026551	0.603964
H185	H	-0.121532	0.065492	0.542435
H186	H	0.198696	-0.471996	0.739692
O187	O	0.173085	-0.507655	0.836515
C188	C	0.202676	-0.550556	0.823981
H189	H	0.182904	-0.557671	0.809930
H190	H	0.210444	-0.582795	0.857616
H191	H	0.238608	-0.545894	0.794262
O192	O	0.008011	-0.425275	0.533479
C193	C	-0.013193	-0.442788	0.584732
H194	H	0.015969	-0.474342	0.601195
H195	H	-0.043350	-0.456086	0.594546
H196	H	-0.029345	-0.412099	0.599901
O197	O	0.172783	-0.507496	0.450919
C198	C	0.220846	-0.514746	0.443645
H199	H	0.220757	-0.483897	0.449361
H200	H	0.245110	-0.515002	0.404830
H201	H	0.235536	-0.551200	0.470862
H202	H	0.198463	-0.471942	0.486461
H203	H	0.430973	-0.540048	0.521891
O204	O	0.334163	-0.514305	0.556636
C205	C	0.346659	-0.538269	0.525322
H206	H	0.360688	-0.514960	0.485711
H207	H	0.313011	-0.544035	0.531387
H208	H	0.376381	-0.575189	0.533548
O209	O	0.434919	-0.384645	0.460714
C210	C	0.422364	-0.349902	0.418553
H211	H	0.408281	-0.365672	0.406813
H212	H	0.455995	-0.340527	0.387820
H213	H	0.392664	-0.315413	0.426932
O214	O	0.165085	-0.222583	0.443312
C215	C	0.172298	-0.189017	0.395261
H216	H	0.141437	-0.152550	0.395376
H217	H	0.172544	-0.203799	0.370977
H218	H	0.208743	-0.183560	0.380573
H219	H	0.053825	-0.125861	0.569312
O220	O	0.131452	-0.121731	0.409804
C221	C	0.157210	-0.092129	0.397419
H222	H	0.148006	-0.084470	0.431134
H223	H	0.146291	-0.056144	0.367759
H224	H	0.198162	-0.111834	0.383347
H225	H	0.084809	-0.218687	0.600218
H226	H	-0.090896	-0.534066	0.267110
O227	O	-0.061823	-0.495259	0.170339
C228	C	-0.091469	-0.469544	0.203873
H229	H	-0.110114	-0.493923	0.240329
H230	H	-0.120383	-0.435381	0.189037
H231	H	-0.067884	-0.458534	0.209369
O232	O	0.020483	-0.660092	0.170413
C233	C	-0.005374	-0.689626	0.182858
H234	H	-0.035199	-0.690089	0.219979
H235	H	0.020858	-0.728448	0.184650
H236	H	-0.022687	-0.674225	0.154010
O237	O	-0.013304	-0.693598	0.271282
C238	C	-0.056319	-0.705913	0.300804
H239	H	-0.088462	-0.672170	0.308426
H240	H	-0.051802	-0.735581	0.336811
H241	H	-0.063479	-0.719948	0.281050
H242	H	-0.227194	-0.540877	0.303400
H243	H	-0.090949	-0.534065	0.310634
H244	H	-0.060067	-0.503170	0.341685
H245	H	0.015562	-0.654800	0.417614
H246	H	0.021953	-0.691318	0.320042
O247	O	-0.013329	-0.693616	0.388545
C248	C	0.016220	-0.719333	0.418248
H249	H	0.034825	-0.694957	0.411764
H250	H	0.045167	-0.753500	0.408690
H251	H	-0.007435	-0.730337	0.458307
H252	H	0.052828	-0.784146	0.351024
H253	H	-0.128252	-0.691169	0.377093
O254	O	-0.102608	-0.787933	0.411857
C255	C	-0.126551	-0.775429	0.380520
H256	H	-0.125303	-0.738312	0.351356
H257	H	-0.166231	-0.773598	0.402617
H258	H	-0.107482	-0.804266	0.362249
O259	O	-0.130669	-0.652279	0.429585
C260	C	-0.164279	-0.659497	0.477612
H261	H	-0.200730	-0.628617	0.477463
H262	H	-0.149536	-0.659779	0.501951
H263	H	-0.169748	-0.695929	0.492259
H264	H	-0.134369	-0.571905	0.272603
O265	O	-0.231519	-0.618595	0.462974
C266	C	-0.261115	-0.644323	0.475275
H267	H	-0.268721	-0.635087	0.441516
H268	H	-0.297124	-0.633401	0.504906
H269	H	-0.241433	-0.685283	0.489351
H270	H	0.023891	-0.387055	0.363546
