data_functionalizedCrystal
_audit_creation_method	'MofGen! by Chris Wilmer'
_symmetry_space_group_name_H-M	'P1'
_symmetry_Int_Tables_number	1
_symmetry_cell_setting	triclinic
loop_
_symmetry_equiv_pos_as_xyz
  x,y,z
_cell_length_a	23.096457
_cell_length_b	14.628931
_cell_length_c	14.628931
_cell_angle_alpha	60.000028
_cell_angle_beta	89.998103
_cell_angle_gamma	59.998050
loop_
_atom_site_label
_atom_site_type_symbol
_atom_site_fract_x
_atom_site_fract_y
_atom_site_fract_z
Zr1	Zr	0.557775	1.000559	-0.119981
O2	O	0.465324	1.191268	-0.265939
O3	O	0.586116	0.809852	-0.075237
O4	O	0.586116	1.000558	-0.265943
O5	O	0.465324	1.000563	0.075198
O6	O	0.681398	1.000554	-0.265946
O7	O	0.465324	1.000563	-0.075233
O8	O	0.681398	0.659417	0.075192
O9	O	0.465324	1.341700	-0.265940
O10	O	0.669311	0.888289	-0.056157
O11	O	0.598203	0.888292	0.056111
O12	O	0.598203	1.112823	-0.168421
O13	O	0.527095	1.112826	-0.056153
Zr14	Zr	0.709739	1.000554	0.119935
Zr15	Zr	0.709739	1.000554	-0.119986
Zr16	Zr	0.557775	1.000560	0.119940
Zr17	Zr	0.557774	1.240481	-0.119982
Zr18	Zr	0.709739	0.760632	0.119935
O19	O	0.681398	1.191261	0.075191
O20	O	0.681398	1.191260	-0.265946
O21	O	0.465324	1.191269	0.075198
O22	O	0.802189	0.809845	0.265893
O23	O	0.802190	0.809844	-0.075244
O24	O	0.586116	0.809853	0.265900
O25	O	0.802189	1.000550	-0.075245
O26	O	0.681398	1.000556	0.265896
O27	O	0.586115	1.000559	0.265899
O28	O	0.802189	1.000551	0.075187
O29	O	0.586115	1.341696	-0.265944
O30	O	0.681398	0.659418	0.265897
O31	O	0.802190	0.659413	0.265893
O32	O	0.802190	0.659412	0.075188
O33	O	0.465324	1.341701	-0.075234
O34	O	0.586115	1.341697	-0.075238
O35	O	0.669311	0.888290	0.168374
O36	O	0.740419	0.888287	0.056106
O37	O	0.669311	1.112821	-0.056157
O38	O	0.598203	1.112824	0.056110
C39	C	0.633757	0.700451	-0.000023
C40	C	0.633757	0.598598	-0.000022
C41	C	0.583872	0.631950	-0.078780
C42	C	0.583871	0.526681	-0.078782
C43	C	0.443673	1.000564	-0.000017
C44	C	0.379160	1.000566	-0.000015
C45	C	0.348857	1.000575	-0.082894
C46	C	0.288245	1.000564	-0.082894
C47	C	0.257929	1.000569	-0.000023
C48	C	0.288242	1.000552	0.082871
C49	C	0.348857	1.000551	0.082875
N50	N	0.139577	1.073758	0.025066
N51	N	0.081994	1.073761	0.025055
C52	C	0.075300	1.000570	-0.000028
N53	N	0.128359	0.927390	-0.025123
N54	N	0.185945	0.927392	-0.025118
C55	C	0.192203	1.000569	-0.000017
C56	C	-0.020725	1.000564	-0.082913
C57	C	-0.081336	1.000544	-0.082905
C58	C	-0.081342	1.000546	0.082856
C59	C	-0.020728	1.000553	0.082853
C60	C	0.009575	1.000568	-0.000037
C61	C	0.823841	1.000550	-0.000030
C62	C	0.888354	1.000547	-0.000032
C63	C	0.633757	1.000556	-0.300128
C64	C	0.633757	1.000556	-0.401981
C65	C	0.633756	1.300663	-0.000024
C66	C	0.633756	1.402516	-0.000024
C67	C	0.598483	1.111940	-0.503080
C68	C	0.598482	1.111942	-0.608352
C69	C	0.633757	1.000558	0.300082
C70	C	0.633756	1.000558	0.401934
C71	C	0.823841	0.700444	-0.000029
C72	C	0.888354	0.598588	-0.000031
C73	C	0.633757	0.700452	0.300082
C74	C	0.633757	0.598599	0.401935
C75	C	0.823841	0.700445	0.300076
C76	C	0.888354	0.598589	0.401927
C77	C	0.443673	1.300669	-0.300122
C78	C	0.379160	1.402524	-0.401973
C79	C	0.443672	1.300670	-0.000018
C80	C	0.379159	1.402525	-0.000016
C81	C	0.633757	1.300662	-0.300129
C82	C	0.633757	1.402515	-0.401982
C83	C	0.881533	0.550757	-0.058642
C84	C	0.942144	0.455066	-0.058666
C85	C	1.009576	0.407202	-0.000072
C86	C	1.016396	0.455042	0.058541
C87	C	0.955786	0.550738	0.058558
C88	C	0.955774	0.550755	0.391154
C89	C	1.016397	0.455065	0.486845
C90	C	1.009597	0.407203	0.593307
C91	C	0.942170	0.455047	0.604077
C92	C	0.881549	0.550742	0.508387
C93	C	0.311740	1.450370	-0.391201
C94	C	0.251117	1.546090	-0.486891
C95	C	0.257916	1.593956	-0.593353
C96	C	0.325343	1.546107	-0.604123
C97	C	0.385964	1.450395	-0.508434
C98	C	0.385981	1.450367	0.058586
C99	C	0.325370	1.546084	0.058583
C100	C	0.257938	1.593952	-0.000014
C101	C	0.251118	1.546107	-0.058622
C102	C	0.311728	1.450397	-0.058626
C103	C	0.669031	0.553189	0.503035
C104	C	0.669032	0.447918	0.608306
H105	H	0.263568	1.000571	-0.150387
H106	H	0.663954	0.905193	-0.511340
N107	N	0.673767	0.874237	-0.390551
H108	H	0.639704	0.869079	-0.427684
H109	H	0.697307	0.799979	-0.308599
H110	H	0.826632	0.589727	-0.106370
N111	N	0.304370	1.398780	-0.121816
H112	H	0.327861	1.415421	-0.180795
H113	H	0.252441	1.443648	-0.158859
N114	N	0.963127	0.602349	0.276341
H115	H	0.989901	0.642058	0.267377
H116	H	0.914477	0.670180	0.217409
N117	N	0.527300	0.772998	-0.168107
H118	H	0.535321	0.828206	-0.155445
H119	H	0.479119	0.792536	-0.164466
H120	H	0.676466	0.492110	0.067402
H121	H	0.603555	0.559547	0.393316
H122	H	1.058965	0.329282	0.671214
H123	H	1.058923	0.329279	-0.000094
H124	H	0.699233	0.408865	0.695035
N125	N	0.808834	0.602301	0.520019
H126	H	0.771456	0.670184	0.443253
H127	H	0.803217	0.641932	0.562343
N128	N	0.332674	1.597732	-0.718951
H129	H	0.309177	1.693799	-0.761265
H130	H	0.309179	1.580991	-0.761167
N131	N	0.381554	1.000563	-0.172275
H132	H	0.381464	1.080266	-0.215820
H133	H	0.353140	1.000514	-0.224704
H134	H	0.936577	0.416126	-0.106396
N135	N	0.709041	0.604907	0.514463
H136	H	0.732582	0.560139	0.596395
H137	H	0.674936	0.700981	0.477271
N138	N	1.089118	0.403456	0.475226
H139	H	1.094793	0.476474	0.432934
H140	H	1.094746	0.363726	0.432990
H141	H	0.263557	1.000553	0.150348
H142	H	0.603560	0.441555	0.511295
H143	H	0.961350	0.589670	0.106292
N144	N	0.527292	0.564299	-0.168107
H145	H	0.499739	0.528237	-0.131900
H146	H	0.550276	0.528232	-0.211578
N147	N	0.690337	0.364890	0.089304
H148	H	0.667405	0.400955	0.132803
H149	H	0.717871	0.400956	0.053014
H150	H	0.196221	1.585033	-0.478100
N151	N	0.458707	1.398760	0.121776
H152	H	0.485516	1.302695	0.180757
H153	H	0.453763	1.443699	0.158818
N154	N	0.381550	1.000525	0.172278
H155	H	0.353154	1.000517	0.224784
H156	H	0.381458	1.080231	0.136046
H157	H	0.440859	1.411440	-0.517218
N158	N	0.934842	0.403418	0.718906
H159	H	0.983480	0.335534	0.777881
H160	H	0.908046	0.363770	0.727779
N161	N	0.332730	1.597687	0.121792
H162	H	0.359501	1.524674	0.203774
H163	H	0.284078	1.665607	0.112805
N164	N	0.304389	1.398760	-0.276387
H165	H	0.277617	1.471779	-0.267422
H166	H	0.353040	1.330844	-0.217457
N167	N	0.011966	1.000575	-0.172306
H168	H	-0.016427	1.000568	-0.224807
H169	H	0.062361	0.920870	-0.136063
N170	N	1.089128	0.403412	0.121735
H171	H	1.126483	0.335529	0.112827
H172	H	1.094749	0.363763	0.203691
N173	N	0.192529	1.697188	-0.696557
H174	H	0.148789	1.720224	-0.673567
H175	H	0.192558	1.663813	-0.742578
N176	N	-0.114019	1.000543	-0.172295
H177	H	-0.085623	1.000554	-0.224802
H178	H	-0.164413	1.080248	-0.215753
H179	H	-0.106022	1.000543	0.150335
N180	N	0.011965	1.000528	0.172252
H181	H	-0.016433	1.000523	0.224756
H182	H	0.011877	1.080230	0.136025
N183	N	0.558490	1.238253	-0.723238
H184	H	0.577957	1.289513	-0.732259
H185	H	0.506561	1.289442	-0.732211
N186	N	0.558484	1.238261	-0.514514
H187	H	0.564157	1.220354	-0.437691
H188	H	0.506566	1.289480	-0.556799
H189	H	0.208591	1.671884	-0.000002
H190	H	0.196207	1.585095	-0.106331
