data_functionalizedCrystal
_audit_creation_method	'MofGen! by Chris Wilmer'
_symmetry_space_group_name_H-M	'P1'
_symmetry_Int_Tables_number	1
_symmetry_cell_setting	triclinic
loop_
_symmetry_equiv_pos_as_xyz
  x,y,z
_cell_length_a	18.050591
_cell_length_b	19.121063
_cell_length_c	19.120904
_cell_angle_alpha	94.741613
_cell_angle_beta	92.416941
_cell_angle_gamma	92.465257
loop_
_atom_site_label
_atom_site_type_symbol
_atom_site_fract_x
_atom_site_fract_y
_atom_site_fract_z
Zn1	Zn	1.103413	-0.297188	-0.409883
Zn2	Zn	1.436746	0.036145	-0.076550
Zn3	Zn	1.770080	0.369478	0.256783
Zn4	Zn	1.103321	-0.409835	-0.297234
Zn5	Zn	1.436654	-0.076502	0.036099
Zn6	Zn	1.769988	0.256831	0.369433
Zn7	Zn	0.984762	-0.292181	-0.292224
Zn8	Zn	1.318095	0.041153	0.041109
Zn9	Zn	1.651428	0.374486	0.374443
Zn10	Zn	0.973652	-0.414806	-0.414841
Zn11	Zn	1.306985	-0.081473	-0.081508
Zn12	Zn	1.640319	0.251860	0.251825
O13	O	1.041287	-0.353503	-0.353546
O14	O	1.374620	-0.020169	-0.020212
O15	O	1.707953	0.313164	0.313121
O16	O	1.207324	-0.312146	-0.394962
O17	O	1.540657	0.021187	-0.061629
O18	O	1.873990	0.354520	0.271705
O19	O	1.092205	-0.390052	-0.198110
O20	O	1.425538	-0.056719	0.135224
O21	O	1.758871	0.276615	0.468557
O22	O	1.005189	-0.194383	-0.303660
O23	O	1.338522	0.138951	0.029673
O24	O	1.671856	0.472284	0.363007
O25	O	1.207256	-0.394908	-0.312199
O26	O	1.540589	-0.061574	0.021134
O27	O	1.873923	0.271759	0.354468
O28	O	1.092361	-0.198062	-0.390104
O29	O	1.425695	0.135272	-0.056771
O30	O	1.759028	0.468605	0.276563
O31	O	1.005100	-0.303612	-0.194429
O32	O	1.338433	0.029722	0.138905
O33	O	1.671766	0.363055	0.472238
O34	O	0.879365	-0.308432	-0.308468
O35	O	1.212698	0.024901	0.024866
O36	O	1.546032	0.358235	0.358199
O37	O	0.986254	-0.403380	-0.512643
O38	O	1.319587	-0.070047	-0.179310
O39	O	1.652921	0.263287	0.154023
O40	O	0.871203	-0.398524	-0.398554
O41	O	1.204536	-0.065191	-0.065221
O42	O	1.537869	0.268142	0.268113
O43	O	1.081589	-0.316967	-0.509001
O44	O	1.414922	0.016367	-0.175667
O45	O	1.748255	0.349700	0.157666
O46	O	1.081432	-0.508957	-0.317006
O47	O	1.414765	-0.175624	0.016327
O48	O	1.748099	0.157710	0.349660
O49	O	0.986165	-0.512609	-0.403412
O50	O	1.319498	-0.179276	-0.070079
O51	O	1.652831	0.154057	0.263255
C52	C	0.848338	-0.353475	-0.353506
C53	C	1.181671	-0.020141	-0.020172
C54	C	1.515004	0.313192	0.313161
C55	C	0.765792	-0.353480	-0.353506
C56	C	1.099125	-0.020147	-0.020173
C57	C	1.432458	0.313186	0.313161
C58	C	0.570756	-0.304438	-0.304623
C59	C	0.904089	0.028895	0.028711
C60	C	1.237422	0.362228	0.362044
C61	C	0.519132	-0.367877	-0.290041
C62	C	0.852465	-0.034544	0.043292
C63	C	1.185799	0.298789	0.376626
C64	C	0.614659	-0.353503	-0.353539
C65	C	0.947992	-0.020170	-0.020205
C66	C	1.281326	0.313164	0.313128
C67	C	0.519200	-0.290086	-0.368119
C68	C	0.852533	0.043247	-0.034786
C69	C	1.185866	0.376580	0.298547
C70	C	0.468672	-0.353519	-0.353569
C71	C	0.802005	-0.020186	-0.020235
C72	C	1.135338	0.313147	0.313098
C73	C	0.564122	-0.416974	-0.338925
C74	C	0.897456	-0.083641	-0.005591
C75	C	1.230789	0.249692	0.327742
C76	C	0.564195	-0.339142	-0.417031
C77	C	0.897528	-0.005808	-0.083698
C78	C	1.230862	0.327525	0.249635
C79	C	0.512591	-0.402626	-0.402476
C80	C	0.845924	-0.069293	-0.069142
C81	C	1.179257	0.264041	0.264191
C82	C	0.698758	-0.353493	-0.353519
C83	C	1.032092	-0.020159	-0.020186
C84	C	1.365425	0.313174	0.313147
C85	C	0.384573	-0.353537	-0.353588
C86	C	0.717907	-0.020204	-0.020255
C87	C	1.051240	0.313130	0.313079
C88	C	1.032602	-0.536314	-0.361306
C89	C	1.365936	-0.202981	-0.027973
C90	C	1.699269	0.130353	0.305360
C91	C	1.028954	-0.614522	-0.364650
C92	C	1.362287	-0.281189	-0.031316
C93	C	1.695621	0.052144	0.302017
C94	C	1.076876	-0.649342	-0.321271
C95	C	1.410209	-0.316008	0.012062
C96	C	1.743542	0.017325	0.345395
C97	C	1.073449	-0.722827	-0.324420
C98	C	1.406782	-0.389494	0.008913
C99	C	1.740115	-0.056161	0.342247
C100	C	1.022096	-0.761492	-0.370944
C101	C	1.355429	-0.428159	-0.037611
C102	C	1.688762	-0.094825	0.295722
C103	C	0.974172	-0.726668	-0.414328
C104	C	1.307505	-0.393334	-0.080994
C105	C	1.640839	-0.060001	0.252339
C106	C	0.977603	-0.653184	-0.411182
C107	C	1.310936	-0.319850	-0.077849
C108	C	1.644270	0.013483	0.255485
C109	C	1.009256	-0.983462	-0.382694
C110	C	1.342589	-0.650129	-0.049361
C111	C	1.675922	-0.316796	0.283972
C112	C	1.005827	-1.056951	-0.385835
C113	C	1.339160	-0.723618	-0.052502
C114	C	1.672493	-0.390285	0.280831
C115	C	1.105105	-1.053106	-0.295928
C116	C	1.438438	-0.719773	0.037405
C117	C	1.771771	-0.386439	0.370739
C118	C	1.108528	-0.979621	-0.292784
C119	C	1.441862	-0.646287	0.040550
C120	C	1.775195	-0.312954	0.373883
C121	C	1.060607	-0.944803	-0.336169
C122	C	1.393940	-0.611469	-0.002836
C123	C	1.727274	-0.278136	0.330497
C124	C	1.018590	-0.836606	-0.374162
C125	C	1.351923	-0.503273	-0.040829
C126	C	1.685256	-0.169939	0.292504
C127	C	1.064117	-0.869690	-0.332954
C128	C	1.397450	-0.536357	0.000379
C129	C	1.730784	-0.203024	0.333712
C130	C	1.234989	-0.353531	-0.353586
C131	C	1.568323	-0.020198	-0.020253
C132	C	1.901656	0.313136	0.313080
C133	C	1.317534	-0.353543	-0.353604
C134	C	1.650867	-0.020210	-0.020270
C135	C	1.984200	0.313123	0.313063
C136	C	1.032692	-0.361286	-0.537065
C137	C	1.366026	-0.027953	-0.203732
C138	C	1.699359	0.305380	0.129601
C139	C	1.029030	-0.364603	-0.615271
C140	C	1.362363	-0.031270	-0.281937
C141	C	1.695697	0.302063	0.051396
C142	C	1.050025	-0.169978	-0.345770
C143	C	1.383358	0.163355	-0.012437
C144	C	1.716691	0.496689	0.320897
C145	C	1.053748	-0.091771	-0.342457
C146	C	1.387082	0.241563	-0.009123
C147	C	1.720415	0.574896	0.324210
C148	C	1.076942	-0.321173	-0.650116
C149	C	1.410276	0.012160	-0.316783
C150	C	1.743609	0.345494	0.016550
C151	C	1.073492	-0.324287	-0.723598
C152	C	1.406826	0.009046	-0.390265
C153	C	1.740159	0.342380	-0.056932
C154	C	1.022133	-0.370835	-0.762233
C155	C	1.355466	-0.037502	-0.428900
C156	C	1.688799	0.295831	-0.095567
C157	C	0.974215	-0.414268	-0.727383
C158	C	1.307548	-0.080934	-0.394049
C159	C	1.640882	0.252399	-0.060716
C160	C	0.977662	-0.411150	-0.653902
C161	C	1.310995	-0.077816	-0.320569
C162	C	1.644329	0.255517	0.012765
C163	C	1.009238	-0.382497	-0.984193
C164	C	1.342571	-0.049164	-0.650859
C165	C	1.675905	0.284169	-0.317526
C166	C	1.005796	-0.385614	-1.057679
C167	C	1.339129	-0.052280	-0.724345
C168	C	1.672463	0.281053	-0.391012
C169	C	1.105073	-0.295631	-1.053889
C170	C	1.438406	0.037702	-0.720556
C171	C	1.771740	0.371035	-0.387222
C172	C	1.108518	-0.292521	-0.980407
C173	C	1.441852	0.040813	-0.647074
C174	C	1.775185	0.374146	-0.313741
C175	C	1.060598	-0.335950	-0.945563
C176	C	1.393932	-0.002617	-0.612229
C177	C	1.727265	0.330717	-0.278896
C178	C	1.018606	-0.374021	-0.837344
C179	C	1.351940	-0.040688	-0.504011
C180	C	1.685273	0.292646	-0.170677
C181	C	1.064121	-0.332760	-0.870453
C182	C	1.397455	0.000573	-0.537120
C183	C	1.730788	0.333906	-0.203787
C184	C	1.049893	-0.345698	-0.170738
C185	C	1.383226	-0.012365	0.162596
C186	C	1.716560	0.320968	0.495929
C187	C	1.053709	-0.342183	-0.092524
C188	C	1.387042	-0.008850	0.240809
C189	C	1.720375	0.324484	0.574142
H190	H	0.584081	-0.326962	-0.470695
H191	H	0.917414	0.006371	-0.137362
H192	H	1.250748	0.339705	0.195971
N193	N	1.119520	-0.282562	-0.828785
N194	N	1.452853	0.050771	-0.495452
N195	N	1.786187	0.384105	-0.162118
H196	H	1.149355	-0.255521	-0.862007
H197	H	1.482689	0.077812	-0.528673
H198	H	1.816022	0.411146	-0.195340
H199	H	1.092273	-0.248701	-0.796909
H200	H	1.425606	0.084632	-0.463576
H201	H	1.758939	0.417965	-0.130242
H202	H	1.105931	-0.838208	-0.295077
H203	H	1.439265	-0.504874	0.038256
H204	H	1.772598	-0.171541	0.371590
N205	N	0.492967	-0.219040	-0.384445
N206	N	0.826300	0.114294	-0.051112
N207	N	1.159633	0.447627	0.282221
H208	H	0.459968	-0.224333	-0.428728
H209	H	0.793302	0.109000	-0.095395
H210	H	1.126635	0.442333	0.237939
H211	H	0.464146	-0.198580	-0.344108
H212	H	0.797480	0.134754	-0.010775
H213	H	1.130813	0.468087	0.322558
H214	H	0.583839	-0.470625	-0.326545
H215	H	0.917173	-0.137292	0.006788
H216	H	1.250506	0.196041	0.340122
H217	H	0.499266	-0.380037	-0.236360
H218	H	0.832599	-0.046703	0.096974
H219	H	1.165932	0.286630	0.430307
H220	H	0.487330	-0.444171	-0.443857
H221	H	0.820663	-0.110838	-0.110524
H222	H	1.153997	0.222495	0.222810
H223	H	0.976792	-0.411924	-0.868809
H224	H	1.310126	-0.078591	-0.535476
H225	H	1.643459	0.254742	-0.202142
N226	N	1.132262	-0.607641	-0.271089
N227	N	1.465595	-0.274308	0.062245
N228	N	1.798928	0.059025	0.395578
H229	H	1.162101	-0.640853	-0.244088
H230	H	1.495434	-0.307520	0.089245
H231	H	1.828767	0.025814	0.422578
H232	H	1.166687	-0.578332	-0.298457
H233	H	1.500020	-0.244999	0.034876
H234	H	1.833354	0.088335	0.368210
H235	H	1.112471	-0.751174	-0.289096
H236	H	1.445804	-0.417840	0.044237
H237	H	1.779138	-0.084507	0.377571
H238	H	0.932394	-0.452166	-0.758845
H239	H	1.265727	-0.118833	-0.425512
H240	H	1.599061	0.214501	-0.092179
N241	N	1.163926	-0.937920	-0.242614
N242	N	1.497260	-0.604586	0.090719
N243	N	1.830593	-0.271253	0.424053
H244	H	1.193770	-0.971129	-0.215615
H245	H	1.527103	-0.637796	0.117718
H246	H	1.860437	-0.304462	0.451052
H247	H	1.198347	-0.908616	-0.269993
H248	H	1.531680	-0.575283	0.063340
H249	H	1.865013	-0.241950	0.396673
N250	N	1.163901	-0.242289	-0.938754
N251	N	1.497235	0.091044	-0.605421
N252	N	1.830568	0.424378	-0.272088
H253	H	1.136692	-0.208386	-0.906887
H254	H	1.470025	0.124947	-0.573553
H255	H	1.803359	0.458281	-0.240220
H256	H	1.198385	-0.269625	-0.909522
H257	H	1.531718	0.063709	-0.576188
H258	H	1.865052	0.397042	-0.242855
N259	N	1.156785	-1.090658	-0.249133
N260	N	1.490119	-0.757325	0.084201
N261	N	1.823452	-0.423992	0.417534
H262	H	1.146821	-1.143077	-0.258182
H263	H	1.480154	-0.809744	0.075152
H264	H	1.813488	-0.476410	0.408485
H265	H	1.209903	-1.078239	-0.259581
H266	H	1.543236	-0.744906	0.073753
H267	H	1.876570	-0.411572	0.407086
H268	H	0.964017	-1.088431	-0.423733
H269	H	1.297350	-0.755098	-0.090400
H270	H	1.630684	-0.421764	0.242933
H271	H	0.970235	-0.955120	-0.418020
H272	H	1.303568	-0.621786	-0.084686
H273	H	1.636902	-0.288453	0.248647
H274	H	0.963970	-0.423521	-1.089134
H275	H	1.297304	-0.090187	-0.755800
H276	H	1.630637	0.243146	-0.422467
H277	H	0.932362	-0.758154	-0.452212
H278	H	1.265696	-0.424821	-0.118878
H279	H	1.599029	-0.091488	0.214455
N280	N	0.604408	-0.249535	-0.249780
N281	N	0.937742	0.083799	0.083553
N282	N	1.271075	0.417132	0.416886
H283	H	0.587377	-0.201720	-0.260288
H284	H	0.920710	0.131613	0.073045
H285	H	1.254043	0.464946	0.406379
H286	H	0.588061	-0.260548	-0.201869
H287	H	0.921394	0.072786	0.131464
H288	H	1.254728	0.406119	0.464798
H289	H	0.976777	-0.868095	-0.412041
H290	H	1.310110	-0.534761	-0.078708
H291	H	1.643443	-0.201428	0.254625
H292	H	0.938581	-0.624835	-0.446506
H293	H	1.271914	-0.291501	-0.113173
H294	H	1.605248	0.041832	0.220160
N295	N	0.957532	-0.429314	-0.946615
N296	N	1.290865	-0.095981	-0.613281
N297	N	1.624199	0.237353	-0.279948
H298	H	0.924469	-0.459268	-0.982242
H299	H	1.257802	-0.125935	-0.648908
H300	H	1.591135	0.207399	-0.315575
H301	H	0.987613	-0.460596	-0.917500
H302	H	1.320946	-0.127262	-0.584166
H303	H	1.654279	0.206071	-0.250833
H304	H	1.118767	-0.283270	-0.618665
H305	H	1.452101	0.050063	-0.285331
H306	H	1.785434	0.383396	0.048002
H307	H	1.112510	-0.288923	-0.751966
H308	H	1.445843	0.044411	-0.418633
H309	H	1.779176	0.377744	-0.085300
H310	H	1.144086	-0.260273	-1.082267
H311	H	1.477419	0.073061	-0.748934
H312	H	1.810753	0.406394	-0.415601
H313	H	0.938639	-0.446508	-0.625531
H314	H	1.271973	-0.113175	-0.292198
H315	H	1.605306	0.220158	0.041135
