data_functionalizedCrystal
_audit_creation_method	'MofGen! by Chris Wilmer'
_symmetry_space_group_name_H-M	'P1'
_symmetry_Int_Tables_number	1
_symmetry_cell_setting	triclinic
loop_
_symmetry_equiv_pos_as_xyz
  x,y,z
_cell_length_a	10.654550
_cell_length_b	10.654550
_cell_length_c	9.130313
_cell_angle_alpha	90.001595
_cell_angle_beta	90.000276
_cell_angle_gamma	84.484929
loop_
_atom_site_label
_atom_site_type_symbol
_atom_site_fract_x
_atom_site_fract_y
_atom_site_fract_z
O1	O	-1.667839	-0.176399	-0.121680
O2	O	-1.167839	0.323601	0.378320
O3	O	-1.302361	-0.193205	-0.121706
O4	O	-0.802361	0.306795	0.378294
O5	O	-1.493503	-0.002063	-0.121693
O6	O	-0.993503	0.497937	0.378307
O7	O	-1.476697	-0.367541	-0.121692
O8	O	-0.976697	0.132459	0.378308
O9	O	-1.493490	-0.002057	0.121906
O10	O	-0.993490	0.497943	0.621906
O11	O	-1.302348	-0.193199	0.121893
O12	O	-0.802348	0.306801	0.621893
O13	O	-1.667826	-0.176393	0.121919
O14	O	-1.167826	0.323607	0.621919
Cu15	Cu	-1.485086	-0.184796	0.144149
Cu16	Cu	-0.985086	0.315204	0.644149
Cu17	Cu	-1.485101	-0.184802	-0.143935
Cu18	Cu	-0.985101	0.315198	0.356065
O19	O	-1.476684	-0.367535	0.121907
O20	O	-0.976684	0.132465	0.621907
C21	C	-1.255556	-0.191968	0.000090
C22	C	-0.755556	0.308032	0.500090
C23	C	-1.116113	-0.188276	0.000080
C24	C	-0.616113	0.311724	0.500080
C25	C	-1.492263	0.044738	0.000103
C26	C	-0.992263	0.544738	0.500103
C27	C	-1.488571	0.184181	0.000092
C28	C	-0.988571	0.684181	0.500092
C29	C	-1.714631	-0.177630	0.000120
C30	C	-1.214631	0.322370	0.500120
C31	C	-1.854074	-0.181322	0.000121
C32	C	-1.354074	0.318678	0.500121
C33	C	-1.477925	-0.414336	0.000108
C34	C	-0.977925	0.085664	0.500108
C35	C	-1.481616	-0.553779	0.000108
C36	C	-0.981616	-0.053779	0.500108
C37	C	-1.036628	-0.300818	0.000085
C38	C	-0.536628	0.199182	0.500085
C39	C	-0.905607	-0.297341	0.000110
C40	C	-0.405607	0.202659	0.500110
C41	C	-0.933570	-0.068772	0.000121
C42	C	-0.433570	0.431228	0.500121
C43	C	-1.064588	-0.072250	0.000106
C44	C	-0.564588	0.427750	0.500106
N45	N	-1.485084	-0.184790	0.346771
N46	N	-0.985084	0.315210	0.846771
C47	C	-1.483361	0.380719	-0.132683
C48	C	-0.983361	0.880719	0.367317
C49	C	-1.486843	0.249699	-0.132691
C50	C	-0.986843	0.749699	0.367309
C51	C	-1.486830	0.249693	0.132894
C52	C	-0.986830	0.749693	0.632894
C53	C	-1.483357	0.380712	0.132901
C54	C	-0.983357	0.880712	0.632901
N55	N	-1.485113	-0.184798	-0.346558
N56	N	-0.985113	0.315202	0.153442
C57	C	-1.569751	-0.100188	0.423429
C58	C	-1.069751	0.399812	0.923429
C59	C	-1.569763	-0.100189	0.576766
C60	C	-1.069763	0.399811	1.076766
C61	C	-1.400437	-0.269404	0.576774
C62	C	-0.900437	0.230596	1.076774
C63	C	-1.400420	-0.269396	0.423440
C64	C	-0.900420	0.230604	0.923440
H65	H	-0.840894	-0.388984	0.000117
H66	H	-0.340894	0.111016	0.500117
O67	O	-0.877999	0.056369	0.000137
O68	O	-0.377999	0.556369	0.500137
H69	H	-0.773539	0.039883	0.000135
H70	H	-0.273539	0.539883	0.500135
H71	H	-1.129309	0.019401	0.000106
H72	H	-0.629309	0.519401	0.500106
O73	O	-1.481477	0.451380	-0.275900
O74	O	-0.981477	0.951380	0.224100
H75	H	-1.483280	0.383816	-0.368238
H76	H	-0.983280	0.883816	0.131762
O77	O	-1.309138	-0.360670	0.659464
O78	O	-0.809138	0.139330	1.159464
H79	H	-1.323383	-0.346475	0.778967
H80	H	-0.823383	0.153525	1.278967
H81	H	-1.331468	-0.338290	0.361022
H82	H	-0.831468	0.161710	0.861022
H83	H	-1.078574	-0.395294	0.000075
H84	H	-0.578574	0.104706	0.500075
H85	H	-1.488265	0.196373	-0.240823
H86	H	-0.988265	0.696373	0.259177
O87	O	-1.488696	0.179038	0.276117
O88	O	-0.988696	0.679038	0.776117
H89	H	-1.491391	0.076925	0.253806
H90	H	-0.991391	0.576925	0.753806
H91	H	-1.638704	-0.031297	0.639176
H92	H	-1.138704	0.468703	1.139176
H93	H	-1.481940	0.434045	0.241042
H94	H	-0.981940	0.934045	0.741042
H95	H	-1.638687	-0.031295	0.361009
H96	H	-1.138687	0.468705	0.861009
