data_functionalizedCrystal
_audit_creation_method	'MofGen! by Chris Wilmer'
_symmetry_space_group_name_H-M	'P1'
_symmetry_Int_Tables_number	1
_symmetry_cell_setting	triclinic
loop_
_symmetry_equiv_pos_as_xyz
  x,y,z
_cell_length_a	13.032831
_cell_length_b	16.120484
_cell_length_c	16.120256
_cell_angle_alpha	95.616173
_cell_angle_beta	86.057501
_cell_angle_gamma	86.078521
loop_
_atom_site_label
_atom_site_type_symbol
_atom_site_fract_x
_atom_site_fract_y
_atom_site_fract_z
Zn1	Zn	1.523154	-0.519560	-0.651746
Zn2	Zn	1.773154	-0.269560	-0.401746
Zn3	Zn	2.023154	-0.019560	-0.151746
Zn4	Zn	2.273154	0.230440	0.098254
Zn5	Zn	1.523025	-0.652232	-0.519042
Zn6	Zn	1.773025	-0.402232	-0.269042
Zn7	Zn	2.023025	-0.152232	-0.019042
Zn8	Zn	2.273025	0.097768	0.230958
Zn9	Zn	1.359945	-0.495048	-0.494602
Zn10	Zn	1.609945	-0.245048	-0.244602
Zn11	Zn	1.859945	0.004952	0.005398
Zn12	Zn	2.109945	0.254952	0.255398
Zn13	Zn	1.341484	-0.639874	-0.639423
Zn14	Zn	1.591484	-0.389874	-0.389423
Zn15	Zn	1.841484	-0.139874	-0.139423
Zn16	Zn	2.091484	0.110126	0.110577
O17	O	1.436902	-0.576679	-0.576203
O18	O	1.686902	-0.326679	-0.326203
O19	O	1.936902	-0.076679	-0.076203
O20	O	2.186902	0.173321	0.173797
O21	O	1.667417	-0.552590	-0.649529
O22	O	1.917417	-0.302590	-0.399529
O23	O	2.167417	-0.052590	-0.149529
O24	O	2.417417	0.197410	0.100471
O25	O	1.509064	-0.626294	-0.399655
O26	O	1.759064	-0.376294	-0.149655
O27	O	2.009064	-0.126294	0.100345
O28	O	2.259064	0.123706	0.350345
O29	O	1.389375	-0.382166	-0.510377
O30	O	1.639375	-0.132166	-0.260377
O31	O	1.889375	0.117834	-0.010377
O32	O	2.139375	0.367834	0.239623
O33	O	1.667322	-0.650063	-0.552032
O34	O	1.917322	-0.400063	-0.302032
O35	O	2.167322	-0.150063	-0.052032
O36	O	2.417322	0.099937	0.197968
O37	O	1.509284	-0.400175	-0.625830
O38	O	1.759284	-0.150175	-0.375830
O39	O	2.009284	0.099825	-0.125830
O40	O	2.259284	0.349825	0.124170
O41	O	1.389249	-0.510812	-0.381699
O42	O	1.639249	-0.260812	-0.131699
O43	O	1.889249	-0.010812	0.118301
O44	O	2.139249	0.239188	0.368301
O45	O	1.213216	-0.498829	-0.498427
O46	O	1.463216	-0.248829	-0.248427
O47	O	1.713216	0.001171	0.001573
O48	O	1.963216	0.251171	0.251573
O49	O	1.357911	-0.629001	-0.757203
O50	O	1.607911	-0.379001	-0.507203
O51	O	1.857911	-0.129001	-0.257203
O52	O	2.107911	0.120999	-0.007203
O53	O	1.199653	-0.605232	-0.604826
O54	O	1.449653	-0.355232	-0.354826
O55	O	1.699653	-0.105232	-0.104826
O56	O	1.949653	0.144768	0.145174
O57	O	1.491384	-0.540607	-0.766257
O58	O	1.741384	-0.290607	-0.516257
O59	O	1.991384	-0.040607	-0.266257
O60	O	2.241384	0.209393	-0.016257
O61	O	1.491163	-0.766727	-0.540082
O62	O	1.741163	-0.516727	-0.290082
O63	O	1.991163	-0.266727	-0.040082
O64	O	2.241163	-0.016727	0.209918
O65	O	1.357786	-0.757647	-0.628525
O66	O	1.607786	-0.507647	-0.378525
O67	O	1.857786	-0.257647	-0.128525
O68	O	2.107786	-0.007647	0.121475
C69	C	1.169025	-0.548030	-0.547638
C70	C	1.419025	-0.298030	-0.297638
C71	C	1.669025	-0.048030	-0.047638
C72	C	1.919025	0.201970	0.202362
C73	C	1.054423	-0.535795	-0.535438
C74	C	1.304423	-0.285795	-0.285438
C75	C	1.554423	-0.035795	-0.035438
C76	C	1.804423	0.214205	0.214562
C77	C	0.996646	-0.583064	-0.582571
C78	C	1.246646	-0.333064	-0.332571
C79	C	1.496646	-0.083064	-0.082571
C80	C	1.746646	0.166936	0.167429
C81	C	0.878199	-0.570420	-0.569962
C82	C	1.128199	-0.320420	-0.319962
C83	C	1.378199	-0.070420	-0.069962
C84	C	1.628199	0.179580	0.180038
C85	C	1.422484	-0.792303	-0.585639
C86	C	1.672484	-0.542303	-0.335639
C87	C	1.922484	-0.292303	-0.085639
C88	C	2.172484	-0.042303	0.164361
C89	C	1.416408	-0.884559	-0.589714
C90	C	1.666408	-0.634559	-0.339714
C91	C	1.916408	-0.384559	-0.089714
C92	C	2.166408	-0.134559	0.160286
C93	C	1.405320	-1.053474	-0.597171
C94	C	1.655320	-0.803474	-0.347171
C95	C	1.905320	-0.553474	-0.097171
C96	C	2.155320	-0.303474	0.152829
C97	C	1.468667	-1.099062	-0.555269
C98	C	1.718667	-0.849062	-0.305269
C99	C	1.968667	-0.599062	-0.055269
C100	C	2.218667	-0.349062	0.194731
C101	C	1.462498	-1.193053	-0.559418
C102	C	1.712498	-0.943053	-0.309418
C103	C	1.962498	-0.693053	-0.059418
C104	C	2.212498	-0.443053	0.190582
C105	C	1.411488	-0.959476	-0.593023
C106	C	1.661488	-0.709476	-0.343023
C107	C	1.911488	-0.459476	-0.093023
C108	C	2.161488	-0.209476	0.156977
C109	C	1.705825	-0.605439	-0.604881
C110	C	1.955825	-0.355439	-0.354881
C111	C	2.205825	-0.105439	-0.104881
C112	C	2.455825	0.144561	0.145119
C113	C	1.820424	-0.617695	-0.617102
C114	C	2.070424	-0.367695	-0.367102
C115	C	2.320424	-0.117695	-0.117102
C116	C	2.570424	0.132305	0.132898
C117	C	1.422603	-0.586160	-0.792687
C118	C	1.672603	-0.336160	-0.542687
C119	C	1.922603	-0.086160	-0.292687
C120	C	2.172603	0.163840	-0.042687
C121	C	1.416509	-0.590200	-0.884939
C122	C	1.666509	-0.340200	-0.634939
C123	C	1.916509	-0.090200	-0.384939
C124	C	2.166509	0.159800	-0.134939
C125	C	1.451403	-0.360216	-0.566752
C126	C	1.701403	-0.110216	-0.316752
C127	C	1.951403	0.139784	-0.066752
C128	C	2.201403	0.389784	0.183248
C129	C	1.457583	-0.267973	-0.562724
C130	C	1.707583	-0.017973	-0.312724
C131	C	1.957583	0.232027	-0.062724
C132	C	2.207583	0.482027	0.187276
C133	C	1.468678	-0.555587	-1.099424
C134	C	1.718678	-0.305587	-0.849424
C135	C	1.968678	-0.055587	-0.599424
C136	C	2.218678	0.194413	-0.349424
C137	C	1.405352	-0.597538	-1.053835
C138	C	1.655352	-0.347538	-0.803835
C139	C	1.905352	-0.097538	-0.553835
C140	C	2.155352	0.152462	-0.303835
C141	C	1.411562	-0.593454	-0.959853
C142	C	1.661562	-0.343454	-0.709853
C143	C	1.911562	-0.093454	-0.459853
C144	C	2.161562	0.156546	-0.209853
C145	C	1.462470	-0.559671	-1.193415
C146	C	1.712470	-0.309671	-0.943415
C147	C	1.962470	-0.059671	-0.693415
C148	C	2.212470	0.190329	-0.443415
C149	C	1.451209	-0.567181	-0.360566
C150	C	1.701209	-0.317181	-0.110566
C151	C	1.951209	-0.067181	0.139434
C152	C	2.201209	0.182819	0.389434
C153	C	1.457518	-0.562928	-0.268325
C154	C	1.707518	-0.312928	-0.018325
C155	C	1.957518	-0.062928	0.231675
C156	C	2.207518	0.187072	0.481675
H157	H	0.839978	-0.520583	-0.520276
H158	H	1.089978	-0.270583	-0.270276
H159	H	1.339978	-0.020583	-0.020276
H160	H	1.589978	0.229417	0.229724
F161	F	1.545622	-0.504628	-1.058182
F162	F	1.795622	-0.254628	-0.808182
F163	F	2.045622	-0.004628	-0.558182
F164	F	2.295622	0.245372	-0.308182
H165	H	0.858644	-0.667524	-0.666797
H166	H	1.108644	-0.417524	-0.416797
H167	H	1.358644	-0.167524	-0.166797
H168	H	1.608644	0.082476	0.083203
H169	H	1.346467	-0.636516	-1.085388
H170	H	1.596467	-0.386516	-0.835388
H171	H	1.846467	-0.136516	-0.585388
H172	H	2.096467	0.113484	-0.335388
H173	H	1.527533	-1.067502	-0.516280
H174	H	1.777533	-0.817502	-0.266280
H175	H	2.027533	-0.567502	-0.016280
H176	H	2.277533	-0.317502	0.233720
F177	F	1.046604	-0.648199	-0.647514
F178	F	1.296604	-0.398199	-0.397514
F179	F	1.546604	-0.148199	-0.147514
F180	F	1.796604	0.101801	0.102486
H181	H	1.016198	-0.485962	-0.485754
H182	H	1.266198	-0.235962	-0.235754
H183	H	1.516198	0.014038	0.014246
H184	H	1.766198	0.264038	0.264246
H185	H	1.346458	-1.085032	-0.636156
H186	H	1.596458	-0.835032	-0.386156
H187	H	1.846458	-0.585032	-0.136156
H188	H	2.096458	-0.335032	0.113844
