data_functionalizedCrystal
_audit_creation_method	'MofGen! by Chris Wilmer'
_symmetry_space_group_name_H-M	'P1'
_symmetry_Int_Tables_number	1
_symmetry_cell_setting	triclinic
loop_
_symmetry_equiv_pos_as_xyz
  x,y,z
_cell_length_a	15.995292
_cell_length_b	15.995350
_cell_length_c	15.072220
_cell_angle_alpha	89.998899
_cell_angle_beta	89.986330
_cell_angle_gamma	96.519505
loop_
_atom_site_label
_atom_site_type_symbol
_atom_site_fract_x
_atom_site_fract_y
_atom_site_fract_z
O1	O	1.111026	-0.107689	-0.073802
O2	O	1.611026	0.392311	0.426198
O3	O	0.867244	-0.121068	-0.073798
O4	O	1.367244	0.378932	0.426202
O5	O	0.995799	0.007511	-0.073799
O6	O	1.495799	0.507511	0.426201
O7	O	0.982471	-0.236267	-0.073801
O8	O	1.482471	0.263733	0.426199
O9	O	0.995767	0.007503	0.073766
O10	O	1.495767	0.507503	0.573766
O11	O	0.867213	-0.121075	0.073767
O12	O	1.367213	0.378925	0.573767
O13	O	1.110994	-0.107696	0.073763
O14	O	1.610994	0.392304	0.573763
Zn15	Zn	0.989098	-0.114387	0.097194
Zn16	Zn	1.489098	0.385613	0.597194
Zn17	Zn	0.989140	-0.114377	-0.097229
Zn18	Zn	1.489140	0.385623	0.402771
O19	O	0.982440	-0.236275	0.073764
O20	O	1.482440	0.263725	0.573764
C21	C	0.836033	-0.120527	-0.000015
C22	C	1.336033	0.379473	0.499985
C23	C	0.743080	-0.118894	-0.000014
C24	C	1.243080	0.381106	0.499986
C25	C	0.405341	-0.112893	-0.000024
C26	C	0.905341	0.387107	0.499976
C27	C	0.428654	-0.205697	-0.000354
C28	C	0.928654	0.294303	0.499646
C29	C	0.525329	-0.207461	-0.000017
C30	C	1.025329	0.292539	0.499983
C31	C	0.572897	-0.115871	-0.000019
C32	C	1.072897	0.384129	0.499981
C33	C	0.543777	-0.069477	0.084245
C34	C	1.043777	0.430523	0.584245
C35	C	0.446987	-0.068360	0.084312
C36	C	0.946987	0.431640	0.584312
C37	C	0.447168	-0.066457	-0.083497
C38	C	0.947168	0.433543	0.416503
C39	C	0.543660	-0.069896	-0.084607
C40	C	1.043660	0.430104	0.415393
C41	C	0.667593	-0.117549	-0.000014
C42	C	1.167593	0.382451	0.499986
C43	C	0.310646	-0.111212	-0.000023
C44	C	0.810646	0.388788	0.499977
C45	C	0.995232	0.038702	-0.000018
C46	C	1.495232	0.538702	0.499982
C47	C	0.993580	0.131652	-0.000023
C48	C	1.493580	0.631652	0.499977
C49	C	1.142206	-0.108237	-0.000022
C50	C	1.642206	0.391763	0.499978
C51	C	1.235159	-0.109870	-0.000029
C52	C	1.735159	0.390130	0.499971
C53	C	0.983006	-0.267466	-0.000018
C54	C	1.483006	0.232534	0.499982
C55	C	0.984658	-0.360416	-0.000019
C56	C	1.484658	0.139584	0.499981
N57	N	0.989076	-0.114393	0.229883
N58	N	1.489076	0.385607	0.729883
C59	C	0.987648	0.469398	-0.000020
C60	C	1.487648	0.969398	0.499980
C61	C	0.896094	0.421945	-0.000350
C62	C	1.396094	0.921945	0.499650
C63	C	0.897746	0.325255	-0.000017
C64	C	1.397746	0.825255	0.499983
C65	C	0.990591	0.301838	-0.000022
C66	C	1.490591	0.801838	0.499978
C67	C	1.035730	0.342921	0.084242
C68	C	1.535730	0.842921	0.584242
C69	C	1.033430	0.439556	0.084313
C70	C	1.533430	0.939556	0.584313
C71	C	1.035358	0.439923	-0.083496
C72	C	1.535358	0.939923	0.416504
C73	C	1.035336	0.342978	-0.084610
C74	C	1.535336	0.842978	0.415390
C75	C	0.992259	0.207141	-0.000021
C76	C	1.492259	0.707141	0.499979
C77	C	0.985983	0.564095	-0.000016
C78	C	1.485983	1.064095	0.499984
N79	N	0.989169	-0.114365	-0.229918
N80	N	1.489169	0.385635	0.270082
C81	C	0.989139	-0.114374	0.589085
C82	C	1.489139	0.385626	1.089085
C83	C	0.920120	-0.182943	0.551478
C84	C	1.420120	0.317057	1.051478
C85	C	0.920279	-0.183193	0.448653
C86	C	1.420279	0.316807	0.948653
C87	C	0.989107	-0.114383	0.410880
C88	C	1.489107	0.385617	0.910880
C89	C	1.076474	-0.133447	0.448170
C90	C	1.576474	0.366553	0.948170
C91	C	1.076087	-0.133934	0.551028
C92	C	1.576087	0.366066	1.051028
C93	C	0.971569	-0.026538	0.551186
C94	C	1.471569	0.473462	1.051186
C95	C	0.969564	-0.027124	0.448322
C96	C	1.469564	0.472876	0.948322
C97	C	0.989094	-0.114387	0.310167
C98	C	1.489094	0.385613	0.810167
C99	C	0.989157	-0.114372	0.689798
C100	C	1.489157	0.385628	1.189798
H101	H	0.400671	-0.241465	-0.060784
H102	H	0.900671	0.258535	0.439216
Br103	Br	0.838604	0.277871	-0.100695
Br104	Br	1.338604	0.777871	0.399305
Br105	Br	0.838157	0.278786	0.100831
Br106	Br	1.338157	0.778786	0.600831
H107	H	0.905296	-0.012657	0.423951
H108	H	1.405296	0.487343	0.923951
H109	H	0.432436	-0.000316	0.088138
H110	H	0.932436	0.499684	0.588138
H111	H	0.399622	-0.241273	0.059736
H112	H	0.899622	0.258727	0.559736
H113	H	1.000488	0.457848	0.147305
H114	H	1.500488	0.957848	0.647305
Br115	Br	1.102902	-0.238995	0.405221
Br116	Br	1.602902	0.261005	0.905221
H117	H	0.418854	-0.095461	-0.147365
H118	H	0.918854	0.404539	0.352635
Br119	Br	0.983435	0.295605	0.188767
Br120	Br	1.483435	0.795605	0.688767
H121	H	0.543720	-0.244020	0.060489
H122	H	1.043720	0.255980	0.560489
Br123	Br	0.596878	0.042863	0.089464
Br124	Br	1.096878	0.542863	0.589464
H125	H	0.909244	-0.008203	0.577177
H126	H	1.409244	0.491797	1.077177
H127	H	0.420156	-0.100496	0.147302
H128	H	0.920156	0.399504	0.647302
Br129	Br	1.055457	0.058510	0.591714
Br130	Br	1.555457	0.558510	1.091714
Br131	Br	0.811521	-0.164316	0.592724
Br132	Br	1.311521	0.335684	1.092724
H133	H	0.544369	-0.243790	-0.060423
H134	H	1.044369	0.256210	0.439577
Br135	Br	0.938939	-0.291846	0.407618
Br136	Br	1.438939	0.208154	0.907618
H137	H	0.576631	-0.003044	-0.089698
H138	H	1.076631	0.496956	0.410302
H139	H	0.563823	-0.101701	0.146956
H140	H	1.063823	0.398299	0.646956
Br141	Br	1.148187	0.317392	-0.093106
Br142	Br	1.648187	0.817392	0.406894
H143	H	0.859650	0.441528	0.059742
H144	H	1.359650	0.941528	0.559742
H145	H	1.005438	0.460459	-0.147364
H146	H	1.505438	0.960459	0.352636
H147	H	0.562243	-0.103675	-0.146945
H148	H	1.062243	0.396325	0.353055
Br149	Br	1.164173	-0.053767	0.592493
Br150	Br	1.664173	0.446233	1.092493
Br151	Br	0.980791	0.297016	-0.188527
Br152	Br	1.480791	0.797016	0.311473
Br153	Br	0.938570	-0.290978	0.594522
Br154	Br	1.438570	0.209022	1.094522
H155	H	1.016568	0.026291	0.422614
H156	H	1.516568	0.526291	0.922614
Br157	Br	1.147866	0.492882	-0.084449
Br158	Br	1.647866	0.992882	0.415551
H159	H	0.859513	0.440472	-0.060777
H160	H	1.359513	0.940472	0.439223
H161	H	0.855337	-0.171838	0.423443
H162	H	1.355337	0.328162	0.923443
H163	H	0.433174	0.001853	-0.084068
H164	H	0.933174	0.501853	0.415932
H165	H	1.100648	0.471818	0.088132
H166	H	1.600648	0.971818	0.588132
Br167	Br	1.149420	0.319406	0.089464
Br168	Br	1.649420	0.819406	0.589464
H169	H	1.091570	-0.197991	0.575009
H170	H	1.591570	0.302009	1.075009
H171	H	1.129060	-0.084832	0.423701
H172	H	1.629060	0.415168	0.923701
