data_functionalizedCrystal
_audit_creation_method	'MofGen! by Chris Wilmer'
_symmetry_space_group_name_H-M	'P1'
_symmetry_Int_Tables_number	1
_symmetry_cell_setting	triclinic
loop_
_symmetry_equiv_pos_as_xyz
  x,y,z
_cell_length_a	15.625950
_cell_length_b	10.540510
_cell_length_c	14.750779
_cell_angle_alpha	77.231938
_cell_angle_beta	120.090508
_cell_angle_gamma	84.371450
loop_
_atom_site_label
_atom_site_type_symbol
_atom_site_fract_x
_atom_site_fract_y
_atom_site_fract_z
O1	O	1.286483	0.039094	0.367843
O2	O	0.999942	0.093169	0.268133
O3	O	1.149765	-0.119429	0.320269
O4	O	1.136660	0.251692	0.315708
O5	O	1.192118	-0.179522	0.494657
O6	O	1.042295	0.033076	0.442521
O7	O	1.328837	-0.020999	0.542232
Zn8	Zn	1.192290	-0.003502	0.520065
Zn9	Zn	1.136488	0.075672	0.290300
O10	O	1.179013	0.191599	0.490096
C11	C	0.984427	0.066624	0.342559
C12	C	0.875099	0.077043	0.304515
C13	C	1.169965	-0.196651	0.407121
C14	C	1.167041	-0.337219	0.406098
C15	C	0.630843	-0.052360	0.654561
C16	C	0.528098	-0.042528	0.618763
C17	C	0.481977	0.022978	0.428670
C18	C	0.584719	0.013158	0.464451
C19	C	0.659145	-0.024513	0.577398
C20	C	0.613022	0.041004	0.387288
C21	C	0.715755	0.031178	0.423067
C22	C	0.790187	-0.006495	0.536009
C23	C	0.761879	-0.034340	0.613177
C24	C	0.538595	0.078666	0.274342
C25	C	0.566897	0.106513	0.197179
C26	C	0.669632	0.096696	0.232957
C27	C	0.744063	0.059023	0.345899
C28	C	0.697940	0.124541	0.155790
C29	C	0.800673	0.114714	0.191569
C30	C	0.846797	0.049196	0.381678
C31	C	1.271220	-0.568332	0.442716
C32	C	1.274240	-0.422004	0.443402
C33	C	1.087981	-0.340535	0.287420
C34	C	1.085605	-0.486963	0.286522
C35	C	1.131536	-0.554818	0.484057
C36	C	1.136939	-0.409589	0.487138
C37	C	1.344351	0.005547	0.467803
C38	C	1.453677	-0.004870	0.505840
C39	C	1.158813	0.268822	0.403241
C40	C	1.161735	0.409393	0.404258
N41	N	1.230381	-0.057539	0.676875
N42	N	1.098405	0.129698	0.133492
C43	C	0.992022	0.280558	0.945749
C44	C	1.018721	0.242700	1.055539
C45	C	1.151418	0.054505	1.101677
C46	C	1.124727	0.092343	0.991888
C47	C	1.045029	0.205371	0.913932
C48	C	1.177734	0.017157	0.960071
C49	C	1.151048	0.054996	0.850293
C50	C	1.071355	0.168022	0.772331
C51	C	1.018343	0.243211	0.804153
C52	C	1.257436	-0.095866	1.038031
C53	C	1.310443	-0.171052	1.006214
C54	C	1.283752	-0.133218	0.896432
C55	C	1.204060	-0.020192	0.818471
C56	C	1.336764	-0.208407	0.864610
C57	C	1.310079	-0.170567	0.754831
C58	C	1.177374	0.017647	0.708692
H59	H	0.907398	0.018541	0.473650
H60	H	1.105028	-0.506398	0.225132
H61	H	0.823716	0.137396	0.128734
H62	H	1.049632	0.198833	0.682945
H63	H	1.300059	-0.374567	0.386922
H64	H	1.279163	-0.126666	1.127419
O65	O	0.409738	0.059357	0.318953
C66	C	0.349292	0.007309	0.149102
C67	C	0.431153	-0.034070	0.273351
H68	H	0.366589	-0.068188	0.112191
H69	H	0.270982	0.009492	0.136715
H70	H	0.349739	0.111331	0.106399
H71	H	0.430799	-0.138102	0.316135
H72	H	0.509425	-0.036158	0.285658
H73	H	0.822480	-0.064995	0.705148
H74	H	1.008164	-0.281620	0.256256
O75	O	1.414056	-0.318320	0.940345
C76	C	1.463956	-0.536672	1.071217
C77	C	1.376327	-0.412291	0.985456
H78	H	1.433489	-0.612669	1.107731
H79	H	1.497260	-0.584027	1.029667
H80	H	1.526019	-0.505352	1.139804
H81	H	1.314200	-0.443500	0.916846
H82	H	1.343106	-0.364965	1.027087
H83	H	0.454944	0.086672	0.245214
H84	H	0.953438	0.335242	0.740674
O85	O	1.387728	-0.280972	1.081946
C86	C	1.437609	-0.499331	1.212801
C87	C	1.349989	-0.374937	1.127047
H88	H	1.407133	-0.575322	1.249307
H89	H	1.470909	-0.546685	1.171248
H90	H	1.499676	-0.468024	1.281396
H91	H	1.287858	-0.406132	1.058429
H92	H	1.316772	-0.327612	1.168681
O93	O	1.111799	-0.279167	0.214669
C94	C	1.067261	-0.213572	0.026207
C95	C	1.040150	-0.283073	0.108469
H96	H	1.009360	-0.216732	-0.059668
H97	H	1.065676	-0.104662	0.024441
H98	H	1.146874	-0.267960	0.052976
H99	H	0.960534	-0.228796	0.081760
H100	H	1.041805	-0.391988	0.110224
H101	H	1.353244	-0.231791	0.728928
O102	O	1.228755	-0.055423	1.177278
C103	C	1.293023	-0.294333	1.230419
C104	C	1.205385	-0.169939	1.144707
H105	H	1.274150	-0.386955	1.204129
H106	H	1.366772	-0.279747	1.236293
H107	H	1.302999	-0.308395	1.314343
H108	H	1.195315	-0.155805	1.060738
H109	H	1.131683	-0.184582	1.138929
H110	H	0.506288	0.137179	0.105217
H111	H	1.183935	-0.627436	0.571396
O112	O	0.914603	0.390423	0.870162
C113	C	0.785743	0.573063	0.835952
C114	C	0.873407	0.448696	0.921669
H115	H	0.752396	0.620197	0.877557
H116	H	0.816155	0.649234	0.799507
H117	H	0.723728	0.541766	0.767305
H118	H	0.935454	0.479868	0.990379
H119	H	0.842918	0.372556	0.958027
H120	H	1.330328	-0.640321	0.528664
H121	H	1.295496	-0.592761	0.386153
O122	O	0.500776	-0.069568	0.693871
C123	C	0.557378	-0.135678	0.886214
C124	C	0.588458	-0.105057	0.801276
H125	H	0.628253	-0.164405	0.973070
H126	H	0.502096	-0.042955	0.871386
H127	H	0.518772	-0.222441	0.877060
H128	H	0.627106	-0.018335	0.810380
H129	H	0.643694	-0.197849	0.816128
H130	H	0.873838	-0.014496	0.565138
O131	O	1.346178	-0.423223	0.546446
C132	C	1.474240	-0.558158	0.733395
C133	C	1.392836	-0.556962	0.616730
H134	H	1.511971	-0.666273	0.790257
H135	H	1.534453	-0.508209	0.729836
H136	H	1.436504	-0.500855	0.766478
H137	H	1.430483	-0.614279	0.583578
H138	H	1.332632	-0.606864	0.620358
H139	H	0.691444	-0.083016	0.746532
O140	O	0.625505	0.161163	0.046118
C141	C	0.446805	0.205233	-0.093249
C142	C	0.528728	0.163776	0.030986
H143	H	0.368545	0.207331	-0.105523
H144	H	0.447164	0.309260	-0.136051
H145	H	0.464076	0.129700	-0.130149
H146	H	0.511514	0.239216	0.067982
H147	H	0.528352	0.059717	0.073708
O148	O	1.205847	-0.412103	0.591677
C149	C	1.256192	-0.479896	0.782107
C150	C	1.178089	-0.477175	0.663774
H151	H	1.233767	-0.532477	0.840426
H152	H	1.335293	-0.536458	0.809010
H153	H	1.257302	-0.372666	0.784470
H154	H	1.176888	-0.584356	0.661321
H155	H	1.099027	-0.420538	0.636921
H156	H	1.004331	-0.497989	0.254110
H157	H	1.060136	-0.352429	0.465917
H158	H	1.051213	-0.566745	0.456721
H159	H	1.112469	0.109678	0.645213
H160	H	0.975550	0.303937	1.081435
