data_functionalizedCrystal
_audit_creation_method	'MofGen! by Chris Wilmer'
_symmetry_space_group_name_H-M	'P1'
_symmetry_Int_Tables_number	1
_symmetry_cell_setting	triclinic
loop_
_symmetry_equiv_pos_as_xyz
  x,y,z
_cell_length_a	16.959455
_cell_length_b	16.625545
_cell_length_c	16.959447
_cell_angle_alpha	90.030053
_cell_angle_beta	89.979626
_cell_angle_gamma	89.978943
loop_
_atom_site_label
_atom_site_type_symbol
_atom_site_fract_x
_atom_site_fract_y
_atom_site_fract_z
Zn1	Zn	1.208362	0.321050	-0.447038
Zn2	Zn	1.208275	0.455897	-0.314860
Zn3	Zn	1.076191	0.321075	-0.314861
Zn4	Zn	1.076146	0.455837	-0.446984
O5	O	1.142244	0.388465	-0.380936
O6	O	1.318961	0.338952	-0.429526
O7	O	1.190736	0.438049	-0.204249
O8	O	1.093778	0.208239	-0.332418
O9	O	1.318898	0.438024	-0.332415
O10	O	1.190884	0.208221	-0.429527
O11	O	1.093694	0.338995	-0.204250
O12	O	0.965574	0.338937	-0.332366
O13	O	1.093702	0.437921	-0.557602
O14	O	0.965541	0.437946	-0.429436
O15	O	1.190841	0.338894	-0.557642
O16	O	1.190693	0.568722	-0.332364
O17	O	1.093618	0.568677	-0.429435
C18	C	0.936877	0.388439	-0.380896
C19	C	0.849021	0.388447	-0.380898
C20	C	0.477501	0.440000	-0.330345
C21	C	0.477589	0.336996	-0.431623
C22	C	0.560135	0.336983	-0.431604
C23	C	0.601368	0.388480	-0.380955
C24	C	0.560055	0.439990	-0.330325
C25	C	0.601454	0.285479	-0.482239
C26	C	0.684005	0.285464	-0.482222
C27	C	0.725239	0.336958	-0.431568
C28	C	0.683921	0.388470	-0.380936
C29	C	0.725154	0.439967	-0.330287
C30	C	0.683838	0.491476	-0.279650
C31	C	0.601289	0.491484	-0.279672
C32	C	0.807788	0.336950	-0.431547
C33	C	0.807708	0.439957	-0.330268
C34	C	1.142163	0.597956	-0.380911
C35	C	1.142201	0.687577	-0.380926
C36	C	1.142330	1.015752	-0.381021
C37	C	1.142292	0.924444	-0.380996
C38	C	1.142265	0.851667	-0.380973
C39	C	1.142228	0.760353	-0.380950
C40	C	1.348412	0.388492	-0.380976
C41	C	1.436268	0.388503	-0.380994
C42	C	1.142339	1.178156	-0.380988
C43	C	1.142363	1.088535	-0.381034
C44	C	1.142276	0.388398	-0.587104
C45	C	1.142290	0.388370	-0.674961
C46	C	1.091809	0.439844	-1.046419
C47	C	1.192961	0.336726	-1.046455
C48	C	1.192939	0.336743	-0.963909
C49	C	1.142353	0.388312	-0.922614
C50	C	1.091788	0.439864	-0.963865
C51	C	1.243509	0.285197	-0.922651
C52	C	1.243491	0.285213	-0.840100
C53	C	1.192900	0.336779	-0.798804
C54	C	1.142332	0.388332	-0.840060
C55	C	1.091746	0.439902	-0.798766
C56	C	1.041174	0.491452	-0.840020
C57	C	1.041198	0.491430	-0.922569
C58	C	1.192877	0.336800	-0.716256
C59	C	1.091725	0.439922	-0.716212
C60	C	1.142256	0.388473	-0.175570
C61	C	1.142395	0.388274	-0.087713
H62	H	0.444012	0.295074	-0.472864
H63	H	1.234150	0.294745	-1.080082
C64	C	0.675791	0.183641	-0.582329
C65	C	0.729416	0.228840	-0.537872
H66	H	0.703828	0.148679	-0.616679
H67	H	0.643609	0.218813	-0.612514
H68	H	0.643574	0.152767	-0.547942
H69	H	0.761628	0.259719	-0.572259
H70	H	0.761610	0.193663	-0.507685
H71	H	0.567876	0.243558	-0.523479
H72	H	1.050632	0.481812	-1.080012
C73	C	1.282093	0.148668	-0.948113
C74	C	1.299112	0.228518	-0.968045
H75	H	1.316424	0.113677	-0.976138
H76	H	1.228999	0.136861	-0.961638
H77	H	1.289327	0.141310	-0.893046
H78	H	1.291872	0.235878	-1.023111
H79	H	1.352218	0.240329	-0.954526
H80	H	0.999990	0.533443	-0.806387
C81	C	1.203895	0.228373	-0.623450
C82	C	1.248461	0.280146	-0.670905
H83	H	1.238214	0.193399	-0.595450
H84	H	1.169492	0.197515	-0.655660
H85	H	1.173763	0.259094	-0.587047
H86	H	1.278587	0.249425	-0.707312
H87	H	1.282877	0.311007	-0.638692
H88	H	1.050524	0.481909	-0.682596
C89	C	0.900506	0.548393	-0.319077
C90	C	0.853031	0.496565	-0.274593
H91	H	0.928489	0.583336	-0.284705
H92	H	0.868312	0.579280	-0.353460
H93	H	0.936924	0.517710	-0.349226
H94	H	0.816609	0.527249	-0.244449
H95	H	0.885228	0.465675	-0.240197
C96	C	0.996323	0.537188	-1.049093
C97	C	0.985616	0.548093	-0.967917
H98	H	0.962013	0.572174	-1.077090
H99	H	0.984784	0.483014	-1.062631
H100	H	1.049433	0.548994	-1.062612
H101	H	0.932508	0.536282	-0.954398
H102	H	0.997149	0.602280	-0.954374
H103	H	1.284669	0.243237	-0.806518
C104	C	0.900686	0.325883	-0.537866
C105	C	0.853204	0.280341	-0.487203
H106	H	0.928720	0.290931	-0.572230
H107	H	0.937052	0.356539	-0.507695
H108	H	0.868484	0.361055	-0.568043
H109	H	0.885406	0.245172	-0.457022
H110	H	0.816833	0.249671	-0.517378
H111	H	0.717420	0.533409	-0.238416
C112	C	0.474710	0.537242	-0.234742
C113	C	0.555873	0.548104	-0.224022
H114	H	0.446672	0.572202	-0.200390
H115	H	0.461192	0.483061	-0.223267
H116	H	0.461223	0.549110	-0.287837
H117	H	0.569361	0.536230	-0.170928
H118	H	0.569397	0.602298	-0.235491
H119	H	0.443858	0.481935	-0.289115
