data_functionalizedCrystal
_audit_creation_method	'MofGen! by Chris Wilmer'
_symmetry_space_group_name_H-M	'P1'
_symmetry_Int_Tables_number	1
_symmetry_cell_setting	triclinic
loop_
_symmetry_equiv_pos_as_xyz
  x,y,z
_cell_length_a	6.394989
_cell_length_b	10.654550
_cell_length_c	9.730223
_cell_angle_alpha	89.999957
_cell_angle_beta	90.001437
_cell_angle_gamma	94.508679
loop_
_atom_site_label
_atom_site_type_symbol
_atom_site_fract_x
_atom_site_fract_y
_atom_site_fract_z
O1	O	-0.293441	1.670947	-0.114177
O2	O	-0.321399	1.305765	-0.114202
O3	O	-0.003431	1.493539	-0.114190
O4	O	-0.611409	1.483172	-0.114189
O5	O	-0.003422	1.493527	0.114390
O6	O	-0.321390	1.305752	0.114378
O7	O	-0.293433	1.670934	0.114403
Zn8	Zn	-0.307410	1.488341	0.150682
Zn9	Zn	-0.307421	1.488358	-0.150482
O10	O	-0.611400	1.483160	0.114391
C11	C	-0.319341	1.258939	0.000085
C12	C	-0.313200	1.119430	0.000075
N13	N	-0.307401	1.488339	0.356219
C14	C	-0.500414	1.041927	0.000080
C15	C	-0.494631	0.910845	0.000104
C16	C	-0.114403	0.934782	0.000113
C17	C	-0.120188	1.065861	0.000099
C18	C	0.074425	1.491483	0.000094
C19	C	0.310750	1.485219	0.000093
C20	C	-0.295490	1.717760	0.000113
C21	C	-0.301631	1.857269	0.000113
N22	N	-0.307414	1.488369	-0.356018
C23	C	-0.166665	1.571516	0.428150
C24	C	-0.166665	1.571528	0.572033
C25	C	-0.448157	1.405184	0.572041
C26	C	-0.448144	1.405166	0.428161
H27	H	-0.657577	1.085539	0.000071
H28	H	-0.052063	1.639256	0.630595
H29	H	-0.647080	0.847747	0.000110
H30	H	0.032274	1.128967	0.000099
C31	C	-0.011826	1.662998	0.349019
N32	N	0.104810	1.731901	0.289421
C33	C	-0.602963	1.313697	0.651190
N34	N	-0.719565	1.244786	0.710804
C35	C	-0.603069	1.313720	0.349032
N36	N	-0.719786	1.244865	0.289432
H37	H	0.042741	0.891149	0.000141
