data_functionalizedCrystal
_audit_creation_method	'MofGen! by Chris Wilmer'
_symmetry_space_group_name_H-M	'P1'
_symmetry_Int_Tables_number	1
_symmetry_cell_setting	triclinic
loop_
_symmetry_equiv_pos_as_xyz
  x,y,z
_cell_length_a	12.594516
_cell_length_b	12.594517
_cell_length_c	12.827885
_cell_angle_alpha	90.026059
_cell_angle_beta	89.971077
_cell_angle_gamma	89.986890
loop_
_atom_site_label
_atom_site_type_symbol
_atom_site_fract_x
_atom_site_fract_y
_atom_site_fract_z
Zn1	Zn	-0.423834	-1.627254	-0.591044
Zn2	Zn	-0.601850	-1.627137	-0.416307
Zn3	Zn	-0.423870	-1.449257	-0.416297
Zn4	Zn	-0.601755	-1.449233	-0.590986
O5	O	-0.512828	-1.538220	-0.503659
O6	O	-0.447473	-1.776184	-0.567893
O7	O	-0.578296	-1.603502	-0.270070
O8	O	-0.274920	-1.472927	-0.439498
O9	O	-0.578261	-1.776099	-0.439515
O10	O	-0.274893	-1.603701	-0.567884
O11	O	-0.447535	-1.472814	-0.270062
O12	O	-0.447443	-1.300308	-0.439442
O13	O	-0.578099	-1.472887	-0.737230
O14	O	-0.578134	-1.300291	-0.567785
O15	O	-0.447381	-1.603678	-0.737273
O16	O	-0.750783	-1.603479	-0.439459
O17	O	-0.750714	-1.472774	-0.567795
C18	C	-0.512783	-1.261679	-0.503607
C19	C	-0.512789	-1.143374	-0.503609
C20	C	-0.441603	-1.074099	-0.433931
C21	C	-0.538687	-1.003285	-0.408224
C22	C	-0.415735	-1.003390	-0.529318
C23	C	-0.609924	-1.074117	-0.477852
C24	C	-0.486907	-1.074229	-0.598991
C25	C	-0.584058	-1.003446	-0.573320
C26	C	-0.789369	-1.538140	-0.503644
C27	C	-0.907674	-1.538204	-0.503673
C28	C	-1.047691	-1.467171	-0.573440
C29	C	-0.976788	-1.564206	-0.599086
C30	C	-0.977006	-1.441178	-0.478073
C31	C	-1.047556	-1.635464	-0.529408
C32	C	-1.047780	-1.512371	-0.408350
C33	C	-0.976909	-1.609473	-0.433961
C34	C	-0.235207	-1.538330	-0.503696
C35	C	-0.116901	-1.538376	-0.503712
C36	C	-0.512725	-1.538293	-0.776229
C37	C	-0.512682	-1.538324	-0.892382
C38	C	-0.512852	-0.815841	-0.503692
C39	C	-0.512808	-0.934147	-0.503657
C40	C	-0.447986	-1.603050	-0.944188
C41	C	-0.447939	-1.603084	-1.064238
C42	C	-0.512853	-1.538209	-0.232149
C43	C	-0.512596	-1.538385	-0.115996
H44	H	-0.644335	-0.972618	-0.632265
H45	H	-0.567992	-1.482971	-1.071451
H46	H	-0.392554	-1.658502	-1.108790
H47	H	-0.464971	-1.105414	-0.679608
C48	C	-0.655697	-1.523634	-1.015229
C49	C	-0.587420	-1.463547	-0.952472
H50	H	-0.701844	-1.477468	-1.052317
H51	H	-0.615100	-1.564232	-1.063284
H52	H	-0.696465	-1.569941	-0.972639
H53	H	-0.546646	-1.417246	-0.995063
H54	H	-0.628021	-1.422931	-0.904411
C55	C	-0.485175	-0.898473	-0.260976
C56	C	-0.568205	-0.961206	-0.299351
H57	H	-0.503380	-0.872494	-0.193761
H58	H	-0.422385	-0.939991	-0.256377
H59	H	-0.473462	-0.840378	-0.306760
H60	H	-0.579912	-1.019306	-0.253572
H61	H	-0.631012	-0.919686	-0.303944
H62	H	-1.078768	-1.407102	-0.632468
H63	H	-0.333661	-0.972266	-0.551006
H64	H	-0.381470	-1.105122	-0.374941
H65	H	-0.945608	-1.586135	-0.679715
C66	C	-0.874056	-1.337419	-0.357921
C67	C	-0.935163	-1.330314	-0.448811
H68	H	-0.848222	-1.268975	-0.339868
H69	H	-0.916629	-1.364144	-0.302719
H70	H	-0.815862	-1.383946	-0.369545
H71	H	-0.993362	-1.283793	-0.437184
H72	H	-0.892588	-1.303574	-0.504026
H73	H	-1.078419	-1.717614	-0.551171
H74	H	-0.692033	-1.105056	-0.456038
H75	H	-0.946026	-1.669684	-0.374977
C76	C	-1.201084	-1.484100	-0.300518
C77	C	-1.089919	-1.482733	-0.299538
H78	H	-1.227098	-1.465800	-0.233339
H79	H	-1.226363	-1.434285	-0.350232
H80	H	-1.225180	-1.553151	-0.318630
H81	H	-1.065823	-1.413680	-0.281433
H82	H	-1.064630	-1.532550	-0.249808
C83	C	-0.304986	-1.617752	-0.821324
C84	C	-0.373260	-1.677832	-0.884089
H85	H	-0.258859	-1.663923	-0.784218
H86	H	-0.264206	-1.571460	-0.863901
H87	H	-0.345593	-1.577139	-0.773273
H88	H	-0.332653	-1.718439	-0.932145
H89	H	-0.414044	-1.724142	-0.841508
