data_functionalizedCrystal
_audit_creation_method	'MofGen! by Chris Wilmer'
_symmetry_space_group_name_H-M	'P1'
_symmetry_Int_Tables_number	1
_symmetry_cell_setting	triclinic
loop_
_symmetry_equiv_pos_as_xyz
  x,y,z
_cell_length_a	17.019372
_cell_length_b	17.019294
_cell_length_c	13.330367
_cell_angle_alpha	86.116384
_cell_angle_beta	93.868867
_cell_angle_gamma	83.656821
loop_
_atom_site_label
_atom_site_type_symbol
_atom_site_fract_x
_atom_site_fract_y
_atom_site_fract_z
O1	O	1.046553	0.100471	-0.001769
O2	O	0.816878	0.113292	-0.022703
O3	O	0.938122	-0.007959	-0.001758
O4	O	0.925309	0.221722	-0.022714
O5	O	0.938105	-0.007961	0.165088
O6	O	0.816860	0.113289	0.144143
O7	O	1.046536	0.100468	0.165077
Cu8	Cu	0.931696	0.106879	0.169844
Cu9	Cu	0.931717	0.106882	-0.027470
O10	O	0.925291	0.221719	0.144131
C11	C	0.787481	0.112806	0.058225
C12	C	0.699914	0.111351	0.050792
C13	C	0.204655	0.103095	0.004124
C14	C	0.286934	0.104462	0.011122
C15	C	0.328055	0.105150	0.105569
C16	C	0.286894	0.104463	0.193024
C17	C	0.204618	0.103090	0.186026
C18	C	0.576476	0.109290	0.131249
C19	C	0.658758	0.110666	0.138241
C20	C	0.658792	0.110663	-0.043662
C21	C	0.576514	0.109295	-0.050653
C22	C	0.535361	0.108604	0.036803
C23	C	0.412157	0.106550	0.112724
C24	C	0.451261	0.107198	0.029648
C25	C	0.937627	-0.037349	0.084161
C26	C	0.936169	-0.124917	0.091597
C27	C	0.935496	-0.166051	0.004144
C28	C	0.934121	-0.248331	0.011133
C29	C	0.933425	-0.289475	0.105578
C30	C	0.934096	-0.248335	0.193038
C31	C	0.935465	-0.166057	0.186046
C32	C	0.929285	-0.537904	0.131236
C33	C	0.927918	-0.620188	0.138221
C34	C	0.927941	-0.620178	-0.043684
C35	C	0.929315	-0.537898	-0.050666
C36	C	0.929982	-0.496765	0.036793
C37	C	0.932022	-0.373579	0.112725
C38	C	0.931379	-0.412662	0.029644
C39	C	1.075933	0.100955	0.084146
C40	C	1.163500	0.102410	0.091573
C41	C	0.925786	0.251109	0.058210
C42	C	0.927244	0.338678	0.050768
N43	N	0.931687	0.106876	0.308625
N44	N	0.931732	0.106878	-0.166250
C45	C	0.878028	0.160551	0.771977
C46	C	0.985428	0.053207	0.790493
C47	C	0.985419	0.053204	0.685474
C48	C	0.931714	0.106877	0.623702
C49	C	0.878019	0.160551	0.666948
C50	C	1.039119	-0.000464	0.642220
C51	C	1.039113	-0.000468	0.537195
C52	C	0.985404	0.053201	0.475420
C53	C	0.931705	0.106877	0.518673
C54	C	0.878001	0.160550	0.456900
C55	C	0.824298	0.214223	0.500151
C56	C	0.824310	0.214221	0.605174
C57	C	0.985392	0.053204	0.370398
C58	C	0.877992	0.160551	0.351871
H59	H	0.320382	0.105018	0.269926
H60	H	1.029156	0.009512	0.840792
O61	O	0.703179	0.111388	-0.137985
H62	H	0.767301	0.112448	-0.117256
O63	O	0.820115	0.218442	0.818625
H64	H	0.830095	0.279930	0.794001
O65	O	0.532186	0.108538	-0.152534
H66	H	0.487610	0.161653	-0.165362
H67	H	1.082847	-0.044159	0.692518
O68	O	0.931277	-0.417953	0.214593
H69	H	0.985274	-0.409250	0.262112
O70	O	0.932129	-0.368285	-0.072216
H71	H	0.878131	-0.376975	-0.119741
O72	O	0.766397	0.272111	0.651824
H73	H	0.776373	0.333599	0.627197
H74	H	0.929844	-0.504425	0.202454
O75	O	0.820069	0.218443	0.285245
H76	H	0.782736	0.255765	0.332966
O77	O	1.097022	-0.058363	0.490546
H78	H	1.134362	-0.095688	0.551146
O79	O	1.043303	-0.004680	0.323744
H80	H	1.080647	-0.042003	0.384342
O81	O	0.160315	0.102338	-0.097748
H82	H	0.169028	0.156331	-0.145291
O83	O	0.933350	-0.292719	0.294900
H84	H	0.879866	-0.269848	0.331920
H85	H	0.320440	0.105015	-0.060088
O86	O	0.936200	-0.121692	0.280376
H87	H	0.883081	-0.077119	0.276297
O88	O	0.406911	0.106441	-0.072214
H89	H	0.449349	0.107140	-0.131854
O90	O	0.703117	0.111396	0.240114
H91	H	0.660680	0.110675	0.299754
O92	O	0.532092	0.108558	0.225570
H93	H	0.574509	0.109278	0.292416
O94	O	0.766377	0.272104	0.433507
H95	H	0.776352	0.333598	0.449188
O96	O	0.160221	0.102357	0.280344
H97	H	0.202635	0.103075	0.347194
H98	H	0.445646	0.107112	0.189623
H99	H	0.933575	-0.281819	-0.060080
O100	O	0.936239	-0.121674	-0.097723
H101	H	0.935530	-0.164102	-0.157360
O102	O	0.930049	-0.493518	-0.152533
H103	H	0.929339	-0.535943	-0.212174
H104	H	0.927396	-0.653677	-0.114888
H105	H	0.927347	-0.653685	0.215133
