data_functionalizedCrystal
_audit_creation_method	'MofGen! by Chris Wilmer'
_symmetry_space_group_name_H-M	'P1'
_symmetry_Int_Tables_number	1
_symmetry_cell_setting	triclinic
loop_
_symmetry_equiv_pos_as_xyz
  x,y,z
_cell_length_a	6.817900
_cell_length_b	11.102244
_cell_length_c	11.102193
_cell_angle_alpha	91.948308
_cell_angle_beta	108.604059
_cell_angle_gamma	108.604870
loop_
_atom_site_label
_atom_site_type_symbol
_atom_site_fract_x
_atom_site_fract_y
_atom_site_fract_z
V1	V	-4.111508	-0.175848	-0.396254
O2	O	-4.070548	0.008441	-0.388715
O3	O	-4.088279	-0.348667	-0.393541
O4	O	-4.088283	-0.173147	-0.569076
O5	O	-4.070544	-0.168295	-0.211964
V6	V	-4.588613	-0.153804	-0.374212
O7	O	-4.386847	-0.224202	-0.444605
O8	O	-4.763472	-0.105450	-0.325861
O9	O	-4.388635	0.019015	-0.376925
O10	O	-4.746970	-0.338092	-0.381752
O11	O	-4.746973	-0.161357	-0.558502
O12	O	-4.388632	-0.156505	-0.201390
C13	C	-3.938589	-0.390797	-0.387289
C14	C	-4.001051	-0.532079	-0.386222
C15	C	-3.970229	-0.580311	-0.269342
C16	C	-4.028934	-0.713063	-0.268354
C17	C	-4.149274	-0.749341	-0.501139
C18	C	-4.090584	-0.616591	-0.502125
C19	C	-3.900743	-0.559367	-0.134945
C20	C	-3.959448	-0.692119	-0.133958
C21	C	-3.938592	-0.166901	-0.611200
C22	C	-4.001052	-0.165837	-0.752482
C23	C	-4.121373	-0.398614	-0.788805
C24	C	-4.210868	-0.514497	-0.873339
C25	C	-4.269554	-0.513490	-1.006085
C26	C	-4.238746	-0.396587	-1.054298
C27	C	-4.149251	-0.280703	-0.969764
C28	C	-4.090563	-0.281723	-0.837017
C29	C	-4.028946	-0.047929	-0.933442
C30	C	-3.970244	-0.048934	-0.800695
C31	C	-3.998138	0.068974	-0.981656
C32	C	-3.908626	0.184860	-0.897121
C33	C	-3.849937	0.183848	-0.764368
C34	C	-3.880749	0.066950	-0.716162
C35	C	-4.201668	0.061138	-0.383174
C36	C	-4.118445	0.202419	-0.384249
C37	C	-4.201664	-0.162754	-0.159260
C38	C	-4.118441	-0.163813	-0.017976
H39	H	-4.222177	-0.818166	-0.595502
H40	H	-4.101851	-0.731920	-0.096966
H41	H	-3.715226	-0.506565	-0.088529
H42	H	-4.286563	-0.395777	-1.162389
H43	H	-4.045944	0.069785	-1.089746
H44	H	-3.807429	-0.715137	-0.077229
H45	H	-4.073562	-0.399445	-0.680717
N46	N	-3.753360	0.308843	-0.673197
H47	H	-3.720837	0.290472	-0.581784
H48	H	-3.862477	0.355537	-0.692859
N49	N	-4.031469	-0.507578	-0.073426
H50	H	-3.998417	-0.525231	0.018230
H51	H	-4.194339	-0.551029	-0.123282
H52	H	-3.832954	0.066115	-0.608075
H53	H	-4.235951	-0.609678	-0.834069
N54	N	-4.366076	-0.638470	-1.097272
H55	H	-4.518245	-0.647554	-1.157558
H56	H	-4.376547	-0.712608	-1.046503
H57	H	-3.883565	0.280033	-0.936389
H58	H	-4.115703	-0.577328	-0.597301
