data_functionalizedCrystal
_audit_creation_method	'MofGen! by Chris Wilmer'
_symmetry_space_group_name_H-M	'P1'
_symmetry_Int_Tables_number	1
_symmetry_cell_setting	triclinic
loop_
_symmetry_equiv_pos_as_xyz
  x,y,z
_cell_length_a	6.817900
_cell_length_b	13.563541
_cell_length_c	10.992410
_cell_angle_alpha	107.639355
_cell_angle_beta	108.764651
_cell_angle_gamma	104.704624
loop_
_atom_site_label
_atom_site_type_symbol
_atom_site_fract_x
_atom_site_fract_y
_atom_site_fract_z
V1	V	-4.127880	-0.153615	-0.455052
O2	O	-4.071721	0.007382	-0.390350
O3	O	-4.118857	-0.304593	-0.505837
O4	O	-4.105263	-0.151252	-0.628927
O5	O	-4.085409	-0.147021	-0.266408
V6	V	-4.603065	-0.134358	-0.425942
O7	O	-4.407429	-0.195857	-0.518909
O8	O	-4.773713	-0.092116	-0.362085
O9	O	-4.388882	0.016620	-0.375157
O10	O	-4.776621	-0.295355	-0.490644
O11	O	-4.762933	-0.140953	-0.614586
O12	O	-4.402476	-0.136721	-0.252067
C13	C	-3.972603	-0.341398	-0.512565
C14	C	-4.046684	-0.464825	-0.555247
C15	C	-4.006609	-0.749316	-0.182417
C16	C	-3.936991	-0.633350	-0.142313
C17	C	-3.964411	-0.591213	-0.245543
C18	C	-4.061455	-0.665053	-0.388884
C19	C	-4.131064	-0.781030	-0.428992
C20	C	-4.088866	-0.622927	-0.492117
C21	C	-4.185910	-0.696768	-0.635459
C22	C	-4.255512	-0.812733	-0.675559
C23	C	-4.228092	-0.854870	-0.572329
C24	C	-4.019257	-0.506950	-0.452010
C25	C	-4.143712	-0.538664	-0.698584
C26	C	-4.213330	-0.654630	-0.738689
C27	C	-3.955260	-0.145795	-0.669577
C28	C	-4.018312	-0.144862	-0.812075
C29	C	-3.884681	-0.136362	-1.004185
C30	C	-3.819257	-0.137792	-0.856208
C31	C	-4.226043	-0.254336	-0.927989
C32	C	-4.290270	-0.253367	-1.076212
C33	C	-4.149225	-0.041388	-0.963030
C34	C	-4.078470	-0.040869	-0.813833
C35	C	-4.198479	0.053419	-0.368427
C36	C	-4.103637	0.176844	-0.325755
C37	C	-4.215820	-0.142182	-0.211411
C38	C	-4.132006	-0.143109	-0.068911
H39	H	-4.292350	-0.714767	-0.855399
H40	H	-3.760444	-0.057105	-0.994916
H41	H	-4.220469	-0.039583	-0.780866
H42	H	-3.907713	-0.496787	-0.212880
C43	C	-3.976510	-0.795678	-0.068884
N44	N	-3.953858	-0.830598	0.016636
H45	H	-3.866229	-0.209449	-1.078088
C46	C	-4.362242	-0.893954	-0.833238
N47	N	-4.442632	-0.955129	-0.952003
C48	C	-3.830242	-0.552134	0.015358
N49	N	-3.749832	-0.490960	0.134124
C50	C	-3.750898	-0.237904	-0.858171
N51	N	-3.699416	-0.313316	-0.859655
C52	C	-4.391494	-0.046755	-1.020117
N53	N	-4.573972	-0.050805	-1.063126
H54	H	-3.928029	0.040114	-0.732765
C55	C	-4.305109	-0.982452	-0.616457
N56	N	-4.363273	-1.078553	-0.649697
C57	C	-4.173885	-0.492319	-0.812146
N58	N	-4.196602	-0.457405	-0.897673
H59	H	-3.940243	-0.446840	-0.335300
H60	H	-3.663817	-0.059077	-0.774962
H61	H	-4.377229	-0.263462	-0.902421
H62	H	-4.281543	-0.330389	-1.149788
C63	C	-4.537290	-0.266235	-1.138372
N64	N	-4.723349	-0.275941	-1.185192
H65	H	-4.187133	-0.331546	-0.929756
H66	H	-4.038933	0.041743	-0.953917
