data_functionalizedCrystal
_audit_creation_method	'MofGen! by Chris Wilmer'
_symmetry_space_group_name_H-M	'P1'
_symmetry_Int_Tables_number	1
_symmetry_cell_setting	triclinic
loop_
_symmetry_equiv_pos_as_xyz
  x,y,z
_cell_length_a	12.645331
_cell_length_b	18.101395
_cell_length_c	18.101389
_cell_angle_alpha	90.020787
_cell_angle_beta	90.017243
_cell_angle_gamma	90.030083
loop_
_atom_site_label
_atom_site_type_symbol
_atom_site_fract_x
_atom_site_fract_y
_atom_site_fract_z
Zn1	Zn	1.620576	-0.294899	0.418745
Zn2	Zn	1.620433	-0.418733	0.294907
Zn3	Zn	1.443307	-0.294907	0.294918
Zn4	Zn	1.443230	-0.418701	0.418707
O5	O	1.531886	-0.356810	0.356819
O6	O	1.768904	-0.311335	0.402330
O7	O	1.596909	-0.402324	0.191276
O8	O	1.466914	-0.191273	0.311364
O9	O	1.768799	-0.402316	0.311346
O10	O	1.597152	-0.191267	0.402340
O11	O	1.466775	-0.311350	0.191283
O12	O	1.294950	-0.311319	0.311327
O13	O	1.466783	-0.402261	0.522345
O14	O	1.294893	-0.402269	0.402274
O15	O	1.597078	-0.311304	0.522373
O16	O	1.596834	-0.522361	0.311309
O17	O	1.466645	-0.522338	0.402264
C18	C	1.256457	-0.356792	0.356798
C19	C	1.138627	-0.356803	0.356806
C20	C	0.971063	-0.299323	0.299907
C21	C	1.093622	-0.299471	0.299656
C22	C	1.094083	-0.434813	0.335485
C23	C	0.971485	-0.434499	0.335096
C24	C	0.971473	-0.337014	0.435247
C25	C	1.094080	-0.335271	0.434812
C26	C	1.531745	-0.549220	0.356798
C27	C	1.531781	-0.631535	0.356813
C28	C	1.532013	-0.930625	0.356853
C29	C	1.450292	-0.899316	0.414221
C30	C	1.449903	-0.813698	0.414042
C31	C	1.531898	-0.782243	0.356834
C32	C	1.501656	-0.813385	0.278784
C33	C	1.501129	-0.899030	0.279127
C34	C	1.644156	-0.898973	0.376847
C35	C	1.643497	-0.813322	0.378559
C36	C	1.531835	-0.698383	0.356818
C37	C	1.532074	-1.014485	0.356863
C38	C	1.808392	-0.356828	0.356841
C39	C	1.926222	-0.356836	0.356851
C40	C	1.531938	-0.356778	0.549981
C41	C	1.531960	-0.356764	0.632295
C42	C	1.532058	-0.163648	0.356857
C43	C	1.532131	-0.081334	0.356874
C44	C	1.531896	-0.356788	0.164409
C45	C	1.532079	-0.356593	0.082095
C46	C	1.532000	-0.356707	0.783004
C47	C	1.450035	-0.413923	0.814340
C48	C	1.449737	-0.413722	0.899958
C49	C	1.532039	-0.356651	0.931387
C50	C	1.502140	-0.278556	0.900302
C51	C	1.501523	-0.278919	0.814657
C52	C	1.644079	-0.376891	0.814572
C53	C	1.643500	-0.378581	0.900223
C54	C	1.532063	-0.356615	1.015246
C55	C	1.531974	-0.356737	0.699144
H56	H	0.942841	-0.451310	0.277784
N57	N	1.473634	-0.787263	0.486637
N58	N	1.477405	-0.719356	0.498924
H59	H	1.494166	-0.700688	0.550197
N60	N	1.473810	-0.925116	0.487050
N61	N	1.407094	-0.962380	0.521801
H62	H	1.423720	-0.980608	0.573236
N63	N	1.573950	-0.787824	0.223684
N64	N	1.562321	-0.807040	0.157846
H65	H	1.613378	-0.788986	0.118930
H66	H	1.560023	-0.234744	0.920659
N67	N	1.130672	-0.490003	0.385877
N68	N	1.227590	-0.501540	0.393003
H69	H	1.253435	-0.540516	0.428594
H70	H	1.558070	-0.919743	0.234926
H71	H	1.420549	-0.791997	0.261544
N72	N	1.678294	-0.447148	0.787493
N73	N	1.697633	-0.498406	0.831726
H74	H	1.721786	-0.548028	0.812601
H75	H	1.705142	-0.335216	0.794313
N76	N	0.934133	-0.226528	0.316480
N77	N	0.998808	-0.176271	0.330788
H78	H	0.972720	-0.124858	0.342494
N79	N	1.345633	-0.788045	0.397449
N80	N	1.330051	-0.748619	0.341827
H81	H	1.256405	-0.730493	0.330120
H82	H	1.123741	-0.241623	0.313021
N83	N	1.724209	-0.330134	0.927049
N84	N	1.799525	-0.355428	0.963920
H85	H	1.856528	-0.321208	0.982864
N86	N	1.671784	-0.450682	0.925712
N87	N	1.610139	-0.485827	0.966678
H88	H	1.630111	-0.536749	0.984685
H89	H	0.941820	-0.478801	0.374763
N90	N	1.346447	-0.397328	0.787342
N91	N	1.305204	-0.336146	0.801256
H92	H	1.232047	-0.324422	0.782186
N93	N	0.932724	-0.266906	0.459584
N94	N	0.835526	-0.256847	0.467052
H95	H	0.808158	-0.207331	0.484234
N96	N	1.400525	-0.256747	0.927214
N97	N	1.349951	-0.298584	0.969277
H98	H	1.278182	-0.283185	0.988284
H99	H	1.367674	-0.920900	0.401144
N100	N	0.932357	-0.315549	0.227454
N101	N	0.878658	-0.268712	0.193318
H102	H	0.851317	-0.280172	0.142148
N103	N	1.573168	-0.223596	0.788633
N104	N	1.585471	-0.214006	0.720796
H105	H	1.636065	-0.174932	0.702418
H106	H	0.942475	-0.378905	0.477675
H107	H	1.419609	-0.261841	0.794680
N108	N	1.130348	-0.315906	0.226774
N109	N	1.065435	-0.327308	0.175937
H110	H	1.091370	-0.338918	0.124461
H111	H	1.468401	-0.471623	0.920975
N112	N	1.132446	-0.383995	0.490902
N113	N	1.068812	-0.421280	0.528345
H114	H	1.095889	-0.455695	0.567964
N115	N	1.130610	-0.263252	0.454973
N116	N	1.189237	-0.227873	0.412093
H117	H	1.215043	-0.177009	0.426329
N118	N	1.678740	-0.926021	0.447026
N119	N	1.621147	-0.968960	0.483161
H120	H	1.645561	-0.988065	0.532727
N121	N	1.672098	-0.787783	0.450617
N122	N	1.610578	-0.746842	0.485882
H123	H	1.630774	-0.728801	0.536775
N124	N	1.132546	-0.456259	0.264359
N125	N	1.192750	-0.414225	0.229250
H126	H	1.219914	-0.429367	0.179015
H127	H	1.419154	-0.919070	0.262191
H128	H	1.705042	-0.919219	0.335063
H129	H	1.707604	-0.791906	0.339820
N130	N	1.473173	-0.486806	0.788509
N131	N	1.550338	-0.497435	0.746699
H132	H	1.566684	-0.548911	0.728453
N133	N	1.345562	-0.396921	0.925654
N134	N	1.272853	-0.385302	0.880335
H135	H	1.199274	-0.373436	0.898481
