data_functionalizedCrystal
_audit_creation_method	'MofGen! by Chris Wilmer'
_symmetry_space_group_name_H-M	'P1'
_symmetry_Int_Tables_number	1
_symmetry_cell_setting	triclinic
loop_
_symmetry_equiv_pos_as_xyz
  x,y,z
_cell_length_a	15.944493
_cell_length_b	15.944493
_cell_length_c	12.996460
_cell_angle_alpha	89.999729
_cell_angle_beta	89.994981
_cell_angle_gamma	83.475044
loop_
_atom_site_label
_atom_site_type_symbol
_atom_site_fract_x
_atom_site_fract_y
_atom_site_fract_z
O1	O	1.114533	0.108105	-0.085540
O2	O	0.869974	0.121512	-0.085543
O3	O	0.998957	-0.007471	-0.085550
O4	O	0.985550	0.237088	-0.085533
O5	O	0.998944	-0.007478	0.085584
O6	O	0.869961	0.121505	0.085591
O7	O	1.114520	0.108097	0.085594
Cu8	Cu	0.992239	0.114801	0.101218
Cu9	Cu	0.992255	0.114809	-0.101167
O10	O	0.985536	0.237081	0.085601
C11	C	0.838673	0.120961	0.000023
C12	C	0.745424	0.119318	0.000021
C13	C	0.509649	0.195240	0.000026
C14	C	0.459092	0.154295	0.084405
C15	C	0.574704	0.116273	0.000023
C16	C	0.459110	0.154283	-0.084319
C17	C	0.409795	0.113339	0.000020
C18	C	0.525376	0.075349	0.084472
C19	C	0.525397	0.075349	-0.084328
C20	C	0.474873	0.034346	0.000072
C21	C	0.669704	0.117966	0.000026
C22	C	0.314798	0.111640	0.000025
C23	C	0.998403	-0.038769	0.000013
C24	C	0.996760	-0.132018	-0.000000
C25	C	1.072682	-0.367793	0.000020
C26	C	1.031747	-0.418349	-0.084358
C27	C	0.993716	-0.302738	0.000012
C28	C	1.031715	-0.418333	0.084367
C29	C	0.990781	-0.467647	0.000029
C30	C	0.952801	-0.352066	-0.084435
C31	C	0.952781	-0.352046	0.084365
C32	C	0.911788	-0.402569	-0.000034
C33	C	0.995408	-0.207739	0.000002
C34	C	0.989082	-0.562644	0.000032
C35	C	1.145821	0.108649	0.000026
C36	C	1.239069	0.110292	0.000021
C37	C	0.986091	0.268379	0.000036
C38	C	0.987734	0.361627	0.000043
N39	N	0.992234	0.114794	0.243565
N40	N	0.992267	0.114809	-0.243514
C41	C	0.992254	0.114810	0.663380
C42	C	0.992246	0.114808	0.546575
C43	C	0.992244	0.114803	0.453476
C44	C	0.992235	0.114800	0.336664
H45	H	0.554356	0.042028	-0.155672
H46	H	1.065075	-0.447273	0.155697
O47	O	0.830595	-0.421053	0.000097
C48	C	0.724028	-0.488769	0.089069
C49	C	0.815988	-0.467874	0.089068
H50	H	0.712194	-0.526641	0.160983
H51	H	0.679280	-0.427688	0.088419
H52	H	0.712546	-0.527498	0.017752
H53	H	0.827551	-0.429168	0.160373
H54	H	0.860688	-0.528986	0.089664
H55	H	0.525258	0.263261	0.000109
H56	H	1.140702	-0.352179	-0.000064
H57	H	1.065101	-0.447299	-0.155693
O58	O	0.913121	-0.317549	-0.169610
C59	C	0.870141	-0.190388	-0.265147
C60	C	0.915108	-0.229370	-0.168654
H61	H	0.871716	-0.119087	-0.264395
H62	H	0.903577	-0.218259	-0.336995
H63	H	0.801779	-0.204960	-0.265451
H64	H	0.983470	-0.214811	-0.168250
H65	H	0.881606	-0.201497	-0.096850
H66	H	0.919456	-0.323081	0.155703
O67	O	0.424738	0.194073	-0.169502
C68	C	0.449972	0.269395	-0.325162
C69	C	0.489004	0.224337	-0.228752
H70	H	0.501910	0.293891	-0.373082
H71	H	0.416745	0.223108	-0.372931
H72	H	0.402345	0.324598	-0.300805
H73	H	0.536664	0.169137	-0.253018
H74	H	0.522177	0.270679	-0.181007
O75	O	0.424437	0.194152	0.169401
C76	C	0.326478	0.307570	0.235540
C77	C	0.365639	0.262489	0.139205
H78	H	0.278945	0.362840	0.211161
H79	H	0.293146	0.261307	0.283226
H80	H	0.378405	0.331970	0.283560
H81	H	0.313763	0.238088	0.091106
H82	H	0.398992	0.308784	0.091596
O83	O	0.559893	0.035650	0.169635
C84	C	0.687057	-0.007363	0.265144
C85	C	0.648073	0.037632	0.168668
H86	H	0.758358	-0.005791	0.264383
H87	H	0.659191	0.026056	0.337004
H88	H	0.672481	-0.075723	0.265431
H89	H	0.662636	0.105993	0.168281
H90	H	0.675942	0.004148	0.096851
O91	O	0.456472	-0.046874	0.000302
C92	C	0.469687	-0.180245	0.089433
C93	C	0.490570	-0.088280	0.089307
H94	H	0.497261	-0.213753	0.161375
H95	H	0.398275	-0.180977	0.088822
H96	H	0.498115	-0.214104	0.018144
H97	H	0.462197	-0.054366	0.160584
H98	H	0.561989	-0.087609	0.089865
