data_functionalizedCrystal
_audit_creation_method	'MofGen! by Chris Wilmer'
_symmetry_space_group_name_H-M	'P1'
_symmetry_Int_Tables_number	1
_symmetry_cell_setting	triclinic
loop_
_symmetry_equiv_pos_as_xyz
  x,y,z
_cell_length_a	10.967819
_cell_length_b	9.482900
_cell_length_c	16.992695
_cell_angle_alpha	80.026204
_cell_angle_beta	87.622480
_cell_angle_gamma	111.293645
loop_
_atom_site_label
_atom_site_type_symbol
_atom_site_fract_x
_atom_site_fract_y
_atom_site_fract_z
O1	O	1.751102	0.559604	0.053681
O2	O	1.374623	0.465287	0.073710
O3	O	1.561351	0.512055	-0.050416
O4	O	1.564374	0.512835	0.177807
O5	O	1.523433	0.260765	-0.025105
O6	O	1.336705	0.213997	0.099021
O7	O	1.713183	0.308314	0.078992
Cu8	Cu	1.521482	0.238211	0.091317
Cu9	Cu	1.566325	0.535390	0.061384
O10	O	1.526455	0.261546	0.203117
C11	C	1.307269	0.327518	0.086820
C12	C	1.163065	0.291391	0.088164
C13	C	0.969386	0.368150	0.077046
C14	C	1.118428	0.405480	0.075652
N15	N	1.489951	0.029193	0.112370
C16	C	1.557015	-0.026209	0.067590
C17	C	1.530791	-0.200194	0.085112
C18	C	1.780538	0.446086	0.065882
C19	C	1.924743	0.482223	0.064536
C20	C	1.538509	0.385438	-0.066895
C21	C	1.526923	0.382536	-0.153707
N22	N	1.597865	0.744410	0.040326
C23	C	1.638710	0.410539	-0.206189
C24	C	1.627818	0.407824	-0.287758
C25	C	1.505138	0.377095	-0.316844
C26	C	1.393344	0.349094	-0.264356
C27	C	1.404238	0.351820	-0.182789
C28	C	1.459985	0.365803	-0.559538
C29	C	1.449099	0.363075	-0.641111
C30	C	1.683575	0.421809	-0.664508
C31	C	1.694457	0.424523	-0.582938
C32	C	1.582664	0.396530	-0.530458
N33	N	1.494001	0.374314	-0.400220
N34	N	1.593804	0.399321	-0.447084
C35	C	1.549298	0.388166	0.219596
C36	C	1.560885	0.391078	0.306407
H37	H	0.897267	0.242852	0.088793
H38	H	1.413115	-0.052181	0.163676
H39	H	1.794356	0.449546	-0.559263
Cl40	Cl	1.229760	0.598946	0.057527
H41	H	1.349189	0.338026	-0.664786
Cl42	Cl	1.051735	0.097924	0.106301
H43	H	1.738608	0.435553	-0.182514
Cl44	Cl	1.675328	0.099337	-0.011799
H45	H	1.774590	0.444602	-0.707246
H46	H	1.718846	0.430625	-0.330486
H47	H	1.674696	-0.174223	-0.010990
H48	H	1.368955	0.343009	-0.516818
H49	H	0.996862	0.607521	0.052798
H50	H	1.293456	0.324083	-0.288044
H51	H	1.453950	-0.281564	0.136422
Cl52	Cl	1.263701	0.316619	-0.116812
