data_functionalizedCrystal
_audit_creation_method	'MofGen! by Chris Wilmer'
_symmetry_space_group_name_H-M	'P1'
_symmetry_Int_Tables_number	1
_symmetry_cell_setting	triclinic
loop_
_symmetry_equiv_pos_as_xyz
  x,y,z
_cell_length_a	10.654555
_cell_length_b	14.048226
_cell_length_c	10.654550
_cell_angle_alpha	90.006260
_cell_angle_beta	95.514047
_cell_angle_gamma	89.996201
loop_
_atom_site_label
_atom_site_type_symbol
_atom_site_fract_x
_atom_site_fract_y
_atom_site_fract_z
O1	O	-1.667841	0.079103	0.176432
O2	O	-1.302363	0.079117	0.193231
O3	O	-1.493505	0.079103	0.002092
O4	O	-1.476699	0.079116	0.367570
O5	O	-1.493482	-0.079218	0.002081
O6	O	-1.302340	-0.079204	0.193220
O7	O	-1.667818	-0.079219	0.176420
Zn8	Zn	-1.485075	-0.104348	0.184818
Zn9	Zn	-1.485106	0.104247	0.184833
O10	O	-1.476676	-0.079205	0.367559
C11	C	-1.255554	-0.000042	0.191991
C12	C	-1.116111	-0.000036	0.188296
N13	N	-1.485063	-0.246709	0.184807
C14	C	-0.919578	0.086260	0.183101
C15	C	-1.050600	0.086264	0.186564
C16	C	-1.050594	-0.086347	0.186551
C17	C	-0.919575	-0.086350	0.183079
C18	C	-1.569728	-0.296533	0.100206
C19	C	-1.569736	-0.396191	0.100205
C20	C	-1.485085	-0.446023	0.184813
C21	C	-1.400412	-0.396192	0.269417
C22	C	-1.400398	-0.296536	0.269411
C23	C	-1.400448	-0.603906	0.269427
C24	C	-1.400463	-0.703569	0.269435
C25	C	-1.569786	-0.703561	0.100221
C26	C	-1.569773	-0.603905	0.100215
C27	C	-1.485100	-0.554081	0.184822
C28	C	-0.714627	-0.000055	0.177662
C29	C	-0.854069	-0.000044	0.181360
C30	C	-1.492259	-0.000057	-0.044711
C31	C	-1.488567	-0.000055	-0.184155
N32	N	-1.485127	0.246607	0.184834
C33	C	-1.601109	-0.000059	-0.263638
C34	C	-1.597632	-0.000047	-0.394659
C35	C	-1.369063	-0.000031	-0.366700
C36	C	-1.372541	-0.000036	-0.235682
C37	C	-1.477921	-0.000043	0.414363
C38	C	-1.481613	-0.000038	0.553806
H39	H	-0.866248	0.156536	0.181700
Br40	Br	-1.219795	-0.000018	-0.127801
Br41	Br	-1.139502	0.203396	0.188916
Br42	Br	-1.139500	-0.203470	0.188895
H43	H	-0.866236	-0.156633	0.181660
H44	H	-1.638666	-0.255967	0.031315
H45	H	-1.638676	-0.436757	0.031316
H46	H	-1.695585	-0.000072	-0.221690
Br47	Br	-1.684667	-0.536273	-0.014597
H48	H	-1.638729	-0.744134	0.031332
Br49	Br	-1.750374	-0.000047	-0.502526
H50	H	-1.331530	-0.744137	0.338330
H51	H	-1.274598	-0.000018	-0.408670
H52	H	-1.331494	-0.563342	0.338319
H53	H	-1.331481	-0.436770	0.338302
H54	H	-1.331454	-0.255970	0.338300
