data_functionalizedCrystal
_audit_creation_method	'MofGen! by Chris Wilmer'
_symmetry_space_group_name_H-M	'P1'
_symmetry_Int_Tables_number	1
_symmetry_cell_setting	triclinic
loop_
_symmetry_equiv_pos_as_xyz
  x,y,z
_cell_length_a	18.050591
_cell_length_b	18.050590
_cell_length_c	18.215399
_cell_angle_alpha	89.971265
_cell_angle_beta	89.975463
_cell_angle_gamma	90.015000
loop_
_atom_site_label
_atom_site_type_symbol
_atom_site_fract_x
_atom_site_fract_y
_atom_site_fract_z
Zn1	Zn	1.135377	-0.295737	-0.416204
Zn2	Zn	1.635377	0.204263	0.083796
Zn3	Zn	1.135299	-0.419932	-0.293136
Zn4	Zn	1.635299	0.080068	0.206864
Zn5	Zn	1.011186	-0.295753	-0.293141
Zn6	Zn	1.511186	0.204247	0.206859
Zn7	Zn	1.011166	-0.419882	-0.416151
Zn8	Zn	1.511166	0.080118	0.083849
O9	O	1.073257	-0.357826	-0.354658
O10	O	1.573257	0.142174	0.145342
O11	O	1.239292	-0.312227	-0.399899
O12	O	1.739292	0.187773	0.100101
O13	O	1.118811	-0.403487	-0.190153
O14	O	1.618811	0.096513	0.309847
O15	O	1.027702	-0.191826	-0.309490
O16	O	1.527702	0.308174	0.190510
O17	O	1.239234	-0.403472	-0.309482
O18	O	1.739234	0.096528	0.190518
O19	O	1.118945	-0.191815	-0.399904
O20	O	1.618945	0.308185	0.100096
O21	O	1.027626	-0.312253	-0.190156
O22	O	1.527626	0.187747	0.309844
O23	O	0.907259	-0.312205	-0.309439
O24	O	1.407259	0.187795	0.190561
O25	O	1.027667	-0.403387	-0.519142
O26	O	1.527667	0.096613	-0.019142
O27	O	0.907244	-0.403402	-0.399813
O28	O	1.407244	0.096598	0.100187
O29	O	1.118925	-0.312178	-0.519181
O30	O	1.618925	0.187822	-0.019181
O31	O	1.118791	-0.523850	-0.309430
O32	O	1.618791	-0.023850	0.190570
O33	O	1.027591	-0.523814	-0.399808
O34	O	1.527591	-0.023814	0.100192
C35	C	0.880305	-0.357800	-0.354621
C36	C	1.380305	0.142200	0.145379
C37	C	0.797759	-0.357807	-0.354623
C38	C	1.297759	0.142193	0.145377
C39	C	0.548920	-0.308162	-0.305594
C40	C	1.048920	0.191838	0.194406
C41	C	0.598355	-0.290075	-0.372757
C42	C	1.098355	0.209925	0.127243
C43	C	0.500639	-0.357845	-0.354683
C44	C	1.000639	0.142155	0.145317
C45	C	0.598286	-0.375878	-0.287494
C46	C	1.098286	0.124122	0.212506
C47	C	0.646624	-0.357824	-0.354650
C48	C	1.146624	0.142176	0.145350
C49	C	0.548986	-0.339722	-0.421882
C50	C	1.048986	0.160278	0.078118
C51	C	0.548913	-0.425557	-0.336575
C52	C	1.048913	0.074443	0.163425
C53	C	0.598325	-0.407496	-0.403784
C54	C	1.098325	0.092504	0.096216
C55	C	0.416540	-0.357855	-0.354701
C56	C	0.916540	0.142145	0.145299
C57	C	0.730720	-0.357815	-0.354640
C58	C	1.230720	0.142185	0.145360
C59	C	1.073200	-0.550778	-0.354629
C60	C	1.573200	-0.050778	0.145371
C61	C	1.073243	-0.633324	-0.354641
C62	C	1.573243	-0.133324	0.145359
C63	C	1.122941	-0.832768	-0.305562
C64	C	1.622941	-0.332768	0.194438
C65	C	1.141082	-0.882101	-0.372730
C66	C	1.641082	-0.382101	0.127270
C67	C	1.073286	-0.784455	-0.354670
C68	C	1.573286	-0.284455	0.145330
C69	C	1.055220	-0.882203	-0.287532
C70	C	1.555220	-0.382203	0.212468
C71	C	1.073328	-0.930440	-0.354693
C72	C	1.573328	-0.430440	0.145307
C73	C	1.091462	-0.832701	-0.421874
C74	C	1.591462	-0.332701	0.078126
C75	C	1.005568	-0.832798	-0.336631
C76	C	1.505568	-0.332798	0.163369
C77	C	1.023683	-0.882109	-0.403845
C78	C	1.523683	-0.382109	0.096155
C79	C	1.073263	-0.700356	-0.354656
C80	C	1.573263	-0.200356	0.145344
C81	C	1.073350	-1.014536	-0.354714
C82	C	1.573350	-0.514536	0.145286
C83	C	1.266963	-0.357853	-0.354696
C84	C	1.766963	0.142147	0.145304
C85	C	1.349508	-0.357865	-0.354712
C86	C	1.849508	0.142135	0.145288
C87	C	1.073302	-0.357775	-0.546611
C88	C	1.573302	0.142225	-0.046611
C89	C	1.073322	-0.357753	-0.628410
C90	C	1.573322	0.142247	-0.128410
C91	C	1.073335	-0.164121	-0.354704
C92	C	1.573335	0.335879	0.145296
C93	C	1.073368	-0.081575	-0.354723
C94	C	1.573368	0.418425	0.145277
C95	C	1.120857	-0.310216	-0.816626
C96	C	1.620857	0.189784	-0.316626
C97	C	1.120865	-0.310195	-0.893485
C98	C	1.620865	0.189805	-0.393485
C99	C	1.025839	-0.405175	-0.893433
C100	C	1.525839	0.094825	-0.393433
C101	C	1.025827	-0.405193	-0.816575
C102	C	1.525827	0.094807	-0.316575
C103	C	1.073340	-0.357714	-0.778174
C104	C	1.573340	0.142286	-0.278174
C105	C	1.073361	-0.357675	-0.931890
C106	C	1.573361	0.142325	-0.431890
C107	C	1.073370	-0.357652	-1.015224
C108	C	1.573370	0.142348	-0.515224
C109	C	1.073330	-0.357736	-0.694835
C110	C	1.573330	0.142264	-0.194835
C111	C	1.073255	-0.357824	-0.163452
C112	C	1.573255	0.142176	0.336548
C113	C	1.073379	-0.357636	-0.081654
C114	C	1.573379	0.142364	0.418346
H115	H	0.619944	-0.391140	-0.230688
H116	H	1.119944	0.108860	0.269312
O117	O	0.624145	-0.221701	-0.390999
O118	O	1.124145	0.278299	0.109001
C119	C	0.593213	-0.096153	-0.423915
C120	C	1.093213	0.403847	0.076085
C121	C	0.563909	-0.173547	-0.403255
C122	C	1.063909	0.326453	0.096745
H123	H	0.544527	-0.057204	-0.433845
H124	H	1.044527	0.442796	0.066155
H125	H	0.628795	-0.073700	-0.377260
H126	H	1.128795	0.426300	0.122740
H127	H	0.628019	-0.100277	-0.475991
H128	H	1.128019	0.399723	0.024009
H129	H	0.529072	-0.169486	-0.351199
H130	H	1.029072	0.330514	0.148801
H131	H	0.528368	-0.195972	-0.449953
H132	H	1.028368	0.304028	0.050047
H133	H	1.164947	-0.811102	-0.264075
H134	H	1.664947	-0.311102	0.235925
H135	H	1.159543	-0.271555	-0.785362
H136	H	1.659543	0.228445	-0.285362
O137	O	0.624172	-0.457600	-0.453290
O138	O	1.124172	0.042400	0.046710
C139	C	0.731453	-0.514218	-0.508509
C140	C	1.231453	-0.014218	-0.008509
C141	C	0.702279	-0.457469	-0.452403
C142	C	1.202279	0.042531	0.047597
H143	H	0.794606	-0.514120	-0.507822
H144	H	1.294606	-0.014120	-0.007822
H145	H	0.710296	-0.571804	-0.493580
H146	H	1.210296	-0.071804	0.006420
H147	H	0.711046	-0.498704	-0.565705
H148	H	1.211046	0.001296	-0.065705
H149	H	0.722674	-0.472914	-0.395188
H150	H	1.222674	0.027086	0.104812
H151	H	0.723430	-0.399898	-0.467395
H152	H	1.223430	0.100102	0.032605
H153	H	1.159557	-0.271516	-0.924789
H154	H	1.659557	0.228484	-0.424789
H155	H	0.527180	-0.482813	-0.321247
H156	H	1.027180	0.017187	0.178753
H157	H	0.527420	-0.324394	-0.478705
H158	H	1.027420	0.175606	0.021295
H159	H	0.987157	-0.443832	-0.924708
H160	H	1.487157	0.056168	-0.424708
O161	O	0.973617	-0.907924	-0.453399
O162	O	1.473617	-0.407924	0.046601
C163	C	0.917052	-1.015169	-0.508701
C164	C	1.417052	-0.515169	-0.008701
C165	C	0.973759	-0.986032	-0.452542
C166	C	1.473759	-0.486032	0.047458
H167	H	0.917159	-1.078322	-0.508038
H168	H	1.417159	-0.578322	-0.008038
H169	H	0.859453	-0.994070	-0.493807
H170	H	1.359453	-0.494070	0.006193
H171	H	0.932603	-0.994676	-0.565878
H172	H	1.432603	-0.494676	-0.065878
H173	H	0.958277	-1.006513	-0.395346
H174	H	1.458277	-0.506513	0.104654
H175	H	1.031343	-1.007125	-0.467499
H176	H	1.531343	-0.507125	0.032501
O177	O	0.979644	-0.451406	-0.779332
O178	O	1.479644	0.048594	-0.279332
C179	C	0.885361	-0.545582	-0.787384
C180	C	1.385361	-0.045582	-0.287384
C181	C	0.937636	-0.493301	-0.829654
C182	C	1.437636	0.006699	-0.329654
H183	H	0.851373	-0.579456	-0.828051
H184	H	1.351373	-0.079456	-0.328051
H185	H	0.919403	-0.584474	-0.751420
H186	H	1.419403	-0.084474	-0.251420
H187	H	0.846569	-0.511476	-0.751381
H188	H	1.346569	-0.011476	-0.251381
H189	H	0.976439	-0.527347	-0.865697
H190	H	1.476439	-0.027347	-0.365697
H191	H	0.903548	-0.454407	-0.865572
H192	H	1.403548	0.045593	-0.365572
O193	O	0.937190	-0.807024	-0.318475
O194	O	1.437190	-0.307024	0.181525
C195	C	0.807340	-0.803919	-0.348968
C196	C	1.307340	-0.303919	0.151032
C197	C	0.884732	-0.833173	-0.369613
C198	C	1.384732	-0.333173	0.130387
H199	H	0.764909	-0.825035	-0.390310
H200	H	1.264909	-0.325035	0.109690
H201	H	0.791939	-0.824244	-0.291692
H202	H	1.291939	-0.324244	0.208308
H203	H	0.807889	-0.740767	-0.349642
H204	H	1.307889	-0.240767	0.150358
H205	H	0.884242	-0.896323	-0.368982
H206	H	1.384242	-0.396323	0.131018
H207	H	0.900103	-0.812791	-0.426877
H208	H	1.400103	-0.312791	0.073123
H209	H	0.527230	-0.266125	-0.264145
H210	H	1.027230	0.233875	0.235855
H211	H	1.106702	-0.811049	-0.478710
H212	H	1.606702	-0.311049	0.021290
O213	O	1.036876	-0.908230	-0.219844
O214	O	1.536876	-0.408230	0.280156
C215	C	0.951118	-0.980581	-0.148072
C216	C	1.451118	-0.480581	0.351928
C217	C	0.971808	-0.951172	-0.224772
C218	C	1.471808	-0.451172	0.275228
H219	H	0.898501	-1.015293	-0.152028
H220	H	1.398501	-0.515293	0.347972
H221	H	0.998219	-1.016254	-0.125982
H222	H	1.498219	-0.516254	0.374018
H223	H	0.941293	-0.931916	-0.109410
H224	H	1.441293	-0.431916	0.390590
H225	H	0.981622	-0.999791	-0.263489
H226	H	1.481622	-0.499791	0.236511
H227	H	0.924696	-0.915477	-0.246802
H228	H	1.424696	-0.415477	0.253198
H229	H	1.198368	-0.903760	-0.388003
H230	H	1.698368	-0.403760	0.111997
