data_functionalizedCrystal
_audit_creation_method	'MofGen! by Chris Wilmer'
_symmetry_space_group_name_H-M	'P1'
_symmetry_Int_Tables_number	1
_symmetry_cell_setting	triclinic
loop_
_symmetry_equiv_pos_as_xyz
  x,y,z
_cell_length_a	16.109301
_cell_length_b	15.021413
_cell_length_c	16.109301
_cell_angle_alpha	90.002593
_cell_angle_beta	96.538519
_cell_angle_gamma	90.004594
loop_
_atom_site_label
_atom_site_type_symbol
_atom_site_fract_x
_atom_site_fract_y
_atom_site_fract_z
O1	O	1.103137	0.073979	-0.106856
O2	O	1.436470	0.407312	0.226477
O3	O	1.769803	0.740645	0.559811
O4	O	0.861075	0.073993	-0.120155
O5	O	1.194408	0.407326	0.213178
O6	O	1.527741	0.740660	0.546511
O7	O	0.988755	0.073976	0.007525
O8	O	1.322089	0.407310	0.340859
O9	O	1.655422	0.740643	0.674192
O10	O	0.975456	0.073995	-0.234537
O11	O	1.308789	0.407329	0.098797
O12	O	1.642123	0.740662	0.432130
O13	O	0.988735	-0.074088	0.007507
O14	O	1.322068	0.259246	0.340840
O15	O	1.655402	0.592579	0.674174
O16	O	0.861054	-0.074071	-0.120174
O17	O	1.194388	0.259262	0.213160
O18	O	1.527721	0.592596	0.546493
O19	O	1.103116	-0.074086	-0.106874
O20	O	1.436450	0.259248	0.226459
O21	O	1.769783	0.592581	0.559792
Zn22	Zn	0.982082	-0.097587	-0.113527
Zn23	Zn	1.315415	0.235747	0.219806
Zn24	Zn	1.648749	0.569080	0.553140
Zn25	Zn	0.982109	0.097494	-0.113503
Zn26	Zn	1.315442	0.430828	0.219831
Zn27	Zn	1.648775	0.764161	0.553164
O28	O	0.975436	-0.074069	-0.234555
O29	O	1.308769	0.259264	0.098778
O30	O	1.642102	0.592598	0.432112
C31	C	0.830090	-0.000037	-0.119626
C32	C	1.163423	0.333296	0.213708
C33	C	1.496756	0.666629	0.547041
C34	C	0.737794	-0.000032	-0.118011
C35	C	1.071128	0.333301	0.215323
C36	C	1.404461	0.666635	0.548656
N37	N	0.982070	-0.230724	-0.113543
N38	N	1.315403	0.102609	0.219791
N39	N	1.648736	0.435942	0.553124
C40	C	0.515522	-0.000037	-0.190018
C41	C	0.848855	0.333297	0.143315
C42	C	1.182188	0.666630	0.476648
C43	C	0.428801	-0.000043	-0.188494
C44	C	0.762135	0.333291	0.144839
C45	C	1.095468	0.666624	0.478172
C46	C	0.448676	-0.000051	-0.037006
C47	C	0.782009	0.333283	0.296328
C48	C	1.115342	0.666616	0.629661
C49	C	0.535394	-0.000051	-0.038530
C50	C	0.868728	0.333282	0.294803
C51	C	1.202061	0.666615	0.628136
C52	C	0.568815	-0.000040	-0.115039
C53	C	0.902148	0.333294	0.218294
C54	C	1.235482	0.666627	0.551627
C55	C	0.395376	-0.000045	-0.111990
C56	C	0.728709	0.333288	0.221343
C57	C	1.062042	0.666622	0.554676
C58	C	0.301350	-0.000051	-0.110337
C59	C	0.634683	0.333282	0.222996
C60	C	0.968016	0.666615	0.556329
C61	C	0.662847	-0.000035	-0.116693
C62	C	0.996180	0.333298	0.216641
C63	C	1.329514	0.666632	0.549974
C64	C	0.923021	-0.470400	-0.172554
C65	C	1.256355	-0.137067	0.160779
C66	C	1.589688	0.196267	0.494112
C67	C	0.998143	-0.529737	-0.188671
C68	C	1.331476	-0.196404	0.144663
C69	C	1.664810	0.136929	0.477996
C70	C	0.982091	-0.412331	-0.113522
C71	C	1.315424	-0.078998	0.219811
C72	C	1.648758	0.254335	0.553145
C73	C	0.906990	-0.529735	-0.097424
C74	C	1.240323	-0.196402	0.235909
C75	C	1.573656	0.136931	0.569242
C76	C	0.982105	-0.587755	-0.113504
C77	C	1.315438	-0.254422	0.219830
C78	C	1.648772	0.078911	0.553163
C79	C	1.057251	-0.470362	-0.129676
C80	C	1.390584	-0.137029	0.203658
C81	C	1.723917	0.196304	0.536991
C82	C	0.966048	-0.470355	-0.038396
C83	C	1.299381	-0.137022	0.294937
C84	C	1.632715	0.196312	0.628270
C85	C	1.041224	-0.529666	-0.054481
C86	C	1.374557	-0.196333	0.278853
C87	C	1.707891	0.137001	0.612186
C88	C	0.982082	-0.311274	-0.113535
C89	C	1.315415	0.022059	0.219799
C90	C	1.648749	0.355393	0.553132
C91	C	0.982123	-0.688811	-0.113491
C92	C	1.315456	-0.355477	0.219843
C93	C	1.648789	-0.022144	0.553176
C94	C	1.134101	-0.000053	-0.107404
C95	C	1.467435	0.333280	0.225929
C96	C	1.800768	0.666613	0.559263
C97	C	1.226397	-0.000053	-0.109019
C98	C	1.559730	0.333281	0.224314
C99	C	1.893063	0.666614	0.557648
C100	C	0.988206	-0.000056	0.038491
C101	C	1.321540	0.333277	0.371824
C102	C	1.654873	0.666611	0.705158
C103	C	0.986591	-0.000057	0.130786
C104	C	1.319925	0.333276	0.464120
C105	C	1.653258	0.666609	0.797453
N106	N	0.982128	0.230632	-0.113480
N107	N	1.315461	0.563965	0.219853
N108	N	1.648794	0.897299	0.553186
C109	C	0.975984	-0.000034	-0.265521
C110	C	1.309318	0.333299	0.067813
C111	C	1.642651	0.666632	0.401146
C112	C	0.977600	-0.000027	-0.357816
C113	C	1.310933	0.333306	-0.024483
C114	C	1.644266	0.666639	0.308851
C115	C	1.058599	-0.000048	0.353059
C116	C	1.391932	0.333286	0.686392
C117	C	1.725266	0.666619	1.019725
C118	C	1.057075	-0.000040	0.439779
C119	C	1.390408	0.333293	0.773112
C120	C	1.723742	0.666627	1.106446
C121	C	0.905586	-0.000035	0.419905
C122	C	1.238919	0.333299	0.753238
C123	C	1.572253	0.666632	1.086571
C124	C	0.907111	-0.000036	0.333186
C125	C	1.240444	0.333298	0.666519
C126	C	1.573778	0.666631	0.999853
C127	C	0.983620	-0.000047	0.299766
C128	C	1.316953	0.333287	0.633099
C129	C	1.650287	0.666620	0.966432
C130	C	0.980571	-0.000038	0.473205
C131	C	1.313904	0.333295	0.806538
C132	C	1.647238	0.666629	1.139871
C133	C	0.978918	-0.000030	0.567231
C134	C	1.312251	0.333303	0.900564
C135	C	1.645585	0.666637	1.233897
C136	C	0.985273	-0.000053	0.205734
C137	C	1.318607	0.333280	0.539067
C138	C	1.651940	0.666614	0.872400
H139	H	0.542730	-0.000034	-0.252317
H140	H	0.876063	0.333299	0.081017
H141	H	1.209396	0.666633	0.414350
H142	H	0.578788	-0.000056	0.022530
H143	H	0.912122	0.333277	0.355864
H144	H	1.245455	0.666610	0.689197
O145	O	0.856919	-0.435916	-0.238727
O146	O	1.190253	-0.102582	0.094606
O147	O	1.523586	0.230751	0.427940
H148	H	0.870449	-0.459699	-0.301021
H149	H	1.203783	-0.126366	0.032312
H150	H	1.537116	0.206967	0.365646
H151	H	1.118130	-0.000039	0.483168
H152	H	1.451464	0.333294	0.816501
H153	H	1.784797	0.666628	1.149834
H154	H	0.843295	-0.000027	0.447127
H155	H	1.176628	0.333306	0.780460
H156	H	1.509962	0.666639	1.113793
O157	O	1.016110	-0.564344	-0.272802
O158	O	1.349444	-0.231011	0.060531
O159	O	1.682777	0.102322	0.393864
H160	H	0.966979	-0.540633	-0.321706
H161	H	1.300313	-0.207299	0.011628
H162	H	1.633646	0.126034	0.344961
O163	O	0.826232	-0.000041	0.275703
O164	O	1.159566	0.333293	0.609037
O165	O	1.492899	0.666626	0.942370
H166	H	0.823305	0.060312	0.235727
H167	H	1.156639	0.393645	0.569060
H168	H	1.489972	0.726978	0.902393
O169	O	0.948029	-0.435777	0.045723
O170	O	1.281362	-0.102444	0.379057
O171	O	1.614696	0.230889	0.712390
H172	H	1.001627	-0.395132	0.073640
H173	H	1.334960	-0.061799	0.406974
H174	H	1.668293	0.271535	0.740307
H175	H	0.421454	-0.000065	0.025285
H176	H	0.754787	0.333268	0.358619
H177	H	1.088121	0.666601	0.691952
H178	H	1.120782	-0.444392	-0.143359
H179	H	1.454115	-0.111058	0.189974
H180	H	1.787449	0.222275	0.523307
H181	H	1.091238	-0.555525	-0.004548
H182	H	1.424571	-0.222191	0.328785
H183	H	1.757905	0.111142	0.662119
H184	H	0.843472	-0.555818	-0.083817
H185	H	1.176806	-0.222485	0.249516
H186	H	1.510139	0.110849	0.582850
O187	O	0.371318	-0.000037	-0.269364
O188	O	0.704651	0.333297	0.063970
O189	O	1.037984	0.666630	0.397303
H190	H	0.409130	-0.000023	-0.322817
H191	H	0.742463	0.333310	0.010516
H192	H	1.075796	0.666643	0.343849
O193	O	1.141114	-0.000041	0.317007
O194	O	1.474448	0.333292	0.650341
O195	O	1.807781	0.666625	0.983674
H196	H	1.192995	-0.000029	0.368638
H197	H	1.526329	0.333304	0.701972
H198	H	1.859662	0.666638	1.035305
