data_functionalizedCrystal
_audit_creation_method	'MofGen! by Chris Wilmer'
_symmetry_space_group_name_H-M	'P1'
_symmetry_Int_Tables_number	1
_symmetry_cell_setting	triclinic
loop_
_symmetry_equiv_pos_as_xyz
  x,y,z
_cell_length_a	18.050589
_cell_length_b	19.805407
_cell_length_c	19.805399
_cell_angle_alpha	90.016886
_cell_angle_beta	89.976299
_cell_angle_gamma	89.971779
loop_
_atom_site_label
_atom_site_type_symbol
_atom_site_fract_x
_atom_site_fract_y
_atom_site_fract_z
Zn1	Zn	-0.295666	-1.034709	-0.382745
Zn2	Zn	-0.419862	-1.034626	-0.269567
Zn3	Zn	-0.295690	-0.921529	-0.269569
Zn4	Zn	-0.419819	-0.921484	-0.382713
O5	O	-0.357759	-0.978087	-0.326148
O6	O	-0.312149	-1.129415	-0.367743
O7	O	-0.403418	-1.019607	-0.174850
O8	O	-0.191762	-0.936597	-0.284596
O9	O	-0.403395	-1.129353	-0.284592
O10	O	-0.191745	-1.019750	-0.367746
O11	O	-0.312189	-0.936516	-0.174852
O12	O	-0.312148	-0.826807	-0.284566
O13	O	-0.403322	-0.936519	-0.477434
O14	O	-0.403345	-0.826773	-0.367693
O15	O	-0.312108	-1.019706	-0.477457
O16	O	-0.523781	-1.019563	-0.284562
O17	O	-0.523749	-0.936438	-0.367690
C18	C	-0.357745	-0.802231	-0.326127
C19	C	-0.357757	-0.726999	-0.326133
C20	C	-0.550711	-0.978005	-0.326137
C21	C	-0.633257	-0.978032	-0.326155
C22	C	-0.357708	-0.978117	-0.502691
C23	C	-0.357686	-0.978129	-0.577923
C24	C	-0.832718	-0.932873	-0.371344
C25	C	-0.882158	-0.916378	-0.309581
C26	C	-0.784387	-0.978099	-0.326164
C27	C	-0.882029	-0.994627	-0.387934
C28	C	-0.930373	-0.978162	-0.326178
C29	C	-0.832741	-0.961571	-0.264368
C30	C	-0.832607	-1.039849	-0.342762
C31	C	-0.882025	-1.023377	-0.280957
C32	C	-0.700289	-0.978061	-0.326157
C33	C	-1.014469	-0.978200	-0.326178
C34	C	-0.164054	-0.978187	-0.326175
C35	C	-0.081508	-0.978230	-0.326186
C36	C	-0.357774	-1.154630	-0.326171
C37	C	-0.357780	-1.229862	-0.326180
C38	C	-0.405315	-0.691655	-0.369347
C39	C	-0.405316	-0.620967	-0.369357
C40	C	-0.357763	-0.585623	-0.326148
C41	C	-0.310200	-0.620972	-0.282933
C42	C	-0.310195	-0.691659	-0.282927
C43	C	-0.310216	-0.335899	-0.282955
C44	C	-0.310226	-0.265207	-0.282962
C45	C	-0.405337	-0.265206	-0.369385
C46	C	-0.405332	-0.335893	-0.369379
C47	C	-0.357767	-0.371236	-0.326166
C48	C	-0.357765	-0.447884	-0.326157
C49	C	-0.357768	-0.508976	-0.326153
C50	C	-0.310179	-0.934876	-0.613268
C51	C	-0.310164	-0.934885	-0.683956
C52	C	-0.357654	-0.978152	-0.719299
C53	C	-0.405166	-1.021407	-0.683949
C54	C	-0.405184	-1.021394	-0.613262
C55	C	-0.405096	-1.021461	-0.969023
C56	C	-0.405074	-1.021472	-1.039715
C57	C	-0.310077	-0.934952	-1.039717
C58	C	-0.310095	-0.934939	-0.969030
C59	C	-0.357609	-0.978191	-0.933686
C60	C	-0.357626	-0.978180	-0.857038
C61	C	-0.357634	-0.978167	-0.795946
C62	C	-0.357757	-0.978096	-0.150292
C63	C	-0.357570	-0.978215	-0.075061
H64	H	-0.903940	-0.864187	-0.295555
H65	H	-0.271482	-0.899661	-0.712731
H66	H	-0.271421	-0.899709	-0.940257
N67	N	-0.453910	-0.584879	-0.413497
N68	N	-0.522430	-0.592751	-0.408894
H69	H	-0.556753	-0.567266	-0.440071
H70	H	-0.444041	-0.720427	-0.404530
H71	H	-0.811180	-0.947556	-0.212121
N72	N	-0.453917	-0.371984	-0.413515
N73	N	-0.496376	-0.340419	-0.452097
H74	H	-0.530689	-0.365906	-0.483271
N75	N	-0.261544	-0.890774	-1.075831
N76	N	-0.261531	-0.890789	-1.138944
H77	H	-0.227254	-0.859591	-1.164449
N78	N	-0.909010	-1.071387	-0.232974
N79	N	-0.893067	-1.065223	-0.171872
H80	H	-0.912126	-1.099127	-0.137982
N81	N	-0.453586	-1.065679	-1.075807
N82	N	-0.496004	-1.104296	-1.044244
H83	H	-0.530262	-1.135518	-1.069734
N84	N	-0.805290	-1.105308	-0.360401
N85	N	-0.821028	-1.130482	-0.416468
H86	H	-0.801735	-1.176713	-0.428933
H87	H	-0.443794	-1.056672	-0.940255
H88	H	-0.903679	-1.008582	-0.440167
N89	N	-0.453922	-0.229093	-0.413523
N90	N	-0.453923	-0.165980	-0.413525
H91	H	-0.488237	-0.140476	-0.444694
H92	H	-0.443836	-1.056632	-0.712731
N93	N	-0.261645	-0.229114	-0.238818
N94	N	-0.219180	-0.260676	-0.200239
H95	H	-0.184872	-0.235186	-0.169062
H96	H	-0.271491	-0.364666	-0.247763
H97	H	-0.271478	-0.592190	-0.247754
N98	N	-0.261656	-0.890692	-0.577167
N99	N	-0.193127	-0.895223	-0.585075
H100	H	-0.158856	-0.864018	-0.559580
H101	H	-0.443863	-1.056621	-0.584486
N102	N	-0.261604	-0.727754	-0.238787
N103	N	-0.219145	-0.696192	-0.200214
H104	H	-0.184822	-0.721682	-0.169041
H105	H	-0.811067	-0.894571	-0.409498
