data_functionalizedCrystal
_audit_creation_method	'MofGen! by Chris Wilmer'
_symmetry_space_group_name_H-M	'P1'
_symmetry_Int_Tables_number	1
_symmetry_cell_setting	triclinic
loop_
_symmetry_equiv_pos_as_xyz
  x,y,z
_cell_length_a	14.044209
_cell_length_b	14.519709
_cell_length_c	13.596369
_cell_angle_alpha	89.999684
_cell_angle_beta	89.997124
_cell_angle_gamma	88.434049
loop_
_atom_site_label
_atom_site_type_symbol
_atom_site_fract_x
_atom_site_fract_y
_atom_site_fract_z
O1	O	-0.124265	-1.233892	0.081669
O2	O	0.209068	-0.900559	0.415002
O3	O	0.542402	-0.567226	0.748336
O4	O	-0.138899	-0.966596	0.081700
O5	O	0.194434	-0.633262	0.415033
O6	O	0.527767	-0.299929	0.748366
O7	O	0.006409	-1.096233	0.081671
O8	O	0.339743	-0.762900	0.415004
O9	O	0.673076	-0.429566	0.748337
O10	O	-0.269574	-1.104255	0.081698
O11	O	0.063760	-0.770922	0.415031
O12	O	0.397093	-0.437588	0.748365
O13	O	0.006401	-1.096216	-0.081912
O14	O	0.339735	-0.762883	0.251421
O15	O	0.673068	-0.429550	0.584755
O16	O	-0.138907	-0.966579	-0.081883
O17	O	0.194426	-0.633246	0.251450
O18	O	0.527759	-0.299912	0.584783
O19	O	-0.124273	-1.233876	-0.081914
O20	O	0.209060	-0.900542	0.251419
O21	O	0.542394	-0.567209	0.584753
Zn22	Zn	-0.131591	-1.100225	-0.107871
Zn23	Zn	0.201742	-0.766891	0.225462
Zn24	Zn	0.535075	-0.433558	0.558796
Zn25	Zn	-0.131581	-1.100247	0.107657
Zn26	Zn	0.201752	-0.766913	0.440990
Zn27	Zn	0.535086	-0.433580	0.774323
O28	O	-0.269582	-1.104238	-0.081885
O29	O	0.063752	-0.770905	0.251448
O30	O	0.397085	-0.437572	0.584782
C31	C	0.041726	-1.092712	-0.000122
C32	C	0.375059	-0.759379	0.333212
C33	C	0.708392	-0.426046	0.666545
C34	C	0.146969	-1.082236	-0.000125
C35	C	0.480303	-0.748903	0.333208
C36	C	0.813636	-0.415569	0.666542
C37	C	-0.138221	-0.932173	-0.000088
C38	C	0.195112	-0.598839	0.333245
C39	C	0.528445	-0.265506	0.666579
C40	C	-0.136178	-0.829626	-0.000077
C41	C	0.197156	-0.496293	0.333257
C42	C	0.530489	-0.162960	0.666590
C43	C	-0.124951	-1.268299	-0.000124
C44	C	0.208382	-0.934965	0.333209
C45	C	0.541716	-0.601632	0.666543
C46	C	-0.126995	-1.370845	-0.000129
C47	C	0.206339	-1.037511	0.333204
C48	C	0.539672	-0.704178	0.666538
C49	C	0.339664	-1.063083	-0.000115
C50	C	0.672997	-0.729750	0.333219
C51	C	1.006330	-0.396417	0.666552
C52	C	0.397171	-1.137392	-0.000122
C53	C	0.730504	-0.804058	0.333211
C54	C	1.063837	-0.470725	0.666545
C55	C	0.504392	-1.126735	-0.000116
C56	C	0.837726	-0.793401	0.333217
C57	C	1.171059	-0.460068	0.666551
C58	C	0.232432	-1.073739	-0.000120
C59	C	0.565765	-0.740405	0.333213
C60	C	0.899099	-0.407072	0.666546
C61	C	0.695102	-1.107761	-0.000098
C62	C	1.028435	-0.774427	0.333235
C63	C	1.361769	-0.441094	0.666569
C64	C	0.589859	-1.118243	-0.000112
C65	C	0.923193	-0.784910	0.333222
C66	C	1.256526	-0.451576	0.666555
C67	C	-0.128654	-0.454124	-0.000122
C68	C	0.204680	-0.120790	0.333211
C69	C	0.538013	0.212543	0.666544
C70	C	-0.130743	-0.558600	-0.000109
C71	C	0.202590	-0.225267	0.333224
C72	C	0.535924	0.108066	0.666557
C73	C	-0.132415	-0.641872	-0.000099
C74	C	0.200918	-0.308538	0.333235
C75	C	0.534251	0.024795	0.666568
C76	C	-0.134505	-0.746355	-0.000087
C77	C	0.198828	-0.413022	0.333246
C78	C	0.532161	-0.079688	0.666579
N79	N	-0.131598	-1.100216	-0.254963
N80	N	0.201735	-0.766883	0.078371
N81	N	0.535069	-0.433550	0.411704
C82	C	-0.131600	-1.100221	-0.343961
C83	C	0.201733	-0.766888	-0.010627
C84	C	0.535066	-0.433554	0.322706
C85	C	-0.131594	-1.100229	-0.455612
C86	C	0.201740	-0.766896	-0.122279
C87	C	0.535073	-0.433563	0.211055
C88	C	-0.131583	-1.100241	-0.544603
C89	C	0.201750	-0.766907	-0.211269
C90	C	0.535084	-0.433574	0.122064
C91	C	-0.131577	-1.100251	-0.656261
C92	C	0.201756	-0.766917	-0.322928
C93	C	0.535089	-0.433584	0.010406
N94	N	-0.131567	-1.100262	0.254748
N95	N	0.201767	-0.766928	0.588082
N96	N	0.535100	-0.433595	0.921415
H97	H	0.365878	-1.209013	-0.000063
H98	H	0.699212	-0.875680	0.333270
H99	H	1.032545	-0.542346	0.666604
C100	C	0.381937	-0.966332	-0.000118
C101	C	0.715270	-0.632999	0.333215
C102	C	1.048603	-0.299665	0.666549
N103	N	0.413788	-0.893460	-0.000128
N104	N	0.747121	-0.560127	0.333205
N105	N	1.080455	-0.226793	0.666538
