data_functionalizedCrystal
_audit_creation_method	'MofGen! by Chris Wilmer'
_symmetry_space_group_name_H-M	'P1'
_symmetry_Int_Tables_number	1
_symmetry_cell_setting	triclinic
loop_
_symmetry_equiv_pos_as_xyz
  x,y,z
_cell_length_a	42.784839
_cell_length_b	42.784841
_cell_length_c	42.784893
_cell_angle_alpha	90.002418
_cell_angle_beta	59.997780
_cell_angle_gamma	119.999863
loop_
_atom_site_label
_atom_site_type_symbol
_atom_site_fract_x
_atom_site_fract_y
_atom_site_fract_z
O1	O	0.275695	-0.214412	-0.009300
O2	O	0.211692	-0.168961	0.009253
O3	O	0.275692	-0.168961	-0.054750
O4	O	0.211694	-0.214412	0.054702
O5	O	0.223708	-0.220945	-0.054749
O6	O	0.159708	-0.220945	0.009253
O7	O	0.223710	-0.266397	-0.009300
Zn8	Zn	0.183455	-0.251924	-0.000023
Zn9	Zn	0.251947	-0.183433	-0.000024
O10	O	0.159710	-0.266396	0.054703
C11	C	0.051021	-0.022778	0.028112
C12	C	0.013142	-0.041761	0.028375
C13	C	0.051018	-0.079378	0.028116
C14	C	0.013139	-0.098275	0.028379
C15	C	-0.005578	-0.079377	0.028112
C16	C	0.069652	-0.041762	0.028379
C17	C	0.152948	0.113708	0.017863
C18	C	0.173786	0.152360	0.014965
C19	C	0.155902	0.171750	0.013509
C20	C	0.178499	0.213661	0.010359
C21	C	0.117177	0.152485	0.014953
C22	C	0.096339	0.113835	0.017857
C23	C	0.114226	0.094447	0.019312
C24	C	-0.131813	-0.113936	0.017859
C25	C	-0.167567	-0.131750	0.014961
C26	C	-0.185502	-0.169024	0.013506
C27	C	-0.224264	-0.188340	0.010358
C28	C	-0.167685	-0.188485	0.014954
C29	C	-0.131938	-0.170675	0.017859
C30	C	-0.114002	-0.133396	0.019309
C31	C	0.152939	-0.113943	0.017877
C32	C	0.173778	-0.131757	0.014977
C33	C	0.155892	-0.169032	0.013523
C34	C	0.178486	-0.188349	0.010377
C35	C	0.117170	-0.188491	0.014967
C36	C	0.096334	-0.170675	0.017865
C37	C	0.114220	-0.133401	0.019323
C38	C	0.091629	0.052537	0.022456
C39	C	0.073617	0.019131	0.024964
C40	C	0.073613	-0.098693	0.024971
C41	C	0.091623	-0.114089	0.022466
C42	C	-0.044339	-0.098690	0.024964
C43	C	-0.075237	-0.114084	0.022456
O44	O	-0.327856	-0.266388	-0.009322
O45	O	-0.236954	-0.220935	0.009228
O46	O	-0.236950	-0.220939	-0.054773
O47	O	-0.327860	-0.266385	0.054680
O48	O	-0.236948	-0.168954	-0.054776
O49	O	-0.236952	-0.168950	0.009225
O50	O	-0.327854	-0.214403	-0.009325
Zn51	Zn	-0.282403	-0.183423	-0.000050
Zn52	Zn	-0.282405	-0.251916	-0.000046
O53	O	-0.327858	-0.214400	0.054676
C54	C	0.384390	-0.079141	-0.361606
C55	C	0.422270	-0.041526	-0.380503
C56	C	0.384390	-0.079141	-0.305008
C57	C	0.422270	-0.041526	-0.323990
C58	C	0.440988	-0.022543	-0.361606
C59	C	0.365758	-0.098038	-0.323991
C60	C	0.282465	-0.170819	-0.396168
C61	C	0.261627	-0.188759	-0.413983
C62	C	0.279513	-0.169420	-0.451257
C63	C	0.256917	-0.188867	-0.470572
C64	C	0.318239	-0.132140	-0.470717
C65	C	0.339076	-0.114205	-0.452905
C66	C	0.321187	-0.133546	-0.415628
C67	C	0.567227	0.113942	-0.453282
C68	C	0.602981	0.152594	-0.471222
C69	C	0.620916	0.171985	-0.451883
C70	C	0.659678	0.213894	-0.471328
C71	C	0.603097	0.152719	-0.414603
C72	C	0.567349	0.114068	-0.396667
C73	C	0.549414	0.094682	-0.416011
C74	C	0.282465	-0.170819	-0.168522
C75	C	0.261624	-0.188757	-0.129868
C76	C	0.279510	-0.169418	-0.110479
C77	C	0.256914	-0.188865	-0.068568
C78	C	0.318233	-0.132140	-0.129742
C79	C	0.339070	-0.114203	-0.168394
C80	C	0.321184	-0.133548	-0.187782
C81	C	0.343783	-0.114094	-0.396315
C82	C	0.361794	-0.098590	-0.380920
C83	C	0.361794	-0.098590	-0.263099
C84	C	0.343783	-0.114094	-0.229693
C85	C	0.479750	0.019366	-0.381054
C86	C	0.510649	0.052771	-0.396557
C87	C	0.440758	-0.356212	-0.028193
C88	C	0.422041	-0.393827	-0.028459
C89	C	0.384158	-0.356213	-0.028190
C90	C	0.365526	-0.393828	-0.028456
C91	C	0.384160	-0.412810	-0.028193
C92	C	0.422038	-0.337315	-0.028456
C93	C	0.567000	-0.264532	-0.017949
C94	C	0.602755	-0.246591	-0.015053
C95	C	0.620692	-0.265931	-0.013601
C96	C	0.659455	-0.246483	-0.010453
C97	C	0.602873	-0.303210	-0.015048
C98	C	0.567125	-0.321146	-0.017949
C99	C	0.549188	-0.301805	-0.019399
C100	C	0.339356	-0.549295	-0.017951
C101	C	0.318645	-0.587947	-0.015055
C102	C	0.279915	-0.607338	-0.013597
C103	C	0.257452	-0.649247	-0.010452
C104	C	0.261899	-0.588073	-0.015042
C105	C	0.282613	-0.549422	-0.017945
C106	C	0.321343	-0.530035	-0.019397
C107	C	0.339344	-0.264537	-0.017936
C108	C	0.318628	-0.246599	-0.015032
C109	C	0.279898	-0.265939	-0.013577
C110	C	0.257433	-0.246493	-0.010426
C111	C	0.261884	-0.303217	-0.015022
C112	C	0.282601	-0.321153	-0.017924
C113	C	0.321334	-0.301808	-0.019385
C114	C	0.510421	-0.321258	-0.022542
C115	C	0.479522	-0.336762	-0.025048
C116	C	0.361696	-0.336765	-0.025041
C117	C	0.343793	-0.321261	-0.022532
C118	C	0.361701	-0.454719	-0.025047
C119	C	0.343799	-0.488125	-0.022541
O120	O	0.223728	0.336934	-0.009323
O121	O	0.159726	0.227482	0.009227
O122	O	0.223729	0.291478	-0.054775
O123	O	0.159725	0.272938	0.054678
O124	O	0.275711	0.291477	-0.054771
O125	O	0.211707	0.227481	0.009230
O126	O	0.275710	0.336932	-0.009320
Zn127	Zn	0.251962	0.282206	-0.000045
Zn128	Zn	0.183474	0.282208	-0.000049
O129	O	0.211707	0.272936	0.054681
O130	O	0.763271	0.337164	-0.496871
O131	O	0.672367	0.227713	-0.451422
O132	O	0.672365	0.291711	-0.451418
O133	O	0.763273	0.273165	-0.496876
O134	O	0.672366	0.291712	-0.503402
O135	O	0.672368	0.227714	-0.503407
O136	O	0.763272	0.337165	-0.548856
Zn137	Zn	0.717820	0.282440	-0.534385
Zn138	Zn	0.717819	0.282438	-0.465893
O139	O	0.763275	0.273167	-0.548860
O140	O	0.211690	-0.214417	-0.548617
O141	O	0.275691	-0.168962	-0.503167
O142	O	0.211689	-0.168964	-0.503163
O143	O	0.275692	-0.214415	-0.548621
O144	O	0.159706	-0.220947	-0.451179
O145	O	0.223708	-0.220945	-0.451183
O146	O	0.159707	-0.266400	-0.496633
Zn147	Zn	0.183454	-0.251926	-0.465654
Zn148	Zn	0.251944	-0.183436	-0.534146
O149	O	0.223709	-0.266398	-0.496637
C150	C	-0.005343	-0.412572	0.361558
C151	C	0.013375	-0.393590	0.380456
C152	C	0.051255	-0.355974	0.304961
C153	C	0.069887	-0.337077	0.323944
C154	C	0.051254	-0.355974	0.361560
C155	C	0.013375	-0.393589	0.323943
C156	C	-0.131582	-0.549057	0.396116
C157	C	-0.167336	-0.587709	0.413930
C158	C	-0.185271	-0.607098	0.451205
C159	C	-0.224034	-0.649009	0.470519
C160	C	-0.167452	-0.587833	0.470666
C161	C	-0.131705	-0.549184	0.452854
C162	C	-0.113770	-0.529796	0.415578
C163	C	0.096061	-0.321414	0.453239
C164	C	0.116773	-0.303600	0.471179
C165	C	0.155502	-0.266327	0.451842
C166	C	0.177965	-0.247011	0.471288
C167	C	0.173517	-0.246866	0.414562
C168	C	0.152802	-0.264677	0.396625
C169	C	0.114073	-0.301955	0.415968
C170	C	0.096064	-0.321412	0.168474
C171	C	0.116779	-0.303599	0.129820
C172	C	0.155508	-0.266324	0.110432
C173	C	0.177972	-0.247009	0.068521
C174	C	0.173522	-0.246865	0.129696
C175	C	0.152807	-0.264680	0.168348
C176	C	0.114075	-0.301953	0.187735
C177	C	-0.075004	-0.487887	0.396265
C178	C	-0.044106	-0.454481	0.380871
C179	C	0.073715	-0.336660	0.263052
C180	C	0.091618	-0.321265	0.229646
C181	C	0.073714	-0.336661	0.381009
C182	C	0.091616	-0.321267	0.396513
C183	C	0.051046	-0.022794	-0.361634
C184	C	0.069679	-0.041778	-0.380530
C185	C	-0.005555	-0.079390	-0.305034
C186	C	0.013163	-0.098288	-0.324016
C187	C	0.051045	-0.079393	-0.361631
C188	C	0.013164	-0.041775	-0.324018
C189	C	0.095858	0.113693	-0.396200
C190	C	0.116571	0.152344	-0.414015
C191	C	0.155302	0.171732	-0.451290
C192	C	0.177767	0.213642	-0.470607
C193	C	0.173317	0.152465	-0.470750
C194	C	0.152600	0.113815	-0.452936
C195	C	0.113869	0.094429	-0.415659
C196	C	0.152973	-0.113959	-0.453306
C197	C	0.173810	-0.131775	-0.471245
C198	C	0.155926	-0.169048	-0.451906
C199	C	0.178519	-0.188366	-0.471350
C200	C	0.117198	-0.188507	-0.414626
C201	C	0.096358	-0.170694	-0.396690
C202	C	0.114251	-0.133416	-0.416035
C203	C	-0.131801	-0.113944	-0.168548
C204	C	-0.167554	-0.131755	-0.129895
C205	C	-0.185491	-0.169029	-0.110504
C206	C	-0.224255	-0.188343	-0.068593
C207	C	-0.167671	-0.188490	-0.129767
C208	C	-0.131918	-0.170677	-0.168418
C209	C	-0.113988	-0.133404	-0.187808
C210	C	0.091411	0.052521	-0.396344
C211	C	0.073508	0.019115	-0.380949
C212	C	-0.044320	-0.098701	-0.263125
C213	C	-0.075220	-0.114094	-0.229719
C214	C	0.073641	-0.098707	-0.381079
C215	C	0.091652	-0.114103	-0.396582
C216	C	-0.615853	-0.356193	0.361535
C217	C	-0.634487	-0.393808	0.380433
C218	C	-0.559253	-0.356195	0.304938
C219	C	-0.577972	-0.393810	0.323921
C220	C	-0.615854	-0.412792	0.361537
C221	C	-0.577972	-0.337297	0.323920
C222	C	-0.660661	-0.264512	0.396093
C223	C	-0.681373	-0.246571	0.413906
C224	C	-0.720104	-0.265909	0.451181
C225	C	-0.742568	-0.246461	0.470495
C226	C	-0.738120	-0.303189	0.470643
C227	C	-0.717405	-0.321125	0.452831
C228	C	-0.678674	-0.301785	0.415554
C229	C	-0.717784	-0.549275	0.453218
C230	C	-0.738622	-0.587926	0.471159
C231	C	-0.720740	-0.607319	0.451822
C232	C	-0.743333	-0.649227	0.471268
C233	C	-0.682012	-0.588055	0.414542
C234	C	-0.661170	-0.549403	0.396604
C235	C	-0.679063	-0.530016	0.415946
C236	C	-0.433006	-0.264522	0.168449
C237	C	-0.397253	-0.246585	0.129796
C238	C	-0.379317	-0.265926	0.110407
C239	C	-0.340553	-0.246480	0.068496
C240	C	-0.397138	-0.303204	0.129672
C241	C	-0.432891	-0.321139	0.168324
C242	C	-0.450820	-0.301793	0.187711
C243	C	-0.656216	-0.321238	0.396242
C244	C	-0.638314	-0.336743	0.380848
C245	C	-0.520488	-0.336748	0.263028
C246	C	-0.489588	-0.321245	0.229622
C247	C	-0.638451	-0.454700	0.380987
C248	C	-0.656463	-0.488106	0.396492
C249	C	0.440756	0.310302	-0.361620
C250	C	0.422038	0.310564	-0.380518
C251	C	0.384160	0.310312	-0.305026
C252	C	0.365528	0.310574	-0.324010
C253	C	0.384159	0.310303	-0.361624
C254	C	0.422038	0.310573	-0.324006
C255	C	0.566989	0.300046	-0.396172
C256	C	0.602741	0.297145	-0.413984
C257	C	0.620675	0.295684	-0.451257
C258	C	0.659436	0.292531	-0.470569
C259	C	0.602857	0.297127	-0.470719
C260	C	0.567111	0.300033	-0.452909
C261	C	0.549177	0.301493	-0.415634
C262	C	0.339351	0.300042	-0.453303
C263	C	0.318640	0.297142	-0.471244
C264	C	0.279912	0.295690	-0.451908
C265	C	0.257449	0.292541	-0.471354
C266	C	0.261899	0.297143	-0.414629
C267	C	0.282613	0.300049	-0.396692
C268	C	0.321341	0.301496	-0.416033
C269	C	0.339354	0.300088	-0.168540
C270	C	0.318640	0.297192	-0.129888
C271	C	0.279912	0.295742	-0.110501
C272	C	0.257450	0.292601	-0.068591
C273	C	0.261898	0.297184	-0.129766
C274	C	0.282612	0.300078	-0.168417
C275	C	0.321344	0.301533	-0.187802
C276	C	0.510413	0.304640	-0.396323
C277	C	0.479516	0.307151	-0.380931
C278	C	0.361701	0.307173	-0.263117
C279	C	0.343799	0.304671	-0.229712
C280	C	0.361700	0.307154	-0.381073
C281	C	0.343798	0.304644	-0.396578
O282	O	0.275503	0.336913	-0.548651
O283	O	0.211494	0.227461	-0.503201
O284	O	0.275490	0.291455	-0.503192
O285	O	0.211507	0.272919	-0.548659
O286	O	0.223502	0.291457	-0.451211
O287	O	0.159506	0.227463	-0.451219
O288	O	0.223515	0.336915	-0.496669
Zn289	Zn	0.183256	0.282189	-0.465691
Zn290	Zn	0.251753	0.282187	-0.534179
O291	O	0.159519	0.272921	-0.496677
C292	C	0.051032	0.254111	0.361530
C293	C	0.013154	0.253851	0.380425
C294	C	0.051031	0.254102	0.304932
C295	C	0.013153	0.253842	0.323913
C296	C	-0.005564	0.254113	0.361527
C297	C	0.069663	0.253840	0.323916
C298	C	0.152954	0.264360	0.396096
C299	C	0.173791	0.267260	0.413911
C300	C	0.155906	0.268721	0.451185
C301	C	0.178502	0.271871	0.470501
C302	C	0.117182	0.267279	0.470643
C303	C	0.096345	0.264374	0.452830
C304	C	0.114233	0.262915	0.415555
C305	C	-0.131796	0.264379	0.453195
C306	C	-0.167548	0.267281	0.471133
C307	C	-0.185483	0.268734	0.451793
C308	C	-0.224243	0.271886	0.471236
C309	C	-0.167664	0.267282	0.414515
C310	C	-0.131919	0.264374	0.396581
C311	C	-0.113984	0.262925	0.415925
C312	C	0.152952	0.264325	0.168451
C313	C	0.173792	0.267221	0.129798
C314	C	0.155907	0.268673	0.110407
C315	C	0.178502	0.271814	0.068498
C316	C	0.117186	0.267232	0.129669
C317	C	0.096350	0.264339	0.168320
C318	C	0.114234	0.262881	0.187709
C319	C	0.091638	0.259769	0.396240
C320	C	0.073627	0.257260	0.380845
C321	C	0.073626	0.257242	0.263024
C322	C	0.091636	0.259743	0.229619
C323	C	-0.044324	0.257264	0.380973
C324	C	-0.075221	0.259775	0.396474
H325	H	0.064802	-0.186523	0.019045
H326	H	-0.667447	-0.603843	0.398798
H327	H	0.064808	0.098152	0.019035
N328	N	0.097340	-0.324591	0.511385
H329	H	0.096221	-0.348744	0.511984
H330	H	0.116349	-0.307624	0.519793
N331	N	0.110039	0.253277	0.303723
H332	H	0.135082	0.276754	0.302322
H333	H	0.102998	0.229540	0.318366
N334	N	0.215541	-0.110768	0.013420
H335	H	0.210557	-0.125547	0.035758
H336	H	0.240318	-0.108245	-0.011336
N337	N	0.547890	0.093030	-0.474146
H338	H	0.550359	0.070756	-0.476615
H339	H	0.515758	0.083252	-0.459300
H340	H	0.335043	-0.409068	-0.028878
N341	N	0.622198	0.173371	-0.511426
H342	H	0.605411	0.155225	-0.520956
H343	H	0.619722	0.195641	-0.511445
N344	N	0.622196	0.295548	-0.510917
H345	H	0.605485	0.296903	-0.520543
H346	H	0.654337	0.317882	-0.528198
N347	N	0.622442	0.173628	-0.393744
H348	H	0.647793	0.201036	-0.410762
H349	H	0.598914	0.173135	-0.369593
H350	H	0.167516	0.097925	0.019049
H351	H	-0.732353	-0.533492	0.468971
N352	N	0.215085	0.173376	-0.510952
H353	H	0.239833	0.195652	-0.510957
H354	H	0.223315	0.155282	-0.520555
N355	N	0.220131	-0.608982	-0.013477
H356	H	0.209742	-0.636390	-0.011421
H357	H	0.196473	-0.608490	0.009558
H358	H	0.267896	-0.186572	-0.365817
N359	N	-0.780395	-0.608704	0.511360
H360	H	-0.790883	-0.636131	0.519789
H361	H	-0.774233	-0.595687	0.529244
N362	N	-0.112462	0.262811	0.474065
H363	H	-0.114931	0.238068	0.476541
H364	H	-0.080331	0.285164	0.459219
N365	N	0.097889	0.268797	0.108761
H366	H	0.120160	0.293537	0.086483
H367	H	0.090377	0.246441	0.098989
N368	N	0.172239	0.262759	0.189368
H369	H	0.173352	0.239722	0.188910
H370	H	0.203116	0.286818	0.176421
H371	H	-0.447397	-0.351491	0.184007
H372	H	0.205320	0.268435	0.398066
H373	H	-0.182279	-0.218843	-0.113977
N374	N	-0.112242	-0.528144	0.355916
H375	H	-0.080103	-0.518341	0.338606
H376	H	-0.128987	-0.546229	0.346324
H377	H	0.205059	-0.216514	0.113907
N378	N	-0.619404	-0.528624	0.356399
H379	H	-0.595766	-0.529140	0.355795
H380	H	-0.625582	-0.541627	0.338515
H381	H	0.064816	0.263199	0.468675
H382	H	-0.002524	-0.026519	0.028802
H383	H	0.552607	0.301210	-0.468757
N384	N	-0.377797	-0.324069	0.108763
H385	H	-0.352443	-0.307052	0.081354
H386	H	-0.366719	-0.330913	0.121730
N387	N	0.097876	-0.228695	0.013397
H388	H	0.116949	-0.237030	0.011342
H389	H	0.066984	-0.246618	0.037442
N390	N	0.054083	0.092782	-0.355997
H391	H	0.060169	0.105718	-0.338043
H392	H	0.030416	0.093248	-0.355385
H393	H	-0.382753	-0.216236	0.114110
N394	N	-0.661945	-0.206369	0.392911
H395	H	-0.684165	-0.206322	0.390387
H396	H	-0.654382	-0.189031	0.407700
N397	N	0.219859	-0.228962	-0.392992
H398	H	0.209372	-0.237390	-0.409933
H399	H	0.226026	-0.246842	-0.386142
H400	H	0.335046	0.310999	-0.308768
H401	H	0.064523	-0.351759	0.184259
N402	N	-0.187031	-0.228688	0.013388
H403	H	-0.163531	-0.229341	-0.009647
H404	H	-0.198146	-0.246618	0.037448
N405	N	-0.007593	0.253296	0.421362
H406	H	-0.007764	0.276770	0.422923
H407	H	-0.038930	0.229556	0.438060
N408	N	-0.452356	-0.243665	0.189361
H409	H	-0.449890	-0.241191	0.211638
H410	H	-0.435637	-0.217342	0.171267
N411	N	0.110027	-0.021576	0.028942
H412	H	0.103022	-0.013949	0.052666
H413	H	0.119018	-0.039341	0.029058
N414	N	0.263175	-0.361357	-0.019490
H415	H	0.282175	-0.369784	-0.021549
H416	H	0.232276	-0.379236	0.004560
H417	H	0.370598	-0.083850	-0.184076
N418	N	0.442789	0.311126	-0.421457
H419	H	0.469672	0.311248	-0.430600
H420	H	0.420677	0.287653	-0.422994
H421	H	0.167477	-0.248833	0.184031
N422	N	0.054581	0.262773	0.189101
H423	H	0.059559	0.285111	0.198898
H424	H	0.046428	0.264116	0.170938
N425	N	-0.112703	-0.191666	-0.189199
H426	H	-0.080569	-0.176890	-0.198997
H427	H	-0.129522	-0.217981	-0.171034
N428	N	0.548133	0.093289	-0.356463
H429	H	0.564918	0.111436	-0.346932
H430	H	0.515998	0.083492	-0.339136
H431	H	0.370885	0.301223	-0.469054
H432	H	-0.002525	-0.129181	0.028805
N433	N	0.097892	0.268853	0.510843
H434	H	0.116968	0.270912	0.519176
H435	H	0.096781	0.291889	0.511460
N436	N	0.442987	-0.021318	-0.303787
H437	H	0.425358	-0.039052	-0.277020
H438	H	0.474344	-0.013672	-0.318419
N439	N	0.097908	-0.228708	-0.393768
H440	H	0.096792	-0.229358	-0.369617
H441	H	0.067031	-0.246639	-0.386951
N442	N	-0.779889	-0.324045	0.510845
H443	H	-0.790280	-0.307026	0.519176
H444	H	-0.803546	-0.348194	0.511466
H445	H	0.267945	0.301232	-0.366341
H446	H	0.230091	-0.219108	-0.114185
N447	N	0.220128	0.295575	-0.393766
H448	H	0.226217	0.319619	-0.386923
H449	H	0.209754	0.293499	-0.410799
N450	N	0.172025	0.093035	-0.473923
H451	H	0.199703	0.111180	-0.500239
H452	H	0.179553	0.083237	-0.459115
N453	N	0.220099	-0.324088	-0.013434
H454	H	0.209704	-0.307072	-0.011371
H455	H	0.226203	-0.330942	-0.037474
N456	N	-0.736832	-0.361329	0.473819
H457	H	-0.764511	-0.370859	0.500135
H458	H	-0.744360	-0.378655	0.459010
H459	H	-0.182059	-0.115906	-0.114213
H460	H	0.100368	-0.306171	0.308703
N461	N	-0.007594	-0.139228	-0.303831
H462	H	0.010022	-0.148372	-0.321578
H463	H	-0.007767	-0.140770	-0.280185
H464	H	0.167506	-0.083593	0.019063
H465	H	0.100165	-0.026535	-0.411435
N466	N	0.381123	0.301650	-0.189450
H467	H	0.405872	0.326391	-0.211728
H468	H	0.389352	0.300278	-0.171356
N469	N	-0.112460	-0.073743	-0.189461
H470	H	-0.129170	-0.064116	-0.171394
H471	H	-0.080320	-0.056466	-0.199265
H472	H	-0.117415	0.263190	0.366230
H473	H	0.617482	-0.318952	-0.013867
H474	H	0.205316	0.168042	0.013788
N475	N	0.172267	-0.073757	-0.474169
H476	H	0.199959	-0.064135	-0.500506
H477	H	0.149966	-0.073783	-0.476612
N478	N	0.338060	-0.206392	-0.013478
H479	H	0.319060	-0.197964	-0.011418
H480	H	0.339186	-0.205813	0.009551
N481	N	-0.007587	-0.021587	-0.303828
H482	H	0.010033	0.005174	-0.321570
H483	H	-0.038934	-0.036243	-0.296209
H484	H	0.101900	0.168027	-0.398169
N485	N	0.442784	0.311136	-0.303814
H486	H	0.469666	0.311254	-0.321553
H487	H	0.451857	0.334865	-0.296197
N488	N	-0.007372	-0.413775	0.421393
H489	H	-0.034255	-0.440537	0.430535
H490	H	0.014743	-0.415136	0.422924
N491	N	0.215577	-0.110790	-0.511450
H492	H	0.223747	-0.084473	-0.520981
H493	H	0.240341	-0.108295	-0.511470
N494	N	-0.186763	0.268850	0.511335
H495	H	-0.169976	0.267492	0.520866
H496	H	-0.184284	0.293596	0.511350
H497	H	0.552391	0.301235	-0.365822
H498	H	-0.181841	-0.603391	0.398082
N499	N	0.621959	0.295589	-0.392996
H500	H	0.605174	0.296954	-0.366681
H501	H	0.619483	0.270844	-0.390496
H502	H	-0.562304	-0.409050	0.308680
H503	H	0.617258	-0.216240	-0.013873
H504	H	0.167522	0.263171	0.365746
H505	H	0.333309	0.296016	-0.114204
H506	H	0.333308	0.295959	-0.501595
H507	H	0.267941	0.301250	-0.184099
H508	H	0.230362	0.296001	-0.113978
N509	N	0.337530	-0.111278	-0.108833
H510	H	0.318457	-0.128297	-0.081426
H511	H	0.368420	-0.104436	-0.121804
H512	H	0.205322	0.268398	0.114116
H513	H	0.437709	-0.409066	-0.028885
H514	H	0.064825	-0.186540	-0.366338
H515	H	0.205048	-0.216515	0.398819
N516	N	0.097888	0.173397	0.013383
H517	H	0.116965	0.200806	0.011324
H518	H	0.096776	0.172902	-0.009653
N519	N	-0.674863	-0.414001	0.421372
H520	H	-0.667862	-0.399373	0.438094
H521	H	-0.699888	-0.415398	0.422905
N522	N	-0.112469	-0.073732	0.019425
H523	H	-0.129181	-0.064107	0.018068
H524	H	-0.114937	-0.073754	0.044168
N525	N	-0.186780	-0.110761	0.013395
H526	H	-0.169992	-0.084444	0.014754
H527	H	-0.184303	-0.108268	-0.011351
N528	N	-0.112723	-0.191663	0.019424
H529	H	-0.129508	-0.217979	0.018063
H530	H	-0.080587	-0.176856	-0.002914
N531	N	-0.007604	0.253276	0.303731
H532	H	0.014474	0.276748	0.280085
H533	H	-0.016704	0.229535	0.296135
N534	N	0.443026	-0.021338	-0.421442
H535	H	0.425408	-0.039078	-0.430586
H536	H	0.443200	0.002310	-0.422978
N537	N	0.325379	-0.138974	-0.303800
H538	H	0.316358	-0.148117	-0.321540
H539	H	0.332415	-0.155666	-0.296180
H540	H	-0.182272	0.268459	0.398770
N541	N	-0.186810	-0.608748	0.510870
H542	H	-0.184346	-0.631026	0.510878
H543	H	-0.170095	-0.590657	0.520479
N544	N	0.263175	-0.191681	-0.189434
H545	H	0.235482	-0.218017	-0.171366
H546	H	0.255701	-0.176819	-0.199237
H547	H	0.332799	-0.116397	-0.501067
N548	N	0.380843	-0.074001	-0.473893
H549	H	0.374704	-0.056093	-0.480742
H550	H	0.391307	-0.065609	-0.456933
N551	N	0.442783	-0.296379	-0.029013
H552	H	0.469667	-0.287236	-0.029136
H553	H	0.451853	-0.279688	-0.052739
H554	H	0.370881	-0.248784	-0.019122
N555	N	0.172233	-0.243690	0.356419
H556	H	0.179790	-0.258471	0.339065
H557	H	0.149998	-0.241168	0.356400
N558	N	-0.112469	-0.528412	0.473832
H559	H	-0.129247	-0.546561	0.500145
H560	H	-0.080337	-0.518628	0.459009
H561	H	0.552400	-0.248780	-0.019131
N562	N	0.547908	-0.361350	-0.019511
H563	H	0.564694	-0.370881	-0.018151
H564	H	0.515773	-0.378676	0.002828
H565	H	0.370892	-0.533512	-0.019136
H566	H	0.333315	-0.603629	-0.013877
H567	H	0.267943	-0.533739	-0.019121
N568	N	-0.557218	-0.296360	0.303730
H569	H	-0.548125	-0.279640	0.318360
H570	H	-0.530346	-0.287254	0.276973
N571	N	-0.007371	-0.413774	0.303752
H572	H	-0.034255	-0.440536	0.321492
H573	H	-0.016442	-0.399117	0.296133
H574	H	0.102110	-0.319446	0.114137
H575	H	-0.629125	-0.248761	0.365741
H576	H	0.064526	-0.351765	0.468991
