data_functionalizedCrystal
_audit_creation_method	'MofGen! by Chris Wilmer'
_symmetry_space_group_name_H-M	'P1'
_symmetry_Int_Tables_number	1
_symmetry_cell_setting	triclinic
loop_
_symmetry_equiv_pos_as_xyz
  x,y,z
_cell_length_a	19.288840
_cell_length_b	11.804365
_cell_length_c	19.288865
_cell_angle_alpha	78.216139
_cell_angle_beta	83.131131
_cell_angle_gamma	101.812241
loop_
_atom_site_label
_atom_site_type_symbol
_atom_site_fract_x
_atom_site_fract_y
_atom_site_fract_z
O1	O	0.935466	0.099240	0.072465
O2	O	1.435466	0.599240	0.572465
O3	O	0.733198	0.099201	0.084177
O4	O	1.233198	0.599201	0.584177
O5	O	0.840173	0.099198	-0.022807
O6	O	1.340173	0.599198	0.477193
O7	O	0.828491	0.099243	0.179449
O8	O	1.328491	0.599243	0.679449
O9	O	0.812011	-0.098857	0.005330
O10	O	1.312011	0.401143	0.505330
O11	O	0.705035	-0.098855	0.112314
O12	O	1.205035	0.401145	0.612314
O13	O	0.907304	-0.098815	0.100601
O14	O	1.407304	0.401185	0.600601
Cu15	Cu	0.803598	-0.116919	0.109027
Cu16	Cu	1.303598	0.383081	0.609027
Cu17	Cu	0.836903	0.117304	0.075752
Cu18	Cu	1.336903	0.617304	0.575752
O19	O	0.800328	-0.098812	0.207585
O20	O	1.300328	0.401188	0.707585
C21	C	0.693239	0.000168	0.097873
C22	C	1.193239	0.500168	0.597873
C23	C	0.616132	0.000151	0.096753
C24	C	1.116132	0.500151	0.596753
C25	C	0.595280	0.108114	0.080876
C26	C	1.095280	0.608114	0.580876
C27	C	0.522835	0.108129	0.079812
C28	C	1.022835	0.608129	0.579812
C29	C	0.471246	0.000174	0.094611
C30	C	0.971246	0.500174	0.594611
C31	C	0.492104	-0.107803	0.110494
C32	C	0.992104	0.392197	0.610494
C33	C	0.564547	-0.107814	0.111565
C34	C	1.064547	0.392186	0.611565
C35	C	0.350159	-0.082527	0.063983
C36	C	0.850159	0.417473	0.563983
C37	C	0.277718	-0.082511	0.062907
C38	C	0.777718	0.417489	0.562907
C39	C	0.247807	0.000204	0.091313
C40	C	0.747807	0.500204	0.591313
C41	C	0.290349	0.082924	0.120783
C42	C	0.790349	0.582924	0.620783
C43	C	0.362792	0.082913	0.121854
C44	C	0.862792	0.582913	0.621854
C45	C	0.392692	0.000174	0.093453
C46	C	0.892692	0.500174	0.593453
C47	C	0.148403	0.108190	0.074283
C48	C	0.648403	0.608190	0.574283
C49	C	0.075955	0.108200	0.073223
C50	C	0.575955	0.608200	0.573223
C51	C	0.045226	-0.107735	0.103899
C52	C	0.545226	0.392265	0.603899
C53	C	0.117671	-0.107742	0.104965
C54	C	0.617671	0.392258	0.604965
C55	C	0.169256	0.000224	0.090153
C56	C	0.669256	0.500224	0.590153
N57	N	0.780178	-0.281659	0.132430
N58	N	1.280178	0.218341	0.632430
C59	C	0.916569	-0.655611	-0.003870
C60	C	1.416569	-0.155611	0.496130
C61	C	0.934286	-0.530950	-0.021577
C62	C	1.434286	-0.030950	0.478423
C63	C	0.895760	-0.468621	0.016923
C64	C	1.395760	0.031379	0.516923
C65	C	0.839515	-0.530966	0.073134
C66	C	1.339515	-0.030966	0.573134
C67	C	0.821801	-0.655639	0.090847
C68	C	1.321801	-0.155639	0.590847
C69	C	0.800991	-0.468649	0.111639
C70	C	1.300991	0.031351	0.611639
C71	C	0.744747	-0.530994	0.167850
C72	C	1.244747	-0.030994	0.667850
C73	C	0.727034	-0.655655	0.185560
C74	C	1.227034	-0.155655	0.685560
C75	C	0.765560	-0.717984	0.147060
C76	C	1.265560	-0.217984	0.647060
C77	C	0.818706	-0.343976	0.093926
C78	C	1.318706	0.156024	0.593926
C79	C	0.723937	-0.344004	0.188643
C80	C	1.223937	0.155996	0.688643
C81	C	0.706221	-0.468665	0.206350
C82	C	1.206221	0.031335	0.706350
C83	C	0.947263	0.000220	0.086906
C84	C	1.447263	0.500220	0.586906
C85	C	1.024371	0.000244	0.088024
C86	C	1.524371	0.500244	0.588024
C87	C	0.825715	0.000167	-0.034614
C88	C	1.325715	0.500167	0.465386
C89	C	0.824585	0.000156	-0.111716
C90	C	1.324585	0.500156	0.388284
N91	N	0.860329	0.282044	0.052343
N92	N	1.360329	0.782044	0.552343
C93	C	0.887354	0.000162	-0.156419
C94	C	1.387354	0.500162	0.343581
C95	C	0.886296	0.000181	-0.228869
C96	C	1.386296	0.500181	0.271131
C97	C	0.822462	0.000169	-0.256609
C98	C	1.322462	0.500169	0.243391
C99	C	0.759685	0.000170	-0.211897
C100	C	1.259685	0.500170	0.288103
C101	C	0.760746	0.000163	-0.139451
C102	C	1.260746	0.500163	0.360549
C103	C	0.762415	-0.069215	-0.355035
C104	C	1.262415	0.430785	0.144965
C105	C	0.761355	-0.069216	-0.427479
C106	C	1.261355	0.430784	0.072521
C107	C	0.819186	0.000195	-0.480058
C108	C	1.319186	0.500195	0.019942
C109	C	0.878085	0.069591	-0.460183
C110	C	1.378085	0.569591	0.039817
C111	C	0.879147	0.069585	-0.387737
C112	C	1.379147	0.569585	0.112263
C113	C	0.821304	0.000177	-0.335164
C114	C	1.321304	0.500177	0.164836
C115	C	0.880813	0.000224	-0.603320
C116	C	1.380813	0.500224	-0.103320
C117	C	0.879753	0.000250	-0.675771
C118	C	1.379753	0.500250	-0.175771
C119	C	0.753138	0.000226	-0.658796
C120	C	1.253138	0.500226	-0.158796
C121	C	0.754201	0.000212	-0.586348
C122	C	1.254201	0.500212	-0.086348
C123	C	0.818039	0.000205	-0.558614
C124	C	1.318039	0.500205	-0.058614
C125	C	0.814786	0.000221	0.219392
C126	C	1.314786	0.500221	0.719392
C127	C	0.815918	0.000240	0.296493
C128	C	1.315918	0.500240	0.796493
H129	H	0.003222	-0.195634	0.115953
H130	H	0.503222	0.304366	0.615953
O131	O	0.940476	0.144450	-0.516877
O132	O	1.440476	0.644450	-0.016877
H133	H	0.947048	0.239562	-0.515506
H134	H	1.447048	0.739562	-0.015506
H135	H	0.681242	-0.706416	0.231335
H136	H	1.181242	-0.206416	0.731335
O137	O	0.949665	0.000240	-0.573400
O138	O	1.449665	0.500240	-0.073400
H139	H	0.993140	0.000270	-0.616663
H140	H	1.493140	0.500270	-0.116663
O141	O	0.140163	-0.224193	0.122084
O142	O	0.640163	0.275807	0.622084
H143	H	0.199203	-0.206066	0.120348
H144	H	0.699203	0.293934	0.620348
O145	O	0.956213	0.000175	-0.126516
O146	O	1.456213	0.500175	0.373484
H147	H	0.948255	-0.080554	-0.082460
H148	H	1.448255	0.419446	0.417540
O149	O	0.500342	0.224586	0.062678
O150	O	1.000342	0.724586	0.562678
H151	H	0.461730	0.229785	0.108784
H152	H	0.961730	0.729785	0.608784
H153	H	0.637277	0.196029	0.068815
H154	H	1.137277	0.696029	0.568815
O155	O	0.682380	-0.276780	0.230165
O156	O	1.182380	0.223220	0.730165
H157	H	0.687664	-0.300669	0.287686
H158	H	1.187664	0.199331	0.787686
O159	O	0.258086	0.172109	0.151454
O160	O	0.758086	0.672109	0.651454
H161	H	0.299836	0.229615	0.172131
H162	H	0.799836	0.729615	0.672131
H163	H	0.243087	-0.149861	0.038907
H164	H	0.743087	0.350139	0.538907
O165	O	0.746446	-0.852445	0.166159
O166	O	1.246446	-0.352445	0.666159
H167	H	0.752716	-0.885300	0.222688
H168	H	1.252716	-0.385300	0.722688
O169	O	0.684286	0.000206	-0.688708
O170	O	1.184286	0.500206	-0.188708
H171	H	0.665614	0.080926	-0.682198
H172	H	1.165614	0.580926	-0.182198
O173	O	0.958117	-0.722842	-0.045385
O174	O	1.458117	-0.222842	0.454615
H175	H	1.015636	-0.698891	-0.040071
H176	H	1.515636	-0.198891	0.459929
O177	O	0.914864	-0.334164	-0.002185
O178	O	1.414864	0.165836	0.497815
H179	H	0.930484	-0.301261	0.044998
H180	H	1.430484	0.198739	0.544998
O181	O	0.947456	0.000247	-0.723991
O182	O	1.447456	0.500247	-0.223991
H183	H	0.992019	0.000226	-0.692529
H184	H	1.492019	0.500226	-0.192529
H185	H	0.937413	0.000191	-0.265273
H186	H	1.437413	0.500191	0.234727
H187	H	0.980080	-0.480193	-0.067343
H188	H	1.480080	0.019807	0.432657
H189	H	0.660425	-0.519441	0.252119
H190	H	1.160425	-0.019441	0.752119
O191	O	0.408675	0.172110	0.153647
O192	O	0.908675	0.672110	0.653647
H193	H	0.375710	0.229627	0.173227
H194	H	0.875710	0.729627	0.673227
H195	H	0.190405	0.196102	0.062229
H196	H	0.690405	0.696102	0.562229
O197	O	0.942661	0.144446	-0.366296
O198	O	1.442661	0.644446	0.133704
H199	H	0.982696	0.192726	-0.415024
H200	H	1.482696	0.692726	0.084976
H201	H	0.703086	0.000200	-0.549949
H202	H	1.203086	0.500200	-0.049949
H203	H	0.713394	-0.125715	-0.443655
H204	H	1.213394	0.374285	0.056345
O205	O	0.700040	-0.144090	-0.298324
O206	O	1.200040	0.355910	0.201676
H207	H	0.658913	-0.192359	-0.324313
H208	H	1.158913	0.307641	0.175687
H209	H	0.707711	0.000163	-0.234488
H210	H	1.207711	0.500163	0.265512
O211	O	0.693040	0.000135	-0.091225
O212	O	1.193040	0.500135	0.408775
H213	H	0.648470	0.000122	-0.122681
H214	H	1.148470	0.500122	0.377319
H215	H	0.374505	-0.149890	0.040850
H216	H	0.874505	0.350110	0.540850
O217	O	0.053463	0.224651	0.056074
O218	O	0.553463	0.724651	0.556074
H219	H	0.101509	0.299718	0.045939
H220	H	0.601509	0.799718	0.545939
H221	H	0.581522	-0.195733	0.124495
H222	H	1.081522	0.304267	0.624495
O223	O	0.436423	-0.224243	0.126793
O224	O	0.936423	0.275757	0.626793
H225	H	0.382529	-0.206097	0.123497
H226	H	0.882529	0.293903	0.623497
H227	H	0.864501	-0.293226	0.048160
H228	H	1.364501	0.206774	0.548160
