data_functionalizedCrystal
_audit_creation_method	'MofGen! by Chris Wilmer'
_symmetry_space_group_name_H-M	'P1'
_symmetry_Int_Tables_number	1
_symmetry_cell_setting	triclinic
loop_
_symmetry_equiv_pos_as_xyz
  x,y,z
_cell_length_a	16.956984
_cell_length_b	16.992694
_cell_length_c	16.053789
_cell_angle_alpha	92.715794
_cell_angle_beta	86.950413
_cell_angle_gamma	96.639179
loop_
_atom_site_label
_atom_site_type_symbol
_atom_site_fract_x
_atom_site_fract_y
_atom_site_fract_z
O1	O	0.171554	-1.032216	-0.069327
O2	O	0.504888	-0.698882	0.264006
O3	O	0.838221	-0.365549	0.597340
O4	O	0.169708	-0.804051	-0.069351
O5	O	0.503042	-0.470718	0.263982
O6	O	0.836375	-0.137385	0.597315
O7	O	0.055426	-0.931841	-0.069332
O8	O	0.388759	-0.598508	0.264002
O9	O	0.722092	-0.265174	0.597335
O10	O	0.285837	-0.904426	-0.069346
O11	O	0.619170	-0.571093	0.263987
O12	O	0.952504	-0.237759	0.597320
O13	O	0.049075	-0.926345	0.069527
O14	O	0.382408	-0.593011	0.402861
O15	O	0.715742	-0.259678	0.736194
O16	O	0.163357	-0.798555	0.069508
O17	O	0.496691	-0.465221	0.402841
O18	O	0.830024	-0.131888	0.736174
O19	O	0.165204	-1.026719	0.069532
O20	O	0.498537	-0.693386	0.402866
O21	O	0.831870	-0.360053	0.736199
Zn22	Zn	0.163272	-0.911764	0.091567
Zn23	Zn	0.496606	-0.578431	0.424900
Zn24	Zn	0.829939	-0.245098	0.758234
Zn25	Zn	0.171640	-0.919006	-0.091386
Zn26	Zn	0.504973	-0.585673	0.241947
Zn27	Zn	0.838306	-0.252340	0.575281
O28	O	0.279486	-0.898929	0.069513
O29	O	0.612820	-0.565596	0.402846
O30	O	0.946153	-0.232263	0.736179
C31	C	0.164156	-0.772245	0.000075
C32	C	0.497490	-0.438911	0.333408
C33	C	0.830823	-0.105578	0.666742
C34	C	0.157066	-0.685660	0.000066
C35	C	0.490400	-0.352327	0.333399
C36	C	0.823733	-0.018994	0.666733
N37	N	0.157562	-0.906828	0.216427
N38	N	0.490895	-0.573494	0.549761
N39	N	0.824228	-0.240161	0.883094
C40	C	0.022632	-0.930497	0.000098
C41	C	0.355965	-0.597163	0.333431
C42	C	0.689298	-0.263830	0.666764
C43	C	-0.065623	-0.934671	0.000097
C44	C	0.267710	-0.601337	0.333431
C45	C	0.601044	-0.268004	0.666764
C46	C	-0.102154	-0.864886	0.000086
C47	C	0.231179	-0.531552	0.333419
C48	C	0.564513	-0.198219	0.666753
C49	C	-0.185079	-0.868812	0.000089
C50	C	0.148254	-0.535479	0.333422
C51	C	0.481588	-0.202145	0.666755
C52	C	-0.231472	-0.942524	0.000097
C53	C	0.101862	-0.609191	0.333430
C54	C	0.435195	-0.275857	0.666763
C55	C	-0.194935	-1.012314	0.000110
C56	C	0.138398	-0.678981	0.333444
C57	C	0.471731	-0.345648	0.666777
C58	C	-0.112012	-1.008387	0.000114
C59	C	0.221321	-0.675054	0.333447
C60	C	0.554655	-0.341720	0.666780
C61	C	-0.480005	-0.961963	0.000093
C62	C	-0.146672	-0.628630	0.333427
C63	C	0.186661	-0.295296	0.666760
C64	C	-0.562934	-0.965885	0.000087
C65	C	-0.229601	-0.632552	0.333421
C66	C	0.103733	-0.299219	0.666754
C67	C	-0.553072	-0.822382	0.000067
C68	C	-0.219739	-0.489049	0.333401
C69	C	0.113595	-0.155716	0.666734
C70	C	-0.470147	-0.818462	0.000066
C71	C	-0.136814	-0.485128	0.333399
C72	C	0.196520	-0.151795	0.666732
C73	C	-0.433618	-0.888252	0.000084
C74	C	-0.100285	-0.554918	0.333417
C75	C	0.233048	-0.221585	0.666750
N76	N	-0.316234	-0.946539	0.000097
N77	N	0.017099	-0.613206	0.333430
N78	N	0.350432	-0.279873	0.666763
N79	N	-0.348857	-0.884235	0.000090
N80	N	-0.015524	-0.550902	0.333423
N81	N	0.317809	-0.217569	0.666756
C82	C	0.312280	-0.900274	0.000081
C83	C	0.645614	-0.566941	0.333415
C84	C	0.978947	-0.233607	0.666748
C85	C	0.400535	-0.896100	0.000076
C86	C	0.733869	-0.562767	0.333410
C87	C	1.067202	-0.229434	0.666743
C88	C	0.170755	-1.058526	0.000104
C89	C	0.504089	-0.725193	0.333437
C90	C	0.837422	-0.391859	0.666771
C91	C	0.177846	-1.145110	0.000108
C92	C	0.511179	-0.811777	0.333441
C93	C	0.844513	-0.478444	0.666774
C94	C	0.225481	-0.630985	0.000062
C95	C	0.558815	-0.297652	0.333396
C96	C	0.892148	0.035681	0.666729
C97	C	0.218814	-0.549631	0.000074
C98	C	0.552147	-0.216297	0.333407
C99	C	0.885480	0.117036	0.666741
C100	C	0.143730	-0.522952	0.000084
C101	C	0.477064	-0.189619	0.333417
C102	C	0.810397	0.143714	0.666750
C103	C	0.075310	-0.577634	0.000090
C104	C	0.408643	-0.244301	0.333423
C105	C	0.741977	0.089033	0.666757
C106	C	0.081978	-0.658987	0.000084
C107	C	0.415312	-0.325654	0.333417
C108	C	0.748645	0.007680	0.666751
C109	C	0.116094	-0.281145	0.000108
C110	C	0.449427	0.052188	0.333441
C111	C	0.782760	0.385522	0.666775
C112	C	0.109431	-0.199785	0.000111
C113	C	0.442764	0.133548	0.333445
C114	C	0.776097	0.466881	0.666778
C115	C	0.252935	-0.171787	0.000097
C116	C	0.586268	0.161546	0.333430
C117	C	0.919602	0.494879	0.666764
C118	C	0.259597	-0.253143	0.000086
C119	C	0.592930	0.080190	0.333419
C120	C	0.926264	0.413523	0.666753
C121	C	0.191176	-0.307818	0.000097
C122	C	0.524510	0.025516	0.333430
C123	C	0.857843	0.358849	0.666763
N124	N	0.136913	-0.439795	0.000093
N125	N	0.470247	-0.106462	0.333427
N126	N	0.803580	0.226872	0.666760
N127	N	0.197994	-0.390973	0.000093
N128	N	0.531327	-0.057640	0.333426
N129	N	0.864660	0.275693	0.666760
N130	N	0.177344	-0.923949	-0.216246
N131	N	0.510678	-0.590616	0.117087
N132	N	0.844011	-0.257283	0.450420
C133	C	0.206775	-0.949334	0.260120
C134	C	0.540109	-0.616001	0.593453
C135	C	0.873442	-0.282667	0.926787
C136	C	0.202776	-0.945892	0.347527
C137	C	0.536110	-0.612558	0.680860
C138	C	0.869443	-0.279225	1.014193
C139	C	0.149567	-0.899938	0.391239
C140	C	0.482900	-0.566605	0.724573
C141	C	0.816233	-0.233271	1.057906
C142	C	0.100347	-0.857430	0.347541
C143	C	0.433681	-0.524097	0.680874
C144	C	0.767014	-0.190764	1.014207
C145	C	0.104343	-0.860878	0.260136
C146	C	0.437677	-0.527544	0.593469
C147	C	0.771010	-0.194211	0.926802
C148	C	0.132121	-0.884889	0.652650
C149	C	0.465454	-0.551556	0.985983
C150	C	0.798788	-0.218222	1.319316
C151	C	0.128131	-0.881443	0.740061
C152	C	0.461464	-0.548110	1.073394
C153	C	0.794797	-0.214776	1.406728
C154	C	0.230559	-0.969906	0.740041
C155	C	0.563892	-0.636573	1.073374
C156	C	0.897225	-0.303239	1.406708
C157	C	0.234553	-0.973346	0.652634
C158	C	0.567887	-0.640012	0.985967
C159	C	0.901220	-0.306679	1.319301
C160	C	0.185331	-0.930841	0.608943
C161	C	0.518664	-0.597508	0.942276
C162	C	0.851998	-0.264175	1.275610
N163	N	0.145479	-0.896416	0.480583
N164	N	0.478813	-0.563083	0.813917
N165	N	0.812146	-0.229750	1.147250
N166	N	0.189415	-0.934368	0.519601
N167	N	0.522748	-0.601035	0.852934
N168	N	0.856082	-0.267701	1.186267
H169	H	-0.064386	-0.804861	0.000076
H170	H	0.268947	-0.471528	0.333409
H171	H	0.602280	-0.138194	0.666742
Cl172	Cl	0.338943	-0.103051	0.000087
Cl173	Cl	0.672277	0.230283	0.333420
Cl174	Cl	1.005610	0.563616	0.666754
H175	H	-0.432379	-0.758437	0.000057
H176	H	-0.099046	-0.425104	0.333390
H177	H	0.234287	-0.091771	0.666723
H178	H	-0.082270	-1.065213	0.000124
H179	H	0.251063	-0.731880	0.333458
H180	H	0.584396	-0.398547	0.666791
Cl181	Cl	0.061232	-0.823669	0.795013
Cl182	Cl	0.394566	-0.490336	1.128347
Cl183	Cl	0.727899	-0.157003	1.461680
H184	H	0.026267	-0.703504	0.000087
H185	H	0.359600	-0.370170	0.333420
H186	H	0.692934	-0.036837	0.666753
H187	H	0.286622	-0.652699	0.000054
H188	H	0.619956	-0.319366	0.333387
H189	H	0.953289	0.013967	0.666720
H190	H	0.250109	-0.986749	0.224535
H191	H	0.583442	-0.653416	0.557869
H192	H	0.916776	-0.320083	0.891202
Cl193	Cl	-0.434093	-1.049701	0.000087
Cl194	Cl	-0.100760	-0.716367	0.333420
Cl195	Cl	0.232574	-0.383034	0.666753
Cl196	Cl	-0.231000	-0.781078	0.000073
Cl197	Cl	0.102334	-0.447744	0.333406
Cl198	Cl	0.435667	-0.114411	0.666739
Cl199	Cl	-0.598999	-0.734652	0.000047
Cl200	Cl	-0.265665	-0.401319	0.333380
Cl201	Cl	0.067668	-0.067986	0.666714
H202	H	-0.232715	-1.072332	0.000122
H203	H	0.100618	-0.738999	0.333455
H204	H	0.433951	-0.405665	0.666789
H205	H	0.274525	-0.505116	0.000070
H206	H	0.607858	-0.171783	0.333403
H207	H	0.941192	0.161550	0.666737
H208	H	-0.600705	-1.025914	0.000088
H209	H	-0.267372	-0.692581	0.333422
H210	H	0.065962	-0.359247	0.666755
H211	H	0.014175	-0.555906	0.000110
H212	H	0.347508	-0.222573	0.333443
H213	H	0.680842	0.110761	0.666776
Cl214	Cl	0.353991	-0.286675	0.000068
Cl215	Cl	0.687325	0.046658	0.333402
Cl216	Cl	1.020658	0.379992	0.666735
Cl217	Cl	0.015032	-0.166249	0.000142
Cl218	Cl	0.348366	0.167085	0.333476
Cl219	Cl	0.681699	0.500418	0.666809
H220	H	0.242850	-0.980506	0.383097
H221	H	0.576183	-0.647173	0.716431
H222	H	0.909517	-0.313840	1.049764
H223	H	0.060380	-0.325652	0.000117
H224	H	0.393714	0.007681	0.333451
H225	H	0.727047	0.341015	0.666784
H226	H	0.277880	-1.010768	0.617049
H227	H	0.611213	-0.677435	0.950382
H228	H	0.944547	-0.344102	1.283716
Cl229	Cl	0.292432	-1.023338	0.794972
Cl230	Cl	0.625765	-0.690005	1.128305
Cl231	Cl	0.959099	-0.356672	1.461638
H232	H	0.092040	-0.850279	0.617087
H233	H	0.425374	-0.516946	0.950420
H234	H	0.758707	-0.183613	1.283754
H235	H	0.057019	-0.820018	0.383139
H236	H	0.390353	-0.486685	0.716472
H237	H	0.723686	-0.153351	1.049805
Cl238	Cl	0.042464	-0.807447	0.205208
Cl239	Cl	0.375797	-0.474114	0.538541
Cl240	Cl	0.709130	-0.140781	0.871874
