data_functionalizedCrystal
_audit_creation_method	'MofGen! by Chris Wilmer'
_symmetry_space_group_name_H-M	'P1'
_symmetry_Int_Tables_number	1
_symmetry_cell_setting	triclinic
loop_
_symmetry_equiv_pos_as_xyz
  x,y,z
_cell_length_a	17.699077
_cell_length_b	15.455313
_cell_length_c	17.699083
_cell_angle_alpha	87.341275
_cell_angle_beta	83.281795
_cell_angle_gamma	92.675206
loop_
_atom_site_label
_atom_site_type_symbol
_atom_site_fract_x
_atom_site_fract_y
_atom_site_fract_z
O1	O	1.007402	0.072121	0.092373
O2	O	0.787023	0.072125	0.104830
O3	O	0.903438	0.072115	-0.011587
O4	O	0.890986	0.072131	0.208791
O5	O	0.896781	-0.072146	-0.004957
O6	O	0.780366	-0.072136	0.111460
O7	O	1.000745	-0.072141	0.099003
Cu8	Cu	0.889947	-0.085311	0.105837
Cu9	Cu	0.897820	0.085295	0.097997
O10	O	0.884329	-0.072131	0.215421
C11	C	0.755497	-0.000005	0.107700
C12	C	0.671479	-0.000003	0.106363
C13	C	0.628383	-0.078641	0.109347
C14	C	0.549440	-0.078642	0.108079
C15	C	0.513595	-0.000005	0.103832
C16	C	0.556697	0.078640	0.100845
C17	C	0.635639	0.078640	0.102108
C18	C	0.238334	0.078641	0.095752
C19	C	0.159386	0.078635	0.094492
C20	C	0.152135	-0.078641	0.101723
C21	C	0.231077	-0.078641	0.102985
C22	C	0.274173	0.000002	0.099995
C23	C	0.359772	0.000003	0.101368
C24	C	0.427997	-0.000004	0.102464
N25	N	0.884416	-0.205306	0.111351
C26	C	0.933890	-0.250704	0.061911
C27	C	0.929714	-0.341512	0.066088
C28	C	0.876066	-0.386919	0.119710
C29	C	0.826586	-0.341514	0.169152
C30	C	0.830759	-0.250708	0.164971
C31	C	0.858052	-0.658499	0.137737
C32	C	0.853884	-0.749311	0.141916
C33	C	0.957011	-0.749302	0.038851
C34	C	0.961182	-0.658495	0.034678
C35	C	0.911700	-0.613098	0.084117
N36	N	0.871797	-0.479739	0.123982
N37	N	0.915966	-0.520280	0.079841
C38	C	1.032270	-0.000008	0.096134
C39	C	1.116289	-0.000004	0.097470
C40	C	0.899663	-0.000016	-0.036469
C41	C	0.898325	-0.000016	-0.120487
N42	N	0.903358	0.205290	0.092476
C43	C	0.966658	-0.000018	-0.169109
C44	C	0.965396	-0.000011	-0.248053
C45	C	0.895800	-0.000007	-0.278373
C46	C	0.827461	-0.000001	-0.229744
C47	C	0.828724	-0.000003	-0.150802
C48	C	0.822366	0.000006	-0.548107
C49	C	0.821109	0.000005	-0.627055
C50	C	0.959038	-0.000002	-0.645358
C51	C	0.960301	-0.000004	-0.566416
C52	C	0.891963	0.000006	-0.517795
C53	C	0.893333	-0.000001	-0.432196
C54	C	0.894430	-0.000006	-0.363970
C55	C	0.888104	0.000002	0.240303
C56	C	0.889443	0.000008	0.324320
H57	H	0.514356	-0.142677	0.110496
H58	H	0.273413	0.142677	0.093314
O59	O	0.105609	-0.163468	0.105297
H60	H	0.044677	-0.150262	0.103827
H61	H	0.260258	-0.142676	0.106447
H62	H	0.130203	0.142675	0.091033
O63	O	0.752396	-0.000007	-0.262445
H64	H	0.751234	0.058785	-0.300680
O65	O	1.032751	-0.000010	-0.697799
H66	H	1.038200	0.058793	-0.736898
H67	H	0.810195	-0.786278	0.185585
H68	H	0.527506	0.142668	0.097382
O69	O	0.804691	-0.609545	0.191070
H70	H	0.769859	-0.568195	0.157357
O71	O	0.768724	-0.390483	0.226992
H72	H	0.774139	-0.461254	0.221601
H73	H	0.977579	-0.213739	0.018250
O74	O	1.019054	-0.609534	-0.023158
H75	H	1.057683	-0.568160	0.006758
H76	H	0.790471	-0.213746	0.205229
O77	O	0.755022	-0.000009	-0.098353
H78	H	0.706414	-0.000017	-0.132696
H79	H	0.670727	0.142675	0.099680
H80	H	0.969999	-0.378475	0.025830
O81	O	0.746041	0.000016	-0.659762
H82	H	0.698733	0.000031	-0.612691
O83	O	1.041724	-0.000015	-0.136409
H84	H	1.089028	-0.000004	-0.183485
O85	O	1.039102	-0.000028	-0.300492
H86	H	1.075137	0.058760	-0.292421
O87	O	0.667043	-0.163458	0.113937
H88	H	0.623810	-0.218140	0.115795
O89	O	1.010373	-0.798263	-0.014478
H90	H	0.998457	-0.869035	-0.002569
H91	H	1.016974	-0.000011	-0.541735
O92	O	0.748662	-0.000006	-0.495669
H93	H	0.700057	-0.000018	-0.530017
