data_functionalizedCrystal
_audit_creation_method	'MofGen! by Chris Wilmer'
_symmetry_space_group_name_H-M	'P1'
_symmetry_Int_Tables_number	1
_symmetry_cell_setting	triclinic
loop_
_symmetry_equiv_pos_as_xyz
  x,y,z
_cell_length_a	8.597366
_cell_length_b	8.597304
_cell_length_c	7.088929
_cell_angle_alpha	76.027438
_cell_angle_beta	103.954530
_cell_angle_gamma	86.359176
loop_
_atom_site_label
_atom_site_type_symbol
_atom_site_fract_x
_atom_site_fract_y
_atom_site_fract_z
O1	O	2.101062	0.219192	0.151018
O2	O	1.636345	0.245251	0.070171
O3	O	1.881724	-0.000148	0.151020
O4	O	1.855684	0.464591	0.070169
O5	O	1.914516	-0.033018	0.479812
O6	O	1.669138	0.212382	0.398963
O7	O	2.133855	0.186323	0.479810
Cu8	Cu	1.904490	0.196351	0.469408
Cu9	Cu	1.865710	0.235223	0.080573
O10	O	1.888476	0.431722	0.398961
C11	C	1.593280	0.227850	0.224930
C12	C	1.416103	0.224950	0.196221
C13	C	1.897151	-0.076047	0.325048
C14	C	1.894243	-0.253231	0.353746
C15	C	2.176920	0.203724	0.325046
C16	C	2.354095	0.206625	0.353743
C17	C	1.873049	0.507621	0.224928
C18	C	1.875955	0.684806	0.196218
N19	N	1.931779	0.169010	0.742895
N20	N	1.838434	0.262551	-0.192910
H21	H	1.333645	0.238409	0.039386
H22	H	1.862516	-0.232690	0.039383
F23	F	1.911782	-0.361071	0.558751
H24	H	1.741694	0.359487	0.693538
F25	F	2.058250	0.042313	0.891325
H26	H	1.436564	0.193154	0.510590
