data_functionalizedCrystal
_audit_creation_method	'MofGen! by Chris Wilmer'
_symmetry_space_group_name_H-M	'P1'
_symmetry_Int_Tables_number	1
_symmetry_cell_setting	triclinic
loop_
_symmetry_equiv_pos_as_xyz
  x,y,z
_cell_length_a	16.625547
_cell_length_b	18.050589
_cell_length_c	16.625539
_cell_angle_alpha	90.024824
_cell_angle_beta	90.024822
_cell_angle_gamma	90.028158
loop_
_atom_site_label
_atom_site_type_symbol
_atom_site_fract_x
_atom_site_fract_y
_atom_site_fract_z
Zn1	Zn	1.232648	-0.295659	0.456020
Zn2	Zn	1.565982	0.037674	0.789354
Zn3	Zn	1.899315	0.371007	1.122687
Zn4	Zn	1.232538	-0.419857	0.321196
Zn5	Zn	1.565871	-0.086524	0.654529
Zn6	Zn	1.899205	0.246810	0.987862
Zn7	Zn	1.097810	-0.295685	0.321191
Zn8	Zn	1.431143	0.037648	0.654524
Zn9	Zn	1.764477	0.370982	0.987858
Zn10	Zn	1.097767	-0.419812	0.455976
Zn11	Zn	1.431100	-0.086479	0.789309
Zn12	Zn	1.764434	0.246855	1.122642
O13	O	1.165191	-0.357753	0.388596
O14	O	1.498524	-0.024420	0.721929
O15	O	1.831857	0.308913	1.055262
O16	O	1.345466	-0.312142	0.438156
O17	O	1.678799	0.021191	0.771490
O18	O	2.012133	0.354524	1.104823
O19	O	1.214638	-0.403415	0.208363
O20	O	1.547971	-0.070082	0.541696
O21	O	1.881305	0.263252	0.875029
O22	O	1.115761	-0.191757	0.339093
O23	O	1.449094	0.141576	0.672426
O24	O	1.782428	0.474910	1.005760
O25	O	1.345385	-0.403390	0.339101
O26	O	1.678718	-0.070057	0.672435
O27	O	2.012052	0.263277	1.005768
O28	O	1.214826	-0.191738	0.438152
O29	O	1.548159	0.141595	0.771485
O30	O	1.881493	0.474929	1.104818
O31	O	1.115654	-0.312187	0.208359
O32	O	1.448987	0.021147	0.541692
O33	O	1.782321	0.354480	0.875026
O34	O	0.984972	-0.312143	0.339050
O35	O	1.318305	0.021191	0.672383
O36	O	1.651639	0.354524	1.005716
O37	O	1.115687	-0.403313	0.568814
O38	O	1.449021	-0.069980	0.902147
O39	O	1.782354	0.263354	1.235481
O40	O	0.984940	-0.403338	0.438075
O41	O	1.318274	-0.070005	0.771409
O42	O	1.651607	0.263329	1.104742
O43	O	1.214784	-0.312099	0.568847
O44	O	1.548117	0.021235	0.902180
O45	O	1.881451	0.354568	1.235514
O46	O	1.214596	-0.523776	0.339058
O47	O	1.547929	-0.190442	0.672391
O48	O	1.881263	0.142891	1.005725
O49	O	1.115580	-0.523742	0.438080
O50	O	1.448914	-0.190409	0.771413
O51	O	1.782247	0.142924	1.104747
C52	C	0.955700	-0.357739	0.388558
C53	C	1.289033	-0.024406	0.721891
C54	C	1.622367	0.308928	1.055224
C55	C	0.866079	-0.357751	0.388560
C56	C	1.199412	-0.024417	0.721894
C57	C	1.532746	0.308916	1.055227
C58	C	0.793296	-0.357752	0.388570
C59	C	1.126630	-0.024419	0.721904
C60	C	1.459963	0.308915	1.055237
C61	C	0.701988	-0.357756	0.388591
C62	C	1.035321	-0.024423	0.721924
C63	C	1.368655	0.308911	1.055257
C64	C	0.629212	-0.357763	0.388611
C65	C	0.962545	-0.024429	0.721944
C66	C	1.295878	0.308904	1.055278
C67	C	0.537897	-0.357768	0.388630
C68	C	0.871231	-0.024435	0.721964
C69	C	1.204564	0.308899	1.055297
C70	C	1.165093	-0.550706	0.388582
C71	C	1.498427	-0.217372	0.721916
C72	C	1.831760	0.115961	1.055249
C73	C	1.165126	-0.633251	0.388603
C74	C	1.498459	-0.299918	0.721937
C75	C	1.831792	0.033415	1.055270
C76	C	1.111334	-0.832711	0.442433
C77	C	1.444667	-0.499378	0.775766
C78	C	1.778000	-0.166044	1.109100
C79	C	1.091677	-0.882153	0.368856
C80	C	1.425011	-0.548819	0.702189
C81	C	1.758344	-0.215486	1.035522
C82	C	1.165205	-0.784382	0.388614
C83	C	1.498538	-0.451048	0.721947
C84	C	1.831871	-0.117715	1.055281
C85	C	1.184901	-0.882021	0.462200
C86	C	1.518234	-0.548688	0.795533
C87	C	1.851567	-0.215355	1.128867
C88	C	1.165280	-0.930367	0.388631
C89	C	1.498613	-0.597033	0.721964
C90	C	1.831946	-0.263700	1.055297
C91	C	1.145510	-0.832736	0.314998
C92	C	1.478843	-0.499403	0.648331
C93	C	1.812176	-0.166069	0.981664
C94	C	1.238767	-0.832601	0.408392
C95	C	1.572101	-0.499267	0.741725
C96	C	1.905434	-0.165934	1.075058
C97	C	1.219139	-0.882020	0.334763
C98	C	1.552472	-0.548687	0.668097
C99	C	1.885806	-0.215353	1.001430
C100	C	1.165160	-0.700283	0.388605
C101	C	1.498493	-0.366950	0.721939
C102	C	1.831826	-0.033617	1.055272
C103	C	1.165325	-1.014463	0.388631
C104	C	1.498659	-0.681130	0.721964
C105	C	1.831992	-0.347796	1.055298
C106	C	1.375500	-0.357768	0.388634
C107	C	1.708833	-0.024435	0.721968
C108	C	2.042166	0.308898	1.055301
C109	C	1.465121	-0.357775	0.388651
C110	C	1.798454	-0.024441	0.721984
C111	C	2.131787	0.308892	1.055318
C112	C	1.165243	-0.357698	0.598905
C113	C	1.498577	-0.024365	0.932238
C114	C	1.831910	0.308969	1.265571
C115	C	1.165266	-0.357674	0.688526
C116	C	1.498599	-0.024341	1.021859
C117	C	1.831932	0.308992	1.355192
C118	C	1.165311	-0.164048	0.388627
C119	C	1.498644	0.169286	0.721960
C120	C	1.831977	0.502619	1.055293
C121	C	1.165362	-0.081502	0.388640
C122	C	1.498695	0.251831	0.721973
C123	C	1.832028	0.585165	1.055307
C124	C	1.165185	-0.357755	0.179105
C125	C	1.498518	-0.024422	0.512438
C126	C	1.831852	0.308912	0.845771
C127	C	1.165319	-0.357569	0.089484
C128	C	1.498652	-0.024236	0.422817
C129	C	1.831986	0.309097	0.756151
C130	C	1.165303	-0.357591	1.016702
C131	C	1.498636	-0.024258	1.350035
C132	C	1.831969	0.309075	1.683368
C133	C	1.165290	-0.357617	0.925393
C134	C	1.498624	-0.024283	1.258726
C135	C	1.831957	0.309050	1.592060
C136	C	1.165285	-0.357633	0.852617
C137	C	1.498618	-0.024300	1.185950
C138	C	1.831951	0.309033	1.519283
C139	C	1.165271	-0.357658	0.761302
C140	C	1.498605	-0.024324	1.094636
C141	C	1.831938	0.309009	1.427969
H142	H	1.065710	-0.811059	0.487881
H143	H	1.399043	-0.477726	0.821215
H144	H	1.732377	-0.144392	1.154548
H145	H	1.029503	-0.903934	0.352143
H146	H	1.362836	-0.570601	0.685476
H147	H	1.696170	-0.237268	1.018809
H148	H	1.300928	-0.810821	0.425140
H149	H	1.634261	-0.477488	0.758473
H150	H	1.967594	-0.144154	1.091806
H151	H	1.128809	-0.811176	0.252757
H152	H	1.462142	-0.477843	0.586090
H153	H	1.795475	-0.144510	0.919423
N154	N	1.279527	-0.910521	0.274419
N155	N	1.612860	-0.577187	0.607753
N156	N	1.946194	-0.243854	0.941086
H157	H	1.251122	-0.942078	0.233031
H158	H	1.584455	-0.608745	0.566365
H159	H	1.917789	-0.275412	0.899698
H160	H	1.321436	-0.941244	0.303056
H161	H	1.654769	-0.607911	0.636389
H162	H	1.988102	-0.274578	0.969722
H163	H	1.201530	-0.903671	0.524424
H164	H	1.534863	-0.570337	0.857757
H165	H	1.868197	-0.237004	1.191091
