data_functionalizedCrystal
_audit_creation_method	'MofGen! by Chris Wilmer'
_symmetry_space_group_name_H-M	'P1'
_symmetry_Int_Tables_number	1
_symmetry_cell_setting	triclinic
loop_
_symmetry_equiv_pos_as_xyz
  x,y,z
_cell_length_a	16.120444
_cell_length_b	12.759395
_cell_length_c	12.759387
_cell_angle_alpha	90.020509
_cell_angle_beta	92.864319
_cell_angle_gamma	87.071990
loop_
_atom_site_label
_atom_site_type_symbol
_atom_site_fract_x
_atom_site_fract_y
_atom_site_fract_z
Zn1	Zn	-0.331830	-1.584980	-0.615172
Zn2	Zn	-0.471267	-1.575924	-0.448387
Zn3	Zn	-0.331875	-1.409275	-0.439512
Zn4	Zn	-0.471207	-1.400328	-0.624022
O5	O	-0.401545	-1.492627	-0.531773
O6	O	-0.350332	-1.730799	-0.593058
O7	O	-0.452820	-1.553773	-0.300191
O8	O	-0.215203	-1.440116	-0.455395
O9	O	-0.452776	-1.724146	-0.470522
O10	O	-0.215170	-1.569206	-0.584452
O11	O	-0.350409	-1.431336	-0.293671
O12	O	-0.350352	-1.261067	-0.463977
O13	O	-0.452675	-1.424868	-0.769867
O14	O	-0.452719	-1.254494	-0.599536
O15	O	-0.350274	-1.560530	-0.763364
O16	O	-0.587925	-1.545097	-0.479104
O17	O	-0.587881	-1.416087	-0.608142
C18	C	-0.401534	-1.219660	-0.531755
C19	C	-0.401550	-1.102882	-0.531773
C20	C	-0.401463	-1.492711	-0.805802
C21	C	-0.401428	-1.492747	-0.922576
C22	C	-0.618153	-1.478667	-0.545569
C23	C	-0.710819	-1.472792	-0.551506
C24	C	-0.921763	-1.523365	-0.501201
C25	C	-0.880475	-1.462083	-0.562357
C26	C	-0.786070	-1.468043	-0.556318
C27	C	-1.016177	-1.517406	-0.507238
C28	C	-0.184090	-1.506669	-0.517947
C29	C	-0.091424	-1.512653	-0.512054
C30	C	-0.401555	-1.766659	-0.531793
C31	C	-0.401560	-1.883436	-0.531801
C32	C	-0.508317	-1.096065	-0.672724
C33	C	-0.561707	-1.037795	-0.743203
C34	C	-0.561717	-0.928073	-0.743217
C35	C	-0.508330	-0.876618	-0.672746
C36	C	-0.454940	-0.934888	-0.602267
C37	C	-0.454937	-1.044613	-0.602259
C38	C	-0.348170	-0.941706	-0.461322
C39	C	-0.348163	-1.051428	-0.461302
C40	C	-0.294782	-0.890251	-0.390851
C41	C	-0.241395	-0.948521	-0.320365
C42	C	-0.241388	-1.058249	-0.320354
C43	C	-0.294773	-1.109697	-0.390823
C44	C	-0.294806	-1.634022	-0.915826
C45	C	-0.241482	-1.704674	-0.967310
C46	C	-0.241452	-1.704702	-1.077030
C47	C	-0.294749	-1.634067	-1.135268
C48	C	-0.348073	-1.563414	-1.083783
C49	C	-0.348099	-1.563397	-0.974061
C50	C	-0.454689	-1.422137	-1.090533
C51	C	-0.454725	-1.422113	-0.980814
C52	C	-0.507987	-1.351502	-1.148771
C53	C	-0.561316	-1.280853	-1.097287
C54	C	-0.561345	-1.280829	-0.987560
C55	C	-0.508049	-1.351460	-0.929329
C56	C	-0.401566	-1.492607	-0.258807
C57	C	-0.401366	-1.492789	-0.142018
H58	H	-0.916029	-1.405143	-0.619250
H59	H	-0.886213	-1.580301	-0.444310
F60	F	-0.618096	-1.205624	-0.932775
H61	H	-0.508320	-1.185406	-0.672713
F62	F	-0.618028	-1.205682	-1.159272
F63	F	-0.508079	-1.351445	-0.812555
F64	F	-0.618527	-1.092564	-0.818195
H65	H	-0.294774	-1.199038	-0.390817
H66	H	-0.507955	-1.351526	-1.238110
F67	F	-0.294844	-1.634010	-0.799052
H68	H	-0.605188	-0.880630	-0.800612
F69	F	-0.508333	-0.759842	-0.672776
H70	H	-0.198087	-1.762182	-0.919881
H71	H	-0.294791	-0.800909	-0.390871
F72	F	-0.184688	-1.779884	-1.131825
H73	H	-0.294712	-1.634087	-1.224607
H74	H	-0.197928	-0.906618	-0.262998
H75	H	-0.197905	-1.105687	-0.262968
