data_functionalizedCrystal
_audit_creation_method	'MofGen! by Chris Wilmer'
_symmetry_space_group_name_H-M	'P1'
_symmetry_Int_Tables_number	1
_symmetry_cell_setting	triclinic
loop_
_symmetry_equiv_pos_as_xyz
  x,y,z
_cell_length_a	16.109295
_cell_length_b	16.776229
_cell_length_c	17.699083
_cell_angle_alpha	89.986324
_cell_angle_beta	83.371101
_cell_angle_gamma	89.995788
loop_
_atom_site_label
_atom_site_type_symbol
_atom_site_fract_x
_atom_site_fract_y
_atom_site_fract_z
O1	O	-1.102970	0.066246	-0.097267
O2	O	-0.602970	0.566246	0.402733
O3	O	-0.860887	0.066262	-0.109378
O4	O	-0.360887	0.566262	0.390622
O5	O	-0.988768	0.066234	0.006857
O6	O	-0.488768	0.566234	0.506857
O7	O	-0.975089	0.066274	-0.213502
O8	O	-0.475089	0.566274	0.286498
O9	O	-0.988751	-0.066342	0.006864
O10	O	-0.488751	0.433658	0.506864
O11	O	-0.860870	-0.066315	-0.109371
O12	O	-0.360870	0.433685	0.390629
O13	O	-1.102953	-0.066330	-0.097260
O14	O	-0.602953	0.433670	0.402740
Zn15	Zn	-0.981909	-0.087372	-0.103314
Zn16	Zn	-0.481909	0.412628	0.396686
Zn17	Zn	-0.981931	0.087303	-0.103324
Zn18	Zn	-0.481931	0.587303	0.396676
O19	O	-0.975072	-0.066303	-0.213495
O20	O	-0.475072	0.433697	0.286505
C21	C	-0.829904	-0.000025	-0.108885
C22	C	-0.329904	0.499975	0.391115
C23	C	-0.737611	-0.000020	-0.107416
C24	C	-0.237611	0.499980	0.392584
C25	C	-0.515225	-0.000017	-0.172972
C26	C	-0.015225	0.499983	0.327028
C27	C	-0.428507	-0.000022	-0.171586
C28	C	0.071493	0.499978	0.328414
C29	C	-0.448619	-0.000043	-0.033679
C30	C	0.051381	0.499957	0.466321
C31	C	-0.535335	-0.000044	-0.035066
C32	C	-0.035335	0.499956	0.464934
C33	C	-0.568636	-0.000027	-0.104715
C34	C	-0.068636	0.499973	0.395285
C35	C	-0.395201	-0.000031	-0.101942
C36	C	0.104799	0.499969	0.398058
C37	C	-0.301178	-0.000037	-0.100439
C38	C	0.198822	0.499963	0.399561
C39	C	-0.662666	-0.000023	-0.106218
C40	C	-0.162666	0.499977	0.393782
N41	N	-0.981900	-0.206583	-0.103308
N42	N	-0.481900	0.293417	0.396692
C43	C	-1.038543	-0.248312	-0.051860
C44	C	-0.538543	0.251688	0.448140
C45	C	-1.038547	-0.331765	-0.051859
C46	C	-0.538547	0.168235	0.448141
C47	C	-0.981912	-0.373486	-0.103310
C48	C	-0.481912	0.126514	0.396690
C49	C	-0.925263	-0.331751	-0.154761
C50	C	-0.425263	0.168249	0.345239
C51	C	-0.925255	-0.248300	-0.154757
C52	C	-0.425255	0.251700	0.345243
C53	C	-0.925293	-0.668298	-0.154776
C54	C	-0.425293	-0.168298	0.345224
C55	C	-0.925307	-0.751755	-0.154777
C56	C	-0.425307	-0.251755	0.345223
C57	C	-1.038585	-0.751762	-0.051878
C58	C	-0.538585	-0.251762	0.448122
C59	C	-1.038577	-0.668312	-0.051874
C60	C	-0.538577	-0.168312	0.448126
C61	C	-0.981926	-0.626584	-0.103321
C62	C	-0.481926	-0.126584	0.396679
C63	C	-0.981920	-0.536096	-0.103320
C64	C	-0.481920	-0.036096	0.396680
C65	C	-0.981921	-0.463973	-0.103316
C66	C	-0.481921	0.036027	0.396684
C67	C	-0.133935	-0.000041	-0.097758
C68	C	0.366065	0.499959	0.402242
C69	C	-0.226226	-0.000038	-0.099240
C70	C	0.273774	0.499962	0.400760
C71	C	-0.988269	-0.000057	0.035058
C72	C	-0.488269	0.499943	0.535058
C73	C	-0.986799	-0.000067	0.119078
C74	C	-0.486799	0.499933	0.619078
N75	N	-0.981947	0.206515	-0.103325
N76	N	-0.481947	0.706515	0.396675
C77	C	-1.061862	-0.000078	0.167593
C78	C	-0.561862	0.499922	0.667593
C79	C	-1.060476	-0.000080	0.246539
C80	C	-0.560476	0.499920	0.746539
C81	C	-0.984025	-0.000076	0.276967
C82	C	-0.484025	0.499924	0.776967
C83	C	-0.908956	-0.000063	0.228446
C84	C	-0.408956	0.499937	0.728446
C85	C	-0.910343	-0.000056	0.149502
C86	C	-0.410343	0.499944	0.649502
C87	C	-0.903358	-0.000092	0.546817
C88	C	-0.403358	0.499908	1.046817
C89	C	-0.901977	-0.000102	0.625767
C90	C	-0.401977	0.499898	1.125767
C91	C	-1.053491	-0.000116	0.643853
C92	C	-0.553491	0.499884	1.143853
C93	C	-1.054879	-0.000109	0.564910
C94	C	-0.554879	0.499891	1.064910
C95	C	-0.979810	-0.000091	0.516395
C96	C	-0.479810	0.499909	1.016395
C97	C	-0.981314	-0.000088	0.430794
C98	C	-0.481314	0.499912	0.930794
C99	C	-0.982520	-0.000086	0.362567
C100	C	-0.482520	0.499914	0.862567
C101	C	-0.975571	-0.000038	0.758304
C102	C	-0.475571	0.499962	1.258304
C103	C	-0.977041	-0.000107	0.674283
C104	C	-0.477041	0.499893	1.174283
H105	H	-0.421495	-0.000062	0.023026
H106	H	0.078505	0.499938	0.523026
C107	C	-0.593470	-0.000092	0.038965
C108	C	-0.093470	0.499908	0.538965
C109	C	-0.676539	-0.000112	0.022842
C110	C	-0.176539	0.499888	0.522842
C111	C	-0.730115	-0.000170	0.091016
C112	C	-0.230115	0.499830	0.591016
H113	H	-0.583505	0.046124	0.067575
H114	H	-0.083505	0.546124	0.567575
H115	H	-0.583437	-0.046347	0.067534
H116	H	-0.083437	0.453653	0.567534
H117	H	-0.686568	0.046138	-0.005715
H118	H	-0.186568	0.546138	0.494285
H119	H	-0.686531	-0.046325	-0.005758
H120	H	-0.186531	0.453675	0.494242
H121	H	-0.720082	-0.046425	0.119585
H122	H	-0.220082	0.453575	0.619585
H123	H	-0.720142	0.046047	0.119621
H124	H	-0.220142	0.546047	0.619621
H125	H	-0.786483	-0.000191	0.080085
H126	H	-0.286483	0.499809	0.580085
H127	H	-0.842232	-0.000078	0.507325
H128	H	-0.342232	0.499922	1.007325
C129	C	-1.100071	-0.203163	0.004088
C130	C	-0.600071	0.296837	0.504088
C131	C	-1.149662	-0.257573	0.049158
C132	C	-0.649662	0.242427	0.549158
C133	C	-1.206343	-0.216014	0.100716
C134	C	-0.706343	0.283986	0.600716
H135	H	-1.134700	-0.170591	-0.023056
H136	H	-0.634700	0.329409	0.476944
H137	H	-1.070248	-0.170641	0.035647
H138	H	-0.570248	0.329359	0.535647
H139	H	-1.179483	-0.290082	0.017604
H140	H	-0.679483	0.209918	0.517604
H141	H	-1.115056	-0.290146	0.076319
H142	H	-0.615056	0.209854	0.576319
H143	H	-1.176520	-0.183492	0.132274
H144	H	-0.676520	0.316508	0.632274
H145	H	-1.240965	-0.183444	0.073564
H146	H	-0.740965	0.316556	0.573564
H147	H	-1.239991	-0.252925	0.131306
H148	H	-0.739991	0.247075	0.631306
H149	H	-0.542335	-0.000009	-0.229684
H150	H	-0.042335	0.499991	0.270316
H151	H	-0.385023	-0.000015	-0.227168
H152	H	0.114977	0.499985	0.272832
C153	C	-0.863941	-0.797096	-0.210724
C154	C	-0.363941	-0.297096	0.289276
C155	C	-0.908131	-0.844966	-0.257088
C156	C	-0.408131	-0.344966	0.242912
C157	C	-0.851633	-0.886737	-0.308639
C158	C	-0.351633	-0.386737	0.191361
H159	H	-0.829379	-0.829731	-0.183573
H160	H	-0.329379	-0.329731	0.316427
H161	H	-0.830210	-0.760318	-0.241406
H162	H	-0.330210	-0.260318	0.258594
H163	H	-0.941848	-0.881740	-0.226410
H164	H	-0.441848	-0.381740	0.273590
H165	H	-0.942691	-0.812351	-0.284256
H166	H	-0.442691	-0.312351	0.215744
H167	H	-0.817902	-0.849959	-0.339321
H168	H	-0.317902	-0.349959	0.160679
H169	H	-0.817074	-0.919368	-0.281481
H170	H	-0.317074	-0.419368	0.218519
H171	H	-0.881608	-0.919217	-0.340107
H172	H	-0.381608	-0.419217	0.159893
C173	C	-1.099920	-0.377108	0.004085
C174	C	-0.599920	0.122892	0.504085
C175	C	-1.055745	-0.425021	0.050450
C176	C	-0.555745	0.074979	0.550450
C177	C	-1.112257	-0.466791	0.102004
C178	C	-0.612257	0.033209	0.602004
H179	H	-1.134495	-0.409714	-0.023064
H180	H	-0.634495	0.090286	0.476936
H181	H	-1.133637	-0.340329	0.034766
H182	H	-0.633637	0.159671	0.534766
H183	H	-1.022042	-0.461795	0.019773
H184	H	-0.522042	0.038205	0.519773
H185	H	-1.021173	-0.392434	0.077616
H186	H	-0.521173	0.107566	0.577616
H187	H	-1.145974	-0.430012	0.132685
H188	H	-0.645974	0.069988	0.632685
H189	H	-1.146829	-0.499393	0.074849
H190	H	-0.646829	0.000607	0.574849
H191	H	-1.082293	-0.499299	0.133474
H192	H	-0.582293	0.000701	0.633474
H193	H	-0.879146	-0.365725	-0.196651
H194	H	-0.379146	0.134275	0.303349
C195	C	-0.826034	-0.000100	0.261626
C196	C	-0.326034	0.499900	0.761626
C197	C	-0.840883	-0.000133	0.341146
C198	C	-0.340883	0.499867	0.841146
C199	C	-0.764515	-0.000181	0.371736
C200	C	-0.264515	0.499819	0.871736
H201	H	-0.795075	0.046123	0.245052
H202	H	-0.295075	0.546123	0.745052
H203	H	-0.795121	-0.046347	0.245019
H204	H	-0.295121	0.453653	0.745019
H205	H	-0.871784	0.046110	0.357748
H206	H	-0.371784	0.546110	0.857748
H207	H	-0.871829	-0.046353	0.357742
H208	H	-0.371829	0.453647	0.857742
H209	H	-0.733601	-0.046428	0.355128
H210	H	-0.233601	0.453572	0.855128
H211	H	-0.733562	0.046044	0.355155
H212	H	-0.233562	0.546044	0.855155
H213	H	-0.774579	-0.000210	0.425693
H214	H	-0.274579	0.499790	0.925693
H215	H	-1.114616	-0.000126	0.683364
H216	H	-0.614616	0.499874	1.183364
H217	H	-1.084697	-0.634345	-0.009980
H218	H	-0.584697	-0.134345	0.490020
H219	H	-0.839717	-0.000101	0.650538
H220	H	-0.339717	0.499899	1.150538
H221	H	-1.084712	-0.785746	-0.009984
H222	H	-0.584712	-0.285746	0.490016
H223	H	-0.879167	-0.634330	-0.196667
H224	H	-0.379167	-0.134330	0.303333
H225	H	-0.849218	-0.000047	0.110001
H226	H	-0.349218	0.499953	0.610001
C227	C	-0.863721	-0.203135	-0.210703
C228	C	-0.363721	0.296865	0.289297
C229	C	-0.814139	-0.257532	-0.255777
C230	C	-0.314139	0.242468	0.244223
C231	C	-0.757449	-0.215956	-0.307328
C232	C	-0.257449	0.284044	0.192672
H233	H	-0.829088	-0.170593	-0.183553
H234	H	-0.329088	0.329407	0.316447
H235	H	-0.893538	-0.170583	-0.242258
H236	H	-0.393538	0.329417	0.257742
H237	H	-0.784325	-0.290070	-0.224226
H238	H	-0.284325	0.209930	0.275774
H239	H	-0.848749	-0.290076	-0.282944
H240	H	-0.348749	0.209924	0.217056
H241	H	-0.787265	-0.183404	-0.338883
H242	H	-0.287265	0.316596	0.161117
H243	H	-0.722822	-0.183415	-0.280172
H244	H	-0.222822	0.316585	0.219828
H245	H	-0.723806	-0.252858	-0.337922
H246	H	-0.223806	0.247142	0.162078
H247	H	-1.124118	-0.000086	0.142825
H248	H	-0.624118	0.499914	0.642825
H249	H	-1.117133	-0.000116	0.540140
H250	H	-0.617133	0.499884	1.040140
C251	C	-1.142064	-0.000138	0.299087
C252	C	-0.642064	0.499862	0.799087
C253	C	-1.209313	-0.000168	0.255542
C254	C	-0.709313	0.499832	0.755542
C255	C	-1.284488	-0.000233	0.303923
C256	C	-0.784488	0.499767	0.803923
H257	H	-1.144804	0.046078	0.330270
H258	H	-0.644804	0.546078	0.830270
H259	H	-1.144707	-0.046393	0.330253
H260	H	-0.644707	0.453607	0.830253
H261	H	-1.206672	0.046082	0.224388
H262	H	-0.706672	0.546082	0.724388
H263	H	-1.206601	-0.046381	0.224360
H264	H	-0.706601	0.453619	0.724360
H265	H	-1.287131	-0.046487	0.335089
H266	H	-0.787131	0.453513	0.835089
H267	H	-1.287219	0.045984	0.335104
H268	H	-0.787219	0.545984	0.835104
H269	H	-1.330125	-0.000260	0.274385
H270	H	-0.830125	0.499740	0.774385
