data_functionalizedCrystal
_audit_creation_method	'MofGen! by Chris Wilmer'
_symmetry_space_group_name_H-M	'P1'
_symmetry_Int_Tables_number	1
_symmetry_cell_setting	triclinic
loop_
_symmetry_equiv_pos_as_xyz
  x,y,z
_cell_length_a	12.759401
_cell_length_b	19.805405
_cell_length_c	12.759393
_cell_angle_alpha	89.962372
_cell_angle_beta	89.981504
_cell_angle_gamma	90.026572
loop_
_atom_site_label
_atom_site_type_symbol
_atom_site_fract_x
_atom_site_fract_y
_atom_site_fract_z
Zn1	Zn	1.606170	-0.269420	-0.593937
Zn2	Zn	1.606028	-0.382625	-0.418239
Zn3	Zn	1.430472	-0.269456	-0.418276
Zn4	Zn	1.430425	-0.382573	-0.593880
O5	O	1.518274	-0.326019	-0.506083
O6	O	1.753172	-0.284444	-0.570638
O7	O	1.582701	-0.367650	-0.271222
O8	O	1.453858	-0.174735	-0.441618
O9	O	1.753068	-0.367615	-0.441553
O10	O	1.582942	-0.174708	-0.570675
O11	O	1.453720	-0.284505	-0.271250
O12	O	1.283445	-0.284454	-0.441563
O13	O	1.453777	-0.367527	-0.740909
O14	O	1.283410	-0.367561	-0.570578
O15	O	1.582896	-0.284394	-0.740951
O16	O	1.582655	-0.477335	-0.441498
O17	O	1.453640	-0.477297	-0.570541
C18	C	1.245306	-0.326006	-0.506069
C19	C	1.128530	-0.326017	-0.506088
C20	C	1.518155	-0.501875	-0.506032
C21	C	1.518201	-0.577107	-0.506046
C22	C	1.073677	-0.369360	-0.573155
C23	C	0.963953	-0.369369	-0.573166
C24	C	0.963944	-0.282689	-0.439034
C25	C	1.073666	-0.282678	-0.439029
C26	C	1.073681	-0.419406	-0.650592
C27	C	0.963957	-0.419414	-0.650603
C28	C	1.585444	-0.612448	-0.438923
C29	C	1.585489	-0.683137	-0.438946
C30	C	1.518284	-0.718482	-0.506088
C31	C	1.451038	-0.683136	-0.573217
C32	C	1.450999	-0.612449	-0.573199
C33	C	1.451193	-0.968209	-0.573295
C34	C	1.451234	-1.038901	-0.573306
C35	C	1.585683	-1.038897	-0.439043
C36	C	1.585644	-0.968210	-0.439024
C37	C	1.518402	-0.932870	-0.506157
C38	C	1.518356	-0.856221	-0.506133
C39	C	1.518324	-0.795129	-0.506108
C40	C	1.792307	-0.326032	-0.506098
C41	C	1.909084	-0.326037	-0.506104
C42	C	1.518347	-0.325950	-0.780117
C43	C	1.518379	-0.325921	-0.896893
C44	C	1.518421	-0.149476	-0.506157
C45	C	1.518484	-0.074244	-0.506189
C46	C	1.585620	-0.282630	-0.951779
C47	C	1.585645	-0.282605	-1.061503
C48	C	1.451184	-0.369170	-1.061446
C49	C	1.451154	-0.369190	-0.951724
C50	C	1.663254	-0.232655	-0.951812
C51	C	1.663279	-0.232630	-1.061537
C52	C	1.518261	-0.326038	-0.233116
C53	C	1.518433	-0.325876	-0.116340
H54	H	1.118323	-0.247379	-0.384423
C55	C	1.378090	-0.416255	-0.892322
C56	C	1.319243	-0.454151	-0.963829
C57	C	1.251927	-0.497518	-0.909147
H58	H	1.332239	-0.390433	-0.849534
H59	H	1.418203	-0.445798	-0.849522
H60	H	1.279133	-0.424611	-1.006612
H61	H	1.365066	-0.479985	-1.006619
H62	H	1.292040	-0.527061	-0.866346
H63	H	1.206083	-0.471691	-0.866360
H64	H	1.211998	-0.523240	-0.957655
H65	H	0.919260	-0.247404	-0.384438
H66	H	1.396450	-0.404396	-1.106103
C67	C	1.766278	-0.257815	-0.906559
C68	C	1.784466	-0.323977	-0.940583
C69	C	1.879367	-0.347174	-0.898929
H70	H	1.762822	-0.257030	-0.832203
H71	H	1.821778	-0.229458	-0.929599
H72	H	1.728980	-0.352326	-0.917537
H73	H	1.787942	-0.324779	-1.014934
H74	H	1.934868	-0.318817	-0.921969
H75	H	1.875902	-0.346386	-0.824574
H76	H	1.891725	-0.392065	-0.922015
H77	H	1.744645	-0.246670	-1.091313
H78	H	1.107680	-0.469175	-0.621299
H79	H	1.640438	-1.067680	-0.384384
C80	C	1.113239	-0.400718	-0.759192
C81	C	1.027742	-0.389298	-0.825628
C82	C	1.064141	-0.372073	-0.925671
H83	H	1.154568	-0.436577	-0.786258
H84	H	1.154585	-0.360909	-0.754922
H85	H	0.986412	-0.429103	-0.829902
H86	H	0.986404	-0.353437	-0.798595
H87	H	1.105488	-0.332263	-0.921401
H88	H	1.105471	-0.407934	-0.952727
H89	H	1.006138	-0.364316	-0.970758
H90	H	1.634181	-0.182825	-1.095593
C91	C	0.924132	-0.489312	-0.621552
C92	C	0.863260	-0.514898	-0.703731
C93	C	0.826566	-0.579285	-0.677012
H94	H	0.882678	-0.486497	-0.559860
H95	H	0.981994	-0.518453	-0.609391
H96	H	0.805406	-0.485764	-0.715878
H97	H	0.904692	-0.517729	-0.765430
H98	H	0.884429	-0.608427	-0.664851
H99	H	0.785117	-0.576464	-0.615319
H100	H	0.785269	-0.596656	-0.732769
H101	H	1.640166	-0.583675	-0.384245
C102	C	1.658533	-0.721386	-0.365951
C103	C	1.717355	-0.675302	-0.307123
C104	C	1.784647	-0.710512	-0.239857
H105	H	1.704402	-0.748917	-0.406066
H106	H	1.618404	-0.748993	-0.320093
H107	H	1.757481	-0.647707	-0.352975
H108	H	1.671514	-0.647770	-0.266986
H109	H	1.744518	-0.738119	-0.193999
H110	H	1.830509	-0.738041	-0.279981
H111	H	1.824558	-0.679250	-0.199927
H112	H	0.929966	-0.400703	-0.727958
C113	C	1.658727	-0.929957	-0.366089
C114	C	1.717648	-0.976039	-0.307330
C115	C	1.784997	-0.940826	-0.240144
H116	H	1.618666	-0.902424	-0.320177
H117	H	1.704521	-0.902352	-0.406292
H118	H	1.671859	-1.003632	-0.267130
H119	H	1.757730	-1.003573	-0.353214
H120	H	1.830791	-0.913221	-0.280347
H121	H	1.744928	-0.913294	-0.194239
H122	H	1.824990	-0.972087	-0.200275
H123	H	1.396509	-1.067677	-0.627989
H124	H	1.396440	-0.939440	-0.627955
C125	C	1.378110	-0.721631	-0.646000
C126	C	1.392512	-0.791100	-0.631630
C127	C	1.325335	-0.826581	-0.698647
H128	H	1.393373	-0.710084	-0.716644
H129	H	1.307499	-0.710129	-0.630548
H130	H	1.463106	-0.802598	-0.647089
H131	H	1.377241	-0.802667	-0.560999
H132	H	1.254724	-0.815079	-0.683196
H133	H	1.340604	-0.815029	-0.769287
H134	H	1.335091	-0.873720	-0.688899
H135	H	1.396244	-0.583674	-0.627858
C136	C	1.634172	-0.162729	-0.912342
C137	C	1.616413	-0.119935	-0.997893
C138	C	1.589606	-0.055520	-0.961574
H139	H	1.689811	-0.145235	-0.871019
H140	H	1.572377	-0.165557	-0.871008
H141	H	1.678200	-0.117105	-1.039210
H142	H	1.560770	-0.137408	-1.039225
H143	H	1.527812	-0.058348	-0.920239
H144	H	1.645249	-0.038033	-0.920250
H145	H	1.577544	-0.026478	-1.019613
