data_functionalizedCrystal
_audit_creation_method	'MofGen! by Chris Wilmer'
_symmetry_space_group_name_H-M	'P1'
_symmetry_Int_Tables_number	1
_symmetry_cell_setting	triclinic
loop_
_symmetry_equiv_pos_as_xyz
  x,y,z
_cell_length_a	12.827893
_cell_length_b	18.101397
_cell_length_c	12.827893
_cell_angle_alpha	90.014250
_cell_angle_beta	90.003976
_cell_angle_gamma	90.020436
loop_
_atom_site_label
_atom_site_type_symbol
_atom_site_fract_x
_atom_site_fract_y
_atom_site_fract_z
Zn1	Zn	1.597475	-0.294958	0.590799
Zn2	Zn	1.597400	-0.418769	0.416039
Zn3	Zn	1.422763	-0.294945	0.416073
Zn4	Zn	1.422686	-0.418762	0.590738
O5	O	1.510081	-0.356858	0.503412
O6	O	1.743701	-0.311389	0.567628
O7	O	1.574235	-0.402341	0.269807
O8	O	1.446002	-0.191314	0.439290
O9	O	1.743646	-0.402353	0.439232
O10	O	1.574362	-0.191323	0.567661
O11	O	1.445930	-0.311368	0.269832
O12	O	1.276517	-0.311362	0.439231
O13	O	1.445871	-0.402341	0.736982
O14	O	1.276460	-0.402329	0.567558
O15	O	1.574288	-0.311383	0.737027
O16	O	1.574161	-0.522400	0.439173
O17	O	1.445799	-0.522395	0.567524
C18	C	1.238571	-0.356844	0.503392
C19	C	1.122418	-0.356856	0.503408
C20	C	1.070633	-0.401939	0.566810
C21	C	0.950583	-0.401953	0.566829
C22	C	1.509992	-0.549269	0.503361
C23	C	1.510049	-0.631583	0.503375
C24	C	1.510182	-0.930674	0.503470
C25	C	1.590719	-0.899321	0.422499
C26	C	1.590998	-0.813702	0.422708
C27	C	1.510116	-0.782291	0.503422
C28	C	1.539944	-0.813321	0.613572
C29	C	1.540567	-0.898966	0.613131
C30	C	1.399603	-0.899177	0.475245
C31	C	1.400150	-0.813527	0.472786
C32	C	1.510077	-0.698432	0.503401
C33	C	1.510224	-1.014533	0.503498
C34	C	1.782651	-0.356873	0.503433
C35	C	1.898804	-0.356879	0.503441
C36	C	1.510079	-0.356862	0.775982
C37	C	1.510079	-0.356864	0.892135
C38	C	1.510199	-0.163696	0.503486
C39	C	1.510250	-0.081382	0.503517
C40	C	1.446540	-0.401869	0.943898
C41	C	1.446538	-0.401872	1.063948
C42	C	1.510075	-0.356871	1.231902
C43	C	1.510076	-0.356869	1.115749
H44	H	0.943331	-0.318282	0.449154
O45	O	1.129627	-0.453053	0.638701
H46	H	1.073431	-0.486076	0.685153
H47	H	1.672183	-0.920793	0.440959
O48	O	1.063420	-0.305752	0.431508
H49	H	1.013699	-0.268167	0.478420
O50	O	1.566306	-0.785905	0.314520
H51	H	1.554060	-0.833635	0.261577
H52	H	1.392149	-0.440401	0.899337
O53	O	1.566936	-0.927230	0.314144
H54	H	1.497379	-0.963669	0.316817
H55	H	0.906049	-0.440553	0.621106
O56	O	1.582147	-0.305831	1.056800
H57	H	1.535359	-0.268183	1.007075
O58	O	1.699497	-0.786487	0.447442
H59	H	1.723316	-0.807210	0.525306
O60	O	1.647632	-0.925367	0.644788
H61	H	1.698478	-0.876963	0.660262
O62	O	1.466255	-0.926447	0.695778
H63	H	1.430038	-0.878563	0.735888
H64	H	1.372462	-0.920822	0.396316
O65	O	1.464634	-0.786367	0.695648
H66	H	1.405006	-0.750481	0.658714
H67	H	1.619867	-0.791818	0.637885
O68	O	1.370338	-0.786668	0.365417
H69	H	1.433568	-0.751216	0.333995
O70	O	1.316383	-0.785213	0.545176
H71	H	1.334284	-0.802572	0.626201
H72	H	1.339597	-0.919455	0.534220
H73	H	1.392134	-0.440398	1.108463
O74	O	1.582117	-0.305817	0.951159
H75	H	1.635214	-0.338992	1.000893
