data_functionalizedCrystal
_audit_creation_method	'MofGen! by Chris Wilmer'
_symmetry_space_group_name_H-M	'P1'
_symmetry_Int_Tables_number	1
_symmetry_cell_setting	triclinic
loop_
_symmetry_equiv_pos_as_xyz
  x,y,z
_cell_length_a	28.938199
_cell_length_b	28.937346
_cell_length_c	28.934044
_cell_angle_alpha	60.005004
_cell_angle_beta	60.009897
_cell_angle_gamma	59.994060
loop_
_atom_site_label
_atom_site_type_symbol
_atom_site_fract_x
_atom_site_fract_y
_atom_site_fract_z
O1	O	0.064043	-0.675186	0.564597
O2	O	0.564043	-0.175186	1.064597
O3	O	0.024124	-0.525682	0.454913
O4	O	0.524124	-0.025682	0.954913
O5	O	0.118795	-0.620275	0.454833
O6	O	0.618795	-0.120275	0.954833
O7	O	-0.030629	-0.580593	0.564678
O8	O	0.469371	-0.080593	1.064678
O9	O	0.150204	-0.588870	0.486157
O10	O	0.650204	-0.088870	0.986157
O11	O	0.055533	-0.494276	0.486238
O12	O	0.555533	0.005724	0.986238
O13	O	0.095452	-0.643780	0.595921
O14	O	0.595452	-0.143780	1.095921
Cu15	Cu	0.078360	-0.566161	0.543940
Cu16	Cu	0.578360	-0.066161	1.043940
Cu17	Cu	0.041215	-0.603301	0.506895
Cu18	Cu	0.541215	-0.103301	1.006895
O19	O	0.000780	-0.549187	0.596002
O20	O	0.500780	-0.049187	1.096002
N21	N	0.104487	-0.540042	0.569998
N22	N	0.604487	-0.040042	1.069998
N23	N	0.015094	-0.629425	0.480837
N24	N	0.515094	-0.129425	0.980837
C25	C	0.165467	-0.323909	0.630915
C26	C	0.665467	0.176091	1.130915
C27	C	0.165587	-0.479117	0.786068
C28	C	0.665587	0.020883	1.286068
C29	C	0.165481	-0.479095	0.630906
C30	C	0.665481	0.020905	1.130906
C31	C	0.320696	-0.479083	0.630835
C32	C	0.820696	0.020917	1.130835
C33	C	0.182557	-0.375118	0.647971
C34	C	0.682557	0.124882	1.147971
C35	C	0.182626	-0.462038	0.734858
C36	C	0.682626	0.037962	1.234858
C37	C	0.269485	-0.462018	0.647928
C38	C	0.769485	0.037982	1.147928
C39	C	0.182566	-0.462025	0.647966
C40	C	0.682566	0.037975	1.147966
C41	C	0.143714	-0.258726	0.609206
C42	C	0.643714	0.241274	1.109206
C43	C	0.143738	-0.500820	0.609192
C44	C	0.643738	-0.000820	1.109192
C45	C	0.204309	-0.440300	0.669680
C46	C	0.704309	0.059700	1.169680
C47	C	0.415481	-0.462740	0.580919
C48	C	0.915481	0.037260	1.080919
C49	C	0.474732	-0.482485	0.561145
C50	C	0.974732	0.017515	1.061145
C51	C	0.474757	-0.578356	0.597704
C52	C	0.974757	-0.078356	1.097704
C53	C	0.415508	-0.558609	0.617479
C54	C	0.915508	-0.058609	1.117479
C55	C	0.157989	-0.229089	0.550957
C56	C	0.657989	0.270911	1.050957
C57	C	0.138212	-0.169834	0.531225
C58	C	0.638212	0.330166	1.031225
C59	C	0.089890	-0.169857	0.627992
C60	C	0.589890	0.330143	1.127992
C61	C	0.109667	-0.229112	0.647725
C62	C	0.609667	0.270888	1.147725
C63	C	0.085482	-0.486515	0.623535
C64	C	0.585482	0.013485	1.123535
C65	C	0.065722	-0.506265	0.603789
C66	C	0.565722	-0.006265	1.103789
C67	C	0.162467	-0.554625	0.555370
C68	C	0.662467	-0.054625	1.055370
C69	C	0.182230	-0.534875	0.575110
C70	C	0.682230	-0.034875	1.075110
C71	C	0.085661	-0.486557	0.880902
C72	C	0.585661	0.013443	1.380902
C73	C	0.065952	-0.506323	0.940155
C74	C	0.565952	-0.006323	1.440155
C75	C	0.162734	-0.554693	0.940102
C76	C	0.662734	-0.054693	1.440102
C77	C	0.182441	-0.534928	0.880847
C78	C	0.682441	-0.034928	1.380847
C79	C	0.143904	-0.500859	0.851249
C80	C	0.643904	-0.000859	1.351249
C81	C	0.385871	-0.500801	0.609083
C82	C	0.885871	-0.000801	1.109083
C83	C	-0.110907	-0.668480	0.441278
C84	C	0.389093	-0.168480	0.941278
C85	C	-0.024049	-0.668588	0.441475
C86	C	0.475951	-0.168588	0.941475
C87	C	-0.045729	-0.690282	0.419668
C88	C	0.454271	-0.190282	0.919668
C89	C	-0.062146	-0.785032	0.469507
C90	C	0.437854	-0.285032	0.969507
C91	C	-0.042446	-0.844287	0.489286
C92	C	0.457554	-0.344287	0.989286
C93	C	0.053426	-0.844399	0.452899
C94	C	0.553426	-0.344399	0.952899
C95	C	0.033725	-0.785144	0.433120
C96	C	0.533725	-0.285144	0.933120
C97	C	-0.140617	-0.682751	0.499509
C98	C	0.359383	-0.182751	0.999509
C99	C	-0.199867	-0.662928	0.519152
C100	C	0.300133	-0.162928	1.019152
C101	C	-0.199694	-0.614571	0.422330
C102	C	0.300306	-0.114571	0.922330
C103	C	-0.140443	-0.634393	0.402687
C104	C	0.359557	-0.134393	0.902687
C105	C	-0.038320	-0.610337	0.427144
C106	C	0.461680	-0.110337	0.927144
C107	C	-0.018610	-0.590621	0.446974
C108	C	0.481390	-0.090621	0.946974
C109	C	0.029642	-0.687402	0.495454
C110	C	0.529642	-0.187402	0.995454
C111	C	0.009933	-0.707121	0.475630
C112	C	0.509933	-0.207121	0.975630
C113	C	-0.038148	-0.610347	0.324832
C114	C	0.461852	-0.110347	0.824832
C115	C	-0.018301	-0.590634	0.265579
C116	C	0.481699	-0.090634	0.765579
C117	C	0.030035	-0.687421	0.265643
C118	C	0.530035	-0.187421	0.765643
C119	C	0.010190	-0.707133	0.324897
C120	C	0.510190	-0.207133	0.824897
C121	C	-0.023903	-0.668595	0.354491
C122	C	0.476097	-0.168595	0.854491
C123	C	-0.024062	-0.755463	0.441426
C124	C	0.475938	-0.255463	0.941426
N125	N	0.503527	-0.540005	0.569810
N126	N	1.003527	-0.040005	1.069810
O127	O	0.684453	-0.545211	0.434650
O128	O	1.184453	-0.045211	0.934650
O129	O	0.684643	-0.655237	0.584005
O130	O	1.184643	-0.155237	1.084005
O131	O	0.684567	-0.654986	0.489282
O132	O	1.184567	-0.154986	0.989282
O133	O	0.684529	-0.545462	0.529373
O134	O	1.184529	-0.045462	1.029373
O135	O	0.590438	-0.623674	0.520735
O136	O	1.090438	-0.123674	1.020735
O137	O	0.590513	-0.623924	0.615457
O138	O	1.090513	-0.123924	1.115457
O139	O	0.590323	-0.513899	0.466102
O140	O	1.090323	-0.013899	0.966102
Cu141	Cu	0.581823	-0.566053	0.543652
Cu142	Cu	1.081823	-0.066053	1.043652
Cu143	Cu	0.693143	-0.603083	0.506456
Cu144	Cu	1.193143	-0.103083	1.006456
O145	O	0.590399	-0.514149	0.560825
O146	O	1.090399	-0.014149	1.060825
N147	N	0.771439	-0.629131	0.480292
N148	N	1.271439	-0.129131	0.980292
N149	N	0.104456	-0.141061	0.570015
N150	N	0.604456	0.358939	1.070015
O151	O	-0.030629	0.039964	0.564688
O152	O	0.469371	0.539964	1.064688
O153	O	0.118732	0.039984	0.454661
O154	O	0.618732	0.539984	0.954661
O155	O	0.023980	0.039958	0.454946
O156	O	0.523980	0.539958	0.954946
O157	O	0.064123	0.039990	0.564403
O158	O	0.564123	0.539990	1.064403
O159	O	0.055392	-0.054179	0.486321
O160	O	0.555392	0.445821	0.986321
O161	O	0.150144	-0.054153	0.486036
O162	O	0.650144	0.445847	0.986036
O163	O	0.000784	-0.054173	0.596063
O164	O	0.500784	0.445827	1.096063
Cu165	Cu	0.078332	-0.062759	0.543914
Cu166	Cu	0.578332	0.437241	1.043914
Cu167	Cu	0.041183	0.048570	0.506810
Cu168	Cu	0.541183	0.548570	1.006810
O169	O	0.095535	-0.054147	0.595778
O170	O	0.595535	0.445853	1.095778
N171	N	0.015053	0.126872	0.480710
N172	N	0.515053	0.626872	0.980710
N173	N	0.104760	-0.540096	0.968910
N174	N	0.604760	-0.040096	1.468910
O175	O	0.099447	-0.675167	1.149923
O176	O	0.599447	-0.175167	1.649923
O177	O	-0.010552	-0.525757	1.149951
O178	O	0.489448	-0.025757	1.649951
O179	O	-0.010297	-0.620493	1.149918
O180	O	0.489703	-0.120493	1.649918
O181	O	0.099192	-0.580431	1.149956
O182	O	0.599192	-0.080431	1.649956
O183	O	0.021064	-0.589100	1.055785
O184	O	0.521064	-0.089100	1.555785
O185	O	0.020809	-0.494365	1.055818
O186	O	0.520809	0.005635	1.555818
O187	O	0.130808	-0.643774	1.055790
O188	O	0.630808	-0.143774	1.555790
Cu189	Cu	0.078672	-0.566203	1.047209
Cu190	Cu	0.578672	-0.066203	1.547209
Cu191	Cu	0.041584	-0.603328	1.158532
Cu192	Cu	0.541584	-0.103328	1.658532
O193	O	0.130553	-0.549038	1.055823
O194	O	0.630553	-0.049038	1.555823
N195	N	0.015495	-0.629442	1.236831
N196	N	0.515495	-0.129442	1.736831
C197	C	0.036087	-0.491140	0.455465
C198	C	0.536087	0.008860	0.955465
C199	C	0.153325	-0.608283	0.455364
C200	C	0.653325	-0.108283	0.955364
C201	C	0.083488	-0.678322	0.595370
C202	C	0.583488	-0.178322	1.095370
C203	C	-0.033750	-0.561180	0.595470
C204	C	0.466250	-0.061180	1.095470
C205	C	0.637601	-0.654732	0.618548
C206	C	1.137601	-0.154732	1.118548
C207	C	0.637509	-0.654422	0.501245
C208	C	1.137509	-0.154422	1.001245
C209	C	0.637362	-0.514403	0.431560
C210	C	1.137362	-0.014403	0.931560
C211	C	0.637458	-0.514713	0.548862
C212	C	1.137458	-0.014713	1.048862
C213	C	0.153215	-0.006966	0.455158
C214	C	0.653215	0.493034	0.955158
C215	C	0.035916	-0.007114	0.455550
C216	C	0.535916	0.492886	0.955550
C217	C	-0.033739	-0.007106	0.595527
C218	C	0.466261	0.492894	1.095527
C219	C	0.083600	-0.007076	0.595174
C220	C	0.583600	0.492924	1.095174
C221	C	-0.010020	-0.491238	1.102888
C222	C	0.489980	0.008762	1.602888
C223	C	-0.009698	-0.608550	1.102828
C224	C	0.490302	-0.108550	1.602828
C225	C	0.130276	-0.678293	1.102853
C226	C	0.630276	-0.178293	1.602853
C227	C	0.129961	-0.560974	1.102892
C228	C	0.629961	-0.060974	1.602892
H229	H	0.018524	-0.494668	0.964293
H230	H	0.518524	0.005332	1.464293
O231	O	0.048168	-0.453442	0.656658
O232	O	0.548168	0.046558	1.156658
C233	C	0.078102	-0.439064	0.670997
C234	C	0.578102	0.060936	1.170997
H235	H	0.122382	-0.471706	0.667444
H236	H	0.622382	0.028294	1.167444
H237	H	0.054732	-0.438425	0.716268
H238	H	0.554732	0.061575	1.216268
H239	H	0.081397	-0.395437	0.640875
H240	H	0.581397	0.104563	1.140875
H241	H	0.164813	-0.721202	1.102837
H242	H	0.664813	-0.221202	1.602837
H243	H	0.027560	-0.448192	0.421017
H244	H	0.527560	0.051808	0.921017
O245	O	0.204233	-0.006577	0.413774
O246	O	0.704233	0.493423	0.913774
C247	C	0.196480	0.042284	0.366241
C248	C	0.696480	0.542284	0.866241
H249	H	0.151292	0.058351	0.367018
H250	H	0.651292	0.558351	0.867018
H251	H	0.227452	0.031527	0.325928
H252	H	0.727452	0.531527	0.825928
H253	H	0.204425	0.076486	0.367339
H254	H	0.704425	0.576486	0.867339
O255	O	-0.084870	-0.007136	0.636808
O256	O	0.415130	0.492864	1.136808
C257	C	-0.084836	-0.007111	0.685507
C258	C	0.415164	0.492889	1.185507
H259	H	-0.039427	-0.024924	0.684824
H260	H	0.460573	0.475076	1.184824
H261	H	-0.109982	-0.034443	0.724911
H262	H	0.390018	0.465557	1.224911
H263	H	-0.105070	0.038054	0.686167
H264	H	0.394930	0.538054	1.186167
H265	H	0.092195	-0.007066	0.629560
H266	H	0.592195	0.492934	1.129560
O267	O	-0.051168	-0.440024	1.102922
O268	O	0.448832	0.059976	1.602922
C269	C	-0.030791	-0.404800	1.102924
C270	C	0.469209	0.095200	1.602924
H271	H	0.005545	-0.432020	1.120746
H272	H	0.505545	0.067980	1.620746
H273	H	-0.066359	-0.377683	1.130260
H274	H	0.433641	0.122317	1.630260
H275	H	-0.015082	-0.376214	1.057768
H276	H	0.484918	0.123786	1.557768
H277	H	0.164358	-0.552401	1.102897
H278	H	0.664358	-0.052401	1.602897
O279	O	0.048146	-0.453485	0.852241
O280	O	0.548146	0.046515	1.352241
C281	C	-0.007486	-0.445088	0.891122
C282	C	0.492514	0.054912	1.391122
H283	H	-0.007347	-0.480819	0.933349
H284	H	0.492653	0.019181	1.433349
H285	H	-0.035637	-0.444774	0.874021
H286	H	0.464363	0.055226	1.374021
H287	H	-0.024462	-0.402880	0.897435
H288	H	0.475538	0.097120	1.397435
O289	O	0.200246	-0.587800	0.968766
O290	O	0.700246	-0.087800	1.468766
C291	C	0.255880	-0.596173	0.929887
C292	C	0.755880	-0.096173	1.429887
H293	H	0.255743	-0.589539	0.887655
H294	H	0.755743	-0.089539	1.387655
H295	H	0.284029	-0.641115	0.946984
H296	H	0.784029	-0.141115	1.446984
H297	H	0.272853	-0.564638	0.923585
H298	H	0.772853	-0.064638	1.423585
O299	O	0.204563	-0.618454	0.414280
O300	O	0.704563	-0.118454	0.914280
C301	C	0.239731	-0.674075	0.434734
C302	C	0.739731	-0.174075	0.934734
H303	H	0.224372	-0.689064	0.482944
H304	H	0.724372	-0.189064	0.982944
H305	H	0.285084	-0.674792	0.417400
H306	H	0.785084	-0.174792	0.917400
H307	H	0.238174	-0.703345	0.420396
H308	H	0.738174	-0.203345	0.920396
O309	O	0.239017	-0.548889	0.852018
O310	O	0.739017	-0.048889	1.352018
C311	C	0.253317	-0.578700	0.817730
C312	C	0.753317	-0.078700	1.317730
H313	H	0.219921	-0.598756	0.835598
H314	H	0.719921	-0.098756	1.335598
H315	H	0.296340	-0.613227	0.817035
H316	H	0.796340	-0.113227	1.317035
H317	H	0.255255	-0.548225	0.772831
H318	H	0.755255	-0.048225	1.272831
H319	H	-0.224058	-0.674545	0.566571
H320	H	0.275942	-0.174545	1.066571
O321	O	0.503587	-0.445592	0.533792
O322	O	1.003587	0.054408	1.033792
C323	C	0.562237	-0.475417	0.518124
C324	C	1.062237	0.024583	1.018124
H325	H	0.570349	-0.521589	0.546692
H326	H	1.070349	-0.021589	1.046692
H327	H	0.584768	-0.455805	0.522779
H328	H	1.084768	0.044195	1.022779
H329	H	0.579021	-0.472973	0.472234
H330	H	1.079021	0.027027	0.972234
O331	O	0.025586	-0.007165	0.414600
O332	O	0.525586	0.492835	0.914600
C333	C	-0.030051	-0.007170	0.435229
C334	C	0.469949	0.492830	0.935229
H335	H	-0.044926	-0.024974	0.483440
H336	H	0.455074	0.475026	0.983440
H337	H	-0.030867	-0.034526	0.418021
H338	H	0.469133	0.465474	0.918021
H339	H	-0.059348	0.037984	0.420906
H340	H	0.440652	0.537984	0.920906
O341	O	-0.050647	-0.618839	1.102741
O342	O	0.449353	-0.118839	1.602741
C343	C	-0.030030	-0.674478	1.102725
C344	C	0.469970	-0.174478	1.602725
H345	H	0.018180	-0.689385	1.084935
H346	H	0.518180	-0.189385	1.584935
H347	H	-0.047236	-0.675274	1.075352
H348	H	0.452764	-0.175274	1.575352
H349	H	-0.044362	-0.703765	1.147872
H350	H	0.455638	-0.203765	1.647872
H351	H	0.637300	-0.479859	0.388668
H352	H	1.137300	0.020141	0.888668
H353	H	-0.076669	-0.552723	0.629962
H354	H	0.423331	-0.052723	1.129962
O355	O	0.637425	-0.695420	0.491021
O356	O	1.137425	-0.195420	0.991021
C357	C	0.588655	-0.675945	0.477724
C358	C	1.088655	-0.175945	0.977724
H359	H	0.554573	-0.640815	0.496016
H360	H	1.054573	-0.140815	0.996016
H361	H	0.572327	-0.712415	0.496611
H362	H	1.072327	-0.212415	0.996611
H363	H	0.599629	-0.658858	0.429795
H364	H	1.099629	-0.158858	0.929795
H365	H	0.637450	-0.480310	0.557440
H366	H	1.137450	0.019690	1.057440
H367	H	0.018285	-0.494604	0.615454
H368	H	0.518285	0.005396	1.115454
H369	H	0.193817	-0.582360	0.527624
H370	H	0.693817	-0.082360	1.027624
H371	H	0.391402	-0.589605	0.640414
H372	H	0.891402	-0.089605	1.140414
O373	O	0.238833	-0.548737	0.561077
O374	O	0.738833	-0.048737	1.061077
C375	C	0.263392	-0.528440	0.501728
C376	C	0.763392	-0.028440	1.001728
H377	H	0.235279	-0.522638	0.481011
H378	H	0.735279	-0.022638	0.981011
H379	H	0.306980	-0.560182	0.487849
H380	H	0.806980	-0.060182	0.987849
H381	H	0.267775	-0.486087	0.488330
H382	H	0.767775	0.013913	0.988330
O383	O	0.503484	-0.634512	0.605823
O384	O	1.003484	-0.134512	1.105823
C385	C	0.488997	-0.652605	0.579212
C386	C	0.988997	-0.152605	1.079212
H387	H	0.445964	-0.622559	0.574188
H388	H	0.945964	-0.122559	1.074188
H389	H	0.486991	-0.697186	0.606179
H390	H	0.986991	-0.197186	1.106179
H391	H	0.522322	-0.652701	0.535754
H392	H	1.022322	-0.152701	1.035754
O393	O	0.386753	-0.406561	0.572667
O394	O	0.886753	0.093439	1.072667
C395	C	0.401188	-0.375987	0.514164
C396	C	0.901188	0.124013	1.014164
H397	H	0.444202	-0.401875	0.490821
H398	H	0.944202	0.098125	0.990821
H399	H	0.403210	-0.334215	0.506335
H400	H	0.903210	0.165785	1.006335
H401	H	0.367825	-0.367148	0.498030
H402	H	0.867825	0.132852	0.998030
O403	O	0.191035	-0.257767	0.513463
O404	O	0.691035	0.242233	1.013463
C405	C	0.199400	-0.218900	0.457817
C406	C	0.699400	0.281100	0.957817
H407	H	0.163667	-0.176667	0.457943
H408	H	0.663667	0.323333	0.957943
H409	H	0.199691	-0.236017	0.429692
H410	H	0.699691	0.263983	0.929692
H411	H	0.241604	-0.212588	0.440821
H412	H	0.741604	0.287412	0.940821
H413	H	0.149834	-0.145702	0.483792
H414	H	0.649834	0.354298	0.983792
O415	O	0.637688	-0.695888	0.669744
O416	O	1.137688	-0.195888	1.169744
C417	C	0.637686	-0.675502	0.704970
C418	C	1.137686	-0.175502	1.204970
H419	H	0.655465	-0.639147	0.677756
H420	H	1.155465	-0.139147	1.177756
H421	H	0.665056	-0.711063	0.732060
H422	H	1.165056	-0.211063	1.232060
H423	H	0.592536	-0.659813	0.733580
H424	H	1.092536	-0.159813	1.233580
H425	H	0.062174	-0.145744	0.659359
H426	H	0.562174	0.354256	1.159359
H427	H	0.098041	-0.253238	0.695156
H428	H	0.598041	0.246762	1.195156
H429	H	-0.029909	-0.543201	0.241439
H430	H	0.470091	-0.043201	0.741439
H431	H	-0.065911	-0.578960	0.348925
H432	H	0.434089	-0.078960	0.848925
O433	O	0.093741	-0.729596	0.636398
O434	O	0.593741	-0.229596	1.136398
C435	C	0.149369	-0.764698	0.615866
C436	C	0.649369	-0.264698	1.115866
H437	H	0.164297	-0.749274	0.567656
H438	H	0.664297	-0.249274	1.067656
H439	H	0.150139	-0.810068	0.633155
H440	H	0.650139	-0.310068	1.133155
H441	H	0.178652	-0.763138	0.630185
H442	H	0.678652	-0.263138	1.130185
O443	O	-0.079375	-0.873102	0.516660
O444	O	0.420625	-0.373102	1.016660
C445	C	-0.077112	-0.907345	0.571762
C446	C	0.422888	-0.407345	1.071762
H447	H	-0.034639	-0.916223	0.573087
H448	H	0.465361	-0.416223	1.073087
H449	H	-0.082093	-0.949014	0.583808
H450	H	0.417907	-0.449014	1.083808
H451	H	-0.112772	-0.884489	0.602947
H452	H	0.387228	-0.384489	1.102947
O453	O	0.063078	-0.724914	0.236963
O454	O	0.563078	-0.224914	0.736963
C455	C	0.033134	-0.759108	0.251365
C456	C	0.533134	-0.259108	0.751365
H457	H	-0.001411	-0.759638	0.294345
H458	H	0.498589	-0.259638	0.794345
H459	H	0.063507	-0.804067	0.253446
H460	H	0.563507	-0.304067	0.753446
H461	H	0.013095	-0.741271	0.217949
H462	H	0.513095	-0.241271	0.717949
O463	O	0.023929	-0.763705	0.353769
O464	O	0.523929	-0.263705	0.853769
C465	C	-0.025888	-0.777957	0.387945
C466	C	0.474112	-0.277957	0.887945
H467	H	-0.063107	-0.738877	0.396763
H468	H	0.436893	-0.238877	0.896763
H469	H	-0.020667	-0.812311	0.429645
H470	H	0.479333	-0.312311	0.929645
H471	H	-0.034173	-0.794207	0.365062
H472	H	0.465827	-0.294207	0.865062
H473	H	-0.030233	-0.543188	0.435308
H474	H	0.469767	-0.043188	0.935308
O475	O	-0.071346	-0.572830	0.393995
O476	O	0.428654	-0.072830	0.893995
C477	C	-0.079706	-0.517188	0.385593
C478	C	0.420294	-0.017188	0.885593
H479	H	-0.073151	-0.517301	0.421365
H480	H	0.426849	-0.017301	0.921365
H481	H	-0.124615	-0.489013	0.385196
H482	H	0.375385	0.010987	0.885196
H483	H	-0.048113	-0.500258	0.343425
H484	H	0.451887	-0.000258	0.843425
H485	H	0.057315	-0.718782	0.523258
H486	H	0.557315	-0.218782	1.023258
H487	H	0.021552	-0.754553	0.487300
H488	H	0.521552	-0.254553	0.987300
O489	O	0.070786	-0.756482	0.405784
O490	O	0.570786	-0.256482	0.905784
C491	C	0.111057	-0.770996	0.356962
C492	C	0.611057	-0.270996	0.856962
H493	H	0.113833	-0.814006	0.362301
H494	H	0.613833	-0.314006	0.862301
H495	H	0.154166	-0.773072	0.350573
H496	H	0.654166	-0.273072	0.850573
H497	H	0.097738	-0.737646	0.318534
H498	H	0.597738	-0.237646	0.818534
O499	O	0.109543	-0.873260	0.444936
O500	O	0.609543	-0.373260	0.944936
C501	C	0.117504	-0.907541	0.497869
C502	C	0.617504	-0.407541	0.997869
H503	H	0.079960	-0.889646	0.531995
H504	H	0.579960	-0.389646	1.031995
H505	H	0.158009	-0.908261	0.496296
H506	H	0.658009	-0.408261	0.996296
H507	H	0.120981	-0.952436	0.508120
H508	H	0.620981	-0.452436	1.008120
O509	O	-0.118291	-0.756289	0.477583
O510	O	0.381709	-0.256289	0.977583
C511	C	-0.147679	-0.795098	0.506614
C512	C	0.352321	-0.295098	1.006614
H513	H	-0.117271	-0.837362	0.499829
H514	H	0.382729	-0.337362	0.999829
H515	H	-0.183348	-0.777953	0.489733
H516	H	0.316652	-0.277953	0.989733
H517	H	-0.166184	-0.801362	0.553754
H518	H	0.333816	-0.301362	1.053754
H519	H	-0.116569	-0.710512	0.530934
H520	H	0.383431	-0.210512	1.030934
H521	H	-0.223743	-0.586821	0.390905
H522	H	0.276257	-0.086821	0.890905
H523	H	-0.116252	-0.622767	0.355267
H524	H	0.383748	-0.122767	0.855267
