data_functionalizedCrystal
_audit_creation_method	'MofGen! by Chris Wilmer'
_symmetry_space_group_name_H-M	'P1'
_symmetry_Int_Tables_number	1
_symmetry_cell_setting	triclinic
loop_
_symmetry_equiv_pos_as_xyz
  x,y,z
_cell_length_a	18.215407
_cell_length_b	19.805405
_cell_length_c	18.215399
_cell_angle_alpha	89.969390
_cell_angle_beta	89.982632
_cell_angle_gamma	90.023854
loop_
_atom_site_label
_atom_site_type_symbol
_atom_site_fract_x
_atom_site_fract_y
_atom_site_fract_z
Zn1	Zn	1.125064	-0.269516	-0.416054
Zn2	Zn	1.124969	-0.382707	-0.292982
Zn3	Zn	1.001997	-0.269533	-0.293006
Zn4	Zn	1.001959	-0.382664	-0.416012
O5	O	1.063497	-0.326105	-0.354514
O6	O	1.228036	-0.284543	-0.399735
O7	O	1.108633	-0.367719	-0.190001
O8	O	1.018377	-0.174814	-0.309357
O9	O	1.227966	-0.367704	-0.309315
O10	O	1.108794	-0.174802	-0.399759
O11	O	1.018285	-0.284570	-0.190019
O12	O	0.899007	-0.284528	-0.309316
O13	O	1.018313	-0.367629	-0.519002
O14	O	0.898980	-0.367645	-0.399688
O15	O	1.108758	-0.284501	-0.519033
O16	O	1.108596	-0.477418	-0.309274
O17	O	1.018221	-0.477386	-0.399664
C18	C	0.872291	-0.326084	-0.354501
C19	C	0.790492	-0.326092	-0.354513
C20	C	1.063415	-0.501961	-0.354478
C21	C	1.063446	-0.577193	-0.354487
C22	C	0.602334	-0.282879	-0.401669
C23	C	0.525475	-0.282885	-0.401671
C24	C	0.525413	-0.369350	-0.307371
C25	C	0.602270	-0.369340	-0.307365
C26	C	0.640729	-0.326106	-0.354519
C27	C	0.487013	-0.326121	-0.354527
C28	C	0.403679	-0.326128	-0.354529
C29	C	0.724068	-0.326098	-0.354515
C30	C	1.110550	-0.612531	-0.307471
C31	C	1.110582	-0.683220	-0.307487
C32	C	1.063505	-0.718569	-0.354517
C33	C	1.016399	-0.683225	-0.401539
C34	C	1.016372	-0.612538	-0.401525
C35	C	1.016507	-0.968298	-0.401593
C36	C	1.016536	-1.038991	-0.401601
C37	C	1.110717	-1.038980	-0.307555
C38	C	1.110690	-0.968293	-0.307541
C39	C	1.063587	-0.932956	-0.354566
C40	C	1.063555	-0.856307	-0.354548
C41	C	1.063533	-0.795216	-0.354531
C42	C	1.255450	-0.326126	-0.354527
C43	C	1.337249	-0.326135	-0.354533
C44	C	1.063542	-0.326058	-0.546467
C45	C	1.063561	-0.326038	-0.628265
C46	C	1.063601	-0.149562	-0.354565
C47	C	1.063644	-0.074330	-0.354587
C48	C	1.110673	-0.282713	-0.816477
C49	C	1.110681	-0.282693	-0.893335
C50	C	1.016502	-0.369259	-0.893292
C51	C	1.016490	-0.369275	-0.816435
C52	C	1.063580	-0.326003	-0.778029
C53	C	1.063600	-0.325967	-0.931745
C54	C	1.063609	-0.325946	-1.015079
C55	C	1.063570	-0.326023	-0.694690
C56	C	1.063495	-0.326103	-0.163307
C57	C	1.063619	-0.325932	-0.081509
H58	H	0.633644	-0.247672	-0.440062
H59	H	0.978136	-0.404527	-0.785130
H60	H	1.149028	-0.247441	-0.924636
H61	H	0.494217	-0.247684	-0.440065
C62	C	1.162337	-0.573650	-0.255737
C63	C	1.130466	-0.525116	-0.197919
C64	C	1.182257	-0.486237	-0.146186
C65	C	1.265919	-0.495893	-0.152272
C66	C	1.297794	-0.544429	-0.210092
C67	C	1.246003	-0.583308	-0.261825
H68	H	1.068531	-0.517966	-0.193412
H69	H	1.158660	-0.450307	-0.103384
H70	H	1.304257	-0.467112	-0.113976
H71	H	1.359729	-0.551579	-0.214599
H72	H	1.269600	-0.619239	-0.304627
C73	C	0.483107	-0.416913	-0.255512
C74	C	0.398567	-0.416930	-0.255519
C75	C	0.356263	-0.464496	-0.203661
C76	C	0.398499	-0.512045	-0.151795
C77	C	0.483044	-0.512029	-0.151786
C78	C	0.525348	-0.464463	-0.203644
H79	H	0.367297	-0.381730	-0.293915
H80	H	0.293677	-0.464507	-0.203668
H81	H	0.367183	-0.547256	-0.113406
H82	H	0.514314	-0.547229	-0.113390
H83	H	0.587934	-0.464452	-0.203637
C84	C	0.644510	-0.416895	-0.255497
C85	C	0.633914	-0.411278	-0.171847
C86	C	0.676154	-0.458828	-0.119980
C87	C	0.728990	-0.511994	-0.151762
C88	C	0.739589	-0.517613	-0.235417
C89	C	0.697349	-0.470063	-0.287285
H90	H	0.594799	-0.371919	-0.148316
H91	H	0.668307	-0.454668	-0.058053
H92	H	0.760259	-0.547193	-0.113367
H93	H	0.778704	-0.556972	-0.258948
H94	H	0.705196	-0.474223	-0.349211
C95	C	1.162464	-0.235110	-0.774229
C96	C	1.162457	-0.235125	-0.689689
C97	C	1.214249	-0.187519	-0.647445
C98	C	1.266047	-0.139898	-0.689740
C99	C	1.266056	-0.139881	-0.774285
C100	C	1.214265	-0.187487	-0.816530
H101	H	1.124111	-0.270378	-0.658376
H102	H	1.214242	-0.187531	-0.584859
H103	H	1.304386	-0.104657	-0.658468
H104	H	1.304402	-0.104627	-0.805599
H105	H	1.214272	-0.187474	-0.879115
H106	H	0.978165	-0.404492	-0.924572
H107	H	1.149022	-0.939514	-0.269243
C108	C	1.162401	-0.722092	-0.255772
C109	C	1.214185	-0.683211	-0.204040
C110	C	1.266011	-0.722083	-0.152327
C111	C	1.266054	-0.799836	-0.152346
C112	C	1.214269	-0.838721	-0.204080
C113	C	1.162442	-0.799849	-0.255793
H114	H	1.214155	-0.625650	-0.204025
H115	H	1.304346	-0.693297	-0.114030
H116	H	1.304419	-0.828611	-0.114065
H117	H	1.214298	-0.896283	-0.204095
H118	H	1.124107	-0.828635	-0.294090
C119	C	1.162539	-1.077852	-0.255832
C120	C	1.162578	-1.155605	-0.255844
C121	C	1.214397	-1.194475	-0.204121
C122	C	1.266176	-1.155592	-0.152386
C123	C	1.266139	-1.077835	-0.152373
C124	C	1.214320	-1.038965	-0.204096
H125	H	1.124247	-1.184393	-0.294142
H126	H	1.214424	-1.252037	-0.204131
H127	H	1.304535	-1.184366	-0.114098
H128	H	1.304470	-1.049047	-0.114074
H129	H	1.214293	-0.981404	-0.204085
H130	H	0.978201	-1.067770	-0.439904
H131	H	0.978153	-0.939532	-0.439880
H132	H	0.978071	-0.712012	-0.439834
H133	H	0.978016	-0.583766	-0.439812
