data_functionalizedCrystal
_audit_creation_method	'MofGen! by Chris Wilmer'
_symmetry_space_group_name_H-M	'P1'
_symmetry_Int_Tables_number	1
_symmetry_cell_setting	triclinic
loop_
_symmetry_equiv_pos_as_xyz
  x,y,z
_cell_length_a	14.519709
_cell_length_b	9.065215
_cell_length_c	13.596369
_cell_angle_alpha	89.994989
_cell_angle_beta	89.999709
_cell_angle_gamma	95.652579
loop_
_atom_site_label
_atom_site_type_symbol
_atom_site_fract_x
_atom_site_fract_y
_atom_site_fract_z
O1	O	1.225283	-0.193397	0.081661
O2	O	1.558617	0.139936	0.414994
O3	O	1.891950	0.473270	0.748328
O4	O	0.956973	-0.216172	0.081691
O5	O	1.290306	0.117162	0.415024
O6	O	1.623640	0.450495	0.748358
O7	O	1.096675	0.009962	0.081671
O8	O	1.430009	0.343296	0.415005
O9	O	1.763342	0.676629	0.748338
O10	O	1.085581	-0.419531	0.081681
O11	O	1.418914	-0.086198	0.415014
O12	O	1.752247	0.247136	0.748348
O13	O	1.096661	0.009974	-0.081912
O14	O	1.429995	0.343308	0.251422
O15	O	1.763328	0.676641	0.584755
O16	O	0.956959	-0.216160	-0.081892
O17	O	1.290292	0.117174	0.251441
O18	O	1.623625	0.450507	0.584775
O19	O	1.225269	-0.193385	-0.081922
O20	O	1.558602	0.139948	0.251412
O21	O	1.891936	0.473282	0.584745
Zn22	Zn	1.091112	-0.204770	-0.107879
Zn23	Zn	1.424445	0.128563	0.225454
Zn24	Zn	1.757778	0.461896	0.558787
Zn25	Zn	1.091130	-0.204786	0.107648
Zn26	Zn	1.424464	0.128547	0.440982
Zn27	Zn	1.757797	0.461880	0.774315
O28	O	1.085567	-0.419519	-0.081902
O29	O	1.418900	-0.086186	0.251431
O30	O	1.752233	0.247148	0.584765
C31	C	0.922598	-0.215104	-0.000097
C32	C	1.255932	0.118229	0.333237
C33	C	1.589265	0.451562	0.666570
C34	C	0.820194	-0.211924	-0.000085
C35	C	1.153527	0.121410	0.333248
C36	C	1.486860	0.454743	0.666581
C37	C	0.445212	-0.200215	-0.000130
C38	C	0.778546	0.133119	0.333203
C39	C	1.111879	0.466452	0.666536
C40	C	0.549544	-0.203466	-0.000118
C41	C	0.882877	0.129867	0.333216
C42	C	1.216211	0.463201	0.666549
C43	C	0.632700	-0.206069	-0.000107
C44	C	0.966033	0.127265	0.333226
C45	C	1.299366	0.460598	0.666560
C46	C	0.737038	-0.209321	-0.000096
C47	C	1.070371	0.124012	0.333237
C48	C	1.403705	0.457346	0.666571
C49	C	1.095603	0.064935	-0.000119
C50	C	1.428936	0.398268	0.333214
C51	C	1.762269	0.731602	0.666548
C52	C	1.092416	0.228718	-0.000116
C53	C	1.425750	0.562052	0.333218
C54	C	1.759083	0.895385	0.666551
C55	C	1.259644	-0.194452	-0.000132
C56	C	1.592977	0.138881	0.333201
C57	C	1.926310	0.472214	0.666535
C58	C	1.362048	-0.197633	-0.000137
C59	C	1.695382	0.135700	0.333196
C60	C	2.028715	0.469034	0.666530
C61	C	1.086639	-0.474492	-0.000110
C62	C	1.419973	-0.141158	0.333224
C63	C	1.753306	0.192175	0.666557
C64	C	1.089826	-0.638275	-0.000106
C65	C	1.423159	-0.304942	0.333227
C66	C	1.756492	0.028392	0.666560
N67	N	1.091106	-0.204759	-0.254971
N68	N	1.424439	0.128575	0.078362
N69	N	1.757772	0.461908	0.411696
C70	C	1.091129	-0.204788	-0.656262
C71	C	1.424462	0.128546	-0.322929
C72	C	1.757796	0.461879	0.010405
C73	C	1.091120	-0.204785	-0.544611
C74	C	1.424453	0.128549	-0.211277
C75	C	1.757787	0.461882	0.122056
C76	C	1.091118	-0.204774	-0.455620
C77	C	1.424451	0.128559	-0.122287
C78	C	1.757784	0.461892	0.211047
C79	C	1.091108	-0.204769	-0.343962
C80	C	1.424441	0.128564	-0.010628
C81	C	1.757774	0.461898	0.322705
N82	N	1.091144	-0.204786	0.254740
N83	N	1.424477	0.128547	0.588073
N84	N	1.757810	0.461880	0.921407
