data_functionalizedCrystal
_audit_creation_method	'MofGen! by Chris Wilmer'
_symmetry_space_group_name_H-M	'P1'
_symmetry_Int_Tables_number	1
_symmetry_cell_setting	triclinic
loop_
_symmetry_equiv_pos_as_xyz
  x,y,z
_cell_length_a	8.559649
_cell_length_b	8.597278
_cell_length_c	7.681481
_cell_angle_alpha	103.491538
_cell_angle_beta	85.086760
_cell_angle_gamma	77.625102
loop_
_atom_site_label
_atom_site_type_symbol
_atom_site_fract_x
_atom_site_fract_y
_atom_site_fract_z
O1	O	-2.105024	0.037138	-0.140767
O2	O	-1.639817	-0.045183	-0.153263
O3	O	-1.885142	0.229575	-0.111572
O4	O	-1.859699	-0.237620	-0.182459
O5	O	-1.915337	0.263462	0.186428
O6	O	-1.670013	-0.011297	0.144736
O7	O	-2.135219	0.071024	0.157233
Zn8	Zn	-1.907410	0.035244	0.198298
Zn9	Zn	-1.867626	-0.009403	-0.194329
O10	O	-1.889894	-0.203734	0.115541
C11	C	-1.595385	-0.034479	-0.005211
C12	C	-1.418004	-0.053049	-0.008031
C13	C	-1.899189	0.305776	0.046415
C14	C	-1.896039	0.482341	0.073194
C15	C	-2.179651	0.060319	0.009176
C16	C	-2.357031	0.078888	0.011985
C17	C	-1.875847	-0.279935	-0.042450
C18	C	-1.878995	-0.456502	-0.069241
N19	N	-1.934573	0.065717	0.466256
N20	N	-1.840476	-0.039861	-0.462285
H21	H	-1.334495	-0.180221	-0.027337
H22	H	-1.866795	0.460766	-0.211689
O23	O	-2.049303	0.194337	0.575206
C24	C	-2.262545	0.433733	0.592432
C25	C	-2.132711	0.288123	0.468837
H26	H	-2.329993	0.509620	0.506486
H27	H	-2.351418	0.384777	0.671255
H28	H	-2.202253	0.514669	0.691086
H29	H	-2.192862	0.207131	0.370079
H30	H	-2.043850	0.337192	0.390142
H31	H	-1.908216	0.565058	0.215632
H32	H	-1.440529	0.206050	0.031270
H33	H	-1.744422	-0.147626	0.446166
