data_functionalizedCrystal
_audit_creation_method	'MofGen! by Chris Wilmer'
_symmetry_space_group_name_H-M	'P1'
_symmetry_Int_Tables_number	1
_symmetry_cell_setting	triclinic
loop_
_symmetry_equiv_pos_as_xyz
  x,y,z
_cell_length_a	17.699097
_cell_length_b	16.956984
_cell_length_c	16.176319
_cell_angle_alpha	89.992579
_cell_angle_beta	89.988988
_cell_angle_gamma	79.670925
loop_
_atom_site_label
_atom_site_type_symbol
_atom_site_fract_x
_atom_site_fract_y
_atom_site_fract_z
O1	O	0.997935	0.100901	-0.068815
O2	O	1.497935	0.600901	0.431185
O3	O	0.776761	0.114011	-0.068802
O4	O	1.276761	0.614011	0.431198
O5	O	0.900636	-0.008648	-0.068803
O6	O	1.400636	0.491352	0.431197
O7	O	0.874060	0.223560	-0.068813
O8	O	1.374060	0.723560	0.431187
O9	O	0.900621	-0.008655	0.068690
O10	O	1.400621	0.491345	0.568690
O11	O	0.776746	0.114004	0.068691
O12	O	1.276746	0.614004	0.568691
O13	O	0.997920	0.100894	0.068678
O14	O	1.497920	0.600894	0.568678
Cu15	Cu	0.887331	0.107448	0.081239
Cu16	Cu	1.387331	0.607448	0.581239
Cu17	Cu	0.887350	0.107457	-0.081363
Cu18	Cu	1.387350	0.607457	0.418637
O19	O	0.874045	0.223553	0.068680
O20	O	1.374045	0.723553	0.568680
C21	C	0.748585	0.113536	-0.000053
C22	C	1.248585	0.613536	0.499947
C23	C	0.664654	0.112121	-0.000048
C24	C	1.164654	0.612121	0.499952
C25	C	0.149471	0.103454	-0.075029
C26	C	0.649471	0.603454	0.424971
C27	C	0.228335	0.104778	-0.075025
C28	C	0.728335	0.604778	0.424975
C29	C	0.267752	0.105437	-0.000074
C30	C	0.767752	0.605437	0.499926
C31	C	0.228303	0.104764	0.074878
C32	C	0.728303	0.604764	0.574878
C33	C	0.149442	0.103434	0.074873
C34	C	0.649442	0.603434	0.574873
C35	C	0.546341	0.110124	0.074900
C36	C	1.046341	0.610124	0.574900
C37	C	0.625207	0.111456	0.074899
C38	C	1.125207	0.611456	0.574899
C39	C	0.625234	0.111468	-0.074998
C40	C	1.125234	0.611468	0.425002
C41	C	0.546373	0.110139	-0.075003
C42	C	1.046373	0.610139	0.424997
C43	C	0.506932	0.109461	-0.000052
C44	C	1.006932	0.609461	0.499948
C45	C	0.421419	0.108024	-0.000057
C46	C	0.921419	0.608024	0.499943
C47	C	0.353262	0.106880	-0.000068
C48	C	0.853262	0.606880	0.499932
C49	C	0.901989	-0.038362	-0.000057
C50	C	1.401989	0.461638	0.499943
C51	C	0.906035	-0.126890	-0.000058
C52	C	1.406035	0.373110	0.499942
C53	C	0.838388	-0.158847	-0.000058
C54	C	1.338388	0.341153	0.499942
C55	C	0.842194	-0.242029	-0.000056
C56	C	1.342194	0.257971	0.499944
C57	C	0.913648	-0.293254	-0.000060
C58	C	1.413648	0.206746	0.499940
C59	C	0.981300	-0.261292	-0.000058
C60	C	1.481300	0.238708	0.499942
C61	C	0.977493	-0.178111	-0.000054
C62	C	1.477493	0.321889	0.499946
C63	C	0.932491	-0.543062	-0.000067
C64	C	1.432491	-0.043062	0.499933
C65	C	0.936293	-0.626248	-0.000073
C66	C	1.436293	-0.126248	0.499927
C67	C	0.797186	-0.606980	-0.000069
C68	C	1.297186	-0.106980	0.499931
C69	C	0.793386	-0.523798	-0.000070
C70	C	1.293386	-0.023798	0.499930
C71	C	0.861038	-0.491843	-0.000064
C72	C	1.361038	0.008157	0.499936
N73	N	0.917540	-0.378280	-0.000061
N74	N	1.417540	0.121720	0.499939
N75	N	0.857145	-0.406819	-0.000057
N76	N	1.357145	0.093181	0.499943
C77	C	1.026096	0.101369	-0.000072
C78	C	1.526096	0.601369	0.499928
C79	C	1.110027	0.102784	-0.000083
C80	C	1.610027	0.602784	0.499917
C81	C	0.872692	0.253267	-0.000068
C82	C	1.372692	0.753267	0.499932
C83	C	0.868646	0.341795	-0.000073
C84	C	1.368646	0.841795	0.499927
N85	N	0.887324	0.107441	0.195604
N86	N	1.387324	0.607441	0.695604
N87	N	0.887363	0.107458	-0.195728
N88	N	1.387363	0.607458	0.304272
C89	C	0.942190	0.053150	0.238868
C90	C	1.442190	0.553150	0.738868
C91	C	0.942194	0.053149	0.325415
C92	C	1.442194	0.553149	0.825415
C93	C	0.887335	0.107444	0.368697
C94	C	1.387335	0.607444	0.868697
C95	C	0.832463	0.161737	0.325427
C96	C	1.332463	0.661737	0.825427
C97	C	0.832456	0.161734	0.238882
C98	C	1.332456	0.661734	0.738882
C99	C	0.832488	0.161752	0.674456
C100	C	1.332488	0.661752	1.174456
C101	C	0.832500	0.161753	0.761007
C102	C	1.332500	0.661753	1.261007
C103	C	0.942225	0.053167	0.760988
C104	C	1.442225	0.553167	1.260988
C105	C	0.942219	0.053164	0.674443
C106	C	1.442219	0.553164	1.174443
C107	C	0.887345	0.107454	0.631181
C108	C	1.387345	0.607454	1.131181
C109	C	0.887341	0.107454	0.537337
C110	C	1.387341	0.607454	1.037337
C111	C	0.887342	0.107449	0.462539
C112	C	1.387342	0.607449	0.962539
H113	H	0.514240	0.109561	0.135929
H114	H	1.014240	0.609561	0.635929
H115	H	0.514283	0.109606	-0.136036
H116	H	1.014283	0.609606	0.363964
C117	C	1.002540	-0.006580	0.191265
C118	C	1.502540	0.493420	0.691265
N119	N	1.047996	-0.051573	0.155414
N120	N	1.547996	0.448427	0.655414
H121	H	0.260404	0.105295	0.135904
H122	H	0.760404	0.605295	0.635904
H123	H	0.987578	-0.517055	-0.000064
H124	H	1.487578	-0.017055	0.499936
C125	C	1.002534	-0.006595	0.373001
C126	C	1.502534	0.493405	0.873001
N127	N	1.047978	-0.051604	0.408842
N128	N	1.547978	0.448396	0.908842
C129	C	1.059901	-0.317642	-0.000061
C130	C	1.559901	0.182358	0.499939
N131	N	1.119104	-0.360084	-0.000066
N132	N	1.619104	0.139916	0.499934
C133	C	1.051911	-0.142960	-0.000057
C134	C	1.551911	0.357040	0.499943
N135	N	1.107964	-0.116486	-0.000057
N136	N	1.607964	0.383514	0.499943
C137	C	1.002567	-0.006566	0.626837
C138	C	1.502567	0.493434	1.126837
N139	N	1.048020	-0.051559	0.590982
N140	N	1.548020	0.448441	1.090982
C141	C	0.714781	-0.467456	-0.000077
C142	C	1.214781	0.032544	0.499923
N143	N	0.655574	-0.425020	-0.000089
N144	N	1.155574	0.074980	0.499911
H145	H	0.117326	0.102897	0.135902
H146	H	0.617326	0.602897	0.635902
H147	H	0.986905	0.008958	0.796222
H148	H	1.486905	0.508958	1.296222
C149	C	0.772143	0.221480	0.808616
C150	C	1.272143	0.721480	1.308616
N151	N	0.726684	0.266462	0.844474
N152	N	1.226684	0.766462	1.344474
C153	C	0.759782	-0.102507	-0.000054
C154	C	1.259782	0.397493	0.499946
N155	N	0.700574	-0.060073	-0.000048
N156	N	1.200574	0.439927	0.499952
H157	H	0.787109	-0.268044	-0.000062
H158	H	1.287109	0.231956	0.499938
C159	C	0.772217	0.221577	0.626879
C160	C	1.272217	0.721577	1.126879
N161	N	0.726851	0.266677	0.591041
N162	N	1.226851	0.766677	1.091041
C163	C	0.722774	-0.642137	-0.000062
C164	C	1.222774	-0.142137	0.499938
N165	N	0.666724	-0.668617	-0.000051
N166	N	1.166724	-0.168617	0.499949
H167	H	0.787792	0.205943	0.360673
H168	H	1.287792	0.705943	0.860673
C169	C	1.014901	-0.682594	-0.000078
C170	C	1.514901	-0.182594	0.499922
N171	N	1.074106	-0.725034	-0.000083
N172	N	1.574106	-0.225034	0.499917
H173	H	0.787778	0.205942	0.203657
H174	H	1.287778	0.705942	0.703657
H175	H	0.117382	0.102923	-0.136063
H176	H	0.617382	0.602923	0.363937
H177	H	0.657357	0.112016	-0.136027
H178	H	1.157357	0.612016	0.363973
H179	H	0.260447	0.105319	-0.136053
H180	H	0.760447	0.605319	0.363947
H181	H	0.657299	0.111993	0.135936
H182	H	1.157299	0.611993	0.635936
