data_functionalizedCrystal
_audit_creation_method	'MofGen! by Chris Wilmer'
_symmetry_space_group_name_H-M	'P1'
_symmetry_Int_Tables_number	1
_symmetry_cell_setting	triclinic
loop_
_symmetry_equiv_pos_as_xyz
  x,y,z
_cell_length_a	19.805407
_cell_length_b	13.897447
_cell_length_c	19.805407
_cell_angle_alpha	90.009482
_cell_angle_beta	90.007450
_cell_angle_gamma	90.016846
loop_
_atom_site_label
_atom_site_type_symbol
_atom_site_fract_x
_atom_site_fract_y
_atom_site_fract_z
Zn1	Zn	1.034699	-0.384242	0.382705
Zn2	Zn	1.034648	-0.545508	0.269525
Zn3	Zn	0.921534	-0.384221	0.269534
Zn4	Zn	0.921491	-0.545489	0.382675
O5	O	0.978093	-0.464865	0.326110
O6	O	1.129409	-0.405651	0.367701
O7	O	1.019640	-0.524112	0.174809
O8	O	0.936585	-0.249242	0.284563
O9	O	1.129371	-0.524132	0.284548
O10	O	1.019727	-0.249258	0.367709
O11	O	0.936535	-0.405615	0.174816
O12	O	0.826812	-0.405597	0.284533
O13	O	0.936511	-0.524101	0.477396
O14	O	0.826780	-0.524080	0.367658
O15	O	1.019685	-0.405633	0.477418
O16	O	1.019598	-0.680487	0.284518
O17	O	0.936462	-0.680473	0.367649
C18	C	0.802237	-0.464835	0.326093
C19	C	0.727005	-0.464845	0.326102
C20	C	0.691681	-0.403261	0.369466
C21	C	0.620992	-0.403266	0.369469
C22	C	0.585629	-0.464861	0.326111
C23	C	0.620958	-0.526448	0.282742
C24	C	0.691645	-0.526437	0.282736
C25	C	0.335885	-0.526491	0.282763
C26	C	0.265193	-0.526499	0.282773
C27	C	0.265232	-0.403320	0.369495
C28	C	0.335919	-0.403310	0.369489
C29	C	0.371242	-0.464892	0.326119
C30	C	0.447890	-0.464885	0.326116
C31	C	0.508982	-0.464874	0.326117
C32	C	0.978038	-0.715479	0.326094
C33	C	0.978076	-0.822693	0.326110
C34	C	0.978109	-0.909763	0.326125
C35	C	0.978156	-1.018996	0.326143
C36	C	1.154635	-0.464896	0.326127
C37	C	1.229867	-0.464909	0.326134
C38	C	0.978099	-0.464867	0.502652
C39	C	0.978101	-0.464868	0.577884
C40	C	0.978166	-0.213272	0.326140
C41	C	0.978198	-0.106058	0.326153
C42	C	1.021404	-0.403191	0.613241
C43	C	1.021399	-0.403188	0.683930
C44	C	0.978093	-0.464868	0.719260
C45	C	0.934785	-0.526547	0.683898
C46	C	0.934788	-0.526544	0.613211
C47	C	0.934771	-0.526558	0.968972
C48	C	0.934773	-0.526558	1.039664
C49	C	1.021382	-0.403202	1.039690
C50	C	1.021385	-0.403200	0.969003
C51	C	0.978075	-0.464875	0.933647
C52	C	0.978081	-0.464876	0.856999
C53	C	0.978090	-0.464872	0.795907
C54	C	0.978080	-0.464883	1.150254
C55	C	0.978073	-0.464876	1.075022
H56	H	0.720405	-0.576584	0.247425
C57	C	0.582129	-0.335544	0.417179
C58	C	0.533530	-0.259753	0.387961
C59	C	0.494663	-0.192036	0.435676
C60	C	0.504395	-0.200110	0.512610
C61	C	0.552996	-0.275904	0.541832
C62	C	0.591862	-0.343621	0.494117
H63	H	0.526324	-0.253774	0.331007
H64	H	0.458686	-0.135929	0.414044
H65	H	0.475623	-0.149982	0.547932
H66	H	0.560201	-0.281884	0.598786
H67	H	0.627840	-0.399729	0.515749
C68	C	0.730577	-0.335505	0.417162
C69	C	0.691718	-0.267759	0.464858
C70	C	0.730612	-0.199998	0.512553
C71	C	0.808365	-0.199982	0.512553
C72	C	0.847229	-0.267730	0.464855
C73	C	0.808335	-0.335492	0.417159
H74	H	0.634157	-0.267768	0.464860
H75	H	0.701842	-0.149846	0.547863
H76	H	0.837157	-0.149822	0.547860
H77	H	0.904790	-0.267721	0.464852
H78	H	0.837104	-0.385643	0.381850
C79	C	1.069020	-0.335349	1.078583
C80	C	1.145963	-0.343242	1.068877
C81	C	1.193601	-0.275393	1.107768
C82	C	1.164296	-0.199652	1.156365
C83	C	1.087349	-0.191757	1.166074
C84	C	1.039711	-0.259605	1.127183
H85	H	1.167660	-0.399312	1.032901
H86	H	1.250562	-0.281239	1.100581
H87	H	1.199560	-0.149427	1.185155
H88	H	1.065652	-0.135686	1.202050
H89	H	0.982750	-0.253759	1.134370
C90	C	0.887128	-0.594402	1.078529
C91	C	0.839485	-0.662239	1.039641
C92	C	0.791843	-0.730078	1.078507
C93	C	0.791844	-0.730081	1.156260
C94	C	0.839489	-0.662242	1.195152
C95	C	0.887131	-0.594402	1.156286
H96	H	0.839483	-0.662239	0.982080
H97	H	0.756573	-0.780297	1.049716
H98	H	0.756577	-0.780299	1.185030
H99	H	0.839492	-0.662241	1.252713
H100	H	0.922401	-0.544183	1.185077
H101	H	0.236402	-0.576659	0.247463
C102	C	0.582062	-0.594203	0.235045
C103	C	0.591772	-0.703869	0.240432
C104	C	0.552878	-0.771629	0.192736
C105	C	0.504275	-0.729723	0.139652
C106	C	0.494563	-0.620051	0.134263
C107	C	0.533457	-0.552292	0.181959
H108	H	0.627753	-0.734896	0.279730
H109	H	0.560068	-0.852815	0.196726
H110	H	0.475484	-0.779883	0.104344
H111	H	0.458582	-0.589025	0.094965
H112	H	0.526267	-0.471105	0.177970
H113	H	0.364708	-0.353156	0.404799
H114	H	0.899516	-0.576792	0.940193
H115	H	1.056671	-0.352968	0.584480
H116	H	0.899522	-0.576764	0.712670
C117	C	1.069037	-0.335349	0.722822
C118	C	1.069037	-0.335344	0.800575
C119	C	1.116678	-0.267502	0.839468
C120	C	1.164320	-0.199666	0.800607
C121	C	1.164323	-0.199668	0.722850
C122	C	1.116681	-0.267510	0.683957
H123	H	1.033767	-0.385563	0.829346
H124	H	1.116676	-0.267501	0.897029
H125	H	1.199587	-0.149445	0.829397
H126	H	1.199592	-0.149449	0.694079
H127	H	1.116684	-0.267512	0.626396
H128	H	0.899519	-0.576758	0.584424
H129	H	1.056652	-0.352977	0.940241
C130	C	0.226375	-0.335567	0.417198
C131	C	0.177781	-0.377486	0.470288
C132	C	0.138925	-0.309736	0.517990
C133	C	0.148663	-0.200068	0.512602
C134	C	0.197260	-0.158143	0.459509
C135	C	0.236115	-0.225893	0.411807
H136	H	0.170570	-0.458674	0.474279
H137	H	0.102951	-0.340772	0.557293
H138	H	0.119900	-0.149916	0.547913
H139	H	0.204470	-0.076955	0.455518
H140	H	0.272089	-0.194857	0.372504
H141	H	0.364636	-0.576636	0.247448
