data_functionalizedCrystal
_audit_creation_method	'MofGen! by Chris Wilmer'
_symmetry_space_group_name_H-M	'P1'
_symmetry_Int_Tables_number	1
_symmetry_cell_setting	triclinic
loop_
_symmetry_equiv_pos_as_xyz
  x,y,z
_cell_length_a	14.519709
_cell_length_b	15.538191
_cell_length_c	12.996460
_cell_angle_alpha	90.004229
_cell_angle_beta	90.005823
_cell_angle_gamma	114.523881
loop_
_atom_site_label
_atom_site_type_symbol
_atom_site_fract_x
_atom_site_fract_y
_atom_site_fract_z
O1	O	-0.299351	-1.249392	0.085572
O2	O	-0.192926	-0.975313	0.085574
O3	O	-0.382821	-1.119619	0.085564
O4	O	-0.109456	-1.105085	0.085582
O5	O	-0.382836	-1.119638	-0.085570
O6	O	-0.192940	-0.975331	-0.085560
O7	O	-0.299366	-1.249411	-0.085562
Cu8	Cu	-0.246154	-1.112373	-0.101187
Cu9	Cu	-0.246137	-1.112351	0.101199
O10	O	-0.109470	-1.105104	-0.085551
C11	C	-0.181798	-0.940245	0.000007
C12	C	-0.148631	-0.835727	0.000007
C13	C	-0.416960	-1.118951	-0.000003
C14	C	-0.518659	-1.116921	-0.000004
C15	C	-0.310493	-1.284478	0.000008
C16	C	-0.343661	-1.388996	0.000014
C17	C	-0.891041	-1.109449	0.000023
C18	C	-0.787431	-1.111524	0.000015
C19	C	-0.704853	-1.113185	0.000009
C20	C	-0.601237	-1.115261	0.000003
C21	C	-0.075331	-1.105772	0.000018
C22	C	0.026368	-1.107802	0.000025
N23	N	-0.246169	-1.112395	-0.243534
C24	C	-0.478139	-0.547382	0.000001
C25	C	-0.446950	-0.449168	0.000004
C26	C	-0.271519	-0.427021	0.000016
C27	C	-0.302694	-0.525234	0.000008
C28	C	-0.406005	-0.585407	0.000002
C29	C	-0.230559	-0.563260	0.000008
C30	C	-0.261732	-0.661465	0.000006
C31	C	-0.365038	-0.721644	0.000003
C32	C	-0.437177	-0.683612	-0.000001
C33	C	-0.127249	-0.503085	0.000022
C34	C	-0.055115	-0.541111	0.000022
C35	C	-0.086286	-0.639318	0.000012
C36	C	-0.189593	-0.699497	0.000009
C37	C	-0.014147	-0.677349	0.000016
C38	C	-0.045320	-0.775554	0.000014
C39	C	-0.220765	-0.797701	0.000007
N40	N	-0.246132	-1.112336	0.243546
C41	C	-0.246132	-1.112339	0.336652
C42	C	-0.246138	-1.112352	0.453457
C43	C	-0.246150	-1.112367	0.546555
C44	C	-0.246157	-1.112379	0.663368
H45	H	-0.304891	-0.846698	-0.000004
C46	C	0.099491	-0.611155	0.000032
C47	C	0.167574	-0.615521	-0.088827
C48	C	0.281214	-0.549328	-0.088809
C49	C	0.326771	-0.478769	0.000067
C50	C	0.258688	-0.474400	0.088932
C51	C	0.145048	-0.540593	0.088914
H52	H	0.133850	-0.667756	-0.154625
H53	H	0.331614	-0.552563	-0.154594
H54	H	0.410895	-0.429769	0.000080
H55	H	0.292411	-0.422165	0.154730
H56	H	0.094648	-0.537358	0.154699
H57	H	-0.562265	-0.596379	-0.000010
C58	C	0.058524	-0.474915	0.000025
C59	C	0.104093	-0.404347	0.088891
C60	C	0.217732	-0.338152	0.088890
C61	C	0.285803	-0.342526	0.000023
C62	C	0.240234	-0.413097	-0.088850
C63	C	0.126595	-0.479292	-0.088849
H64	H	0.053702	-0.401106	0.154682
H65	H	0.251465	-0.285911	0.154680
H66	H	0.369926	-0.293525	0.000022
H67	H	0.290625	-0.416338	-0.154640
H68	H	0.092862	-0.531533	-0.154639
C69	C	-0.550820	-0.749815	-0.000016
C70	C	-0.618909	-0.745463	-0.088891
C71	C	-0.732546	-0.811667	-0.088906
C72	C	-0.778094	-0.882223	-0.000048
C73	C	-0.710004	-0.886577	0.088833
C74	C	-0.596367	-0.820373	0.088849
H75	H	-0.585193	-0.693232	-0.154675
H76	H	-0.782951	-0.808443	-0.154702
H77	H	-0.862215	-0.931231	-0.000059
H78	H	-0.743720	-0.938809	0.154618
H79	H	-0.545963	-0.823597	0.154645
C80	C	-0.157881	-0.360825	0.000019
C81	C	-0.112312	-0.290257	0.088885
C82	C	0.001328	-0.224062	0.088884
C83	C	0.069398	-0.228436	0.000016
C84	C	0.023830	-0.299007	-0.088856
C85	C	-0.089810	-0.365202	-0.088855
H86	H	-0.162703	-0.287016	0.154675
H87	H	0.035060	-0.171821	0.154673
H88	H	0.153521	-0.179435	0.000016
H89	H	0.074220	-0.302248	-0.154647
H90	H	-0.123542	-0.417443	-0.154645
H91	H	-0.505698	-0.418213	0.000005
H92	H	0.013420	-0.806515	0.000005
H93	H	-0.101872	-0.423121	0.000027
H94	H	-0.390416	-0.801608	0.000014
