data_functionalizedCrystal
_audit_creation_method	'MofGen! by Chris Wilmer'
_symmetry_space_group_name_H-M	'P1'
_symmetry_Int_Tables_number	1
_symmetry_cell_setting	triclinic
loop_
_symmetry_equiv_pos_as_xyz
  x,y,z
_cell_length_a	10.967874
_cell_length_b	11.792241
_cell_length_c	9.482900
_cell_angle_alpha	99.398500
_cell_angle_beta	68.707142
_cell_angle_gamma	84.456842
loop_
_atom_site_label
_atom_site_type_symbol
_atom_site_fract_x
_atom_site_fract_y
_atom_site_fract_z
O1	O	1.746059	0.077825	-0.558320
O2	O	1.367707	0.106876	-0.463538
O3	O	1.566063	-0.073134	-0.513218
O4	O	1.547703	0.257836	-0.508639
O5	O	1.525773	-0.036428	-0.261335
O6	O	1.327417	0.143583	-0.211654
O7	O	1.705769	0.114532	-0.306436
Cu8	Cu	1.512914	0.132409	-0.236046
Cu9	Cu	1.560562	0.088999	-0.533928
O10	O	1.507413	0.294542	-0.256756
C11	C	1.299124	0.125889	-0.325462
C12	C	1.154796	0.127841	-0.289305
C13	C	1.111321	0.109696	-0.403669
C14	C	0.962151	0.111712	-0.366302
C15	C	1.544764	-0.097032	-0.386988
C16	C	1.541312	-0.222927	-0.386125
C17	C	1.534968	-0.453425	-0.384560
C18	C	1.538493	-0.325159	-0.385429
C19	C	1.774352	0.095518	-0.444516
C20	C	1.918682	0.093565	-0.480682
C21	C	1.528712	0.318440	-0.382989
C22	C	1.532166	0.444333	-0.383863
N23	N	1.479411	0.162939	-0.026535
N24	N	1.594075	0.058459	-0.743442
C25	C	1.550671	0.097999	0.027817
C26	C	1.522805	0.123409	0.202213
H27	H	0.991891	0.076544	-0.606265
H28	H	1.081580	0.144874	-0.163731
O29	O	1.425234	0.212069	0.300690
C30	C	1.192059	0.292653	0.405940
C31	C	1.302421	0.192164	0.294385
H32	H	1.092744	0.276608	0.400856
H33	H	1.186821	0.297336	0.529088
H34	H	1.214937	0.378464	0.370380
H35	H	1.279623	0.106300	0.329803
H36	H	1.307633	0.187585	0.171265
H37	H	1.397769	0.237346	0.056043
O38	O	1.647930	0.009100	-0.070618
C39	C	1.729967	-0.197553	-0.138066
C40	C	1.619710	-0.096998	-0.026482
H41	H	1.707204	-0.283353	-0.102403
H42	H	1.735064	-0.202297	-0.261169
H43	H	1.829322	-0.181429	-0.133172
H44	H	1.520297	-0.113050	-0.031239
H45	H	1.614731	-0.092280	0.096571
O46	O	0.874971	0.131887	-0.216424
C47	C	0.809672	0.067930	0.025147
C48	C	0.908512	0.044964	-0.144544
H49	H	0.836737	-0.002345	0.083303
H50	H	0.814106	0.157110	0.089170
H51	H	0.704930	0.065988	0.028557
H52	H	1.013298	0.046845	-0.148097
H53	H	0.903962	-0.044201	-0.208493
H54	H	1.675712	-0.015960	0.173987
H55	H	1.184535	0.092674	-0.529243
