data_functionalizedCrystal
_audit_creation_method	'MofGen! by Chris Wilmer'
_symmetry_space_group_name_H-M	'P1'
_symmetry_Int_Tables_number	1
_symmetry_cell_setting	triclinic
loop_
_symmetry_equiv_pos_as_xyz
  x,y,z
_cell_length_a	25.639242
_cell_length_b	25.639233
_cell_length_c	25.639239
_cell_angle_alpha	89.981253
_cell_angle_beta	90.034213
_cell_angle_gamma	89.977834
loop_
_atom_site_label
_atom_site_type_symbol
_atom_site_fract_x
_atom_site_fract_y
_atom_site_fract_z
Zn1	Zn	0.799225	-0.295742	-0.208277
Zn2	Zn	1.299225	0.204258	0.291723
Zn3	Zn	0.799149	-0.208307	-0.295696
Zn4	Zn	1.299149	0.291693	0.204304
Zn5	Zn	0.711801	-0.208306	-0.208269
Zn6	Zn	1.211801	0.291694	0.291731
Zn7	Zn	0.711746	-0.295696	-0.295676
Zn8	Zn	1.211746	0.204304	0.204324
O9	O	0.755480	-0.252013	-0.251979
O10	O	1.255480	0.247987	0.248021
O11	O	0.872380	-0.284163	-0.219884
O12	O	1.372380	0.215837	0.280116
O13	O	0.787553	-0.135141	-0.284103
O14	O	1.287553	0.364859	0.215897
O15	O	0.723453	-0.219924	-0.135105
O16	O	1.223453	0.280076	0.364895
O17	O	0.872324	-0.219924	-0.284111
O18	O	1.372324	0.280076	0.215889
O19	O	0.787683	-0.284163	-0.135111
O20	O	1.287683	0.215837	0.364889
O21	O	0.723379	-0.135141	-0.219871
O22	O	1.223379	0.364859	0.280129
O23	O	0.638629	-0.219880	-0.219853
O24	O	1.138629	0.280120	0.280147
O25	O	0.723360	-0.368868	-0.284078
O26	O	1.223360	0.131132	0.215922
O27	O	0.638589	-0.284085	-0.284070
O28	O	1.138589	0.215915	0.215930
O29	O	0.787630	-0.368901	-0.219866
O30	O	1.287630	0.131099	0.280134
O31	O	0.787499	-0.219880	-0.368858
O32	O	1.287499	0.280120	0.131142
O33	O	0.723286	-0.284085	-0.368844
O34	O	1.223286	0.215915	0.131156
C35	C	0.619638	-0.251977	-0.251959
C36	C	1.119638	0.248023	0.248041
C37	C	0.561524	-0.251975	-0.251963
C38	C	1.061524	0.248025	0.248037
C39	C	0.755497	-0.388386	-0.251970
C40	C	1.255497	0.111614	0.248030
C41	C	0.755504	-0.446500	-0.251966
C42	C	1.255504	0.053500	0.248034
C43	C	0.201149	-0.285413	-0.285473
C44	C	0.701149	0.214587	0.214527
C45	C	0.146544	-0.285421	-0.285477
C46	C	0.646544	0.214579	0.214523
O47	O	0.118297	-0.313821	-0.313943
O48	O	0.618297	0.186179	0.186057
N49	N	0.119241	-0.252047	-0.251994
N50	N	0.619241	0.247953	0.248006
C51	C	0.146545	-0.218666	-0.218502
C52	C	0.646545	0.281334	0.281498
O53	O	0.118308	-0.190280	-0.190022
O54	O	0.618308	0.309720	0.309978
C55	C	0.201149	-0.218661	-0.218496
C56	C	0.701149	0.281339	0.281504
C57	C	0.228449	-0.252034	-0.251985
C58	C	0.728449	0.247966	0.248015
C59	C	0.228449	-0.318783	-0.318959
C60	C	0.728449	0.181217	0.181041
C61	C	0.283049	-0.318774	-0.318956
C62	C	0.783049	0.181226	0.181044
C63	C	0.310350	-0.285395	-0.285468
C64	C	0.810350	0.214605	0.214532
C65	C	0.283049	-0.252024	-0.251983
C66	C	0.783049	0.247976	0.248017
C67	C	0.228452	-0.185283	-0.185002
C68	C	0.728452	0.314717	0.314998
C69	C	0.283059	-0.185281	-0.185000
C70	C	0.783059	0.314719	0.315000
C71	C	0.310359	-0.218654	-0.218488
C72	C	0.810359	0.281346	0.281512
C73	C	0.364950	-0.218636	-0.218492
C74	C	0.864950	0.281364	0.281508
N75	N	0.392253	-0.252010	-0.251974
N76	N	0.892253	0.247990	0.248026
C77	C	0.364953	-0.285389	-0.285463
C78	C	0.864953	0.214611	0.214537
C79	C	0.031875	-0.218680	-0.218515
C80	C	0.531875	0.281320	0.281485
C81	C	-0.022728	-0.218683	-0.218523
C82	C	0.477272	0.281317	0.281477
C83	C	-0.022725	-0.285438	-0.285497
C84	C	0.477275	0.214562	0.214503
C85	C	0.031878	-0.285433	-0.285492
C86	C	0.531878	0.214567	0.214508
C87	C	0.059178	-0.252054	-0.251998
C88	C	0.559178	0.247946	0.248002
C89	C	0.479618	-0.285368	-0.285455
C90	C	0.979618	0.214632	0.214545
C91	C	0.534223	-0.285354	-0.285451
C92	C	1.034223	0.214646	0.214549
C93	C	0.534216	-0.218601	-0.218475
C94	C	1.034216	0.281399	0.281525
C95	C	0.479615	-0.218612	-0.218481
C96	C	0.979615	0.281388	0.281519
C97	C	0.452318	-0.252000	-0.251972
C98	C	0.952318	0.248000	0.248028
O99	O	0.393232	-0.190252	-0.190038
O100	O	0.893232	0.309748	0.309962
O101	O	0.393197	-0.313776	-0.313933
O102	O	0.893197	0.186224	0.186067
C103	C	0.789012	-0.806886	-0.218432
C104	C	1.289012	-0.306886	0.281568
C105	C	0.789019	-0.861491	-0.218417
C106	C	1.289019	-0.361491	0.281583
O107	O	0.817466	-0.889747	-0.189967
O108	O	1.317466	-0.389747	0.310033
N109	N	0.755562	-0.888783	-0.251844
N110	N	1.255562	-0.388783	0.248156
C111	C	0.722093	-0.861468	-0.285283
C112	C	1.222093	-0.361468	0.214717
O113	O	0.693636	-0.889695	-0.313713
O114	O	1.193636	-0.389695	0.186287
C115	C	0.722084	-0.806864	-0.285294
C116	C	1.222084	-0.306864	0.214706
C117	C	0.755547	-0.779575	-0.251870
C118	C	1.255547	-0.279575	0.248130
C119	C	0.822472	-0.779597	-0.185009
C120	C	1.322472	-0.279597	0.314991
C121	C	0.822466	-0.724997	-0.185025
C122	C	1.322466	-0.224997	0.314975
C123	C	0.789000	-0.697685	-0.218462
C124	C	1.289000	-0.197685	0.281538
C125	C	0.755541	-0.724974	-0.251885
C126	C	1.255541	-0.224974	0.248115
C127	C	0.688613	-0.779550	-0.318731
C128	C	1.188613	-0.279550	0.181269
C129	C	0.688607	-0.724943	-0.318739
C130	C	1.188607	-0.224943	0.181261
C131	C	0.722069	-0.697654	-0.285314
C132	C	1.222069	-0.197654	0.214686
C133	C	0.722070	-0.643063	-0.285338
C134	C	1.222070	-0.143063	0.214662
N135	N	0.755526	-0.615771	-0.251912
N136	N	1.255526	-0.115771	0.248088
C137	C	0.788992	-0.643082	-0.218474
C138	C	1.288992	-0.143082	0.281526
C139	C	0.722113	-0.976138	-0.285256
C140	C	1.222113	-0.476138	0.214744
C141	C	0.722124	-1.030741	-0.285247
C142	C	1.222124	-0.530741	0.214753
C143	C	0.789049	-1.030760	-0.218381
C144	C	1.289049	-0.530760	0.281619
C145	C	0.789041	-0.976157	-0.218392
C146	C	1.289041	-0.476157	0.281608
C147	C	0.755570	-0.948846	-0.251829
C148	C	1.255570	-0.448846	0.248171
C149	C	0.788977	-0.528417	-0.218509
C150	C	1.288977	-0.028417	0.281491
C151	C	0.788970	-0.473811	-0.218529
C152	C	1.288970	0.026189	0.281471
C153	C	0.722043	-0.473797	-0.285393
C154	C	1.222043	0.026203	0.214607
C155	C	0.722052	-0.528397	-0.285375
C156	C	1.222052	-0.028397	0.214625
C157	C	0.755521	-0.555706	-0.251929
C158	C	1.255521	-0.055706	0.248071
O159	O	0.693635	-0.614771	-0.313773
O160	O	1.193635	-0.114771	0.186227
O161	O	0.817439	-0.614847	-0.190044
O162	O	1.317439	-0.114847	0.309956
C163	C	0.891853	-0.252049	-0.252000
C164	C	1.391853	0.247951	0.248000
C165	C	0.949967	-0.252064	-0.252009
C166	C	1.449967	0.247936	0.247991
C167	C	0.755392	-0.251989	-0.387822
C168	C	1.255392	0.248011	0.112178
C169	C	0.755403	-0.251996	-0.445936
C170	C	1.255403	0.248004	0.054064
C171	C	0.755494	-0.116170	-0.251951
C172	C	1.255494	0.383830	0.248049
C173	C	0.755588	-0.058057	-0.251807
C174	C	1.255588	0.441943	0.248193
C175	C	0.789004	-0.218638	-0.806294
C176	C	1.289004	0.281362	-0.306294
C177	C	0.789024	-0.218645	-0.860898
C178	C	1.289024	0.281355	-0.360898
O179	O	0.817502	-0.190257	-0.889131
O180	O	1.317502	0.309743	-0.389131
N181	N	0.755572	-0.252048	-0.888218
N182	N	1.255572	0.247952	-0.388218
C183	C	0.722102	-0.285449	-0.860932
C184	C	1.222102	0.214551	-0.360932
O185	O	0.693651	-0.313861	-0.889184
O186	O	1.193651	0.186139	-0.389184
C187	C	0.722085	-0.285444	-0.806328
C188	C	1.222085	0.214556	-0.306328
C189	C	0.755535	-0.252036	-0.779011
C190	C	1.255535	0.247964	-0.279011
C191	C	0.822452	-0.185233	-0.778976
C192	C	1.322452	0.314767	-0.278976
C193	C	0.822431	-0.185226	-0.724376
C194	C	1.322431	0.314774	-0.224376
C195	C	0.788962	-0.218623	-0.697093
C196	C	1.288962	0.281377	-0.197093
C197	C	0.755514	-0.252028	-0.724410
C198	C	1.255514	0.247972	-0.224410
C199	C	0.688617	-0.318847	-0.779042
C200	C	1.188617	0.181153	-0.279042
C201	C	0.688603	-0.318840	-0.724435
C202	C	1.188603	0.181160	-0.224435
C203	C	0.722053	-0.285432	-0.697118
C204	C	1.222053	0.214568	-0.197118
C205	C	0.722024	-0.285418	-0.642527
C206	C	1.222024	0.214582	-0.142527
N207	N	0.755475	-0.252016	-0.615206
N208	N	1.255475	0.247984	-0.115206
C209	C	0.788944	-0.218618	-0.642490
C210	C	1.288944	0.281382	-0.142490
C211	C	0.722141	-0.285457	-0.975602
C212	C	1.222141	0.214543	-0.475602
C213	C	0.722155	-0.285459	-1.030204
C214	C	1.222155	0.214541	-0.530204
C215	C	0.789078	-0.218656	-1.030167
C216	C	1.289078	0.281344	-0.530167
C217	C	0.789061	-0.218652	-0.975564
C218	C	1.289061	0.281348	-0.475564
C219	C	0.755593	-0.252055	-0.948282
C220	C	1.255593	0.247945	-0.448282
C221	C	0.788897	-0.218605	-0.527824
C222	C	1.288897	0.281395	-0.027824
C223	C	0.788872	-0.218599	-0.473219
C224	C	1.288872	0.281401	0.026781
C225	C	0.721951	-0.285403	-0.473261
C226	C	1.221951	0.214597	0.026739
C227	C	0.721974	-0.285408	-0.527862
C228	C	1.221974	0.214592	-0.027862
C229	C	0.755452	-0.252007	-0.555142
C230	C	1.255452	0.247993	-0.055142
O231	O	0.693562	-0.313793	-0.614260
O232	O	1.193562	0.186207	-0.114260
O233	O	0.817396	-0.190216	-0.614231
O234	O	1.317396	0.309784	-0.114231
C235	C	0.755583	-0.252048	-0.115606
C236	C	1.255583	0.247952	0.384394
C237	C	0.755627	-0.252064	-0.057492
C238	C	1.255627	0.247936	0.442508
H239	H	0.556449	-0.312530	-0.312723
H240	H	1.056449	0.187470	0.187277
H241	H	0.816333	-0.191464	-1.052391
H242	H	1.316333	0.308536	-0.552391
H243	H	0.206227	-0.345967	-0.346229
H244	H	0.706227	0.154033	0.153771
H245	H	-0.044951	-0.191502	-0.191258
H246	H	0.455049	0.308498	0.308742
H247	H	0.849714	-0.702783	-0.157806
H248	H	1.349714	-0.202783	0.342194
C249	C	0.656005	-0.351490	-1.024743
C250	C	1.156005	0.148510	-0.524743
C251	C	0.685383	-0.322180	-1.060228
C252	C	1.185383	0.177820	-0.560228
H253	H	0.633307	-0.374164	-1.043278
H254	H	1.133307	0.125836	-0.543278
H255	H	0.636015	-0.328684	-1.003478
H256	H	1.136015	0.171316	-0.503478
H257	H	0.678771	-0.371507	-1.003413
H258	H	1.178771	0.128493	-0.503413
H259	H	0.662617	-0.302159	-1.081556
H260	H	1.162617	0.197841	-0.581556
H261	H	0.705374	-0.344989	-1.081502
H262	H	1.205374	0.155011	-0.581502
C263	C	0.651720	-0.589779	-0.292608
C264	C	1.151720	-0.089779	0.207392
C265	C	0.685270	-0.558396	-0.322117
C266	C	1.185270	-0.058396	0.177883
H267	H	0.629012	-0.608297	-0.315289
H268	H	1.129012	-0.108297	0.184711
H269	H	0.631743	-0.568469	-0.269835
H270	H	1.131743	-0.068469	0.230165
H271	H	0.671656	-0.613861	-0.272695
H272	H	1.171656	-0.113861	0.227305
H273	H	0.665335	-0.534312	-0.342028
H274	H	1.165335	-0.034312	0.157972
H275	H	0.705250	-0.579708	-0.344899
H276	H	1.205250	-0.079708	0.155101
C277	C	0.026379	-0.152687	-0.152322
C278	C	0.526379	0.347313	0.347678
C279	C	0.061880	-0.181979	-0.181704
C280	C	0.561880	0.318021	0.318296
H281	H	0.044902	-0.130028	-0.129600
H282	H	0.544902	0.369972	0.370400
H283	H	0.005106	-0.175507	-0.132358
H284	H	0.505106	0.324493	0.367642
H285	H	0.005058	-0.132656	-0.175084
H286	H	0.505058	0.367344	0.324916
H287	H	0.083198	-0.202013	-0.158942
H288	H	0.583198	0.297987	0.341058
H289	H	0.083161	-0.159157	-0.201669
H290	H	0.583161	0.340843	0.298331
C291	C	0.859276	-0.211424	-0.589142
C292	C	1.359276	0.288576	-0.089142
C293	C	0.825704	-0.181894	-0.557800
C294	C	1.325704	0.318106	-0.057800
H295	H	0.882002	-0.188759	-0.607643
H296	H	1.382002	0.311241	-0.107643
H297	H	0.839362	-0.231307	-0.613234
H298	H	1.339362	0.268693	-0.113234
H299	H	0.879240	-0.234227	-0.567802
H300	H	1.379240	0.265773	-0.067802
H301	H	0.805738	-0.159093	-0.579140
H302	H	1.305738	0.340907	-0.079140
H303	H	0.845620	-0.162002	-0.533705
H304	H	1.345620	0.337998	-0.033705
C305	C	0.696522	-0.456953	-0.373929
C306	C	1.196522	0.043047	0.126071
C307	C	0.685269	-0.443762	-0.322152
C308	C	1.185269	0.056238	0.177848
H309	H	0.673822	-0.438406	-0.396621
H310	H	1.173822	0.061594	0.103379
H311	H	0.691725	-0.493372	-0.378707
H312	H	1.191725	0.006628	0.121293
H313	H	0.731649	-0.448020	-0.381576
H314	H	1.231649	0.051980	0.118424
H315	H	0.650142	-0.452699	-0.314504
H316	H	1.150142	0.047301	0.185496
H317	H	0.690061	-0.407335	-0.317371
H318	H	1.190061	0.092665	0.182629
H319	H	0.816288	-0.953941	-0.191174
H320	H	1.316288	-0.453941	0.308826
H321	H	0.457399	-0.312556	-0.312726
H322	H	0.957399	0.187444	0.187274
C323	C	0.829834	-0.114948	-0.840441
C324	C	1.329834	0.385052	-0.340441
C325	C	0.859263	-0.148555	-0.808982
C326	C	1.359263	0.351445	-0.308982
H327	H	0.852567	-0.092314	-0.858970
H328	H	1.352567	0.407686	-0.358970
H329	H	0.807081	-0.094893	-0.819182
H330	H	1.307081	0.405107	-0.319182
H331	H	0.809903	-0.134847	-0.864513
H332	H	1.309903	0.365153	-0.364513
H333	H	0.879192	-0.128656	-0.784907
H334	H	1.379192	0.371344	-0.284907
H335	H	0.882026	-0.168611	-0.830243
H336	H	1.382026	0.331389	-0.330243
C337	C	0.658928	-0.348538	-0.862752
C338	C	1.158928	0.151462	-0.362752
C339	C	0.651852	-0.355576	-0.809061
C340	C	1.151852	0.144424	-0.309061
H341	H	0.636228	-0.371214	-0.881282
H342	H	1.136228	0.128786	-0.381282
H343	H	0.694052	-0.356224	-0.871662
H344	H	1.194052	0.143776	-0.371662
H345	H	0.651294	-0.313403	-0.871724
H346	H	1.151294	0.186597	-0.371724
H347	H	0.659490	-0.390710	-0.800087
H348	H	1.159490	0.109290	-0.300087
H349	H	0.616720	-0.347894	-0.800147
H350	H	1.116720	0.152106	-0.300147
H351	H	0.457387	-0.191436	-0.191213
H352	H	0.957387	0.308564	0.308787
C353	C	0.655971	-0.981612	-0.351360
C354	C	1.155971	-0.481612	0.148640
C355	C	0.685328	-0.946121	-0.322023
C356	C	1.185328	-0.446121	0.177977
H357	H	0.633265	-0.963082	-0.374061
H358	H	1.133265	-0.463082	0.125939
H359	H	0.635990	-1.002903	-0.328572
H360	H	1.135990	-0.502903	0.171428
H361	H	0.678749	-1.002916	-0.371350
H362	H	1.178749	-0.502916	0.128650
H363	H	0.662550	-0.924820	-0.302030
H364	H	1.162550	-0.424820	0.197970
H365	H	0.705310	-0.924821	-0.344814
H366	H	1.205310	-0.424821	0.155186
C367	C	0.622460	-0.384880	-0.729961
C368	C	1.122460	0.115120	-0.229961
C369	C	0.651813	-0.355559	-0.694448
C370	C	1.151813	0.144441	-0.194448
H371	H	0.599746	-0.407545	-0.711448
H372	H	1.099746	0.092455	-0.211448
H373	H	0.645237	-0.404901	-0.751226
H374	H	1.145237	0.095099	-0.251226
H375	H	0.602484	-0.362076	-0.751288
H376	H	1.102484	0.137924	-0.251288
H377	H	0.671792	-0.378363	-0.673123
H378	H	1.171792	0.121637	-0.173123
H379	H	0.629033	-0.335536	-0.673173
H380	H	1.129033	0.164464	-0.173173
C381	C	0.277550	-0.384763	-0.385150
C382	C	0.777550	0.115237	0.114850
C383	C	0.313053	-0.355464	-0.355763
C384	C	0.813053	0.144536	0.144237
H385	H	0.296072	-0.407418	-0.407871
H386	H	0.796072	0.092582	0.092129
H387	H	0.256234	-0.361948	-0.405117
H388	H	0.756234	0.138052	0.094883
H389	H	0.256273	-0.404799	-0.362392
H390	H	0.756273	0.095201	0.137608
H391	H	0.334328	-0.335425	-0.378521
H392	H	0.834328	0.164575	0.121479
H393	H	0.334378	-0.378282	-0.335795
H394	H	0.834378	0.121718	0.164205
C395	C	0.796361	-1.092171	-0.148033
C396	C	1.296361	-0.592171	0.351967
C397	C	0.825830	-1.060785	-0.181616
C398	C	1.325830	-0.560785	0.318384
H399	H	0.819067	-1.110704	-0.125334
H400	H	1.319067	-0.610704	0.374666
H401	H	0.776441	-1.116234	-0.167941
H402	H	1.276441	-0.616234	0.332059
H403	H	0.773594	-1.070857	-0.128041
H404	H	1.273594	-0.570857	0.371959
H405	H	0.848595	-1.082099	-0.201611
H406	H	1.348595	-0.582099	0.298389
H407	H	0.845759	-1.036718	-0.161706
H408	H	1.345759	-0.536718	0.338294
C409	C	0.026384	-0.351419	-0.351690
C410	C	0.526384	0.148581	0.148310
C411	C	0.061884	-0.322122	-0.322298
C412	C	0.561884	0.177878	0.177702
H413	H	0.044907	-0.374072	-0.374410
H414	H	0.544907	0.125928	0.125590
H415	H	0.005069	-0.328603	-0.371657
H416	H	0.505069	0.171397	0.128343
H417	H	0.005104	-0.371456	-0.328935
H418	H	0.505104	0.128544	0.171065
H419	H	0.083161	-0.302081	-0.345053
H420	H	0.583161	0.197919	0.154947
H421	H	0.083208	-0.344941	-0.302330
H422	H	0.583208	0.155059	0.197670
C423	C	0.692219	-0.315053	-0.389569
C424	C	1.192219	0.184947	0.110431
C425	C	0.685165	-0.322115	-0.443264
C426	C	1.185165	0.177885	0.056736
H427	H	0.669513	-0.337723	-0.371051
H428	H	1.169513	0.162277	0.128949
H429	H	0.684583	-0.279919	-0.380648
H430	H	1.184583	0.220081	0.119352
H431	H	0.727343	-0.322737	-0.380594
H432	H	1.227343	0.177263	0.119406
H433	H	0.650041	-0.314427	-0.452241
H434	H	1.150041	0.185573	0.047759
H435	H	0.692797	-0.357257	-0.452189
H436	H	1.192797	0.142743	0.047811
C437	C	0.818558	-0.188915	-0.389502
C438	C	1.318558	0.311085	0.110498
C439	C	0.825642	-0.181874	-0.443192
C440	C	1.325642	0.318126	0.056808
H441	H	0.841256	-0.166241	-0.370967
H442	H	1.341256	0.333759	0.129033
H443	H	0.826184	-0.224046	-0.380531
H444	H	1.326184	0.275954	0.119469
H445	H	0.783429	-0.181223	-0.380596
H446	H	1.283429	0.318777	0.119404
H447	H	0.860771	-0.189570	-0.452099
H448	H	1.360771	0.310430	0.047901
H449	H	0.818020	-0.146735	-0.452167
H450	H	1.318020	0.353265	0.047833
H451	H	-0.044963	-0.312619	-0.312763
H452	H	0.455037	0.187381	0.187237
C453	C	0.233957	-0.119313	-0.118791
C454	C	0.733957	0.380687	0.381209
C455	C	0.198453	-0.148603	-0.148185
C456	C	0.698453	0.351397	0.351815
H457	H	0.215437	-0.096671	-0.096057
H458	H	0.715437	0.403329	0.403943
H459	H	0.255229	-0.099269	-0.141540
H460	H	0.755229	0.400731	0.358460
H461	H	0.255280	-0.142138	-0.098833
H462	H	0.755280	0.357862	0.401167
H463	H	0.177133	-0.125778	-0.168146
H464	H	0.677133	0.374222	0.331854
H465	H	0.177173	-0.168649	-0.125433
H466	H	0.677173	0.331351	0.374567
C467	C	0.888589	-0.119205	-0.729841
C468	C	1.388589	0.380795	-0.229841
C469	C	0.859208	-0.148510	-0.694353
C470	C	1.359208	0.351490	-0.194353
H471	H	0.911299	-0.096541	-0.711308
H472	H	1.411299	0.403459	-0.211308
H473	H	0.865829	-0.099182	-0.751164
H474	H	1.365829	0.400818	-0.251164
H475	H	0.908571	-0.142019	-0.751113
H476	H	1.408571	0.357981	-0.251113
H477	H	0.839223	-0.125696	-0.673084
H478	H	1.339223	0.374304	-0.173084
H479	H	0.881971	-0.168534	-0.673021
H480	H	1.381971	0.331466	-0.173021
H481	H	0.305283	-0.158103	-0.157721
H482	H	0.805283	0.341897	0.342279
H483	H	0.816300	-0.191448	-0.953325
H484	H	1.316300	0.308552	-0.453325
C485	C	0.617923	-0.188962	-0.188733
C486	C	1.117923	0.311038	0.311267
C487	C	0.564232	-0.181914	-0.181663
C488	C	1.064232	0.318086	0.318337
H489	H	0.636453	-0.166317	-0.166002
H490	H	1.136453	0.333683	0.333998
H491	H	0.626845	-0.181240	-0.223846
H492	H	1.126845	0.318760	0.276154
H493	H	0.626884	-0.224108	-0.181137
H494	H	1.126884	0.275892	0.318863
H495	H	0.555270	-0.146769	-0.189262
H496	H	1.055270	0.353231	0.310738
H497	H	0.555307	-0.189632	-0.146542
H498	H	1.055307	0.310368	0.353458
H499	H	0.816221	-0.451595	-0.191310
H500	H	1.316221	0.048405	0.308690
H501	H	0.694881	-1.052955	-0.312471
H502	H	1.194881	-0.552955	0.187529
C503	C	0.855135	-0.522936	-0.152421
C504	C	1.355135	-0.022936	0.347579
C505	C	0.825770	-0.558429	-0.181748
C506	C	1.325770	-0.058429	0.318252
H507	H	0.877853	-0.541466	-0.129731
H508	H	1.377853	-0.041466	0.370269
H509	H	0.832367	-0.501637	-0.132425
H510	H	1.332367	-0.001637	0.367575
H511	H	0.875108	-0.501641	-0.175220
H512	H	1.375108	-0.001641	0.324780
H513	H	0.805794	-0.579722	-0.158949
H514	H	1.305794	-0.079722	0.341051
H515	H	0.848541	-0.579737	-0.201746
H516	H	1.348541	-0.079737	0.298254
C517	C	0.714685	-0.355735	-0.589244
C518	C	1.214685	0.144265	-0.089244
C519	C	0.685203	-0.322125	-0.557895
C520	C	1.185203	0.177875	-0.057895
H521	H	0.691985	-0.378402	-0.607786
H522	H	1.191985	0.121598	-0.107786
H523	H	0.737436	-0.375754	-0.567909
H524	H	1.237436	0.124246	-0.067909
H525	H	0.734621	-0.335841	-0.613306
H526	H	1.234621	0.164159	-0.113306
H527	H	0.665270	-0.342019	-0.533831
H528	H	1.165270	0.157981	-0.033831
H529	H	0.662443	-0.302104	-0.579233
H530	H	1.162443	0.197896	-0.079233
C531	C	0.888627	-0.774117	-0.118926
C532	C	1.388627	-0.274117	0.381074
C533	C	0.859265	-0.809612	-0.148253
C534	C	1.359265	-0.309612	0.351747
H535	H	0.911347	-0.792645	-0.096237
H536	H	1.411347	-0.292645	0.403763
H537	H	0.865857	-0.752821	-0.098928
H538	H	1.365857	-0.252821	0.401072
H539	H	0.908598	-0.752819	-0.141724
H540	H	1.408598	-0.252819	0.358276
H541	H	0.839291	-0.830907	-0.125455
H542	H	1.339291	-0.330907	0.374545
H543	H	0.882038	-0.830917	-0.168253
H544	H	1.382038	-0.330917	0.331747
H545	H	0.661364	-0.801759	-0.345949
H546	H	1.161364	-0.301759	0.154051
H547	H	0.694883	-0.312656	-0.953392
H548	H	1.194883	0.187344	-0.453392
C549	C	0.622461	-0.730413	-0.384840
C550	C	1.122461	-0.230413	0.115160
C551	C	0.651823	-0.694924	-0.355505
C552	C	1.151823	-0.194924	0.144495
H553	H	0.599758	-0.711880	-0.407542
H554	H	1.099758	-0.211880	0.092458
H555	H	0.602477	-0.751700	-0.362052
H556	H	1.102477	-0.251700	0.137948
H557	H	0.645237	-0.751720	-0.404829
H558	H	1.145237	-0.251720	0.095171
H559	H	0.629047	-0.673619	-0.335513
H560	H	1.129047	-0.173619	0.164487
H561	H	0.671808	-0.673628	-0.378296
H562	H	1.171808	-0.173628	0.121704
