data_functionalizedCrystal
_audit_creation_method	'MofGen! by Chris Wilmer'
_symmetry_space_group_name_H-M	'P1'
_symmetry_Int_Tables_number	1
_symmetry_cell_setting	triclinic
loop_
_symmetry_equiv_pos_as_xyz
  x,y,z
_cell_length_a	14.853569
_cell_length_b	27.731996
_cell_length_c	13.930277
_cell_angle_alpha	90.010535
_cell_angle_beta	89.995143
_cell_angle_gamma	96.871395
loop_
_atom_site_label
_atom_site_type_symbol
_atom_site_fract_x
_atom_site_fract_y
_atom_site_fract_z
O1	O	-1.195318	0.063113	0.079791
O2	O	-0.695318	0.563113	0.579791
O3	O	-0.932734	0.070630	0.079806
O4	O	-0.432734	0.570630	0.579806
O5	O	-1.072206	-0.003489	0.079778
O6	O	-0.572206	0.496511	0.579778
O7	O	-1.055847	0.137232	0.079820
O8	O	-0.555847	0.637232	0.579820
O9	O	-1.072187	-0.003490	-0.079884
O10	O	-0.572187	0.496510	0.420116
O11	O	-0.932715	0.070628	-0.079855
O12	O	-0.432715	0.570628	0.420145
O13	O	-1.195299	0.063111	-0.079870
O14	O	-0.695299	0.563111	0.420130
Zn15	Zn	-1.064004	0.066870	-0.105213
Zn16	Zn	-0.564004	0.566870	0.394787
Zn17	Zn	-1.064029	0.066872	0.105149
Zn18	Zn	-0.564029	0.566872	0.605149
O19	O	-1.055827	0.137230	-0.079842
O20	O	-0.555827	0.637230	0.420158
C21	C	-0.899142	0.070288	-0.000023
C22	C	-0.399142	0.570288	0.499977
C23	C	-0.799075	0.069267	-0.000018
C24	C	-0.299075	0.569267	0.499982
C25	C	-0.763438	0.024760	-0.000028
C26	C	-0.263438	0.524760	0.499972
C27	C	-0.740686	0.112815	-0.000012
C28	C	-0.240686	0.612815	0.499988
C29	C	-0.646667	0.111857	-0.000013
C30	C	-0.146667	0.611857	0.499987
C31	C	-0.611030	0.067350	-0.000022
C32	C	-0.111030	0.567350	0.499978
C33	C	-0.669411	0.023800	-0.000031
C34	C	-0.169411	0.523800	0.499969
C35	C	-0.588279	0.155405	-0.000013
C36	C	-0.088279	0.655405	0.499987
C37	C	-0.494255	0.154449	-0.000015
C38	C	0.005745	0.654449	0.499985
C39	C	-0.458616	0.109941	-0.000018
C40	C	0.041384	0.609941	0.499982
C41	C	-0.517004	0.066390	-0.000026
C42	C	-0.017004	0.566390	0.499974
C43	C	-0.481367	0.021883	-0.000036
C44	C	0.018633	0.521883	0.499964
C45	C	-0.539753	-0.021669	-0.000037
C46	C	-0.039753	0.478331	0.499963
C47	C	-0.633773	-0.020707	-0.000034
C48	C	-0.133773	0.479293	0.499966
C49	C	-0.364596	0.108980	-0.000021
C50	C	0.135404	0.608980	0.499979
C51	C	-0.387340	0.020924	-0.000039
C52	C	0.112660	0.520924	0.499961
C53	C	-1.071861	-0.021499	-0.000057
C54	C	-0.571861	0.478501	0.499943
C55	C	-1.070848	-0.075160	-0.000066
C56	C	-0.570848	0.424840	0.499934
C57	C	-1.064490	-0.407905	0.087013
C58	C	-0.564490	0.092095	0.587013
C59	C	-1.060646	-0.609581	0.087030
C60	C	-0.560646	-0.109581	0.587030
O61	O	-1.060120	-0.635653	0.161047
O62	O	-0.560120	-0.135653	0.661047
N63	N	-1.060159	-0.634801	-0.000001
N64	N	-0.560159	-0.134801	0.499999
C65	C	-1.060626	-0.609599	-0.087042
C66	C	-0.560626	-0.109599	0.412958
O67	O	-1.060113	-0.635677	-0.161067
O68	O	-0.560113	-0.135677	0.338933
C69	C	-1.064463	-0.407923	-0.087058
C70	C	-0.564463	0.092077	0.412942
C71	C	-1.064960	-0.382706	-0.000022
C72	C	-0.564960	0.117294	0.499978
C73	C	-1.064986	-0.382688	0.174042
C74	C	-0.564986	0.117312	0.674042
C75	C	-1.065952	-0.332272	0.174037
C76	C	-0.565952	0.167728	0.674037
C77	C	-1.066422	-0.307073	0.087002
C78	C	-0.566422	0.192927	0.587002
C79	C	-1.065926	-0.332291	-0.000027
C80	C	-0.565926	0.167709	0.499973
C81	C	-1.064924	-0.382721	-0.174099
C82	C	-0.564924	0.117279	0.325901
C83	C	-1.065881	-0.332299	-0.174095
C84	C	-0.565881	0.167701	0.325905
C85	C	-1.066378	-0.307082	-0.087059
C86	C	-0.566378	0.192918	0.412941
C87	C	-1.067362	-0.256676	-0.087067
C88	C	-0.567362	0.243324	0.412933
N89	N	-1.067850	-0.231456	-0.000036
N90	N	-0.567850	0.268544	0.499964
C91	C	-1.067380	-0.256655	0.086999
C92	C	-0.567380	0.243345	0.586999
C93	C	-1.058613	-0.715482	-0.087028
C94	C	-0.558613	-0.215482	0.412972
C95	C	-1.057655	-0.765901	-0.087024
C96	C	-0.557655	-0.265901	0.412976
C97	C	-1.057674	-0.765879	0.087049
C98	C	-0.557674	-0.265879	0.587049
C99	C	-1.058638	-0.715460	0.087044
C100	C	-0.558638	-0.215460	0.587044
C101	C	-1.059101	-0.690262	0.000003
C102	C	-0.559101	-0.190262	0.500003
C103	C	-1.069409	-0.150778	0.086981
C104	C	-0.569409	0.349222	0.586981
C105	C	-1.070378	-0.100358	0.086968
C106	C	-0.570378	0.399642	0.586968
C107	C	-1.070355	-0.100384	-0.087104
C108	C	-0.570355	0.399616	0.412896
C109	C	-1.069390	-0.150800	-0.087091
C110	C	-0.569390	0.349200	0.412909
C111	C	-1.068914	-0.175995	-0.000041
C112	C	-0.568914	0.324005	0.499959
O113	O	-1.067879	-0.230572	-0.161046
O114	O	-0.567879	0.269428	0.338954
O115	O	-1.067872	-0.230566	0.161012
O116	O	-0.567872	0.269434	0.661012
C117	C	-1.063524	-0.458321	0.087018
C118	C	-0.563524	0.041679	0.587018
C119	C	-1.063028	-0.483538	-0.000012
C120	C	-0.563028	0.016462	0.499988
C121	C	-1.063498	-0.458339	-0.087046
C122	C	-0.563498	0.041661	0.412954
C123	C	-1.062071	-0.533956	-0.000008
C124	C	-0.562071	-0.033956	0.499992
C125	C	-1.061601	-0.559155	0.087027
C126	C	-0.561601	-0.059155	0.587027
C127	C	-1.062089	-0.533935	0.174058
C128	C	-0.562089	-0.033935	0.674058
C129	C	-1.063055	-0.483519	0.174052
C130	C	-0.563055	0.016481	0.674052
C131	C	-1.063010	-0.483559	-0.174077
C132	C	-0.563010	0.016441	0.325923
C133	C	-1.062046	-0.533975	-0.174065
C134	C	-0.562046	-0.033975	0.325935
C135	C	-1.061576	-0.559174	-0.087030
C136	C	-0.561576	-0.059174	0.412970
C137	C	-0.228892	0.063453	-0.000037
C138	C	0.271108	0.563453	0.499963
C139	C	-0.328959	0.064473	-0.000030
C140	C	0.171041	0.564473	0.499970
C141	C	-1.056173	0.155240	-0.000005
C142	C	-0.556173	0.655240	0.499995
C143	C	-1.057185	0.208901	0.000011
C144	C	-0.557185	0.708901	0.500011
N145	N	-1.063994	0.066868	-0.248779
N146	N	-0.563994	0.566868	0.251221
C147	C	-1.002269	0.099678	-0.701035
C148	C	-0.502269	0.599678	-0.201035
C149	C	-1.125815	0.034061	-0.701030
C150	C	-0.625815	0.534061	-0.201030
C151	C	-1.125804	0.034060	-0.600535
C152	C	-0.625804	0.534060	-0.100535
C153	C	-1.064026	0.066868	-0.550285
C154	C	-0.564026	0.566868	-0.050285
C155	C	-1.002258	0.099679	-0.600530
C156	C	-0.502258	0.599679	-0.100530
C157	C	-1.187576	0.001253	-0.550281
C158	C	-0.687576	0.501253	-0.050281
C159	C	-1.187569	0.001251	-0.449779
C160	C	-0.687569	0.501251	0.050221
C161	C	-1.125786	0.034058	-0.399528
C162	C	-0.625786	0.534058	0.100472
C163	C	-1.064015	0.066869	-0.449780
C164	C	-0.564015	0.566869	0.050220
C165	C	-1.002237	0.099678	-0.399530
C166	C	-0.502237	0.599678	0.100470
C167	C	-0.940461	0.132487	-0.449780
C168	C	-0.440461	0.632487	0.050220
C169	C	-0.940475	0.132486	-0.550279
C170	C	-0.440475	0.632486	-0.050279
C171	C	-1.125772	0.034059	-0.299029
C172	C	-0.625772	0.534059	0.200971
C173	C	-1.002226	0.099678	-0.299025
C174	C	-0.502226	0.599678	0.200975
N175	N	-1.064047	0.066870	0.248715
N176	N	-0.564047	0.566870	0.748715
H177	H	-0.681318	-0.056165	-0.000037
H178	H	-0.181318	0.443835	0.499963
H179	H	-1.061710	-0.554461	0.244924
H180	H	-0.561710	-0.054461	0.744924
H181	H	-0.510725	-0.057906	-0.000039
H182	H	-0.010725	0.442094	0.499961
O183	O	-0.935581	0.135065	-0.244841
O184	O	-0.435581	0.635065	0.255159
H185	H	-0.892052	0.114671	-0.199079
H186	H	-0.392052	0.614671	0.300921
H187	H	-0.810980	-0.010699	-0.000025
H188	H	-0.310980	0.489301	0.499975
H189	H	-1.058994	-0.694970	-0.157911
H190	H	-0.558994	-0.194970	0.342089
O191	O	-0.301618	0.155946	-0.000025
O192	O	0.198382	0.655946	0.499975
H193	H	-0.314205	0.177247	0.065054
H194	H	0.185795	0.677247	0.565054
H195	H	-0.769707	0.149051	-0.000011
H196	H	-0.269707	0.649051	0.499989
O197	O	-1.070905	-0.073163	0.180852
O198	O	-0.570905	0.426837	0.680852
H199	H	-1.132817	-0.054466	0.185022
H200	H	-0.632817	0.445534	0.685022
H201	H	-0.951970	0.126390	-0.741952
H202	H	-0.451970	0.626390	-0.241952
H203	H	-1.176117	0.007351	-0.741947
H204	H	-0.676117	0.507351	-0.241947
H205	H	-1.061648	-0.554503	-0.244946
H206	H	-0.561648	-0.054503	0.255054
O207	O	-1.066472	-0.305081	0.267919
O208	O	-0.566472	0.194919	0.767919
H209	H	-1.128380	-0.286382	0.272100
H210	H	-0.628380	0.213618	0.772100
H211	H	-1.176072	0.007348	-0.258120
H212	H	-0.676072	0.507348	0.241880
H213	H	-1.064600	-0.403199	0.244920
H214	H	-0.564600	0.096801	0.744920
O215	O	-1.063534	-0.456385	-0.267954
O216	O	-0.563534	0.043615	0.232046
H217	H	-1.063043	-0.482397	-0.328463
H218	H	-0.563043	0.017603	0.171537
O219	O	-1.254186	-0.034142	-0.395590
O220	O	-0.754186	0.465858	0.104410
H221	H	-1.243802	-0.028631	-0.317264
H222	H	-0.743802	0.471369	0.182736
H223	H	-1.057293	-0.786404	0.157916
H224	H	-0.557293	-0.286404	0.657916
H225	H	-0.617302	0.191641	-0.000012
H226	H	-0.117302	0.691641	0.499988
H227	H	-0.446724	0.189912	-0.000013
H228	H	0.053276	0.689912	0.499987
H229	H	-1.069017	-0.171286	0.157866
H230	H	-0.569017	0.328714	0.657866
O231	O	-1.254210	-0.034130	-0.604475
O232	O	-0.754210	0.465870	-0.104475
H233	H	-1.216605	-0.057665	-0.650271
H234	H	-0.716605	0.442335	-0.150271
H235	H	-0.358332	-0.015320	-0.000042
H236	H	0.141668	0.484680	0.499958
O237	O	-0.873860	0.167874	-0.604481
O238	O	-0.373860	0.667874	-0.104481
H239	H	-0.830894	0.190686	-0.552659
H240	H	-0.330894	0.690686	-0.052659
O241	O	-1.066390	-0.305121	-0.267976
O242	O	-0.566390	0.194879	0.232024
H243	H	-1.065893	-0.331130	-0.328490
H244	H	-0.565893	0.168870	0.171510
O245	O	-1.059159	-0.688261	0.180917
O246	O	-0.559159	-0.188261	0.680917
H247	H	-1.058664	-0.714258	0.241432
H248	H	-0.558664	-0.214258	0.741432
H249	H	-0.890165	0.159203	-0.408855
H250	H	-0.390165	0.659203	0.091145
H251	H	-1.057264	-0.786429	-0.157898
H252	H	-0.557264	-0.286429	0.342102
H253	H	-1.064521	-0.403245	-0.244973
H254	H	-0.564521	0.096755	0.255027
H255	H	-1.070741	-0.079858	-0.157965
H256	H	-0.570741	0.420142	0.342035
O257	O	-1.068857	-0.178003	-0.180962
O258	O	-0.568857	0.321997	0.319038
H259	H	-1.069342	-0.152008	-0.241483
H260	H	-0.569342	0.347992	0.258517
H261	H	-1.063459	-0.462992	0.244927
H262	H	-0.563459	0.037008	0.744927
