data_functionalizedCrystal
_audit_creation_method	'MofGen! by Chris Wilmer'
_symmetry_space_group_name_H-M	'P1'
_symmetry_Int_Tables_number	1
_symmetry_cell_setting	triclinic
loop_
_symmetry_equiv_pos_as_xyz
  x,y,z
_cell_length_a	13.897448
_cell_length_b	17.077404
_cell_length_c	17.077396
_cell_angle_alpha	90.014457
_cell_angle_beta	90.027368
_cell_angle_gamma	90.023133
loop_
_atom_site_label
_atom_site_type_symbol
_atom_site_fract_x
_atom_site_fract_y
_atom_site_fract_z
Zn1	Zn	-0.383875	1.200083	0.443743
Zn2	Zn	0.116125	1.700083	0.943743
Zn3	Zn	-0.545188	1.200002	0.312480
Zn4	Zn	-0.045188	1.700002	0.812480
Zn5	Zn	-0.383923	1.068815	0.312503
Zn6	Zn	0.116077	1.568815	0.812503
Zn7	Zn	-0.545145	1.068795	0.443715
Zn8	Zn	-0.045145	1.568795	0.943715
O9	O	-0.464533	1.134424	0.378110
O10	O	0.035467	1.634424	0.878110
O11	O	-0.405271	1.309919	0.426333
O12	O	0.094729	1.809919	0.926333
O13	O	-0.523834	1.182574	0.202636
O14	O	-0.023834	1.682574	0.702636
O15	O	-0.248935	1.086270	0.329933
O16	O	0.251065	1.586270	0.829933
O17	O	-0.523787	1.309860	0.329894
O18	O	-0.023787	1.809860	0.829894
O19	O	-0.248900	1.182712	0.426355
O20	O	0.251100	1.682712	0.926355
O21	O	-0.405354	1.086192	0.202653
O22	O	0.094646	1.586192	0.702653
O23	O	-0.405312	0.958965	0.329906
O24	O	0.094688	1.458965	0.829906
O25	O	-0.523714	1.086236	0.553566
O26	O	-0.023714	1.586236	1.053566
O27	O	-0.523761	0.958950	0.426307
O28	O	-0.023761	1.458950	0.926307
O29	O	-0.405230	1.182693	0.553586
O30	O	0.094770	1.682693	1.053586
O31	O	-0.680164	1.182555	0.329867
O32	O	-0.180164	1.682555	0.829867
O33	O	-0.680132	1.086157	0.426285
O34	O	-0.180132	1.586157	0.926285
C35	C	-0.464538	0.930476	0.378106
C36	C	0.035462	1.430476	0.878106
C37	C	-0.464564	0.843226	0.378123
C38	C	0.035436	1.343226	0.878123
C39	C	-0.715147	1.134366	0.378087
C40	C	-0.215147	1.634366	0.878087
C41	C	-0.822361	1.134414	0.378104
C42	C	-0.322361	1.634414	0.878104
C43	C	-0.464462	1.134471	0.582854
C44	C	0.035538	1.634471	1.082854
C45	C	-0.464431	1.134491	0.670104
C46	C	0.035569	1.634491	1.170104
C47	C	-1.018656	1.134496	0.378153
C48	C	-0.518656	1.634496	0.878153
C49	C	-0.909424	1.134448	0.378128
C50	C	-0.409424	1.634448	0.878128
C51	C	-0.212940	1.134502	0.378150
C52	C	0.287060	1.634502	0.878150
C53	C	-0.105726	1.134536	0.378167
C54	C	0.394274	1.634536	0.878167
C55	C	-0.464528	1.339168	0.378114
C56	C	0.035472	1.839168	0.878114
C57	C	-0.464526	1.426418	0.378116
C58	C	0.035474	1.926418	0.878116
C59	C	-0.402824	1.467440	0.428326
C60	C	0.097176	1.967440	0.928326
C61	C	-0.402835	1.549420	0.428331
C62	C	0.097165	2.049420	0.928331
C63	C	-0.464543	1.590377	0.378122
C64	C	0.035457	2.090377	0.878122
C65	C	-0.526252	1.549349	0.327911
C66	C	-0.026252	2.049349	0.827911
C67	C	-0.526246	1.467370	0.327910
C68	C	-0.026246	1.967370	0.827910
C69	C	-0.526260	1.720219	0.327914
C70	C	-0.026260	2.220219	0.827914
C71	C	-0.526266	1.802204	0.327914
C72	C	-0.026266	2.302204	0.827914
C73	C	-0.402849	1.802269	0.428336
C74	C	0.097151	2.302269	0.928336
C75	C	-0.402842	1.720290	0.428335
C76	C	0.097158	2.220290	0.928335
C77	C	-0.464550	1.679268	0.378122
C78	C	0.035450	2.179268	0.878122
C79	C	-0.464534	1.134421	0.174162
C80	C	0.035466	1.634421	0.674162
C81	C	-0.464292	1.134553	0.086913
C82	C	0.035708	1.634553	0.586913
C83	C	-0.402731	1.184718	0.711107
C84	C	0.097269	1.684718	1.211107
C85	C	-0.402699	1.184728	0.793087
C86	C	0.097301	1.684728	1.293087
C87	C	-0.464373	1.134514	0.834064
C88	C	0.035627	1.634514	1.334064
C89	C	-0.526075	1.084281	0.793056
C90	C	-0.026075	1.584281	1.293056
C91	C	-0.526102	1.084268	0.711077
C92	C	-0.026102	1.584268	1.211077
C93	C	-0.526017	1.084313	0.963926
C94	C	-0.026017	1.584313	1.463926
C95	C	-0.525992	1.084326	1.045911
C96	C	-0.025992	1.584326	1.545911
C97	C	-0.402615	1.184772	1.045936
C98	C	0.097385	1.684772	1.545936
C99	C	-0.402641	1.184759	0.963957
C100	C	0.097359	1.684759	1.463957
C101	C	-0.464345	1.134528	0.922955
C102	C	0.035655	1.634528	1.422955
H103	H	-0.352567	1.434099	0.469207
H104	H	0.147433	1.934099	0.969207
H105	H	-0.576501	1.582702	0.287033
H106	H	-0.076501	2.082702	0.787033
H107	H	-0.576492	1.433971	0.287026
H108	H	-0.076492	1.933971	0.787026
F109	F	-0.591769	1.030808	0.667440
F110	F	-0.091769	1.530808	1.167440
H111	H	-0.352513	1.225611	0.677749
H112	H	0.147487	1.725611	1.177749
H113	H	-0.576517	1.835548	0.287032
H114	H	-0.076517	2.335548	0.787032
F115	F	-0.591947	1.676562	0.274480
F116	F	-0.091947	2.176562	0.774480
H117	H	-0.576248	1.043396	0.930544
H118	H	-0.076248	1.543396	1.430544
H119	H	-0.352590	1.686946	0.469216
H120	H	0.147410	2.186946	0.969216
F121	F	-0.337167	1.593076	0.481774
F122	F	0.162833	2.093076	0.981774
H123	H	-0.352603	1.835674	0.469220
H124	H	0.147397	2.335674	0.969220
H125	H	-0.576210	1.043436	1.079272
H126	H	-0.076210	1.543436	1.579272
H127	H	-0.352371	1.225671	1.079324
H128	H	0.147629	1.725671	1.579324
F129	F	-0.337007	1.238207	0.920348
F130	F	0.162993	1.738207	1.420348
F131	F	-0.591709	1.030836	0.836669
F132	F	-0.091709	1.530836	1.336669
F133	F	-0.337063	1.238213	0.836721
F134	F	0.162937	1.738213	1.336721
