data_functionalizedCrystal
_audit_creation_method	'MofGen! by Chris Wilmer'
_symmetry_space_group_name_H-M	'P1'
_symmetry_Int_Tables_number	1
_symmetry_cell_setting	triclinic
loop_
_symmetry_equiv_pos_as_xyz
  x,y,z
_cell_length_a	21.395364
_cell_length_b	21.395362
_cell_length_c	21.395356
_cell_angle_alpha	90.027652
_cell_angle_beta	90.016383
_cell_angle_gamma	90.044742
loop_
_atom_site_label
_atom_site_type_symbol
_atom_site_fract_x
_atom_site_fract_y
_atom_site_fract_z
Zn1	Zn	0.957813	-0.249217	0.354253
Zn2	Zn	1.291146	0.084116	0.687586
Zn3	Zn	1.624479	0.417449	1.020919
Zn4	Zn	0.957732	-0.353990	0.249471
Zn5	Zn	1.291065	-0.020657	0.582805
Zn6	Zn	1.624398	0.312677	0.916138
Zn7	Zn	0.853043	-0.249258	0.249489
Zn8	Zn	1.186376	0.084076	0.582823
Zn9	Zn	1.519709	0.417409	0.916156
Zn10	Zn	0.852999	-0.353988	0.354212
Zn11	Zn	1.186332	-0.020655	0.687545
Zn12	Zn	1.519665	0.312678	1.020878
O13	O	0.905396	-0.301613	0.301856
O14	O	1.238730	0.031720	0.635190
O15	O	1.572063	0.365053	0.968523
O16	O	1.045480	-0.263099	0.340363
O17	O	1.378813	0.070234	0.673696
O18	O	1.712147	0.403567	1.007030
O19	O	0.943829	-0.340115	0.161796
O20	O	1.277162	-0.006781	0.495129
O21	O	1.610496	0.326552	0.828463
O22	O	0.866993	-0.161574	0.263411
O23	O	1.200326	0.171759	0.596744
O24	O	1.533660	0.505092	0.930078
O25	O	1.045420	-0.340076	0.263381
O26	O	1.378754	-0.006742	0.596714
O27	O	1.712087	0.326591	0.930047
O28	O	0.943967	-0.161545	0.340380
O29	O	1.277300	0.171789	0.673714
O30	O	1.610634	0.505122	1.007047
O31	O	0.866914	-0.263168	0.161809
O32	O	1.200248	0.070165	0.495142
O33	O	1.533581	0.403498	0.828476
O34	O	0.765359	-0.263167	0.263371
O35	O	1.098692	0.070167	0.596705
O36	O	1.432026	0.403500	0.930038
O37	O	0.866918	-0.340073	0.441895
O38	O	1.200251	-0.006739	0.775228
O39	O	1.533584	0.326594	1.108562
O40	O	0.765327	-0.340112	0.340310
O41	O	1.098660	-0.006778	0.673644
O42	O	1.431993	0.326555	1.006977
O43	O	0.943924	-0.263098	0.441925
O44	O	1.277258	0.070236	0.775258
O45	O	1.610591	0.403569	1.108592
O46	O	0.943786	-0.441668	0.263341
O47	O	1.277120	-0.108334	0.596674
O48	O	1.610453	0.224999	0.930007
O49	O	0.866839	-0.441666	0.340293
O50	O	1.200173	-0.108333	0.673626
O51	O	1.533506	0.225000	1.006960
C52	C	0.742609	-0.301644	0.301839
C53	C	1.075942	0.031689	0.635172
C54	C	1.409275	0.365023	0.968505
C55	C	0.672968	-0.301672	0.301846
C56	C	1.006301	0.031661	0.635179
C57	C	1.339634	0.364995	0.968513
C58	C	0.640308	-0.261656	0.341993
C59	C	0.973641	0.071677	0.675326
C60	C	1.306974	0.405011	1.008659
C61	C	0.574872	-0.261639	0.341995
C62	C	0.908206	0.071694	0.675328
C63	C	1.241539	0.405027	1.008662
C64	C	0.542099	-0.301650	0.301857
C65	C	0.875433	0.031683	0.635191
C66	C	1.208766	0.365017	0.968524
C67	C	0.574767	-0.341669	0.261703
C68	C	0.908100	-0.008335	0.595036
C69	C	1.241434	0.324998	0.928370
C70	C	0.640201	-0.341680	0.261697
C71	C	0.973534	-0.008346	0.595031
C72	C	1.306868	0.324987	0.928364
C73	C	0.438376	-0.358075	0.296818
C74	C	0.771710	-0.024742	0.630151
C75	C	1.105043	0.308592	0.963484
C76	C	0.372944	-0.358065	0.296828
C77	C	0.706277	-0.024732	0.630161
C78	C	1.039610	0.308602	0.963495
C79	C	0.340279	-0.301615	0.301871
C80	C	0.673612	0.031718	0.635205
C81	C	1.006945	0.365051	0.968538
C82	C	0.373054	-0.245174	0.306918
C83	C	0.706388	0.088159	0.640251
C84	C	1.039721	0.421493	0.973584
C85	C	0.438489	-0.245185	0.306912
C86	C	0.771822	0.088148	0.640245
C87	C	1.105155	0.421482	0.973579
C88	C	0.471147	-0.301642	0.301859
C89	C	0.804480	0.031691	0.635192
C90	C	1.137814	0.365025	0.968525
C91	C	0.236666	-0.261578	0.342023
C92	C	0.569999	0.071755	0.675356
C93	C	0.903333	0.405089	1.008689
C94	C	0.171230	-0.261560	0.342021
C95	C	0.504563	0.071773	0.675354
C96	C	0.837896	0.405106	1.008687
C97	C	0.171125	-0.341595	0.261732
C98	C	0.504459	-0.008262	0.595065
C99	C	0.837792	0.325072	0.928399
C100	C	0.236561	-0.341607	0.261731
C101	C	0.569894	-0.008274	0.595064
C102	C	0.903227	0.325060	0.928397
C103	C	0.269327	-0.301599	0.301879
C104	C	0.602661	0.031734	0.635213
C105	C	0.935994	0.365067	0.968546
C106	C	0.905316	-0.464401	0.301824
C107	C	1.238650	-0.131068	0.635157
C108	C	1.571983	0.202266	0.968491
C109	C	0.905339	-0.534042	0.301831
C110	C	1.238673	-0.200709	0.635165
C111	C	1.572006	0.132624	0.968498
C112	C	0.945397	-0.566683	0.341938
C113	C	1.278730	-0.233350	0.675271
C114	C	1.612063	0.099984	1.008604
C115	C	0.945419	-0.632118	0.341953
C116	C	1.278752	-0.298785	0.675286
C117	C	1.612086	0.034548	1.008620
C118	C	0.905390	-0.664911	0.301851
C119	C	1.238723	-0.331577	0.635184
C120	C	1.572057	0.001756	0.968517
C121	C	0.865325	-0.632262	0.261742
C122	C	1.198658	-0.298929	0.595075
C123	C	1.531991	0.034405	0.928408
C124	C	0.865299	-0.566828	0.261732
C125	C	1.198633	-0.233494	0.595065
C126	C	1.531966	0.099839	0.928399
C127	C	0.900521	-0.768619	0.245412
C128	C	1.233854	-0.435286	0.578745
C129	C	1.567188	-0.101952	0.912079
C130	C	0.900551	-0.834052	0.245421
C131	C	1.233884	-0.500719	0.578754
C132	C	1.567217	-0.167385	0.912087
C133	C	0.905464	-0.866731	0.301881
C134	C	1.238798	-0.533398	0.635214
C135	C	1.572131	-0.200065	0.968548
C136	C	0.910362	-0.833969	0.358334
C137	C	1.243695	-0.500636	0.691668
C138	C	1.577028	-0.167303	1.025001
C139	C	0.910336	-0.768535	0.358325
C140	C	1.243670	-0.435202	0.691658
C141	C	1.577003	-0.101869	1.024991
C142	C	0.905413	-0.735863	0.301857
C143	C	1.238746	-0.402530	0.635190
C144	C	1.572079	-0.069196	0.968524
C145	C	0.945548	-0.970325	0.342007
C146	C	1.278881	-0.636991	0.675341
C147	C	1.612215	-0.303658	1.008674
C148	C	0.945565	-1.035761	0.342024
C149	C	1.278899	-0.702428	0.675357
C150	C	1.612232	-0.369094	1.008690
C151	C	0.865475	-1.035903	0.261807
C152	C	1.198808	-0.702570	0.595140
C153	C	1.532141	-0.369237	0.928473
C154	C	0.865454	-0.970468	0.261796
C155	C	1.198787	-0.637135	0.595129
C156	C	1.532120	-0.303801	0.928463
C157	C	0.905494	-0.937682	0.301895
C158	C	1.238827	-0.604349	0.635229
C159	C	1.572160	-0.271016	0.968562
C160	C	1.068820	-0.301583	0.301874
C161	C	1.402153	0.031750	0.635208
C162	C	1.735486	0.365083	0.968541
C163	C	1.138461	-0.301570	0.301882
C164	C	1.471794	0.031763	0.635215
C165	C	1.805128	0.365096	0.968549
C166	C	0.905425	-0.301580	0.465280
C167	C	1.238758	0.031753	0.798613
C168	C	1.572092	0.365086	1.131946
C169	C	0.905437	-0.301566	0.534921
C170	C	1.238771	0.031767	0.868254
C171	C	1.572104	0.365100	1.201588
C172	C	0.905494	-0.138190	0.301902
C173	C	1.238827	0.195143	0.635236
C174	C	1.572161	0.528477	0.968569
C175	C	0.905535	-0.068549	0.301922
C176	C	1.238869	0.264785	0.635255
C177	C	1.572202	0.598118	0.968588
C178	C	0.905404	-0.301601	0.139069
C179	C	1.238737	0.031732	0.472402
C180	C	1.572071	0.365066	0.805735
C181	C	0.905513	-0.301438	0.069428
C182	C	1.238846	0.031895	0.402761
C183	C	1.572180	0.365228	0.736094
C184	C	0.945557	-0.341501	1.036711
C185	C	1.278891	-0.008168	1.370044
C186	C	1.612224	0.325166	1.703378
C187	C	0.945546	-0.341521	0.971276
C188	C	1.278879	-0.008188	1.304609
C189	C	1.612213	0.325146	1.637942
C190	C	0.905497	-0.301467	0.938559
C191	C	1.238830	0.031866	1.271893
C192	C	1.572164	0.365200	1.605226
C193	C	0.865445	-0.261402	0.971284
C194	C	1.198779	0.071932	1.304617
C195	C	1.532112	0.405265	1.637951
C196	C	0.865453	-0.261387	1.036718
C197	C	1.198786	0.071946	1.370052
C198	C	1.532120	0.405279	1.703385
C199	C	0.900571	-0.245041	0.834906
C200	C	1.233904	0.088292	1.168240
C201	C	1.567237	0.421625	1.501573
C202	C	0.900567	-0.245054	0.769473
C203	C	1.233900	0.088279	1.102807
C204	C	1.567234	0.421612	1.436140
C205	C	0.905469	-0.301511	0.736739
C206	C	1.238802	0.031822	1.070072
C207	C	1.572136	0.365155	1.403405
C208	C	0.910387	-0.357957	0.769445
C209	C	1.243721	-0.024624	1.102778
C210	C	1.577054	0.308710	1.436112
C211	C	0.910395	-0.357943	0.834879
C212	C	1.243729	-0.024609	1.168212
C213	C	1.577062	0.308724	1.501546
C214	C	0.905484	-0.301478	0.867607
C215	C	1.238817	0.031855	1.200940
C216	C	1.572150	0.365188	1.534274
C217	C	0.945503	-0.341599	0.633069
C218	C	1.278836	-0.008266	0.966402
C219	C	1.612170	0.325068	1.299736
C220	C	0.945487	-0.341620	0.567632
C221	C	1.278821	-0.008287	0.900966
C222	C	1.612154	0.325047	1.234299
C223	C	0.865390	-0.261495	0.567642
C224	C	1.198723	0.071838	0.900976
C225	C	1.532057	0.405172	1.234309
C226	C	0.865402	-0.261480	0.633078
C227	C	1.198736	0.071854	0.966411
C228	C	1.532069	0.405187	1.299744
C229	C	0.905462	-0.301531	0.665787
C230	C	1.238795	0.031803	0.999121
C231	C	1.572129	0.365136	1.332454
H232	H	0.465172	-0.199228	0.311019
H233	H	0.798505	0.134105	0.644352
H234	H	1.131839	0.467438	0.977686
C235	C	0.821317	-0.668334	0.217605
C236	C	1.154651	-0.335001	0.550938
C237	C	1.487984	-0.001668	0.884271
N238	N	0.788177	-0.695504	0.184352
N239	N	1.121510	-0.362171	0.517685
N240	N	1.454843	-0.028838	0.851019
H241	H	0.832844	-0.228762	1.063356
H242	H	1.166177	0.104571	1.396689
H243	H	1.499510	0.437905	1.730023
H244	H	0.896620	-0.199060	0.861553
H245	H	1.229954	0.134273	1.194887
H246	H	1.563287	0.467606	1.528220
C247	C	0.676347	-0.217638	0.386150
C248	C	1.009680	0.115695	0.719483
C249	C	1.343014	0.449028	1.052816
N250	N	0.703493	-0.184481	0.419406
N251	N	1.036826	0.148852	0.752740
N252	N	1.370159	0.482185	1.086073
C253	C	0.272488	-0.385633	0.217571
C254	C	0.605821	-0.052300	0.550904
C255	C	0.939155	0.281033	0.884237
N256	N	0.299548	-0.418795	0.184306
N257	N	0.632881	-0.085462	0.517640
N258	N	0.966215	0.247871	0.850973
C259	C	0.821396	-0.217338	0.935295
C260	C	1.154729	0.115995	1.268628
C261	C	1.488062	0.449329	1.601962
N262	N	0.788216	-0.184148	0.908188
N263	N	1.121549	0.149186	1.241522
N264	N	1.454883	0.482519	1.574855
C265	C	0.989558	-0.385678	0.531644
C266	C	1.322891	-0.052345	0.864977
C267	C	1.656225	0.280989	1.198311
N268	N	1.022760	-0.418857	0.504537
N269	N	1.356093	-0.085523	0.837871
N270	N	1.689426	0.247810	1.171204
C271	C	0.989637	-1.071666	0.386143
C272	C	1.322971	-0.738332	0.719477
C273	C	1.656304	-0.404999	1.052810
N274	N	1.022835	-1.098710	0.419373
N275	N	1.356169	-0.765376	0.752706
N276	N	1.689502	-0.432043	1.086040
H277	H	0.263346	-0.228997	0.374710
H278	H	0.596679	0.104336	0.708044
H279	H	0.930013	0.437669	1.041377
H280	H	0.832796	-0.228854	0.659716
H281	H	1.166130	0.104479	0.993049
H282	H	1.499463	0.437813	1.326383
H283	H	0.144639	-0.228971	0.374712
H284	H	0.477972	0.104363	0.708045
H285	H	0.811306	0.437696	1.041379
H286	H	0.978175	-0.374116	1.063339
H287	H	1.311509	-0.040782	1.396672
H288	H	1.644842	0.292551	1.730006
H289	H	0.346262	-0.404023	0.292722
H290	H	0.679596	-0.070690	0.626055
H291	H	1.012929	0.262644	0.959388
H292	H	0.978164	-0.374137	0.944632
H293	H	1.311497	-0.040804	1.277966
H294	H	1.644831	0.292529	1.611299
C295	C	0.538939	-0.217621	0.386165
C296	C	0.872273	0.115713	0.719498
C297	C	1.205606	0.449046	1.052831
N298	N	0.511876	-0.184467	0.419435
N299	N	0.845210	0.148866	0.752769
N300	N	1.178543	0.482199	1.086102
C301	C	0.915797	-0.420032	0.870854
C302	C	1.249131	-0.086699	1.204187
C303	C	1.582464	0.246635	1.537520
N304	N	0.919862	-0.466799	0.897950
N305	N	1.253196	-0.133466	1.231283
N306	N	1.586529	0.199868	1.564616
H307	H	0.978121	-0.374213	0.659703
H308	H	1.311454	-0.040879	0.993036
H309	H	1.644787	0.292454	1.326369
H310	H	0.464967	-0.404047	0.292710
H311	H	0.798300	-0.070713	0.626044
H312	H	1.131634	0.262620	0.959377
C313	C	0.915778	-0.420065	0.733442
C314	C	1.249111	-0.086732	1.066775
C315	C	1.582444	0.246602	1.400108
N316	N	0.919838	-0.466843	0.706321
N317	N	1.253171	-0.133510	1.039655
N318	N	1.586505	0.199823	1.372988
C319	C	0.135079	-0.385607	0.217579
C320	C	0.468412	-0.052273	0.550913
C321	C	0.801745	0.281060	0.884246
N322	N	0.107925	-0.418757	0.184322
N323	N	0.441259	-0.085423	0.517655
N324	N	0.774592	0.247910	0.850988
C325	C	0.337128	-0.183073	0.312460
C326	C	0.670461	0.150260	0.645793
C327	C	1.003795	0.483593	0.979127
N328	N	0.310065	-0.136301	0.316633
N329	N	0.643399	0.197033	0.649967
N330	N	0.976732	0.530366	0.983300
H331	H	0.548079	-0.374245	0.229022
H332	H	0.881412	-0.040911	0.562355
H333	H	1.214746	0.292422	0.895689
H334	H	0.666792	-0.374266	0.229004
H335	H	1.000126	-0.040933	0.562337
H336	H	1.333459	0.292400	0.895671
C337	C	0.821334	-0.217437	0.531658
C338	C	1.154667	0.115896	0.864992
C339	C	1.488000	0.449230	1.198325
N340	N	0.788148	-0.184252	0.504552
N341	N	1.121481	0.149081	0.837885
N342	N	1.454815	0.482414	1.171219
H343	H	0.977998	-0.539991	0.374591
H344	H	1.311331	-0.206658	0.707924
H345	H	1.644665	0.126676	1.041257
C346	C	0.989490	-0.668030	0.386072
C347	C	1.322823	-0.334697	0.719406
C348	C	1.656156	-0.001364	1.052739
N349	N	1.022685	-0.695078	0.419302
N350	N	1.356018	-0.361744	0.752635
N351	N	1.689352	-0.028411	1.085968
H352	H	0.914322	-0.741862	0.404290
H353	H	1.247655	-0.408529	0.737624
H354	H	1.580989	-0.075195	1.070957
C355	C	0.895156	-0.182964	0.733503
C356	C	1.228490	0.150370	1.066836
C357	C	1.561823	0.483703	1.400169
N358	N	0.891079	-0.136195	0.706411
N359	N	1.224413	0.197138	1.039744
N360	N	1.557746	0.530471	1.373078
C361	C	0.915765	-0.869912	0.420446
C362	C	1.249098	-0.536578	0.753780
C363	C	1.582431	-0.203245	1.087113
N364	N	0.919835	-0.896986	0.467227
N365	N	1.253168	-0.563653	0.800561
N366	N	1.586501	-0.230319	1.133894
C367	C	0.821229	-0.530922	0.217612
C368	C	1.154562	-0.197589	0.550945
C369	C	1.487895	0.135745	0.884279
N370	N	0.788034	-0.503877	0.184381
N371	N	1.121367	-0.170543	0.517714
N372	N	1.454700	0.162790	0.851047
C373	C	0.989584	-0.934258	0.386126
C374	C	1.322917	-0.600925	0.719459
C375	C	1.656250	-0.267592	1.052792
N376	N	1.022750	-0.907095	0.419358
N377	N	1.356083	-0.573762	0.752691
N378	N	1.689417	-0.240428	1.086025
H379	H	0.832838	-0.943890	0.229135
H380	H	1.166171	-0.610557	0.562468
H381	H	1.499504	-0.277223	0.895802
C382	C	0.895163	-0.870084	0.183321
C383	C	1.228497	-0.536750	0.516655
C384	C	1.561830	-0.203417	0.849988
N385	N	0.891104	-0.897221	0.136546
N386	N	1.224437	-0.563888	0.469880
N387	N	1.557771	-0.230555	0.803213
C388	C	0.821434	-1.071971	0.217702
C389	C	1.154767	-0.738638	0.551035
C390	C	1.488100	-0.405304	0.884369
N391	N	0.788257	-1.099140	0.184485
N392	N	1.121590	-0.765807	0.517818
N393	N	1.454924	-0.432474	0.851152
H394	H	0.896517	-0.742017	0.199432
H395	H	1.229851	-0.408684	0.532765
H396	H	1.563184	-0.075350	0.866099
