data_functionalizedCrystal
_audit_creation_method	'MofGen! by Chris Wilmer'
_symmetry_space_group_name_H-M	'P1'
_symmetry_Int_Tables_number	1
_symmetry_cell_setting	triclinic
loop_
_symmetry_equiv_pos_as_xyz
  x,y,z
_cell_length_a	13.897449
_cell_length_b	18.215385
_cell_length_c	18.215405
_cell_angle_alpha	89.904210
_cell_angle_beta	90.026165
_cell_angle_gamma	89.936355
loop_
_atom_site_label
_atom_site_type_symbol
_atom_site_fract_x
_atom_site_fract_y
_atom_site_fract_z
Zn1	Zn	1.475063	-0.416078	-0.292493
Zn2	Zn	1.474816	-0.293006	-0.415704
Zn3	Zn	1.313631	-0.293028	-0.292659
Zn4	Zn	1.313714	-0.416034	-0.415525
O5	O	1.394306	-0.354536	-0.354095
O6	O	1.610012	-0.399762	-0.308843
O7	O	1.453297	-0.190024	-0.399527
O8	O	1.335115	-0.309379	-0.189652
O9	O	1.609830	-0.309341	-0.399366
O10	O	1.453718	-0.399783	-0.189531
O11	O	1.334875	-0.190040	-0.309126
O12	O	1.178661	-0.309336	-0.308952
O13	O	1.335255	-0.519024	-0.399060
O14	O	1.178721	-0.399708	-0.399221
O15	O	1.453798	-0.519057	-0.308669
O16	O	1.453376	-0.309298	-0.518665
O17	O	1.335015	-0.399686	-0.518533
C18	C	1.143692	-0.354520	-0.354085
C19	C	1.036478	-0.354530	-0.354099
C20	C	1.394204	-0.354501	-0.545302
C21	C	1.394249	-0.354511	-0.627100
C22	C	1.394106	-0.163330	-0.354310
C23	C	1.394183	-0.081531	-0.354218
C24	C	0.840183	-0.354549	-0.354101
C25	C	0.949415	-0.354537	-0.354098
C26	C	1.645899	-0.354554	-0.354106
C27	C	1.753113	-0.354561	-0.354110
C28	C	1.394563	-0.546490	-0.353826
C29	C	1.394673	-0.628289	-0.353711
C30	C	1.332287	0.106619	-0.307283
C31	C	1.332371	0.183478	-0.307195
C32	C	1.456576	0.183555	-0.400648
C33	C	1.456496	0.106698	-0.400732
C34	C	1.394346	0.068232	-0.354050
C35	C	1.394510	0.221948	-0.353879
C36	C	1.394602	0.305281	-0.353784
C37	C	1.394255	-0.015107	-0.354144
C38	C	1.456024	-0.307532	-0.815338
C39	C	1.456068	-0.307550	-0.892197
C40	C	1.332711	-0.401594	-0.892100
C41	C	1.332674	-0.401579	-0.815243
C42	C	1.394329	-0.354544	-0.776864
C43	C	1.394409	-0.354577	-0.930580
C44	C	1.394456	-0.354596	-1.013913
C45	C	1.394284	-0.354525	-0.693525
C46	C	1.394435	-0.354588	-0.162142
C47	C	1.394489	-0.354610	-0.080343
H48	H	1.281683	0.075303	-0.269269
H49	H	1.281838	0.214730	-0.269111
H50	H	1.507175	0.214883	-0.438656
H51	H	1.506229	-0.269234	-0.784092
F52	F	1.267009	-0.451622	-0.774293
H53	H	1.507037	0.075442	-0.438816
F54	F	1.521735	-0.257515	-0.933141
F55	F	1.267095	-0.451648	-0.932952
