data_functionalizedCrystal
_audit_creation_method	'MofGen! by Chris Wilmer'
_symmetry_space_group_name_H-M	'P1'
_symmetry_Int_Tables_number	1
_symmetry_cell_setting	triclinic
loop_
_symmetry_equiv_pos_as_xyz
  x,y,z
_cell_length_a	17.699097
_cell_length_b	16.176319
_cell_length_c	16.109301
_cell_angle_alpha	89.991775
_cell_angle_beta	96.625044
_cell_angle_gamma	90.011012
loop_
_atom_site_label
_atom_site_type_symbol
_atom_site_fract_x
_atom_site_fract_y
_atom_site_fract_z
O1	O	1.004223	0.068818	-0.105192
O2	O	1.337556	0.402151	0.228141
O3	O	1.670889	0.735484	0.561475
O4	O	0.783865	0.068805	-0.118859
O5	O	1.117198	0.402138	0.214474
O6	O	1.450532	0.735471	0.547807
O7	O	0.900097	0.068803	0.009015
O8	O	1.233431	0.402137	0.342349
O9	O	1.566764	0.735470	0.675682
O10	O	0.887990	0.068819	-0.233067
O11	O	1.221324	0.402153	0.100266
O12	O	1.554657	0.735486	0.433600
O13	O	0.900081	-0.068690	0.009023
O14	O	1.233415	0.264643	0.342357
O15	O	1.566748	0.597977	0.675690
O16	O	0.783849	-0.068688	-0.118851
O17	O	1.117182	0.264645	0.214482
O18	O	1.450516	0.597978	0.547815
O19	O	1.004207	-0.068675	-0.105184
O20	O	1.337540	0.264658	0.228149
O21	O	1.670873	0.597991	0.561483
Cu22	Cu	0.894026	-0.081236	-0.112017
Cu23	Cu	1.227360	0.252097	0.221316
Cu24	Cu	1.560693	0.585431	0.554650
Cu25	Cu	0.894045	0.081366	-0.112027
Cu26	Cu	1.227379	0.414699	0.221307
Cu27	Cu	1.560712	0.748032	0.554640
O28	O	0.887974	-0.068674	-0.233059
O29	O	1.221308	0.264659	0.100275
O30	O	1.554641	0.597993	0.433608
C31	C	0.755660	0.000056	-0.118364
C32	C	1.088993	0.333390	0.214970
C33	C	1.422326	0.666723	0.548303
C34	C	0.671640	0.000051	-0.116889
C35	C	1.004973	0.333384	0.216444
C36	C	1.338307	0.666718	0.549778
N37	N	0.894019	-0.195601	-0.112010
N38	N	1.227352	0.137732	0.221324
N39	N	1.560685	0.471065	0.554657
C40	C	0.155917	0.075031	-0.107854
C41	C	0.489251	0.408365	0.225480
C42	C	0.822584	0.741698	0.558813
C43	C	0.234864	0.075027	-0.109234
C44	C	0.568197	0.408361	0.224100
C45	C	0.901530	0.741694	0.557433
C46	C	0.274322	0.000077	-0.109921
C47	C	0.607655	0.333410	0.223413
C48	C	0.940988	0.666743	0.556746
C49	C	0.234831	-0.074875	-0.109219
C50	C	0.568164	0.258458	0.224114
C51	C	0.901498	0.591791	0.557448
C52	C	0.155887	-0.074870	-0.107833
C53	C	0.489220	0.258463	0.225500
C54	C	0.822554	0.591796	0.558834
C55	C	0.553203	-0.074897	-0.114807
C56	C	0.886536	0.258437	0.218526
C57	C	1.219870	0.591770	0.551859
C58	C	0.632152	-0.074896	-0.116196
C59	C	0.965485	0.258438	0.217137
C60	C	1.298819	0.591771	0.550471
C61	C	0.632180	0.075001	-0.116208
C62	C	0.965513	0.408334	0.217125
C63	C	1.298846	0.741668	0.550459
C64	C	0.553236	0.075006	-0.114822
C65	C	0.886569	0.408339	0.218511
C66	C	1.219902	0.741673	0.551845
C67	C	0.513752	0.000055	-0.114116
C68	C	0.847085	0.333388	0.219217
C69	C	1.180419	0.666722	0.552551
C70	C	0.428150	0.000060	-0.112618
C71	C	0.761483	0.333393	0.220715
C72	C	1.094817	0.666727	0.554049
C73	C	0.359922	0.000070	-0.111424
C74	C	0.693255	0.333404	0.221909
C75	C	1.026588	0.666737	0.555242
C76	C	0.945502	-0.238866	-0.055410
C77	C	1.278835	0.094467	0.277924
C78	C	1.612168	0.427800	0.611257
C79	C	0.945506	-0.325413	-0.055409
C80	C	1.278839	0.007920	0.277924
C81	C	1.612172	0.341253	0.611258
C82	C	0.894029	-0.368694	-0.112013
C83	C	1.227363	-0.035361	0.221321
C84	C	1.560696	0.297973	0.554654
C85	C	0.842541	-0.325423	-0.168615
C86	C	1.175874	0.007910	0.164718
C87	C	1.509207	0.341244	0.498052
C88	C	0.842534	-0.238878	-0.168611
C89	C	1.175867	0.094456	0.164722
C90	C	1.509201	0.427789	0.498055
C91	C	0.842567	-0.674451	-0.168631
C92	C	1.175900	-0.341118	0.164703
C93	C	1.509233	-0.007785	0.498036
C94	C	0.842579	-0.761003	-0.168632
C95	C	1.175912	-0.427670	0.164702
C96	C	1.509246	-0.094336	0.498035
C97	C	0.945538	-0.760987	-0.055428
C98	C	1.278872	-0.427654	0.277905
C99	C	1.612205	-0.094320	0.611238
C100	C	0.945531	-0.674442	-0.055425
C101	C	1.278865	-0.341108	0.277909
C102	C	1.612198	-0.007775	0.611242
C103	C	0.894041	-0.631178	-0.112024
C104	C	1.227374	-0.297845	0.221310
C105	C	1.560707	0.035488	0.554643
C106	C	0.894036	-0.537334	-0.112023
C107	C	1.227369	-0.204001	0.221310
C108	C	1.560703	0.129333	0.554644
C109	C	0.894037	-0.462537	-0.112018
C110	C	1.227370	-0.129203	0.221315
C111	C	1.560704	0.204130	0.554649
C112	C	1.032412	0.000075	-0.105680
C113	C	1.365745	0.333408	0.227654
C114	C	1.699079	0.666741	0.560987
C115	C	1.116432	0.000086	-0.107155
C116	C	1.449765	0.333419	0.226179
C117	C	1.783098	0.666752	0.559512
C118	C	0.899599	0.000056	0.039993
C119	C	1.232932	0.333390	0.373327
C120	C	1.566266	0.666723	0.706660
C121	C	0.898129	0.000055	0.132286
C122	C	1.231462	0.333388	0.465620
C123	C	1.564795	0.666722	0.798953
N124	N	0.894059	0.195731	-0.112027
N125	N	1.227392	0.529064	0.221306
N126	N	1.560726	0.862397	0.554639
C127	C	0.888473	0.000075	-0.264037
C128	C	1.221806	0.333408	0.069296
C129	C	1.555139	0.666742	0.402630
C130	C	0.889943	0.000082	-0.356330
C131	C	1.223276	0.333415	-0.022996
C132	C	1.556610	0.666748	0.310337
C133	C	0.963680	0.000072	0.354668
C134	C	1.297013	0.333405	0.688001
C135	C	1.630346	0.666739	1.021335
C136	C	0.962292	0.000079	0.441386
C137	C	1.295626	0.333412	0.774720
C138	C	1.628959	0.666745	1.108053
C139	C	0.824387	0.000067	0.421282
C140	C	1.157720	0.333401	0.754615
C141	C	1.491053	0.666734	1.087948
C142	C	0.825775	0.000066	0.334565
C143	C	1.159108	0.333400	0.667898
C144	C	1.492442	0.666733	1.001232
C145	C	0.895424	0.000065	0.301261
C146	C	1.228757	0.333398	0.634594
C147	C	1.562090	0.666731	0.967928
C148	C	0.892648	0.000072	0.474695
C149	C	1.225981	0.333405	0.808029
C150	C	1.559315	0.666739	1.141362
C151	C	0.891143	0.000079	0.568719
C152	C	1.224477	0.333413	0.902052
C153	C	1.557810	0.666746	1.235386
C154	C	0.896929	0.000059	0.207232
C155	C	1.230262	0.333392	0.540565
C156	C	1.563596	0.666726	0.873898
H157	H	0.267010	0.136056	-0.109798
H158	H	0.600343	0.469389	0.223536
H159	H	0.933677	0.802723	0.556869
O160	O	0.670580	-0.147655	-0.116746
O161	O	1.003914	0.185678	0.216588
O162	O	1.337247	0.519012	0.549921
C163	C	0.724822	-0.152143	-0.045560
C164	C	1.058155	0.181190	0.287773
C165	C	1.391488	0.514523	0.621106
H166	H	0.739521	-0.087067	-0.021784
H167	H	1.072854	0.246266	0.311549
H168	H	1.406188	0.579600	0.644882
H169	H	0.778399	-0.183864	-0.062718
H170	H	1.111732	0.149469	0.270615
H171	H	1.445066	0.482803	0.603948
H172	H	0.700408	-0.189127	0.005383
H173	H	1.033742	0.144206	0.338716
H174	H	1.367075	0.477539	0.672049
H175	H	0.521066	-0.135927	-0.114220
H176	H	0.854400	0.197407	0.219113
H177	H	1.187733	0.530740	0.552446
O178	O	1.031315	-0.000067	0.322276
O179	O	1.364648	0.333266	0.655610
O180	O	1.697981	0.666600	0.988943
C181	C	1.036237	-0.071265	0.272712
C182	C	1.369570	0.262069	0.606045
C183	C	1.702903	0.595402	0.939378
H184	H	0.996688	-0.121043	0.293145
H185	H	1.330022	0.212291	0.626478
H186	H	1.663355	0.545624	0.959812
H187	H	1.097236	-0.095157	0.280625
H188	H	1.430569	0.238177	0.613958
H189	H	1.763903	0.571510	0.947291
H190	H	1.018767	-0.055168	0.204287
H191	H	1.352101	0.278165	0.537621
H192	H	1.685434	0.611498	0.870954
H193	H	0.800610	-0.203652	-0.214700
H194	H	1.133944	0.129681	0.118634
H195	H	1.467277	0.463015	0.451967
H196	H	0.987426	-0.360639	-0.009321
H197	H	1.320760	-0.027306	0.324013
H198	H	1.654093	0.306028	0.657346
O199	O	0.515028	0.147887	-0.114119
O200	O	0.848362	0.481221	0.219214
O201	O	1.181695	0.814554	0.552548
C202	C	0.566807	0.214038	-0.115051
C203	C	0.900140	0.547371	0.218282
C204	C	1.233473	0.880704	0.551615
H205	H	0.626216	0.192061	-0.089729
H206	H	0.959550	0.525395	0.243604
H207	H	1.292883	0.858728	0.576938
H208	H	0.548823	0.266454	-0.074304
H209	H	0.882156	0.599788	0.259030
H210	H	1.215490	0.933121	0.592363
H211	H	0.567250	0.237089	-0.181873
H212	H	0.900583	0.570423	0.151460
H213	H	1.233916	0.903756	0.484793
O214	O	0.995518	-0.802925	-0.000324
O215	O	1.328851	-0.469592	0.333010
O216	O	1.662185	-0.136259	0.666343
C217	C	0.983225	-0.781807	0.081963
C218	C	1.316559	-0.448474	0.415296
C219	C	1.649892	-0.115140	0.748630
H220	H	0.954050	-0.718977	0.081820
H221	H	1.287383	-0.385644	0.415154
H222	H	1.620717	-0.052310	0.748487
H223	H	1.040125	-0.778837	0.122984
H224	H	1.373458	-0.445504	0.456318
H225	H	1.706791	-0.112170	0.789651
H226	H	0.945563	-0.830529	0.107624
H227	H	1.278896	-0.497196	0.440957
H228	H	1.612229	-0.163863	0.774291
H229	H	0.987423	-0.203633	-0.009320
H230	H	1.320756	0.129701	0.324013
H231	H	1.654089	0.463034	0.657347
H232	H	1.017873	0.000086	0.484867
H233	H	1.351207	0.333420	0.818201
H234	H	1.684540	0.666753	1.151534
O235	O	0.756800	0.000025	0.453774
O236	O	1.090133	0.333358	0.787107
O237	O	1.423466	0.666691	1.120440
C238	C	0.770209	0.000045	0.541764
C239	C	1.103542	0.333378	0.875098
C240	C	1.436875	0.666711	1.208431
H241	H	0.829276	-0.025979	0.562250
H242	H	1.162609	0.307355	0.895584
H243	H	1.495942	0.640688	1.228917
H244	H	0.725643	-0.039879	0.568306
H245	H	1.058976	0.293454	0.901639
H246	H	1.392309	0.626787	1.234972
H247	H	0.766550	0.066006	0.565889
H248	H	1.099884	0.399339	0.899222
H249	H	1.433217	0.732673	1.232556
O250	O	0.995375	-0.632377	-0.000284
O251	O	1.328708	-0.299044	0.333050
O252	O	1.662041	0.034290	0.666383
C253	C	0.954749	-0.582453	0.050956
C254	C	1.288082	-0.249120	0.384289
C255	C	1.621415	0.084214	0.717622
H256	H	0.895572	-0.569436	0.017651
H257	H	1.228905	-0.236103	0.350984
H258	H	1.562239	0.097231	0.684318
H259	H	0.986330	-0.521612	0.064348
H260	H	1.319663	-0.188279	0.397681
H261	H	1.652996	0.145055	0.731014
H262	H	0.949493	-0.615939	0.112301
H263	H	1.282827	-0.282606	0.445634
H264	H	1.616160	0.050728	0.778967
O265	O	0.759537	0.000096	0.282561
O266	O	1.092870	0.333429	0.615894
O267	O	1.426204	0.666763	0.949228
C268	C	0.775699	0.000078	0.198882
C269	C	1.109033	0.333412	0.532216
C270	C	1.442366	0.666745	0.865549
H271	H	0.835151	0.026112	0.195679
H272	H	1.168484	0.359445	0.529012
H273	H	1.501818	0.692779	0.862346
H274	H	0.732198	0.039995	0.159499
H275	H	1.065531	0.373328	0.492832
H276	H	1.398865	0.706662	0.826166
H277	H	0.772819	-0.065884	0.173804
H278	H	1.106152	0.267450	0.507138
H279	H	1.439485	0.600783	0.840471
H280	H	0.266965	-0.135902	-0.109773
H281	H	0.600298	0.197432	0.223560
H282	H	0.933631	0.530765	0.556894
H283	H	0.664337	0.136030	-0.116779
H284	H	0.997670	0.469363	0.216554
H285	H	1.331004	0.802697	0.549887
O286	O	0.792609	-0.367591	-0.223569
O287	O	1.125942	-0.034258	0.109764
O288	O	1.459276	0.299075	0.443098
C289	C	0.803642	-0.453257	-0.211425
C290	C	1.136976	-0.119923	0.121908
C291	C	1.470309	0.213410	0.455242
H292	H	0.863823	-0.465064	-0.180272
H293	H	1.197156	-0.131731	0.153061
H294	H	1.530489	0.201603	0.486395
H295	H	0.795207	-0.486137	-0.274402
H296	H	1.128540	-0.152804	0.058931
H297	H	1.461873	0.180529	0.392265
H298	H	0.760820	-0.477840	-0.169783
H299	H	1.094154	-0.144507	0.163550
H300	H	1.427487	0.188826	0.496884
H301	H	0.123738	-0.135899	-0.107272
H302	H	0.457071	0.197434	0.226061
H303	H	0.790404	0.530768	0.559394
H304	H	0.123796	0.136065	-0.107300
H305	H	0.457129	0.469399	0.226033
H306	H	0.790462	0.802732	0.559367
H307	H	0.800658	-0.796241	-0.214727
H308	H	1.133991	-0.462907	0.118607
H309	H	1.467325	-0.129574	0.451940
H310	H	0.800642	-0.639233	-0.214717
H311	H	1.133976	-0.305900	0.118616
H312	H	1.467309	0.027434	0.451950
