data_functionalizedCrystal
_audit_creation_method	'MofGen! by Chris Wilmer'
_symmetry_space_group_name_H-M	'P1'
_symmetry_Int_Tables_number	1
_symmetry_cell_setting	triclinic
loop_
_symmetry_equiv_pos_as_xyz
  x,y,z
_cell_length_a	16.956995
_cell_length_b	8.597304
_cell_length_c	16.053802
_cell_angle_alpha	84.919063
_cell_angle_beta	87.607939
_cell_angle_gamma	80.732763
loop_
_atom_site_label
_atom_site_type_symbol
_atom_site_fract_x
_atom_site_fract_y
_atom_site_fract_z
O1	O	1.062053	0.057518	-0.073623
O2	O	0.830512	0.112163	-0.077542
O3	O	0.950062	-0.142560	-0.059224
O4	O	0.942502	0.312241	-0.091942
O5	O	0.943481	-0.128594	0.078631
O6	O	0.823931	0.126129	0.060312
O7	O	1.055472	0.071484	0.064231
Zn8	Zn	0.938656	0.101024	0.084159
Zn9	Zn	0.947327	0.082623	-0.097470
O10	O	0.935921	0.326208	0.045912
C11	C	0.797545	0.121944	-0.008815
C12	C	0.709118	0.130262	-0.009409
C13	C	0.210521	0.192486	-0.013916
C14	C	0.293608	0.184659	-0.013353
C15	C	0.343038	0.037728	-0.002776
C16	C	0.309378	-0.101385	0.007229
C17	C	0.226292	-0.093556	0.006659
C18	C	0.592372	-0.001022	0.000026
C19	C	0.675463	-0.008840	0.000598
C20	C	0.659687	0.277205	-0.019985
C21	C	0.576601	0.285021	-0.020549
C22	C	0.542948	0.145908	-0.010549
N23	N	0.427966	0.029723	-0.002197
N24	N	0.458022	0.153913	-0.011134
C25	C	0.945594	-0.193500	0.013869
C26	C	0.942073	-0.366089	0.026280
C27	C	1.088439	0.061703	-0.004498
C28	C	1.176866	0.053384	-0.003910
C29	C	0.940390	0.377147	-0.027182
C30	C	0.943910	0.549735	-0.039599
N31	N	0.932745	0.113581	0.208116
N32	N	0.953245	0.070053	-0.221427
C33	C	0.983633	0.005230	0.259602
C34	C	0.979505	0.014027	0.346377
C35	C	0.924492	0.131184	0.381662
C36	C	0.873598	0.239541	0.330170
C37	C	0.877723	0.230735	0.243398
C38	C	0.906476	0.169604	0.640309
C39	C	0.902357	0.178404	0.727087
C40	C	1.008263	-0.047112	0.743288
C41	C	1.012386	-0.055901	0.656514
C42	C	0.961489	0.052450	0.605029
N43	N	0.920273	0.140182	0.470359
N44	N	0.965704	0.043443	0.516335
H45	H	0.198892	-0.206828	0.014806
Br46	Br	0.951019	-0.350319	-0.149444
H47	H	0.937797	-0.426061	0.092186
H48	H	0.536360	0.404667	-0.029164
H49	H	0.170280	0.312134	-0.022523
Br50	Br	0.546712	-0.189822	0.013574
H51	H	0.349630	-0.221020	0.015836
Br52	Br	1.058303	-0.153767	0.211724
H53	H	1.049700	-0.135328	0.785215
H54	H	1.020942	-0.074202	0.388297
Br55	Br	0.798930	0.398533	0.378055
Br56	Br	1.087049	-0.214895	0.608624
H57	H	0.857556	0.273814	0.755812
H58	H	0.865035	0.257831	0.598396
H59	H	0.321006	0.297929	-0.021509
Br60	Br	0.705364	0.465990	-0.033562
H61	H	0.715708	-0.128495	0.009207
Br62	Br	0.808651	0.377781	0.173524
