data_functionalizedCrystal
_audit_creation_method	'MofGen! by Chris Wilmer'
_symmetry_space_group_name_H-M	'P1'
_symmetry_Int_Tables_number	1
_symmetry_cell_setting	triclinic
loop_
_symmetry_equiv_pos_as_xyz
  x,y,z
_cell_length_a	9.065218
_cell_length_b	13.330367
_cell_length_c	9.065218
_cell_angle_alpha	90.006862
_cell_angle_beta	94.984115
_cell_angle_gamma	90.007104
loop_
_atom_site_label
_atom_site_type_symbol
_atom_site_fract_x
_atom_site_fract_y
_atom_site_fract_z
O1	O	1.960409	0.083422	-0.216335
O2	O	1.531124	0.083423	-0.234082
O3	O	1.754640	0.083420	-0.010566
O4	O	1.736893	0.083424	-0.439851
O5	O	1.754605	-0.083427	-0.010602
O6	O	1.531090	-0.083424	-0.234118
O7	O	1.960375	-0.083426	-0.216371
Cu8	Cu	1.745729	-0.098659	-0.225248
Cu9	Cu	1.745770	0.098657	-0.225205
O10	O	1.736859	-0.083423	-0.439887
C11	C	1.476120	-0.000001	-0.232394
C12	C	1.312277	-0.000000	-0.227294
N13	N	1.745711	-0.237441	-0.225277
C14	C	1.836472	-0.710053	-0.315921
C15	C	1.655111	-0.710043	-0.134431
C16	C	1.655089	-0.605025	-0.134454
C17	C	1.745763	-0.552515	-0.225210
C18	C	1.836457	-0.605025	-0.315943
C19	C	1.564408	-0.552508	-0.043711
C20	C	1.564384	-0.447483	-0.043729
C21	C	1.655051	-0.394972	-0.134494
C22	C	1.745748	-0.447487	-0.225232
C23	C	1.836421	-0.394978	-0.315988
C24	C	1.927111	-0.447492	-0.406735
C25	C	1.927124	-0.552513	-0.406708
C26	C	1.655038	-0.289950	-0.134521
C27	C	1.836406	-0.289950	-0.316010
C28	C	2.015378	0.000000	-0.218059
C29	C	2.179221	0.000006	-0.223158
C30	C	1.752917	-0.000002	0.044403
C31	C	1.747817	0.000003	0.208245
N32	N	1.745799	0.237438	-0.225165
C33	C	1.738582	0.000001	-0.494855
C34	C	1.743681	0.000003	-0.658698
H35	H	2.000944	-0.404725	-0.480621
C36	C	1.483792	-0.713491	0.036804
C37	C	1.464740	-0.610219	0.056045
H38	H	1.422248	-0.749119	0.098387
H39	H	1.584364	-0.730727	0.062760
H40	H	1.457659	-0.730666	-0.063782
H41	H	1.490883	-0.593042	0.156631
H42	H	1.364145	-0.592976	0.030100
C43	C	1.385103	-0.458034	0.135662
C44	C	1.464686	-0.389765	0.056002
H45	H	1.323545	-0.422398	0.197221
H46	H	1.452208	-0.498969	0.195192
H47	H	1.325562	-0.499024	0.068591
H48	H	1.524235	-0.348780	0.123074
H49	H	1.397572	-0.348813	-0.003533
H50	H	1.910237	-0.247204	-0.389922
H51	H	1.910305	-0.752814	-0.389809
H52	H	2.000962	-0.595279	-0.480586
H53	H	1.581298	-0.752802	-0.060532
H54	H	1.581204	-0.247198	-0.060632
