data_functionalizedCrystal
_audit_creation_method	'MofGen! by Chris Wilmer'
_symmetry_space_group_name_H-M	'P1'
_symmetry_Int_Tables_number	1
_symmetry_cell_setting	triclinic
loop_
_symmetry_equiv_pos_as_xyz
  x,y,z
_cell_length_a	16.959455
_cell_length_b	17.637651
_cell_length_c	16.959447
_cell_angle_alpha	78.752936
_cell_angle_beta	89.977004
_cell_angle_gamma	101.214853
loop_
_atom_site_label
_atom_site_type_symbol
_atom_site_fract_x
_atom_site_fract_y
_atom_site_fract_z
Zn1	Zn	1.144798	-0.314808	-0.383322
Zn2	Zn	1.644798	0.185192	0.116678
Zn3	Zn	1.117998	-0.447035	-0.224382
Zn4	Zn	1.617998	0.052965	0.275618
Zn5	Zn	1.012615	-0.314834	-0.251141
Zn6	Zn	1.512615	0.185166	0.248859
Zn7	Zn	0.985886	-0.446976	-0.356519
Zn8	Zn	1.485886	0.053024	0.143481
O9	O	1.065324	-0.380913	-0.303841
O10	O	1.565324	0.119087	0.196159
O11	O	1.251850	-0.332363	-0.362257
O12	O	1.751850	0.167637	0.137743
O13	O	1.103989	-0.429533	-0.117314
O14	O	1.603989	0.070467	0.382686
O15	O	1.052551	-0.204191	-0.291091
O16	O	1.552551	0.295809	0.208909
O17	O	1.232161	-0.429509	-0.245485
O18	O	1.732161	0.070491	0.254515
O19	O	1.149665	-0.204173	-0.388204
O20	O	1.649665	0.295827	0.111796
O21	O	1.026564	-0.332406	-0.136973
O22	O	1.526564	0.167594	0.363027
O23	O	0.898461	-0.332348	-0.265100
O24	O	1.398461	0.167652	0.234900
O25	O	1.006996	-0.429408	-0.470692
O26	O	1.506996	0.070592	0.029308
O27	O	0.878824	-0.429433	-0.342521
O28	O	1.378824	0.070567	0.157479
O29	O	1.123747	-0.332305	-0.490385
O30	O	1.623747	0.167695	0.009615
O31	O	1.078071	-0.557666	-0.219495
O32	O	1.578071	-0.057666	0.280505
O33	O	0.981009	-0.557623	-0.316575
O34	O	1.481009	-0.057623	0.183425
C35	C	0.859963	-0.380887	-0.303806
C36	C	1.359963	0.119113	0.196194
C37	C	0.772105	-0.380895	-0.303806
C38	C	1.272105	0.119105	0.196194
C39	C	0.390373	-0.431447	-0.243022
C40	C	0.890373	0.068553	0.256978
C41	C	0.410865	-0.330445	-0.364743
C42	C	0.910865	0.169555	0.135257
C43	C	0.493414	-0.330432	-0.364726
C44	C	0.993414	0.169568	0.135274
C45	C	0.524445	-0.380928	-0.303857
C46	C	1.024445	0.119072	0.196143
C47	C	0.472928	-0.431437	-0.243005
C48	C	0.972928	0.068563	0.256995
C49	C	0.544936	-0.279929	-0.425582
C50	C	1.044936	0.220071	0.074418
C51	C	0.627490	-0.279915	-0.425569
C52	C	1.127490	0.220085	0.074431
C53	C	0.658523	-0.330408	-0.364696
C54	C	1.158523	0.169592	0.135304
C55	C	0.607001	-0.380918	-0.303840
C56	C	1.107001	0.119082	0.196160
C57	C	0.638032	-0.431414	-0.242971
C58	C	1.138032	0.068586	0.257029
C59	C	0.586512	-0.481922	-0.182112
C60	C	1.086512	0.018078	0.317888
C61	C	0.503962	-0.481930	-0.182132
C62	C	1.003962	0.018070	0.317868
C63	C	0.741073	-0.330399	-0.364676
C64	C	1.241073	0.169601	0.135324
C65	C	0.720588	-0.431405	-0.242954
C66	C	1.220588	0.068595	0.257046
C67	C	1.023753	-0.586332	-0.262240
C68	C	1.523753	-0.086332	0.237760
C69	C	1.006041	-0.674211	-0.244469
C70	C	1.506041	-0.174211	0.255531
C71	C	1.200393	-0.962891	-0.439092
C72	C	1.700393	-0.462891	0.060908
C73	C	1.183725	-1.045467	-0.422380
C74	C	1.683725	-0.545467	0.077620
C75	C	1.082667	-1.045593	-0.321158
C76	C	1.582667	-0.545593	0.178842
C77	C	1.099330	-0.963016	-0.337859
C78	C	1.599330	-0.463016	0.162141
C79	C	1.158193	-0.921671	-0.396827
C80	C	1.658193	-0.421671	0.103173
C81	C	1.057129	-0.921796	-0.295594
C82	C	1.557129	-0.421796	0.204406
C83	C	1.073788	-0.839226	-0.312297
C84	C	1.573788	-0.339226	0.187703
C85	C	1.132647	-0.797876	-0.371264
C86	C	1.632647	-0.297876	0.128736
C87	C	1.174851	-0.839101	-0.413530
C88	C	1.674851	-0.339101	0.086470
C89	C	0.998263	-0.963142	-0.236630
C90	C	1.498263	-0.463142	0.263370
C91	C	0.956062	-0.921923	-0.194366
C92	C	1.456062	-0.421923	0.305634
C93	C	0.972725	-0.839351	-0.211064
C94	C	1.472725	-0.339351	0.288936
C95	C	1.031583	-0.798001	-0.270031
C96	C	1.531583	-0.298001	0.229969
C97	C	0.930520	-0.798126	-0.168798
C98	C	1.430520	-0.298126	0.331202
C99	C	0.947178	-0.715555	-0.185501
C100	C	1.447178	-0.215555	0.314499
C101	C	1.048242	-0.715431	-0.286734
C102	C	1.548242	-0.215431	0.213266
C103	C	1.271487	-0.380940	-0.303876
C104	C	1.771487	0.119060	0.196124
C105	C	1.359341	-0.380951	-0.303891
C106	C	1.859341	0.119049	0.196109
C107	C	1.065380	-0.380847	-0.510023
C108	C	1.565380	0.119153	-0.010023
C109	C	1.065403	-0.380819	-0.597885
C110	C	1.565403	0.119181	-0.097885
C111	C	1.107079	-0.174692	-0.345622
C112	C	1.607079	0.325308	0.154378
C113	C	1.124872	-0.086813	-0.363426
C114	C	1.624872	0.413187	0.136574
C115	C	1.025179	-0.330166	-0.979620
C116	C	1.525179	0.169834	-0.479620
C117	C	1.105801	-0.431306	-0.959136
C118	C	1.605801	0.068694	-0.459136
C119	C	1.105784	-0.431325	-0.876586
C120	C	1.605784	0.068675	-0.376586
C121	C	1.065462	-0.380764	-0.845549
C122	C	1.565462	0.119236	-0.345549
C123	C	1.025158	-0.330185	-0.897062
C124	C	1.525158	0.169815	-0.397062
C125	C	1.146080	-0.481908	-0.825066
C126	C	1.646080	0.018092	-0.325066
C127	C	1.146064	-0.481929	-0.742511
C128	C	1.646064	0.018071	-0.242511
C129	C	1.105747	-0.431364	-0.711473
C130	C	1.605747	0.068636	-0.211473
C131	C	1.065441	-0.380782	-0.762992
C132	C	1.565441	0.119218	-0.262992
C133	C	1.025120	-0.330222	-0.731955
C134	C	1.525120	0.169778	-0.231955
C135	C	0.984819	-0.279635	-0.783473
C136	C	1.484819	0.220365	-0.283473
C137	C	0.984841	-0.279619	-0.866025
C138	C	1.484841	0.220381	-0.366025
C139	C	1.105725	-0.431380	-0.628922
C140	C	1.605725	0.068620	-0.128922
C141	C	1.025099	-0.330240	-0.649398
C142	C	1.525099	0.169760	-0.149398
C143	C	1.065326	-0.380922	-0.098473
C144	C	1.565326	0.119078	0.401527
C145	C	1.065500	-0.380727	-0.010656
C146	C	1.565500	0.119273	0.489344
H147	H	0.611788	-0.523040	-0.132555
H148	H	1.111788	-0.023040	0.367445
H149	H	0.882588	-0.831801	-0.120792
H150	H	1.382588	-0.331801	0.379208
Cl151	Cl	0.974521	-0.266572	-1.044382
Cl152	Cl	1.474521	0.233428	-0.544382
Cl153	Cl	0.894129	-0.663732	-0.132365
Cl154	Cl	1.394129	-0.163732	0.367635
Cl155	Cl	0.371851	-0.266976	-0.441266
Cl156	Cl	0.871851	0.233024	0.058734
Cl157	Cl	1.274403	-0.910909	-0.513215
Cl158	Cl	1.774403	-0.410909	-0.013215
Cl159	Cl	1.236789	-1.097284	-0.475515
Cl160	Cl	1.736789	-0.597284	0.024485
H161	H	1.034739	-1.079268	-0.273148
H162	H	1.534739	-0.579268	0.226852
Cl163	Cl	0.934133	-0.216075	-0.744446
Cl164	Cl	1.434133	0.283925	-0.244446
H165	H	0.992268	-0.289063	-0.624136
H166	H	1.492268	0.210937	-0.124136
Cl167	Cl	0.977440	-1.066946	-0.215514
Cl168	Cl	1.477440	-0.566946	0.284486
Cl169	Cl	1.196731	-0.545518	-0.677754
Cl170	Cl	1.696731	-0.045518	-0.177754
H171	H	1.222789	-0.805437	-0.461542
H172	H	1.722789	-0.305437	0.038458
H173	H	1.146209	-0.730642	-0.384862
H174	H	1.646209	-0.230642	0.115138
H175	H	0.783017	-0.289279	-0.414228
H176	H	1.283017	0.210721	0.085772
H177	H	0.462007	-0.523050	-0.132583
H178	H	0.962007	-0.023050	0.367417
Cl179	Cl	1.156377	-0.494975	-0.564160
Cl180	Cl	1.656377	0.005025	-0.064160
Cl181	Cl	0.759592	-0.494885	-0.166424
Cl182	Cl	1.259592	0.005115	0.333576
Cl183	Cl	0.934178	-0.216034	-0.930793
Cl184	Cl	1.434178	0.283966	-0.430793
Cl185	Cl	0.325609	-0.494935	-0.166514
Cl186	Cl	0.825609	0.005065	0.333486
Cl187	Cl	1.156480	-0.494871	-0.998153
Cl188	Cl	1.656480	0.005129	-0.498153
Cl189	Cl	1.196757	-0.545474	-0.864086
Cl190	Cl	1.696757	-0.045474	-0.364086
Cl191	Cl	0.505919	-0.216464	-0.502106
Cl192	Cl	1.005919	0.283536	-0.002106
H193	H	0.669431	-0.238788	-0.475124
H194	H	1.169431	0.261212	0.024876
Cl195	Cl	0.882060	-0.973906	-0.120243
Cl196	Cl	1.382060	-0.473906	0.379757
Cl197	Cl	1.122252	-0.663448	-0.360857
Cl198	Cl	1.622252	-0.163448	0.139143
