data_functionalizedCrystal
_audit_creation_method	'MofGen! by Chris Wilmer'
_symmetry_space_group_name_H-M	'P1'
_symmetry_Int_Tables_number	1
_symmetry_cell_setting	triclinic
loop_
_symmetry_equiv_pos_as_xyz
  x,y,z
_cell_length_a	11.169417
_cell_length_b	11.169416
_cell_length_c	11.169409
_cell_angle_alpha	90.027704
_cell_angle_beta	90.021683
_cell_angle_gamma	90.011020
loop_
_atom_site_label
_atom_site_type_symbol
_atom_site_fract_x
_atom_site_fract_y
_atom_site_fract_z
Zn1	Zn	-1.834948	0.477744	-0.678641
Zn2	Zn	-1.501614	0.811077	-0.345308
Zn3	Zn	-1.168281	1.144411	-0.011974
Zn4	Zn	-1.834831	0.678484	-0.477974
Zn5	Zn	-1.501498	1.011818	-0.144641
Zn6	Zn	-1.168164	1.345151	0.188693
Zn7	Zn	-1.634234	0.477810	-0.477969
Zn8	Zn	-1.300900	0.811144	-0.144635
Zn9	Zn	-0.967567	1.144477	0.188698
Zn10	Zn	-1.634235	0.678380	-0.678612
Zn11	Zn	-1.300902	1.011713	-0.345279
Zn12	Zn	-0.967568	1.345047	-0.011946
O13	O	-1.734562	0.578105	-0.578299
O14	O	-1.401229	0.911438	-0.244966
O15	O	-1.067895	1.244771	0.088368
O16	O	-2.002882	0.504389	-0.652036
O17	O	-1.669549	0.837722	-0.318703
O18	O	-1.336215	1.171055	0.014631
O19	O	-1.808172	0.651936	-0.310023
O20	O	-1.474839	0.985269	0.023310
O21	O	-1.141505	1.318603	0.356643
O22	O	-1.660907	0.309852	-0.504598
O23	O	-1.327574	0.643185	-0.171265
O24	O	-0.994240	0.976518	0.162069
O25	O	-2.002796	0.651872	-0.504607
O26	O	-1.669463	0.985205	-0.171274
O27	O	-1.336130	1.318538	0.162060
O28	O	-1.808371	0.309803	-0.652031
O29	O	-1.475038	0.643136	-0.318698
O30	O	-1.141704	0.976470	0.014636
O31	O	-1.660794	0.504502	-0.310020
O32	O	-1.327461	0.837835	0.023314
O33	O	-0.994127	1.171168	0.356647
O34	O	-1.466284	0.504400	-0.504570
O35	O	-1.132951	0.837734	-0.171237
O36	O	-0.799618	1.171067	0.162096
O37	O	-1.660910	0.651694	-0.846566
O38	O	-1.327576	0.985027	-0.513233
O39	O	-0.994243	1.318360	-0.179899
O40	O	-1.466285	0.651758	-0.651982
O41	O	-1.132952	0.985091	-0.318649
O42	O	-0.799619	1.318425	0.014684
O43	O	-1.808372	0.504287	-0.846587
O44	O	-1.475039	0.837621	-0.513254
O45	O	-1.141706	1.170954	-0.179920
O46	O	-1.808173	0.846420	-0.504579
O47	O	-1.474840	1.179754	-0.171246
O48	O	-1.141507	1.513087	0.162087
O49	O	-1.660796	0.846344	-0.651988
O50	O	-1.327463	1.179677	-0.318654
O51	O	-0.994130	1.513010	0.014679
C52	C	-1.422737	0.578076	-0.578273
C53	C	-1.089404	0.911409	-0.244940
C54	C	-0.756071	1.244743	0.088393
C55	C	-1.289337	0.578092	-0.578291
C56	C	-0.956004	0.911426	-0.244958
C57	C	-0.622671	1.244759	0.088376
C58	C	-1.734505	0.889929	-0.578307
C59	C	-1.401172	1.223263	-0.244974
C60	C	-1.067838	1.556596	0.088360
C61	C	-1.734590	1.023329	-0.578351
C62	C	-1.401257	1.356663	-0.245017
C63	C	-1.067924	1.689996	0.088316
C64	C	-1.047604	0.578124	-0.578316
C65	C	-0.714271	0.911458	-0.244983
C66	C	-0.380938	1.244791	0.088351
C67	C	-1.181004	0.578107	-0.578299
C68	C	-0.847671	0.911440	-0.244965
C69	C	-0.514338	1.244773	0.088368
C70	C	-1.734654	0.577971	-0.891342
C71	C	-1.401321	0.911305	-0.558008
C72	C	-1.067987	1.244638	-0.224675
C73	C	-1.734693	0.577915	-1.024742
C74	C	-1.401360	0.911248	-0.691408
C75	C	-1.068027	1.244581	-0.358075
C76	C	-1.734643	1.265062	-0.578333
C77	C	-1.401310	1.598396	-0.245000
C78	C	-1.067977	1.931729	0.088333
C79	C	-1.734657	1.131662	-0.578389
C80	C	-1.401323	1.464996	-0.245055
C81	C	-1.067990	1.798329	0.088278
C82	C	-1.734539	0.578151	-0.266474
C83	C	-1.401206	0.911484	0.066859
C84	C	-1.067873	1.244817	0.400192
C85	C	-1.734732	0.577869	-0.133075
C86	C	-1.401399	0.911203	0.200259
C87	C	-1.068066	1.244536	0.533592
