data_functionalizedCrystal
_audit_creation_method	'MofGen! by Chris Wilmer'
_symmetry_space_group_name_H-M	'P1'
_symmetry_Int_Tables_number	1
_symmetry_cell_setting	triclinic
loop_
_symmetry_equiv_pos_as_xyz
  x,y,z
_cell_length_a	14.971491
_cell_length_b	23.532357
_cell_length_c	14.048226
_cell_angle_alpha	89.988030
_cell_angle_beta	89.991693
_cell_angle_gamma	83.222263
loop_
_atom_site_label
_atom_site_type_symbol
_atom_site_fract_x
_atom_site_fract_y
_atom_site_fract_z
O1	O	1.186139	0.074232	-0.079213
O2	O	0.925643	0.083117	-0.079208
O3	O	1.063770	-0.004225	-0.079191
O4	O	1.048013	0.161574	-0.079230
O5	O	1.063753	-0.004231	0.079130
O6	O	0.925627	0.083112	0.079114
O7	O	1.186123	0.074227	0.079108
Zn8	Zn	1.055872	0.078668	0.104248
Zn9	Zn	1.055894	0.078675	-0.104347
O10	O	1.047996	0.161569	0.079091
C11	C	0.892315	0.082716	-0.000046
C12	C	0.793031	0.081524	-0.000043
C13	C	0.365390	0.076382	-0.086365
C14	C	0.458678	0.077501	-0.086361
C15	C	0.505309	0.078061	-0.000057
C16	C	0.458648	0.077497	0.086249
C17	C	0.365362	0.076374	0.086245
C18	C	0.653084	0.079838	0.086252
C19	C	0.746376	0.080962	0.086257
C20	C	0.746400	0.080964	-0.086354
C21	C	0.653114	0.079842	-0.086359
C22	C	0.606460	0.079279	-0.000052
C23	C	1.063367	-0.025446	-0.000027
C24	C	1.062182	-0.088670	-0.000018
C25	C	1.054752	-0.480710	-0.086371
C26	C	1.053626	-0.540115	-0.086376
O27	O	1.053020	-0.570831	-0.159772
N28	N	1.053058	-0.569831	-0.000076
C29	C	1.053608	-0.540139	0.086235
O30	O	1.053021	-0.570870	0.159639
C31	C	1.054728	-0.480736	0.086239
C32	C	1.055305	-0.451023	-0.000067
C33	C	1.055328	-0.450998	-0.172669
C34	C	1.056456	-0.391598	-0.172663
C35	C	1.057008	-0.361910	-0.086359
C36	C	1.056433	-0.391623	-0.000061
C37	C	1.055271	-0.451045	0.172549
C38	C	1.056391	-0.391637	0.172546
C39	C	1.056967	-0.361924	0.086240
C40	C	1.058113	-0.302536	0.086249
N41	N	1.058681	-0.272819	-0.000051
C42	C	1.058128	-0.302507	-0.086355
C43	C	1.051254	-0.664891	0.086219
C44	C	1.050141	-0.724294	0.086215
C45	C	1.050157	-0.724265	-0.086396
C46	C	1.051277	-0.664862	-0.086391
C47	C	1.051822	-0.635175	-0.000081
C48	C	1.060498	-0.177762	-0.086336
C49	C	1.061630	-0.118357	-0.086323
C50	C	1.061609	-0.118391	0.086288
C51	C	1.060482	-0.177791	0.086275
C52	C	1.059923	-0.207475	-0.000045
O53	O	1.058715	-0.271781	0.159607
O54	O	1.058704	-0.271768	-0.159747
C55	C	1.219451	0.074627	-0.000056
C56	C	1.318735	0.075820	-0.000065
C57	C	1.048398	0.182790	-0.000074
C58	C	1.049583	0.246014	-0.000090
N59	N	1.055864	0.078663	0.246608
N60	N	1.055909	0.078676	-0.246708
C61	C	1.117045	0.040004	0.296434
C62	C	1.117051	0.040004	0.396091
C63	C	1.055879	0.078666	0.445922
C64	C	0.994692	0.117327	0.396090
C65	C	0.994682	0.117324	0.296434
C66	C	0.994717	0.117331	0.603804
C67	C	0.994728	0.117335	0.703467
C68	C	1.117086	0.040011	0.703462
C69	C	1.117077	0.040008	0.603806
C70	C	1.055890	0.078670	0.553980
H71	H	0.784339	0.081421	0.156533
C72	C	0.314105	0.075765	-0.181308
N73	N	0.275480	0.075297	-0.252822
H74	H	0.496661	0.077955	-0.156635
H75	H	0.944889	0.148812	0.563239
C76	C	1.051903	-0.632183	-0.181333
N77	N	1.052371	-0.607572	-0.252847
C78	C	1.049540	-0.756932	-0.181333
N79	N	1.049074	-0.781538	-0.252835
C80	C	1.056994	-0.358985	0.267497
N81	N	1.057452	-0.334393	0.339013
H82	H	0.944914	0.148817	0.744033
C83	C	1.059856	-0.210477	0.181215
N84	N	1.059376	-0.235091	0.252725
C85	C	0.601766	0.079219	0.181195
N86	N	0.563112	0.078757	0.252704
H87	H	1.049685	-0.748482	0.156494
C88	C	1.184369	-0.002522	0.548994
N89	N	1.235052	-0.034558	0.507710
H90	H	1.166907	0.008531	0.744035
H91	H	0.496623	0.077949	0.156519
H92	H	0.615149	0.079390	-0.156635
C93	C	0.797723	0.081581	-0.181293
N94	N	0.836383	0.082047	-0.252798
C95	C	0.314042	0.075758	0.181181
N96	N	0.275389	0.075292	0.252691
C97	C	0.927394	0.159850	0.450907
N98	N	0.876703	0.191880	0.492194
H99	H	1.062101	-0.094168	-0.156606
H100	H	1.060039	-0.201924	-0.156626
C101	C	0.927385	0.159857	0.241626
N102	N	0.876695	0.191894	0.200347
H103	H	1.056922	-0.367411	-0.242942
H104	H	1.051701	-0.640724	0.156507
C105	C	1.054759	-0.483648	-0.267619
N106	N	1.054350	-0.508237	-0.339142
H107	H	1.054803	-0.475226	0.242828
H108	H	1.062063	-0.094209	0.156554
H109	H	1.166862	0.008524	0.255868
H110	H	1.166869	0.008524	0.436659
