data_functionalizedCrystal
_audit_creation_method	'MofGen! by Chris Wilmer'
_symmetry_space_group_name_H-M	'P1'
_symmetry_Int_Tables_number	1
_symmetry_cell_setting	triclinic
loop_
_symmetry_equiv_pos_as_xyz
  x,y,z
_cell_length_a	12.811457
_cell_length_b	27.732064
_cell_length_c	11.892113
_cell_angle_alpha	85.607912
_cell_angle_beta	91.068612
_cell_angle_gamma	83.349288
loop_
_atom_site_label
_atom_site_type_symbol
_atom_site_fract_x
_atom_site_fract_y
_atom_site_fract_z
O1	O	-1.388554	-0.063673	-0.048357
O2	O	-1.084828	-0.071670	-0.017219
O3	O	-1.246115	0.002701	-0.033750
O4	O	-1.227267	-0.138045	-0.031826
O5	O	-1.234294	0.008205	-0.220545
O6	O	-1.073007	-0.066166	-0.204014
O7	O	-1.376733	-0.058169	-0.235152
Zn8	Zn	-1.222993	-0.061294	-0.249241
Zn9	Zn	-1.238568	-0.068546	-0.003130
O10	O	-1.215445	-0.132541	-0.218621
C11	C	-1.040072	-0.068639	-0.106634
C12	C	-0.924324	-0.067801	-0.094767
C13	C	-1.421489	-0.061200	-0.145735
C14	C	-1.537237	-0.062039	-0.157594
C15	C	-1.239807	0.023461	-0.127103
C16	C	-1.238608	0.077118	-0.126970
C17	C	-1.221754	-0.153300	-0.125266
C18	C	-1.222953	-0.206958	-0.125392
C19	C	-0.693935	-0.060216	-0.276135
C20	C	-0.585180	-0.059429	-0.264991
C21	C	-0.598058	-0.065435	-0.061335
C22	C	-0.706813	-0.066222	-0.072480
C23	C	-0.754747	-0.063614	-0.179883
C24	C	-0.863504	-0.064405	-0.191026
C25	C	-0.876381	-0.070407	0.012628
C26	C	-0.767625	-0.069620	0.023772
C27	C	-1.135131	0.454445	-0.116357
C28	C	-1.139545	0.252774	-0.116808
O29	O	-1.059253	0.221718	-0.108531
N30	N	-1.235185	0.233411	-0.126613
C31	C	-1.329729	0.264469	-0.136298
O32	O	-1.411179	0.243372	-0.144637
C33	C	-1.325315	0.466139	-0.135839
C34	C	-1.229667	0.485499	-0.126045
C35	C	-1.039491	0.473806	-0.106562
C36	C	-1.038388	0.524221	-0.106456
C37	C	-1.132925	0.555275	-0.116144
C38	C	-1.228564	0.535914	-0.125938
C39	C	-1.419858	0.497196	-0.145516
C40	C	-1.418746	0.547616	-0.145398
C41	C	-1.323099	0.566976	-0.135604
C42	C	-1.321998	0.617384	-0.135520
N43	N	-1.226357	0.636747	-0.125715
C44	C	-1.131821	0.605693	-0.116027
C45	C	-1.332040	0.158589	-0.136541
C46	C	-1.333144	0.108172	-0.136658
C47	C	-1.142960	0.096480	-0.117165
C48	C	-1.141856	0.146899	-0.117056
C49	C	-1.236400	0.177952	-0.126736
C50	C	-1.129512	0.711568	-0.115805
C51	C	-1.128417	0.761988	-0.115704
C52	C	-1.318601	0.773675	-0.135190
C53	C	-1.319697	0.723260	-0.135297
C54	C	-1.225143	0.692207	-0.125600
O55	O	-1.402248	0.648468	-0.143779
O56	O	-1.050384	0.626799	-0.107665
C57	C	-1.136234	0.404030	-0.116463
C58	C	-1.231873	0.384669	-0.126258
C59	C	-1.326410	0.415724	-0.135946
C60	C	-1.232977	0.334252	-0.126375
C61	C	-1.138441	0.303198	-0.116687
C62	C	-1.042800	0.322561	-0.106882
C63	C	-1.041697	0.372976	-0.106775
C64	C	-1.422050	0.396360	-0.145751
C65	C	-1.423145	0.345945	-0.145858
C66	C	-1.328609	0.314891	-0.136170
N67	N	-1.212371	-0.056344	-0.417206
C68	C	-1.323099	-0.107956	-0.665210
C69	C	-1.315683	-0.104492	-0.782791
C70	C	-1.190128	-0.045951	-0.769952
C71	C	-1.197544	-0.049415	-0.652371
C72	C	-1.264031	-0.080419	-0.600004
C73	C	-1.271441	-0.083885	-0.482420
C74	C	-1.145893	-0.025341	-0.469584
C75	C	-1.138476	-0.021878	-0.587165
N76	N	-1.249198	-0.073491	0.164834
H77	H	-0.902529	-0.062284	-0.278479
Br78	Br	-1.395855	-0.141863	-0.871283
Br79	Br	-0.958914	-0.075030	0.143265
Br80	Br	-1.446894	0.815830	-0.148349
H81	H	-1.063972	0.162658	-0.109086
H82	H	-1.409034	0.183869	-0.144425
Br83	Br	-0.911174	0.431670	-0.093407
Br84	Br	-0.758992	-0.056685	-0.421891
Br85	Br	-1.014661	0.054326	-0.104020
H86	H	-1.411029	0.092414	-0.144651
H87	H	-1.497744	0.481442	-0.153491
Br88	Br	-1.099909	-0.003876	-0.841042
H89	H	-0.960503	0.539979	-0.098470
H90	H	-1.325573	-0.109132	-0.439784
H91	H	-1.495737	0.572898	-0.153274
H92	H	-0.535669	-0.056665	-0.343369
Br93	Br	-0.998601	0.788260	-0.102417
Br94	Br	-0.702568	-0.073141	0.169526
H95	H	-1.499035	0.421640	-0.153639
H96	H	-0.559013	-0.067550	0.026107
Br97	Br	-1.001189	0.669433	-0.102645
Br98	Br	-1.449501	0.696985	-0.148637
H99	H	-0.963811	0.388734	-0.098801
H100	H	-0.965825	0.297268	-0.099000
H101	H	-1.084348	0.003366	-0.629819
Br102	Br	-1.552965	0.319677	-0.159153
Br103	Br	-1.065714	0.012028	-0.381083
H104	H	-1.377225	-0.133205	-0.622571
