data_functionalizedCrystal
_audit_creation_method	'MofGen! by Chris Wilmer'
_symmetry_space_group_name_H-M	'P1'
_symmetry_Int_Tables_number	1
_symmetry_cell_setting	triclinic
loop_
_symmetry_equiv_pos_as_xyz
  x,y,z
_cell_length_a	10.654550
_cell_length_b	10.654548
_cell_length_c	9.730223
_cell_angle_alpha	90.000208
_cell_angle_beta	89.999957
_cell_angle_gamma	95.515348
loop_
_atom_site_label
_atom_site_type_symbol
_atom_site_fract_x
_atom_site_fract_y
_atom_site_fract_z
O1	O	1.667838	-0.176399	-0.114173
O2	O	2.167838	0.323601	0.385827
O3	O	1.302360	-0.193205	-0.114197
O4	O	1.802360	0.306795	0.385803
O5	O	1.493503	-0.002062	-0.114190
O6	O	1.993503	0.497938	0.385810
O7	O	1.476695	-0.367541	-0.114180
O8	O	1.976695	0.132459	0.385820
O9	O	1.493490	-0.002057	0.114390
O10	O	1.993490	0.497943	0.614390
O11	O	1.302347	-0.193200	0.114383
O12	O	1.802347	0.306800	0.614383
O13	O	1.667826	-0.176393	0.114407
O14	O	2.167826	0.323607	0.614407
Zn15	Zn	1.485085	-0.184796	0.150687
Zn16	Zn	1.985085	0.315204	0.650687
Zn17	Zn	1.485101	-0.184803	-0.150477
Zn18	Zn	1.985101	0.315197	0.349523
O19	O	1.476683	-0.367536	0.114400
O20	O	1.976683	0.132464	0.614400
C21	C	1.255555	-0.191968	0.000090
C22	C	1.755555	0.308032	0.500090
C23	C	1.116112	-0.188276	0.000080
C24	C	1.616112	0.311724	0.500080
C25	C	1.036626	-0.300818	0.000087
C26	C	1.536626	0.199182	0.500087
C27	C	0.905605	-0.297341	0.000111
C28	C	1.405605	0.202659	0.500111
C29	C	0.933570	-0.068772	0.000115
C30	C	1.433570	0.431228	0.500115
C31	C	1.064588	-0.072250	0.000101
C32	C	1.564588	0.427750	0.500101
C33	C	1.492263	0.044738	0.000095
C34	C	1.992263	0.544738	0.500095
C35	C	1.488572	0.184182	0.000082
C36	C	1.988572	0.684182	0.500082
C37	C	1.714630	-0.177630	0.000117
C38	C	2.214630	0.322370	0.500117
C39	C	1.854073	-0.181322	0.000118
C40	C	2.354073	0.318678	0.500118
C41	C	1.483363	0.380719	-0.124511
C42	C	1.983363	0.880719	0.375489
C43	C	1.486844	0.249699	-0.124516
C44	C	1.986844	0.749699	0.375484
C45	C	1.486831	0.249693	0.124694
C46	C	1.986831	0.749693	0.624694
C47	C	1.483359	0.380712	0.124698
C48	C	1.983359	0.880712	0.624698
N49	N	1.485083	-0.184790	0.356223
N50	N	1.985083	0.315210	0.856223
C51	C	1.477924	0.585664	0.000105
C52	C	1.977924	1.085664	0.500105
C53	C	1.481619	0.446221	0.000091
C54	C	1.981619	0.946221	0.500091
N55	N	1.485113	-0.184798	-0.356014
N56	N	1.985113	0.315202	0.143986
C57	C	1.569750	-0.100188	0.428152
C58	C	2.069750	0.399812	0.928152
C59	C	1.569762	-0.100189	0.572035
C60	C	2.069762	0.399811	1.072035
C61	C	1.400436	-0.269404	0.572047
C62	C	1.900436	0.230596	1.072047
C63	C	1.400419	-0.269396	0.428167
C64	C	1.900419	0.230604	0.928167
H65	H	1.129309	0.019401	0.000099
H66	H	1.629309	0.519401	0.500099
H67	H	1.638705	-0.031297	0.630596
H68	H	2.138705	0.468703	1.130596
N69	N	0.819877	-0.418728	0.000100
N70	N	1.319877	0.081272	0.500100
H71	H	0.729057	-0.398924	0.000115
H72	H	1.229057	0.101076	0.500115
H73	H	0.836683	-0.469247	0.084830
H74	H	1.336683	0.030753	0.584830
N75	N	1.309124	-0.360655	0.649644
N76	N	1.809124	0.139345	1.149644
H77	H	1.321983	-0.347826	0.751707
H78	H	1.821983	0.152174	1.251707
H79	H	1.324395	-0.449886	0.624483
H80	H	1.824395	0.050114	1.124483
H81	H	1.481944	0.434053	-0.225974
H82	H	1.981944	0.934053	0.274026
H83	H	1.638687	-0.031295	0.369579
H84	H	2.138687	0.468705	0.869579
H85	H	1.078572	-0.395294	0.000080
H86	H	1.578572	0.104706	0.500080
H87	H	0.891602	0.025693	0.000140
H88	H	1.391602	0.525693	0.500140
H89	H	1.488266	0.196374	-0.225980
H90	H	1.988266	0.696374	0.274020
H91	H	1.331466	-0.338290	0.369598
H92	H	1.831466	0.161710	0.869598
H93	H	1.481943	0.434045	0.226170
H94	H	1.981943	0.934045	0.726170
N95	N	1.488711	0.179037	0.259086
N96	N	1.988711	0.679037	0.759086
H97	H	1.491174	0.086097	0.240179
H98	H	1.991174	0.586097	0.740179
H99	H	1.410384	0.192432	0.313497
H100	H	1.910384	0.692432	0.813497
