data_functionalizedCrystal
_audit_creation_method	'MofGen! by Chris Wilmer'
_symmetry_space_group_name_H-M	'P1'
_symmetry_Int_Tables_number	1
_symmetry_cell_setting	triclinic
loop_
_symmetry_equiv_pos_as_xyz
  x,y,z
_cell_length_a	17.699097
_cell_length_b	10.654541
_cell_length_c	16.176319
_cell_angle_alpha	90.006544
_cell_angle_beta	90.011012
_cell_angle_gamma	83.886179
loop_
_atom_site_label
_atom_site_type_symbol
_atom_site_fract_x
_atom_site_fract_y
_atom_site_fract_z
O1	O	1.005082	0.158889	0.068815
O2	O	0.784836	0.179533	0.068801
O3	O	0.900024	-0.013617	0.068803
O4	O	0.889894	0.352038	0.068813
O5	O	0.900008	-0.013630	-0.068690
O6	O	0.784820	0.179520	-0.068692
O7	O	1.005066	0.158876	-0.068678
Cu8	Cu	0.894941	0.169197	-0.081239
Cu9	Cu	0.894960	0.169212	0.081362
O10	O	0.889878	0.352026	-0.068680
C11	C	0.756626	0.178784	0.000053
C12	C	0.672595	0.176556	0.000048
C13	C	0.156798	0.162909	0.075028
C14	C	0.235756	0.164993	0.075024
C15	C	0.275220	0.166031	0.000074
C16	C	0.235723	0.164971	-0.074878
C17	C	0.156768	0.162877	-0.074873
C18	C	0.554141	0.173412	-0.074900
C19	C	0.633101	0.175509	-0.074899
C20	C	0.633129	0.175528	0.074998
C21	C	0.554173	0.173434	0.075003
C22	C	0.514684	0.172368	0.000052
C23	C	0.429070	0.170105	0.000057
C24	C	0.360832	0.168302	0.000067
C25	C	0.899272	-0.060408	0.000057
C26	C	0.897048	-0.199813	0.000059
C27	C	1.034786	-0.230184	0.000056
C28	C	1.102607	-0.310860	0.000054
C29	C	1.100513	-0.441842	0.000056
C30	C	1.030590	-0.492149	0.000064
C31	C	0.962769	-0.411473	0.000067
C32	C	0.964871	-0.280490	0.000062
C33	C	0.825032	-0.381102	0.000075
C34	C	0.827125	-0.250120	0.000066
C35	C	0.755109	-0.431409	0.000082
C36	C	0.687287	-0.350732	0.000079
C37	C	0.689384	-0.219743	0.000076
C38	C	0.759304	-0.169444	0.000069
C39	C	1.033275	0.159625	0.000072
C40	C	1.117307	0.161853	0.000083
C41	C	0.890629	0.398817	0.000068
C42	C	0.892853	0.538222	0.000072
N43	N	0.894933	0.169186	-0.195604
C44	C	0.945954	0.083694	-0.238868
C45	C	0.945958	0.083693	-0.325415
C46	C	0.894944	0.169190	-0.368697
C47	C	0.843918	0.254686	-0.325428
C48	C	0.843911	0.254681	-0.238882
C49	C	0.843944	0.254710	-0.674456
C50	C	0.843956	0.254712	-0.761007
C51	C	0.945991	0.083722	-0.760989
C52	C	0.945984	0.083717	-0.674443
C53	C	0.894956	0.169207	-0.631181
C54	C	0.894951	0.169206	-0.537337
C55	C	0.894952	0.169199	-0.462540
N56	N	0.894974	0.169213	0.195728
H57	H	0.267907	0.165845	0.136053
H58	H	0.124614	0.162031	-0.135902
H59	H	0.522045	0.172596	0.136036
O60	O	1.170463	-0.261783	0.000008
C61	C	1.157774	-0.128876	0.000025
H62	H	1.098867	-0.097941	-0.026001
H63	H	1.161649	-0.092412	0.065986
C64	C	1.290602	-0.112735	-0.021936
C65	C	1.218254	-0.074740	-0.053908
H66	H	1.327911	-0.079340	-0.055201
H67	H	1.299152	-0.202277	-0.021945
H68	H	1.293821	-0.082346	0.033031
H69	H	1.215033	-0.105142	-0.108870
H70	H	1.209705	0.014798	-0.053910
H71	H	0.665291	0.176391	0.136027
O72	O	0.274040	0.165751	-0.147707
C73	C	0.262724	0.056531	-0.193312
H74	H	0.246622	-0.020028	-0.149458
H75	H	0.215076	0.079888	-0.240044
C76	C	0.356259	0.103121	-0.293104
C77	C	0.336488	0.009087	-0.239241
H78	H	0.401759	0.073857	-0.321439
H79	H	0.363881	0.176708	-0.262382
H80	H	0.316546	0.122577	-0.332040
H81	H	0.376197	-0.010356	-0.200300
H82	H	0.328875	-0.064505	-0.269958
O83	O	0.671326	0.176448	-0.147785
C84	C	0.619540	0.175085	-0.213939
H85	H	0.566186	0.133855	-0.191966
H86	H	0.603726	0.275564	-0.236990
C87	C	0.721935	0.144202	-0.311732
C88	C	0.656408	0.093552	-0.284746
H89	H	0.744677	0.093914	-0.355411
H90	H	0.756824	0.145125	-0.267163
H91	H	0.708748	0.227933	-0.330935
H92	H	0.669597	0.009829	-0.265533
H93	H	0.621521	0.092613	-0.329313
O94	O	0.619436	-0.399808	0.000052
C95	C	0.632131	-0.532714	0.000084
H96	H	0.691027	-0.563657	-0.025947
H97	H	0.628285	-0.569142	0.066050
C98	C	0.499294	-0.548884	-0.021857
C99	C	0.571630	-0.586888	-0.053835
H100	H	0.461973	-0.582303	-0.055113
H101	H	0.490741	-0.459342	-0.021876
H102	H	0.496101	-0.579243	0.033114
H103	H	0.574826	-0.556516	-0.108801
H104	H	0.580183	-0.676426	-0.053827
H105	H	0.521999	0.172525	-0.135930
O106	O	0.623430	-0.141557	0.000044
C107	C	0.561272	-0.214053	0.000076
H108	H	0.579963	-0.311877	-0.025954
H109	H	0.539892	-0.223303	0.066042
C110	C	0.474051	-0.028456	-0.021868
C111	C	0.497006	-0.148602	-0.053844
H112	H	0.434406	0.011919	-0.055125
H113	H	0.515927	0.020388	-0.021886
H114	H	0.456239	-0.036180	0.033103
H115	H	0.514826	-0.140875	-0.108810
H116	H	0.455131	-0.197443	-0.053837
H117	H	1.036499	-0.123534	0.000043
O118	O	0.794321	0.337808	-0.802925
C119	C	0.749290	0.413283	-0.746184
H120	H	0.748162	0.361796	-0.684496
H121	H	0.774340	0.506532	-0.736963
C122	C	0.669172	0.502547	-0.855757
C123	C	0.667781	0.439306	-0.779993
H124	H	0.618894	0.518606	-0.876612
H125	H	0.699511	0.451703	-0.893986
H126	H	0.690051	0.580248	-0.848062
H127	H	0.646912	0.361600	-0.787690
H128	H	0.637436	0.490138	-0.741766
O129	O	0.995398	0.000600	-0.632272
C130	C	0.984376	0.018806	-0.546607
H131	H	0.956769	0.118792	-0.534741
H132	H	0.945878	-0.052028	-0.522182
C133	C	1.095541	-0.123488	-0.516631
C134	C	1.061640	-0.000680	-0.502056
H135	H	1.143200	-0.135513	-0.489149
H136	H	1.102965	-0.135758	-0.574345
H137	H	1.063452	-0.182503	-0.496276
H138	H	1.093724	0.058331	-0.522421
H139	H	1.054222	0.011599	-0.444345
H140	H	1.155739	-0.507529	0.000060
O141	O	0.995538	0.000520	-0.196955
C142	C	1.040583	-0.074917	-0.253704
H143	H	1.009551	-0.076268	-0.315406
H144	H	1.097017	-0.034253	-0.262887
C145	C	1.093587	-0.208769	-0.144156
C146	C	1.055470	-0.210436	-0.219937
H147	H	1.102774	-0.292362	-0.123326
H148	H	1.063242	-0.157943	-0.105922
H149	H	1.140611	-0.174876	-0.151818
H150	H	1.008443	-0.244313	-0.212271
H151	H	1.085807	-0.261271	-0.258169
H152	H	1.028891	-0.598802	0.000076
H153	H	0.124672	0.162073	0.136062
O154	O	0.995521	0.000489	-0.802925
C155	C	0.982556	-0.123802	-0.781805
H156	H	0.953382	-0.123586	-0.718975
H157	H	0.944684	-0.162562	-0.830526
C158	C	1.094795	-0.207769	-0.854961
C159	C	1.058968	-0.207505	-0.777789
H160	H	1.141928	-0.259403	-0.852487
H161	H	1.103528	-0.124032	-0.869194
H162	H	1.063226	-0.240066	-0.895554
H163	H	1.090532	-0.175194	-0.737199
H164	H	1.050242	-0.291239	-0.763549
H165	H	0.987503	0.014078	-0.360639
O166	O	0.794489	0.337823	-0.632352
C167	C	0.835422	0.415237	-0.582290
H168	H	0.894376	0.365090	-0.569301
H169	H	0.841062	0.508032	-0.615641
C170	C	0.720472	0.503780	-0.516050
C171	C	0.792878	0.442184	-0.500091
H172	H	0.694227	0.520408	-0.465348
H173	H	0.692893	0.451629	-0.549780
H174	H	0.725181	0.581103	-0.543845
H175	H	0.788167	0.364857	-0.472306
H176	H	0.820455	0.494323	-0.466354
O177	O	0.794323	0.337852	-0.196982
C178	C	0.749286	0.413297	-0.253739
H179	H	0.780327	0.414661	-0.315422
H180	H	0.692854	0.372631	-0.262967
C181	C	0.696263	0.547126	-0.144191
C182	C	0.734391	0.548809	-0.219949
H183	H	0.687071	0.630715	-0.123347
H184	H	0.726603	0.496295	-0.105952
H185	H	0.649241	0.513231	-0.151891
H186	H	0.781416	0.582688	-0.212246
H187	H	0.704058	0.599649	-0.258187
H188	H	0.753409	-0.538062	0.000089
H189	H	0.802378	0.324296	-0.360673
H190	H	0.761018	-0.062794	0.000061
