data_functionalizedCrystal
_audit_creation_method	'MofGen! by Chris Wilmer'
_symmetry_space_group_name_H-M	'P1'
_symmetry_Int_Tables_number	1
_symmetry_cell_setting	triclinic
loop_
_symmetry_equiv_pos_as_xyz
  x,y,z
_cell_length_a	16.625547
_cell_length_b	16.625545
_cell_length_c	12.759393
_cell_angle_alpha	90.033904
_cell_angle_beta	90.025922
_cell_angle_gamma	90.025495
loop_
_atom_site_label
_atom_site_type_symbol
_atom_site_fract_x
_atom_site_fract_y
_atom_site_fract_z
Zn1	Zn	1.232672	-0.320955	0.594172
Zn2	Zn	1.566005	0.012378	0.927506
Zn3	Zn	1.899339	0.345711	1.260839
Zn4	Zn	1.232565	-0.455812	0.418485
Zn5	Zn	1.565899	-0.122479	0.751819
Zn6	Zn	1.899232	0.210855	1.085152
Zn7	Zn	1.097831	-0.320997	0.418489
Zn8	Zn	1.431165	0.012336	0.751822
Zn9	Zn	1.764498	0.345670	1.085156
Zn10	Zn	1.097797	-0.455750	0.594104
Zn11	Zn	1.431130	-0.122416	0.927437
Zn12	Zn	1.764464	0.210917	1.260771
O13	O	1.165216	-0.388379	0.506313
O14	O	1.498550	-0.055045	0.839646
O15	O	1.831883	0.278288	1.172979
O16	O	1.345490	-0.338853	0.570894
O17	O	1.678824	-0.005520	0.904228
O18	O	2.012157	0.327814	1.237561
O19	O	1.214662	-0.437972	0.271465
O20	O	1.547996	-0.104639	0.604798
O21	O	1.881329	0.228694	0.938131
O22	O	1.115777	-0.208159	0.441824
O23	O	1.449110	0.125174	0.775157
O24	O	1.782444	0.458508	1.108491
O25	O	1.345412	-0.437932	0.441818
O26	O	1.678745	-0.104598	0.775151
O27	O	2.012079	0.228735	1.108484
O28	O	1.214844	-0.208128	0.570898
O29	O	1.548177	0.125205	0.904231
O30	O	1.881511	0.458538	1.237564
O31	O	1.115674	-0.338924	0.271467
O32	O	1.449007	-0.005591	0.604801
O33	O	1.782340	0.327742	0.938134
O34	O	0.984994	-0.338864	0.441758
O35	O	1.318328	-0.005530	0.775091
O36	O	1.651661	0.327803	1.108424
O37	O	1.115719	-0.437825	0.741134
O38	O	1.449052	-0.104492	1.074468
O39	O	1.782385	0.228842	1.407801
O40	O	0.984969	-0.437866	0.570781
O41	O	1.318302	-0.104532	0.904115
O42	O	1.651636	0.228801	1.237448
O43	O	1.214811	-0.338792	0.741184
O44	O	1.548144	-0.005459	1.074518
O45	O	1.881477	0.327874	1.407851
O46	O	1.214629	-0.568636	0.441751
O47	O	1.547962	-0.235303	0.775085
O48	O	1.881296	0.098030	1.108418
O49	O	1.115615	-0.568590	0.570778
O50	O	1.448949	-0.235257	0.904111
O51	O	1.782282	0.098076	1.237444
C52	C	0.955725	-0.388363	0.506263
C53	C	1.289059	-0.055030	0.839596
C54	C	1.622392	0.278304	1.172930
C55	C	0.866104	-0.388376	0.506267
C56	C	1.199438	-0.055042	0.839600
C57	C	1.532771	0.278291	1.172933
C58	C	0.793322	-0.388377	0.506280
C59	C	1.126655	-0.055044	0.839613
C60	C	1.459989	0.278290	1.172946
C61	C	0.702013	-0.388381	0.506306
C62	C	1.035347	-0.055048	0.839639
C63	C	1.368680	0.278285	1.172973
C64	C	0.629237	-0.388389	0.506333
C65	C	0.962570	-0.055055	0.839666
C66	C	1.295904	0.278278	1.172999
C67	C	0.537923	-0.388394	0.506358
C68	C	0.871256	-0.055061	0.839691
C69	C	1.204589	0.278272	1.173025
C70	C	1.165129	-0.597869	0.506280
C71	C	1.498462	-0.264536	0.839613
C72	C	1.831795	0.068797	1.172946
C73	C	1.165165	-0.687490	0.506301
C74	C	1.498498	-0.354157	0.839634
C75	C	1.831832	-0.020824	1.172967
C76	C	1.165196	-0.760273	0.506321
C77	C	1.498530	-0.426940	0.839655
C78	C	1.831863	-0.093606	1.172988
C79	C	1.165243	-0.851581	0.506345
C80	C	1.498577	-0.518248	0.839678
C81	C	1.831910	-0.184915	1.173011
C82	C	1.165285	-0.924358	0.506358
C83	C	1.498618	-0.591024	0.839691
C84	C	1.831952	-0.257691	1.173025
C85	C	1.165331	-1.015672	0.506380
C86	C	1.498665	-0.682339	0.839713
C87	C	1.831998	-0.349005	1.173046
C88	C	1.375525	-0.388395	0.506363
C89	C	1.708859	-0.055061	0.839696
C90	C	2.042192	0.278272	1.173030
C91	C	1.465146	-0.388402	0.506385
C92	C	1.798480	-0.055068	0.839718
C93	C	2.131813	0.278265	1.173051
C94	C	1.165273	-0.388297	0.780346
C95	C	1.498606	-0.054964	1.113680
C96	C	1.831939	0.278370	1.447013
C97	C	1.165297	-0.388262	0.897123
C98	C	1.498630	-0.054929	1.230456
C99	C	1.831964	0.278404	1.563790
C100	C	1.165326	-0.178070	0.506369
C101	C	1.498660	0.155264	0.839702
C102	C	1.831993	0.488597	1.173036
C103	C	1.165373	-0.088448	0.506393
C104	C	1.498706	0.244885	0.839726
C105	C	1.832040	0.578218	1.173060
C106	C	1.165206	-0.388401	0.233345
C107	C	1.498540	-0.055068	0.566679
C108	C	1.831873	0.278265	0.900012
C109	C	1.165339	-0.388209	0.116569
C110	C	1.498672	-0.054876	0.449903
C111	C	1.832005	0.278458	0.783236
C112	C	1.216901	-0.336691	0.952013
C113	C	1.550235	-0.003358	1.285346
C114	C	1.883568	0.329975	1.618679
C115	C	1.216920	-0.336662	1.061737
C116	C	1.550254	-0.003329	1.395070
C117	C	1.883587	0.330005	1.728404
C118	C	1.113729	-0.439782	1.061672
C119	C	1.447062	-0.106449	1.395005
C120	C	1.780395	0.226884	1.728338
C121	C	1.113706	-0.439807	0.951949
C122	C	1.447039	-0.106474	1.285283
C123	C	1.780373	0.226860	1.618616
C124	C	1.268492	-0.285147	0.897186
C125	C	1.601825	0.048186	1.230520
C126	C	1.935159	0.381520	1.563853
C127	C	1.320101	-0.233572	0.952076
C128	C	1.653435	0.099761	1.285410
C129	C	1.986768	0.433095	1.618743
C130	C	1.320121	-0.233543	1.061800
C131	C	1.653454	0.099790	1.395134
C132	C	1.986787	0.433124	1.728467
C133	C	1.268530	-0.285089	1.116635
C134	C	1.601864	0.048245	1.449968
C135	C	1.935197	0.381578	1.783301
H136	H	1.268484	-0.285167	0.807843
H137	H	1.601817	0.048167	1.141177
H138	H	1.935151	0.381500	1.474510
H139	H	1.071726	-0.481748	1.106326
H140	H	1.405059	-0.148415	1.439660
H141	H	1.738393	0.184919	1.772993
H142	H	1.268541	-0.285051	1.205979
H143	H	1.601874	0.048282	1.539313
H144	H	1.935208	0.381615	1.872646
H145	H	1.362099	-0.191601	0.907423
H146	H	1.695432	0.141733	1.240756
H147	H	2.028766	0.475066	1.574090
H148	H	1.362137	-0.191542	1.106489
H149	H	1.695471	0.141791	1.439822
H150	H	2.028804	0.475124	1.773156
H151	H	1.071673	-0.481788	0.907257
H152	H	1.405006	-0.148455	1.240590
H153	H	1.738339	0.184878	1.573924
