data_functionalizedCrystal
_audit_creation_method	'MofGen! by Chris Wilmer'
_symmetry_space_group_name_H-M	'P1'
_symmetry_Int_Tables_number	1
_symmetry_cell_setting	triclinic
loop_
_symmetry_equiv_pos_as_xyz
  x,y,z
_cell_length_a	12.759400
_cell_length_b	19.077105
_cell_length_c	19.077569
_cell_angle_alpha	85.299277
_cell_angle_beta	92.314920
_cell_angle_gamma	92.299797
loop_
_atom_site_label
_atom_site_type_symbol
_atom_site_fract_x
_atom_site_fract_y
_atom_site_fract_z
Zn1	Zn	0.457499	1.093831	-0.441906
Zn2	Zn	0.639973	1.089060	-0.324038
Zn3	Zn	0.457514	0.971214	-0.319301
Zn4	Zn	0.626340	0.975953	-0.437156
O5	O	0.545331	1.032514	-0.380600
O6	O	0.487403	1.191850	-0.430241
O7	O	0.621481	1.069447	-0.224759
O8	O	0.310491	0.987493	-0.335571
O9	O	0.621467	1.188344	-0.343644
O10	O	0.310480	1.077579	-0.425648
O11	O	0.487429	0.982866	-0.221279
O12	O	0.474210	0.873191	-0.330965
O13	O	0.598231	0.995570	-0.536437
O14	O	0.598246	0.876672	-0.417552
O15	O	0.474184	1.082175	-0.539927
O16	O	0.785185	1.074042	-0.339038
O17	O	0.775169	0.990943	-0.422146
C18	C	0.534751	0.849352	-0.373230
C19	C	0.530249	0.770995	-0.370093
C20	C	0.271299	1.032540	-0.380610
C21	C	0.154523	1.032551	-0.380615
C22	C	0.592818	0.736011	-0.413630
C23	C	0.588573	0.662387	-0.410687
C24	C	0.521765	0.623748	-0.364202
C25	C	0.459189	0.658736	-0.320663
C26	C	0.463428	0.732360	-0.323611
C27	C	0.502144	0.403361	-0.350563
C28	C	0.497912	0.329733	-0.347617
C29	C	0.627295	0.333389	-0.437642
C30	C	0.631534	0.407013	-0.440582
C31	C	0.568953	0.441996	-0.397046
N32	N	0.517427	0.548491	-0.361190
N33	N	0.573286	0.517251	-0.400062
C34	C	0.099665	0.985655	-0.333720
C35	C	-0.010059	0.985663	-0.333732
C36	C	-0.010058	1.079470	-0.427535
C37	C	0.099664	1.079457	-0.427526
C38	C	-0.163360	0.901524	-0.305209
C39	C	-0.218220	0.854633	-0.258304
C40	C	-0.179259	0.841032	-0.189079
C41	C	-0.085438	0.874330	-0.166745
C42	C	-0.030583	0.921225	-0.213646
C43	C	-0.069543	0.934814	-0.282881
C44	C	0.252967	1.163598	-0.456042
C45	C	0.307824	1.210497	-0.502940
C46	C	0.268866	1.224106	-0.572167
C47	C	0.175042	1.190820	-0.594499
C48	C	0.120184	1.143921	-0.547601
C49	C	0.159150	1.130311	-0.478374
C50	C	0.818298	1.032509	-0.380607
C51	C	0.935077	1.032572	-0.380635
C52	C	0.534685	1.039933	-0.564476
C53	C	0.530148	1.043095	-0.642833
C54	C	0.555954	1.216392	-0.388000
C55	C	0.560481	1.294749	-0.391154
C56	C	0.592596	0.999490	-0.677829
C57	C	0.588334	1.002467	-0.751454
C58	C	0.521617	1.049045	-0.790081
C59	C	0.459166	1.092654	-0.755079
C60	C	0.463435	1.089680	-0.681456
C61	C	0.501930	1.062776	-1.010466
C62	C	0.497663	1.065744	-1.084094
C63	C	0.626833	0.975558	-1.080464
C64	C	0.631091	0.972586	-1.006839
C65	C	0.568645	1.016197	-0.971844
N66	N	0.517256	1.052086	-0.865337
N67	N	0.573012	1.013158	-0.896590
C68	C	0.555863	1.025165	-0.197442
C69	C	0.560111	1.022140	-0.119091
H70	H	0.647224	0.767467	-0.451481
Br71	Br	-0.007152	1.098748	-0.577907
H72	H	0.451195	0.431835	-0.315107
Br73	Br	0.417177	1.121961	-0.962982
H74	H	-0.054735	1.117661	-0.465728
Br75	Br	0.407057	1.128925	-1.136515
Br76	Br	0.122156	1.209294	-0.688450
Br77	Br	-0.253717	0.777398	-0.125423
Br78	Br	0.673490	0.614911	-0.469777
Br79	Br	0.722212	0.459447	-0.503667
H80	H	0.646912	0.961553	-0.646384
Br81	Br	0.343306	1.287767	-0.635812
Br82	Br	0.407249	0.277293	-0.284518
H83	H	0.412583	1.125187	-0.652963
Br84	Br	0.673102	0.943295	-0.798947
Br85	Br	0.721629	0.909365	-0.954422
H86	H	0.678243	0.304898	-0.473087
Br87	Br	0.368508	0.606298	-0.257582
H88	H	0.384218	1.237603	-0.484750
Br89	Br	0.305866	1.145110	-0.362094
Br90	Br	0.711580	0.916376	-1.127961
H91	H	0.404849	1.130581	-0.786535
H92	H	0.412472	0.760843	-0.288162
H93	H	0.045803	0.948337	-0.195462
Br94	Br	0.174114	0.921995	-0.270057
H95	H	-0.294610	0.827523	-0.276495
Br96	Br	-0.032578	0.855880	-0.072785
Br97	Br	-0.216225	0.919962	-0.399169
