data_functionalizedCrystal
_audit_creation_method	'MofGen! by Chris Wilmer'
_symmetry_space_group_name_H-M	'P1'
_symmetry_Int_Tables_number	1
_symmetry_cell_setting	triclinic
loop_
_symmetry_equiv_pos_as_xyz
  x,y,z
_cell_length_a	16.625546
_cell_length_b	14.908780
_cell_length_c	14.908308
_cell_angle_alpha	90.212689
_cell_angle_beta	93.264070
_cell_angle_gamma	86.688495
loop_
_atom_site_label
_atom_site_type_symbol
_atom_site_fract_x
_atom_site_fract_y
_atom_site_fract_z
Zn1	Zn	-0.282053	-1.345302	-0.587852
Zn2	Zn	0.217947	-0.845302	-0.087852
Zn3	Zn	-0.408703	-1.353878	-0.437487
Zn4	Zn	0.091297	-0.853878	0.062513
Zn5	Zn	-0.281177	-1.203616	-0.428820
Zn6	Zn	0.218823	-0.703616	0.071180
Zn7	Zn	-0.424138	-1.194903	-0.579104
Zn8	Zn	0.075862	-0.694903	-0.079104
O9	O	-0.349018	-1.274425	-0.508316
O10	O	0.150982	-0.774425	-0.008316
O11	O	-0.292761	-1.472267	-0.575195
O12	O	0.207239	-0.972267	-0.075195
O13	O	-0.384960	-1.341180	-0.310515
O14	O	0.115040	-0.841180	0.189485
O15	O	-0.168459	-1.222468	-0.449950
O16	O	0.331541	-0.722468	0.050050
O17	O	-0.385810	-1.478568	-0.464722
O18	O	0.114190	-0.978568	0.035278
O19	O	-0.169103	-1.326564	-0.566791
O20	O	0.330897	-0.826564	-0.066791
O21	O	-0.291267	-1.230783	-0.304147
O22	O	0.208733	-0.730783	0.195853
O23	O	-0.306234	-1.076632	-0.441467
O24	O	0.193766	-0.576632	0.058533
O25	O	-0.412117	-1.207619	-0.706087
O26	O	0.087883	-0.707619	-0.206087
O27	O	-0.411267	-1.070231	-0.551880
O28	O	0.088733	-0.570231	-0.051880
O29	O	-0.307728	-1.318116	-0.712515
O30	O	0.192272	-0.818116	-0.212515
O31	O	-0.523584	-1.332732	-0.456238
O32	O	-0.023584	-0.832732	0.043762
O33	O	-0.534925	-1.215934	-0.560284
O34	O	-0.034925	-0.715934	-0.060284
C35	C	-0.360331	-1.040806	-0.494784
C36	C	0.139669	-0.540806	0.005216
C37	C	-0.365191	-0.940861	-0.489016
C38	C	0.134809	-0.440861	0.010984
C39	C	-0.277582	-0.746482	-0.593390
C40	C	0.222418	-0.246482	-0.093390
C41	C	-0.282146	-0.652575	-0.587973
C42	C	0.217854	-0.152575	-0.087973
C43	C	-0.378878	-0.659139	-0.472764
C44	C	0.121122	-0.159139	0.027236
C45	C	-0.374314	-0.753046	-0.478180
C46	C	0.125686	-0.253046	0.021820
C47	C	-0.323666	-0.796714	-0.538496
C48	C	0.176334	-0.296714	-0.038496
C49	C	-0.319106	-0.890622	-0.543916
C50	C	0.180894	-0.390622	-0.043916
C51	C	-0.415833	-0.897185	-0.428703
C52	C	0.084167	-0.397185	0.071297
C53	C	-0.420397	-0.803278	-0.423286
C54	C	0.079603	-0.303278	0.076714
C55	C	-0.558511	-1.274342	-0.508273
C56	C	-0.058511	-0.774342	-0.008273
C57	C	-0.648130	-1.274387	-0.508290
C58	C	-0.148130	-0.774387	-0.008290
C59	C	-0.976303	-1.274538	-0.508393
C60	C	-0.476303	-0.774538	-0.008393
C61	C	-0.884996	-1.274493	-0.508366
C62	C	-0.384996	-0.774493	-0.008366
C63	C	-0.812220	-1.274462	-0.508341
C64	C	-0.312220	-0.774462	-0.008341
C65	C	-0.720907	-1.274418	-0.508315
C66	C	-0.220907	-0.774418	-0.008315
C67	C	-0.138707	-1.274531	-0.508380
C68	C	0.361293	-0.774531	-0.008380
C69	C	-0.049085	-1.274577	-0.508407
C70	C	0.450915	-0.774577	-0.008407
C71	C	-0.361742	-1.260939	-0.742837
C72	C	0.138258	-0.760939	-0.242837
C73	C	-0.367164	-1.255192	-0.842777
C74	C	0.132836	-0.755192	-0.342777
C75	C	-0.337654	-0.508956	-0.521894
C76	C	0.162346	-0.008956	-0.021894
C77	C	-0.332794	-0.608900	-0.527664
C78	C	0.167206	-0.108900	-0.027664
C79	C	-0.268634	-1.359452	-1.037268
C80	C	0.231366	-0.859452	-0.537268
C81	C	-0.273725	-1.354055	-1.131169
C82	C	0.226275	-0.854055	-0.631169
C83	C	-0.382435	-1.238998	-1.124484
C84	C	0.117565	-0.738998	-0.624484
C85	C	-0.377343	-1.244394	-1.030582
C86	C	0.122657	-0.744394	-0.530582
C87	C	-0.320441	-1.304624	-0.986977
C88	C	0.179559	-0.804624	-0.486977
C89	C	-0.315354	-1.310025	-0.893074
C90	C	0.184646	-0.810025	-0.393074
C91	C	-0.424059	-1.194964	-0.886390
C92	C	0.075941	-0.694964	-0.386390
C93	C	-0.429151	-1.189567	-0.980292
C94	C	0.070849	-0.689567	-0.480292
C95	C	-0.336283	-1.287910	-0.274710
C96	C	0.163717	-0.787910	0.225290
C97	C	-0.330625	-1.293831	-0.174781
C98	C	0.169375	-0.793831	0.325219
H99	H	-0.236346	-0.782037	-0.642505
H100	H	0.263654	-0.282037	-0.142505
H101	H	-0.231536	-1.398698	-1.172112
H102	H	0.268464	-0.898698	-0.672112
N103	N	-0.253992	-1.374992	-0.846039
N104	N	0.246008	-0.874992	-0.346039
H105	H	-0.216286	-1.340714	-0.804966
H106	H	0.283714	-0.840714	-0.304966
H107	H	-0.282699	-1.418867	-0.809541
H108	H	0.217301	-0.918867	-0.309541
N109	N	-0.475030	-0.756182	-0.358238
N110	N	0.024970	-0.256182	0.141762
H111	H	-0.458146	-0.776208	-0.294961
H112	H	0.041854	-0.276208	0.205039
H113	H	-0.470910	-0.689081	-0.363209
H114	H	0.029090	-0.189081	0.136791
H115	H	-0.244619	-0.611680	-0.632671
H116	H	0.255381	-0.111680	-0.132671
N117	N	-0.207274	-1.424419	-0.990230
N118	N	0.292726	-0.924419	-0.490230
H119	H	-0.175228	-1.458337	-1.036339
H120	H	0.324772	-0.958337	-0.536339
H121	H	-0.169619	-1.390078	-0.949159
H122	H	0.330381	-0.890078	-0.449159
N123	N	-0.443772	-1.174004	-1.171520
N124	N	0.056228	-0.674004	-0.671520
H125	H	-0.439122	-1.178895	-1.238636
H126	H	0.060878	-0.678895	-0.738636
H127	H	-0.499804	-1.188883	-1.155924
H128	H	0.000196	-0.688883	-0.655924
H129	H	-0.420104	-0.623569	-0.423648
H130	H	0.079896	-0.123569	0.076352
H131	H	-0.475477	-1.140528	-1.015807
H132	H	0.024523	-0.640528	-0.515807
H133	H	-0.453364	-0.938093	-0.384011
H134	H	0.046636	-0.438093	0.115989
N135	N	-0.479948	-1.135830	-0.832149
N136	N	0.020052	-0.635830	-0.332149
H137	H	-0.468092	-1.148388	-0.766045
H138	H	0.031908	-0.648388	-0.266045
H139	H	-0.471404	-1.070672	-0.844844
H140	H	0.028596	-0.570672	-0.344844
H141	H	-0.277866	-0.926175	-0.593029
H142	H	0.222134	-0.426175	-0.093029
