data_functionalizedCrystal
_audit_creation_method	'MofGen! by Chris Wilmer'
_symmetry_space_group_name_H-M	'P1'
_symmetry_Int_Tables_number	1
_symmetry_cell_setting	triclinic
loop_
_symmetry_equiv_pos_as_xyz
  x,y,z
_cell_length_a	14.853567
_cell_length_b	14.853567
_cell_length_c	13.330367
_cell_angle_alpha	90.000844
_cell_angle_beta	89.995418
_cell_angle_gamma	96.365070
loop_
_atom_site_label
_atom_site_type_symbol
_atom_site_fract_x
_atom_site_fract_y
_atom_site_fract_z
O1	O	1.196369	-0.117704	-0.083346
O2	O	0.933909	-0.131725	-0.083362
O3	O	1.072150	0.006515	-0.083356
O4	O	1.058128	-0.255944	-0.083351
O5	O	1.072130	0.006519	0.083491
O6	O	0.933889	-0.131722	0.083485
O7	O	1.196349	-0.117700	0.083501
Cu8	Cu	1.065117	-0.124711	0.098728
Cu9	Cu	1.065141	-0.124715	-0.098588
O10	O	1.058108	-0.255941	0.083496
C11	C	0.900311	-0.131088	0.000060
C12	C	0.800227	-0.129184	0.000053
C13	C	0.387693	-0.039019	0.000074
C14	C	0.366412	-0.203251	0.000076
C15	C	0.460446	-0.205042	0.000073
C16	C	0.518108	-0.123819	0.000069
C17	C	0.481736	-0.040806	0.000067
C18	C	0.496825	-0.288053	0.000064
C19	C	0.590864	-0.289846	0.000059
C20	C	0.648528	-0.208623	0.000062
C21	C	0.612150	-0.125607	0.000062
C22	C	0.669812	-0.044384	0.000058
C23	C	0.633437	0.038633	0.000065
C24	C	0.539399	0.040417	0.000070
C25	C	0.742565	-0.210407	0.000057
C26	C	0.763855	-0.046172	0.000052
C27	C	1.071504	0.040106	0.000064
C28	C	1.069601	0.140189	0.000055
C29	C	1.229947	-0.118337	0.000078
C30	C	1.330031	-0.120241	0.000078
C31	C	1.058754	-0.289531	0.000073
C32	C	1.060657	-0.389615	0.000075
N33	N	1.065107	-0.124708	0.237509
C34	C	0.979435	0.552723	0.000069
C35	C	1.143668	0.574004	0.000079
C36	C	1.145458	0.479971	0.000073
C37	C	1.064235	0.422309	0.000067
C38	C	0.981223	0.458680	0.000066
C39	C	1.228469	0.443591	0.000084
C40	C	1.230262	0.349552	0.000079
C41	C	1.149039	0.291889	0.000066
C42	C	1.066023	0.328266	0.000064
C43	C	0.984800	0.270604	0.000058
C44	C	0.901783	0.306979	0.000049
C45	C	0.899999	0.401017	0.000053
C46	C	1.150823	0.197851	0.000062
C47	C	0.986588	0.176561	0.000055
N48	N	1.065158	-0.124711	-0.237370
C49	C	1.003925	-0.185903	0.710130
C50	C	1.126381	-0.063519	0.710103
C51	C	1.126371	-0.063516	0.605084
C52	C	1.065138	-0.124709	0.552584
C53	C	1.003915	-0.185904	0.605102
C54	C	1.187598	-0.002328	0.552559
C55	C	1.187591	-0.002323	0.447534
C56	C	1.126353	-0.063512	0.395031
C57	C	1.065127	-0.124710	0.447556
C58	C	1.003895	-0.185902	0.395055
C59	C	0.942664	-0.247096	0.447578
C60	C	0.942677	-0.247093	0.552599
C61	C	1.126340	-0.063515	0.290010
C62	C	1.003884	-0.185903	0.290027
H63	H	0.920445	0.129618	0.000045
H64	H	0.832411	0.430643	0.000046
H65	H	0.954070	-0.235724	0.752896
H66	H	1.237457	0.047489	0.595308
C67	C	1.370806	0.338752	-0.085691
C68	C	1.321511	0.309572	0.000077
H69	H	1.427136	0.314064	-0.085696
H70	H	1.381361	0.403002	-0.085675
H71	H	1.337354	0.318966	-0.143869
H72	H	1.354960	0.329364	0.058256
H73	H	1.310958	0.245309	0.000071
C74	C	0.294297	0.058277	-0.085688
C75	C	0.347715	0.052232	0.000077
H76	H	0.269621	0.114614	-0.085687
H77	H	0.246500	0.010169	-0.085674
H78	H	0.330548	0.054162	-0.143868
H79	H	0.311463	0.056340	0.058258
H80	H	0.395518	0.100353	0.000072
C81	C	1.179114	0.092456	0.742434
C82	C	1.193677	0.003747	0.767813
H83	H	1.220663	0.133986	0.778063
H84	H	1.118942	0.102340	0.759657
H85	H	1.187877	0.101207	0.672369
H86	H	1.184907	-0.005006	0.837876
H87	H	1.253864	-0.006141	0.750596
C88	C	1.236938	0.692107	-0.085679
C89	C	1.232944	0.637384	0.000087
H90	H	1.292059	0.731233	-0.085676
H91	H	1.187249	0.727224	-0.085669
H92	H	1.234229	0.654973	-0.143859
H93	H	1.235646	0.674517	0.058267
H94	H	1.282646	0.602264	0.000086
H95	H	1.218414	0.168238	0.000076
C96	C	0.684277	-0.387134	0.085807
C97	C	0.630855	-0.381090	0.000045
H98	H	0.708973	-0.443461	0.085790
H99	H	0.648032	-0.383039	0.143983
H100	H	0.732069	-0.339008	0.085799
H101	H	0.583059	-0.429212	0.000057
H102	H	0.667102	-0.385194	-0.058146
C103	C	0.817275	0.522227	0.000046
C104	C	0.888184	0.592701	0.000054
H105	H	0.760941	0.546910	0.000029
H106	H	0.821379	0.485997	0.058228
H107	H	0.821407	0.485988	-0.058139
H108	H	0.884056	0.628936	0.058243
H109	H	0.884078	0.628946	-0.058134
C110	C	1.308631	0.118658	0.458068
C111	C	1.254886	0.064947	0.389806
H112	H	1.350170	0.160192	0.422426
H113	H	1.341110	0.081070	0.499014
H114	H	1.271061	0.151149	0.499046
H115	H	1.292456	0.032450	0.348832
H116	H	1.222404	0.102539	0.348842
H117	H	0.954018	-0.235731	0.247288
C118	C	0.831613	0.153373	0.000043
C119	C	0.812505	0.243591	0.000040
H120	H	0.776497	0.114239	0.000032
H121	H	0.865632	0.142345	0.058228
H122	H	0.865659	0.142346	-0.058139
H123	H	0.778465	0.254619	0.058227
H124	H	0.778472	0.254623	-0.058150
H125	H	0.772178	-0.277998	0.000053
H126	H	0.449870	-0.354180	0.000057
C127	C	1.321740	0.561691	-0.085677
C128	C	1.317743	0.506974	0.000094
H129	H	1.376859	0.600820	-0.085672
H130	H	1.272049	0.596804	-0.085677
H131	H	1.319039	0.524553	-0.143853
H132	H	1.320438	0.544112	0.058270
H133	H	1.367448	0.471858	0.000103
C134	C	0.446002	0.137698	-0.085706
C135	C	0.499413	0.131663	0.000066
H136	H	0.421319	0.194031	-0.085712
H137	H	0.398211	0.089584	-0.085696
H138	H	0.482260	0.133585	-0.143881
H139	H	0.463154	0.135769	0.058242
H140	H	0.547211	0.179790	0.000065
H141	H	0.810798	0.019971	0.000052
C142	C	0.888288	-0.301433	0.286591
C143	C	0.875358	-0.314358	0.389862
H144	H	0.846733	-0.342954	0.250959
H145	H	0.948458	-0.311339	0.269383
H146	H	0.878427	-0.241241	0.269394
H147	H	0.885225	-0.374548	0.407060
H148	H	0.815174	-0.304459	0.407077
H149	H	1.176197	-0.013696	0.247251
H150	H	0.319459	-0.269379	0.000071
H151	H	0.892826	-0.296916	0.595370
H152	H	0.680397	0.104764	0.000055
