data_functionalizedCrystal
_audit_creation_method	'MofGen! by Chris Wilmer'
_symmetry_space_group_name_H-M	'P1'
_symmetry_Int_Tables_number	1
_symmetry_cell_setting	triclinic
loop_
_symmetry_equiv_pos_as_xyz
  x,y,z
_cell_length_a	16.959455
_cell_length_b	16.625546
_cell_length_c	16.959455
_cell_angle_alpha	90.016063
_cell_angle_beta	90.001568
_cell_angle_gamma	90.019415
loop_
_atom_site_label
_atom_site_type_symbol
_atom_site_fract_x
_atom_site_fract_y
_atom_site_fract_z
Zn1	Zn	1.208271	-0.321180	0.446898
Zn2	Zn	1.708271	0.178820	0.946898
Zn3	Zn	1.208218	-0.455989	0.314715
Zn4	Zn	1.708218	0.044011	0.814715
Zn5	Zn	1.076129	-0.321167	0.314736
Zn6	Zn	1.576129	0.178833	0.814736
Zn7	Zn	1.076059	-0.455967	0.446854
Zn8	Zn	1.576059	0.044033	0.946854
O9	O	1.142169	-0.388576	0.380801
O10	O	1.642169	0.111424	0.880801
O11	O	1.318875	-0.339077	0.429374
O12	O	1.818875	0.160923	0.929374
O13	O	1.190703	-0.438109	0.204107
O14	O	1.690703	0.061891	0.704107
O15	O	1.093710	-0.208337	0.332294
O16	O	1.593710	0.291663	0.832294
O17	O	1.318835	-0.438121	0.332259
O18	O	1.818835	0.061879	0.832259
O19	O	1.190794	-0.208346	0.429393
O20	O	1.690794	0.291654	0.929393
O21	O	1.093658	-0.339056	0.204122
O22	O	1.593658	0.160944	0.704122
O23	O	0.965509	-0.339034	0.332251
O24	O	1.465509	0.160966	0.832251
O25	O	1.093590	-0.438083	0.557470
O26	O	1.593590	0.061917	1.057470
O27	O	0.965457	-0.438071	0.429318
O28	O	1.465457	0.061929	0.929318
O29	O	1.190726	-0.339056	0.557503
O30	O	1.690726	0.160944	1.057503
O31	O	1.190635	-0.568819	0.332216
O32	O	1.690635	-0.068819	0.832216
O33	O	1.093538	-0.568802	0.429298
O34	O	1.593538	-0.068802	0.929298
C35	C	0.936803	-0.388549	0.380782
C36	C	1.436803	0.111451	0.880782
C37	C	0.848946	-0.388557	0.380793
C38	C	1.348946	0.111443	0.880793
C39	C	0.477473	-0.336965	0.330364
C40	C	0.977473	0.163035	0.830364
C41	C	0.477468	-0.440253	0.431283
C42	C	0.977468	0.059747	0.931283
C43	C	0.560014	-0.440241	0.431278
C44	C	1.060014	0.059759	0.931278
C45	C	0.601293	-0.388592	0.380814
C46	C	1.101293	0.111408	0.880814
C47	C	0.560027	-0.336954	0.330355
C48	C	1.060027	0.163046	0.830355
C49	C	0.601287	-0.491884	0.481730
C50	C	1.101287	0.008116	0.981730
C51	C	0.683838	-0.491875	0.481727
C52	C	1.183838	0.008125	0.981727
C53	C	0.725119	-0.440221	0.431267
C54	C	1.225119	0.059779	0.931267
C55	C	0.683847	-0.388580	0.380806
C56	C	1.183847	0.111420	0.880806
C57	C	0.725126	-0.336931	0.330343
C58	C	1.225126	0.163069	0.830343
C59	C	0.683856	-0.285285	0.279886
C60	C	1.183856	0.214715	0.779886
C61	C	0.601307	-0.285299	0.279895
C62	C	1.101307	0.214701	0.779895
C63	C	0.807667	-0.440207	0.431257
C64	C	1.307667	0.059793	0.931257
C65	C	0.807680	-0.336919	0.330335
C66	C	1.307680	0.163081	0.830335
C67	C	1.142094	-0.598067	0.380767
C68	C	1.642094	-0.098067	0.880767
C69	C	1.142135	-0.687688	0.380780
C70	C	1.642135	-0.187688	0.880780
C71	C	1.142272	-1.015863	0.380862
C72	C	1.642272	-0.515863	0.880862
C73	C	1.142232	-0.924555	0.380841
C74	C	1.642232	-0.424555	0.880841
C75	C	1.142203	-0.851779	0.380821
C76	C	1.642203	-0.351779	0.880821
C77	C	1.142163	-0.760464	0.380801
C78	C	1.642163	-0.260464	0.880801
C79	C	1.348337	-0.388603	0.380819
C80	C	1.848337	0.111397	0.880819
C81	C	1.436194	-0.388615	0.380827
C82	C	1.936194	0.111385	0.880827
C83	C	1.142156	-0.388568	0.586969
C84	C	1.642156	0.111432	1.086969
C85	C	1.142151	-0.388565	0.674825
C86	C	1.642151	0.111435	1.174825
C87	C	1.142266	-0.178267	0.380851
C88	C	1.642266	0.321733	0.880851
C89	C	1.142307	-0.088646	0.380873
C90	C	1.642307	0.411354	0.880873
C91	C	1.091588	-0.440146	1.046286
C92	C	1.591588	0.059854	1.546286
C93	C	1.192736	-0.337028	1.046315
C94	C	1.692736	0.162972	1.546315
C95	C	1.192734	-0.337021	0.963770
C96	C	1.692734	0.162979	1.463770
C97	C	1.142158	-0.388579	0.922478
C98	C	1.642158	0.111421	1.422478
C99	C	1.091585	-0.440143	0.963733
C100	C	1.591585	0.059857	1.463733
C101	C	1.243311	-0.285464	0.922509
C102	C	1.743311	0.214536	1.422509
C103	C	1.243311	-0.285456	0.839958
C104	C	1.743311	0.214544	1.339958
C105	C	1.192731	-0.337010	0.798665
C106	C	1.692731	0.162990	1.298665
C107	C	1.142156	-0.388575	0.839925
C108	C	1.642156	0.111425	1.339925
C109	C	1.091580	-0.440133	0.798634
C110	C	1.591580	0.059867	1.298634
C111	C	1.041000	-0.491695	0.839892
C112	C	1.541000	0.008305	1.339892
C113	C	1.041005	-0.491697	0.922440
C114	C	1.541005	0.008303	1.422440
C115	C	1.192726	-0.337008	0.716117
C116	C	1.692726	0.162992	1.216117
C117	C	1.091578	-0.440129	0.716080
C118	C	1.591578	0.059871	1.216080
C119	C	1.142172	-0.388597	1.175434
C120	C	1.642172	0.111403	1.675434
C121	C	1.142164	-0.388589	1.087578
C122	C	1.642164	0.111411	1.587578
H123	H	0.443867	-0.294915	0.289285
H124	H	0.943867	0.205085	0.789285
F125	F	1.037757	-0.495017	1.090196
F126	F	1.537757	0.004983	1.590196
H127	H	0.443854	-0.482308	0.472363
H128	H	0.943854	0.017692	0.972363
F129	F	0.557351	-0.546870	0.535413
F130	F	1.057351	-0.046870	1.035413
H131	H	0.717433	-0.533928	0.522812
H132	H	1.217433	-0.033928	1.022812
F133	F	0.851606	-0.281941	0.276627
F134	F	1.351606	0.218059	0.776627
H135	H	0.999825	-0.533676	0.806262
H136	H	1.499825	-0.033676	1.306262
H137	H	0.999828	-0.533678	0.956040
H138	H	1.499828	-0.033678	1.456040
F139	F	1.246564	-0.282166	1.090262
F140	F	1.746564	0.217834	1.590262
H141	H	1.284492	-0.243494	0.956134
H142	H	1.784492	0.256506	1.456134
F143	F	0.851586	-0.495172	0.484948
F144	F	1.351586	0.004828	0.984948
F145	F	1.297141	-0.230578	0.796055
F146	F	1.797141	0.269422	1.296055
H147	H	1.050385	-0.482107	0.682466
H148	H	1.550385	0.017893	1.182466
F149	F	1.246558	-0.282141	0.672210
F150	F	1.746558	0.217859	1.172210
F151	F	0.557380	-0.230340	0.226200
F152	F	1.057380	0.269660	0.726200
F153	F	0.727798	-0.230322	0.226176
F154	F	1.227798	0.269678	0.726176
