data_functionalizedCrystal
_audit_creation_method	'MofGen! by Chris Wilmer'
_symmetry_space_group_name_H-M	'P1'
_symmetry_Int_Tables_number	1
_symmetry_cell_setting	triclinic
loop_
_symmetry_equiv_pos_as_xyz
  x,y,z
_cell_length_a	25.639239
_cell_length_b	12.759401
_cell_length_c	12.759393
_cell_angle_alpha	89.979062
_cell_angle_beta	90.035978
_cell_angle_gamma	89.959789
loop_
_atom_site_label
_atom_site_type_symbol
_atom_site_fract_x
_atom_site_fract_y
_atom_site_fract_z
Zn1	Zn	-0.208104	-1.606091	0.593980
Zn2	Zn	-0.295549	-1.605909	0.418283
Zn3	Zn	-0.208132	-1.430390	0.418315
Zn4	Zn	-0.295513	-1.430308	0.593921
O5	O	-0.251825	-1.518175	0.506125
O6	O	-0.219708	-1.753088	0.570685
O7	O	-0.283980	-1.582584	0.271266
O8	O	-0.134963	-1.453808	0.441656
O9	O	-0.283953	-1.752954	0.441601
O10	O	-0.134943	-1.582895	0.570716
O11	O	-0.219755	-1.453631	0.271290
O12	O	-0.219720	-1.283358	0.441598
O13	O	-0.283891	-1.453669	0.740950
O14	O	-0.283918	-1.283298	0.570615
O15	O	-0.219672	-1.582816	0.740993
O16	O	-0.368710	-1.582505	0.441544
O17	O	-0.368683	-1.453492	0.570584
C18	C	-0.251818	-1.245207	0.506104
C19	C	-0.251828	-1.128431	0.506120
C20	C	-0.387667	-1.517998	0.506077
C21	C	-0.445781	-1.518018	0.506091
C22	C	-0.251774	-1.518253	0.780158
C23	C	-0.251753	-1.518287	0.896935
C24	C	-0.806146	-1.585527	0.439048
C25	C	-0.860750	-1.585568	0.439062
O26	O	-0.888988	-1.642783	0.382007
N27	N	-0.888064	-1.518359	0.506194
C28	C	-0.860770	-1.451113	0.573324
O29	O	-0.889017	-1.393952	0.630428
C30	C	-0.806167	-1.451079	0.573315
C31	C	-0.778856	-1.518284	0.506171
C32	C	-0.778835	-1.652728	0.371910
C33	C	-0.724234	-1.652685	0.371895
C34	C	-0.696945	-1.585442	0.439018
C35	C	-0.724255	-1.518242	0.506156
C36	C	-0.778874	-1.383839	0.640449
C37	C	-0.724267	-1.383810	0.640435
C38	C	-0.696957	-1.451016	0.573291
C39	C	-0.642365	-1.450956	0.573263
N40	N	-0.615052	-1.518165	0.506131
C41	C	-0.642341	-1.585408	0.439008
C42	C	-0.975441	-1.451192	0.573341
C43	C	-1.030043	-1.451221	0.573346
C44	C	-1.030019	-1.585677	0.439085
C45	C	-0.975416	-1.585642	0.439075
C46	C	-0.948127	-1.518401	0.506208
C47	C	-0.527676	-1.585313	0.438981
C48	C	-0.473071	-1.585261	0.438969
C49	C	-0.473100	-1.450810	0.573233
C50	C	-0.527700	-1.450857	0.573242
C51	C	-0.554987	-1.518117	0.506112
O52	O	-0.614093	-1.393774	0.630292
O53	O	-0.614088	-1.642569	0.381925
C54	C	-0.115452	-1.518381	0.506196
C55	C	-0.057337	-1.518468	0.506226
C56	C	-0.251831	-1.792208	0.506146
C57	C	-0.251834	-1.908984	0.506156
C58	C	-0.285307	-1.073565	0.573193
C59	C	-0.285309	-0.963841	0.573214
C60	C	-0.218352	-0.963858	0.439079
C61	C	-0.218347	-1.073580	0.439065
C62	C	-0.304070	-0.813929	0.697071
C63	C	-0.337557	-0.759060	0.764135
C64	C	-0.388581	-0.794614	0.780073
C65	C	-0.406129	-0.885037	0.728931
C66	C	-0.372645	-0.939901	0.661860
C67	C	-0.321613	-0.904348	0.645942
C68	C	-0.199592	-1.223494	0.315206
C69	C	-0.166110	-1.278359	0.248129
C70	C	-0.115085	-1.242807	0.232180
C71	C	-0.097539	-1.152381	0.283303
C72	C	-0.131021	-1.097515	0.350380
C73	C	-0.182046	-1.133075	0.366331
C74	C	-0.251837	-1.518157	0.233157
C75	C	-0.251711	-1.518327	0.116381
C76	C	-0.218309	-1.585539	0.951821
C77	C	-0.218286	-1.585556	1.061546
C78	C	-0.285156	-1.451068	1.061487
C79	C	-0.285176	-1.451045	0.951765
C80	C	-0.156599	-1.623220	1.211536
C81	C	-0.123160	-1.690489	1.266426
C82	C	-0.115142	-1.793008	1.230836
C83	C	-0.140572	-1.828280	1.140358
C84	C	-0.174015	-1.761018	1.085473
C85	C	-0.182023	-1.658484	1.121061
C86	C	-0.346864	-1.413392	0.801773
C87	C	-0.380310	-1.346134	0.746887
C88	C	-0.388333	-1.243613	0.782474
C89	C	-0.362913	-1.208344	0.872956
C90	C	-0.329466	-1.275603	0.927843
C91	C	-0.321443	-1.378123	0.892247
H92	H	-0.549887	-1.640085	0.384320
O93	O	-0.112098	-0.999970	0.405504
H94	H	-0.143956	-0.967784	0.454811
H95	H	-0.055993	-1.123421	0.270300
H96	H	-0.087826	-1.287484	0.177550
O97	O	-0.131933	-1.938865	1.101979
H98	H	-0.104404	-1.979710	1.155341
O99	O	-0.557154	-1.378355	0.645652
H100	H	-0.582075	-1.324940	0.598588
O101	O	-0.443617	-1.657761	0.366551
H102	H	-0.418693	-1.711165	0.413621
H103	H	-0.447681	-0.913972	0.741905
O104	O	-0.254631	-1.261836	0.332409
H105	H	-0.261209	-1.333920	0.285575
O106	O	-0.945965	-1.658147	0.366668
H107	H	-0.921047	-1.711557	0.413742
H108	H	-0.102455	-1.661760	1.340093
H109	H	-0.191092	-1.640288	0.907182
H110	H	-0.180401	-1.351989	0.206501
O111	O	-0.079069	-1.865561	1.290023
H112	H	-0.062731	-1.823809	1.358907
H113	H	-0.386932	-1.013520	0.620221
H114	H	-0.163120	-1.539738	1.240516
O115	O	-0.424405	-1.171066	0.723270
H116	H	-0.456649	-1.145895	0.775546
O117	O	-0.318636	-0.661537	0.819301
H118	H	-0.284693	-0.681459	0.869553
O119	O	-0.694780	-1.725186	0.299491
H120	H	-0.722937	-1.771955	0.252836
O121	O	-0.808265	-1.725253	0.299501
H122	H	-0.780092	-1.771962	0.252816
O123	O	-0.321206	-1.378546	1.120623
H124	H	-0.315577	-1.389864	1.206142
H125	H	-0.312568	-1.118221	0.627796
H126	H	-0.415847	-0.749932	0.834679
O127	O	-0.338218	-1.523979	0.763392
H128	H	-0.310688	-1.564820	0.816755
H129	H	-1.052248	-1.640434	0.384433
O130	O	-0.302040	-1.237566	1.025428
H131	H	-0.313233	-1.154972	1.040953
H132	H	-0.262520	-0.784979	0.684111
H133	H	-0.194722	-1.789737	1.011811
H134	H	-0.369447	-1.124864	0.901935
O135	O	-0.182258	-0.904699	0.366722
H136	H	-0.187894	-0.819184	0.377982
H137	H	-1.052275	-1.396486	0.628011
H138	H	-0.401014	-1.374863	0.673218
H139	H	-0.953225	-1.396428	0.628006
O140	O	-0.808324	-1.311359	0.712876
H141	H	-0.780166	-1.264614	0.759552
H142	H	-0.702052	-1.329055	0.695106
O143	O	-0.443661	-1.378281	0.645624
H144	H	-0.454102	-1.396261	0.728099
