data_functionalizedCrystal
_audit_creation_method	'MofGen! by Chris Wilmer'
_symmetry_space_group_name_H-M	'P1'
_symmetry_Int_Tables_number	1
_symmetry_cell_setting	triclinic
loop_
_symmetry_equiv_pos_as_xyz
  x,y,z
_cell_length_a	25.639242
_cell_length_b	25.639240
_cell_length_c	12.759387
_cell_angle_alpha	89.956399
_cell_angle_beta	89.976152
_cell_angle_gamma	90.025061
loop_
_atom_site_label
_atom_site_type_symbol
_atom_site_fract_x
_atom_site_fract_y
_atom_site_fract_z
Zn1	Zn	0.799296	-0.208231	-0.594005
Zn2	Zn	0.799214	-0.295676	-0.418286
Zn3	Zn	0.711857	-0.208245	-0.418332
Zn4	Zn	0.711826	-0.295625	-0.593915
O5	O	0.755548	-0.251944	-0.506135
O6	O	0.872450	-0.219846	-0.570714
O7	O	0.787604	-0.284106	-0.271271
O8	O	0.723504	-0.135078	-0.441692
O9	O	0.872390	-0.284092	-0.441614
O10	O	0.787744	-0.135067	-0.570758
O11	O	0.723424	-0.219870	-0.271304
O12	O	0.638688	-0.219821	-0.441605
O13	O	0.723450	-0.284005	-0.740948
O14	O	0.638665	-0.284018	-0.570605
O15	O	0.787714	-0.219796	-0.741014
O16	O	0.787574	-0.368835	-0.441527
O17	O	0.723371	-0.368797	-0.570561
C18	C	0.619706	-0.251916	-0.506101
C19	C	0.561592	-0.251916	-0.506111
C20	C	0.755474	-0.387787	-0.506052
C21	C	0.755490	-0.445901	-0.506052
C22	C	0.310438	-0.218551	-0.573479
C23	C	0.365042	-0.218546	-0.573473
O24	O	0.393312	-0.190154	-0.630745
N25	N	0.392318	-0.251938	-0.506147
C26	C	0.364986	-0.285342	-0.438829
O27	O	0.393201	-0.313745	-0.381562
C28	C	0.310383	-0.285349	-0.438841
C29	C	0.283110	-0.251951	-0.506165
C30	C	0.283164	-0.185155	-0.640799
C31	C	0.228564	-0.185160	-0.640803
C32	C	0.201236	-0.218560	-0.573488
C33	C	0.228509	-0.251955	-0.506169
C34	C	0.283053	-0.318755	-0.371529
C35	C	0.228446	-0.318760	-0.371548
C36	C	0.201173	-0.285362	-0.438871
C37	C	0.146581	-0.285360	-0.438858
N38	N	0.119306	-0.251967	-0.506185
C39	C	0.146633	-0.218567	-0.573500
C40	C	0.479657	-0.285324	-0.438810
C41	C	0.534259	-0.285315	-0.438792
C42	C	0.534311	-0.218519	-0.573438
C43	C	0.479708	-0.218526	-0.573450
C44	C	0.452381	-0.251932	-0.506137
C45	C	0.031968	-0.218579	-0.573504
C46	C	-0.022637	-0.218585	-0.573499
C47	C	-0.022684	-0.285383	-0.438857
C48	C	0.031916	-0.285375	-0.438857
C49	C	0.059241	-0.251971	-0.506189
O50	O	0.118277	-0.313739	-0.381619
O51	O	0.118412	-0.190174	-0.630767
C52	C	0.789015	-0.806220	-0.573461
C53	C	0.789030	-0.860824	-0.573482
O54	O	0.817446	-0.889024	-0.630711
N55	N	0.755621	-0.888183	-0.506236
C56	C	0.722190	-0.860935	-0.438972
O57	O	0.693774	-0.889220	-0.381777
C58	C	0.722172	-0.806332	-0.438957
C59	C	0.755588	-0.778976	-0.506199
C60	C	0.822427	-0.778864	-0.640699
C61	C	0.822412	-0.724263	-0.640676
C62	C	0.788985	-0.697019	-0.573415
C63	C	0.755573	-0.724375	-0.506176
C64	C	0.688739	-0.779085	-0.371699
C65	C	0.688724	-0.724478	-0.371690
C66	C	0.722139	-0.697122	-0.438932
C67	C	0.722131	-0.642530	-0.438892
N68	N	0.755540	-0.615171	-0.506138
C69	C	0.788967	-0.642416	-0.573399
C70	C	0.722229	-0.975606	-0.439010
C71	C	0.722249	-1.030208	-0.439020
C72	C	0.789089	-1.030093	-0.573531
C73	C	0.789071	-0.975490	-0.573516
C74	C	0.755638	-0.948247	-0.506256
C75	C	0.788934	-0.527750	-0.573345
C76	C	0.788918	-0.473145	-0.573313
C77	C	0.722076	-0.473265	-0.438806
C78	C	0.722094	-0.527865	-0.438834
C79	C	0.755525	-0.555107	-0.506112
O80	O	0.693728	-0.614296	-0.381696
O81	O	0.817374	-0.614124	-0.630595
C82	C	0.891921	-0.251973	-0.506169
C83	C	0.950035	-0.251985	-0.506184
C84	C	0.755588	-0.251893	-0.780168
C85	C	0.755604	-0.251871	-0.896945
C86	C	0.755637	-0.115571	-0.506240
C87	C	0.755674	-0.057457	-0.506285
C88	C	0.822527	-0.185015	-0.897034
C89	C	0.855995	-0.151580	-0.951939
C90	C	0.856008	-0.151561	-1.061660
C91	C	0.822547	-0.184980	-1.116479
C92	C	0.789079	-0.218415	-1.061574
C93	C	0.789071	-0.218432	-0.951850
C94	C	0.722155	-0.285268	-1.061486
C95	C	0.722144	-0.285290	-0.951764
C96	C	0.688695	-0.318687	-1.116305
C97	C	0.655228	-0.352126	-1.061400
C98	C	0.655217	-0.352144	-0.951671
C99	C	0.688676	-0.318726	-0.896859
C100	C	0.755539	-0.251958	-0.233167
C101	C	0.755623	-0.251832	-0.116391
H102	H	-0.044841	-0.191386	-0.628322
H103	H	0.556571	-0.191323	-0.628250
H104	H	0.054123	-0.312566	-0.384027
C105	C	0.859207	-0.808824	-0.714689
N106	N	0.886917	-0.831386	-0.770416
C107	C	0.685493	-1.060294	-0.365039
N108	N	0.657805	-1.082953	-0.309319
C109	C	0.685306	-0.443286	-0.364827
N110	N	0.657607	-0.420704	-0.309111
H111	H	0.883237	-0.124370	-0.907293
C112	C	0.822519	-0.185037	-0.776337
N113	N	0.822514	-0.185052	-0.685426
C114	C	0.062017	-0.181830	-0.647566
N115	N	0.084650	-0.154148	-0.703343
H116	H	0.849620	-0.701993	-0.695434
H117	H	0.206363	-0.157966	-0.695629
H118	H	0.661498	-0.702299	-0.316920
H119	H	0.822556	-0.184957	-1.205821
H120	H	0.688705	-0.318667	-1.205646
H121	H	0.305409	-0.157957	-0.695620
H122	H	0.556460	-0.312506	-0.383959
C123	C	0.892824	-0.114780	-1.122058
N124	N	0.920555	-0.087078	-1.167549
H125	H	0.627985	-0.379330	-1.106042
H126	H	0.627957	-0.379366	-0.906974
H127	H	0.457506	-0.191330	-0.628270
C128	C	0.825856	-1.060072	-0.647528
N129	N	0.853546	-1.082654	-0.703260
H130	H	0.694889	-0.550140	-0.384071
H131	H	0.695006	-0.953427	-0.384231
H132	H	0.816280	-0.953220	-0.628271
H133	H	0.688672	-0.318740	-0.807518
H134	H	0.457411	-0.312526	-0.383986
H135	H	0.305249	-0.345952	-0.316707
H136	H	0.206199	-0.345965	-0.316734
H137	H	0.816130	-0.450873	-0.628070
C138	C	-0.052755	-0.322122	-0.364816
N139	N	-0.075406	-0.349797	-0.309053
C140	C	0.825713	-0.557708	-0.647348
N141	N	0.853418	-0.580272	-0.703080
H142	H	0.661529	-0.801349	-0.316942
