data_functionalizedCrystal
_audit_creation_method	'MofGen! by Chris Wilmer'
_symmetry_space_group_name_H-M	'P1'
_symmetry_Int_Tables_number	1
_symmetry_cell_setting	triclinic
loop_
_symmetry_equiv_pos_as_xyz
  x,y,z
_cell_length_a	12.784905
_cell_length_b	12.837942
_cell_length_c	11.892095
_cell_angle_alpha	94.302569
_cell_angle_beta	86.511728
_cell_angle_gamma	83.968130
loop_
_atom_site_label
_atom_site_type_symbol
_atom_site_fract_x
_atom_site_fract_y
_atom_site_fract_z
O1	O	1.417037	-0.000739	-0.094010
O2	O	1.112037	0.043253	-0.094011
O3	O	1.257773	-0.129035	-0.094003
O4	O	1.271300	0.171550	-0.094017
O5	O	1.245620	-0.114690	0.094004
O6	O	1.099884	0.057598	0.093996
O7	O	1.404883	0.013606	0.093997
Zn8	Zn	1.250454	0.037880	0.123847
Zn9	Zn	1.266467	0.018980	-0.123860
O10	O	1.259147	0.185895	0.093990
C11	C	1.066651	0.053287	-0.000007
C12	C	0.949520	0.061800	-0.000007
C13	C	0.735569	-0.111644	-0.000020
C14	C	0.625514	-0.103650	-0.000020
C15	C	0.619352	0.085780	-0.000016
C16	C	0.729408	0.077786	-0.000016
C17	C	0.787512	-0.020929	-0.000016
C18	C	0.897569	-0.028921	-0.000008
C19	C	0.891406	0.160507	-0.000012
C20	C	0.781350	0.168501	-0.000012
C21	C	1.247128	-0.160072	-0.000001
C22	C	1.233500	-0.273921	-0.000002
C23	C	1.397333	-0.529648	-0.000026
C24	C	1.384533	-0.636620	-0.000028
C25	C	1.195103	-0.594840	-0.000016
C26	C	1.207902	-0.487868	-0.000014
C27	C	1.309020	-0.455276	-0.000017
C28	C	1.321819	-0.348301	-0.000007
C29	C	1.132389	-0.306524	-0.000004
C30	C	1.119590	-0.413496	-0.000006
C31	C	1.450270	0.003572	-0.000009
C32	C	1.567402	-0.004941	-0.000016
C33	C	1.269793	0.216931	-0.000016
C34	C	1.283421	0.330779	-0.000021
N35	N	1.239534	0.050777	0.292900
N36	N	1.277394	0.006073	-0.292914
C37	C	1.353378	-0.083731	0.529554
C38	C	1.345753	-0.074710	0.647895
C39	C	1.216654	0.077838	0.647927
C40	C	1.224279	0.068816	0.529585
C41	C	1.292644	-0.011970	0.470403
C42	C	1.300274	-0.020987	0.352059
C43	C	1.171170	0.131555	0.352093
C44	C	1.163545	0.140577	0.470435
H45	H	0.583227	-0.177519	-0.000025
C46	C	1.088317	0.229411	0.535536
H47	H	1.053224	0.270845	0.483355
H48	H	1.127532	0.272309	0.581712
H49	H	1.037757	0.199870	0.581690
C50	C	1.428578	-0.172587	0.464450
H51	H	1.463655	-0.214036	0.516628
H52	H	1.479137	-0.143080	0.418271
H53	H	1.389325	-0.215477	0.418298
H54	H	1.121720	0.189990	0.303919
C55	C	1.481673	-0.718430	-0.000038
H56	H	1.459572	-0.786809	-0.000049
H57	H	1.518458	-0.704487	0.065519
H58	H	1.526916	-0.714478	-0.065614
H59	H	1.112778	-0.621397	-0.000026
H60	H	0.944876	-0.109300	-0.000006
H61	H	0.933709	0.234374	-0.000003
H62	H	1.355943	-0.086765	0.303874
H63	H	0.782879	-0.192021	-0.000012
C64	C	0.555432	0.194354	-0.000037
H65	H	0.602128	0.247240	-0.000046
H66	H	0.508121	0.206417	0.065516
H67	H	0.516623	0.196394	-0.065616
H68	H	0.734027	0.248871	-0.000017
C69	C	1.433040	-0.312445	-0.000011
H70	H	1.428017	-0.238083	0.000003
H71	H	1.474093	-0.343557	-0.065575
H72	H	1.465621	-0.333562	0.065557
H73	H	1.160985	0.143606	0.696129
H74	H	1.479666	-0.503111	-0.000017
H75	H	1.037262	-0.440048	-0.000008
C76	C	1.035242	-0.224713	-0.000004
H77	H	1.057345	-0.156335	-0.000011
H78	H	0.989989	-0.228662	0.065556
H79	H	0.998471	-0.238661	-0.065577
C80	C	1.412563	-0.153644	0.712958
H81	H	1.454373	-0.203042	0.660758
H82	H	1.367369	-0.189489	0.759135
H83	H	1.457183	-0.117096	0.759108
