data_functionalizedCrystal
_audit_creation_method	'MofGen! by Chris Wilmer'
_symmetry_space_group_name_H-M	'P1'
_symmetry_Int_Tables_number	1
_symmetry_cell_setting	triclinic
loop_
_symmetry_equiv_pos_as_xyz
  x,y,z
_cell_length_a	17.699083
_cell_length_b	14.971486
_cell_length_c	13.448316
_cell_angle_alpha	89.998909
_cell_angle_beta	90.006047
_cell_angle_gamma	96.551595
loop_
_atom_site_label
_atom_site_type_symbol
_atom_site_fract_x
_atom_site_fract_y
_atom_site_fract_z
O1	O	-1.004357	0.113109	-0.082663
O2	O	-0.504357	0.613109	0.417337
O3	O	-0.784015	0.127826	-0.082667
O4	O	-0.284015	0.627826	0.417333
O5	O	-0.900091	-0.009753	-0.082672
O6	O	-0.400091	0.490247	0.417328
O7	O	-0.888280	0.250688	-0.082658
O8	O	-0.388280	0.750688	0.417342
O9	O	-0.900077	-0.009761	0.082712
O10	O	-0.400077	0.490239	0.582712
O11	O	-0.784000	0.127818	0.082717
O12	O	-0.284000	0.627818	0.582717
O13	O	-1.004342	0.113101	0.082721
O14	O	-0.504342	0.613101	0.582721
Cu15	Cu	-0.894170	0.120458	0.097820
Cu16	Cu	-0.394170	0.620458	0.597820
Cu17	Cu	-0.894187	0.120468	-0.097766
Cu18	Cu	-0.394187	0.620468	0.402234
O19	O	-0.888265	0.250680	0.082726
O20	O	-0.388265	0.750680	0.582726
C21	C	-0.755809	0.127295	0.000024
C22	C	-0.255809	0.627295	0.500024
C23	C	-0.671787	0.125713	0.000022
C24	C	-0.171787	0.625713	0.500022
C25	C	-0.899556	-0.043080	0.000016
C26	C	-0.399556	0.456920	0.500016
C27	C	-0.897973	-0.142372	0.000004
C28	C	-0.397973	0.357628	0.500004
C29	C	-0.632310	0.124963	0.090174
C30	C	-0.132310	0.624963	0.590174
C31	C	-0.553364	0.123463	0.090174
C32	C	-0.053364	0.623463	0.590174
C33	C	-0.513896	0.122719	0.000022
C34	C	-0.013896	0.622719	0.500022
C35	C	-0.553379	0.123466	-0.090136
C36	C	-0.053379	0.623466	0.409864
C37	C	-0.632324	0.124960	-0.090136
C38	C	-0.132324	0.624960	0.409864
C39	C	-0.235001	0.117440	-0.090140
C40	C	0.264999	0.617440	0.409860
C41	C	-0.156050	0.115948	-0.090133
C42	C	0.343950	0.615948	0.409867
C43	C	-0.156041	0.115942	0.090170
C44	C	0.343959	0.615942	0.590170
C45	C	-0.234987	0.117436	0.090171
C46	C	0.265013	0.617436	0.590171
C47	C	-0.274463	0.118179	0.000013
C48	C	0.225537	0.618179	0.500013
C49	C	-0.360065	0.119804	0.000013
C50	C	0.139935	0.619804	0.500013
C51	C	-0.428294	0.121100	0.000021
C52	C	0.071706	0.621100	0.500021
C53	C	-0.032548	0.113627	0.000027
C54	C	0.467452	0.613627	0.500027
C55	C	-0.116572	0.115192	0.000020
C56	C	0.383428	0.615192	0.500020
C57	C	-0.888801	0.284007	0.000036
C58	C	-0.388801	0.784007	0.500036
C59	C	-0.890384	0.383298	0.000041
C60	C	-0.390384	0.883298	0.500041
N61	N	-0.894163	0.120451	0.235384
N62	N	-0.394163	0.620451	0.735384
C63	C	-0.822192	0.440758	0.000039
C64	C	-0.322192	0.940758	0.500039
C65	C	-0.823684	0.534053	0.000026
C66	C	-0.323684	1.034053	0.500026
C67	C	-0.893368	0.569885	0.000022
C68	C	-0.393368	1.069885	0.500022
C69	C	-0.961566	0.512418	0.000021
C70	C	-0.461566	1.012418	0.500021
C71	C	-0.960073	0.419125	0.000027
C72	C	-0.460073	0.919125	0.500027
C73	C	-0.964672	0.706870	0.000010
C74	C	-0.464672	1.206870	0.500010
C75	C	-0.966165	0.800168	0.000006
C76	C	-0.466165	1.300168	0.500006
C77	C	-0.828283	0.821797	0.000009
C78	C	-0.328283	1.321797	0.500009
C79	C	-0.826790	0.728504	0.000015
C80	C	-0.326790	1.228504	0.500015
C81	C	-0.894988	0.671043	0.000016
C82	C	-0.394988	1.171043	0.500016
N83	N	-0.894200	0.120469	-0.235330
N84	N	-0.394200	0.620469	0.264670
C85	C	-0.945578	0.059556	0.287422
C86	C	-0.445578	0.559556	0.787422
C87	C	-0.945583	0.059555	0.391525
C88	C	-0.445583	0.559555	0.891525
C89	C	-0.894176	0.120454	0.443589
C90	C	-0.394176	0.620454	0.943589
C91	C	-0.842755	0.181352	0.391543
C92	C	-0.342755	0.681352	0.891543
C93	C	-0.842748	0.181348	0.287442
C94	C	-0.342748	0.681348	0.787442
C95	C	-0.842776	0.181358	0.608523
C96	C	-0.342776	0.681358	1.108523
C97	C	-0.842785	0.181364	0.712632
C98	C	-0.342785	0.681364	1.212632
C99	C	-0.945611	0.059565	0.712607
C100	C	-0.445611	0.559565	1.212607
C101	C	-0.945604	0.059561	0.608505
C102	C	-0.445604	0.559561	1.108505
C103	C	-0.894184	0.120460	0.556467
C104	C	-0.394184	0.620460	1.056467
H105	H	-0.664438	0.125576	0.163586
H106	H	-0.164438	0.625576	0.663586
H107	H	-0.987467	0.009977	0.566116
H108	H	-0.487467	0.509977	1.066116
H109	H	-0.987479	0.009979	0.754982
H110	H	-0.487479	0.509979	1.254982
Cl111	Cl	-1.010212	-0.017004	0.221982
Cl112	Cl	-0.510212	0.482996	0.721982
Cl113	Cl	-1.010219	-0.017001	0.456946
Cl114	Cl	-0.510219	0.482999	0.956946
Cl115	Cl	-0.778154	0.257924	0.778075
Cl116	Cl	-0.278154	0.757924	1.278075
Cl117	Cl	-0.734583	0.395722	0.000052
Cl118	Cl	-0.234583	0.895722	0.500052
H119	H	-0.800880	0.230934	0.245073
H120	H	-0.300880	0.730934	0.745073
H121	H	-0.267134	0.118041	-0.163552
H122	H	0.232866	0.618041	0.336448
Cl123	Cl	-1.050408	0.634634	0.000006
Cl124	Cl	-0.550408	1.134634	0.500006
Cl125	Cl	-0.778131	0.257917	0.543108
Cl126	Cl	-0.278131	0.757917	1.043108
Cl127	Cl	-0.778124	0.257909	0.456992
Cl128	Cl	-0.278124	0.757909	0.956992
H129	H	-0.664465	0.125572	-0.163547
H130	H	-0.164465	0.625572	0.336453
Cl131	Cl	-0.739185	0.683459	0.000027
Cl132	Cl	-0.239185	1.183459	0.500027
Cl133	Cl	-0.503737	0.122536	0.203513
Cl134	Cl	-0.003737	0.622536	0.703513
H135	H	-1.022908	0.829340	0.000001
H136	H	-0.522908	1.329340	0.500001
Cl137	Cl	-0.503765	0.122497	-0.203471
Cl138	Cl	-0.003765	0.622497	0.296529
H139	H	-0.267117	0.118047	0.163582
H140	H	0.232883	0.618047	0.663582
Cl141	Cl	-0.106434	0.115011	-0.203476
Cl142	Cl	0.393566	0.615011	0.296524
Cl143	Cl	-0.106409	0.115004	0.203514
Cl144	Cl	0.393591	0.615004	0.703514
Cl145	Cl	-1.049170	0.557465	0.000008
Cl146	Cl	-0.549170	1.057465	0.500008
H147	H	-0.772754	0.868586	0.000012
H148	H	-0.272754	1.368586	0.500012
H149	H	-0.768155	0.580833	0.000021
H150	H	-0.268155	1.080833	0.500021
H151	H	-1.015602	0.372341	0.000025
H152	H	-0.515602	0.872341	0.500025
