data_functionalizedCrystal
_audit_creation_method	'MofGen! by Chris Wilmer'
_symmetry_space_group_name_H-M	'P1'
_symmetry_Int_Tables_number	1
_symmetry_cell_setting	triclinic
loop_
_symmetry_equiv_pos_as_xyz
  x,y,z
_cell_length_a	18.101395
_cell_length_b	19.077105
_cell_length_c	19.076919
_cell_angle_alpha	89.923776
_cell_angle_beta	92.272317
_cell_angle_gamma	92.272502
loop_
_atom_site_label
_atom_site_type_symbol
_atom_site_fract_x
_atom_site_fract_y
_atom_site_fract_z
Zn1	Zn	-0.358271	-1.058231	-0.440421
Zn2	Zn	-0.024938	-0.724897	-0.107088
Zn3	Zn	0.308395	-0.391564	0.226246
Zn4	Zn	-0.477344	-1.062857	-0.322915
Zn5	Zn	-0.144010	-0.729524	0.010418
Zn6	Zn	0.189323	-0.396191	0.343751
Zn7	Zn	-0.348351	-0.945450	-0.318214
Zn8	Zn	-0.015017	-0.612116	0.015119
Zn9	Zn	0.318316	-0.278783	0.348452
Zn10	Zn	-0.476897	-0.940679	-0.435668
Zn11	Zn	-0.143564	-0.607346	-0.102335
Zn12	Zn	0.189769	-0.274013	0.230999
O13	O	-0.415216	-1.001804	-0.379305
O14	O	-0.081882	-0.668471	-0.045971
O15	O	0.251451	-0.335138	0.287362
O16	O	-0.378405	-1.157176	-0.428790
O17	O	-0.045072	-0.823842	-0.095457
O18	O	0.288261	-0.490509	0.237876
O19	O	-0.456268	-1.051216	-0.223960
O20	O	-0.122934	-0.717882	0.109373
O21	O	0.210399	-0.384549	0.442706
O22	O	-0.246037	-0.960470	-0.334447
O23	O	0.087296	-0.627137	-0.001114
O24	O	0.420629	-0.293804	0.332220
O25	O	-0.465887	-1.160575	-0.342459
O26	O	-0.132554	-0.827242	-0.009126
O27	O	0.200779	-0.493908	0.324207
O28	O	-0.253326	-1.043330	-0.424232
O29	O	0.080007	-0.709997	-0.090898
O30	O	0.413341	-0.376663	0.242435
O31	O	-0.361497	-0.964957	-0.220507
O32	O	-0.028164	-0.631623	0.112827
O33	O	0.305170	-0.298290	0.446160
O34	O	-0.361064	-0.846486	-0.329838
O35	O	-0.027731	-0.513152	0.003495
O36	O	0.305603	-0.179819	0.336829
O37	O	-0.465126	-0.952340	-0.534630
O38	O	-0.131793	-0.619007	-0.201296
O39	O	0.201541	-0.285673	0.132037
O40	O	-0.455506	-0.842981	-0.416131
O41	O	-0.122173	-0.509647	-0.082797
O42	O	0.211160	-0.176314	0.250536
O43	O	-0.377972	-1.038704	-0.538122
O44	O	-0.044639	-0.705371	-0.204788
O45	O	0.288694	-0.372038	0.128545
O46	O	-0.580914	-1.046590	-0.337850
O47	O	-0.247581	-0.713257	-0.004517
O48	O	0.085753	-0.379923	0.328816
O49	O	-0.580586	-0.956826	-0.420689
O50	O	-0.247253	-0.623493	-0.087356
O51	O	0.086081	-0.290160	0.245978
C52	C	-0.407161	-0.819237	-0.371959
C53	C	-0.073827	-0.485904	-0.038626
C54	C	0.259506	-0.152570	0.294708
C55	C	-0.403733	-0.741133	-0.368833
C56	C	-0.070400	-0.407800	-0.035500
C57	C	0.262933	-0.074466	0.297834
C58	C	-0.607621	-1.001711	-0.379280
C59	C	-0.274288	-0.668378	-0.045947
C60	C	0.059045	-0.335044	0.287387
C61	C	-0.689937	-1.001735	-0.379296
C62	C	-0.356604	-0.668401	-0.045962
C63	C	-0.023270	-0.335068	0.287371
C64	C	-0.422606	-0.994474	-0.562585
C65	C	-0.089273	-0.661141	-0.229251
C66	C	0.244061	-0.327807	0.104082
C67	C	-0.425755	-0.991350	-0.640688
C68	C	-0.092422	-0.658017	-0.307355
C69	C	0.240911	-0.324684	0.025979
C70	C	-0.989036	-1.001887	-0.379340
C71	C	-0.655703	-0.668554	-0.046006
C72	C	-0.322370	-0.335221	0.287327
C73	C	-0.957547	-0.945531	-0.431600
C74	C	-0.624213	-0.612197	-0.098266
C75	C	-0.290880	-0.278864	0.235067
C76	C	-0.871910	-0.945280	-0.431419
C77	C	-0.538577	-0.611947	-0.098086
C78	C	-0.205244	-0.278613	0.235248
C79	C	-0.840650	-1.001811	-0.379319
C80	C	-0.507316	-0.668478	-0.045985
C81	C	-0.173983	-0.335145	0.287348
C82	C	-0.867911	-0.984741	-0.304458
C83	C	-0.534578	-0.651408	0.028875
C84	C	-0.201244	-0.318075	0.362209
C85	C	-0.953554	-0.984379	-0.304770
C86	C	-0.620221	-0.651046	0.028564
C87	C	-0.286887	-0.317712	0.361897
C88	C	-0.961424	-1.075459	-0.401293
C89	C	-0.628091	-0.742125	-0.067960
C90	C	-0.294757	-0.408792	0.265373
C91	C	-0.875820	-1.074956	-0.402900
C92	C	-0.542486	-0.741623	-0.069567
C93	C	-0.209153	-0.408289	0.263767
C94	C	-0.756788	-1.001770	-0.379302
C95	C	-0.423454	-0.668437	-0.045969
C96	C	-0.090121	-0.335103	0.287365
C97	C	-1.072898	-1.001927	-0.379351
C98	C	-0.739565	-0.668594	-0.046018
C99	C	-0.406231	-0.335260	0.287315
C100	C	-0.222060	-1.001916	-0.379345
C101	C	0.111273	-0.668583	-0.046012
C102	C	0.444606	-0.335250	0.287321
C103	C	-0.139749	-1.001964	-0.379363
C104	C	0.193584	-0.668631	-0.046029
C105	C	0.526918	-0.335297	0.287304
C106	C	-0.423303	-1.185084	-0.386679
C107	C	-0.089969	-0.851751	-0.053346
C108	C	0.243364	-0.518418	0.279987
C109	C	-0.426749	-1.263188	-0.389822
C110	C	-0.093416	-0.929854	-0.056489
C111	C	0.239918	-0.596521	0.276845
C112	C	-0.451363	-0.702636	-0.412222
C113	C	-0.118029	-0.369303	-0.078889
C114	C	0.215304	-0.035970	0.254445
C115	C	-0.448133	-0.629249	-0.409288
C116	C	-0.114799	-0.295916	-0.075955
C117	C	0.218534	0.037417	0.257378
C118	C	-0.397276	-0.594361	-0.362962
C119	C	-0.063943	-0.261027	-0.029628
C120	C	0.269390	0.072306	0.303705
C121	C	-0.349642	-0.632863	-0.319571
C122	C	-0.016308	-0.299529	0.013762
C123	C	0.317025	0.033804	0.347095
C124	C	-0.352869	-0.706248	-0.322509
C125	C	-0.019535	-0.372915	0.010824
C126	C	0.313798	-0.039582	0.344158
C127	C	-0.382341	-0.375075	-0.349369
C128	C	-0.049008	-0.041742	-0.016036
C129	C	0.284325	0.291592	0.317298
C130	C	-0.379119	-0.301684	-0.346433
C131	C	-0.045786	0.031649	-0.013100
C132	C	0.287547	0.364982	0.320234
C133	C	-0.477610	-0.298076	-0.436152
C134	C	-0.144277	0.035257	-0.102818
C135	C	0.189057	0.368591	0.230515
C136	C	-0.480836	-0.371463	-0.439082
C137	C	-0.147502	-0.038130	-0.105749
C138	C	0.185831	0.295204	0.227585
C139	C	-0.433198	-0.409959	-0.395694
C140	C	-0.099865	-0.076625	-0.062361
C141	C	0.233468	0.256708	0.270972
N142	N	-0.393975	-0.519348	-0.359960
N143	N	-0.060642	-0.186014	-0.026627
N144	N	0.272692	0.147319	0.306706
N145	N	-0.436497	-0.484970	-0.398700
N146	N	-0.103163	-0.151637	-0.065366
N147	N	0.230170	0.181696	0.267967
C148	C	-0.381860	-1.034846	-0.679200
C149	C	-0.048527	-0.701512	-0.345867
C150	C	0.284806	-0.368179	-0.012533
C151	C	-0.384816	-1.031902	-0.752586
C152	C	-0.051483	-0.698569	-0.419253
C153	C	0.281850	-0.365236	-0.085919
C154	C	-0.431671	-0.985466	-0.787458
C155	C	-0.098338	-0.652133	-0.454125
C156	C	0.234995	-0.318799	-0.120792
C157	C	-0.475568	-0.941966	-0.748941
C158	C	-0.142235	-0.608632	-0.415608
C159	C	0.191099	-0.275299	-0.082274
C160	C	-0.472608	-0.944906	-0.675556
C161	C	-0.139274	-0.611573	-0.342223
C162	C	0.194059	-0.278240	-0.008890
C163	C	-0.445387	-0.971847	-1.006740
C164	C	-0.112054	-0.638513	-0.673406
C165	C	0.221280	-0.305180	-0.340073
C166	C	-0.448346	-0.968911	-1.080130
C167	C	-0.115012	-0.635577	-0.746796
C168	C	0.218321	-0.302244	-0.413463
C169	C	-0.357593	-1.058847	-1.083770
C170	C	-0.024259	-0.725513	-0.750436
C171	C	0.309074	-0.392180	-0.417103
C172	C	-0.354640	-1.061786	-1.010384
C173	C	-0.021306	-0.728453	-0.677050
C174	C	0.312027	-0.395119	-0.343717
C175	C	-0.398533	-1.018283	-0.971872
C176	C	-0.065200	-0.684950	-0.638539
C177	C	0.268133	-0.351617	-0.305206
N178	N	-0.434696	-0.982458	-0.862471
N179	N	-0.101362	-0.649124	-0.529137
N180	N	0.231971	-0.315791	-0.195804
N181	N	-0.395505	-1.021289	-0.896861
N182	N	-0.062171	-0.687955	-0.563528
N183	N	0.271162	-0.354622	-0.230195
C184	C	-0.407803	-1.009146	-0.196739
C185	C	-0.074469	-0.675813	0.136594
C186	C	0.258864	-0.342480	0.469928
C187	C	-0.404451	-1.012406	-0.118642
C188	C	-0.071117	-0.679073	0.214692
C189	C	0.262216	-0.345740	0.548025
H190	H	-0.853628	-0.955615	-0.486834
H191	H	-0.520295	-0.622282	-0.153501
H192	H	-0.186962	-0.288948	0.179833
Br193	Br	-0.318274	-1.097875	-0.631881
Br194	Br	0.015059	-0.764542	-0.298547
Br195	Br	0.348393	-0.431208	0.034786
H196	H	-0.492778	-0.731037	-0.449944
H197	H	-0.159445	-0.397704	-0.116610
H198	H	0.173889	-0.064370	0.216723
H199	H	-0.321856	-1.094263	-1.115133
H200	H	0.011477	-0.760930	-0.781800
H201	H	0.344811	-0.427597	-0.448467
Br202	Br	-1.002272	-1.102367	-0.490988
Br203	Br	-0.668939	-0.769034	-0.157655
Br204	Br	-0.335605	-0.435700	0.175678
Br205	Br	-0.827220	-0.896229	-0.273595
Br206	Br	-0.493887	-0.562896	0.059738
Br207	Br	-0.160554	-0.229562	0.393072
Br208	Br	-0.539153	-0.878940	-0.796267
Br209	Br	-0.205820	-0.545607	-0.462933
Br210	Br	0.127514	-0.212273	-0.129600
H211	H	-0.522250	-0.399864	-0.476804
H212	H	-0.188917	-0.066531	-0.143471
H213	H	0.144417	0.266802	0.189862
Br214	Br	-0.512774	-0.577006	-0.468178
Br215	Br	-0.179441	-0.243672	-0.134844
Br216	Br	0.153893	0.089661	0.198489
H217	H	-0.980878	-0.955734	-0.487188
H218	H	-0.647545	-0.622401	-0.153854
H219	H	-0.314211	-0.289067	0.179479
H220	H	-0.858335	-1.087883	-0.458008
H221	H	-0.525002	-0.754549	-0.124674
H222	H	-0.191669	-0.421216	0.208659
Br223	Br	-0.280614	-0.585515	-0.256705
Br224	Br	0.052719	-0.252181	0.076628
Br225	Br	0.386052	0.081152	0.409961
Br226	Br	-0.542260	-0.245829	-0.495029
Br227	Br	-0.208926	0.087505	-0.161696
Br228	Br	0.124407	0.420838	0.171638
Br229	Br	-0.988685	-0.855088	-0.407276
Br230	Br	-0.655352	-0.521754	-0.073942
Br231	Br	-0.322019	-0.188421	0.259391
Br232	Br	-0.310103	-0.254336	-0.283550
Br233	Br	0.023230	0.078997	0.049784
Br234	Br	0.356564	0.412331	0.383117
Br235	Br	-0.511936	-0.905884	-1.127456
Br236	Br	-0.178603	-0.572550	-0.794123
Br237	Br	0.154731	-0.239217	-0.460790
H238	H	-0.314080	-0.737591	-0.287181
H239	H	0.019254	-0.404258	0.046153
H240	H	0.352587	-0.070925	0.379486
Br241	Br	-0.317687	-0.427310	-0.290489
Br242	Br	0.015647	-0.093976	0.042844
Br243	Br	0.348980	0.239357	0.376178
Br244	Br	-0.833949	-1.051222	-0.237569
Br245	Br	-0.500616	-0.717888	0.095765
Br246	Br	-0.167282	-0.384555	0.429098
H247	H	-0.349074	-1.067323	-0.783940
H248	H	-0.015741	-0.733989	-0.450606
H249	H	0.317592	-0.400656	-0.117273
Br250	Br	-0.291051	-1.124811	-0.963062
Br251	Br	0.042282	-0.791478	-0.629728
Br252	Br	0.375616	-0.458145	-0.296395
Br253	Br	-0.504956	-0.912805	-0.954483
Br254	Br	-0.171622	-0.579472	-0.621150
Br255	Br	0.161711	-0.246139	-0.287817
H256	H	-0.848550	-0.890687	-0.416642
H257	H	-0.515217	-0.557354	-0.083309
H258	H	-0.181884	-0.224020	0.250025
H259	H	-0.970551	-0.930687	-0.286519
H260	H	-0.637218	-0.597354	0.046814
H261	H	-0.303885	-0.264021	0.380147
Br262	Br	-0.988020	-1.050087	-0.237387
Br263	Br	-0.654687	-0.716753	0.095946
Br264	Br	-0.321353	-0.383420	0.429280
Br265	Br	-0.840756	-1.148249	-0.344485
Br266	Br	-0.507423	-0.814916	-0.011152
Br267	Br	-0.174090	-0.481582	0.322182
H268	H	-0.981841	-1.117410	-0.363267
H269	H	-0.648508	-0.784076	-0.029934
H270	H	-0.315174	-0.450743	0.303400
H271	H	-0.508344	-0.909480	-0.644200
H272	H	-0.175010	-0.576147	-0.310867
H273	H	0.158323	-0.242814	0.022467
