data_functionalizedCrystal
_audit_creation_method	'MofGen! by Chris Wilmer'
_symmetry_space_group_name_H-M	'P1'
_symmetry_Int_Tables_number	1
_symmetry_cell_setting	triclinic
loop_
_symmetry_equiv_pos_as_xyz
  x,y,z
_cell_length_a	10.654550
_cell_length_b	12.811438
_cell_length_c	9.730223
_cell_angle_alpha	95.432459
_cell_angle_beta	89.999807
_cell_angle_gamma	84.264363
loop_
_atom_site_label
_atom_site_type_symbol
_atom_site_fract_x
_atom_site_fract_y
_atom_site_fract_z
O1	O	0.169181	1.393893	0.059471
O2	O	0.187567	1.088444	0.021393
O3	O	-0.004402	1.248192	0.041313
O4	O	0.361150	1.234146	0.039552
O5	O	-0.004397	1.248190	0.269892
O6	O	0.187572	1.088443	0.249973
O7	O	0.169185	1.393891	0.288051
Zn8	Zn	0.178380	1.241167	0.305304
Zn9	Zn	0.178373	1.241169	0.004140
O10	O	0.361154	1.234144	0.268131
C11	C	0.186538	1.049332	0.130807
C12	C	0.183449	0.932792	0.116279
C13	C	-0.051192	1.247160	0.155472
C14	C	-0.190619	1.244074	0.155083
C15	C	0.179093	0.768533	-0.028782
C16	C	0.181994	0.878032	-0.015143
C17	C	0.181999	0.878045	0.234069
C18	C	0.179098	0.768546	0.220430
C19	C	0.177646	0.713793	0.089000
C20	C	0.174754	0.604291	0.075363
C21	C	0.174750	0.604306	0.324573
C22	C	0.177651	0.713806	0.338213
C23	C	-0.270592	1.338131	0.166813
C24	C	-0.401597	1.335225	0.166441
C25	C	-0.372645	1.144198	0.142614
C26	C	-0.241642	1.147105	0.142977
C27	C	-0.287308	1.448419	0.180574
C28	C	-0.418314	1.445513	0.180203
C29	C	0.407945	1.235176	0.153969
C30	C	0.547372	1.238262	0.154349
C31	C	0.170215	1.433004	0.178634
C32	C	0.173304	1.549544	0.193153
N33	N	0.178383	1.241173	0.510841
N34	N	0.178360	1.241171	-0.201396
C35	C	0.093408	1.311927	0.591590
C36	C	0.093393	1.311924	0.735472
C37	C	0.263339	1.170409	0.717844
C38	C	0.263347	1.170408	0.573964
C39	C	-0.004705	1.393633	0.601769
C40	C	-0.004720	1.393630	0.745651
H41	H	0.177925	0.723951	-0.135797
O42	O	-0.422153	1.049981	0.130614
C43	C	-0.381304	0.992581	0.005090
H44	H	-0.353757	1.049269	-0.070581
H45	H	-0.460889	0.947348	-0.040295
H46	H	-0.296238	0.934712	0.024641
H47	H	0.016380	1.474290	0.794757
H48	H	0.178828	0.758401	0.445219
O49	O	0.183458	0.931039	-0.129699
C50	C	0.181522	0.859230	-0.248619
H51	H	0.219163	0.777121	-0.222317
H52	H	0.243260	0.884641	-0.332602
H53	H	0.080581	0.857862	-0.287102
O54	O	0.173565	0.551151	0.439031
C55	C	0.282895	0.566839	0.516802
H56	H	0.359621	0.589188	0.446679
H57	H	0.317457	0.491104	0.563881
H58	H	0.260016	0.632907	0.602731
O59	O	-0.119790	1.372423	0.552448
C60	C	-0.172998	1.457466	0.482547
H61	H	-0.128856	1.532053	0.521565
H62	H	-0.279117	1.469598	0.502565
H63	H	-0.154049	1.439517	0.366988
H64	H	0.332529	1.112785	0.508217
O65	O	-0.163907	1.055765	0.131326
C66	C	-0.087247	1.051756	0.012456
H67	H	-0.134941	1.105094	-0.063624
H68	H	-0.072965	0.967320	-0.037826
H69	H	0.008152	1.079611	0.042696
O70	O	0.173171	0.551004	-0.052227
C71	C	0.062842	0.498780	-0.066200
H72	H	0.026195	0.486076	0.040404
H73	H	0.085233	0.419284	-0.128845
H74	H	-0.012114	0.548748	-0.121458
O75	O	0.345825	1.101776	0.779391
C76	C	0.327573	1.116926	0.923697
H77	H	0.281133	1.200034	0.953707
H78	H	0.422608	1.105932	0.977018
H79	H	0.264223	1.057064	0.957056
O80	O	0.183239	0.931379	0.361656
C81	C	0.076259	1.005790	0.378385
H82	H	0.040473	1.025872	0.272699
H83	H	0.102726	1.080306	0.440386
H84	H	-0.000926	0.971364	0.435597
H85	H	-0.258175	1.491557	0.090299
H86	H	-0.464131	1.478845	0.085663
O87	O	-0.245201	1.490322	0.303624
C88	C	-0.301976	1.594330	0.332337
H89	H	-0.333763	1.627281	0.231796
H90	H	-0.230925	1.645355	0.385133
H91	H	-0.387146	1.594461	0.403298
H92	H	-0.460287	1.487067	0.281041
H93	H	0.025489	1.469840	0.566642
H94	H	-0.095811	1.368129	0.787090
