data_functionalizedCrystal
_audit_creation_method	'MofGen! by Chris Wilmer'
_symmetry_space_group_name_H-M	'P1'
_symmetry_Int_Tables_number	1
_symmetry_cell_setting	triclinic
loop_
_symmetry_equiv_pos_as_xyz
  x,y,z
_cell_length_a	12.827893
_cell_length_b	12.759400
_cell_length_c	12.827885
_cell_angle_alpha	89.969316
_cell_angle_beta	89.980728
_cell_angle_gamma	90.014655
loop_
_atom_site_label
_atom_site_type_symbol
_atom_site_fract_x
_atom_site_fract_y
_atom_site_fract_z
Zn1	Zn	1.597675	-0.418214	-0.590844
Zn2	Zn	1.597571	-0.593930	-0.416102
Zn3	Zn	1.422916	-0.418266	-0.416117
Zn4	Zn	1.422904	-0.593852	-0.590802
O5	O	1.510266	-0.506066	-0.503466
O6	O	1.743897	-0.441535	-0.567675
O7	O	1.574365	-0.570683	-0.269868
O8	O	1.446147	-0.271238	-0.439319
O9	O	1.743821	-0.570633	-0.439293
O10	O	1.574541	-0.271200	-0.567690
O11	O	1.446046	-0.441623	-0.269879
O12	O	1.276678	-0.441546	-0.439278
O13	O	1.446125	-0.570498	-0.737043
O14	O	1.276669	-0.570549	-0.567618
O15	O	1.574529	-0.441458	-0.737074
O16	O	1.574352	-0.740941	-0.439252
O17	O	1.446025	-0.740883	-0.567603
C18	C	1.238756	-0.506045	-0.503446
C19	C	1.122603	-0.506062	-0.503462
C20	C	1.070842	-0.569996	-0.566871
C21	C	0.950791	-0.570015	-0.566889
C22	C	1.510204	-0.779033	-0.503444
C23	C	1.510273	-0.895810	-0.503470
C24	C	1.577168	-0.950667	-0.436711
C25	C	1.577232	-1.060391	-0.436743
C26	C	1.443499	-1.060391	-0.570296
C27	C	1.443440	-0.950669	-0.570268
C28	C	1.644001	-0.895808	-0.369913
C29	C	1.710899	-0.950665	-0.303148
C30	C	1.710964	-1.060389	-0.303180
C31	C	1.644129	-1.115256	-0.369977
C32	C	1.782836	-0.506087	-0.503487
C33	C	1.898990	-0.506096	-0.503495
C34	C	1.510337	-0.505964	-0.776036
C35	C	1.510368	-0.505920	-0.892190
C36	C	1.510357	-0.232032	-0.503511
C37	C	1.510396	-0.115256	-0.503530
C38	C	1.573871	-0.569757	-0.943969
C39	C	1.573903	-0.569714	-1.064019
C40	C	1.510256	-0.506091	-0.231956
C41	C	1.510428	-0.505839	-0.115803
H42	H	1.078042	-0.451335	-0.449194
F43	F	1.644963	-0.641158	-1.122218
H44	H	1.765320	-0.905987	-0.248770
F45	F	1.644167	-0.779031	-0.370102
H46	H	1.388970	-0.906003	-0.624630
F47	F	1.782170	-1.118769	-0.232133
F48	F	1.129081	-0.641528	-0.637810
H49	H	1.644195	-1.204601	-0.370006
F50	F	1.372372	-1.118787	-0.641379
F51	F	1.439355	-0.434403	-1.057612
H52	H	1.628217	-0.624439	-0.899422
H53	H	1.456030	-0.451231	-0.936736
H54	H	0.906277	-0.624754	-0.621173
H55	H	0.943497	-0.451360	-0.449202
