data_functionalizedCrystal
_audit_creation_method	'MofGen! by Chris Wilmer'
_symmetry_space_group_name_H-M	'P1'
_symmetry_Int_Tables_number	1
_symmetry_cell_setting	triclinic
loop_
_symmetry_equiv_pos_as_xyz
  x,y,z
_cell_length_a	25.639242
_cell_length_b	25.639239
_cell_length_c	25.639234
_cell_angle_alpha	89.975416
_cell_angle_beta	89.973005
_cell_angle_gamma	90.034213
loop_
_atom_site_label
_atom_site_type_symbol
_atom_site_fract_x
_atom_site_fract_y
_atom_site_fract_z
Zn1	Zn	0.799250	-0.208247	-0.295742
Zn2	Zn	1.299250	0.291753	0.204258
Zn3	Zn	0.799166	-0.295674	-0.208307
Zn4	Zn	1.299166	0.204326	0.291693
Zn5	Zn	0.711819	-0.208248	-0.208306
Zn6	Zn	1.211819	0.291752	0.291694
Zn7	Zn	0.711771	-0.295646	-0.295696
Zn8	Zn	1.211771	0.204354	0.204304
O9	O	0.755502	-0.251954	-0.252013
O10	O	1.255502	0.248046	0.247987
O11	O	0.872404	-0.219855	-0.284163
O12	O	1.372404	0.280145	0.215837
O13	O	0.787564	-0.284089	-0.135141
O14	O	1.287564	0.215911	0.364859
O15	O	0.723472	-0.135083	-0.219924
O16	O	1.223472	0.364917	0.280076
O17	O	0.872342	-0.284088	-0.219924
O18	O	1.372342	0.215912	0.280076
O19	O	0.787707	-0.135082	-0.284163
O20	O	1.287707	0.364918	0.215837
O21	O	0.723390	-0.219858	-0.135141
O22	O	1.223390	0.280142	0.364859
O23	O	0.638647	-0.219830	-0.219880
O24	O	1.138647	0.280170	0.280120
O25	O	0.723391	-0.284040	-0.368868
O26	O	1.223391	0.215960	0.131132
O27	O	0.638613	-0.284041	-0.284085
O28	O	1.138613	0.215959	0.215915
O29	O	0.787661	-0.219828	-0.368901
O30	O	1.287661	0.280172	0.131099
O31	O	0.787518	-0.368836	-0.219880
O32	O	1.287518	0.131164	0.280120
O33	O	0.723309	-0.368815	-0.284085
O34	O	1.223309	0.131185	0.215915
C35	C	0.619659	-0.251933	-0.251977
C36	C	1.119659	0.248067	0.248023
C37	C	0.561545	-0.251937	-0.251975
C38	C	1.061545	0.248063	0.248025
C39	C	0.755414	-0.387796	-0.251989
C40	C	1.255414	0.112204	0.248011
C41	C	0.755424	-0.445910	-0.251996
C42	C	1.255424	0.054090	0.248004
C43	C	0.201173	-0.285444	-0.285413
C44	C	0.701173	0.214556	0.214587
C45	C	0.146568	-0.285447	-0.285421
C46	C	0.646568	0.214553	0.214579
O47	O	0.118324	-0.313911	-0.313821
O48	O	0.618324	0.186089	0.186179
N49	N	0.119263	-0.251968	-0.252047
N50	N	0.619263	0.248032	0.247953
C51	C	0.146564	-0.218480	-0.218666
C52	C	0.646564	0.281520	0.281334
O53	O	0.118324	-0.190003	-0.190280
O54	O	0.618324	0.309997	0.309720
C55	C	0.201167	-0.218474	-0.218661
C56	C	0.701167	0.281526	0.281339
C57	C	0.228470	-0.251959	-0.252034
C58	C	0.728470	0.248041	0.247966
C59	C	0.228476	-0.318926	-0.318783
C60	C	0.728476	0.181074	0.181217
C61	C	0.283076	-0.318924	-0.318774
C62	C	0.783076	0.181076	0.181226
C63	C	0.310374	-0.285439	-0.285395
C64	C	0.810374	0.214561	0.214605
C65	C	0.283071	-0.251957	-0.252024
C66	C	0.783071	0.248043	0.247976
C67	C	0.228468	-0.184983	-0.185283
C68	C	0.728468	0.315017	0.314717
C69	C	0.283075	-0.184981	-0.185281
C70	C	0.783075	0.315019	0.314719
C71	C	0.310378	-0.218466	-0.218654
C72	C	0.810378	0.281534	0.281346
C73	C	0.364969	-0.218469	-0.218636
C74	C	0.864969	0.281531	0.281364
N75	N	0.392275	-0.251949	-0.252010
N76	N	0.892275	0.248051	0.247990
C77	C	0.364977	-0.285434	-0.285389
C78	C	0.864977	0.214566	0.214611
C79	C	0.031893	-0.218493	-0.218680
C80	C	0.531893	0.281507	0.281320
C81	C	-0.022709	-0.218501	-0.218683
C82	C	0.477291	0.281499	0.281317
C83	C	-0.022701	-0.285468	-0.285438
C84	C	0.477299	0.214532	0.214562
C85	C	0.031902	-0.285463	-0.285433
C86	C	0.531902	0.214537	0.214567
C87	C	0.059199	-0.251972	-0.252054
C88	C	0.559199	0.248028	0.247946
C89	C	0.479642	-0.285426	-0.285368
C90	C	0.979642	0.214574	0.214632
C91	C	0.534247	-0.285422	-0.285354
C92	C	1.034247	0.214578	0.214646
C93	C	0.534235	-0.218453	-0.218601
C94	C	1.034235	0.281547	0.281399
C95	C	0.479634	-0.218458	-0.218612
C96	C	0.979634	0.281542	0.281388
C97	C	0.452339	-0.251947	-0.252000
C98	C	0.952339	0.248053	0.248000
O99	O	0.393248	-0.190019	-0.190252
O100	O	0.893248	0.309981	0.309748
O101	O	0.393223	-0.313901	-0.313776
O102	O	0.893223	0.186099	0.186224
C103	C	0.789022	-0.806272	-0.218638
C104	C	1.289022	-0.306272	0.281362
C105	C	0.789042	-0.860876	-0.218645
C106	C	1.289042	-0.360876	0.281355
O107	O	0.817518	-0.889111	-0.190257
O108	O	1.317518	-0.389111	0.309743
N109	N	0.755593	-0.888193	-0.252048
N110	N	1.255593	-0.388193	0.247952
C111	C	0.722126	-0.860902	-0.285449
C112	C	1.222126	-0.360902	0.214551
O113	O	0.693677	-0.889152	-0.313861
O114	O	1.193677	-0.389152	0.186139
C115	C	0.722109	-0.806299	-0.285444
C116	C	1.222109	-0.306299	0.214556
C117	C	0.755556	-0.778985	-0.252036
C118	C	1.255556	-0.278985	0.247964
C119	C	0.822467	-0.778958	-0.185233
C120	C	1.322467	-0.278958	0.314767
C121	C	0.822446	-0.724357	-0.185226
C122	C	1.322446	-0.224357	0.314774
C123	C	0.788980	-0.697071	-0.218623
C124	C	1.288980	-0.197071	0.281377
C125	C	0.755535	-0.724385	-0.252028
C126	C	1.255535	-0.224385	0.247972
C127	C	0.688644	-0.779010	-0.318847
C128	C	1.188644	-0.279010	0.181153
C129	C	0.688630	-0.724403	-0.318840
C130	C	1.188630	-0.224403	0.181160
C131	C	0.722077	-0.697089	-0.285432
C132	C	1.222077	-0.197089	0.214568
C133	C	0.722048	-0.642498	-0.285418
C134	C	1.222048	-0.142498	0.214582
N135	N	0.755497	-0.615181	-0.252016
N136	N	1.255497	-0.115181	0.247984
C137	C	0.788963	-0.642467	-0.218619
C138	C	1.288963	-0.142467	0.281381
C139	C	0.722165	-0.975573	-0.285457
C140	C	1.222165	-0.475573	0.214543
C141	C	0.722179	-1.030175	-0.285459
C142	C	1.222179	-0.530175	0.214541
C143	C	0.789097	-1.030145	-0.218656
C144	C	1.289097	-0.530145	0.281344
C145	C	0.789080	-0.975542	-0.218652
C146	C	1.289080	-0.475542	0.281348
C147	C	0.755614	-0.948256	-0.252055
C148	C	1.255614	-0.448256	0.247945
C149	C	0.788916	-0.527802	-0.218605
C150	C	1.288916	-0.027802	0.281395
C151	C	0.788890	-0.473197	-0.218599
C152	C	1.288890	0.026803	0.281401
C153	C	0.721975	-0.473232	-0.285403
C154	C	1.221975	0.026768	0.214597
C155	C	0.721998	-0.527832	-0.285408
C156	C	1.221998	-0.027832	0.214592
C157	C	0.755473	-0.555116	-0.252007
C158	C	1.255473	-0.055116	0.247993
O159	O	0.693588	-0.614228	-0.313794
O160	O	1.193588	-0.114228	0.186206
O161	O	0.817412	-0.614212	-0.190216
O162	O	1.317412	-0.114212	0.309784
C163	C	0.891875	-0.251975	-0.252049
C164	C	1.391875	0.248025	0.247951
C165	C	0.949989	-0.251984	-0.252064
C166	C	1.449989	0.248016	0.247936
C167	C	0.755530	-0.251931	-0.388386
C168	C	1.255530	0.248069	0.111614
C169	C	0.755542	-0.251921	-0.446500
C170	C	1.255542	0.248079	0.053500
C171	C	0.755604	-0.115581	-0.252048
C172	C	1.255604	0.384419	0.247952
C173	C	0.755648	-0.057467	-0.252064
C174	C	1.255648	0.442533	0.247936
C175	C	0.788971	-0.285323	-0.697686
C176	C	1.288971	0.214677	-0.197686
C177	C	0.788965	-0.285334	-0.643082
C178	C	1.288965	0.214666	-0.143082
O179	O	0.817364	-0.313792	-0.614839
O180	O	1.317364	0.186208	-0.114839
N181	N	0.755553	-0.251895	-0.615774
N182	N	1.255553	0.248105	-0.115774
C183	C	0.722141	-0.218447	-0.643073
C184	C	1.222141	0.281553	-0.143073
O185	O	0.693720	-0.190006	-0.614832
O186	O	1.193720	0.309994	-0.114832
C187	C	0.722144	-0.218439	-0.697677
C188	C	1.222144	0.281561	-0.197677
C189	C	0.755562	-0.251877	-0.724982
C190	C	1.255562	0.248123	-0.224982
C191	C	0.822386	-0.318758	-0.724991
C192	C	1.322386	0.181242	-0.224991
C193	C	0.822392	-0.318747	-0.779592
C194	C	1.322392	0.181253	-0.279592
C195	C	0.788983	-0.285300	-0.806887
C196	C	1.288983	0.214700	-0.306887
C197	C	0.755568	-0.251865	-0.779582
C198	C	1.255568	0.248135	-0.279582
C199	C	0.688729	-0.184994	-0.724975
C200	C	1.188729	0.315006	-0.224975
C201	C	0.688735	-0.184989	-0.779582
C202	C	1.188735	0.315011	-0.279582
C203	C	0.722153	-0.218427	-0.806887
C204	C	1.222153	0.281573	-0.306887
C205	C	0.722165	-0.218406	-0.861478
C206	C	1.222165	0.281594	-0.361478
N207	N	0.755578	-0.251845	-0.888786
N208	N	1.255578	0.248155	-0.388786
C209	C	0.788986	-0.285292	-0.861491
C210	C	1.288986	0.214708	-0.361491
C211	C	0.722136	-0.218467	-0.528403
C212	C	1.222136	0.281533	-0.028403
C213	C	0.722135	-0.218472	-0.473800
C214	C	1.222135	0.281528	0.026200
C215	C	0.788959	-0.285360	-0.473813
C216	C	1.288959	0.214640	0.026187
C217	C	0.788962	-0.285352	-0.528416
C218	C	1.288962	0.214648	-0.028416
C219	C	0.755548	-0.251906	-0.555710
C220	C	1.255548	0.248094	-0.055710
C221	C	0.788997	-0.285264	-0.976156
C222	C	1.288997	0.214736	-0.476156
C223	C	0.789002	-0.285248	-1.030761
C224	C	1.289002	0.214752	-0.530761
C225	C	0.722176	-0.218363	-1.030744
C226	C	1.222176	0.281637	-0.530744
C227	C	0.722173	-0.218377	-0.976144
C228	C	1.222173	0.281623	-0.476144
C229	C	0.755585	-0.251832	-0.948851
C230	C	1.255585	0.248168	-0.448851
O231	O	0.693780	-0.189965	-0.889756
O232	O	1.193780	0.310035	-0.389756
O233	O	0.817397	-0.313733	-0.889739
O234	O	1.317397	0.186267	-0.389739
C235	C	0.755503	-0.251939	-0.116170
C236	C	1.255503	0.248061	0.383830
C237	C	0.755593	-0.251802	-0.058057
C238	C	1.255593	0.248198	0.441943
H239	H	0.457425	-0.312694	-0.312556
H240	H	0.957425	0.187306	0.187444
O241	O	0.825040	-0.321345	-0.946728
O242	O	1.325040	0.178655	-0.446728
H243	H	0.801624	-0.347956	-0.921838
H244	H	1.301624	0.152044	-0.421838
O245	O	0.685879	-0.443798	-0.321425
O246	O	1.185879	0.056202	0.178575
H247	H	0.709260	-0.418888	-0.348047
H248	H	1.209260	0.081112	0.151953
O249	O	0.824995	-0.321439	-0.444371
O250	O	1.324995	0.178561	0.055629
H251	H	0.801569	-0.348043	-0.419482
H252	H	1.301569	0.151957	0.080518
H253	H	0.849592	-0.345997	-0.702773
H254	H	1.349592	0.154003	-0.202773
H255	H	0.305301	-0.346190	-0.345950
H256	H	0.805301	0.153810	0.154050
H257	H	0.816217	-0.312477	-1.052990
H258	H	1.316217	0.187523	-0.552990
H259	H	0.694929	-0.191238	-0.451573
H260	H	1.194929	0.308762	0.048427
H261	H	0.661405	-0.801240	-0.346049
H262	H	1.161405	-0.301240	0.153951
O263	O	0.686137	-0.182307	-0.946688
O264	O	1.186137	0.317693	-0.446688
H265	H	0.659517	-0.205709	-0.921795
H266	H	1.159517	0.294291	-0.421795
O267	O	0.061334	-0.182383	-0.182664
O268	O	0.561334	0.317617	0.317336
H269	H	0.033169	-0.159112	-0.159455
H270	H	0.533169	0.340888	0.340545
O271	O	0.858421	-0.354826	-0.809040
O272	O	1.358421	0.145174	-0.309040
H273	H	0.881640	-0.378089	-0.780878
H274	H	1.381640	0.121911	-0.280878
O275	O	0.199037	-0.355105	-0.354727
O276	O	0.699037	0.144895	0.145273
H277	H	0.227205	-0.378407	-0.377903
H278	H	0.727205	0.121593	0.122097
O279	O	0.061344	-0.321572	-0.321438
O280	O	0.561344	0.178428	0.178562
H281	H	0.086244	-0.298201	-0.348078
H282	H	0.586244	0.201799	0.151922
O283	O	0.858528	-0.694904	-0.149195
O284	O	1.358528	-0.194904	0.350805
H285	H	0.852896	-0.652349	-0.154793
H286	H	1.352896	-0.152349	0.345207
O287	O	0.824973	-0.443740	-0.182567
O288	O	1.324973	0.056260	0.317433
H289	H	0.851547	-0.418823	-0.205996
H290	H	1.351547	0.081177	0.294004
O291	O	-0.052147	-0.321581	-0.321448
O292	O	0.447853	0.178419	0.178552
H293	H	-0.094703	-0.315951	-0.315847
H294	H	0.405297	0.184049	0.184153
O295	O	0.858562	-0.808384	-0.149205
O296	O	1.358562	-0.308384	0.350795
H297	H	0.881809	-0.780209	-0.125977
H298	H	1.381809	-0.280209	0.374023
H299	H	0.816349	-1.052372	-0.191464
H300	H	1.316349	-0.552372	0.308536
H301	H	0.661525	-0.157753	-0.801803
H302	H	1.161525	0.342247	-0.301803
O303	O	0.686153	-0.182277	-1.060189
O304	O	1.186153	0.317723	-0.560189
H305	H	0.691775	-0.187890	-1.102744
H306	H	1.191775	0.312110	-0.602744
H307	H	0.305297	-0.157705	-0.158103
H308	H	0.805297	0.342295	0.341897
H309	H	0.816174	-0.312580	-0.550644
H310	H	1.316174	0.187420	-0.050644
O311	O	-0.052156	-0.182388	-0.182686
O312	O	0.447844	0.317612	0.317314
H313	H	-0.023995	-0.159102	-0.159478
H314	H	0.476005	0.340898	0.340522
O315	O	0.199027	-0.148862	-0.149293
O316	O	0.699027	0.351138	0.350707
H317	H	0.227190	-0.125575	-0.126091
H318	H	0.727190	0.374425	0.373909
O319	O	0.450180	-0.182345	-0.182618
O320	O	0.950180	0.317655	0.317382
H321	H	0.478338	-0.159059	-0.159407
H322	H	0.978338	0.340941	0.340593
H323	H	0.816316	-0.953306	-0.191448
H324	H	1.316316	-0.453306	0.308552
H325	H	0.694928	-0.191226	-0.550623
H326	H	1.194928	0.308774	-0.050623
H327	H	0.661516	-0.157767	-0.702753
H328	H	1.161516	0.342233	-0.202753
H329	H	0.816175	-0.550010	-0.191408
H330	H	1.316175	-0.050010	0.308592
O331	O	0.563697	-0.321535	-0.321354
O332	O	1.063697	0.178465	0.178646
H333	H	0.535538	-0.344814	-0.344570
H334	H	1.035538	0.155186	0.155430
O335	O	0.686101	-1.059634	-0.321488
O336	O	1.186101	-0.559634	0.178512
H337	H	0.662831	-1.031481	-0.344711
H338	H	1.162831	-0.531481	0.155289
O339	O	0.686055	-0.946144	-0.321473
O340	O	1.186055	-0.446144	0.178527
H341	H	0.662796	-0.974317	-0.344692
H342	H	1.162796	-0.474317	0.155308
H343	H	0.661379	-0.702190	-0.346042
H344	H	1.161379	-0.202190	0.153958
H345	H	0.556470	-0.191192	-0.191422
H346	H	1.056470	0.308808	0.308578
O347	O	0.685923	-0.557298	-0.321438
O348	O	1.185923	-0.057298	0.178562
H349	H	0.662650	-0.529148	-0.344661
H350	H	1.162650	-0.029148	0.155339
