data_functionalizedCrystal
_audit_creation_method	'MofGen! by Chris Wilmer'
_symmetry_space_group_name_H-M	'P1'
_symmetry_Int_Tables_number	1
_symmetry_cell_setting	triclinic
loop_
_symmetry_equiv_pos_as_xyz
  x,y,z
_cell_length_a	18.215407
_cell_length_b	17.639999
_cell_length_c	18.215407
_cell_angle_alpha	78.791764
_cell_angle_beta	90.007771
_cell_angle_gamma	101.196378
loop_
_atom_site_label
_atom_site_type_symbol
_atom_site_fract_x
_atom_site_fract_y
_atom_site_fract_z
Zn1	Zn	1.184309	0.314833	0.356875
Zn2	Zn	1.684309	0.814833	0.856875
Zn3	Zn	1.209129	0.446968	0.208966
Zn4	Zn	1.709129	0.946968	0.708966
Zn5	Zn	1.061259	0.314815	0.233831
Zn6	Zn	1.561259	0.814815	0.733831
Zn7	Zn	1.086096	0.446953	0.331999
Zn8	Zn	1.586096	0.946953	0.831999
O9	O	1.135198	0.380892	0.282918
O10	O	1.635198	0.880892	0.782918
O11	O	1.290588	0.332374	0.337259
O12	O	1.790588	0.832374	0.837259
O13	O	1.189507	0.429436	0.109280
O14	O	1.689507	0.929436	0.609280
O15	O	1.056800	0.204219	0.270970
O16	O	1.556800	0.704219	0.770970
O17	O	1.308824	0.429453	0.228591
O18	O	1.808824	0.929453	0.728591
O19	O	1.147205	0.204231	0.361370
O20	O	1.647205	0.704231	0.861370
O21	O	1.080867	0.332345	0.127549
O22	O	1.580867	0.832345	0.627549
O23	O	0.961567	0.332330	0.246849
O24	O	1.461567	0.832330	0.746849
O25	O	1.099131	0.429428	0.438283
O26	O	1.599131	0.929428	0.938283
O27	O	0.979814	0.429412	0.318972
O28	O	1.479814	0.929412	0.818972
O29	O	1.171288	0.332360	0.456559
O30	O	1.671288	0.832360	0.956559
O31	O	1.213590	0.557565	0.204470
O32	O	1.713590	1.057565	0.704470
O33	O	1.123198	0.557554	0.294861
O34	O	1.623198	1.057554	0.794861
C35	C	0.943987	0.380868	0.282909
C36	C	1.443987	0.880868	0.782909
C37	C	0.862190	0.380877	0.282920
C38	C	1.362190	0.880877	0.782920
C39	C	0.664520	0.330432	0.339558
C40	C	1.164520	0.830432	0.839558
C41	C	0.587662	0.330439	0.339559
C42	C	1.087662	0.830439	0.839559
C43	C	0.606633	0.431375	0.226286
C44	C	1.106633	0.931375	0.726286
C45	C	0.683488	0.431364	0.226283
C46	C	1.183488	0.931364	0.726283
C47	C	0.712430	0.380893	0.282923
C48	C	1.212430	0.880893	0.782923
C49	C	0.558717	0.380911	0.282927
C50	C	1.058717	0.880911	0.782927
C51	C	0.475385	0.380919	0.282928
C52	C	0.975385	0.880919	0.782928
C53	C	0.795767	0.380884	0.282921
C54	C	1.295767	0.880884	0.782921
C55	C	1.173803	0.586237	0.244284
C56	C	1.673803	1.086237	0.744284
C57	C	1.190385	0.674084	0.227781
C58	C	1.690385	1.174084	0.727781
C59	C	1.009411	0.963112	0.408541
C60	C	1.509411	1.463112	0.908541
C61	C	1.024994	1.045658	0.393011
C62	C	1.524994	1.545658	0.893011
C63	C	1.119177	1.045604	0.298981
C64	C	1.619177	1.545604	0.798981
C65	C	1.103605	0.963056	0.314506
C66	C	1.603605	1.463056	0.814506
C67	C	1.048720	0.921817	0.369287
C68	C	1.548720	1.421817	0.869287
C69	C	1.142914	0.921761	0.275252
C70	C	1.642914	1.421761	0.775252
C71	C	1.127340	0.839221	0.290773
C72	C	1.627340	1.339221	0.790773
C73	C	1.072456	0.797975	0.345549
C74	C	1.572456	1.297975	0.845549
C75	C	1.033146	0.839276	0.384808
C76	C	1.533146	1.339276	0.884808
C77	C	1.197795	0.963002	0.220468
C78	C	1.697795	1.463002	0.720468
C79	C	1.237104	0.921706	0.181213
C80	C	1.737104	1.421706	0.681213
C81	C	1.221534	0.839165	0.196738
C82	C	1.721534	1.339165	0.696738
C83	C	1.166650	0.797920	0.251514
C84	C	1.666650	1.297920	0.751514
C85	C	1.260844	0.797864	0.157479
C86	C	1.760844	1.297864	0.657479
C87	C	1.245270	0.715323	0.173001
C88	C	1.745270	1.215323	0.673001
C89	C	1.151076	0.715379	0.267036
C90	C	1.651076	1.215379	0.767036
C91	C	1.327156	0.380917	0.282926
C92	C	1.827156	0.880917	0.782926
C93	C	1.408957	0.380928	0.282930
C94	C	1.908957	0.880928	0.782930
C95	C	1.135211	0.380895	0.474870
C96	C	1.635211	0.880895	0.974870
C97	C	1.135217	0.380895	0.556669
C98	C	1.635217	0.880895	1.056669
C99	C	1.096440	1.174746	0.321715
C100	C	1.596440	1.674746	0.821715
C101	C	1.079865	1.086899	0.338240
C102	C	1.579865	1.586899	0.838240
C103	C	1.172776	0.330360	0.754379
C104	C	1.672776	0.830360	1.254379
C105	C	1.172772	0.330360	0.831238
C106	C	1.672772	0.830360	1.331238
C107	C	1.097636	0.431442	0.812194
C108	C	1.597636	0.931442	1.312194
C109	C	1.097636	0.431438	0.735338
C110	C	1.597636	0.931438	1.235338
C111	C	1.135211	0.380898	0.706432
C112	C	1.635211	0.880898	1.206432
C113	C	1.135206	0.380902	0.860147
C114	C	1.635206	0.880902	1.360147
C115	C	1.135202	0.380902	0.943481
C116	C	1.635202	0.880902	1.443481
C117	C	1.135214	0.380897	0.623093
C118	C	1.635214	0.880897	1.123093
C119	C	1.135189	0.380907	1.091709
C120	C	1.635189	0.880907	1.591709
C121	C	1.135200	0.380905	1.009910
C122	C	1.635200	0.880905	1.509910
H123	H	0.583059	0.472467	0.180173
H124	H	1.083059	0.972467	0.680173
H125	H	0.722499	0.472456	0.180159
H126	H	1.222499	0.972456	0.680159
H127	H	1.281789	0.955295	0.136609
H128	H	1.781789	1.455295	0.636609
O129	O	0.979781	0.799127	0.437942
O130	O	1.479781	1.299127	0.937942
C131	C	0.862823	0.706048	0.465266
C132	C	1.362823	1.206048	0.965266
C133	C	0.923207	0.751452	0.405025
C134	C	1.423207	1.251452	0.905025
H135	H	0.817059	0.667505	0.438673
H136	H	1.317059	1.167505	0.938673
H137	H	0.889237	0.667319	0.511045
H138	H	1.389237	1.167319	1.011045
H139	H	0.837444	0.749759	0.490674
H140	H	1.337444	1.249759	0.990674
H141	H	0.948608	0.707798	0.379559
H142	H	1.448608	1.207798	0.879559
H143	H	0.896752	0.790193	0.359292
H144	H	1.396752	1.290193	0.859292
H145	H	0.688081	0.289333	0.385676
H146	H	1.188081	0.789333	0.885676
O147	O	1.212996	1.043182	0.205273
O148	O	1.712996	1.543182	0.705273
C149	C	1.287058	1.161599	0.131428
C150	C	1.787058	1.661599	0.631428
C151	C	1.269906	1.070797	0.148549
C152	C	1.769906	1.570797	0.648549
H153	H	1.333082	1.183953	0.085577
H154	H	1.833082	1.683953	0.585577
H155	H	1.234345	1.184099	0.111837
H156	H	1.734345	1.684099	0.611837
H157	H	1.306479	1.183966	0.184243
H158	H	1.806479	1.683966	0.684243
H159	H	1.250504	1.048362	0.095763
H160	H	1.750504	1.548362	0.595763
H161	H	1.322635	1.048350	0.168171
H162	H	1.822635	1.548350	0.668171
O163	O	1.314147	0.838050	0.104305
O164	O	1.814147	1.338050	0.604305
C165	C	1.379828	0.965185	0.038664
C166	C	1.879828	1.465185	0.538664
C167	C	1.319461	0.919774	0.098919
C168	C	1.819461	1.419774	0.598919
H169	H	1.384133	1.031267	0.034279
H170	H	1.884133	1.531267	0.534279
H171	H	1.436123	0.948978	0.054680
H172	H	1.936123	1.448978	0.554680
H173	H	1.363880	0.948920	-0.017618
H174	H	1.863880	1.448920	0.482382
H175	H	1.335338	0.936015	0.155223
H176	H	1.835338	1.436015	0.655223
H177	H	1.263183	0.935985	0.082839
H178	H	1.763183	1.435985	0.582839
O179	O	1.283342	0.675167	0.134801
O180	O	1.783342	1.175167	0.634801
C181	C	1.275723	0.581943	0.053017
C182	C	1.775723	1.081943	0.553017
C183	C	1.232520	0.627387	0.096229
C184	C	1.732520	1.127387	0.596229
H185	H	1.234651	0.543290	0.021833
H186	H	1.734651	1.043290	0.521833
H187	H	1.317609	0.625558	0.011151
H188	H	1.817609	1.125558	0.511151
H189	H	1.306897	0.543297	0.094124
H190	H	1.806897	1.043297	0.594124
H191	H	1.201302	0.666034	0.055178
H192	H	1.701302	1.166034	0.555178
H193	H	1.190678	0.583730	0.138105
H194	H	1.690678	1.083730	0.638105
H195	H	1.067041	0.472591	0.696297
H196	H	1.567041	0.972591	1.196297
H197	H	1.067046	0.472592	0.835739
H198	H	1.567046	0.972592	1.335739
O199	O	1.209168	0.281148	0.726356
O200	O	1.709168	0.781148	1.226356
C201	C	1.219649	0.146709	0.728195
C202	C	1.719649	0.646709	1.228195
C203	C	1.178363	0.202356	0.759976
C204	C	1.678363	0.702356	1.259976
H205	H	1.194770	0.082995	0.755375
H206	H	1.694770	0.582995	1.255375
H207	H	1.213184	0.155316	0.665031
H208	H	1.713184	0.655316	1.165031
H209	H	1.281602	0.160632	0.740687
H210	H	1.781602	0.660632	1.240687
H211	H	1.116396	0.188467	0.747539
H212	H	1.616396	0.688467	1.247539
H213	H	1.184889	0.193739	0.823132
H214	H	1.684889	0.693739	1.323132
O215	O	1.057328	0.717795	0.360765
O216	O	1.557328	1.217795	0.860765
C217	C	1.053865	0.599321	0.453609
C218	C	1.553865	1.099321	0.953609
C219	C	1.071008	0.690123	0.436483
C220	C	1.571008	1.190123	0.936483
H221	H	1.064933	0.576920	0.514821
H222	H	1.564933	1.076920	1.014821
H223	H	0.992655	0.576916	0.442549
H224	H	1.492655	1.076916	0.942549
H225	H	1.091368	0.576904	0.416110
H226	H	1.591368	1.076904	0.916110
H227	H	1.033553	0.712607	0.473969
H228	H	1.533553	1.212607	0.973969
H229	H	1.132234	0.712474	0.447520
H230	H	1.632234	1.212474	0.947520
O231	O	0.541232	0.281397	0.394651
O232	O	1.041232	0.781397	0.894651
C233	C	0.530526	0.181250	0.506979
C234	C	1.030526	0.681250	1.006979
C235	C	0.583194	0.236766	0.444641
C236	C	1.083194	0.736766	0.944641
H237	H	0.564429	0.145140	0.547404
H238	H	1.064429	0.645140	1.047404
H239	H	0.501402	0.217566	0.538624
H240	H	1.001402	0.717566	1.038624
H241	H	0.486740	0.139905	0.481023
H242	H	0.986740	0.639905	0.981023
H243	H	0.627022	0.278122	0.470535
H244	H	1.127022	0.778122	0.970535
H245	H	0.612263	0.200401	0.413004
H246	H	1.112263	0.700401	0.913004
H247	H	1.106388	0.681801	0.311649
H248	H	1.606388	1.181801	0.811649
O249	O	0.956059	0.923167	0.461766
O250	O	1.456059	1.423167	0.961766
C251	C	0.864328	0.931922	0.553457
C252	C	1.364328	1.431922	1.053457
C253	C	0.924709	0.977258	0.493187
C254	C	1.424709	1.477258	0.993187
H255	H	0.838976	0.975635	0.578888
H256	H	1.338976	1.475635	1.078888
H257	H	0.818538	0.893332	0.526937
H258	H	1.318538	1.393332	1.026937
H259	H	0.890812	0.893229	0.599204
H260	H	1.390812	1.393229	1.099204
H261	H	0.898293	1.015994	0.447421
H262	H	1.398293	1.515994	0.947421
H263	H	0.970492	1.015799	0.519761
H264	H	1.470492	1.515799	1.019761
O265	O	0.986853	1.085895	0.431055
O266	O	1.486853	1.585895	0.931055
C267	C	0.969128	1.213076	0.448849
C268	C	1.469128	1.713076	0.948849
C269	C	1.012366	1.167607	0.405701
C270	C	1.512366	1.667607	0.905701
H271	H	0.989750	1.279148	0.428378
H272	H	1.489750	1.779148	0.928378
H273	H	0.906739	1.196954	0.438900
H274	H	1.406739	1.696954	0.938900
H275	H	0.978920	1.196779	0.511259
H276	H	1.478920	1.696779	1.011259
H277	H	1.002636	1.183880	0.343278
H278	H	1.502636	1.683880	0.843278
H279	H	1.074741	1.183733	0.415713
H280	H	1.574741	1.683733	0.915713
O281	O	1.209141	0.281181	0.877860
O282	O	1.709141	0.781181	1.377860
C283	C	1.198991	0.174502	0.984742
C284	C	1.698991	0.674502	1.484742
C285	C	1.157708	0.230140	0.931987
C286	C	1.657708	0.730140	1.431987
H287	H	1.157428	0.133232	1.028525
H288	H	1.657428	0.633232	1.528525
H289	H	1.225818	0.138323	0.950918
H290	H	1.725818	0.638323	1.450918
H291	H	1.244309	0.210804	1.013867
H292	H	1.744309	0.710804	1.513867
H293	H	1.112357	0.193899	0.902849
H294	H	1.612357	0.693899	1.402849
H295	H	1.130934	0.266321	0.965850
H296	H	1.630934	0.766321	1.465850
H297	H	1.163862	1.079192	0.254377
H298	H	1.663862	1.579192	0.754377
