data_functionalizedCrystal
_audit_creation_method	'MofGen! by Chris Wilmer'
_symmetry_space_group_name_H-M	'P1'
_symmetry_Int_Tables_number	1
_symmetry_cell_setting	triclinic
loop_
_symmetry_equiv_pos_as_xyz
  x,y,z
_cell_length_a	13.897448
_cell_length_b	11.169417
_cell_length_c	11.169409
_cell_angle_alpha	89.980487
_cell_angle_beta	89.964424
_cell_angle_gamma	90.018942
loop_
_atom_site_label
_atom_site_type_symbol
_atom_site_fract_x
_atom_site_fract_y
_atom_site_fract_z
Zn1	Zn	-0.383905	1.834901	-0.678506
Zn2	Zn	-0.050571	2.168234	-0.345172
Zn3	Zn	0.282762	2.501568	-0.011839
Zn4	Zn	-0.545240	1.834765	-0.477811
Zn5	Zn	-0.211907	2.168098	-0.144478
Zn6	Zn	0.121426	2.501431	0.188855
Zn7	Zn	-0.383964	1.634187	-0.477841
Zn8	Zn	-0.050631	1.967520	-0.144508
Zn9	Zn	0.282702	2.300854	0.188825
Zn10	Zn	-0.545163	1.634169	-0.678457
Zn11	Zn	-0.211830	1.967502	-0.345124
Zn12	Zn	0.121504	2.300835	-0.011791
O13	O	-0.464568	1.734505	-0.578154
O14	O	-0.131235	2.067839	-0.244821
O15	O	0.202099	2.401172	0.088513
O16	O	-0.405314	2.002833	-0.651891
O17	O	-0.071980	2.336166	-0.318558
O18	O	0.261353	2.669499	0.014776
O19	O	-0.523904	1.808108	-0.309865
O20	O	-0.190571	2.141441	0.023468
O21	O	0.142762	2.474775	0.356801
O22	O	-0.248975	1.660877	-0.504493
O23	O	0.084358	1.994210	-0.171159
O24	O	0.417692	2.327543	0.162174
O25	O	-0.523846	2.002732	-0.504442
O26	O	-0.190513	2.336066	-0.171108
O27	O	0.142820	2.669399	0.162225
O28	O	-0.248931	1.808341	-0.651920
O29	O	0.084402	2.141674	-0.318587
O30	O	0.417736	2.475007	0.014747
O31	O	-0.405416	1.660744	-0.309887
O32	O	-0.072082	1.994078	0.023446
O33	O	0.261251	2.327411	0.356779
O34	O	-0.405340	1.466235	-0.504446
O35	O	-0.072007	1.799568	-0.171112
O36	O	0.261326	2.132901	0.162221
O37	O	-0.523714	1.660846	-0.846414
O38	O	-0.190381	1.994179	-0.513080
O39	O	0.142953	2.327512	-0.179747
O40	O	-0.523772	1.466221	-0.651837
O41	O	-0.190439	1.799555	-0.318504
O42	O	0.142894	2.132888	0.014829
O43	O	-0.405238	1.808323	-0.846449
O44	O	-0.071905	2.141656	-0.513116
O45	O	0.261428	2.474990	-0.179782
O46	O	-0.680212	1.808090	-0.504395
O47	O	-0.346878	2.141424	-0.171061
O48	O	-0.013545	2.474757	0.162272
O49	O	-0.680155	1.660713	-0.651808
O50	O	-0.346821	1.994047	-0.318475
O51	O	-0.013488	2.327380	0.014858
C52	C	-0.464555	1.422681	-0.578140
C53	C	-0.131222	1.756014	-0.244807
C54	C	0.202112	2.089347	0.088527
C55	C	-0.464573	1.289281	-0.578163
C56	C	-0.131239	1.622614	-0.244829
C57	C	0.202094	1.955947	0.088504
C58	C	-0.715182	1.734418	-0.578119
C59	C	-0.381849	2.067751	-0.244786
C60	C	-0.048516	2.401084	0.088547
C61	C	-0.822396	1.734490	-0.578144
C62	C	-0.489063	2.067823	-0.244811
C63	C	-0.155730	2.401157	0.088522
C64	C	-1.018691	1.734616	-0.578220
C65	C	-0.685358	2.067949	-0.244886
C66	C	-0.352025	2.401283	0.088447
C67	C	-0.909459	1.734543	-0.578181
C68	C	-0.576126	2.067876	-0.244848
C69	C	-0.242792	2.401209	0.088485
C70	C	-0.212975	1.734626	-0.578215
C71	C	0.120358	2.067959	-0.244882
C72	C	0.453692	2.401293	0.088452
C73	C	-0.105761	1.734677	-0.578241
C74	C	0.227572	2.068011	-0.244908
C75	C	0.560906	2.401344	0.088426
C76	C	-0.464461	1.734597	-0.891196
C77	C	-0.131128	2.067931	-0.557863
C78	C	0.202206	2.401264	-0.224530
C79	C	-0.464415	1.734637	-1.024597
C80	C	-0.131082	2.067970	-0.691263
C81	C	0.202251	2.401303	-0.357930
C82	C	-0.464582	2.047548	-0.578168
C83	C	-0.131249	2.380881	-0.244835
C84	C	0.202085	2.714214	0.088498
C85	C	-0.464588	2.180948	-0.578175
C86	C	-0.131254	2.514281	-0.244841
C87	C	0.202079	2.847614	0.088492
C88	C	-0.464605	1.734483	-0.266329
C89	C	-0.131272	2.067816	0.067004
C90	C	0.202061	2.401149	0.400338
C91	C	-0.464379	1.734676	-0.132930
C92	C	-0.131046	2.068009	0.200404
C93	C	0.202288	2.401342	0.533737
