data_functionalizedCrystal
_audit_creation_method	'MofGen! by Chris Wilmer'
_symmetry_space_group_name_H-M	'P1'
_symmetry_Int_Tables_number	1
_symmetry_cell_setting	triclinic
loop_
_symmetry_equiv_pos_as_xyz
  x,y,z
_cell_length_a	10.686220
_cell_length_b	12.759394
_cell_length_c	10.686551
_cell_angle_alpha	85.595060
_cell_angle_beta	90.308082
_cell_angle_gamma	94.395425
loop_
_atom_site_label
_atom_site_type_symbol
_atom_site_fract_x
_atom_site_fract_y
_atom_site_fract_z
Zn1	Zn	1.972294	-0.256138	-0.562390
Zn2	Zn	1.956069	-0.446297	-0.352634
Zn3	Zn	1.746413	-0.283014	-0.368708
Zn4	Zn	1.762499	-0.444168	-0.578412
O5	O	1.859319	-0.357404	-0.465536
O6	O	2.145683	-0.271006	-0.521133
O7	O	1.914736	-0.436776	-0.179221
O8	O	1.776434	-0.132422	-0.394422
O9	O	2.133763	-0.410716	-0.367027
O10	O	1.942388	-0.112677	-0.536719
O11	O	1.760702	-0.316812	-0.191030
O12	O	1.573005	-0.314748	-0.409958
O13	O	1.803851	-0.407087	-0.751832
O14	O	1.584824	-0.433147	-0.564026
O15	O	1.957986	-0.268942	-0.740061
O16	O	1.930334	-0.593041	-0.382563
O17	O	1.788119	-0.591477	-0.548440
C18	C	1.533399	-0.376633	-0.490476
C19	C	1.393971	-0.384883	-0.501175
C20	C	1.859248	-0.630377	-0.465521
C21	C	1.859335	-0.747147	-0.465547
C22	C	2.032032	-0.726426	-0.613851
C23	C	2.118420	-0.770924	-0.688009
C24	C	2.118497	-0.880639	-0.688031
C25	C	2.032173	-0.945860	-0.613889
C26	C	1.945785	-0.901363	-0.539730
C27	C	1.945720	-0.791644	-0.539714
C28	C	1.773084	-0.922083	-0.391435
C29	C	1.773011	-0.812368	-0.391405
C30	C	1.686760	-0.987304	-0.317293
C31	C	1.600376	-0.942807	-0.243126
C32	C	1.600303	-0.833085	-0.243107
C33	C	1.686623	-0.767870	-0.317247
C34	C	2.186512	-0.338100	-0.440500
C35	C	2.325942	-0.329874	-0.429831
C36	C	1.884523	-0.334779	-0.792736
C37	C	1.895264	-0.325137	-0.932169
C38	C	1.859427	-0.083361	-0.465576
C39	C	1.859473	0.033420	-0.465593
C40	C	1.834285	-0.379861	-0.139604
C41	C	1.823787	-0.389193	-0.000153
H42	H	1.345540	-0.438300	-0.570437
O43	O	1.383836	-0.266297	-0.347126
C44	C	1.518785	-0.255006	-0.166517
C45	C	1.453305	-0.327122	-0.260115
H46	H	1.574945	-0.304157	-0.096130
H47	H	1.584671	-0.192583	-0.219495
H48	H	1.445128	-0.214890	-0.114582
H49	H	1.526872	-0.367310	-0.312075
H50	H	1.387394	-0.389482	-0.207067
O51	O	2.032098	-0.619828	-0.614013
C52	C	2.126818	-0.451010	-0.695284
C53	C	2.126857	-0.571715	-0.695239
H54	H	2.203439	-0.412074	-0.760928
H55	H	2.031681	-0.425153	-0.728747
H56	H	2.145355	-0.426445	-0.596124
H57	H	2.108371	-0.596368	-0.794365
H58	H	2.222000	-0.597505	-0.661705
H59	H	2.188702	-0.717811	-0.748378
H60	H	1.964684	-0.262920	-0.980642
H61	H	1.754380	-0.451412	-0.951686
H62	H	2.188830	-0.916868	-0.748431
H63	H	1.686824	-1.076639	-0.317321
O64	O	1.516359	-1.006115	-0.171262
C65	C	1.298342	-1.056619	-0.126494
C66	C	1.393354	-0.984874	-0.207991
H67	H	1.198871	-1.039456	-0.156141
H68	H	1.313121	-1.142697	-0.139269
H69	H	1.312707	-1.040767	-0.023663
H70	H	1.379046	-1.000632	-0.310851
H71	H	1.378550	-0.898820	-0.195108
H72	H	2.032233	-1.035195	-0.613924
O73	O	1.516432	-0.789690	-0.171183
C74	C	1.439822	-0.629857	-0.105359
C75	C	1.534856	-0.678856	-0.186894
H76	H	1.454702	-0.540242	-0.118013
H77	H	1.340336	-0.655869	-0.135070
H78	H	1.454131	-0.657200	-0.002551
H79	H	1.520663	-0.651537	-0.289723
H80	H	1.634308	-0.652849	-0.157077
H81	H	1.686577	-0.678533	-0.317233
