data_functionalizedCrystal
_audit_creation_method	'MofGen! by Chris Wilmer'
_symmetry_space_group_name_H-M	'P1'
_symmetry_Int_Tables_number	1
_symmetry_cell_setting	triclinic
loop_
_symmetry_equiv_pos_as_xyz
  x,y,z
_cell_length_a	19.805407
_cell_length_b	13.897448
_cell_length_c	13.897441
_cell_angle_alpha	90.029627
_cell_angle_beta	90.020698
_cell_angle_gamma	90.017692
loop_
_atom_site_label
_atom_site_type_symbol
_atom_site_fract_x
_atom_site_fract_y
_atom_site_fract_z
Zn1	Zn	1.034784	-0.383993	0.545435
Zn2	Zn	1.368118	-0.050660	0.878769
Zn3	Zn	1.701451	0.282673	1.212102
Zn4	Zn	1.034714	-0.545312	0.384137
Zn5	Zn	1.368047	-0.211979	0.717470
Zn6	Zn	1.701381	0.121354	1.050803
Zn7	Zn	0.921597	-0.384033	0.384148
Zn8	Zn	1.254930	-0.050700	0.717481
Zn9	Zn	1.588263	0.282634	1.050814
Zn10	Zn	0.921580	-0.545248	0.545383
Zn11	Zn	1.254913	-0.211915	0.878717
Zn12	Zn	1.588246	0.121419	1.212050
O13	O	0.978169	-0.464647	0.464776
O14	O	1.311502	-0.131313	0.798109
O15	O	1.644835	0.202020	1.131442
O16	O	1.129491	-0.405403	0.524056
O17	O	1.462825	-0.072070	0.857389
O18	O	1.796158	0.261264	1.190722
O19	O	1.019687	-0.523962	0.249156
O20	O	1.353020	-0.190628	0.582490
O21	O	1.686353	0.142705	0.915823
O22	O	0.936648	-0.249046	0.405569
O23	O	1.269981	0.084287	0.738903
O24	O	1.603314	0.417621	1.072236
O25	O	1.129440	-0.523923	0.405550
O26	O	1.462773	-0.190590	0.738884
O27	O	1.796107	0.142743	1.072217
O28	O	1.019806	-0.249017	0.524066
O29	O	1.353139	0.084316	0.857400
O30	O	1.686473	0.417650	1.190733
O31	O	0.936580	-0.405470	0.249165
O32	O	1.269913	-0.072137	0.582498
O33	O	1.603246	0.261196	0.915831
O34	O	0.826878	-0.405408	0.405519
O35	O	1.160211	-0.072075	0.738852
O36	O	1.493544	0.261259	1.072186
O37	O	0.936619	-0.523814	0.680372
O38	O	1.269952	-0.190481	1.013705
O39	O	1.603285	0.142853	1.347039
O40	O	0.826865	-0.523852	0.523978
O41	O	1.160199	-0.190519	0.857311
O42	O	1.493532	0.142814	1.190645
O43	O	1.019790	-0.405341	0.680410
O44	O	1.353123	-0.072007	1.013743
O45	O	1.686456	0.261326	1.347077
O46	O	1.019670	-0.680285	0.405500
O47	O	1.353003	-0.346952	0.738833
O48	O	1.686337	-0.013619	1.072167
O49	O	0.936551	-0.680238	0.523967
O50	O	1.269884	-0.346905	0.857301
O51	O	1.603217	-0.013572	1.190634
C52	C	0.802313	-0.464628	0.464745
C53	C	1.135646	-0.131295	0.798078
C54	C	1.468979	0.202038	1.131411
C55	C	0.727081	-0.464644	0.464754
C56	C	1.060414	-0.131310	0.798087
C57	C	1.393747	0.202023	1.131421
C58	C	0.691748	-0.526410	0.526336
C59	C	1.025081	-0.193077	0.859669
C60	C	1.358414	0.140256	1.193003
C61	C	0.621059	-0.526412	0.526350
C62	C	0.954393	-0.193079	0.859683
C63	C	1.287726	0.140255	1.193016
C64	C	0.585705	-0.464651	0.464776
C65	C	0.919038	-0.131318	0.798109
C66	C	1.252372	0.202016	1.131442
C67	C	0.621043	-0.402878	0.403191
C68	C	0.954376	-0.069544	0.736525
C69	C	1.287710	0.263789	1.069858
C70	C	0.691730	-0.402872	0.403183
C71	C	1.025063	-0.069538	0.736517
C72	C	1.358397	0.263795	1.069850
C73	C	0.335970	-0.402899	0.403223
C74	C	0.669303	-0.069566	0.736556
C75	C	1.002636	0.263768	1.069890
C76	C	0.265278	-0.402912	0.403234
C77	C	0.598611	-0.069578	0.736567
C78	C	0.931944	0.263755	1.069900
C79	C	0.265299	-0.526439	0.526389
C80	C	0.598632	-0.193106	0.859723
C81	C	0.931965	0.140228	1.193056
C82	C	0.335986	-0.526433	0.526381
C83	C	0.669319	-0.193100	0.859715
C84	C	1.002653	0.140233	1.193048
C85	C	0.371318	-0.464657	0.464801
C86	C	0.704651	-0.131323	0.798134
C87	C	1.037984	0.202010	1.131468
C88	C	0.447966	-0.464654	0.464788
C89	C	0.781299	-0.131321	0.798122
C90	C	1.114633	0.202012	1.131455
C91	C	0.509058	-0.464658	0.464783
C92	C	0.842391	-0.131324	0.798116
C93	C	1.175725	0.202009	1.131449
C94	C	0.978119	-0.715261	0.464748
C95	C	1.311453	-0.381928	0.798081
C96	C	1.644786	-0.048594	1.131414
C97	C	0.978160	-0.822475	0.464768
C98	C	1.311493	-0.489142	0.798101
C99	C	1.644827	-0.155808	1.131435
C100	C	0.978231	-1.018770	0.464829
C101	C	1.311564	-0.685437	0.798162
C102	C	1.644898	-0.352103	1.131495
C103	C	0.978190	-0.909538	0.464798
C104	C	1.311523	-0.576204	0.798131
C105	C	1.644856	-0.242871	1.131465
C106	C	1.154711	-0.464666	0.464808
C107	C	1.488045	-0.131333	0.798141
C108	C	1.821378	0.202001	1.131474
C109	C	1.229943	-0.464674	0.464821
C110	C	1.563277	-0.131341	0.798155
C111	C	1.896610	0.201993	1.131488
C112	C	0.978210	-0.464566	0.716369
C113	C	1.311543	-0.131232	1.049702
C114	C	1.644877	0.202101	1.383036
C115	C	0.978228	-0.464531	0.823583
C116	C	1.311561	-0.131198	1.156916
C117	C	1.644894	0.202135	1.490250
C118	C	0.978237	-0.213054	0.464825
C119	C	1.311570	0.120280	0.798158
C120	C	1.644903	0.453613	1.131492
C121	C	0.978266	-0.105840	0.464846
C122	C	1.311599	0.227494	0.798179
C123	C	1.644932	0.560827	1.131512
C124	C	0.978166	-0.464658	0.214161
C125	C	1.311500	-0.131324	0.547495
C126	C	1.644833	0.202009	0.880828
C127	C	0.978280	-0.464421	0.106948
C128	C	1.311613	-0.131087	0.440281
C129	C	1.644946	0.202246	0.773615
C130	C	0.978242	-0.464504	0.910653
C131	C	1.311575	-0.131171	1.243986
C132	C	1.644908	0.202163	1.577319
C133	C	0.978261	-0.464460	1.019885
C134	C	1.311594	-0.131127	1.353219
C135	C	1.644928	0.202206	1.686552
H136	H	0.592294	-0.576709	0.576495
H137	H	0.925628	-0.243376	0.909828
H138	H	1.258961	0.089957	1.243161
N139	N	0.227191	-0.593071	0.592812
N140	N	0.560525	-0.259738	0.926146
N141	N	0.893858	0.073595	1.259479
H142	H	0.177046	-0.583705	0.583480
H143	H	0.510380	-0.250372	0.916814
H144	H	0.843713	0.082961	1.250147
H145	H	0.239573	-0.578148	0.661727
H146	H	0.572907	-0.244814	0.995061
H147	H	0.906240	0.088519	1.328394
H148	H	0.364728	-0.352604	0.353073
H149	H	0.698062	-0.019271	0.686406
H150	H	1.031395	0.314063	1.019740
N151	N	0.582915	-0.336280	0.336760
N152	N	0.916248	-0.002947	0.670093
N153	N	1.249582	0.330386	1.003426
H154	H	0.532773	-0.345665	0.346098
H155	H	0.866106	-0.012332	0.679431
H156	H	1.199440	0.321001	1.012765
H157	H	0.595258	-0.351231	0.267851
H158	H	0.928591	-0.017897	0.601185
H159	H	1.261924	0.315436	0.934518
N160	N	0.729843	-0.336246	0.336770
N161	N	1.063176	-0.002912	0.670103
N162	N	1.396510	0.330421	1.003437
H163	H	0.696721	-0.297121	0.297764
H164	H	1.030055	0.036213	0.631097
H165	H	1.363388	0.369546	0.964431
H166	H	0.759154	-0.375446	0.292058
H167	H	1.092487	-0.042113	0.625391
H168	H	1.425820	0.291220	0.958724
H169	H	0.364768	-0.576729	0.576518
H170	H	0.698101	-0.243395	0.909851
H171	H	1.031434	0.089938	1.243185
N172	N	0.227144	-0.336292	0.336821
N173	N	0.560477	-0.002959	0.670154
N174	N	0.893811	0.330374	1.003487
H175	H	0.197800	-0.375444	0.292052
H176	H	0.531133	-0.042111	0.625386
H177	H	0.864467	0.291223	0.958719
H178	H	0.260296	-0.297170	0.297874
H179	H	0.593629	0.036163	0.631207
H180	H	0.926963	0.369497	0.964541
H181	H	0.720528	-0.576706	0.576473
H182	H	1.053861	-0.243373	0.909807
H183	H	1.387195	0.089960	1.243140
