data_functionalizedCrystal
_audit_creation_method	'MofGen! by Chris Wilmer'
_symmetry_space_group_name_H-M	'P1'
_symmetry_Int_Tables_number	1
_symmetry_cell_setting	triclinic
loop_
_symmetry_equiv_pos_as_xyz
  x,y,z
_cell_length_a	6.817900
_cell_length_b	19.453114
_cell_length_c	17.078472
_cell_angle_alpha	96.644908
_cell_angle_beta	99.306020
_cell_angle_gamma	101.709288
loop_
_atom_site_label
_atom_site_type_symbol
_atom_site_fract_x
_atom_site_fract_y
_atom_site_fract_z
V1	V	-3.985867	-0.218928	-0.110593
O2	O	-3.995588	-0.214833	0.004464
O3	O	-3.917053	-0.217361	-0.218470
O4	O	-3.929033	-0.314442	-0.109265
O5	O	-3.983525	-0.117080	-0.105497
V6	V	-4.473232	-0.206755	-0.096787
O7	O	-4.238695	-0.245631	-0.140878
O8	O	-4.670601	-0.180051	-0.066502
O9	O	-4.318839	-0.208322	0.011090
O10	O	-4.580908	-0.210849	-0.211844
O11	O	-4.592971	-0.308602	-0.101883
O12	O	-4.306859	-0.111241	-0.098115
C13	C	-3.757361	-0.213889	-0.244756
C14	C	-3.782329	-0.213244	-0.332949
C15	C	-3.975078	-0.216443	-0.378437
C16	C	-3.998528	-0.215841	-0.461304
C17	C	-3.829224	-0.212036	-0.498682
C18	C	-3.636460	-0.208840	-0.453189
C19	C	-3.613015	-0.209447	-0.370324
C20	C	-3.879933	-0.209851	-0.746077
C21	C	-3.903393	-0.209243	-0.828948
C22	C	-4.265461	-0.216245	-0.837058
C23	C	-4.241997	-0.216847	-0.754190
C24	C	-4.049238	-0.213654	-0.708705
N25	N	-3.853188	-0.211419	-0.583385
N26	N	-4.025279	-0.214277	-0.624005
C27	C	-3.772641	-0.337725	-0.105453
C28	C	-3.807322	-0.415807	-0.105081
C29	C	-4.004644	-0.456062	-0.108889
C30	C	-4.037230	-0.529429	-0.108539
C31	C	-3.872490	-0.562540	-0.104398
C32	C	-3.675139	-0.522276	-0.100586
C33	C	-3.642555	-0.448909	-0.100927
N34	N	-3.804818	-0.681303	-0.146296
N35	N	-3.835784	-0.750998	-0.145973
C36	C	-3.970651	-0.783589	-0.103367
N37	N	-4.073416	-0.743854	-0.061106
N38	N	-4.042454	-0.674152	-0.061432
C39	C	-3.907801	-0.642094	-0.104027
C40	C	-4.203319	-0.903397	-0.106794
C41	C	-4.235897	-0.976765	-0.106440
C42	C	-3.873802	-0.969611	-0.098494
C43	C	-3.841227	-0.896244	-0.098841
C44	C	-4.005994	-0.863142	-0.102995
C45	C	-4.141873	-0.211791	0.037372
C46	C	-4.096143	-0.212441	0.125565
C47	C	-4.126593	-0.087954	-0.101929
C48	C	-4.071151	-0.009871	-0.102297
H49	H	-4.422400	-0.218844	-0.874101
H50	H	-3.765522	-0.206161	-0.859381
F51	F	-4.180006	-0.420836	-0.113306
F52	F	-4.203677	-0.219244	-0.509712
F53	F	-4.247256	-0.572279	-0.112587
F54	F	-3.432531	-0.406066	-0.096877
F55	F	-4.422187	-0.220875	-0.714413
F56	F	-3.499809	-0.557516	-0.096176
F57	F	-3.674783	-0.206449	-0.697678
F58	F	-4.378673	-0.868164	-0.111210
F59	F	-3.456275	-0.204795	-0.492972
F60	F	-4.445922	-1.019607	-0.110490
F61	F	-3.407867	-0.206046	-0.321913
F62	F	-3.698464	-1.004844	-0.094075
H63	H	-3.680551	-0.863469	-0.095749
H64	H	-4.112946	-0.219534	-0.348009
