data_functionalizedCrystal
_audit_creation_method	'MofGen! by Chris Wilmer'
_symmetry_space_group_name_H-M	'P1'
_symmetry_Int_Tables_number	1
_symmetry_cell_setting	triclinic
loop_
_symmetry_equiv_pos_as_xyz
  x,y,z
_cell_length_a	13.897448
_cell_length_b	17.077404
_cell_length_c	17.077396
_cell_angle_alpha	89.982940
_cell_angle_beta	90.028971
_cell_angle_gamma	89.982083
loop_
_atom_site_label
_atom_site_type_symbol
_atom_site_fract_x
_atom_site_fract_y
_atom_site_fract_z
Zn1	Zn	-0.383994	-1.200064	0.443849
Zn2	Zn	-0.545311	-1.199989	0.312585
Zn3	Zn	-0.384032	-1.068801	0.312597
Zn4	Zn	-0.545249	-1.068776	0.443809
O5	O	-0.464647	-1.134407	0.378210
O6	O	-0.405403	-1.309901	0.426448
O7	O	-0.523959	-1.182566	0.202740
O8	O	-0.249045	-1.086256	0.330029
O9	O	-0.523922	-1.309846	0.330010
O10	O	-0.249017	-1.182694	0.426459
O11	O	-0.405468	-1.086183	0.202748
O12	O	-0.405408	-0.958951	0.329990
O13	O	-0.523816	-1.086212	0.553661
O14	O	-0.523854	-0.958932	0.426391
O15	O	-0.405343	-1.182669	0.553690
O16	O	-0.680284	-1.182541	0.329971
O17	O	-0.680239	-1.086139	0.426380
C18	C	-0.464629	-0.930460	0.378188
C19	C	-0.464645	-0.843210	0.378198
C20	C	-0.715261	-1.134350	0.378187
C21	C	-0.822475	-1.134397	0.378204
C22	C	-0.464568	-1.134446	0.582954
C23	C	-0.464535	-1.134463	0.670204
C24	C	-1.018770	-1.134480	0.378253
C25	C	-0.909537	-1.134432	0.378228
C26	C	-0.213054	-1.134486	0.378250
C27	C	-0.105840	-1.134520	0.378267
C28	C	-0.464665	-1.339152	0.378232
C29	C	-0.464673	-1.426401	0.378242
C30	C	-0.526412	-0.802230	0.428313
C31	C	-0.526415	-0.720250	0.428326
C32	C	-0.464653	-0.679250	0.378218
C33	C	-0.402879	-0.720236	0.328100
C34	C	-0.402873	-0.802215	0.328092
C35	C	-0.402898	-0.549366	0.328119
C36	C	-0.402905	-0.467381	0.328126
C37	C	-0.526440	-0.467401	0.428353
C38	C	-0.526433	-0.549380	0.428345
C39	C	-0.464660	-0.590359	0.378226
C40	C	-0.464655	-1.134414	0.174262
C41	C	-0.464416	-1.134550	0.087013
C42	C	-0.526121	-1.184721	1.046017
C43	C	-0.526149	-1.184701	0.964036
C44	C	-0.464467	-1.134513	0.923053
C45	C	-0.402760	-1.084337	0.964055
C46	C	-0.402737	-1.084353	1.046034
C47	C	-0.402809	-1.084307	0.793185
C48	C	-0.402831	-1.084292	0.711200
C49	C	-0.526221	-1.184655	0.711187
C50	C	-0.526199	-1.184671	0.793166
C51	C	-0.464490	-1.134496	0.834162
H52	H	-0.576709	-0.835606	0.469114
H53	H	-0.352587	-0.686847	0.287305
O54	O	-0.343027	-0.427504	0.279397
C55	C	-0.397839	-0.380021	0.228632
H56	H	-0.473794	-0.404713	0.223625
H57	H	-0.401229	-0.317910	0.252930
C58	C	-0.257243	-0.348371	0.153268
C59	C	-0.350529	-0.378702	0.147114
H60	H	-0.228059	-0.347554	0.102985
H61	H	-0.220314	-0.380359	0.187471
H62	H	-0.260081	-0.296615	0.173520
H63	H	-0.347690	-0.430460	0.126873
H64	H	-0.387457	-0.346723	0.112906
O65	O	-0.586293	-0.589293	0.477058
C66	C	-0.531443	-0.636728	0.527842
H67	H	-0.458301	-0.649009	0.500258
H68	H	-0.520936	-0.605159	0.586032
C69	C	-0.674360	-0.699512	0.575853
C70	C	-0.584528	-0.714602	0.541970
H71	H	-0.707106	-0.747547	0.584571
H72	H	-0.711314	-0.667553	0.541641
H73	H	-0.665591	-0.673203	0.624341
H74	H	-0.593298	-0.740902	0.493479
H75	H	-0.547576	-0.746568	0.576174
H76	H	-0.576735	-0.434031	0.469164
H77	H	-0.352560	-1.043449	0.826561
H78	H	-0.576421	-1.225542	0.826532
O79	O	-0.585950	-1.233477	0.924124
C80	C	-0.531048	-1.284193	0.876733
H81	H	-0.457950	-1.256526	0.864468
H82	H	-0.520444	-1.342376	0.908332
C83	C	-0.673921	-1.332352	0.813914
C84	C	-0.584144	-1.298368	0.798844
H85	H	-0.706675	-1.341099	0.765870
H86	H	-0.710911	-1.298186	0.845844
H87	H	-0.665073	-1.380834	0.840249
H88	H	-0.592994	-1.249882	0.772519
H89	H	-0.547157	-1.332526	0.766908
H90	H	-0.576713	-0.686888	0.469134
H91	H	-0.576345	-1.225593	1.079379
O92	O	-0.342867	-0.589053	0.279355
C93	C	-0.288344	-0.535289	0.235139
H94	H	-0.327850	-0.476840	0.232378
H95	H	-0.215124	-0.526602	0.263981
C96	C	-0.225809	-0.639037	0.154998
C97	C	-0.274334	-0.567251	0.151602
H98	H	-0.217162	-0.658754	0.103469
H99	H	-0.262539	-0.675260	0.184788
H100	H	-0.164797	-0.631788	0.179036
H101	H	-0.335349	-0.574503	0.127573
H102	H	-0.237614	-0.531030	0.121805
H103	H	-0.352542	-1.043470	0.930680
H104	H	-0.352601	-1.043427	0.677834
O105	O	-0.342705	-1.035593	1.085739
C106	C	-0.288283	-0.991279	1.031989
H107	H	-0.284961	-1.023421	0.973556
H108	H	-0.323603	-0.931649	1.023255
C109	C	-0.189695	-0.940525	1.135777
C110	C	-0.185607	-0.980007	1.064010
H111	H	-0.126360	-0.933568	1.155529
H112	H	-0.226362	-0.970378	1.171990
H113	H	-0.219132	-0.890838	1.128488
H114	H	-0.156181	-1.029696	1.071301
H115	H	-0.148933	-0.950162	1.027799
H116	H	-0.352570	-0.835579	0.287287
H117	H	-0.576467	-1.225510	0.677804
