data_functionalizedCrystal
_audit_creation_method	'MofGen! by Chris Wilmer'
_symmetry_space_group_name_H-M	'P1'
_symmetry_Int_Tables_number	1
_symmetry_cell_setting	triclinic
loop_
_symmetry_equiv_pos_as_xyz
  x,y,z
_cell_length_a	14.044191
_cell_length_b	10.489716
_cell_length_c	13.101039
_cell_angle_alpha	93.400284
_cell_angle_beta	86.337551
_cell_angle_gamma	88.860456
loop_
_atom_site_label
_atom_site_type_symbol
_atom_site_fract_x
_atom_site_fract_y
_atom_site_fract_z
O1	O	1.264956	0.301341	-0.085148
O2	O	1.764956	0.801341	0.414852
O3	O	0.988912	0.290226	-0.085161
O4	O	1.488912	0.790226	0.414839
O5	O	1.133228	0.110822	-0.085158
O6	O	1.633228	0.610822	0.414842
O7	O	1.120640	0.480745	-0.085151
O8	O	1.620640	0.980745	0.414849
O9	O	1.122873	0.123717	0.085272
O10	O	1.622873	0.623717	0.585272
O11	O	0.978558	0.303121	0.085268
O12	O	1.478558	0.803121	0.585268
O13	O	1.254602	0.314237	0.085282
O14	O	1.754602	0.814237	0.585282
Zn15	Zn	1.114936	0.310726	0.112335
Zn16	Zn	1.614936	0.810726	0.612335
Zn17	Zn	1.128578	0.293736	-0.112214
Zn18	Zn	1.628578	0.793736	0.387786
O19	O	1.110286	0.493641	0.085279
O20	O	1.610286	0.993641	0.585279
C21	C	0.948388	0.291811	0.000052
C22	C	1.448388	0.791811	0.500052
C23	C	0.843064	0.277307	0.000046
C24	C	1.343064	0.777307	0.500046
C25	C	0.593293	0.353654	0.000058
C26	C	1.093293	0.853654	0.500058
C27	C	0.650227	0.250813	0.000054
C28	C	1.150227	0.750813	0.500054
C29	C	0.757531	0.265558	0.000050
C30	C	1.257531	0.765558	0.500050
C31	C	0.485979	0.338911	0.000062
C32	C	0.985979	0.838911	0.500062
C33	C	1.127105	0.069641	0.000054
C34	C	1.627105	0.569641	0.500054
C35	C	1.124276	-0.072277	0.000044
C36	C	1.624276	0.427723	0.500044
C37	C	1.212774	-0.160971	0.000058
C38	C	1.712774	0.339029	0.500058
C39	C	1.171115	-0.249435	-0.083972
C40	C	1.671115	0.250565	0.416028
C41	C	1.160886	-0.236687	0.084058
C42	C	1.660886	0.263313	0.584058
C43	C	1.082658	-0.158877	-0.084055
C44	C	1.582658	0.341123	0.415945
C45	C	1.072437	-0.146117	0.084050
C46	C	1.572437	0.353883	0.584050
C47	C	1.030714	-0.234539	-0.000001
C48	C	1.530714	0.265461	0.499999
C49	C	1.295126	0.312651	0.000067
C50	C	1.795126	0.812651	0.500067
C51	C	1.400450	0.327154	0.000066
C52	C	1.900450	0.827154	0.500066
C53	C	1.116409	0.534821	0.000065
C54	C	1.616409	1.034821	0.500065
C55	C	1.119238	0.676739	0.000067
C56	C	1.619238	1.176739	0.500067
N57	N	1.105632	0.322322	0.265583
N58	N	1.605632	0.822322	0.765583
N59	N	1.137889	0.282132	-0.265462
N60	N	1.637889	0.782132	0.234538
C61	C	1.092974	0.338109	0.474625
C62	C	1.592974	0.838109	0.974625
C63	C	1.150544	0.266348	0.525502
C64	C	1.650544	0.766348	1.025502
C65	C	1.143501	0.275132	0.641820
C66	C	1.643501	0.775132	1.141820
C67	C	1.100016	0.329326	0.358296
C68	C	1.600016	0.829326	0.858296
H69	H	0.625137	0.452765	0.000056
H70	H	1.125137	0.952765	0.500056
H71	H	1.038403	0.406139	0.518421
H72	H	1.538403	0.906139	1.018421
H73	H	0.618386	0.151689	-0.000020
H74	H	1.118386	0.651689	0.499980
O75	O	1.314739	-0.117916	-0.000047
O76	O	1.814739	0.382084	0.499953
H77	H	1.355508	-0.159554	-0.069908
H78	H	1.855508	0.340446	0.430092
O79	O	1.226312	-0.309178	-0.178063
O80	O	1.726312	0.190822	0.321937
H81	H	1.301812	-0.279882	-0.177887
H82	H	1.801812	0.220118	0.322113
H83	H	1.049640	-0.124743	-0.155175
H84	H	1.549640	0.375257	0.344825
H85	H	0.953680	-0.266790	-0.000050
H86	H	1.453680	0.233210	0.499950
H87	H	1.193947	-0.270992	0.155097
H88	H	1.693947	0.229008	0.655097
O89	O	1.017279	-0.086346	0.178148
O90	O	1.517279	0.413654	0.678148
H91	H	1.049950	-0.117360	0.247807
H92	H	1.549950	0.382640	0.747807
H93	H	1.205120	0.198315	0.481701
H94	H	1.705120	0.698315	0.981701
