data_functionalizedCrystal
_audit_creation_method	'MofGen! by Chris Wilmer'
_symmetry_space_group_name_H-M	'P1'
_symmetry_Int_Tables_number	1
_symmetry_cell_setting	triclinic
loop_
_symmetry_equiv_pos_as_xyz
  x,y,z
_cell_length_a	19.188940
_cell_length_b	19.188905
_cell_length_c	17.666332
_cell_angle_alpha	90.006311
_cell_angle_beta	90.008179
_cell_angle_gamma	83.141635
loop_
_atom_site_label
_atom_site_type_symbol
_atom_site_fract_x
_atom_site_fract_y
_atom_site_fract_z
O1	O	0.087088	0.926153	0.063074
O2	O	0.098840	0.722840	0.063048
O3	O	-0.008692	0.830360	0.063056
O4	O	0.194620	0.818633	0.063066
O5	O	-0.008702	0.830363	-0.062841
O6	O	0.098829	0.722842	-0.062849
O7	O	0.087077	0.926156	-0.062823
Cu8	Cu	0.092952	0.824499	-0.074331
Cu9	Cu	0.092965	0.824496	0.074556
O10	O	0.194609	0.818635	-0.062831
C11	C	0.098457	0.696830	0.000096
C12	C	0.097323	0.619324	0.000086
C13	C	0.096785	0.582931	0.068715
C14	C	0.095712	0.510107	0.068724
C15	C	0.095163	0.473681	0.000101
C16	C	0.095706	0.510083	-0.068536
C17	C	0.096786	0.582904	-0.068544
N18	N	0.053731	0.364661	-0.050970
N19	N	0.052703	0.295484	-0.050959
C20	C	0.091911	0.254275	0.000119
N21	N	0.132176	0.284857	0.051196
N22	N	0.133200	0.354041	0.051187
C23	C	0.093993	0.394719	0.000101
C24	C	0.090210	0.138918	0.068762
C25	C	0.089141	0.066092	0.068769
C26	C	0.089128	0.066070	-0.068493
C27	C	0.090204	0.138893	-0.068498
C28	C	0.090741	0.175313	0.000132
C29	C	-0.034708	0.829980	0.000108
C30	C	-0.112212	0.828837	0.000108
C31	C	-0.665476	0.820704	-0.068502
C32	C	-0.592652	0.821770	-0.068506
C33	C	-0.556227	0.822306	0.000120
C34	C	-0.592629	0.821756	0.068754
C35	C	-0.665451	0.820683	0.068757
N36	N	-0.447202	0.863721	0.051204
N37	N	-0.378024	0.864743	0.051198
C38	C	-0.336818	0.825539	0.000118
N39	N	-0.367403	0.785285	-0.050967
N40	N	-0.436588	0.784266	-0.050963
C41	C	-0.477263	0.823470	0.000125
C42	C	-0.221459	0.827240	-0.068517
C43	C	-0.148633	0.828303	-0.068518
C44	C	-0.148612	0.828296	0.068744
C45	C	-0.221436	0.827226	0.068743
C46	C	-0.257856	0.826702	0.000110
C47	C	0.220625	0.819015	0.000119
C48	C	0.298129	0.820158	0.000124
N49	N	0.092943	0.824506	-0.179051
C50	C	0.087460	0.952166	0.000130
C51	C	0.088594	1.029671	0.000145
N52	N	0.092969	0.824495	0.179276
C53	C	0.045446	0.872189	0.218889
C54	C	0.045445	0.872196	0.298137
C55	C	0.092960	0.824495	0.337768
C56	C	0.140491	0.776797	0.298145
C57	C	0.140496	0.776797	0.218899
N58	N	0.101892	0.762688	0.462186
N59	N	0.101883	0.762690	0.537466
C60	C	0.092950	0.824494	0.576532
N61	N	0.084012	0.886297	0.537473
N62	N	0.084017	0.886294	0.462186
C63	C	0.092960	0.824490	0.423697
C64	C	0.045423	0.872199	0.702074
C65	C	0.045427	0.872206	0.781323
C66	C	0.140470	0.776801	0.781330
C67	C	0.140469	0.776800	0.702083
C68	C	0.092943	0.824499	0.662460
H69	H	0.095261	0.480420	-0.124409
H70	H	0.088686	0.036412	-0.124367
C71	C	0.097367	0.622940	-0.144038
H72	H	0.096882	0.590819	-0.184908
H73	H	0.138491	0.645898	-0.146896
H74	H	0.057073	0.656797	-0.146890
H75	H	0.090654	0.168571	0.124645
C76	C	0.088545	0.026060	0.144264
H77	H	0.089012	0.058184	0.185133
H78	H	0.128829	-0.007802	0.147130
H79	H	0.047412	0.003109	0.147110
H80	H	0.179195	0.737957	0.186645
C81	C	-0.108554	0.828888	0.144231
H82	H	-0.059971	0.829611	0.134402
H83	H	-0.115032	0.788007	0.172427
H84	H	-0.125937	0.869425	0.172431
C85	C	0.095126	0.470066	0.144218
H86	H	0.095600	0.502186	0.185089
H87	H	0.135412	0.436205	0.147072
H88	H	0.053994	0.447113	0.147071
C89	C	-0.006849	0.924667	0.658486
H90	H	-0.035146	0.953081	0.693431
H91	H	-0.035902	0.899701	0.627565
H92	H	0.018258	0.953601	0.627579
C93	C	-0.006851	0.924673	0.824898
H94	H	-0.035158	0.953073	0.789947
H95	H	0.018246	0.953609	0.855821
H96	H	-0.035905	0.899700	0.855803
C97	C	0.192757	0.724327	0.341732
H98	H	0.221066	0.695924	0.306787
H99	H	0.167655	0.695394	0.372637
H100	H	0.221811	0.749298	0.372655
H101	H	-0.695125	0.820276	-0.124388
H102	H	0.090638	0.168525	-0.124382
C103	C	-0.552610	0.822375	-0.143997
H104	H	-0.584731	0.821912	-0.184870
H105	H	-0.518749	0.782089	-0.146861
H106	H	-0.529658	0.863507	-0.146835
C107	C	-0.552565	0.822349	0.144240
H108	H	-0.503983	0.823075	0.134411
H109	H	-0.559041	0.781466	0.172434
H110	H	-0.569950	0.862884	0.172443
H111	H	0.179160	0.737966	0.813598
C112	C	0.192740	0.724331	0.658506
H113	H	0.221035	0.695919	0.693457
H114	H	0.221795	0.749296	0.627601
H115	H	0.167635	0.695396	0.627584
H116	H	-0.695083	0.820238	0.124642
H117	H	-0.251112	0.826808	-0.124402
C118	C	-0.261476	0.826635	0.144230
H119	H	-0.310062	0.825914	0.134403
H120	H	-0.254989	0.867515	0.172436
H121	H	-0.244085	0.786098	0.172420
H122	H	-0.119001	0.828745	-0.124404
C123	C	-0.006826	0.924657	0.175304
H124	H	-0.000023	0.917824	0.122433
H125	H	0.000722	0.971205	0.188300
H126	H	-0.053432	0.917299	0.188281
C127	C	0.097392	0.622990	0.144202
H128	H	0.098110	0.671574	0.134371
H129	H	0.137924	0.605601	0.172399
H130	H	0.056507	0.616520	0.172403
C131	C	-0.006836	0.924657	0.341720
H132	H	-0.035143	0.953061	0.306772
H133	H	0.018259	0.953591	0.372647
H134	H	-0.035890	0.899680	0.372621
