data_functionalizedCrystal
_audit_creation_method	'MofGen! by Chris Wilmer'
_symmetry_space_group_name_H-M	'P1'
_symmetry_Int_Tables_number	1
_symmetry_cell_setting	triclinic
loop_
_symmetry_equiv_pos_as_xyz
  x,y,z
_cell_length_a	14.971486
_cell_length_b	14.853569
_cell_length_c	13.448316
_cell_angle_alpha	89.992228
_cell_angle_beta	89.998199
_cell_angle_gamma	83.624847
loop_
_atom_site_label
_atom_site_type_symbol
_atom_site_fract_x
_atom_site_fract_y
_atom_site_fract_z
O1	O	1.186969	0.117488	-0.082580
O2	O	0.926572	0.131557	-0.082608
O3	O	1.063725	-0.006709	-0.082584
O4	O	1.049816	0.255753	-0.082604
O5	O	1.063708	-0.006717	0.082800
O6	O	0.926555	0.131548	0.082776
O7	O	1.186952	0.117479	0.082804
Cu8	Cu	1.056752	0.124513	0.097891
Cu9	Cu	1.056772	0.124523	-0.097695
O10	O	1.049798	0.255745	0.082780
C11	C	0.893238	0.130924	0.000081
C12	C	0.793941	0.129038	0.000071
C13	C	0.736731	0.210265	0.000066
C14	C	0.643431	0.208488	0.000081
C15	C	0.607343	0.125483	0.000094
C16	C	0.664561	0.044249	0.000102
C17	C	0.757859	0.046027	0.000094
C18	C	0.470097	0.040549	0.000116
C19	C	0.376793	0.038771	0.000122
C20	C	0.355670	0.203010	0.000103
C21	C	0.448968	0.204788	0.000095
C22	C	0.506179	0.123554	0.000101
C23	C	1.063086	-0.040301	0.000109
C24	C	1.061197	-0.140385	0.000109
C25	C	0.978838	-0.176746	0.000102
C26	C	1.141781	-0.198066	0.000109
C27	C	1.140008	-0.292099	0.000104
C28	C	1.057649	-0.328461	0.000097
C29	C	0.977063	-0.270788	0.000095
C30	C	1.220593	-0.349779	0.000097
C31	C	1.218824	-0.443819	0.000091
C32	C	1.136464	-0.480182	0.000091
C33	C	1.055874	-0.422503	0.000090
C34	C	0.973516	-0.458864	0.000083
C35	C	0.892925	-0.401187	0.000089
C36	C	0.894703	-0.307151	0.000095
C37	C	1.134686	-0.574218	0.000085
C38	C	0.971741	-0.552907	0.000076
C39	C	1.220286	0.118113	0.000113
C40	C	1.319583	0.119998	0.000117
C41	C	1.050438	0.289338	0.000085
C42	C	1.052327	0.389421	0.000078
N43	N	1.056744	0.124505	0.235455
N44	N	1.056787	0.124524	-0.235259
C45	C	1.117494	0.063307	0.287506
C46	C	1.117500	0.063306	0.391609
C47	C	1.056759	0.124509	0.443660
C48	C	0.996002	0.185711	0.391601
C49	C	0.995992	0.185706	0.287500
C50	C	0.996026	0.185717	0.608582
C51	C	0.996037	0.185722	0.712690
C52	C	1.117534	0.063316	0.712691
C53	C	1.117525	0.063312	0.608589
C54	C	1.056769	0.124515	0.556538
H55	H	0.635171	-0.023335	0.000126
H56	H	0.766106	0.277858	0.000055
H57	H	0.825869	-0.430805	0.000077
C58	C	0.580495	0.297837	0.000069
C59	C	0.513456	0.319201	0.085953
C60	C	0.450518	0.408554	0.085943
C61	C	0.454620	0.476541	0.000048
C62	C	0.521663	0.455179	-0.085842
C63	C	0.584600	0.365827	-0.085832
H64	H	0.510417	0.268871	0.149543
H65	H	0.400889	0.424367	0.149525
H66	H	0.408030	0.542685	0.000040
H67	H	0.524702	0.505509	-0.149432
H68	H	0.634230	0.350014	-0.149414
H69	H	0.804439	-0.020116	0.000097
H70	H	0.946574	0.235559	0.755064
H71	H	0.904673	-0.582504	0.000079
C72	C	0.929167	0.253028	0.230241
C73	C	0.862384	0.320383	0.287491
C74	C	0.795553	0.387703	0.230233
C75	C	0.795505	0.387670	0.115726
C76	C	0.862292	0.320313	0.058469
C77	C	0.929122	0.252992	0.115727
H78	H	0.862416	0.320410	0.372262
H79	H	0.746113	0.437565	0.272619
H80	H	0.746033	0.437505	0.073340
H81	H	0.862259	0.320286	-0.026301
H82	H	0.978562	0.203130	0.073342
C83	C	0.533033	-0.048807	0.000120
C84	C	0.528927	-0.116807	0.086003
C85	C	0.591864	-0.206159	0.086002
C86	C	0.658906	-0.227512	0.000119
C87	C	0.663015	-0.159511	-0.085770
C88	C	0.600079	-0.070158	-0.085769
H89	H	0.479296	-0.101001	0.149585
H90	H	0.588821	-0.256498	0.149583
H91	H	0.705496	-0.293657	0.000118
H92	H	0.712647	-0.175316	-0.149352
H93	H	0.603121	-0.019819	-0.149351
C94	C	1.311180	-0.309776	0.000103
C95	C	1.334797	-0.248077	0.085993
C96	C	1.425386	-0.208068	0.086001
C97	C	1.492358	-0.229757	0.000119
C98	C	1.468743	-0.291460	-0.085777
C99	C	1.378153	-0.331469	-0.085786
H100	H	1.285218	-0.232018	0.149574
H101	H	1.442867	-0.162391	0.149588
H102	H	1.559418	-0.200140	0.000125
H103	H	1.518321	-0.307519	-0.149358
H104	H	1.360672	-0.377146	-0.149372
H105	H	1.167003	0.013483	0.755077
H106	H	0.478347	0.272378	0.000075
H107	H	0.829091	-0.260183	0.000097
H108	H	0.309084	0.269154	0.000102
H109	H	1.166989	0.013480	0.566210
H110	H	0.347414	-0.028819	0.000133
H111	H	1.284446	-0.490772	0.000088
H112	H	0.913223	-0.129782	0.000111
H113	H	1.208833	-0.168454	0.000134
H114	H	1.200301	-0.621174	0.000071
H115	H	1.166961	0.013472	0.245133
H116	H	1.166967	0.013473	0.433989
H117	H	0.946549	0.235552	0.566205
H118	H	0.946540	0.235540	0.433987
