data_functionalizedCrystal
_audit_creation_method	'MofGen! by Chris Wilmer'
_symmetry_space_group_name_H-M	'P1'
_symmetry_Int_Tables_number	1
_symmetry_cell_setting	triclinic
loop_
_symmetry_equiv_pos_as_xyz
  x,y,z
_cell_length_a	21.295419
_cell_length_b	25.639239
_cell_length_c	21.295412
_cell_angle_alpha	89.970930
_cell_angle_beta	89.983579
_cell_angle_gamma	90.053487
loop_
_atom_site_label
_atom_site_type_symbol
_atom_site_fract_x
_atom_site_fract_y
_atom_site_fract_z
Zn1	Zn	0.962269	-0.207955	-0.355920
Zn2	Zn	1.462269	0.292045	0.144080
Zn3	Zn	0.962172	-0.295389	-0.250650
Zn4	Zn	1.462172	0.204611	0.249350
Zn5	Zn	0.857007	-0.207992	-0.250665
Zn6	Zn	1.357007	0.292008	0.249335
Zn7	Zn	0.856947	-0.295384	-0.355881
Zn8	Zn	1.356947	0.204616	0.144119
O9	O	0.909599	-0.251680	-0.303279
O10	O	1.409599	0.248320	0.196721
O11	O	1.050346	-0.219540	-0.341966
O12	O	1.550346	0.280460	0.158034
O13	O	0.948206	-0.283814	-0.162562
O14	O	1.448206	0.216186	0.337438
O15	O	0.871037	-0.134822	-0.264651
O16	O	1.371037	0.365178	0.235349
O17	O	1.050274	-0.283778	-0.264624
O18	O	1.550274	0.216222	0.235376
O19	O	0.948372	-0.134794	-0.341981
O20	O	1.448372	0.365206	0.158019
O21	O	0.870942	-0.219604	-0.162574
O22	O	1.370942	0.280396	0.337426
O23	O	0.768910	-0.219598	-0.264613
O24	O	1.268910	0.280402	0.235387
O25	O	0.870934	-0.283768	-0.443976
O26	O	1.370934	0.216232	0.056024
O27	O	0.768866	-0.283804	-0.341915
O28	O	1.268866	0.216196	0.158085
O29	O	0.948314	-0.219534	-0.444005
O30	O	1.448314	0.280466	0.055995
O31	O	0.948147	-0.368554	-0.264586
O32	O	1.448147	0.131446	0.235414
O33	O	0.870839	-0.368550	-0.341899
O34	O	1.370839	0.131450	0.158101
C35	C	0.746047	-0.251705	-0.303262
C36	C	1.246047	0.248295	0.196738
C37	C	0.676079	-0.251728	-0.303269
C38	C	1.176079	0.248272	0.196731
C39	C	0.643272	-0.218334	-0.343603
C40	C	1.143272	0.281666	0.156397
C41	C	0.577530	-0.218320	-0.343606
C42	C	1.077530	0.281680	0.156394
C43	C	0.544597	-0.251710	-0.303280
C44	C	1.044597	0.248290	0.196720
C45	C	0.577411	-0.285106	-0.262938
C46	C	1.077411	0.214894	0.237062
C47	C	0.643153	-0.285115	-0.262933
C48	C	1.143153	0.214885	0.237067
N49	N	0.441314	-0.297456	-0.298363
N50	N	0.941314	0.202544	0.201637
N51	N	0.378863	-0.297446	-0.298372
N52	N	0.878863	0.202554	0.201628
C53	C	0.346522	-0.251683	-0.303294
C54	C	0.846522	0.248317	0.196706
N55	N	0.378992	-0.205929	-0.308220
N56	N	0.878992	0.294071	0.191780
N57	N	0.441449	-0.205940	-0.308214
N58	N	0.941449	0.294060	0.191786
C59	C	0.473311	-0.251703	-0.303282
C60	C	0.973311	0.248297	0.196718
C61	C	0.242430	-0.218271	-0.343633
C62	C	0.742430	0.281729	0.156367
C63	C	0.176686	-0.218256	-0.343631
C64	C	0.676686	0.281744	0.156369
C65	C	0.176569	-0.285046	-0.262967
C66	C	0.676569	0.214954	0.237033
C67	C	0.242311	-0.285056	-0.262966
C68	C	0.742311	0.214944	0.237034
C69	C	0.275238	-0.251669	-0.303302
C70	C	0.775238	0.248331	0.196698
C71	C	0.909493	-0.387523	-0.303250
C72	C	1.409493	0.112477	0.196750
C73	C	0.909505	-0.445637	-0.303259
C74	C	1.409505	0.054363	0.196741
C75	C	0.949958	-0.805989	-0.263091
C76	C	1.449958	-0.305989	0.236909
C77	C	0.949983	-0.860593	-0.263099
C78	C	1.449983	-0.360593	0.236901
O79	O	0.984267	-0.888821	-0.228915
O80	O	1.484267	-0.388821	0.271085
N81	N	0.909710	-0.887919	-0.303321
N82	N	1.409710	-0.387919	0.196679
C83	C	0.869414	-0.860637	-0.343541
C84	C	1.369414	-0.360637	0.156459
O85	O	0.835161	-0.888894	-0.377754
O86	O	1.335161	-0.388894	0.122246
C87	C	0.869393	-0.806034	-0.343536
C88	C	1.369393	-0.306034	0.156464
C89	C	0.909664	-0.778711	-0.303307
C90	C	1.409664	-0.278711	0.196693
C91	C	0.990227	-0.778666	-0.222866
C92	C	1.490227	-0.278666	0.277134
C93	C	0.990201	-0.724066	-0.222857
C94	C	1.490201	-0.224066	0.277143
C95	C	0.949907	-0.696788	-0.263073
C96	C	1.449907	-0.196788	0.236927
C97	C	0.909639	-0.724111	-0.303298
C98	C	1.409639	-0.224111	0.196702
C99	C	0.829101	-0.778753	-0.383759
C100	C	1.329101	-0.278753	0.116241
C101	C	0.829084	-0.724146	-0.383750
C102	C	1.329084	-0.224146	0.116250
C103	C	0.869355	-0.696824	-0.343521
C104	C	1.369355	-0.196824	0.156479
C105	C	0.869320	-0.642232	-0.343505
C106	C	1.369320	-0.142232	0.156495
N107	N	0.909593	-0.614907	-0.303283
N108	N	1.409593	-0.114907	0.196717
C109	C	0.949887	-0.642185	-0.263067
C110	C	1.449887	-0.142185	0.236933
C111	C	0.869461	-0.975308	-0.343551
C112	C	1.369461	-0.475308	0.156449
C113	C	0.869478	-1.029910	-0.343554
C114	C	1.369478	-0.529910	0.156446
C115	C	0.950048	-1.029863	-0.263113
C116	C	1.450048	-0.529863	0.236887
C117	C	0.950027	-0.975259	-0.263107
C118	C	1.450027	-0.475259	0.236893
C119	C	0.909734	-0.947982	-0.303329
C120	C	1.409734	-0.447982	0.196671
C121	C	0.949830	-0.527520	-0.263050
C122	C	1.449830	-0.027520	0.236950
C123	C	0.949799	-0.472914	-0.263043
C124	C	1.449799	0.027086	0.236957
C125	C	0.869232	-0.472967	-0.343487
C126	C	1.369232	0.027033	0.156513
C127	C	0.869260	-0.527567	-0.343492
C128	C	1.369260	-0.027567	0.156508
C129	C	0.909564	-0.554842	-0.303272
C130	C	1.409564	-0.054842	0.196728
O131	O	0.835054	-0.613970	-0.377673
O132	O	1.335054	-0.113970	0.122327
O133	O	0.984140	-0.613922	-0.228866
O134	O	1.484140	-0.113922	0.271134
C135	C	1.073789	-0.251655	-0.303297
C136	C	1.573789	0.248345	0.196703
C137	C	1.143757	-0.251645	-0.303305
C138	C	1.643757	0.248355	0.196695
C139	C	0.909628	-0.251646	-0.467470
C140	C	1.409628	0.248354	0.032530
C141	C	0.909640	-0.251632	-0.537438
C142	C	1.409640	0.248368	-0.037438
C143	C	0.909722	-0.115307	-0.303322
C144	C	1.409722	0.384693	0.196678
C145	C	0.909775	-0.057193	-0.303340
C146	C	1.409775	0.442807	0.196660
C147	C	0.949992	-0.218103	-1.036912
C148	C	1.449992	0.281897	-0.536912
C149	C	0.949987	-0.218115	-0.971169
C150	C	1.449987	0.281885	-0.471169
C151	C	0.909695	-0.251563	-0.938277
C152	C	1.409695	0.248437	-0.438277
C153	C	0.869416	-0.285010	-0.971133
C154	C	1.369416	0.214990	-0.471133
C155	C	0.869427	-0.285000	-1.036875
C156	C	1.369427	0.215000	-0.536875
N157	N	0.854573	-0.255598	-0.835049
N158	N	1.354573	0.244402	-0.335049
N159	N	0.854565	-0.255604	-0.772597
N160	N	1.354565	0.244396	-0.272597
C161	C	0.909662	-0.251595	-0.740203
C162	C	1.409662	0.248405	-0.240203
N163	N	0.964769	-0.247570	-0.772618
N164	N	1.464769	0.252430	-0.272618
N165	N	0.964776	-0.247561	-0.835076
N166	N	1.464776	0.252439	-0.335076
C167	C	0.909679	-0.251577	-0.866992
C168	C	1.409679	0.248423	-0.366992
C169	C	0.949936	-0.218167	-0.636069
C170	C	1.449936	0.281833	-0.136069
C171	C	0.949932	-0.218183	-0.570325
C172	C	1.449932	0.281817	-0.070325
C173	C	0.869356	-0.285075	-0.570290
C174	C	1.369356	0.214925	-0.070290
C175	C	0.869365	-0.285061	-0.636033
C176	C	1.369365	0.214939	-0.136033
C177	C	0.909654	-0.251605	-0.668918
C178	C	1.409654	0.248395	-0.168918
C179	C	0.909606	-0.251676	-0.139728
C180	C	1.409606	0.248324	0.360272
C181	C	0.909716	-0.251543	-0.069760
C182	C	1.409716	0.248457	0.430240
H183	H	0.149976	-0.191059	-0.376475
H184	H	0.649976	0.308941	0.123525
C185	C	0.994291	-0.181326	-0.935027
C186	C	1.494291	0.318674	-0.435027
C187	C	1.043688	-0.203975	-0.889828
C188	C	1.543688	0.296025	-0.389828
C189	C	1.087992	-0.167186	-0.853689
C190	C	1.587992	0.332814	-0.353689
C191	C	1.082899	-0.107749	-0.862750
C192	C	1.582899	0.392251	-0.362750
C193	C	1.033500	-0.085097	-0.907951
C194	C	1.533500	0.414903	-0.407951
C195	C	0.989196	-0.121886	-0.944090
C196	C	1.489196	0.378114	-0.444090
H197	H	1.047460	-0.247977	-0.883119
H198	H	1.547460	0.252023	-0.383119
H199	H	1.124560	-0.183955	-0.820228
H200	H	1.624560	0.316045	-0.320228
H201	H	1.115695	-0.080515	-0.835997
H202	H	1.615695	0.419485	-0.335997
H203	H	1.029728	-0.041095	-0.914660
H204	H	1.529728	0.458905	-0.414660
H205	H	0.952628	-0.105117	-0.977551
H206	H	1.452628	0.394883	-0.477551
C207	C	0.825174	-1.059961	-0.387802
C208	C	1.325174	-0.559961	0.112198
C209	C	0.780854	-1.029949	-0.432036
C210	C	1.280854	-0.529949	0.067964
C211	C	0.736552	-1.059998	-0.476288
C212	C	1.236552	-0.559998	0.023712
C213	C	0.736569	-1.120059	-0.476306
C214	C	1.236569	-0.620059	0.023694
C215	C	0.780891	-1.150075	-0.432070
C216	C	1.280891	-0.650075	0.067930
C217	C	0.825194	-1.120026	-0.387818
C218	C	1.325194	-0.620026	0.112182
H219	H	0.780840	-0.985485	-0.432024
H220	H	1.280840	-0.485485	0.067976
H221	H	0.703742	-1.037778	-0.509035
H222	H	1.203742	-0.537778	-0.009035
H223	H	0.703774	-1.142303	-0.509064
H224	H	1.203774	-0.642303	-0.009064
H225	H	0.780906	-1.194539	-0.432082
H226	H	1.280906	-0.694539	0.067918
H227	H	0.858004	-1.142246	-0.355072
H228	H	1.358004	-0.642246	0.144928
C229	C	0.825034	-0.321866	-0.534113
C230	C	1.325034	0.178134	-0.034113
C231	C	0.830118	-0.381302	-0.543123
C232	C	1.330118	0.118698	-0.043123
C233	C	0.785797	-0.418094	-0.506939
C234	C	1.285797	0.081906	-0.006939
C235	C	0.736392	-0.395449	-0.461745
C236	C	1.236392	0.104551	0.038255
C237	C	0.731305	-0.336010	-0.452733
C238	C	1.231305	0.163990	0.047267
C239	C	0.775626	-0.299218	-0.488917
C240	C	1.275626	0.200782	0.011083
H241	H	0.866693	-0.398067	-0.576580
H242	H	1.366693	0.101933	-0.076580
H243	H	0.789563	-0.462094	-0.513611
H244	H	1.289563	0.037906	-0.013611
H245	H	0.703583	-0.422685	-0.434960
H246	H	1.203583	0.077315	0.065040
H247	H	0.694731	-0.319245	-0.419276
H248	H	1.194731	0.180755	0.080724
H249	H	0.771861	-0.255218	-0.482245
H250	H	1.271861	0.244782	0.017755
H251	H	0.836628	-0.312232	-1.063619
H252	H	1.336628	0.187768	-0.563619
H253	H	1.023042	-0.800870	-0.190117
H254	H	1.523042	-0.300870	0.309883
H255	H	0.836611	-0.312244	-0.944349
H256	H	1.336611	0.187756	-0.444349
C257	C	0.994260	-0.181373	-0.672248
C258	C	1.494260	0.318627	-0.172248
C259	C	1.038574	-0.144595	-0.636112
C260	C	1.538574	0.355405	-0.136112
C261	C	1.082899	-0.107802	-0.672289
C262	C	1.582899	0.392198	-0.172289
C263	C	1.082911	-0.107787	-0.744602
C264	C	1.582911	0.392213	-0.244602
C265	C	1.038595	-0.144567	-0.780742
C266	C	1.538595	0.355433	-0.280742
C267	C	0.994270	-0.181360	-0.744565
C268	C	1.494270	0.318640	-0.244565
H269	H	1.038567	-0.144605	-0.582578
H270	H	1.538567	0.355395	-0.082578
H271	H	1.115705	-0.080576	-0.645535
H272	H	1.615705	0.419424	-0.145535
H273	H	1.115723	-0.080551	-0.771382
H274	H	1.615723	0.419449	-0.271382
H275	H	1.038602	-0.144557	-0.834276
H276	H	1.538602	0.355443	-0.334276
H277	H	0.961464	-0.208586	-0.771318
H278	H	1.461464	0.291414	-0.271318
C279	C	0.140352	-0.321774	-0.218607
C280	C	0.640352	0.178226	0.281393
C281	C	0.095170	-0.299058	-0.169238
C282	C	0.595170	0.200942	0.330762
C283	C	0.058950	-0.335786	-0.124873
C284	C	0.558950	0.164214	0.375127
C285	C	0.067912	-0.395230	-0.129877
C286	C	0.567912	0.104770	0.370123
C287	C	0.113096	-0.417950	-0.179248
C288	C	0.613096	0.082050	0.320752
C289	C	0.149316	-0.381222	-0.223613
C290	C	0.649316	0.118778	0.276387
H291	H	0.088534	-0.255051	-0.165531
H292	H	0.588534	0.244949	0.334469
H293	H	0.025502	-0.318967	-0.088325
H294	H	0.525502	0.181033	0.411675
H295	H	0.041100	-0.422419	-0.097035
H296	H	0.541100	0.077581	0.402965
H297	H	0.119732	-0.461957	-0.182954
H298	H	0.619732	0.038043	0.317046
H299	H	0.182764	-0.398041	-0.260161
H300	H	0.682764	0.101959	0.239839
C301	C	0.541432	-0.181588	-0.387979
C302	C	1.041432	0.318412	0.112021
C303	C	0.577649	-0.144865	-0.432347
C304	C	1.077649	0.355135	0.067653
C305	C	0.541554	-0.108134	-0.476721
C306	C	1.041554	0.391866	0.023279
C307	C	0.469241	-0.108126	-0.476728
C308	C	0.969241	0.391874	0.023272
C309	C	0.433020	-0.144850	-0.432359
C310	C	0.933020	0.355150	0.067641
C311	C	0.469115	-0.181581	-0.387984
C312	C	0.969115	0.318419	0.112016
H313	H	0.631183	-0.144869	-0.432343
H314	H	1.131183	0.355131	0.067657
H315	H	0.568367	-0.080948	-0.509566
H316	H	1.068367	0.419052	-0.009566
H317	H	0.442521	-0.080935	-0.509577
H318	H	0.942521	0.419065	-0.009577
H319	H	0.379486	-0.144846	-0.432363
H320	H	0.879486	0.355154	0.067637
H321	H	0.442301	-0.208767	-0.355139
H322	H	0.942301	0.291233	0.144861
C323	C	0.994160	-0.557517	-0.218805
C324	C	1.494160	-0.057517	0.281195
C325	C	0.966932	-0.595109	-0.169361
C326	C	1.466932	-0.095109	0.330639
C327	C	1.011258	-0.625107	-0.125113
C328	C	1.511258	-0.125107	0.374887
C329	C	1.082813	-0.617513	-0.130309
C330	C	1.582813	-0.117513	0.369691
C331	C	1.110045	-0.579920	-0.179755
C332	C	1.610045	-0.079920	0.320245
C333	C	1.065719	-0.549922	-0.224003
C334	C	1.565719	-0.049922	0.275997
H335	H	0.913960	-0.600732	-0.165514
H336	H	1.413960	-0.100732	0.334486
H337	H	0.991099	-0.652936	-0.088510
H338	H	1.491099	-0.152936	0.411490
H339	H	1.115625	-0.639719	-0.097554
H340	H	1.615625	-0.139719	0.402446
H341	H	1.163017	-0.574297	-0.183602
H342	H	1.663017	-0.074297	0.316398
H343	H	1.085878	-0.522093	-0.260606
H344	H	1.585878	-0.022093	0.239394
H345	H	0.836470	-0.549815	-0.376252
H346	H	1.336470	-0.049815	0.123748
C347	C	0.994240	-0.181396	-0.534191
C348	C	1.494240	0.318604	-0.034191
C349	C	0.989147	-0.121958	-0.543249
C350	C	1.489147	0.378042	-0.043249
C351	C	1.033455	-0.085170	-0.507115
C352	C	1.533455	0.414830	-0.007115
C353	C	1.082857	-0.107820	-0.461922
C354	C	1.582857	0.392180	0.038078
C355	C	1.087952	-0.167261	-0.452861
C356	C	1.587952	0.332739	0.047139
C357	C	1.043643	-0.204049	-0.488995
C358	C	1.543643	0.295951	0.011005
H359	H	0.952575	-0.105189	-0.576706
H360	H	1.452575	0.394811	-0.076706
H361	H	1.029683	-0.041168	-0.513823
H362	H	1.529683	0.458832	-0.013823
H363	H	1.115657	-0.080588	-0.435173
H364	H	1.615657	0.419412	0.064827
H365	H	1.124524	-0.184031	-0.419404
H366	H	1.624524	0.315969	0.080596
H367	H	1.047415	-0.248051	-0.482288
H368	H	1.547415	0.251949	0.017712
H369	H	0.269023	-0.312251	-0.230124
H370	H	0.769023	0.187749	0.269876
H371	H	0.836565	-0.312290	-0.662778
H372	H	1.336565	0.187710	-0.162778
C373	C	0.994331	-0.945207	-0.218859
C374	C	1.494331	-0.445207	0.281141
C375	C	1.043725	-0.907607	-0.246176
C376	C	1.543725	-0.407607	0.253824
C377	C	1.088032	-0.877558	-0.201927
C378	C	1.588032	-0.377558	0.298073
C379	C	1.082944	-0.885110	-0.130362
C380	C	1.582944	-0.385110	0.369638
C381	C	1.033548	-0.922712	-0.103042
C382	C	1.533548	-0.422712	0.396958
C383	C	0.989241	-0.952761	-0.147290
C384	C	1.489241	-0.452761	0.352710
H385	H	1.047493	-0.902015	-0.299156
H386	H	1.547493	-0.402015	0.200844
H387	H	1.124598	-0.849723	-0.222152
H388	H	1.624598	-0.349723	0.277848
H389	H	1.115743	-0.862866	-0.097607
H390	H	1.615743	-0.362866	0.402393
H391	H	1.029780	-0.928304	-0.050062
H392	H	1.529780	-0.428304	0.449938
H393	H	0.952675	-0.980596	-0.127066
H394	H	1.452675	-0.480596	0.372934
C395	C	0.541188	-0.321836	-0.218581
C396	C	1.041188	0.178164	0.281419
C397	C	0.468875	-0.321830	-0.218589
C398	C	0.968875	0.178170	0.281411
C399	C	0.432653	-0.358559	-0.174227
C400	C	0.932653	0.141441	0.325773
C401	C	0.468743	-0.395295	-0.129859
C402	C	0.968743	0.104705	0.370141
C403	C	0.541060	-0.395302	-0.129850
C404	C	1.041060	0.104698	0.370150
C405	C	0.577283	-0.358572	-0.174211
C406	C	1.077283	0.141428	0.325789
H407	H	0.442155	-0.294635	-0.251434
H408	H	0.942155	0.205365	0.248566
H409	H	0.379119	-0.358554	-0.174234
H410	H	0.879119	0.141446	0.325766
H411	H	0.441929	-0.422484	-0.097020
H412	H	0.941929	0.077516	0.402980
H413	H	0.567780	-0.422496	-0.097004
H414	H	1.067780	0.077504	0.402996
H415	H	0.630816	-0.358578	-0.174204
H416	H	1.130816	0.141422	0.325796
H417	H	0.670077	-0.191148	-0.376448
H418	H	1.170077	0.308852	0.123552
C419	C	0.679244	-0.321854	-0.218566
C420	C	1.179244	0.178146	0.281434
C421	C	0.724454	-0.299152	-0.169192
C422	C	1.224454	0.200848	0.330808
C423	C	0.760546	-0.335892	-0.124825
C424	C	1.260546	0.164108	0.375175
C425	C	0.751429	-0.395334	-0.129833
C426	C	1.251429	0.104666	0.370167
C427	C	0.706217	-0.418039	-0.179209
C428	C	1.206217	0.081961	0.320791
C429	C	0.670124	-0.381299	-0.223575
C430	C	1.170124	0.118701	0.276425
H431	H	0.731205	-0.255147	-0.165483
H432	H	1.231205	0.244853	0.334517
H433	H	0.794015	-0.319084	-0.088274
H434	H	1.294015	0.180916	0.411726
H435	H	0.778147	-0.422531	-0.096990
H436	H	1.278147	0.077469	0.403010
H437	H	0.699466	-0.462044	-0.182918
H438	H	1.199466	0.037956	0.317082
H439	H	0.636655	-0.398106	-0.260127
H440	H	1.136655	0.101894	0.239873
C441	C	0.278657	-0.181542	-0.387992
C442	C	0.778657	0.318458	0.112008
C443	C	0.269640	-0.185878	-0.459546
C444	C	0.769640	0.314122	0.040454
C445	C	0.305868	-0.149149	-0.503903
C446	C	0.805868	0.350851	-0.003903
C447	C	0.351112	-0.108083	-0.476707
C448	C	0.851112	0.391917	0.023293
C449	C	0.360131	-0.103745	-0.405150
C450	C	0.860131	0.396255	0.094850
C451	C	0.323904	-0.140474	-0.360792
C452	C	0.823904	0.359526	0.139208
H453	H	0.236146	-0.216279	-0.479682
H454	H	0.736146	0.283721	0.020318
H455	H	0.299191	-0.152361	-0.556875
H456	H	0.799191	0.347639	-0.056875
H457	H	0.377930	-0.080894	-0.509543
H458	H	0.877930	0.419106	-0.009543
H459	H	0.393626	-0.073344	-0.385014
H460	H	0.893626	0.426656	0.114986
H461	H	0.330581	-0.137262	-0.307821
H462	H	0.830581	0.362738	0.192179
H463	H	0.982593	-0.450670	-0.230282
H464	H	1.482593	0.049330	0.269718
H465	H	0.796273	-0.701940	-0.416506
H466	H	1.296273	-0.201940	0.083494
H467	H	1.022995	-0.701823	-0.190101
H468	H	1.522995	-0.201823	0.309899
H469	H	0.982860	-1.052082	-0.230369
H470	H	1.482860	-0.552082	0.269631
C471	C	0.825128	-0.945306	-0.387792
C472	C	1.325128	-0.445306	0.112208
C473	C	0.753574	-0.952897	-0.382584
C474	C	1.253574	-0.452897	0.117416
C475	C	0.709242	-0.922899	-0.426826
C476	C	1.209242	-0.422899	0.073174
C477	C	0.736463	-0.885310	-0.476276
C478	C	1.236463	-0.385310	0.023724
C479	C	0.808021	-0.877717	-0.481486
C480	C	1.308021	-0.377717	0.018514
C481	C	0.852353	-0.907715	-0.437244
C482	C	1.352353	-0.407715	0.062756
H483	H	0.733419	-0.980725	-0.345977
H484	H	1.233419	-0.480725	0.154023
H485	H	0.656270	-0.928520	-0.422969
H486	H	1.156270	-0.428520	0.077031
H487	H	0.703646	-0.863103	-0.509026
H488	H	1.203646	-0.363103	-0.009026
H489	H	0.828175	-0.849889	-0.518093
H490	H	1.328175	-0.349889	-0.018093
H491	H	0.905325	-0.902094	-0.441101
H492	H	1.405325	-0.402094	0.058899
H493	H	0.796305	-0.800990	-0.416515
H494	H	1.296305	-0.300990	0.083485
C495	C	0.994311	-0.181303	-1.073085
C496	C	1.494311	0.318697	-0.573085
C497	C	1.038617	-0.144519	-1.036947
C498	C	1.538617	0.355481	-0.536947
C499	C	1.082936	-0.107720	-1.073121
C500	C	1.582936	0.392280	-0.573121
C501	C	1.082951	-0.107705	-1.145434
C502	C	1.582951	0.392295	-0.645434
C503	C	1.038644	-0.144490	-1.181576
C504	C	1.538644	0.355510	-0.681576
C505	C	0.994324	-0.181289	-1.145402
C506	C	1.494324	0.318711	-0.645402
H507	H	1.038607	-0.144529	-0.983413
H508	H	1.538607	0.355471	-0.483413
H509	H	1.115735	-0.080489	-1.046366
H510	H	1.615735	0.419511	-0.546366
H511	H	1.115759	-0.080464	-1.172213
H512	H	1.615759	0.419536	-0.672213
H513	H	1.038653	-0.144480	-1.235110
H514	H	1.538653	0.355520	-0.735110
H515	H	0.961526	-0.208520	-1.172157
H516	H	1.461526	0.291480	-0.672157
H517	H	0.836423	-0.450749	-0.376228
H518	H	1.336423	0.049251	0.123772
