data_functionalizedCrystal
_audit_creation_method	'MofGen! by Chris Wilmer'
_symmetry_space_group_name_H-M	'P1'
_symmetry_Int_Tables_number	1
_symmetry_cell_setting	triclinic
loop_
_symmetry_equiv_pos_as_xyz
  x,y,z
_cell_length_a	10.654541
_cell_length_b	10.489741
_cell_length_c	9.130307
_cell_angle_alpha	89.996969
_cell_angle_beta	89.999822
_cell_angle_gamma	84.511551
loop_
_atom_site_label
_atom_site_type_symbol
_atom_site_fract_x
_atom_site_fract_y
_atom_site_fract_z
O1	O	1.667923	0.179145	-0.121754
O2	O	1.302452	0.196218	-0.121766
O3	O	1.493503	0.002080	-0.121751
O4	O	1.476871	0.373284	-0.121769
O5	O	1.493497	0.002078	0.121848
O6	O	1.302445	0.196216	0.121833
O7	O	1.667916	0.179143	0.121845
Cu8	Cu	1.485180	0.187680	0.144081
Cu9	Cu	1.485188	0.187682	-0.144003
O10	O	1.476865	0.373282	0.121830
C11	C	1.255650	0.194964	0.000032
C12	C	1.116205	0.191216	0.000027
C13	C	1.088342	0.423360	-0.000003
C14	C	1.008902	0.537667	-0.000023
C15	C	0.877882	0.534137	-0.000025
C16	C	0.826301	0.416288	-0.000001
C17	C	0.905742	0.301982	0.000020
C18	C	1.036763	0.305524	0.000017
C19	C	0.933604	0.069840	0.000060
C20	C	1.064624	0.073367	0.000051
C21	C	0.882024	-0.048009	0.000084
C22	C	0.961465	-0.162318	0.000094
C23	C	1.092492	-0.158783	0.000093
C24	C	1.144065	-0.040939	0.000071
C25	C	1.492244	-0.045452	0.000048
C26	C	1.488486	-0.187080	0.000045
C27	C	1.366925	-0.255160	0.000030
C28	C	1.424346	-0.347312	0.120139
C29	C	1.424381	-0.347285	-0.120031
C30	C	1.545957	-0.277366	0.120253
C31	C	1.545975	-0.277329	-0.120025
C32	C	1.603484	-0.369454	0.000114
C33	C	1.714718	0.180397	0.000044
C34	C	1.854163	0.184146	0.000039
C35	C	1.478124	0.420814	0.000028
C36	C	1.481882	0.562441	0.000021
N37	N	1.485184	0.187677	0.346704
N38	N	1.485194	0.187674	-0.346625
C39	C	1.654430	0.015818	0.346708
C40	C	1.739061	-0.070107	0.423376
C41	C	1.739074	-0.070108	0.576710
C42	C	1.654444	0.015823	0.653378
C43	C	1.569812	0.101749	0.576710
C44	C	1.569811	0.101743	0.423373
C45	C	1.400562	0.273600	0.576706
C46	C	1.400554	0.273609	0.423373
C47	C	1.315932	0.359532	0.653375
C48	C	1.231305	0.445465	0.576706
C49	C	1.231296	0.445464	0.423363
C50	C	1.315922	0.359535	0.346704
H51	H	1.195024	0.426246	-0.000034
Br52	Br	1.338620	-0.398958	0.289383
H53	H	1.157166	-0.251866	0.000116
Br54	Br	1.853921	-0.186733	0.680764
H55	H	1.050913	0.633617	-0.000039
H56	H	1.250746	-0.038050	0.000054
Br57	Br	1.631639	-0.225624	-0.289275
H58	H	0.813200	0.627215	-0.000031
Br59	Br	1.116450	0.562064	0.680758
Br60	Br	0.891457	-0.322238	0.000144
H61	H	0.775340	-0.050875	0.000091
H62	H	0.719617	0.413424	0.000016
Br63	Br	1.631614	-0.226032	0.289686
Br64	Br	1.338622	-0.398889	-0.289264
Br65	Br	1.654442	0.015832	0.138611
Br66	Br	1.116422	0.562074	0.319327
H67	H	1.654449	0.015807	0.778230
H68	H	1.807965	-0.140075	0.360940
Br69	Br	1.315927	0.359533	0.138607
H70	H	1.266979	-0.205460	0.000147
Br71	Br	1.315935	0.359526	0.861472
H72	H	1.703520	-0.418927	0.000184
