data_functionalizedCrystal
_audit_creation_method	'MofGen! by Chris Wilmer'
_symmetry_space_group_name_H-M	'P1'
_symmetry_Int_Tables_number	1
_symmetry_cell_setting	triclinic
loop_
_symmetry_equiv_pos_as_xyz
  x,y,z
_cell_length_a	11.792241
_cell_length_b	17.038272
_cell_length_c	10.268362
_cell_angle_alpha	89.994496
_cell_angle_beta	89.999626
_cell_angle_gamma	87.652486
loop_
_atom_site_label
_atom_site_type_symbol
_atom_site_fract_x
_atom_site_fract_y
_atom_site_fract_z
O1	O	1.516303	0.107207	-0.108175
O2	O	1.849636	0.440540	0.225159
O3	O	2.182970	0.773874	0.558492
O4	O	1.186930	0.118256	-0.108205
O5	O	1.520263	0.451589	0.225128
O6	O	1.853597	0.784923	0.558462
O7	O	1.349659	-0.001093	-0.108180
O8	O	1.682992	0.332241	0.225154
O9	O	2.016326	0.665574	0.558487
O10	O	1.353574	0.226556	-0.108200
O11	O	1.686907	0.559889	0.225133
O12	O	2.020241	0.893222	0.558467
O13	O	1.349643	-0.001098	0.108421
O14	O	1.682977	0.332236	0.441754
O15	O	2.016310	0.665569	0.775088
O16	O	1.186914	0.118251	0.108396
O17	O	1.520248	0.451584	0.441729
O18	O	1.853581	0.784918	0.775062
O19	O	1.516287	0.107202	0.108426
O20	O	1.849621	0.440535	0.441759
O21	O	2.182954	0.773869	0.775093
Cu22	Cu	1.351600	0.112726	0.128188
Cu23	Cu	1.684933	0.446059	0.461522
Cu24	Cu	2.018266	0.779393	0.794855
Cu25	Cu	1.351618	0.112732	-0.127967
Cu26	Cu	1.684951	0.446065	0.205366
Cu27	Cu	2.018285	0.779399	0.538700
O28	O	1.353558	0.226551	0.108401
O29	O	1.686892	0.559884	0.441734
O30	O	2.020225	0.893217	0.775067
C31	C	1.144571	0.117559	0.000092
C32	C	1.477904	0.450893	0.333425
C33	C	1.811237	0.784226	0.666758
C34	C	1.018375	0.115482	0.000080
C35	C	1.351708	0.448815	0.333413
C36	C	1.685041	0.782149	0.666747
C37	C	1.346090	-0.030239	0.000120
C38	C	1.679424	0.303094	0.333454
C39	C	2.012757	0.636428	0.666787
C40	C	1.335466	-0.117079	0.000119
C41	C	1.668800	0.216254	0.333452
C42	C	2.002133	0.549588	0.666786
C43	C	0.787328	0.111662	0.000118
C44	C	1.120661	0.444996	0.333451
C45	C	1.453995	0.778329	0.666785
C46	C	0.915899	0.113785	0.000097
C47	C	1.249232	0.447118	0.333431
C48	C	1.582566	0.780451	0.666764
C49	C	1.433006	-0.166762	0.000129
C50	C	1.766340	0.166571	0.333463
C51	C	2.099673	0.499905	0.666796
C52	C	1.423017	-0.248357	0.000116
C53	C	1.756350	0.084977	0.333449
C54	C	2.089684	0.418310	0.666783
C55	C	1.315487	-0.280267	0.000102
C56	C	1.648821	0.053067	0.333435
C57	C	1.982154	0.386400	0.666768
C58	C	1.217940	-0.230577	0.000087
C59	C	1.551274	0.102756	0.333421
C60	C	1.884607	0.436090	0.666754
C61	C	1.227930	-0.148984	0.000091
C62	C	1.561264	0.184349	0.333425
C63	C	1.894597	0.517683	0.666758
C64	C	1.280194	-0.526181	0.000081
C65	C	1.613527	-0.192847	0.333414
C66	C	1.946861	0.140486	0.666747
C67	C	1.270211	-0.607780	0.000080
C68	C	1.603545	-0.274447	0.333414
C69	C	1.936878	0.058887	0.666747
C70	C	1.475289	-0.625554	0.000107
C71	C	1.808623	-0.292221	0.333440
C72	C	2.141956	0.041113	0.666773
C73	C	1.485270	-0.543958	0.000118
C74	C	1.818603	-0.210625	0.333452
C75	C	2.151937	0.122708	0.666785
C76	C	1.387723	-0.494276	0.000097
C77	C	1.721056	-0.160943	0.333431
C78	C	2.054390	0.172391	0.666764
C79	C	1.305274	-0.363669	0.000092
C80	C	1.638608	-0.030336	0.333425
C81	C	1.971941	0.302997	0.666759
C82	C	1.397937	-0.410875	0.000097
C83	C	1.731270	-0.077542	0.333431
C84	C	2.064603	0.255792	0.666764
C85	C	1.558647	0.107899	0.000127
C86	C	1.891980	0.441232	0.333460
C87	C	2.225314	0.774565	0.666793
C88	C	1.684843	0.109976	0.000130
C89	C	2.018176	0.443309	0.333463
C90	C	2.351509	0.776643	0.666796
C91	C	1.357127	0.255697	0.000098
C92	C	1.690460	0.589030	0.333431
C93	C	2.023794	0.922364	0.666765
C94	C	1.367751	0.342537	0.000091
C95	C	1.701084	0.675870	0.333424
C96	C	2.034418	1.009204	0.666758
N97	N	1.351595	0.112721	0.308354
N98	N	1.684928	0.446055	0.641687
N99	N	2.018261	0.779388	0.975021
N100	N	1.351631	0.112730	-0.308133
N101	N	1.684964	0.446064	0.025200
N102	N	2.018298	0.779397	0.358534
C103	C	1.351612	0.112730	0.574025
C104	C	1.684945	0.446064	0.907358
C105	C	2.018279	0.779397	1.240691
C106	C	1.351599	0.112728	0.426187
C107	C	1.684932	0.446061	0.759520
C108	C	2.018266	0.779394	1.092853
H109	H	1.520568	-0.140788	0.000149
H110	H	1.853902	0.192546	0.333482
H111	H	2.187235	0.525879	0.666816
C112	C	1.120637	-0.094333	0.000083
C113	C	1.453970	0.239001	0.333417
C114	C	1.787303	0.572334	0.666750
H115	H	1.055164	-0.125022	0.000085
H116	H	1.388498	0.208312	0.333419
H117	H	1.721831	0.541645	0.666752
H118	H	1.120278	-0.062129	-0.075450
H119	H	1.453612	0.271204	0.257884
H120	H	1.786945	0.604538	0.591217
H121	H	1.120265	-0.062139	0.075627
H122	H	1.453598	0.271194	0.408960
H123	H	1.786931	0.604528	0.742293
C124	C	1.186995	-0.398770	0.000077
C125	C	1.520328	-0.065437	0.333410
C126	C	1.853662	0.267897	0.666743
H127	H	1.130327	-0.357497	0.000064
H128	H	1.463661	-0.024164	0.333398
H129	H	1.796994	0.309170	0.666731
H130	H	1.178831	-0.430240	0.075602
H131	H	1.512164	-0.096907	0.408935
H132	H	1.845497	0.236426	0.742269
H133	H	1.178851	-0.430220	-0.075474
H134	H	1.512185	-0.096887	0.257859
H135	H	1.845518	0.236446	0.591192
C136	C	1.582584	-0.680202	0.000116
C137	C	1.915917	-0.346868	0.333449
C138	C	2.249251	-0.013535	0.666783
H139	H	1.648054	-0.649511	0.000132
H140	H	1.981388	-0.316177	0.333466
H141	H	2.314721	0.017156	0.666799
H142	H	1.582956	-0.712396	-0.075418
H143	H	1.916290	-0.379062	0.257915
H144	H	2.249623	-0.045729	0.591249
H145	H	1.582947	-0.712405	0.075658
H146	H	1.916280	-0.379071	0.408992
H147	H	2.249613	-0.045738	0.742325
C148	C	1.530311	-0.303005	0.000141
C149	C	1.863645	0.030328	0.333474
C150	C	2.196978	0.363662	0.666807
H151	H	1.595782	-0.272314	0.000169
H152	H	1.929115	0.061019	0.333502
H153	H	2.262449	0.394352	0.666835
H154	H	1.530694	-0.335200	-0.075392
H155	H	1.864027	-0.001867	0.257941
H156	H	2.197361	0.331466	0.591274
H157	H	1.530662	-0.335207	0.075684
H158	H	1.863995	-0.001873	0.409017
H159	H	2.197329	0.331460	0.742351
H160	H	1.130387	-0.256565	0.000067
H161	H	1.463720	0.076769	0.333401
H162	H	1.797053	0.410102	0.666734
H163	H	1.572832	-0.517984	0.000130
H164	H	1.906165	-0.184651	0.333464
H165	H	2.239499	0.148683	0.666797
H166	H	1.182643	-0.633757	0.000090
H167	H	1.515977	-0.300424	0.333423
H168	H	1.849310	0.032909	0.666757
H169	H	1.485487	-0.384890	0.000080
H170	H	1.818821	-0.051557	0.333414
H171	H	2.152154	0.281776	0.666747
H172	H	1.200764	-0.485738	0.000064
H173	H	1.534097	-0.152405	0.333397
H174	H	1.867430	0.180928	0.666730
