data_functionalizedCrystal
_audit_creation_method	'MofGen! by Chris Wilmer'
_symmetry_space_group_name_H-M	'P1'
_symmetry_Int_Tables_number	1
_symmetry_cell_setting	triclinic
loop_
_symmetry_equiv_pos_as_xyz
  x,y,z
_cell_length_a	13.635800
_cell_length_b	11.102244
_cell_length_c	11.102300
_cell_angle_alpha	88.053517
_cell_angle_beta	108.605850
_cell_angle_gamma	71.395130
loop_
_atom_site_label
_atom_site_type_symbol
_atom_site_fract_x
_atom_site_fract_y
_atom_site_fract_z
V1	V	2.055762	-0.175838	0.396253
O2	O	2.035282	0.008450	0.388713
O3	O	2.044147	-0.348658	0.393540
O4	O	2.044153	-0.173133	0.569074
O5	O	2.035276	-0.168290	0.211964
V6	V	2.294314	-0.153795	0.374211
O7	O	2.193432	-0.224191	0.444604
O8	O	2.381742	-0.105442	0.325860
O9	O	2.194325	0.019024	0.376924
O10	O	2.373493	-0.338083	0.381751
O11	O	2.373498	-0.161344	0.558500
O12	O	2.194320	-0.156500	0.201390
V13	V	2.555762	-0.175838	0.396253
O14	O	2.535282	0.008450	0.388713
O15	O	2.544147	-0.348658	0.393540
O16	O	2.544153	-0.173133	0.569074
O17	O	2.535276	-0.168290	0.211964
V18	V	2.794314	-0.153795	0.374211
O19	O	2.693432	-0.224191	0.444604
O20	O	2.881742	-0.105442	0.325860
O21	O	2.694325	0.019024	0.376924
O22	O	2.873493	-0.338083	0.381751
O23	O	2.873498	-0.161344	0.558500
O24	O	2.694320	-0.156500	0.201390
C25	C	1.969302	-0.390787	0.387288
C26	C	2.000533	-0.532070	0.386221
C27	C	1.985120	-0.580305	0.269341
C28	C	2.014472	-0.713057	0.268354
C29	C	2.074647	-0.749329	0.501137
C30	C	2.045302	-0.616579	0.502124
C31	C	1.940351	-0.495795	0.153439
C32	C	1.924934	-0.544028	0.036549
C33	C	1.954286	-0.676781	0.035561
C34	C	1.999056	-0.761299	0.151464
C35	C	1.969308	-0.166887	0.611198
C36	C	2.000541	-0.165819	0.752480
C37	C	2.100842	0.061148	0.383173
C38	C	2.059230	0.202429	0.384248
C39	C	2.100835	-0.162751	0.159260
C40	C	2.059221	-0.163812	0.017976
C41	C	2.469302	-0.390787	0.387288
C42	C	2.500533	-0.532070	0.386221
C43	C	2.469308	-0.166887	0.611198
C44	C	2.500541	-0.165819	0.752480
C45	C	2.107220	-0.171664	0.825329
C46	C	2.136559	-0.170656	0.958077
C47	C	1.952532	-0.157962	0.945117
C48	C	1.923192	-0.158961	0.812370
C49	C	2.600842	0.061148	0.383173
C50	C	2.559230	0.202429	0.384248
C51	C	2.600835	-0.162751	0.159260
C52	C	2.559221	-0.163812	0.017976
C53	C	2.607209	-0.604918	0.392061
C54	C	2.636551	-0.737669	0.391069
C55	C	2.452528	-0.724710	0.378392
C56	C	2.423190	-0.591964	0.379393
C57	C	2.607220	-0.171664	0.825329
C58	C	2.636559	-0.170656	0.958077
C59	C	2.452532	-0.157962	0.945117
C60	C	2.423192	-0.158961	0.812370
H61	H	1.916441	-0.387699	0.154229
H62	H	2.670188	-0.556156	0.397619
H63	H	2.336320	-0.532649	0.374643
C64	C	1.875695	-0.451066	-0.090933
H65	H	1.860411	-0.365095	-0.073609
H66	H	1.927000	-0.469506	-0.134865
H67	H	1.809277	-0.461234	-0.142968
H68	H	2.022961	-0.869394	0.150651
C69	C	1.867462	-0.150437	1.011003
H70	H	1.900217	-0.150693	1.100498
H71	H	1.805601	-0.073539	0.974981
H72	H	1.844099	-0.222462	0.998191
H73	H	2.723415	-0.796977	0.395826
H74	H	2.170204	-0.177246	0.776571
C75	C	2.062248	-0.563515	0.630688
H76	H	2.093098	-0.632855	0.699573
H77	H	2.110910	-0.516624	0.639967
H78	H	1.993182	-0.508342	0.631850
C79	C	2.367456	-0.790596	0.370866
H80	H	2.400202	-0.880087	0.371092
H81	H	2.344087	-0.777791	0.442879
H82	H	2.305596	-0.754564	0.293958
H83	H	2.670204	-0.177246	0.776571
C84	C	1.805840	-0.152535	0.732231
H85	H	1.763980	-0.148327	0.786912
H86	H	1.771327	-0.078206	0.668568
H87	H	1.809820	-0.227128	0.691789
H88	H	2.723425	-0.175415	1.017385
H89	H	2.336315	-0.154191	0.753052
C90	C	1.937331	-0.729836	-0.093008
H91	H	1.906459	-0.660489	-0.161889
H92	H	2.006386	-0.785008	-0.094185
H93	H	1.888662	-0.776725	-0.102282
C94	C	2.123873	-0.842293	0.628616
H95	H	2.139131	-0.928261	0.611287
H96	H	2.190286	-0.832139	0.680665
H97	H	2.072552	-0.823842	0.672535
C98	C	2.367532	-0.150722	1.011041
H99	H	2.299814	-0.147460	0.948650
H100	H	2.394542	-0.224624	1.074081
H101	H	2.355806	-0.075680	1.051056
H102	H	2.223425	-0.175415	1.017385
