data_functionalizedCrystal
_audit_creation_method	'MofGen! by Chris Wilmer'
_symmetry_space_group_name_H-M	'P1'
_symmetry_Int_Tables_number	1
_symmetry_cell_setting	triclinic
loop_
_symmetry_equiv_pos_as_xyz
  x,y,z
_cell_length_a	23.532407
_cell_length_b	14.044220
_cell_length_c	12.503572
_cell_angle_alpha	86.156832
_cell_angle_beta	93.490724
_cell_angle_gamma	88.018778
loop_
_atom_site_label
_atom_site_type_symbol
_atom_site_fract_x
_atom_site_fract_y
_atom_site_fract_z
O1	O	-0.764493	-0.109506	-0.089188
O2	O	-0.264493	0.390494	0.410812
O3	O	-0.599532	-0.126145	-0.089220
O4	O	-0.099532	0.373855	0.410780
O5	O	-0.679536	0.020135	-0.089194
O6	O	-0.179536	0.520135	0.410806
O7	O	-0.684489	-0.255786	-0.089214
O8	O	-0.184489	0.244214	0.410786
O9	O	-0.673520	0.009116	0.089446
O10	O	-0.173520	0.509116	0.589446
O11	O	-0.593517	-0.137164	0.089420
O12	O	-0.093517	0.362836	0.589420
O13	O	-0.758477	-0.120525	0.089452
O14	O	-0.258477	0.379475	0.589452
Cu15	Cu	-0.675447	-0.129851	0.105747
Cu16	Cu	-0.175447	0.370149	0.605747
Cu17	Cu	-0.682562	-0.116819	-0.105515
Cu18	Cu	-0.182562	0.383181	0.394485
O19	O	-0.678473	-0.266805	0.089426
O20	O	-0.178473	0.233195	0.589426
C21	C	-0.575286	-0.131230	0.000096
C22	C	-0.075286	0.368770	0.500096
C23	C	-0.512000	-0.129956	0.000084
C24	C	-0.012000	0.370044	0.500084
C25	C	-0.674361	0.049920	0.000126
C26	C	-0.174361	0.549920	0.500126
C27	C	-0.667895	0.155085	0.000126
C28	C	-0.167895	0.655085	0.500126
C29	C	-0.782724	-0.115439	0.000134
C30	C	-0.282724	0.384561	0.500134
C31	C	-0.846010	-0.116714	0.000138
C32	C	-0.346010	0.383286	0.500138
C33	C	-0.117154	-0.208534	0.000127
C34	C	0.382846	0.291466	0.500127
C35	C	-0.057690	-0.207350	0.000134
C36	C	0.442310	0.292650	0.500134
O37	O	-0.024892	-0.280193	0.000168
O38	O	0.475108	0.219807	0.500168
N39	N	-0.030350	-0.120386	0.000139
N40	N	0.469650	0.379614	0.500139
C41	C	-0.062477	-0.034600	0.000147
C42	C	0.437523	0.465400	0.500147
O43	O	-0.033762	0.039478	0.000153
O44	O	0.466238	0.539478	0.500153
C45	C	-0.121941	-0.035785	0.000148
C46	C	0.378059	0.464215	0.500148
C47	C	-0.149278	-0.122754	0.000133
C48	C	0.350722	0.377246	0.500133
C49	C	-0.144492	-0.295496	0.000113
C50	C	0.355508	0.204504	0.500113
C51	C	-0.203952	-0.296678	0.000104
C52	C	0.296048	0.203322	0.500104
C53	C	-0.236075	-0.210899	0.000110
C54	C	0.263925	0.289101	0.500110
C55	C	-0.208738	-0.123937	0.000124
C56	C	0.291262	0.376063	0.500124
C57	C	-0.154067	0.050000	0.000165
C58	C	0.345933	0.550000	0.500165
C59	C	-0.213534	0.048807	0.000167
C60	C	0.286466	0.548807	0.500167
C61	C	-0.240871	-0.038162	0.000151
C62	C	0.259129	0.461838	0.500151
C63	C	-0.300322	-0.039340	0.000121
C64	C	0.199678	0.460660	0.500121
N65	N	-0.327662	-0.126304	0.000117
N66	N	0.172338	0.373696	0.500117
C67	C	-0.295539	-0.212083	0.000111
C68	C	0.204461	0.287917	0.500111
C69	C	0.062400	-0.032119	0.000147
C70	C	0.562400	0.467881	0.500147
C71	C	0.121862	-0.030933	0.000138
C72	C	0.621862	0.469067	0.500138
C73	C	0.126645	-0.203684	0.000127
C74	C	0.626645	0.296316	0.500127
C75	C	0.067182	-0.204868	0.000128
C76	C	0.567182	0.295132	0.500128
C77	C	0.035060	-0.119083	0.000143
C78	C	0.535060	0.380917	0.500143
C79	C	-0.420410	-0.214560	0.000092
C80	C	0.079590	0.285440	0.500092
C81	C	-0.479877	-0.215735	0.000079
C82	C	0.020123	0.284265	0.500079
C83	C	-0.484655	-0.042985	0.000096
C84	C	0.015345	0.457015	0.500096
C85	C	-0.425194	-0.041810	0.000103
C86	C	0.074806	0.458190	0.500103
C87	C	-0.393073	-0.127605	0.000105
C88	C	0.106927	0.372395	0.500105
O89	O	-0.333156	0.033464	0.000092
O90	O	0.166844	0.533464	0.500092
O91	O	-0.324261	-0.286150	0.000120
O92	O	0.175739	0.213850	0.500120
C93	C	-0.683649	-0.296589	0.000104
C94	C	-0.183649	0.203411	0.500104
C95	C	-0.690115	-0.401754	0.000097
C96	C	-0.190115	0.098246	0.500097
N97	N	-0.670448	-0.139016	0.254338
N98	N	-0.170448	0.360984	0.754338
C99	C	-0.656074	0.347636	0.000109
C100	C	-0.156074	0.847636	0.500109
C101	C	-0.701933	0.405701	0.000114
C102	C	-0.201933	0.905701	0.500114
C103	C	-0.695356	0.512843	0.000104
C104	C	-0.195356	1.012843	0.500104
C105	C	-0.662650	0.240484	0.000119
C106	C	-0.162650	0.740484	0.500119
N107	N	-0.687566	-0.107646	-0.254106
N108	N	-0.187566	0.392354	0.245894
C109	C	-0.663093	-0.152506	0.473451
C110	C	-0.163093	0.347494	0.973451
C111	C	-0.694919	-0.094159	0.526788
C112	C	-0.194919	0.405841	1.026788
C113	C	-0.690826	-0.101666	0.648710
C114	C	-0.190826	0.398334	1.148710
C115	C	-0.667185	-0.145001	0.351518
C116	C	-0.167185	0.354999	0.851518
H117	H	-0.502131	-0.286559	0.000066
H118	H	-0.002131	0.213441	0.500066
H119	H	-0.394264	-0.284424	0.000097
H120	H	0.105736	0.215576	0.500097
C121	C	-0.761646	0.364153	0.000141
C122	C	-0.261646	0.864153	0.500141
N123	N	-0.806620	0.332854	0.000167
N124	N	-0.306620	0.832854	0.500167
H125	H	-0.226204	-0.367497	0.000091
H126	H	0.273796	0.132503	0.500091
C127	C	0.037117	-0.300541	0.000123
C128	C	0.537117	0.199459	0.500123
N129	N	0.014476	-0.372606	0.000123
N130	N	0.514476	0.127394	0.500123
H131	H	-0.725239	-0.038571	0.480885
H132	H	-0.225239	0.461429	0.980885
H133	H	-0.118342	-0.365352	0.000112
H134	H	0.381658	0.134648	0.500112
H135	H	-0.611877	0.378390	0.000098
H136	H	-0.111877	0.878390	0.500098
C137	C	-0.248865	0.143181	0.000178
C138	C	0.251135	0.643181	0.500178
N139	N	-0.275475	0.214263	0.000183
N140	N	0.224525	0.714263	0.500183
C141	C	0.161993	-0.298044	0.000132
C142	C	0.661993	0.201956	0.500132
N143	N	0.188618	-0.369112	0.000137
N144	N	0.688618	0.130888	0.500137
H145	H	0.144114	0.039887	0.000134
H146	H	0.644114	0.539887	0.500134
C147	C	0.027070	0.062259	0.000146
C148	C	0.527070	0.562259	0.500146
N149	N	0.000462	0.133344	0.000144
N150	N	0.500462	0.633344	0.500144
H151	H	-0.131819	0.120819	0.000179
H152	H	0.368181	0.620819	0.500179
C153	C	-0.395123	0.053861	0.000107
C154	C	0.104877	0.553861	0.500107
N155	N	-0.372477	0.125921	0.000118
N156	N	0.127523	0.625921	0.500118
C157	C	-0.520001	0.051367	0.000115
C158	C	-0.020001	0.551367	0.500115
N159	N	-0.546626	0.122432	0.000140
N160	N	-0.046626	0.622432	0.500140
H161	H	-0.632776	-0.208092	0.519348
H162	H	-0.132776	0.291908	1.019348
