data_functionalizedCrystal
_audit_creation_method	'MofGen! by Chris Wilmer'
_symmetry_space_group_name_H-M	'P1'
_symmetry_Int_Tables_number	1
_symmetry_cell_setting	triclinic
loop_
_symmetry_equiv_pos_as_xyz
  x,y,z
_cell_length_a	12.759395
_cell_length_b	18.101395
_cell_length_c	12.759387
_cell_angle_alpha	89.966033
_cell_angle_beta	89.981185
_cell_angle_gamma	90.032641
loop_
_atom_site_label
_atom_site_type_symbol
_atom_site_fract_x
_atom_site_fract_y
_atom_site_fract_z
Zn1	Zn	1.606131	-0.294752	-0.593990
Zn2	Zn	1.605977	-0.418614	-0.418305
Zn3	Zn	1.430435	-0.294795	-0.418327
Zn4	Zn	1.430372	-0.418559	-0.593944
O5	O	1.518229	-0.356680	-0.506141
O6	O	1.753132	-0.311188	-0.570695
O7	O	1.582653	-0.402231	-0.271286
O8	O	1.453832	-0.191156	-0.441658
O9	O	1.753018	-0.402189	-0.441620
O10	O	1.582916	-0.191125	-0.570717
O11	O	1.453683	-0.311261	-0.271303
O12	O	1.283405	-0.311207	-0.441613
O13	O	1.453725	-0.402095	-0.740971
O14	O	1.283359	-0.402137	-0.570638
O15	O	1.582855	-0.311134	-0.741005
O16	O	1.582591	-0.522240	-0.441575
O17	O	1.453575	-0.522200	-0.570616
C18	C	1.245261	-0.356671	-0.506123
C19	C	1.128485	-0.356685	-0.506141
C20	C	1.128475	-0.451523	-0.640277
C21	C	1.073609	-0.498948	-0.707348
C22	C	0.963887	-0.498957	-0.707361
C23	C	0.909029	-0.451534	-0.640297
C24	C	0.963895	-0.404109	-0.573226
C25	C	1.073619	-0.404107	-0.573219
C26	C	0.963904	-0.309269	-0.439097
C27	C	1.073626	-0.309263	-0.439077
C28	C	0.909046	-0.261846	-0.372034
C29	C	0.963912	-0.214424	-0.304956
C30	C	1.073640	-0.214418	-0.304945
C31	C	1.128492	-0.261838	-0.372006
C32	C	1.518088	-0.549091	-0.506111
C33	C	1.518124	-0.631405	-0.506133
C34	C	1.518355	-0.930496	-0.506189
C35	C	1.437369	-0.899176	-0.587580
C36	C	1.436984	-0.813558	-0.587325
C37	C	1.518240	-0.782113	-0.506162
C38	C	1.488261	-0.813274	-0.395437
C39	C	1.487739	-0.898919	-0.395924
C40	C	1.629497	-0.898835	-0.534549
C41	C	1.628843	-0.813184	-0.536977
C42	C	1.518177	-0.698254	-0.506140
C43	C	1.518415	-1.014355	-0.506204
C44	C	1.792262	-0.356690	-0.506160
C45	C	1.909039	-0.356694	-0.506168
C46	C	1.518300	-0.356604	-0.780175
C47	C	1.518330	-0.356571	-0.896952
C48	C	1.518398	-0.163518	-0.506196
C49	C	1.518471	-0.081204	-0.506219
C50	C	1.384043	-0.261838	-0.896988
C51	C	1.316918	-0.214456	-0.951867
C52	C	1.316949	-0.214429	-1.061589
C53	C	1.384111	-0.261791	-1.116434
C54	C	1.451235	-0.309172	-1.061555
C55	C	1.451199	-0.309192	-0.951831
C56	C	1.585516	-0.403908	-1.061519
C57	C	1.585492	-0.403932	-0.951797
C58	C	1.652677	-0.451269	-1.116364
C59	C	1.719809	-0.498648	-1.061485
C60	C	1.719775	-0.498672	-0.951757
C61	C	1.652616	-0.451314	-0.896918
C62	C	1.518218	-0.356703	-0.233174
C63	C	1.518391	-0.356527	-0.116398
H64	H	1.455741	-0.792487	-0.669427
H65	H	1.384019	-0.261849	-0.807647
F66	F	0.792270	-0.261853	-0.372055
F67	F	0.905494	-0.549427	-0.778750
H68	H	1.262234	-0.175897	-0.907200
F69	F	1.132024	-0.163937	-0.233563
H70	H	1.217816	-0.451526	-0.640265
H71	H	1.774482	-0.537209	-1.106149
F72	F	1.791215	-0.549107	-0.893359
F73	F	1.245268	-0.261838	-0.371996
H74	H	0.919237	-0.175813	-0.250364
H75	H	0.819688	-0.451539	-0.640323
F76	F	1.652579	-0.451332	-0.780142
H77	H	1.355489	-0.920765	-0.569031
F78	F	1.461638	-0.926025	-0.695243
H79	H	1.545391	-0.792908	-0.333141
H80	H	1.262289	-0.175848	-1.106271
H81	H	1.354603	-0.793138	-0.568540
F82	F	1.381547	-0.925124	-0.364523
H83	H	1.544166	-0.919641	-0.333213
H84	H	1.656829	-0.920376	-0.613914
F85	F	1.383191	-0.785332	-0.363471
F86	F	1.711887	-0.785196	-0.465147
F87	F	1.384125	-0.261771	-1.233210
H88	H	1.118287	-0.537557	-0.761951
H89	H	1.651451	-0.792813	-0.618465
H90	H	1.689834	-0.919088	-0.475269
F91	F	1.652700	-0.451246	-1.233140
