data_functionalizedCrystal
_audit_creation_method	'MofGen! by Chris Wilmer'
_symmetry_space_group_name_H-M	'P1'
_symmetry_Int_Tables_number	1
_symmetry_cell_setting	triclinic
loop_
_symmetry_equiv_pos_as_xyz
  x,y,z
_cell_length_a	16.974800
_cell_length_b	15.455313
_cell_length_c	16.109298
_cell_angle_alpha	87.330355
_cell_angle_beta	83.424670
_cell_angle_gamma	89.026089
loop_
_atom_site_label
_atom_site_type_symbol
_atom_site_fract_x
_atom_site_fract_y
_atom_site_fract_z
O1	O	1.049046	-0.001547	0.105985
O2	O	0.819610	0.014565	0.118682
O3	O	0.940632	0.006072	-0.008682
O4	O	0.928023	0.006946	0.233348
O5	O	0.933711	-0.137704	-0.001429
O6	O	0.812689	-0.129211	0.125935
O7	O	1.042125	-0.145324	0.113238
Cu8	Cu	0.926775	-0.150395	0.120249
Cu9	Cu	0.934959	0.019637	0.111671
O10	O	0.921103	-0.136831	0.240601
C11	C	0.786790	-0.055261	0.121692
C12	C	0.699309	-0.049117	0.119848
C13	C	0.654442	-0.124605	0.122933
C14	C	0.572246	-0.118835	0.121186
C15	C	0.534917	-0.037576	0.116360
C16	C	0.579790	0.037918	0.113273
C17	C	0.661986	0.032147	0.115013
C18	C	0.289494	-0.011911	0.110725
C19	C	0.207293	-0.006146	0.108987
C20	C	0.199754	-0.162899	0.116899
C21	C	0.281951	-0.168663	0.118644
C22	C	0.326817	-0.093170	0.115552
N23	N	0.450899	-0.031675	0.114577
N24	N	0.410835	-0.099071	0.117329
N25	N	0.921024	-0.269987	0.126281
C26	C	0.972457	-0.318991	0.072193
C27	C	0.968115	-0.409494	0.076763
C28	C	0.912344	-0.450992	0.135425
C29	C	0.860906	-0.401982	0.189516
C30	C	0.865245	-0.311480	0.184942
C31	C	0.893617	-0.721260	0.155148
C32	C	0.889284	-0.811768	0.159720
C33	C	0.996492	-0.819274	0.046965
C34	C	1.000829	-0.728770	0.042399
C35	C	0.949389	-0.679768	0.096487
N36	N	0.907906	-0.543501	0.140100
N37	N	0.953823	-0.587260	0.091808
C38	C	1.074945	-0.075495	0.110227
C39	C	1.162426	-0.081634	0.112072
C40	C	0.936662	-0.065777	-0.036032
C41	C	0.935132	-0.065659	-0.128332
N42	N	0.940716	0.139228	0.105632
C43	C	0.933911	0.013046	-0.431366
C44	C	0.935360	0.012951	-0.344643
C45	C	0.927826	-0.143803	-0.336721
C46	C	0.926383	-0.143707	-0.423443
C47	C	0.929422	-0.065280	-0.470763
C48	C	0.932313	-0.065471	-0.297317
C49	C	0.933884	-0.065575	-0.203288
C50	C	0.927853	-0.065175	-0.564799
C51	C	0.925073	-0.064980	0.267951
C52	C	0.926603	-0.065092	0.360251
H53	H	0.535721	-0.180306	0.123684
H54	H	1.046242	-0.694984	-0.005369
C55	C	0.940296	0.099115	-0.301310
N56	N	0.944015	0.164019	-0.268672
H57	H	0.925350	-0.207656	-0.298182
C58	C	0.921442	-0.229876	-0.466782
N59	N	0.917721	-0.294776	-0.499425
C60	C	1.033809	-0.273351	0.007658
N61	N	1.080020	-0.238978	-0.040954
C62	C	0.937271	0.099317	-0.483418
N63	N	0.939808	0.164299	-0.522622
C64	C	0.695496	-0.213998	0.128241
N65	N	0.726416	-0.281331	0.132235
H66	H	0.549391	0.104081	0.109337
H67	H	1.038372	-0.859179	0.002928
H68	H	0.326015	0.049561	0.108204
C69	C	0.323007	-0.258055	0.123948
N70	N	0.353930	-0.325386	0.127944
C71	C	0.150396	-0.245937	0.120291
N72	N	0.113220	-0.308484	0.122842
C73	C	0.799550	-0.447633	0.254039
N74	N	0.753335	-0.482017	0.302638
C75	C	0.711338	0.115190	0.111621
N76	N	0.748510	0.177741	0.109064
C77	C	0.166233	0.083250	0.103677
N78	N	0.135306	0.150579	0.099680
H79	H	1.009995	-0.449392	0.032719
H80	H	0.823362	-0.271582	0.228985
H81	H	0.843866	-0.845551	0.207494
H82	H	0.851733	-0.681369	0.199190
