data_functionalizedCrystal
_audit_creation_method	'MofGen! by Chris Wilmer'
_symmetry_space_group_name_H-M	'P1'
_symmetry_Int_Tables_number	1
_symmetry_cell_setting	triclinic
loop_
_symmetry_equiv_pos_as_xyz
  x,y,z
_cell_length_a	18.215407
_cell_length_b	18.215404
_cell_length_c	18.215399
_cell_angle_alpha	89.972485
_cell_angle_beta	89.982223
_cell_angle_gamma	90.019443
loop_
_atom_site_label
_atom_site_type_symbol
_atom_site_fract_x
_atom_site_fract_y
_atom_site_fract_z
Zn1	Zn	-1.125077	0.293078	0.416078
Zn2	Zn	-0.875077	0.543078	0.666078
Zn3	Zn	-0.625077	0.793078	0.916078
Zn4	Zn	-0.375077	1.043078	1.166078
Zn5	Zn	-1.124988	0.416149	0.293012
Zn6	Zn	-0.874988	0.666149	0.543012
Zn7	Zn	-0.624988	0.916149	0.793012
Zn8	Zn	-0.374988	1.166149	1.043012
Zn9	Zn	-1.002010	0.293092	0.293029
Zn10	Zn	-0.752010	0.543092	0.543029
Zn11	Zn	-0.502010	0.793092	0.793029
Zn12	Zn	-0.252010	1.043092	1.043029
Zn13	Zn	-1.001978	0.416098	0.416042
Zn14	Zn	-0.751978	0.666098	0.666042
Zn15	Zn	-0.501978	0.916098	0.916042
Zn16	Zn	-0.251978	1.166098	1.166042
O17	O	-1.063513	0.354604	0.354540
O18	O	-0.813513	0.604604	0.604540
O19	O	-0.563513	0.854604	0.854540
O20	O	-0.313513	1.104604	1.104540
O21	O	-1.228050	0.309419	0.399761
O22	O	-0.978050	0.559419	0.649761
O23	O	-0.728050	0.809419	0.899761
O24	O	-0.478050	1.059419	1.149761
O25	O	-1.108651	0.399852	0.190030
O26	O	-0.858651	0.649852	0.440030
O27	O	-0.608651	0.899852	0.690030
O28	O	-0.358651	1.149852	0.940030
O29	O	-1.018386	0.190105	0.309374
O30	O	-0.768386	0.440105	0.559374
O31	O	-0.518386	0.690105	0.809374
O32	O	-0.268386	0.940105	1.059374
O33	O	-1.227984	0.399839	0.309345
O34	O	-0.977984	0.649839	0.559345
O35	O	-0.727984	0.899839	0.809345
O36	O	-0.477984	1.149839	1.059345
O37	O	-1.108803	0.190095	0.399777
O38	O	-0.858803	0.440095	0.649777
O39	O	-0.608803	0.690095	0.899777
O40	O	-0.358803	0.940095	1.149777
O41	O	-1.018299	0.309443	0.190043
O42	O	-0.768299	0.559443	0.440043
O43	O	-0.518299	0.809443	0.690043
O44	O	-0.268299	1.059443	0.940043
O45	O	-0.899021	0.309393	0.309339
O46	O	-0.649021	0.559393	0.559339
O47	O	-0.399021	0.809393	0.809339
O48	O	-0.149021	1.059393	1.059339
O49	O	-1.018332	0.399752	0.519031
O50	O	-0.768332	0.649752	0.769031
O51	O	-0.518332	0.899752	1.019031
O52	O	-0.268332	1.149752	1.269031
O53	O	-0.898998	0.399765	0.399716
O54	O	-0.648998	0.649765	0.649716
O55	O	-0.398998	0.899765	0.899716
O56	O	-0.148998	1.149765	1.149716
O57	O	-1.108772	0.309369	0.519057
O58	O	-0.858772	0.559369	0.769057
O59	O	-0.608772	0.809369	1.019057
O60	O	-0.358772	1.059369	1.269057
O61	O	-1.108620	0.519127	0.309310
O62	O	-0.858620	0.769127	0.559310
O63	O	-0.608620	1.019127	0.809310
O64	O	-0.358620	1.269127	1.059310
O65	O	-1.018245	0.519089	0.399699
O66	O	-0.768245	0.769089	0.649699
O67	O	-0.518245	1.019089	0.899699
O68	O	-0.268245	1.269089	1.149699
C69	C	-0.872307	0.354575	0.354526
C70	C	-0.622307	0.604575	0.604526
C71	C	-0.372307	0.854575	0.854526
C72	C	-0.122307	1.104575	1.104526
C73	C	-0.790508	0.354581	0.354537
C74	C	-0.540508	0.604581	0.604537
C75	C	-0.290508	0.854581	0.854537
C76	C	-0.040508	1.104581	1.104537
C77	C	-0.602347	0.307590	0.401690
C78	C	-0.352347	0.557590	0.651690
C79	C	-0.102347	0.807590	0.901690
C80	C	0.147653	1.057590	1.151690
C81	C	-0.525489	0.307594	0.401692
C82	C	-0.275489	0.557594	0.651692
C83	C	-0.025489	0.807594	0.901692
C84	C	0.224511	1.057594	1.151692
C85	C	-0.525431	0.401607	0.307397
C86	C	-0.275431	0.651607	0.557397
C87	C	-0.025431	0.901607	0.807397
C88	C	0.224569	1.151607	1.057397
C89	C	-0.602289	0.401599	0.307391
C90	C	-0.352289	0.651599	0.557391
C91	C	-0.102289	0.901599	0.807391
C92	C	0.147711	1.151599	1.057391
C93	C	-0.640745	0.354591	0.354542
C94	C	-0.390745	0.604591	0.604542
C95	C	-0.140745	0.854591	0.854542
C96	C	0.109255	1.104591	1.104542
C97	C	-0.487029	0.354603	0.354549
C98	C	-0.237029	0.604603	0.604549
C99	C	0.012971	0.854603	0.854549
C100	C	0.262971	1.104603	1.104549
C101	C	-0.403695	0.354608	0.354551
C102	C	-0.153695	0.604608	0.604551
C103	C	0.096305	0.854608	0.854551
C104	C	0.346305	1.104608	1.104551
C105	C	-0.724084	0.354586	0.354540
C106	C	-0.474084	0.604586	0.604540
C107	C	-0.224084	0.854586	0.854540
C108	C	0.025916	1.104586	1.104540
C109	C	-1.063439	0.545810	0.354515
C110	C	-0.813439	0.795810	0.604515
C111	C	-0.563439	1.045810	0.854515
C112	C	-0.313439	1.295810	1.104515
C113	C	-1.063475	0.627609	0.354529
C114	C	-0.813475	0.877609	0.604529
C115	C	-0.563475	1.127609	0.854529
C116	C	-0.313475	1.377609	1.104529
C117	C	-1.063558	0.354553	0.546493
C118	C	-0.813558	0.604553	0.796493
C119	C	-0.563558	0.854553	1.046493
C120	C	-0.313558	1.104553	1.296493
C121	C	-1.063577	0.354532	0.628292
C122	C	-0.813577	0.604532	0.878292
C123	C	-0.563577	0.854532	1.128292
C124	C	-0.313577	1.104532	1.378292
C125	C	-0.255466	0.354625	0.354553
C126	C	-0.005466	0.604625	0.604553
C127	C	0.244534	0.854625	0.854553
C128	C	0.494534	1.104625	1.104553
C129	C	-0.337265	0.354614	0.354554
C130	C	-0.087265	0.604614	0.604554
C131	C	0.162735	0.854614	0.854554
C132	C	0.412735	1.104614	1.104554
C133	C	-1.110647	0.815798	0.307560
C134	C	-0.860647	1.065798	0.557560
C135	C	-0.610647	1.315798	0.807560
C136	C	-0.360647	1.565798	1.057560
C137	C	-1.110681	0.892657	0.307582
C138	C	-0.860681	1.142657	0.557582
C139	C	-0.610681	1.392657	0.807582
C140	C	-0.360681	1.642657	1.057582
C141	C	-1.016492	0.892658	0.401627
C142	C	-0.766492	1.142658	0.651627
C143	C	-0.516492	1.392658	0.901627
C144	C	-0.266492	1.642658	1.151627
C145	C	-1.016462	0.815800	0.401608
C146	C	-0.766462	1.065800	0.651608
C147	C	-0.516462	1.315800	0.901608
C148	C	-0.266462	1.565800	1.151608
C149	C	-1.063539	0.777373	0.354570
C150	C	-0.813539	1.027373	0.604570
C151	C	-0.563539	1.277373	0.854570
C152	C	-0.313539	1.527373	1.104570
C153	C	-1.063603	0.931089	0.354611
C154	C	-0.813603	1.181089	0.604611
C155	C	-0.563603	1.431089	0.854611
C156	C	-0.313603	1.681089	1.104611
C157	C	-1.063640	1.014422	0.354635
C158	C	-0.813640	1.264422	0.604635
C159	C	-0.563640	1.514422	0.854635
C160	C	-0.313640	1.764422	1.104635
C161	C	-1.063503	0.694034	0.354547
C162	C	-0.813503	0.944034	0.604547
C163	C	-0.563503	1.194034	0.854547
C164	C	-0.313503	1.444034	1.104547
C165	C	-1.063613	1.162651	0.354595
C166	C	-0.813613	1.412651	0.604595
C167	C	-0.563613	1.662651	0.854595
C168	C	-0.313613	1.912651	1.104595
C169	C	-1.063667	1.080852	0.354652
C170	C	-0.813667	1.330852	0.604652
C171	C	-0.563667	1.580852	0.854652
C172	C	-0.313667	1.830852	1.104652
C173	C	-1.063511	0.354602	0.163334
C174	C	-0.813511	0.604602	0.413334
C175	C	-0.563511	0.854602	0.663334
C176	C	-0.313511	1.104602	0.913334
C177	C	-1.063635	0.354416	0.081536
C178	C	-0.813635	0.604416	0.331536
C179	C	-0.563635	0.854416	0.581536
C180	C	-0.313635	1.104416	0.831536
C181	C	-1.110687	0.307426	0.816501
C182	C	-0.860687	0.557426	1.066501
C183	C	-0.610687	0.807426	1.316501
C184	C	-0.360687	1.057426	1.566501
C185	C	-1.110695	0.307404	0.893360
C186	C	-0.860695	0.557404	1.143360
C187	C	-0.610695	0.807404	1.393360
C188	C	-0.360695	1.057404	1.643360
C189	C	-1.016520	0.401524	0.893321
C190	C	-0.766520	0.651524	1.143321
C191	C	-0.516520	0.901524	1.393321
C192	C	-0.266520	1.151524	1.643321
C193	C	-1.016508	0.401541	0.816464
C194	C	-0.766508	0.651541	1.066464
C195	C	-0.516508	0.901541	1.316464
C196	C	-0.266508	1.151541	1.566464
C197	C	-1.063596	0.354493	0.778056
C198	C	-0.813596	0.604493	1.028056
C199	C	-0.563596	0.854493	1.278056
C200	C	-0.313596	1.104493	1.528056
C201	C	-1.063616	0.354454	0.931772
C202	C	-0.813616	0.604454	1.181772
C203	C	-0.563616	0.854454	1.431772
C204	C	-0.313616	1.104454	1.681772
C205	C	-1.063625	0.354432	1.015106
C206	C	-0.813625	0.604432	1.265106
C207	C	-0.563625	0.854432	1.515106
C208	C	-0.313625	1.104432	1.765106
C209	C	-1.063586	0.354515	0.694717
C210	C	-0.813586	0.604515	0.944717
C211	C	-0.563586	0.854515	1.194717
C212	C	-0.313586	1.104515	1.444717
H213	H	-0.494111	0.439879	0.269009
H214	H	-0.244111	0.689879	0.519009
H215	H	0.005889	0.939879	0.769009
H216	H	0.255889	1.189879	1.019009
H217	H	-1.149040	0.269076	0.924659
H218	H	-0.899040	0.519076	1.174659
H219	H	-0.649040	0.769076	1.424659
H220	H	-0.399040	1.019076	1.674659
C221	C	-0.483255	0.255891	0.453560
C222	C	-0.233255	0.505891	0.703560
C223	C	0.016745	0.755891	0.953560
C224	C	0.266745	1.005891	1.203560
N225	N	-0.451445	0.216946	0.492630
N226	N	-0.201445	0.466946	0.742630
N227	N	0.048555	0.716946	0.992630
N228	N	0.298555	0.966946	1.242630
H229	H	-0.978101	0.784512	0.439893
H230	H	-0.728101	1.034512	0.689893
H231	H	-0.478101	1.284512	0.939893
H232	H	-0.228101	1.534512	1.189893
H233	H	-0.633553	0.439874	0.268994
H234	H	-0.383553	0.689874	0.518994
H235	H	-0.133553	0.939874	0.768994
H236	H	0.116447	1.189874	1.018994
C237	C	-0.964725	0.453273	0.935577
C238	C	-0.714725	0.703273	1.185577
C239	C	-0.464725	0.953273	1.435577
C240	C	-0.214725	1.203273	1.685577
N241	N	-0.925712	0.492251	0.967404
N242	N	-0.675712	0.742251	1.217404
N243	N	-0.425712	0.992251	1.467404
N244	N	-0.175712	1.242251	1.717404
H245	H	-1.149026	0.269114	0.785232
H246	H	-0.899026	0.519114	1.035232
H247	H	-0.649026	0.769114	1.285232
H248	H	-0.399026	1.019114	1.535232
H249	H	-0.978156	0.439868	0.785161
H250	H	-0.728156	0.689868	1.035161
H251	H	-0.478156	0.939868	1.285161
H252	H	-0.228156	1.189868	1.535161
C253	C	-1.162436	0.773531	0.255821
C254	C	-0.912436	1.023531	0.505821
C255	C	-0.662436	1.273531	0.755821
C256	C	-0.412436	1.523531	1.005821
N257	N	-1.201447	0.741697	0.216852
N258	N	-0.951447	0.991697	0.466852
N259	N	-0.701447	1.241697	0.716852
N260	N	-0.451447	1.491697	0.966852
H261	H	-0.633656	0.269311	0.440081
H262	H	-0.383656	0.519311	0.690081
H263	H	-0.133656	0.769311	0.940081
H264	H	0.116344	1.019311	1.190081
C265	C	-1.162501	0.934922	0.255863
C266	C	-0.912501	1.184922	0.505863
C267	C	-0.662501	1.434922	0.755863
C268	C	-0.412501	1.684922	1.005863
N269	N	-1.201534	0.966755	0.216906
N270	N	-0.951534	1.216755	0.466906
N271	N	-0.701534	1.466755	0.716906
N272	N	-0.451534	1.716755	0.966906
H273	H	-0.978164	0.923955	0.439922
H274	H	-0.728164	1.173955	0.689922
H275	H	-0.478164	1.423955	0.939922
H276	H	-0.228164	1.673955	1.189922
