data_functionalizedCrystal
_audit_creation_method	'MofGen! by Chris Wilmer'
_symmetry_space_group_name_H-M	'P1'
_symmetry_Int_Tables_number	1
_symmetry_cell_setting	triclinic
loop_
_symmetry_equiv_pos_as_xyz
  x,y,z
_cell_length_a	14.853567
_cell_length_b	16.109301
_cell_length_c	14.586319
_cell_angle_alpha	90.005214
_cell_angle_beta	89.999465
_cell_angle_gamma	96.451794
loop_
_atom_site_label
_atom_site_type_symbol
_atom_site_fract_x
_atom_site_fract_y
_atom_site_fract_z
O1	O	1.196184	-0.108546	-0.076180
O2	O	0.933703	-0.121477	-0.076196
O3	O	1.072154	0.006009	-0.076178
O4	O	1.057733	-0.236033	-0.076198
O5	O	1.072145	0.006011	0.076302
O6	O	0.933694	-0.121475	0.076285
O7	O	1.196175	-0.108545	0.076301
Cu8	Cu	1.064933	-0.115010	0.090215
Cu9	Cu	1.064945	-0.115012	-0.090111
O10	O	1.057724	-0.236031	0.076283
C11	C	0.900111	-0.120890	0.000042
C12	C	0.800030	-0.119135	0.000036
C13	C	1.071566	0.036986	0.000062
C14	C	1.069814	0.129284	0.000064
N15	N	1.064932	-0.115008	0.217047
C16	C	0.387634	-0.035983	0.000064
C17	C	0.366102	-0.187440	0.000051
C18	C	0.460133	-0.189090	0.000047
C19	C	0.517919	-0.114187	0.000051
C20	C	0.481674	-0.037632	0.000058
C21	C	0.496386	-0.265644	0.000031
C22	C	0.590422	-0.267298	0.000027
C23	C	0.648210	-0.192393	0.000038
C24	C	0.611959	-0.115835	0.000045
C25	C	0.669745	-0.040931	0.000049
C26	C	0.633496	0.035628	0.000063
C27	C	0.539461	0.037273	0.000068
C28	C	0.742245	-0.194038	0.000033
C29	C	0.763785	-0.042580	0.000043
C30	C	1.229767	-0.109131	0.000060
C31	C	1.329848	-0.110887	0.000060
C32	C	1.058313	-0.267007	0.000040
C33	C	1.060064	-0.359305	0.000033
C34	C	1.147896	0.351446	0.000054
C35	C	1.146243	0.438169	0.000046
C36	C	0.981976	0.418525	0.000040
C37	C	0.983629	0.331804	0.000041
C38	C	1.066592	0.298267	0.000053
C39	C	1.063286	0.471711	0.000044
C40	C	1.061494	0.565740	0.000036
C41	C	1.068385	0.204233	0.000059
N42	N	1.064953	-0.115007	-0.216943
C43	C	1.126258	-0.058576	0.452061
C44	C	1.126261	-0.058574	0.548043
C45	C	1.003620	-0.171442	0.548036
C46	C	1.003614	-0.171439	0.452057
C47	C	1.064938	-0.115007	0.404072
C48	C	1.064947	-0.115008	0.596033
C49	C	1.064949	-0.115006	0.700100
C50	C	1.064935	-0.115008	0.299998
H51	H	0.680557	0.096614	0.000060
H52	H	0.449331	-0.326626	0.000019
O53	O	0.352277	0.038310	0.000036
C54	C	0.256889	0.023711	0.000069
H55	H	0.234785	-0.041145	-0.028804
H56	H	0.228025	0.072703	-0.044191
H57	H	0.230722	0.027769	0.073225
H58	H	1.176192	-0.012621	0.587113
H59	H	0.619928	-0.329636	0.000016
H60	H	0.953693	-0.217389	0.587115
H61	H	0.914430	0.445842	0.000032
H62	H	0.917418	0.288503	0.000037
O63	O	0.944134	-0.226377	0.405476
C64	C	0.958749	-0.308706	0.428931
H65	H	1.030926	-0.309235	0.455311
H66	H	0.948363	-0.350411	0.365805
H67	H	0.908776	-0.333046	0.484642
H68	H	1.215449	0.324144	0.000061
H69	H	1.212449	0.481464	0.000045
H70	H	0.810829	0.018417	0.000050
O71	O	1.185854	-0.003675	0.405590
C72	C	1.239991	0.046120	0.468534
H73	H	1.203033	0.047116	0.536954
H74	H	1.253761	0.112496	0.440812
H75	H	1.306953	0.019015	0.478733
H76	H	0.509938	0.099603	0.000102
H77	H	0.771754	-0.256371	0.000023
H78	H	0.319048	-0.248423	0.000040
