data_functionalizedCrystal
_audit_creation_method	'MofGen! by Chris Wilmer'
_symmetry_space_group_name_H-M	'P1'
_symmetry_Int_Tables_number	1
_symmetry_cell_setting	triclinic
loop_
_symmetry_equiv_pos_as_xyz
  x,y,z
_cell_length_a	6.817900
_cell_length_b	11.102289
_cell_length_c	13.212919
_cell_angle_alpha	87.856906
_cell_angle_beta	106.298290
_cell_angle_gamma	108.605707
loop_
_atom_site_label
_atom_site_type_symbol
_atom_site_fract_x
_atom_site_fract_y
_atom_site_fract_z
V1	V	-4.063263	-0.138431	-0.325526
O2	O	-4.023214	0.045146	-0.319330
O3	O	-4.040370	-0.311507	-0.323300
O4	O	-4.018993	-0.119411	-0.467500
O5	O	-4.044740	-0.148280	-0.174132
V6	V	-4.543051	-0.118469	-0.307418
O7	O	-4.332715	-0.182220	-0.365248
O8	O	-4.723796	-0.074680	-0.267697
O9	O	-4.342737	0.054607	-0.309645
O10	O	-4.700496	-0.302046	-0.313615
O11	O	-4.678971	-0.108620	-0.458813
O12	O	-4.364114	-0.137489	-0.165445
C13	C	-3.891442	-0.354227	-0.318164
C14	C	-3.954039	-0.495610	-0.317290
C15	C	-4.166682	-0.567907	-0.322088
C16	C	-4.225491	-0.700752	-0.321276
C17	C	-3.858990	-0.688991	-0.310863
C18	C	-3.800188	-0.556149	-0.311683
C19	C	-4.378277	-0.574698	-0.328095
C20	C	-4.437086	-0.707543	-0.327282
C21	C	-3.864173	-0.109188	-0.502104
C22	C	-3.909429	-0.094783	-0.618168
C23	C	-4.110440	-0.297084	-0.866094
C24	C	-4.152966	-0.283555	-0.975147
C25	C	-4.037022	-0.054197	-0.945330
C26	C	-3.994497	-0.067726	-0.836277
C27	C	-4.031206	-0.189174	-0.796663
C28	C	-3.988665	-0.202701	-0.687608
C29	C	-3.872737	0.026655	-0.657793
C30	C	-3.915263	0.040184	-0.766846
C31	C	-4.155008	0.097320	-0.314777
C32	C	-4.071649	0.238703	-0.315658
C33	C	-4.182277	-0.147716	-0.130835
C34	C	-4.116258	-0.162115	-0.014770
H35	H	-3.627044	-0.497290	-0.307789
O36	O	-3.875646	0.171166	-0.809582
H37	H	-3.813403	0.243930	-0.742978
O38	O	-4.511495	-0.537665	-0.428680
H39	H	-4.685170	-0.577890	-0.432904
O40	O	-3.787257	0.143051	-0.582900
H41	H	-3.768858	0.229770	-0.628772
O42	O	-3.693053	-0.754284	-0.304817
H43	H	-3.769661	-0.858803	-0.305051
O44	O	-4.392752	-0.515376	-0.230576
H45	H	-4.448002	-0.591358	-0.178216
O46	O	-4.596419	-0.772411	-0.429757
H47	H	-4.745057	-0.745646	-0.443875
O48	O	-4.519015	-0.751480	-0.232804
H49	H	-4.565609	-0.856803	-0.232223
O50	O	-4.028256	-0.333683	-0.644873
H51	H	-4.090519	-0.406446	-0.711479
O52	O	-3.997435	0.076785	-0.988064
H53	H	-4.040312	0.068057	-1.075560
H54	H	-4.140307	-0.395970	-0.833840
O55	O	-4.238383	-0.399940	-1.050037
H56	H	-4.256735	-0.486657	-1.004165
