data_functionalizedCrystal
_audit_creation_method	'MofGen! by Chris Wilmer'
_symmetry_space_group_name_H-M	'P1'
_symmetry_Int_Tables_number	1
_symmetry_cell_setting	triclinic
loop_
_symmetry_equiv_pos_as_xyz
  x,y,z
_cell_length_a	19.121414
_cell_length_b	19.121063
_cell_length_c	18.050582
_cell_angle_alpha	92.415032
_cell_angle_beta	92.421198
_cell_angle_gamma	94.802198
loop_
_atom_site_label
_atom_site_type_symbol
_atom_site_fract_x
_atom_site_fract_y
_atom_site_fract_z
Zn1	Zn	1.063678	-0.234282	-0.382590
Zn2	Zn	1.563678	0.265718	0.117410
Zn3	Zn	1.058575	-0.351944	-0.263929
Zn4	Zn	1.558575	0.148056	0.236071
Zn5	Zn	0.946023	-0.239312	-0.263936
Zn6	Zn	1.446023	0.260688	0.236064
Zn7	Zn	0.940957	-0.356933	-0.393596
Zn8	Zn	1.440957	0.143067	0.106404
O9	O	1.002308	-0.295617	-0.326013
O10	O	1.502308	0.204383	0.173987
O11	O	1.161463	-0.245697	-0.362240
O12	O	1.661463	0.254303	0.137760
O13	O	1.043629	-0.337020	-0.160007
O14	O	1.543629	0.162980	0.339993
O15	O	0.965886	-0.140178	-0.275072
O16	O	1.465886	0.359822	0.224928
O17	O	1.157714	-0.332142	-0.275061
O18	O	1.657714	0.167858	0.224939
O19	O	1.052326	-0.136482	-0.362247
O20	O	1.552326	0.363518	0.137753
O21	O	0.960937	-0.254270	-0.160012
O22	O	1.460937	0.245730	0.339988
O23	O	0.846888	-0.259108	-0.285745
O24	O	1.346888	0.240892	0.214255
O25	O	0.957251	-0.340645	-0.496059
O26	O	1.457251	0.159355	0.003941
O27	O	0.843166	-0.345523	-0.381006
O28	O	1.343166	0.154477	0.118994
O29	O	1.047414	-0.250534	-0.487973
O30	O	1.547414	0.249466	0.012027
O31	O	1.038716	-0.451072	-0.285733
O32	O	1.538716	0.048928	0.214267
O33	O	0.952303	-0.454737	-0.380999
O34	O	1.452303	0.045263	0.119001
C35	C	0.819497	-0.303403	-0.334571
C36	C	1.319497	0.196597	0.165429
C37	C	0.741289	-0.306751	-0.338250
C38	C	1.241289	0.193249	0.161750
C39	C	0.706467	-0.263264	-0.290457
C40	C	1.206467	0.236736	0.209543
C41	C	0.632981	-0.266415	-0.293914
C42	C	1.132981	0.233585	0.206086
C43	C	0.594320	-0.313051	-0.345169
C44	C	1.094320	0.186949	0.154831
C45	C	0.629147	-0.356542	-0.392965
C46	C	1.129147	0.143458	0.107035
C47	C	0.702631	-0.353394	-0.389503
C48	C	1.202631	0.146606	0.110497
C49	C	0.372351	-0.324815	-0.358095
C50	C	0.872351	0.175185	0.141905
C51	C	0.298862	-0.327958	-0.361555
C52	C	0.798862	0.172042	0.138445
C53	C	0.302702	-0.237832	-0.262502
C54	C	0.802702	0.262168	0.237498
C55	C	0.376187	-0.234685	-0.259048
C56	C	0.876187	0.265315	0.240952
C57	C	0.411007	-0.278179	-0.306841
C58	C	0.911007	0.221821	0.193159
C59	C	0.519207	-0.316272	-0.348706
C60	C	1.019207	0.183728	0.151294
C61	C	0.486119	-0.274961	-0.303300
C62	C	0.986119	0.225039	0.196700
C63	C	0.994425	-0.478435	-0.334575
C64	C	1.494425	0.021565	0.165425
C65	C	0.991118	-0.556643	-0.338260
C66	C	1.491118	-0.056643	0.161740
C67	C	1.034589	-0.591452	-0.290429
C68	C	1.534589	-0.091452	0.209571
C69	C	1.031483	-0.664936	-0.293898
C70	C	1.531483	-0.164936	0.206102
C71	C	0.984900	-0.703610	-0.345196
C72	C	1.484900	-0.203610	0.154804
C73	C	0.941426	-0.668796	-0.393032
C74	C	1.441426	-0.168796	0.106968
C75	C	0.944537	-0.595313	-0.389565
C76	C	1.444537	-0.095313	0.110435
C77	C	0.973258	-0.925577	-0.358146
C78	C	1.473258	-0.425577	0.141854
C79	C	0.970149	-0.999066	-0.361607
C80	C	1.470149	-0.499066	0.138393
C81	C	1.060206	-0.995200	-0.262474
C82	C	1.560206	-0.495200	0.237526
C83	C	1.063310	-0.921716	-0.259009
C84	C	1.563310	-0.421716	0.240991
C85	C	1.019839	-0.886909	-0.306848
C86	C	1.519839	-0.386909	0.193152
C87	C	0.981722	-0.778722	-0.348742
C88	C	1.481722	-0.278722	0.151258
C89	C	1.023022	-0.811797	-0.303304
C90	C	1.523022	-0.311797	0.196696
C91	C	1.185833	-0.287802	-0.317422
C92	C	1.685833	0.212198	0.182578
C93	C	1.264040	-0.284471	-0.313761
C94	C	1.764040	0.215529	0.186239
C95	C	1.002337	-0.295585	-0.519716
C96	C	1.502337	0.204415	-0.019716
C97	C	1.002349	-0.295571	-0.602260
C98	C	1.502349	0.204429	-0.102260
C99	C	1.010240	-0.112085	-0.317433
C100	C	1.510240	0.387915	0.182567
C101	C	1.013621	-0.033874	-0.313776
C102	C	1.513621	0.466126	0.186224
C103	C	0.953357	-0.344508	-0.806104
C104	C	1.453357	0.155492	-0.306104
C105	C	1.016818	-0.358969	-0.853290
C106	C	1.516818	0.141031	-0.353290
C107	C	1.002386	-0.295516	-0.753387
C108	C	1.502386	0.204484	-0.253387
C109	C	0.938961	-0.281034	-0.853279
C110	C	1.438961	0.218966	-0.353279
C111	C	1.002416	-0.295464	-0.899368
C112	C	1.502416	0.204536	-0.399368
C113	C	1.065879	-0.310009	-0.799486
C114	C	1.565879	0.189991	-0.299486
C115	C	0.987980	-0.232046	-0.799471
C116	C	1.487980	0.267954	-0.299471
C117	C	1.051486	-0.246481	-0.846632
C118	C	1.551486	0.253519	-0.346632
C119	C	1.002368	-0.295548	-0.669291
C120	C	1.502368	0.204452	-0.169291
C121	C	1.002442	-0.295432	-0.983462
C122	C	1.502442	0.204568	-0.483462
C123	C	1.002322	-0.295597	-0.133059
C124	C	1.502322	0.204403	0.366941
C125	C	1.002454	-0.295407	-0.050499
C126	C	1.502454	0.204593	0.449501
H127	H	0.730982	-0.388806	-0.428422
H128	H	1.230982	0.111194	0.071578
H129	H	0.975758	-0.178410	-0.775890
H130	H	1.475758	0.321590	-0.275890
N131	N	0.745967	-0.215625	-0.238110
N132	N	1.245967	0.284375	0.261890
N133	N	0.788907	-0.169065	-0.260289
N134	N	1.288907	0.330935	0.239711
H135	H	0.816805	-0.135420	-0.223318
H136	H	1.316805	0.364580	0.276682
H137	H	0.604632	-0.231008	-0.254991
H138	H	1.104632	0.268992	0.245009
N139	N	1.032135	-0.426266	-0.882872
N140	N	1.532135	0.073734	-0.382872
N141	N	1.085081	-0.431651	-0.920341
N142	N	1.585081	0.068349	-0.420341
H143	H	1.095896	-0.479180	-0.941231
H144	H	1.595896	0.020820	-0.441231
N145	N	0.871654	-0.265694	-0.882819
N146	N	1.371654	0.234306	-0.382819
N147	N	0.823442	-0.255281	-0.840084
N148	N	1.323442	0.244719	-0.340084
H149	H	0.775904	-0.244453	-0.860944
H150	H	1.275904	0.255547	-0.360944
N151	N	0.415665	-0.187046	-0.206685
N152	N	0.915665	0.312954	0.293315
N153	N	0.384564	-0.148224	-0.164012
N154	N	0.884564	0.351776	0.335988
H155	H	0.412446	-0.114578	-0.127028
H156	H	0.912446	0.385422	0.372972
N157	N	0.267122	-0.193410	-0.213692
N158	N	0.767122	0.306590	0.286308
N159	N	0.201512	-0.196224	-0.216788
N160	N	0.701512	0.303776	0.283212
H161	H	0.176382	-0.164851	-0.182313
H162	H	0.676382	0.335149	0.317687
N163	N	0.893832	-0.708300	-0.445420
N164	N	1.393832	-0.208300	0.054580
N165	N	0.829254	-0.702918	-0.443089
N166	N	1.329254	-0.202918	0.056911
H167	H	0.795637	-0.730817	-0.480086
H168	H	1.295637	-0.230817	0.019914
N169	N	0.259380	-0.375600	-0.413919
N170	N	0.759380	0.124400	0.086081
N171	N	0.290477	-0.414430	-0.456588
N172	N	0.790477	0.085570	0.043412
H173	H	0.262593	-0.448075	-0.493570
H174	H	0.762593	0.051925	0.006430
N175	N	0.407902	-0.369246	-0.406919
N176	N	0.907902	0.130754	0.093081
N177	N	0.373372	-0.410878	-0.452679
N178	N	0.873372	0.089122	0.047321
H179	H	0.398482	-0.442260	-0.487164
H180	H	0.898482	0.057740	0.012836
N181	N	0.525620	-0.227324	-0.250957
N182	N	1.025620	0.272676	0.249043
N183	N	0.568562	-0.180771	-0.273146
N184	N	1.068562	0.319229	0.226854
H185	H	0.596467	-0.147125	-0.236181
H186	H	1.096467	0.352875	0.263819
H187	H	0.909139	-0.566972	-0.428515
H188	H	1.409139	-0.066972	0.071485
N189	N	1.110884	-0.882230	-0.206588
N190	N	1.610884	-0.382230	0.293412
N191	N	1.105894	-0.890698	-0.138667
N192	N	1.605894	-0.390698	0.361333
H193	H	1.139491	-0.862816	-0.101636
H194	H	1.639491	-0.362816	0.398364
H195	H	0.911931	-0.385989	-0.788164
H196	H	1.411931	0.114011	-0.288164
H197	H	0.597663	-0.394517	-0.434695
H198	H	1.097663	0.105483	0.065305
H199	H	1.119542	-0.322298	-0.776021
H200	H	1.619542	0.177702	-0.276021
N201	N	0.479712	-0.363912	-0.401056
N202	N	0.979712	0.136088	0.098944
N203	N	0.436773	-0.410472	-0.378876
N204	N	0.936773	0.089528	0.121124
H205	H	0.408877	-0.444120	-0.415847
H206	H	0.908877	0.055880	0.084153
H207	H	1.072519	-0.559968	-0.248654
H208	H	1.572519	-0.059968	0.251346
N209	N	1.075904	-0.700480	-0.245045
N210	N	1.575904	-0.200480	0.254955
N211	N	1.117495	-0.665942	-0.199250
N212	N	1.617495	-0.165942	0.300750
H213	H	1.148874	-0.691044	-0.164749
H214	H	1.648874	-0.191044	0.335251
N215	N	1.104602	-1.030767	-0.213616
N216	N	1.604602	-0.530767	0.286384
N217	N	1.101820	-1.096376	-0.216714
N218	N	1.601820	-0.596376	0.283286
H219	H	1.133178	-1.121496	-0.182207
H220	H	1.633178	-0.621496	0.317793
H221	H	0.932224	-1.030552	-0.403393
H222	H	1.432224	-0.530552	0.096607
H223	H	0.943793	-0.810219	-0.390507
H224	H	1.443793	-0.310219	0.109493
H225	H	0.937861	-0.897243	-0.397097
H226	H	1.437861	-0.397243	0.102903
H227	H	1.060952	-0.780306	-0.261540
H228	H	1.560952	-0.280306	0.238460
N229	N	1.103577	-0.194478	-0.868958
N230	N	1.603577	0.305522	-0.368958
N231	N	1.166806	-0.198221	-0.850299
N232	N	1.666806	0.301779	-0.350299
H233	H	1.203598	-0.161496	-0.866067
H234	H	1.703598	0.338504	-0.366067
