data_functionalizedCrystal
_audit_creation_method	'MofGen! by Chris Wilmer'
_symmetry_space_group_name_H-M	'P1'
_symmetry_Int_Tables_number	1
_symmetry_cell_setting	triclinic
loop_
_symmetry_equiv_pos_as_xyz
  x,y,z
_cell_length_a	13.033808
_cell_length_b	18.101395
_cell_length_c	13.032268
_cell_angle_alpha	82.853748
_cell_angle_beta	76.702628
_cell_angle_gamma	97.225542
loop_
_atom_site_label
_atom_site_type_symbol
_atom_site_fract_x
_atom_site_fract_y
_atom_site_fract_z
Zn1	Zn	1.547369	-0.190852	0.394609
Zn2	Zn	1.569786	-0.296706	0.217025
Zn3	Zn	1.392322	-0.190905	0.239548
Zn4	Zn	1.369693	-0.332694	0.417089
O5	O	1.469793	-0.252789	0.317068
O6	O	1.698970	-0.189811	0.352218
O7	O	1.565098	-0.267632	0.071392
O8	O	1.412978	-0.087258	0.260135
O9	O	1.715440	-0.267581	0.221748
O10	O	1.526890	-0.087220	0.374057
O11	O	1.434715	-0.189901	0.087939
O12	O	1.240693	-0.224796	0.281933
O13	O	1.374410	-0.328917	0.562728
O14	O	1.224068	-0.328968	0.412372
O15	O	1.504947	-0.224707	0.546212
O16	O	1.543155	-0.405119	0.243547
O17	O	1.396148	-0.431559	0.390533
C18	C	1.193843	-0.280794	0.352037
C19	C	1.075788	-0.292794	0.367022
C20	C	0.909323	-0.258943	0.324754
C21	C	1.031340	-0.246540	0.309263
C22	C	1.469655	-0.445211	0.317055
C23	C	1.469688	-0.527524	0.317072
C24	C	1.469914	-0.826597	0.317100
C25	C	1.377585	-0.811939	0.409759
C26	C	1.377229	-0.726334	0.409551
C27	C	1.469802	-0.678223	0.317087
C28	C	1.453721	-0.701101	0.208996
C29	C	1.453131	-0.786850	0.209555
C30	C	1.578627	-0.786439	0.331524
C31	C	1.577655	-0.701104	0.334062
C32	C	1.469741	-0.594368	0.317073
C33	C	1.469973	-0.910451	0.317107
C34	C	1.746820	-0.224676	0.281963
C35	C	1.864872	-0.212696	0.267003
C36	C	1.434654	-0.280820	0.594083
C37	C	1.419680	-0.292766	0.712131
C38	C	1.469957	-0.059615	0.317101
C39	C	1.470027	0.022704	0.317115
C40	C	1.504856	-0.224807	0.041122
C41	C	1.520036	-0.212633	-0.076951
C42	C	1.477591	-0.246530	0.756588
C43	C	1.462116	-0.258875	0.878596
H44	H	0.917149	-0.163921	0.206087
C45	C	1.388590	-0.706646	0.518432
N46	N	1.397142	-0.691821	0.600447
C47	C	1.005175	-0.358695	0.449319
N48	N	0.951988	-0.408330	0.511306
H49	H	1.581071	-0.163902	0.870790
H50	H	1.401069	-0.307597	0.930858
C51	C	1.602175	-0.822746	0.435184
N52	N	1.619898	-0.850094	0.513268
H53	H	1.083614	-0.197762	0.248343
C54	C	1.388641	-0.848537	0.519036
N55	N	1.396968	-0.876109	0.601346
C56	C	1.594416	-0.681708	0.441410
N57	N	1.607045	-0.667084	0.522257
H58	H	1.297193	-0.840029	0.401503
H59	H	1.358636	-0.341485	0.764396
C60	C	1.346341	-0.821869	0.190821
N61	N	1.265902	-0.848243	0.176714
C62	C	1.267951	-0.707573	0.398241
N63	N	1.185629	-0.693446	0.389750
C64	C	0.838705	-0.324841	0.407045
N65	N	0.785516	-0.374476	0.469030
C66	C	1.542552	-0.657027	0.114022
N67	N	1.609459	-0.623828	0.042489
C68	C	1.541069	-0.798330	0.114133
N69	N	1.607297	-0.806974	0.042258
H70	H	1.375601	-0.685461	0.194577
C71	C	1.560048	-0.180703	0.685986
N72	N	1.622157	-0.131121	0.632810
H73	H	1.648942	-0.667535	0.270359
C74	C	1.671322	-0.797223	0.240122
N75	N	1.741132	-0.805351	0.171278
