data_functionalizedCrystal
_audit_creation_method	'MofGen! by Chris Wilmer'
_symmetry_space_group_name_H-M	'P1'
_symmetry_Int_Tables_number	1
_symmetry_cell_setting	triclinic
loop_
_symmetry_equiv_pos_as_xyz
  x,y,z
_cell_length_a	14.519731
_cell_length_b	19.188924
_cell_length_c	13.596369
_cell_angle_alpha	89.991944
_cell_angle_beta	89.994584
_cell_angle_gamma	83.415409
loop_
_atom_site_label
_atom_site_type_symbol
_atom_site_fract_x
_atom_site_fract_y
_atom_site_fract_z
O1	O	1.223284	0.091596	-0.081798
O2	O	0.954743	0.102358	-0.081800
O3	O	1.096766	-0.004651	-0.081788
O4	O	1.081261	0.198605	-0.081811
O5	O	1.096752	-0.004657	0.081795
O6	O	0.954729	0.102352	0.081783
O7	O	1.223270	0.091590	0.081785
Zn8	Zn	1.088997	0.096970	0.107756
Zn9	Zn	1.089016	0.096978	-0.107771
O10	O	1.081247	0.198599	0.081772
C11	C	0.920380	0.101851	-0.000009
C12	C	0.818009	0.100340	-0.000009
C13	C	0.734872	0.099112	-0.000013
C14	C	0.630573	0.097578	-0.000013
C15	C	0.547442	0.096360	-0.000013
C16	C	0.443136	0.094826	-0.000015
C17	C	1.096258	-0.030667	0.000005
C18	C	1.094754	-0.108177	0.000007
C19	C	1.094060	-0.144575	-0.089162
C20	C	1.092633	-0.217403	-0.089169
C21	C	1.091920	-0.253832	-0.000002
C22	C	1.092609	-0.217424	0.089179
C23	C	1.094026	-0.144597	0.089184
N24	N	1.142169	-0.373316	0.066363
N25	N	1.140825	-0.442499	0.066352
C26	C	1.087648	-0.473256	-0.000012
N27	N	1.035878	-0.432219	-0.066380
N28	N	1.037227	-0.363030	-0.066372
C29	C	1.090383	-0.332801	0.000002
C30	C	1.085406	-0.588623	-0.089195
C31	C	1.083974	-0.661452	-0.089199
C32	C	1.083959	-0.661472	0.089151
C33	C	1.085382	-0.588644	0.089152
C34	C	1.086110	-0.552224	-0.000024
C35	C	1.257634	0.092097	-0.000009
C36	C	1.360004	0.093608	-0.000015
C37	C	1.081755	0.224615	-0.000022
C38	C	1.083259	0.302125	-0.000032
N39	N	1.088991	0.096965	0.254848
N40	N	1.089029	0.096978	-0.254863
C41	C	1.089015	0.096978	0.656139
C42	C	1.089005	0.096977	0.544487
C43	C	1.089003	0.096972	0.455497
C44	C	1.088993	0.096970	0.343838
H45	H	1.094650	-0.114927	-0.161776
H46	H	1.092062	-0.247044	-0.161784
O47	O	1.091790	-0.252871	0.175734
C48	C	1.010273	-0.327264	0.279256
C49	C	1.011102	-0.287169	0.181184
H50	H	0.945033	-0.354993	0.283703
H51	H	1.074089	-0.367709	0.283734
H52	H	1.011057	-0.288725	0.342974
H53	H	1.010286	-0.325655	0.117410
H54	H	0.947292	-0.246714	0.176792
H55	H	1.094588	-0.114961	0.161798
O56	O	1.083423	-0.696903	-0.175758
C57	C	1.161746	-0.786901	-0.279274
C58	C	1.162472	-0.746816	-0.181202
H59	H	1.225660	-0.827254	-0.283716
H60	H	1.096600	-0.814739	-0.283756
H61	H	1.162468	-0.748344	-0.342992
H62	H	1.161784	-0.785326	-0.117428
H63	H	1.227612	-0.718966	-0.176805
H64	H	1.083371	-0.691131	0.161753
O65	O	1.086111	-0.553396	0.175861
C66	C	1.085901	-0.561100	0.352756
C67	C	1.085097	-0.601106	0.254626
H68	H	1.085062	-0.599654	0.416463
H69	H	1.151105	-0.533334	0.357280
H70	H	1.022057	-0.520678	0.357166
H71	H	1.148896	-0.641562	0.250150
H72	H	1.019850	-0.628823	0.250143
O73	O	1.086059	-0.553343	-0.175904
C74	C	1.085975	-0.561012	-0.352800
C75	C	1.085212	-0.601048	-0.254675
H76	H	1.085310	-0.599566	-0.416512
H77	H	1.022101	-0.520624	-0.357323
H78	H	1.151151	-0.533205	-0.357204
H79	H	1.020079	-0.628898	-0.250206
H80	H	1.149129	-0.641397	-0.250194
