data_functionalizedCrystal
_audit_creation_method	'MofGen! by Chris Wilmer'
_symmetry_space_group_name_H-M	'P1'
_symmetry_Int_Tables_number	1
_symmetry_cell_setting	triclinic
loop_
_symmetry_equiv_pos_as_xyz
  x,y,z
_cell_length_a	19.188930
_cell_length_b	14.853567
_cell_length_c	13.330367
_cell_angle_alpha	90.000844
_cell_angle_beta	90.021431
_cell_angle_gamma	83.389856
loop_
_atom_site_label
_atom_site_type_symbol
_atom_site_fract_x
_atom_site_fract_y
_atom_site_fract_z
O1	O	-0.926523	-0.112552	-0.083738
O2	O	-0.426523	0.387448	0.416262
O3	O	-0.723263	-0.127704	-0.083668
O4	O	-0.223263	0.372296	0.416332
O5	O	-0.830322	0.011132	-0.083708
O6	O	-0.330322	0.511132	0.416292
O7	O	-0.819464	-0.251388	-0.083698
O8	O	-0.319464	0.248612	0.416302
O9	O	-0.830307	0.011135	0.083139
O10	O	-0.330307	0.511135	0.583139
O11	O	-0.723247	-0.127701	0.083179
O12	O	-0.223247	0.372299	0.583179
O13	O	-0.926508	-0.112549	0.083109
O14	O	-0.426508	0.387451	0.583109
Cu15	Cu	-0.824876	-0.120125	0.098379
Cu16	Cu	-0.324876	0.379875	0.598379
Cu17	Cu	-0.824894	-0.120128	-0.098937
Cu18	Cu	-0.324894	0.379872	0.401063
O19	O	-0.819448	-0.251385	0.083149
O20	O	-0.319448	0.248615	0.583149
C21	C	-0.697242	-0.127211	-0.000236
C22	C	-0.197242	0.372789	0.499764
C23	C	-0.619733	-0.125739	-0.000209
C24	C	-0.119733	0.374261	0.499791
C25	C	-0.829823	0.044720	-0.000287
C26	C	-0.329823	0.544720	0.499713
C27	C	-0.828348	0.144795	-0.000295
C28	C	-0.328348	0.644795	0.499705
C29	C	-0.952528	-0.113041	-0.000325
C30	C	-0.452528	0.386959	0.499675
C31	C	-1.030038	-0.114514	-0.000358
C32	C	-0.530038	0.385486	0.499642
C33	C	-0.575080	-0.207203	-0.000222
C34	C	-0.075080	0.292797	0.499778
C35	C	-0.502252	-0.205819	-0.000233
C36	C	-0.002252	0.294181	0.499767
C37	C	-0.474079	-0.122966	-0.000252
C38	C	0.025921	0.377034	0.499748
C39	C	-0.518741	-0.041491	-0.000233
C40	C	-0.018741	0.458509	0.499767
C41	C	-0.591568	-0.042878	-0.000212
C42	C	-0.091568	0.457122	0.499788
N43	N	-0.365893	-0.059637	-0.057080
N44	N	0.134107	0.440363	0.442920
N45	N	-0.296710	-0.058326	-0.057102
N46	N	0.203290	0.441674	0.442898
C47	C	-0.254657	-0.118785	-0.000313
C48	C	0.245343	0.381215	0.499687
N49	N	-0.284398	-0.180619	0.056486
N50	N	0.215602	0.319381	0.556486
N51	N	-0.353587	-0.181933	0.056504
N52	N	0.146413	0.318067	0.556504
C53	C	-0.395112	-0.121454	-0.000274
C54	C	0.104888	0.378546	0.499726
C55	C	-0.131035	-0.198755	-0.000336
C56	C	0.368965	0.301245	0.499664
C57	C	-0.058205	-0.197368	-0.000341
C58	C	0.441795	0.302632	0.499659
C59	C	-0.074696	-0.033038	-0.000352
C60	C	0.425304	0.466962	0.499648
C61	C	-0.147524	-0.034427	-0.000337
C62	C	0.352476	0.465573	0.499663
C63	C	-0.175689	-0.117288	-0.000334
C64	C	0.324311	0.382712	0.499666
C65	C	-0.819948	-0.284972	-0.000274
C66	C	-0.319948	0.215028	0.499726
C67	C	-0.821422	-0.385048	-0.000272
C68	C	-0.321422	0.114952	0.499728
N69	N	-0.824868	-0.120121	0.237160
N70	N	-0.324868	0.379879	0.737160
C71	C	-0.758520	0.556941	-0.000252
C72	C	-0.258520	1.056941	0.499748
C73	C	-0.885709	0.578929	-0.000296
C74	C	-0.385709	1.078929	0.499704
C75	C	-0.887095	0.484903	-0.000302
C76	C	-0.387095	0.984903	0.499698
C77	C	-0.824193	0.426891	-0.000282
C78	C	-0.324193	0.926891	0.499718
C79	C	-0.759904	0.462906	-0.000255
C80	C	-0.259904	0.962906	0.499745
C81	C	-0.951383	0.448881	-0.000319
C82	C	-0.451383	0.948881	0.499681
C83	C	-0.952772	0.354850	-0.000324
C84	C	-0.452772	0.854850	0.499676
C85	C	-0.889869	0.296836	-0.000311
C86	C	-0.389869	0.796836	0.499689
C87	C	-0.825577	0.332856	-0.000285
C88	C	-0.325577	0.832856	0.499715
C89	C	-0.762675	0.274845	-0.000265
C90	C	-0.262675	0.774845	0.499735
C91	C	-0.698383	0.310862	-0.000247
C92	C	-0.198383	0.810862	0.499753
C93	C	-0.697001	0.404892	-0.000242
C94	C	-0.197001	0.904892	0.499758
C95	C	-0.891251	0.202807	-0.000315
C96	C	-0.391251	0.702807	0.499685
C97	C	-0.764059	0.180809	-0.000269
C98	C	-0.264059	0.680809	0.499731
N99	N	-0.824908	-0.120124	-0.237719
N100	N	-0.324908	0.379876	0.262281
C101	C	-0.777486	-0.181580	0.709801
C102	C	-0.277486	0.318420	1.209801
C103	C	-0.872321	-0.058669	0.709733
C104	C	-0.372321	0.441331	1.209733
C105	C	-0.872313	-0.058666	0.604715
C106	C	-0.372313	0.441334	1.104715
C107	C	-0.824892	-0.120122	0.552235
C108	C	-0.324892	0.379878	1.052235
C109	C	-0.777478	-0.181581	0.604773
C110	C	-0.277478	0.318419	1.104773
C111	C	-0.919731	0.002786	0.552169
C112	C	-0.419731	0.502786	1.052169
C113	C	-0.919725	0.002791	0.447144
C114	C	-0.419725	0.502791	0.947144
C115	C	-0.872300	-0.058662	0.394662
C116	C	-0.372300	0.441338	0.894662
C117	C	-0.824884	-0.120123	0.447207
C118	C	-0.324884	0.379877	0.947207
C119	C	-0.777462	-0.181580	0.394726
C120	C	-0.277462	0.318420	0.894726
C121	C	-0.730042	-0.243037	0.447269
C122	C	-0.230042	0.256963	0.947269
C123	C	-0.730053	-0.243034	0.552290
C124	C	-0.230053	0.256966	1.052290
C125	C	-0.872290	-0.058665	0.289641
C126	C	-0.372290	0.441335	0.789641
C127	C	-0.777454	-0.181581	0.289698
C128	C	-0.277454	0.318419	0.789698
H129	H	-0.598007	-0.274675	-0.000222
H130	H	-0.098007	0.225325	0.499778
Br131	Br	-0.665693	-0.326448	0.376034
Br132	Br	-0.165693	0.173552	0.876034
Br133	Br	-0.613018	0.232122	-0.000207
Br134	Br	-0.113018	0.732122	0.499793
Br135	Br	-0.936646	0.024727	0.218339
Br136	Br	-0.436646	0.524727	0.718339
Br137	Br	-0.208128	0.076138	-0.000322
Br138	Br	0.291872	0.576138	0.499678
H139	H	-0.738876	-0.231616	0.752583
H140	H	-0.238876	0.268384	1.252583
Br141	Br	-0.441641	-0.316385	-0.000244
Br142	Br	0.058359	0.183615	0.499756
H143	H	-0.051759	0.034423	-0.000429
H144	H	0.448241	0.534423	0.499571
H145	H	-0.495798	0.025968	-0.000262
H146	H	0.004202	0.525968	0.499738
Br147	Br	-0.984077	0.086195	0.375843
Br148	Br	-0.484077	0.586195	0.875843
H149	H	-0.627925	0.023463	-0.000202
H150	H	-0.127925	0.523463	0.499798
H151	H	-0.153968	-0.266225	-0.000319
H152	H	0.346032	0.233775	0.499681
H153	H	-0.910934	-0.008637	0.752466
H154	H	-0.410934	0.491363	1.252466
H155	H	-0.021850	-0.263708	-0.000346
H156	H	0.478150	0.236292	0.499654
H157	H	-0.712835	0.133582	-0.000256
H158	H	-0.212835	0.633582	0.499744
H159	H	-0.644657	0.434227	-0.000226
H160	H	-0.144657	0.934227	0.499774
H161	H	-0.706174	0.586271	-0.000241
H162	H	-0.206174	1.086271	0.499759
H163	H	-0.936921	0.626167	-0.000304
H164	H	-0.436921	1.126167	0.499696
Br165	Br	-0.984093	0.086181	0.623388
Br166	Br	-0.484093	0.586181	1.123388
H167	H	-1.002595	0.496120	-0.000326
H168	H	-0.502595	0.996120	0.499674
Br169	Br	-1.040023	0.305976	-0.000364
Br170	Br	-0.540023	0.805976	0.499636
Br171	Br	-0.978497	0.153927	-0.000316
Br172	Br	-0.478497	0.653927	0.499684
Br173	Br	-0.713088	-0.264983	0.218483
Br174	Br	-0.213088	0.235017	0.718483
H175	H	-0.691446	-0.293072	0.595077
H176	H	-0.191446	0.206928	1.095077
