data_functionalizedCrystal
_audit_creation_method	'MofGen! by Chris Wilmer'
_symmetry_space_group_name_H-M	'P1'
_symmetry_Int_Tables_number	1
_symmetry_cell_setting	triclinic
loop_
_symmetry_equiv_pos_as_xyz
  x,y,z
_cell_length_a	18.050582
_cell_length_b	18.050591
_cell_length_c	18.050589
_cell_angle_alpha	90.024227
_cell_angle_beta	90.018205
_cell_angle_gamma	90.020922
loop_
_atom_site_label
_atom_site_type_symbol
_atom_site_fract_x
_atom_site_fract_y
_atom_site_fract_z
Zn1	Zn	-0.420054	-1.135293	0.295786
Zn2	Zn	0.079946	-0.635293	0.795786
Zn3	Zn	-0.295873	-1.135203	0.419969
Zn4	Zn	0.204127	-0.635203	0.919969
Zn5	Zn	-0.295865	-1.011112	0.295789
Zn6	Zn	0.204135	-0.511112	0.795789
Zn7	Zn	-0.420009	-1.011060	0.419930
Zn8	Zn	0.079991	-0.511060	0.919930
O9	O	-0.357950	-1.073167	0.357868
O10	O	0.142050	-0.573167	0.857868
O11	O	-0.403603	-1.239205	0.312274
O12	O	0.096397	-0.739205	0.812274
O13	O	-0.191948	-1.118727	0.403514
O14	O	0.308052	-0.618727	0.903514
O15	O	-0.312354	-1.027644	0.191864
O16	O	0.187646	-0.527644	0.691864
O17	O	-0.312369	-1.239140	0.403511
O18	O	0.187631	-0.739140	0.903511
O19	O	-0.403595	-1.118879	0.191862
O20	O	0.096405	-0.618879	0.691862
O21	O	-0.191942	-1.027557	0.312279
O22	O	0.308058	-0.527557	0.812279
O23	O	-0.312311	-0.907180	0.312241
O24	O	0.187689	-0.407180	0.812241
O25	O	-0.523940	-1.027555	0.403444
O26	O	-0.023940	-0.527555	0.903444
O27	O	-0.403519	-0.907142	0.403447
O28	O	0.096481	-0.407142	0.903447
O29	O	-0.523973	-1.118828	0.312236
O30	O	-0.023973	-0.618828	0.812236
O31	O	-0.312325	-1.118676	0.523888
O32	O	0.187675	-0.618676	1.023888
O33	O	-0.403527	-1.027468	0.523860
O34	O	0.096473	-0.527468	1.023860
C35	C	-0.357909	-0.880215	0.357841
C36	C	0.142091	-0.380215	0.857841
C37	C	-0.357909	-0.797669	0.357847
C38	C	0.142091	-0.297669	0.857847
C39	C	-0.357938	-1.073077	0.550820
C40	C	0.142062	-0.573077	1.050820
C41	C	-0.357958	-1.073107	0.633366
C42	C	0.142042	-0.573107	1.133366
C43	C	-0.551656	-1.073196	0.357835
C44	C	-0.051656	-0.573196	0.857835
C45	C	-0.634202	-1.073208	0.357821
C46	C	-0.134202	-0.573208	0.857821
C47	C	-0.833635	-1.023612	0.407353
C48	C	-0.333635	-0.523612	0.907353
C49	C	-0.883034	-1.091367	0.425511
C50	C	-0.383034	-0.591367	0.925511
C51	C	-0.785332	-1.073245	0.357765
C52	C	-0.285332	-0.573245	0.857765
C53	C	-0.883014	-1.005527	0.339586
C54	C	-0.383014	-0.505527	0.839586
C55	C	-0.931317	-1.073274	0.357711
C56	C	-0.431317	-0.573274	0.857711
C57	C	-0.833645	-1.141036	0.375958
C58	C	-0.333645	-0.641036	0.875958
C59	C	-0.833620	-1.055150	0.290002
C60	C	-0.333620	-0.555150	0.790002
C61	C	-0.882998	-1.122952	0.308134
C62	C	-0.382998	-0.622952	0.808134
C63	C	-0.701234	-1.073227	0.357797
C64	C	-0.201234	-0.573227	0.857797
C65	C	-1.015414	-1.073300	0.357679
C66	C	-0.515414	-0.573300	0.857679
C67	C	-0.164998	-1.073181	0.357848
C68	C	0.335002	-0.573181	0.857848
C69	C	-0.082453	-1.073312	0.357652
C70	C	0.417547	-0.573312	0.857652
C71	C	-0.357992	-1.266872	0.357897
C72	C	0.142008	-0.766872	0.857897
C73	C	-0.358010	-1.349418	0.357909
C74	C	0.141990	-0.849418	0.857909
C75	C	-0.308425	-0.598217	0.308191
C76	C	0.191575	-0.098217	0.808191
C77	C	-0.290154	-0.548798	0.375927
C78	C	0.209846	-0.048798	0.875927
C79	C	-0.357943	-0.646539	0.357869
C80	C	0.142057	-0.146539	0.857869
C81	C	-0.376212	-0.548877	0.290157
C82	C	0.123788	-0.048877	0.790157
C83	C	-0.357974	-0.500553	0.357885
C84	C	0.142026	-0.000553	0.857885
C85	C	-0.339637	-0.598206	0.425641
C86	C	0.160363	-0.098206	0.925641
C87	C	-0.425726	-0.598289	0.339825
C88	C	0.074274	-0.098289	0.839825
C89	C	-0.407481	-0.548892	0.407607
C90	C	0.092519	-0.048892	0.907607
C91	C	-0.357923	-0.730637	0.357859
C92	C	0.142077	-0.230637	0.857859
C93	C	-0.357994	-0.416457	0.357903
C94	C	0.142006	0.083543	0.857903
C95	C	-0.357979	-1.073277	0.164163
C96	C	0.142021	-0.573277	0.664163
C97	C	-0.357991	-1.073324	0.081617
C98	C	0.142009	-0.573324	0.581617
C99	C	-0.407536	-1.023557	0.832828
C100	C	0.092464	-0.523557	1.332828
C101	C	-0.339767	-1.005459	0.882261
C102	C	0.160233	-0.505459	1.382261
C103	C	-0.357967	-1.073180	0.784497
C104	C	0.142033	-0.573180	1.284497
C105	C	-0.425744	-1.091314	0.882146
C106	C	0.074256	-0.591314	1.382146
C107	C	-0.357983	-1.073249	0.930482
C108	C	0.142017	-0.573249	1.430482
C109	C	-0.290162	-1.055046	0.832842
C110	C	0.209838	-0.555046	1.332842
C111	C	-0.376186	-1.140933	0.832722
C112	C	0.123814	-0.640933	1.332722
C113	C	-0.308370	-1.122861	0.882133
C114	C	0.191630	-0.622861	1.382133
C115	C	-0.357959	-1.073138	0.700398
C116	C	0.142041	-0.573138	1.200398
C117	C	-0.357983	-1.073291	1.014578
C118	C	0.142017	-0.573291	1.514578
H119	H	-0.811961	-0.981678	0.449342
H120	H	-0.311961	-0.481678	0.949342
O121	O	-0.501610	-0.627137	0.319579
O122	O	-0.001610	-0.127137	0.819579
H123	H	-0.539327	-0.579764	0.308955
H124	H	-0.039327	-0.079764	0.808955
O125	O	-0.252898	-0.626913	0.252606
O126	O	0.247102	-0.126913	0.752606
H127	H	-0.281960	-0.660769	0.210262
H128	H	0.218040	-0.160769	0.710262
O129	O	-0.804828	-1.034813	0.214157
O130	O	-0.304828	-0.534813	0.714157
H131	H	-0.852232	-1.024157	0.176463
H132	H	-0.352232	-0.524157	0.676463
O133	O	-0.396643	-0.520164	0.214295
O134	O	0.103357	-0.020164	0.714295
H135	H	-0.396967	-0.458679	0.215139
H136	H	0.103033	0.041321	0.715139
H137	H	-0.449395	-0.981531	0.811178
H138	H	0.050605	-0.481531	1.311178
O139	O	-0.319350	-0.929605	0.911086
O140	O	0.180650	-0.429605	1.411086
H141	H	-0.360567	-0.888482	0.891345
H142	H	0.139433	-0.388482	1.391345
H143	H	-0.232834	-1.039669	0.811275
H144	H	0.267166	-0.539669	1.311275
O145	O	-0.214246	-0.519993	0.396163
O146	O	0.285754	-0.019993	0.896163
H147	H	-0.173226	-0.539740	0.354841
H148	H	0.326774	-0.039740	0.854841
H149	H	-0.266409	-1.164855	0.903645
H150	H	0.233591	-0.664855	1.403645
O151	O	-0.911733	-0.929653	0.319238
O152	O	-0.411733	-0.429653	0.819238
H153	H	-0.946416	-0.907932	0.365126
H154	H	-0.446416	-0.407932	0.865126
H155	H	-0.324134	-0.619785	0.482928
H156	H	0.175866	-0.119785	0.982928
O157	O	-0.462963	-0.520364	0.463323
O158	O	0.037037	-0.020364	0.963323
H159	H	-0.447634	-0.540224	0.519457
H160	H	0.052366	-0.040224	1.019457
H161	H	-0.391613	-1.198184	0.810948
H162	H	0.108387	-0.698184	1.310948
H163	H	-0.483056	-1.106625	0.903802
H164	H	0.016944	-0.606625	1.403802
H165	H	-0.904739	-1.106690	0.482794
H166	H	-0.404739	-0.606690	0.982794
H167	H	-0.904535	-1.164986	0.266177
H168	H	-0.404535	-0.664986	0.766177
H169	H	-0.812050	-1.198333	0.391377
H170	H	-0.312050	-0.698333	0.891377
