data_functionalizedCrystal
_audit_creation_method	'MofGen! by Chris Wilmer'
_symmetry_space_group_name_H-M	'P1'
_symmetry_Int_Tables_number	1
_symmetry_cell_setting	triclinic
loop_
_symmetry_equiv_pos_as_xyz
  x,y,z
_cell_length_a	17.077404
_cell_length_b	19.805405
_cell_length_c	19.805399
_cell_angle_alpha	89.970699
_cell_angle_beta	89.981468
_cell_angle_gamma	90.026635
loop_
_atom_site_label
_atom_site_type_symbol
_atom_site_fract_x
_atom_site_fract_y
_atom_site_fract_z
Zn1	Zn	1.200028	-0.269475	-0.382693
Zn2	Zn	1.700028	0.230525	0.117307
Zn3	Zn	1.199929	-0.382663	-0.269501
Zn4	Zn	1.699929	0.117337	0.230499
Zn5	Zn	1.068762	-0.269494	-0.269519
Zn6	Zn	1.568762	0.230506	0.230481
Zn7	Zn	1.068720	-0.382628	-0.382650
Zn8	Zn	1.568720	0.117372	0.117350
O9	O	1.134360	-0.326065	-0.326091
O10	O	1.634360	0.173935	0.173909
O11	O	1.309862	-0.284496	-0.367688
O12	O	1.809862	0.215504	0.132312
O13	O	1.182506	-0.367674	-0.174787
O14	O	1.682506	0.132326	0.325213
O15	O	1.086234	-0.174775	-0.284558
O16	O	1.586234	0.325225	0.215442
O17	O	1.309789	-0.367655	-0.284526
O18	O	1.809789	0.132345	0.215474
O19	O	1.182674	-0.174761	-0.367706
O20	O	1.682674	0.325239	0.132294
O21	O	1.086138	-0.284529	-0.174800
O22	O	1.586138	0.215471	0.325200
O23	O	0.958909	-0.284494	-0.284516
O24	O	1.458909	0.215506	0.215484
O25	O	1.086162	-0.367595	-0.477372
O26	O	1.586162	0.132405	0.022628
O27	O	0.958878	-0.367613	-0.367633
O28	O	1.458878	0.132387	0.132367
O29	O	1.182633	-0.284462	-0.477404
O30	O	1.682633	0.215538	0.022596
O31	O	1.182465	-0.477375	-0.284485
O32	O	1.682465	0.022625	0.215515
O33	O	1.086066	-0.477349	-0.367615
O34	O	1.586066	0.022651	0.132385
C35	C	0.930412	-0.326053	-0.326072
C36	C	1.430412	0.173947	0.173928
C37	C	0.843162	-0.326064	-0.326080
C38	C	1.343162	0.173936	0.173920
C39	C	0.802176	-0.369409	-0.369289
C40	C	1.302176	0.130591	0.130711
C41	C	0.720196	-0.369410	-0.369300
C42	C	1.220196	0.130590	0.130700
C43	C	0.679203	-0.326070	-0.326098
C44	C	1.179203	0.173930	0.173902
C45	C	0.720194	-0.282719	-0.282887
C46	C	1.220194	0.217281	0.217113
C47	C	0.802173	-0.282715	-0.282880
C48	C	1.302173	0.217285	0.217120
C49	C	0.549324	-0.282733	-0.282903
C50	C	1.049324	0.217267	0.217097
C51	C	0.467339	-0.282738	-0.282909
C52	C	0.967339	0.217262	0.217091
C53	C	0.467347	-0.369428	-0.369324
C54	C	0.967347	0.130572	0.130676
C55	C	0.549326	-0.369424	-0.369317
C56	C	1.049326	0.130576	0.130683
C57	C	0.590312	-0.326074	-0.326104
C58	C	1.090312	0.173926	0.173896
C59	C	1.134271	-0.501921	-0.326058
C60	C	1.634271	-0.001921	0.173942
C61	C	1.134305	-0.577153	-0.326067
C62	C	1.634305	-0.077153	0.173933
C63	C	1.184549	-0.612488	-0.282826
C64	C	1.684549	-0.112488	0.217174
C65	C	1.184582	-0.683177	-0.282841
C66	C	1.684582	-0.183177	0.217159
C67	C	1.134367	-0.718528	-0.326094
C68	C	1.634367	-0.218528	0.173906
C69	C	1.084122	-0.683188	-0.369339
C70	C	1.584122	-0.183188	0.130661
C71	C	1.084093	-0.612501	-0.369327
C72	C	1.584093	-0.112501	0.130673
C73	C	1.084237	-0.968261	-0.369389
C74	C	1.584237	-0.468261	0.130611
C75	C	1.084268	-1.038954	-0.369396
C76	C	1.584268	-0.538954	0.130604
C77	C	1.184727	-1.038937	-0.282903
C78	C	1.684727	-0.538937	0.217097
C79	C	1.184698	-0.968250	-0.282891
C80	C	1.684698	-0.468250	0.217109
C81	C	1.134456	-0.932916	-0.326139
C82	C	1.634456	-0.432916	0.173861
C83	C	1.134421	-0.856267	-0.326123
C84	C	1.634421	-0.356267	0.173877
C85	C	1.134397	-0.795176	-0.326107
C86	C	1.634397	-0.295176	0.173893
C87	C	1.339104	-0.326078	-0.326110
C88	C	1.839104	0.173922	0.173890
C89	C	1.426354	-0.326083	-0.326118
C90	C	1.926354	0.173917	0.173882
C91	C	1.134404	-0.326022	-0.502634
C92	C	1.634404	0.173978	-0.002634
C93	C	1.134422	-0.326004	-0.577866
C94	C	1.634422	0.173996	-0.077866
C95	C	1.134470	-0.149522	-0.326138
C96	C	1.634470	0.350478	0.173862
C97	C	1.134517	-0.074290	-0.326159
C98	C	1.634517	0.425710	0.173841
C99	C	1.184656	-0.282715	-0.613227
C100	C	1.684656	0.217285	-0.113227
C101	C	1.184664	-0.282695	-0.683916
C102	C	1.684664	0.217305	-0.183916
C103	C	1.134442	-0.325969	-0.719241
C104	C	1.634442	0.174031	-0.219241
C105	C	1.084202	-0.369260	-0.683875
C106	C	1.584202	0.130740	-0.183875
C107	C	1.084191	-0.369276	-0.613187
C108	C	1.584191	0.130724	-0.113187
C109	C	1.084247	-0.369197	-0.968948
C110	C	1.584247	0.130803	-0.468948
C111	C	1.084264	-0.369179	-1.039640
C112	C	1.584264	0.130821	-0.539640
C113	C	1.184720	-0.282616	-1.039676
C114	C	1.684720	0.217384	-0.539676
C115	C	1.184709	-0.282632	-0.968989
C116	C	1.684709	0.217368	-0.468989
C117	C	1.134467	-0.325920	-0.933629
C118	C	1.634467	0.174080	-0.433629
C119	C	1.134458	-0.325940	-0.856980
C120	C	1.634458	0.174060	-0.356980
C121	C	1.134454	-0.325953	-0.795888
C122	C	1.634454	0.174047	-0.295888
C123	C	1.134361	-0.326059	-0.150235
C124	C	1.634361	0.173941	0.349765
C125	C	1.134494	-0.325886	-0.075003
C126	C	1.634494	0.174114	0.424997
H127	H	0.582692	-0.247427	-0.247721
H128	H	1.082692	0.252573	0.252279
O129	O	1.233410	-0.240494	-0.934710
O130	O	1.733410	0.259506	-0.434710
C131	C	1.271602	-0.125364	-0.913166
C132	C	1.771602	0.374636	-0.413166
C133	C	1.216389	-0.173013	-0.952012
C134	C	1.716389	0.326987	-0.452012
H135	H	1.257871	-0.070797	-0.927151
H136	H	1.757871	0.429203	-0.427151
H137	H	1.262967	-0.132747	-0.856560
H138	H	1.762967	0.367253	-0.356560
H139	H	1.334888	-0.137282	-0.927064
H140	H	1.834888	0.362718	-0.427064
H141	H	1.153082	-0.161125	-0.938171
H142	H	1.653082	0.338875	-0.438171
H143	H	1.225092	-0.165622	-1.008609
H144	H	1.725092	0.334378	-0.508609
H145	H	1.225627	-0.247366	-1.068475
H146	H	1.725627	0.252634	-0.568475
O147	O	1.035379	-0.411400	-0.578940
O148	O	1.535379	0.088600	-0.078940
C149	C	0.935723	-0.497248	-0.586359
C150	C	1.435723	0.002752	-0.086359
C151	C	0.990974	-0.449585	-0.625228
C152	C	1.490974	0.050415	-0.125228
H153	H	0.899795	-0.528123	-0.623766
H154	H	1.399795	-0.028123	-0.123766
H155	H	0.971706	-0.532691	-0.553284
H156	H	1.471706	-0.032691	-0.053284
H157	H	0.894722	-0.466174	-0.553245
H158	H	1.394722	0.033826	-0.053245
H159	H	1.031986	-0.480604	-0.658379
H160	H	1.531986	0.019396	-0.158379
H161	H	0.954942	-0.414140	-0.658261
H162	H	1.454942	0.085860	-0.158261
H163	H	1.043363	-0.404419	-1.068400
H164	H	1.543363	0.095581	-0.568400
H165	H	1.225585	-0.939469	-0.247669
H166	H	1.725585	-0.439469	0.252331
H167	H	0.835547	-0.404705	-0.404468
H168	H	1.335547	0.095295	0.095532
H169	H	1.043348	-0.404455	-0.940166
H170	H	1.543348	0.095545	-0.440166
H171	H	1.225640	-1.067714	-0.247692
H172	H	1.725640	-0.567714	0.252308
O173	O	1.233289	-0.578224	-0.240715
O174	O	1.733289	-0.078224	0.259285
C175	C	1.271432	-0.556618	-0.125606
C176	C	1.771432	-0.056618	0.374394
C177	C	1.216195	-0.595474	-0.173220
C178	C	1.716195	-0.095474	0.326780
H179	H	1.257620	-0.570539	-0.071026
H180	H	1.757620	-0.070539	0.428974
H181	H	1.334738	-0.570477	-0.137489
H182	H	1.834738	-0.070477	0.362511
H183	H	1.262794	-0.500030	-0.133057
H184	H	1.762794	-0.000030	0.366943
H185	H	1.224763	-0.652071	-0.165795
H186	H	1.724763	-0.152071	0.334205
H187	H	1.152909	-0.581559	-0.161325
H188	H	1.652909	-0.081559	0.338675
H189	H	1.225556	-0.247478	-0.584470
H190	H	1.725556	0.252522	-0.084470
H191	H	0.835543	-0.247415	-0.247698
H192	H	1.335543	0.252585	0.252302
O193	O	1.035466	-1.073191	-0.411482
O194	O	1.535466	-0.573191	0.088518
C195	C	0.935794	-1.065752	-0.497254
C196	C	1.435794	-0.565752	0.002746
C197	C	0.991032	-1.026894	-0.449642
C198	C	1.491032	-0.526894	0.050358
H199	H	0.899843	-1.028338	-0.528108
H200	H	1.399843	-0.528338	-0.028108
H201	H	0.971791	-1.098780	-0.532719
H202	H	1.471791	-0.598780	-0.032719
H203	H	0.894816	-1.098914	-0.466142
H204	H	1.394816	-0.598914	0.033858
H205	H	1.032022	-0.993696	-0.480699
H206	H	1.532022	-0.493696	0.019301
H207	H	0.954986	-0.993910	-0.414175
H208	H	1.454986	-0.493910	0.085825
O209	O	1.035488	-0.411274	-0.718292
O210	O	1.535488	0.088726	-0.218292
C211	C	0.990949	-0.449587	-0.827171
C212	C	1.490949	0.050413	-0.327171
C213	C	1.046170	-0.401982	-0.788280
C214	C	1.546170	0.098018	-0.288280
H215	H	0.999554	-0.442081	-0.883763
H216	H	1.499554	0.057919	-0.383763
H217	H	1.004696	-0.504183	-0.813309
H218	H	1.504696	-0.004183	-0.313309
H219	H	0.927667	-0.437705	-0.813226
H220	H	1.427667	0.062295	-0.313226
H221	H	1.109470	-0.413802	-0.802204
H222	H	1.609470	0.086198	-0.302204
H223	H	1.032356	-0.347399	-0.802145
H224	H	1.532356	0.152601	-0.302145
H225	H	0.686811	-0.247428	-0.247713
H226	H	1.186811	0.252572	0.252287
O227	O	0.589027	-0.411547	-0.411345
O228	O	1.089027	0.088453	0.088655
C229	C	0.580388	-0.497562	-0.497029
C230	C	1.080388	0.002438	0.002971
C231	C	0.535329	-0.449881	-0.449476
C232	C	1.035329	0.050119	0.050524
H233	H	0.536993	-0.528577	-0.527860
H234	H	1.036993	-0.028577	-0.027860
H235	H	0.618779	-0.466563	-0.532518
H236	H	1.118779	0.033437	-0.032518
H237	H	0.618758	-0.532878	-0.465872
H238	H	1.118758	-0.032878	0.034128
H239	H	0.496916	-0.414555	-0.480578
H240	H	0.996916	0.085445	0.019422
H241	H	0.496987	-0.480923	-0.413985
H242	H	0.996987	0.019077	0.086015
O243	O	0.427416	-0.411472	-0.411282
O244	O	0.927416	0.088528	0.088718
C245	C	0.301126	-0.449927	-0.449568
C246	C	0.801126	0.050073	0.050432
C247	C	0.346253	-0.402267	-0.402032
C248	C	0.846253	0.097733	0.097968
H249	H	0.235498	-0.442511	-0.442095
H250	H	0.735498	0.057489	0.057905
H251	H	0.317222	-0.438113	-0.504180
H252	H	0.817222	0.061887	-0.004180
H253	H	0.317258	-0.504480	-0.437585
H254	H	0.817258	-0.004480	0.062415
H255	H	0.330145	-0.347698	-0.413954
H256	H	0.830145	0.152302	0.086046
H257	H	0.330153	-0.414138	-0.347434
H258	H	0.830153	0.085862	0.152566
O259	O	1.035427	-0.717498	-0.411452
O260	O	1.535427	-0.217498	0.088548
C261	C	0.997223	-0.739047	-0.526557
C262	C	1.497223	-0.239047	-0.026557
C263	C	1.052432	-0.700163	-0.478942
C264	C	1.552432	-0.200163	0.021058
H265	H	1.010941	-0.725035	-0.581132
H266	H	1.510941	-0.225035	-0.081132
H267	H	1.005876	-0.795646	-0.519196
H268	H	1.505876	-0.295646	-0.019196
H269	H	0.933935	-0.725208	-0.514585
H270	H	1.433935	-0.225208	-0.014585
H271	H	1.115742	-0.713945	-0.490885
H272	H	1.615742	-0.213945	0.009115
H273	H	1.043712	-0.643573	-0.486312
H274	H	1.543712	-0.143573	0.013688
H275	H	0.686829	-0.404707	-0.404485
H276	H	1.186829	0.095293	0.095515
H277	H	1.043180	-0.583732	-0.404538
H278	H	1.543180	-0.083732	0.095462
O279	O	0.427639	-0.240570	-0.240925
O280	O	0.927639	0.259430	0.259075
C281	C	0.436277	-0.154605	-0.155192
C282	C	0.936277	0.345395	0.344808
C283	C	0.481336	-0.202314	-0.202715
C284	C	0.981336	0.297686	0.297285
H285	H	0.479672	-0.123672	-0.124277
H286	H	0.979672	0.376328	0.375723
H287	H	0.397948	-0.119217	-0.186308
H288	H	0.897948	0.380783	0.313692
H289	H	0.397845	-0.185645	-0.119774
H290	H	0.897845	0.314355	0.380226
H291	H	0.519811	-0.171328	-0.238143
H292	H	1.019811	0.328672	0.261857
H293	H	0.519616	-0.237704	-0.171557
H294	H	1.019616	0.262296	0.328443
O295	O	1.233426	-0.240548	-0.718186
O296	O	1.733426	0.259452	-0.218186
C297	C	1.271582	-0.125409	-0.739865
C298	C	1.771582	0.374591	-0.239865
C299	C	1.216320	-0.173068	-0.701004
C300	C	1.716320	0.326932	-0.201004
H301	H	1.257760	-0.070841	-0.725998
H302	H	1.757760	0.429159	-0.225998
H303	H	1.334879	-0.137250	-0.725958
H304	H	1.834879	0.362750	-0.225958
H305	H	1.262981	-0.132855	-0.796453
H306	H	1.762981	0.367145	-0.296453
H307	H	1.224851	-0.165648	-0.644407
H308	H	1.724851	0.334352	-0.144407
H309	H	1.153043	-0.161215	-0.714967
H310	H	1.653043	0.338785	-0.214967
O311	O	1.233547	-0.717376	-0.240872
O312	O	1.733547	-0.217376	0.259128
C313	C	1.367160	-0.738795	-0.208206
C314	C	1.867160	-0.238795	0.291794
C315	C	1.311759	-0.700045	-0.255767
C316	C	1.811759	-0.200045	0.244233
H317	H	1.430406	-0.724808	-0.220241
H318	H	1.930406	-0.224808	0.279759
H319	H	1.353488	-0.724908	-0.153606
H320	H	1.853488	-0.224908	0.346394
H321	H	1.358594	-0.795400	-0.215589
H322	H	1.858594	-0.295400	0.284411
H323	H	1.320294	-0.643431	-0.248444
H324	H	1.820294	-0.143431	0.251556
H325	H	1.325444	-0.713987	-0.310349
H326	H	1.825444	-0.213987	0.189651
H327	H	1.043327	-0.939498	-0.404601
H328	H	1.543327	-0.439498	0.095399
