data_functionalizedCrystal
_audit_creation_method	'MofGen! by Chris Wilmer'
_symmetry_space_group_name_H-M	'P1'
_symmetry_Int_Tables_number	1
_symmetry_cell_setting	triclinic
loop_
_symmetry_equiv_pos_as_xyz
  x,y,z
_cell_length_a	11.792254
_cell_length_b	19.188924
_cell_length_c	10.268362
_cell_angle_alpha	89.992651
_cell_angle_beta	89.995475
_cell_angle_gamma	83.670281
loop_
_atom_site_label
_atom_site_type_symbol
_atom_site_fract_x
_atom_site_fract_y
_atom_site_fract_z
O1	O	1.505463	0.095738	-0.108306
O2	O	2.005463	0.595738	0.391694
O3	O	1.174976	0.105591	-0.108309
O4	O	1.674976	0.605591	0.391691
O5	O	1.349761	-0.000937	-0.108292
O6	O	1.849761	0.499063	0.391708
O7	O	1.330679	0.202266	-0.108323
O8	O	1.830679	0.702266	0.391677
O9	O	1.349746	-0.000942	0.108309
O10	O	1.849746	0.499058	0.608309
O11	O	1.174961	0.105586	0.108292
O12	O	1.674961	0.605586	0.608292
O13	O	1.505448	0.095733	0.108295
O14	O	2.005448	0.595733	0.608295
Cu15	Cu	1.340203	0.100659	0.128071
Cu16	Cu	1.840203	0.600659	0.628071
Cu17	Cu	1.340221	0.100665	-0.128085
Cu18	Cu	1.840221	0.600665	0.371915
O19	O	1.330664	0.202261	0.108278
O20	O	1.830664	0.702261	0.608278
C21	C	1.132687	0.104968	-0.000009
C22	C	1.632687	0.604968	0.499991
C23	C	1.006702	0.103110	-0.000010
C24	C	1.506702	0.603110	0.499990
C25	C	0.904388	0.101601	-0.000015
C26	C	1.404388	0.601601	0.499985
C27	C	0.776030	0.099713	-0.000016
C28	C	1.276030	0.599713	0.499984
C29	C	1.349137	-0.026954	0.000010
C30	C	1.849137	0.473046	0.500010
C31	C	1.347286	-0.104470	0.000013
C32	C	1.847286	0.395530	0.500013
C33	C	1.346430	-0.140871	-0.118056
C34	C	1.846430	0.359129	0.381944
C35	C	1.344675	-0.213704	-0.118066
C36	C	1.844675	0.286296	0.381934
C37	C	1.343798	-0.250134	-0.000000
C38	C	1.843798	0.249866	0.500000
C39	C	1.344647	-0.213723	0.118085
C40	C	1.844647	0.286277	0.618085
C41	C	1.346391	-0.140891	0.118091
C42	C	1.846391	0.359109	0.618091
N43	N	1.405639	-0.369447	0.087874
N44	N	1.905639	0.130553	0.587874
N45	N	1.403985	-0.438635	0.087860
N46	N	1.903985	0.061365	0.587860
C47	C	1.338541	-0.469573	-0.000013
C48	C	1.838541	0.030427	0.499987
N49	N	1.274828	-0.428711	-0.087891
N50	N	1.774828	0.071289	0.412109
N51	N	1.276487	-0.359517	-0.087880
N52	N	1.776487	0.140483	0.412120
C53	C	1.341906	-0.329108	0.000006
C54	C	1.841906	0.170892	0.500006
C55	C	1.335780	-0.584948	-0.118101
C56	C	1.835780	-0.084948	0.381899
C57	C	1.334018	-0.657781	-0.118106
C58	C	1.834018	-0.157781	0.381894
C59	C	1.334002	-0.657800	0.118049
C60	C	1.834002	-0.157800	0.618049
C61	C	1.335753	-0.584967	0.118050
C62	C	1.835753	-0.084967	0.618050
C63	C	1.336647	-0.548546	-0.000028
C64	C	1.836647	-0.048546	0.499972
C65	C	1.547737	0.096356	-0.000008
C66	C	2.047737	0.596356	0.499992
C67	C	1.673722	0.098214	-0.000016
C68	C	2.173722	0.598214	0.499984
C69	C	1.331288	0.228278	-0.000027
C70	C	1.831288	0.728278	0.499973
C71	C	1.333139	0.305794	-0.000039
C72	C	1.833139	0.805794	0.499961
N73	N	1.340199	0.100655	0.308237
N74	N	1.840199	0.600655	0.808237
N75	N	1.340235	0.100663	-0.308251
N76	N	1.840235	0.600663	0.191749
C77	C	1.340216	0.100663	0.573907
C78	C	1.840216	0.600663	1.073907
C79	C	1.340203	0.100661	0.426069
C80	C	1.840203	0.600661	0.926069
H81	H	1.347155	-0.111221	-0.214205
H82	H	1.847155	0.388779	0.285795
C83	C	1.341977	-0.325380	0.222928
C84	C	1.841977	0.174620	0.722928
C85	C	1.343683	-0.253765	0.247866
C86	C	1.843683	0.246235	0.747866
H87	H	1.341383	-0.350098	0.303054
H88	H	1.841383	0.149902	0.803054
H89	H	1.275533	-0.332236	0.174417
H90	H	1.775533	0.167764	0.674417
H91	H	1.407871	-0.342378	0.174418
H92	H	1.907871	0.157622	0.674418
H93	H	1.277784	-0.236766	0.296369
H94	H	1.777784	0.263234	0.796369
H95	H	1.410134	-0.246905	0.296398
H96	H	1.910134	0.253095	0.796398
H97	H	1.347083	-0.111253	0.214241
H98	H	1.847083	0.388747	0.714241
C99	C	1.344820	-0.206373	-0.351494
C100	C	1.844820	0.293627	0.148506
C101	C	1.343690	-0.253724	-0.247857
C102	C	1.843690	0.246276	0.252143
H103	H	1.344205	-0.231079	-0.431619
H104	H	1.844205	0.268921	0.068381
H105	H	1.279349	-0.172886	-0.346557
H106	H	1.779349	0.327114	0.153443
H107	H	1.411687	-0.183049	-0.346601
H108	H	1.911687	0.316951	0.153399
H109	H	1.276819	-0.277044	-0.252744
H110	H	1.776819	0.222956	0.247256
H111	H	1.409168	-0.287224	-0.252796
H112	H	1.909168	0.212776	0.247204
H113	H	1.336502	-0.555291	-0.214247
H114	H	1.836502	-0.055291	0.285753
H115	H	1.333315	-0.687418	-0.214256
H116	H	1.833315	-0.187418	0.285744
C117	C	1.234455	-0.732216	0.255026
C118	C	1.734455	-0.232216	0.755026
C119	C	1.333011	-0.697828	0.247839
C120	C	1.833011	-0.197828	0.747839
H121	H	1.233839	-0.756930	0.335155
H122	H	1.733839	-0.256930	0.835155
H123	H	1.168990	-0.698725	0.250098
H124	H	1.668990	-0.198725	0.750098
H125	H	1.233711	-0.764326	0.184708
H126	H	1.733711	-0.264326	0.684708
H127	H	1.333752	-0.665714	0.318152
H128	H	1.833752	-0.165714	0.818152
H129	H	1.398494	-0.731323	0.252780
H130	H	1.898494	-0.231323	0.752780
C131	C	1.335585	-0.592306	0.351470
C132	C	1.835585	-0.092306	0.851470
C133	C	1.336718	-0.544952	0.247838
C134	C	1.836718	-0.044952	0.747838
H135	H	1.336188	-0.567601	0.431597
H136	H	1.836188	-0.067601	0.931597
H137	H	1.268737	-0.615635	0.346563
H138	H	1.768737	-0.115635	0.846563
H139	H	1.401075	-0.625790	0.346540
H140	H	1.901075	-0.125790	0.846540
H141	H	1.271223	-0.511471	0.252762
H142	H	1.771223	-0.011471	0.752762
H143	H	1.403573	-0.521612	0.252747
H144	H	1.903573	-0.021612	0.752747
