data_functionalizedCrystal
_audit_creation_method	'MofGen! by Chris Wilmer'
_symmetry_space_group_name_H-M	'P1'
_symmetry_Int_Tables_number	1
_symmetry_cell_setting	triclinic
loop_
_symmetry_equiv_pos_as_xyz
  x,y,z
_cell_length_a	6.817900
_cell_length_b	12.840946
_cell_length_c	16.255699
_cell_angle_alpha	81.392063
_cell_angle_beta	103.489404
_cell_angle_gamma	88.344365
loop_
_atom_site_label
_atom_site_type_symbol
_atom_site_fract_x
_atom_site_fract_y
_atom_site_fract_z
V1	V	-3.898252	0.325568	-0.119098
O2	O	-3.888321	0.319014	0.003659
O3	O	-3.850543	0.323684	-0.234165
O4	O	-3.793852	0.467403	-0.118171
O5	O	-3.945404	0.174300	-0.113138
V6	V	-4.389047	0.307434	-0.104308
O7	O	-4.143559	0.365347	-0.151541
O8	O	-4.593937	0.267654	-0.071864
O9	O	-4.213549	0.309318	0.010760
O10	O	-4.516375	0.313987	-0.227064
O11	O	-4.459291	0.458701	-0.110267
O12	O	-4.270241	0.165598	-0.105234
C13	C	-3.697524	0.318636	-0.262188
C14	C	-3.739430	0.318041	-0.356263
C15	C	-3.625221	0.501963	-0.114222
C16	C	-3.621073	0.620096	-0.114225
C17	C	-4.085242	0.012910	-0.109216
C18	C	-4.102242	0.131038	-0.109197
C19	C	-3.652701	0.311222	-0.579047
C20	C	-3.769521	0.227169	-0.626148
C21	C	-3.816240	0.317002	-0.528511
C22	C	-3.774109	0.400005	-0.649037
C23	C	-3.890422	0.316002	-0.694894
C24	C	-3.932507	0.232885	-0.574362
C25	C	-3.937068	0.405799	-0.597256
C26	C	-4.054014	0.321729	-0.644332
C27	C	-3.773501	0.317577	-0.432661
C28	C	-3.933175	0.315420	-0.790741
V29	V	-3.881223	0.811736	-0.119122
O30	O	-3.917770	0.962925	-0.113173
O31	O	-3.786956	0.664548	-0.118185
O32	O	-3.831977	0.853480	-0.234190
O33	O	-3.872438	0.772685	0.003635
V34	V	-4.370074	0.849137	-0.104339
O35	O	-4.128466	0.796305	-0.151566
O36	O	-4.572236	0.887254	-0.071901
O37	O	-4.241527	0.985077	-0.105273
O38	O	-4.450717	0.703864	-0.110290
O39	O	-4.496049	0.894104	-0.227097
O40	O	-4.196506	0.796145	0.010732
C41	C	-4.029911	0.314363	0.038778
C42	C	-3.967241	0.314964	0.132853
C43	C	-3.678509	0.861097	-0.262207
C44	C	-3.719082	0.898367	-0.356282
C45	C	-4.013908	0.771560	0.038757
C46	C	-3.952611	0.733253	0.132834
C47	C	-3.918197	0.921336	-0.404808
C48	C	-3.956346	0.956371	-0.493201
C49	C	-3.795377	0.968428	-0.533066
C50	C	-3.596244	0.945459	-0.484532
C51	C	-3.558098	0.910433	-0.396141
C52	C	-3.749764	0.702853	0.172682
C53	C	-3.692138	0.666872	0.261079
C54	C	-3.837363	0.661284	0.309624
C55	C	-4.040227	0.691691	0.269771
C56	C	-4.097848	0.727678	0.181377
H57	H	-3.699134	0.151638	-0.639288
H58	H	-3.631484	0.707401	0.133168
H59	H	-3.482667	0.306678	-0.550516
C60	C	-3.837360	1.006949	-0.630300
C61	C	-4.056397	1.032203	-0.683671
C62	C	-4.098394	1.070719	-0.780906
C63	C	-3.921354	1.083981	-0.824769
C64	C	-3.702302	1.058726	-0.771396
C65	C	-3.660305	1.020210	-0.674162
H66	H	-4.187466	1.022386	-0.651202
H67	H	-4.260552	1.089414	-0.820415
H68	H	-3.952443	1.112493	-0.896747
H69	H	-3.571233	1.068543	-0.803866
H70	H	-3.498147	1.001516	-0.634653
H71	H	-3.526949	0.642116	0.293514
H72	H	-3.395955	0.891728	-0.356637
C73	C	-3.773963	0.621687	0.406857
C74	C	-3.550828	0.588241	0.450680
C75	C	-3.487415	0.548638	0.547911
C76	C	-3.647138	0.542481	0.601320
C77	C	-3.870288	0.575928	0.557498
C78	C	-3.933701	0.615531	0.460266
H79	H	-3.432578	0.592798	0.411144
H80	H	-3.322224	0.523879	0.580351
H81	H	-3.600197	0.513165	0.673296
H82	H	-3.988538	0.571371	0.597034
H83	H	-4.098892	0.640291	0.427826
H84	H	-4.158455	0.687136	0.309310
H85	H	-4.263029	0.752423	0.148939
H86	H	-4.049292	0.911520	-0.372363
H87	H	-3.999039	0.162184	-0.541960
C88	C	-4.032049	0.507832	-0.579464
C89	C	-4.011011	0.526578	-0.486512
C90	C	-4.105971	0.628622	-0.468719
C91	C	-4.221969	0.711920	-0.543878
C92	C	-4.243012	0.693176	-0.636836
C93	C	-4.148052	0.591133	-0.654629
H94	H	-3.925138	0.464914	-0.430870
H95	H	-4.090394	0.642497	-0.399905
H96	H	-4.292264	0.787458	-0.530706
H97	H	-4.328885	0.754840	-0.692478
H98	H	-4.163630	0.577258	-0.723443
H99	H	-3.465195	0.955282	-0.517004
H100	H	-4.224105	0.326144	-0.672692
H101	H	-3.707523	0.470612	-0.681539
H102	H	-4.118501	0.975065	-0.532705
