data_functionalizedCrystal
_audit_creation_method	'MofGen! by Chris Wilmer'
_symmetry_space_group_name_H-M	'P1'
_symmetry_Int_Tables_number	1
_symmetry_cell_setting	triclinic
loop_
_symmetry_equiv_pos_as_xyz
  x,y,z
_cell_length_a	12.594517
_cell_length_b	12.594516
_cell_length_c	12.645323
_cell_angle_alpha	90.023946
_cell_angle_beta	90.023683
_cell_angle_gamma	90.015485
loop_
_atom_site_label
_atom_site_type_symbol
_atom_site_fract_x
_atom_site_fract_y
_atom_site_fract_z
Zn1	Zn	1.627282	-0.423750	0.599482
Zn2	Zn	1.627169	-0.601753	0.422225
Zn3	Zn	1.449282	-0.423787	0.422223
Zn4	Zn	1.449268	-0.601685	0.599437
O5	O	1.538250	-0.512744	0.510841
O6	O	1.776213	-0.447375	0.575988
O7	O	1.603530	-0.578190	0.273877
O8	O	1.472947	-0.274836	0.445755
O9	O	1.776130	-0.578153	0.445757
O10	O	1.603723	-0.274809	0.575986
O11	O	1.472837	-0.447439	0.273876
O12	O	1.300334	-0.447373	0.445711
O13	O	1.472924	-0.578037	0.747790
O14	O	1.300324	-0.578074	0.575910
O15	O	1.603711	-0.447309	0.747823
O16	O	1.603517	-0.750690	0.445714
O17	O	1.472814	-0.750640	0.575911
C18	C	1.261709	-0.512721	0.510806
C19	C	1.143404	-0.512736	0.510816
C20	C	1.003362	-0.441570	0.440163
C21	C	1.074223	-0.415641	0.536898
C22	C	1.074114	-0.538618	0.414092
C23	C	1.003480	-0.486799	0.607680
C24	C	1.003365	-0.609821	0.484808
C25	C	1.074194	-0.583928	0.581610
C26	C	1.538181	-0.789285	0.510831
C27	C	1.538248	-0.907590	0.510862
C28	C	1.467152	-0.976855	0.581626
C29	C	1.441216	-1.047716	0.484893
C30	C	1.564281	-1.047528	0.607612
C31	C	1.512261	-0.976893	0.414078
C32	C	1.635371	-0.976699	0.536861
C33	C	1.609472	-1.047528	0.440062
C34	C	1.815871	-0.512768	0.510878
C35	C	1.934177	-0.512778	0.510893
C36	C	1.538329	-0.512661	0.787347
C37	C	1.538362	-0.512626	0.905177
C38	C	1.538349	-0.235123	0.510875
C39	C	1.538392	-0.116817	0.510889
C40	C	1.538233	-0.512749	0.235412
C41	C	1.538406	-0.512484	0.117582
C42	C	1.455831	-0.594480	1.072720
C43	C	1.456047	-0.594885	0.950160
C44	C	1.650513	-0.543068	0.949699
C45	C	1.650061	-0.543582	1.072298
C46	C	1.509803	-0.399873	1.072373
C47	C	1.507301	-0.400549	0.949766
H48	H	0.972264	-0.381324	0.380455
H49	H	1.490205	-0.945994	0.332246
C50	C	1.385797	-0.934924	0.662355
H51	H	1.421265	-0.893359	0.714190
H52	H	1.334562	-0.892450	0.627017
H53	H	1.351385	-0.993103	0.695674
C54	C	1.116025	-0.568178	0.303547
H55	H	1.091755	-0.517529	0.253411
H56	H	1.191442	-0.568590	0.304459
H57	H	1.090707	-0.636645	0.284563
H58	H	1.359148	-1.078933	0.462925
C59	C	1.116266	-0.304757	0.566681
H60	H	1.157802	-0.309657	0.629219
H61	H	1.158788	-0.277994	0.510677
H62	H	1.058130	-0.258211	0.578540
C63	C	1.690776	-1.089199	0.359152
H64	H	1.742824	-1.130651	0.394533
H65	H	1.655484	-1.131732	0.307994
H66	H	1.724193	-1.030913	0.325023
H67	H	0.972580	-0.464830	0.689535
H68	H	1.717420	-0.945484	0.558876
H69	H	1.586242	-1.078555	0.689421
C70	C	1.343706	-0.569138	0.909487
H71	H	1.297523	-0.558342	0.967891
H72	H	1.345972	-0.506585	0.867601
H73	H	1.318306	-0.626618	0.867891
H74	H	1.474530	-0.677442	1.103541
H75	H	1.105097	-0.644129	0.641460
C76	C	1.343146	-0.568992	1.112522
H77	H	1.345446	-0.508122	1.156862
H78	H	1.298030	-0.555413	1.053851
H79	H	1.316449	-0.627718	1.151433
H80	H	0.972218	-0.691882	0.462743
H81	H	1.674305	-0.625902	1.100910
H82	H	1.474930	-0.678369	0.920848
H83	H	1.713672	-0.486452	1.101976
H84	H	1.713688	-0.485235	0.920564
C85	C	1.683827	-0.653114	0.908259
H86	H	1.629548	-0.680654	0.863837
H87	H	1.747874	-0.646795	0.869111
H88	H	1.694589	-0.699795	0.966271
C89	C	1.401251	-0.362383	1.114117
H90	H	1.372355	-0.415066	1.159511
H91	H	1.409974	-0.297992	1.152294
H92	H	1.354444	-0.350986	1.056296
C93	C	1.395814	-0.369522	0.910444
H94	H	1.368305	-0.424631	0.867029
H95	H	1.350202	-0.359101	0.969349
H96	H	1.400162	-0.305697	0.870668
H97	H	1.563051	-0.336227	0.919145
H98	H	1.569947	-0.338783	1.101386
