data_functionalizedCrystal
_audit_creation_method	'MofGen! by Chris Wilmer'
_symmetry_space_group_name_H-M	'P1'
_symmetry_Int_Tables_number	1
_symmetry_cell_setting	triclinic
loop_
_symmetry_equiv_pos_as_xyz
  x,y,z
_cell_length_a	16.959455
_cell_length_b	19.121063
_cell_length_c	16.959447
_cell_angle_alpha	87.593376
_cell_angle_beta	90.020374
_cell_angle_gamma	92.466224
loop_
_atom_site_label
_atom_site_type_symbol
_atom_site_fract_x
_atom_site_fract_y
_atom_site_fract_z
Zn1	Zn	1.194915	-0.279655	0.460438
Zn2	Zn	1.189180	-0.397115	0.333888
Zn3	Zn	1.062742	-0.279677	0.328262
Zn4	Zn	1.057054	-0.397063	0.466010
O5	O	1.125973	-0.338378	0.397150
O6	O	1.304765	-0.295249	0.443673
O7	O	1.172389	-0.381568	0.222533
O8	O	1.085056	-0.181390	0.341109
O9	O	1.300551	-0.381547	0.350698
O10	O	1.182163	-0.181374	0.438218
O11	O	1.079496	-0.295287	0.218399
O12	O	0.951378	-0.295236	0.346513
O13	O	1.075360	-0.381457	0.575881
O14	O	0.947198	-0.381479	0.447715
O15	O	1.176647	-0.295198	0.571787
O16	O	1.166873	-0.495393	0.356101
O17	O	1.069800	-0.495354	0.453171
C18	C	0.920608	-0.338355	0.397109
C19	C	0.832751	-0.338362	0.397111
C20	C	0.459072	-0.383268	0.348709
C21	C	0.463474	-0.293545	0.445689
C22	C	0.546020	-0.293534	0.445669
C23	C	0.585096	-0.338391	0.397170
C24	C	0.541626	-0.383260	0.348690
C25	C	0.589497	-0.248671	0.494154
C26	C	0.672048	-0.248658	0.494137
C27	C	0.711126	-0.293512	0.445632
C28	C	0.667650	-0.338382	0.397150
C29	C	0.706726	-0.383239	0.348651
C30	C	0.663252	-0.428106	0.300164
C31	C	0.580704	-0.428114	0.300186
C32	C	0.793675	-0.293505	0.445610
C33	C	0.789280	-0.383231	0.348631
C34	C	1.117118	-0.520857	0.405868
C35	C	1.113402	-0.598923	0.409624
C36	C	1.162236	-0.635595	0.360892
C37	C	1.158746	-0.708946	0.364429
C38	C	1.106418	-0.745624	0.416696
C39	C	1.057581	-0.708947	0.465433
C40	C	1.061076	-0.635597	0.461899
C41	C	1.093339	-0.967092	0.429896
C42	C	1.089847	-1.040447	0.433424
C43	C	1.191013	-1.040442	0.332421
C44	C	1.194500	-0.967091	0.328888
C45	C	1.145667	-0.930420	0.377629
C46	C	1.102847	-0.820600	0.420311
C47	C	1.149242	-0.855445	0.374017
C48	C	1.332140	-0.338401	0.397191
C49	C	1.419996	-0.338411	0.397209
C50	C	1.126009	-0.338319	0.603315
C51	C	1.126024	-0.338295	0.691171
C52	C	1.134884	-0.155185	0.388415
C53	C	1.138681	-0.077119	0.384692
C54	C	1.125985	-0.338385	0.191784
C55	C	1.126133	-0.338212	0.103919
C56	C	1.073387	-0.383132	1.064777
C57	C	1.178857	-0.293309	1.060509
C58	C	1.178835	-0.293324	0.977964
C59	C	1.126089	-0.338244	0.938821
C60	C	1.073365	-0.383150	0.982224
C61	C	1.231564	-0.248425	0.934555
C62	C	1.231545	-0.248438	0.852005
C63	C	1.178794	-0.293356	0.812861
C64	C	1.126067	-0.338262	0.856269
C65	C	1.073321	-0.383182	0.817126
C66	C	1.020590	-0.428086	0.860533
C67	C	1.020614	-0.428067	0.943080
C68	C	1.178770	-0.293375	0.730313
C69	C	1.073299	-0.383200	0.734574
H70	H	1.204845	-0.605737	0.318328
H71	H	1.274482	-0.211875	0.816670
H72	H	1.274512	-0.211858	0.966431
H73	H	1.198512	-0.738801	0.324746
C74	C	1.248888	-0.862806	0.274530
C75	C	1.206760	-0.815132	0.316565
H76	H	1.284398	-0.837912	0.239063
H77	H	1.213104	-0.891457	0.245643
H78	H	1.277745	-0.891373	0.310378
H79	H	1.177898	-0.786568	0.280717
H80	H	1.242549	-0.786469	0.345453
H81	H	1.221705	-0.256817	0.694975
C82	C	1.029098	-0.502051	1.095842
C83	C	1.015426	-0.432490	1.112483
H84	H	0.993311	-0.532522	1.125291
H85	H	1.081702	-0.512329	1.109873
H86	H	1.021539	-0.508481	1.041075
H87	H	1.022990	-0.426059	1.167249
H88	H	0.962809	-0.422209	1.098456
H89	H	0.423672	-0.419796	0.309230
H90	H	1.221805	-0.256741	1.092384
H91	H	1.053576	-0.937241	0.469581
H92	H	0.431653	-0.257028	0.485180
H93	H	1.060239	-0.850471	0.462865
H94	H	0.977647	-0.464663	0.828652
H95	H	0.821090	-0.419757	0.309134
H96	H	1.030340	-0.419774	0.702710
H97	H	1.014977	-0.738815	0.507993
H98	H	1.230772	-1.070307	0.292740
C99	C	0.990210	-1.033089	0.532928
C100	C	1.032330	-1.080765	0.490888
H101	H	0.954708	-1.057981	0.568405
H102	H	0.961352	-1.004525	0.497090
H103	H	1.026006	-1.004435	0.561812
H104	H	0.996535	-1.109416	0.461999
H105	H	1.061190	-1.109341	0.526731
C106	C	0.960727	-0.642965	0.562091
C107	C	1.007397	-0.595284	0.515469
H108	H	0.927587	-0.618076	0.595162
H109	H	0.993786	-0.671531	0.593731
H110	H	0.929146	-0.671616	0.528995
H111	H	1.038982	-0.566636	0.548565
H112	H	0.974334	-0.566706	0.483826
C113	C	0.464909	-0.208841	0.537228
C114	C	0.546544	-0.199363	0.547459
H115	H	0.438391	-0.178395	0.570133
H116	H	0.449106	-0.256039	0.550970
H117	H	0.451864	-0.198506	0.483644
H118	H	0.559590	-0.209704	0.601043
H119	H	0.562353	-0.152155	0.533722
C120	C	0.887037	-0.283864	0.551468
C121	C	0.841462	-0.244195	0.498904
H122	H	0.916534	-0.253419	0.584373
H123	H	0.922119	-0.310568	0.522576
H124	H	0.853362	-0.314502	0.583113
H125	H	0.875137	-0.213560	0.467255
H126	H	0.806376	-0.217479	0.527799
H127	H	0.977686	-0.464627	0.978429
H128	H	0.707438	-0.212124	0.533617
H129	H	1.237110	-0.937230	0.286329
H130	H	0.695079	-0.464633	0.260680
H131	H	0.545300	-0.464642	0.260710
