data_functionalizedCrystal
_audit_creation_method	'MofGen! by Chris Wilmer'
_symmetry_space_group_name_H-M	'P1'
_symmetry_Int_Tables_number	1
_symmetry_cell_setting	triclinic
loop_
_symmetry_equiv_pos_as_xyz
  x,y,z
_cell_length_a	10.654550
_cell_length_b	14.971486
_cell_length_c	9.130313
_cell_angle_alpha	89.995272
_cell_angle_beta	89.999724
_cell_angle_gamma	84.049530
loop_
_atom_site_label
_atom_site_type_symbol
_atom_site_fract_x
_atom_site_fract_y
_atom_site_fract_z
O1	O	1.666492	0.125631	-0.121691
O2	O	1.300885	0.137600	-0.121718
O3	O	1.493487	0.001469	-0.121693
O4	O	1.473889	0.261762	-0.121716
O5	O	1.493474	0.001465	0.121906
O6	O	1.300872	0.137596	0.121881
O7	O	1.666479	0.125627	0.121908
Cu8	Cu	1.483674	0.131611	0.144137
Cu9	Cu	1.483689	0.131616	-0.143947
O10	O	1.473876	0.261758	0.121883
C11	C	1.254090	0.136720	0.000078
C12	C	1.114675	0.134090	0.000068
C13	C	1.034329	0.214242	0.000065
C14	C	0.903335	0.211766	0.000091
C15	C	0.933044	0.048979	0.000116
C16	C	1.064036	0.051456	0.000101
C17	C	1.492604	-0.031863	0.000106
C18	C	1.489978	-0.131174	0.000104
C19	C	1.603127	-0.187783	0.000114
C20	C	1.600651	-0.281096	0.000099
C21	C	1.485026	-0.317798	0.000085
C22	C	1.371868	-0.261181	0.000071
C23	C	1.374345	-0.167870	0.000075
C24	C	1.366714	-0.455672	0.000065
C25	C	1.364237	-0.548989	0.000064
C26	C	1.593020	-0.568898	0.000089
C27	C	1.595497	-0.475587	0.000093
C28	C	1.482339	-0.418976	0.000082
C29	C	1.713274	0.126508	0.000109
C30	C	1.852689	0.129137	0.000109
C31	C	1.474759	0.295090	0.000081
C32	C	1.477385	0.394401	0.000073
N33	N	1.483672	0.131608	0.346760
N34	N	1.483701	0.131613	-0.346570
C35	C	1.568985	0.071354	0.423422
C36	C	1.568997	0.071354	0.576759
C37	C	1.398379	0.191869	0.576757
C38	C	1.398362	0.191864	0.423423
H39	H	0.837922	0.277034	0.000092
H40	H	1.129457	-0.013817	0.000107
N41	N	0.878427	-0.040144	0.000159
H42	H	0.783252	-0.029552	0.000168
H43	H	0.907802	-0.075259	-0.090140
N44	N	1.239527	-0.588573	0.000033
H45	H	1.233422	-0.626843	-0.090270
H46	H	1.233465	-0.626803	0.090394
N47	N	1.727838	-0.148201	0.000142
H48	H	1.799141	-0.198226	0.000144
H49	H	1.733857	-0.109913	-0.090159
H50	H	1.692789	-0.327185	0.000110
N51	N	1.720204	-0.435998	0.000125
H52	H	1.791513	-0.486018	0.000130
H53	H	1.726219	-0.397709	-0.090176
N54	N	1.661030	0.006380	0.659447
H55	H	1.715073	-0.031786	0.587609
H56	H	1.716588	0.041010	0.723039
H57	H	1.274568	-0.409581	0.000053
H58	H	1.685158	-0.614995	0.000093
H59	H	1.277724	-0.291071	0.000051
H60	H	1.075554	0.281528	0.000050
H61	H	1.328884	0.240930	0.361000
H62	H	1.282207	-0.121779	0.000068
N63	N	1.306377	0.256856	0.659456
H64	H	1.354428	0.296782	0.723054
H65	H	1.252346	0.294965	0.587532
H66	H	1.638448	0.022288	0.361007
