data_functionalizedCrystal
_audit_creation_method	'MofGen! by Chris Wilmer'
_symmetry_space_group_name_H-M	'P1'
_symmetry_Int_Tables_number	1
_symmetry_cell_setting	triclinic
loop_
_symmetry_equiv_pos_as_xyz
  x,y,z
_cell_length_a	15.995343
_cell_length_b	14.853567
_cell_length_c	13.930277
_cell_angle_alpha	90.000757
_cell_angle_beta	90.002897
_cell_angle_gamma	83.562057
loop_
_atom_site_label
_atom_site_type_symbol
_atom_site_fract_x
_atom_site_fract_y
_atom_site_fract_z
O1	O	-1.111128	-0.116172	-0.079726
O2	O	-0.611128	0.383828	0.420274
O3	O	-0.867369	-0.130530	-0.079748
O4	O	-0.367369	0.369470	0.420252
O5	O	-0.995760	0.007888	-0.079740
O6	O	-0.495760	0.507888	0.420260
O7	O	-0.982737	-0.254590	-0.079735
O8	O	-0.482737	0.245410	0.420265
O9	O	-0.995742	0.007891	0.079922
O10	O	-0.495742	0.507891	0.579922
O11	O	-0.867351	-0.130527	0.079913
O12	O	-0.367351	0.369473	0.579913
O13	O	-1.111110	-0.116169	0.079936
O14	O	-0.611110	0.383831	0.579936
Zn15	Zn	-0.989228	-0.123347	0.105274
Zn16	Zn	-0.489228	0.376653	0.605274
Zn17	Zn	-0.989251	-0.123351	-0.105087
Zn18	Zn	-0.489251	0.376649	0.394913
O19	O	-0.982719	-0.254587	0.079927
O20	O	-0.482719	0.245413	0.579927
C21	C	-0.995161	0.041477	0.000088
C22	C	-0.495161	0.541477	0.500088
C23	C	-0.993392	0.141558	0.000080
C24	C	-0.493392	0.641558	0.500080
C25	C	-0.836164	-0.129936	0.000080
C26	C	-0.336164	0.370064	0.500080
C27	C	-0.743211	-0.128160	0.000071
C28	C	-0.243211	0.371840	0.500071
C29	C	-1.142315	-0.116763	0.000105
C30	C	-0.642315	0.383237	0.500105
C31	C	-1.235267	-0.118539	0.000108
C32	C	-0.735267	0.381461	0.500108
C33	C	-0.573021	-0.124937	0.000084
C34	C	-0.073021	0.375063	0.500084
C35	C	-0.549559	-0.025021	0.000082
C36	C	-0.049559	0.474979	0.500082
C37	C	-0.452879	-0.023141	0.000450
C38	C	0.047121	0.476859	0.500450
C39	C	-0.405458	-0.121762	0.000095
C40	C	0.094542	0.378238	0.500095
C41	C	-0.434597	-0.172000	0.091089
C42	C	0.065403	0.328000	0.591089
C43	C	-0.531391	-0.173185	0.091160
C44	C	-0.031391	0.326815	0.591160
C45	C	-0.531324	-0.174651	-0.090412
C46	C	-0.031324	0.325349	0.409588
C47	C	-0.434825	-0.170963	-0.091602
C48	C	0.065175	0.329037	0.408398
C49	C	-0.310757	-0.119973	0.000105
C50	C	0.189243	0.380027	0.500105
C51	C	-0.667721	-0.126729	0.000080
C52	C	-0.167721	0.373271	0.500080
C53	C	-0.983318	-0.288176	0.000097
C54	C	-0.483318	0.211824	0.500097
C55	C	-0.985086	-0.388257	0.000099
C56	C	-0.485086	0.111743	0.500099
N57	N	-0.989218	-0.123344	0.248840
N58	N	-0.489218	0.376656	0.748840
C59	C	-0.909651	0.553977	0.000091
C60	C	-0.409651	1.053977	0.500091
C61	C	-1.062182	0.575468	0.000104
C62	C	-0.562182	1.075468	0.500104
C63	C	-1.063845	0.481437	0.000099
C64	C	-0.563845	0.981437	0.500099
C65	C	-0.988409	0.423671	0.000091
C66	C	-0.488409	0.923671	0.500091
C67	C	-0.911311	0.459936	0.000088
C68	C	-0.411311	0.959936	0.500088
C69	C	-1.140942	0.445164	0.000111
C70	C	-0.640942	0.945164	0.500111
C71	C	-1.142607	0.351127	0.000107
C72	C	-0.642607	0.851127	0.500107
C73	C	-1.067171	0.293359	0.000092
C74	C	-0.567171	0.793359	0.500092
C75	C	-0.990070	0.329630	0.000088
C76	C	-0.490070	0.829630	0.500088
C77	C	-0.914634	0.271865	0.000080
C78	C	-0.414634	0.771865	0.500080
C79	C	-0.837532	0.308134	0.000069
C80	C	-0.337532	0.808134	0.500069
C81	C	-0.835875	0.402169	0.000073
C82	C	-0.335875	0.902169	0.500073
C83	C	-1.068828	0.199324	0.000088
C84	C	-0.568828	0.699324	0.500088
C85	C	-0.916294	0.177824	0.000077
C86	C	-0.416294	0.677824	0.500077
N87	N	-0.989268	-0.123347	-0.248653
N88	N	-0.489268	0.376653	0.251347
C89	C	-0.932397	-0.184619	0.701106
C90	C	-0.432397	0.315381	1.201106
C91	C	-1.046128	-0.062077	0.701083
C92	C	-0.546128	0.437923	1.201083
C93	C	-1.046118	-0.062074	0.600587
C94	C	-0.546118	0.437926	1.100587
C95	C	-0.989248	-0.123345	0.550346
C96	C	-0.489248	0.376655	1.050346
C97	C	-0.932387	-0.184619	0.600601
C98	C	-0.432387	0.315381	1.100601
C99	C	-1.102983	-0.000808	0.550325
C100	C	-0.602983	0.499192	1.050325
C101	C	-1.102976	-0.000803	0.449823
C102	C	-0.602976	0.499197	0.949823
C103	C	-1.046101	-0.062071	0.399580
C104	C	-0.546101	0.437929	0.899580
C105	C	-0.989238	-0.123346	0.449841
C106	C	-0.489238	0.376654	0.949841
C107	C	-0.932367	-0.184617	0.399600
C108	C	-0.432367	0.315383	0.899600
C109	C	-0.875500	-0.245890	0.449859
C110	C	-0.375500	0.254110	0.949859
C111	C	-0.875512	-0.245887	0.550358
C112	C	-0.375512	0.254113	1.050358
C113	C	-1.046088	-0.062073	0.299081
C114	C	-0.546088	0.437927	0.799081
C115	C	-0.932357	-0.184618	0.299095
C116	C	-0.432357	0.315382	0.799095
H117	H	-0.433821	0.016185	-0.064766
H118	H	0.066179	0.516185	0.435234
H119	H	-0.773102	0.431708	0.000065
H120	H	-0.273102	0.931708	0.500065
C121	C	-0.391682	-0.270053	0.095327
C122	C	0.108318	0.229947	0.595327
N123	N	-0.359353	-0.343905	0.098518
N124	N	0.140647	0.156095	0.598518
C125	C	-1.223915	0.508711	0.000127
C126	C	-0.723915	1.008711	0.500127
N127	N	-1.286413	0.556579	0.000138
N128	N	-0.786413	1.056579	0.500138
H129	H	-0.886043	-0.234510	0.258195
H130	H	-0.386043	0.265490	0.758195
H131	H	-0.829199	-0.295781	0.408941
H132	H	-0.329199	0.204219	0.908941
H133	H	-1.205388	0.321605	0.000114
H134	H	-0.705388	0.821605	0.500114
C135	C	-0.407397	-0.125427	0.182921
C136	C	0.092603	0.374573	0.682921
N137	N	-0.386912	-0.090343	0.252087
N138	N	0.113088	0.409657	0.752087
C139	C	-0.824842	0.593873	0.000088
C140	C	-0.324842	1.093873	0.500088
N141	N	-0.760964	0.623925	0.000090
N142	N	-0.260964	1.123925	0.500090
H143	H	-0.401952	-0.242923	-0.097377
H144	H	0.098048	0.257077	0.402623
C145	C	-1.145157	0.639013	0.000118
C146	C	-0.645157	1.139013	0.500118
N147	N	-1.207656	0.686879	0.000127
N148	N	-0.707656	1.186879	0.500127
C149	C	-0.569470	-0.132060	-0.183618
C150	C	-0.069470	0.367940	0.316382
N151	N	-0.598203	-0.099970	-0.253816
N152	N	-0.098203	0.400030	0.246184
C153	C	-1.165525	0.066604	0.394547
C154	C	-0.665525	0.566604	0.894547
N155	N	-1.212634	0.117379	0.352913
N156	N	-0.712634	0.617379	0.852913
C157	C	-0.812959	-0.313276	0.605650
C158	C	-0.312959	0.186724	1.105650
N159	N	-0.765844	-0.364031	0.647300
N160	N	-0.265844	0.135969	1.147300
H161	H	-1.131603	0.169798	0.000103
H162	H	-0.631603	0.669798	0.500103
H163	H	-0.886094	-0.234503	0.742029
H164	H	-0.386094	0.265497	1.242029
H165	H	-1.092434	-0.012196	0.741992
H166	H	-0.592434	0.487804	1.241992
H167	H	-1.092393	-0.012190	0.258165
H168	H	-0.592393	0.487810	0.758165
C169	C	-0.754556	0.244580	0.000060
C170	C	-0.254556	0.744580	0.500060
N171	N	-0.692060	0.196707	0.000052
N172	N	-0.192060	0.696707	0.500052
H173	H	-1.149289	0.049073	0.591234
H174	H	-0.649289	0.549073	1.091234
H175	H	-0.578492	0.013078	0.065236
H176	H	-0.078492	0.513078	0.565236
C177	C	-0.587361	0.027307	-0.088048
C178	C	-0.087361	0.527307	0.411952
N179	N	-0.615844	0.066723	-0.154426
N180	N	-0.115844	0.566723	0.345574
H181	H	-0.434390	0.016003	0.066058
H182	H	0.065610	0.516003	0.566058
C183	C	-0.567516	-0.126723	0.183396
C184	C	-0.067516	0.373277	0.683396
N185	N	-0.594722	-0.091724	0.252869
N186	N	-0.094722	0.408276	0.752869
H187	H	-0.546050	-0.246456	0.095052
H188	H	-0.046050	0.253544	0.595052
H189	H	-0.416232	-0.134377	-0.158921
H190	H	0.083768	0.365623	0.341079
H191	H	-0.545423	-0.248196	-0.091287
H192	H	-0.045423	0.251804	0.408713
H193	H	-0.854864	0.130796	0.000066
H194	H	-0.354864	0.630796	0.500066
