data_functionalizedCrystal
_audit_creation_method	'MofGen! by Chris Wilmer'
_symmetry_space_group_name_H-M	'P1'
_symmetry_Int_Tables_number	1
_symmetry_cell_setting	triclinic
loop_
_symmetry_equiv_pos_as_xyz
  x,y,z
_cell_length_a	11.792241
_cell_length_b	14.519731
_cell_length_c	10.868271
_cell_angle_alpha	89.993880
_cell_angle_beta	89.999461
_cell_angle_gamma	96.058865
loop_
_atom_site_label
_atom_site_type_symbol
_atom_site_fract_x
_atom_site_fract_y
_atom_site_fract_z
O1	O	-1.506220	0.126403	-0.102187
O2	O	-1.006220	0.626403	0.397813
O3	O	-1.175807	0.139430	-0.102220
O4	O	-0.675807	0.639430	0.397780
O5	O	-1.349761	-0.001288	-0.102192
O6	O	-0.849761	0.498712	0.397808
O7	O	-1.332266	0.267122	-0.102216
O8	O	-0.832266	0.767122	0.397784
O9	O	-1.349747	-0.001294	0.102453
O10	O	-0.849747	0.498706	0.602453
O11	O	-1.175793	0.139425	0.102424
O12	O	-0.675793	0.639425	0.602424
O13	O	-1.506205	0.126398	0.102457
O14	O	-1.006205	0.626398	0.602457
Zn15	Zn	-1.340997	0.132910	0.134933
Zn16	Zn	-0.840997	0.632910	0.634933
Zn17	Zn	-1.341016	0.132918	-0.134696
Zn18	Zn	-0.841016	0.632918	0.365304
O19	O	-1.332251	0.267116	0.102429
O20	O	-0.832251	0.767116	0.602429
C21	C	-1.133514	0.138609	0.000098
C22	C	-0.633514	0.638609	0.500098
C23	C	-1.007513	0.136160	0.000086
C24	C	-0.507513	0.636160	0.500086
C25	C	-0.776826	0.131656	0.000119
C26	C	-0.276826	0.631656	0.500119
C27	C	-0.905197	0.134159	0.000100
C28	C	-0.405197	0.634159	0.500100
C29	C	-1.348934	-0.035654	0.000131
C30	C	-0.848934	0.464346	0.500131
C31	C	-1.346478	-0.138043	0.000131
C32	C	-0.846478	0.361957	0.500131
C33	C	-1.344482	-0.221194	0.000128
C34	C	-0.844482	0.278806	0.500128
C35	C	-1.341988	-0.325512	0.000119
C36	C	-0.841988	0.174488	0.500119
C37	C	-1.340008	-0.408658	0.000110
C38	C	-0.840008	0.091342	0.500110
C39	C	-1.337514	-0.512983	0.000103
C40	C	-0.837514	-0.012983	0.500103
C41	C	-0.548499	0.127219	0.000133
C42	C	-0.048499	0.627219	0.500133
C43	C	-0.674499	0.129668	0.000128
C44	C	-0.174499	0.629668	0.500128
C45	C	-1.333078	0.301482	0.000104
C46	C	-0.833078	0.801482	0.500104
C47	C	-1.335535	0.403871	0.000095
C48	C	-0.835535	0.903871	0.500095
N49	N	-1.340992	0.132905	0.318947
N50	N	-0.840992	0.632905	0.818947
N51	N	-1.341029	0.132916	-0.318710
N52	N	-0.841029	0.632916	0.181290
C53	C	-1.341010	0.132916	0.569953
C54	C	-0.841010	0.632916	1.069953
C55	C	-1.340996	0.132912	0.430275
C56	C	-0.840996	0.632912	0.930275
