data_functionalizedCrystal
_audit_creation_method	'MofGen! by Chris Wilmer'
_symmetry_space_group_name_H-M	'P1'
_symmetry_Int_Tables_number	1
_symmetry_cell_setting	triclinic
loop_
_symmetry_equiv_pos_as_xyz
  x,y,z
_cell_length_a	15.944545
_cell_length_b	15.944551
_cell_length_c	13.330367
_cell_angle_alpha	90.003354
_cell_angle_beta	90.004904
_cell_angle_gamma	83.497455
loop_
_atom_site_label
_atom_site_type_symbol
_atom_site_fract_x
_atom_site_fract_y
_atom_site_fract_z
O1	O	1.114532	0.108304	0.083361
O2	O	0.869981	0.121665	0.083377
O3	O	0.998935	-0.007291	0.083360
O4	O	0.985578	0.237259	0.083378
O5	O	0.998915	-0.007288	-0.083488
O6	O	0.869962	0.121668	-0.083470
O7	O	1.114512	0.108306	-0.083486
Cu8	Cu	0.992235	0.114987	-0.098713
Cu9	Cu	0.992258	0.114984	0.098603
O10	O	0.985559	0.237262	-0.083469
C11	C	0.838677	0.121113	-0.000044
C12	C	0.745431	0.119453	-0.000038
C13	C	0.474798	0.034559	-0.000055
C14	C	0.525370	0.075489	-0.082319
C15	C	0.409787	0.113532	-0.000056
C16	C	0.525370	0.075508	0.082179
C17	C	0.574701	0.116437	-0.000046
C18	C	0.459131	0.154441	-0.082387
C19	C	0.459128	0.154448	0.082185
C20	C	0.509667	0.195436	-0.000099
C21	C	0.314785	0.111856	-0.000063
C22	C	0.669700	0.118119	-0.000046
C23	C	0.998370	-0.038583	-0.000064
C24	C	0.996708	-0.131829	-0.000065
C25	C	0.912803	-0.346684	-0.000045
C26	C	0.951756	-0.407701	-0.082314
C27	C	0.993701	-0.302555	-0.000057
C28	C	0.951795	-0.407687	0.082185
C29	C	0.990790	-0.467468	-0.000045
C30	C	1.032676	-0.362344	-0.082393
C31	C	1.032703	-0.362323	0.082179
C32	C	1.071715	-0.423322	-0.000109
C33	C	0.995375	-0.207553	-0.000064
C34	C	0.989122	-0.562469	-0.000044
C35	C	1.145816	0.108859	-0.000063
C36	C	1.239062	0.110519	-0.000062
C37	C	0.986123	0.268555	-0.000043
C38	C	0.987785	0.361801	-0.000036
N39	N	0.992225	0.114989	-0.237494
C40	C	0.941284	0.064013	-0.290020
C41	C	1.043176	0.165961	-0.289997
C42	C	1.043186	0.165961	-0.395015
C43	C	0.992245	0.114985	-0.447541
C44	C	0.941294	0.064009	-0.395048
C45	C	1.094142	0.216929	-0.447515
C46	C	1.094155	0.216929	-0.552540
C47	C	1.043209	0.165957	-0.605068
C48	C	0.992255	0.114980	-0.552569
C49	C	0.941314	0.064004	-0.605094
C50	C	0.890356	0.013031	-0.552597
C51	C	0.890348	0.013037	-0.447575
C52	C	1.043216	0.165952	-0.710089
C53	C	0.941324	0.064000	-0.710122
N54	N	0.992275	0.114976	0.237385
H55	H	0.459145	-0.033453	-0.000141
H56	H	1.135621	0.258425	-0.404741
H57	H	0.845655	-0.313375	-0.000123
O58	O	0.835415	-0.041958	-0.609243
H59	H	0.790277	-0.001720	-0.657101
O60	O	0.563692	0.031299	-0.174435
H61	H	0.536124	0.063447	-0.242658
O62	O	0.835453	-0.042003	-0.390957
H63	H	0.844036	-0.033464	-0.309105
O64	O	1.098122	0.220937	-0.233351
H65	H	1.079853	0.288061	-0.253514
H66	H	1.138922	-0.456483	-0.000160
O67	O	0.886371	0.008987	-0.233409
H68	H	0.894938	0.017531	-0.151555
H69	H	0.917532	-0.427807	-0.151860
O70	O	0.420774	0.198582	0.174312
H71	H	0.447429	0.165654	0.242501
H72	H	1.135648	0.258435	-0.595275
O73	O	0.886392	0.008997	-0.766760
H74	H	0.819257	0.027224	-0.746617
O75	O	0.563682	0.031321	0.174305
H76	H	0.550006	-0.035403	0.174121
O77	O	1.077947	-0.335875	-0.174630
H78	H	1.078792	-0.266366	-0.173932
H79	H	1.066898	-0.342195	0.151730
H80	H	0.917576	-0.427764	0.151741
O81	O	0.530204	0.285590	-0.000155
H82	H	0.470704	0.329081	-0.000839
O83	O	1.098173	0.220916	-0.766720
H84	H	1.079902	0.288045	-0.746575
O85	O	0.420973	0.198572	-0.174626
H86	H	0.351563	0.196963	-0.173930
