data_functionalizedCrystal
_audit_creation_method	'MofGen! by Chris Wilmer'
_symmetry_space_group_name_H-M	'P1'
_symmetry_Int_Tables_number	1
_symmetry_cell_setting	triclinic
loop_
_symmetry_equiv_pos_as_xyz
  x,y,z
_cell_length_a	29.839134
_cell_length_b	29.839131
_cell_length_c	29.839125
_cell_angle_alpha	90.013540
_cell_angle_beta	90.021980
_cell_angle_gamma	90.036564
loop_
_atom_site_label
_atom_site_type_symbol
_atom_site_fract_x
_atom_site_fract_y
_atom_site_fract_z
Zn1	Zn	0.686719	-0.178978	0.254138
Zn2	Zn	1.186719	0.321022	0.754138
Zn3	Zn	0.686651	-0.254090	0.179013
Zn4	Zn	1.186651	0.245910	0.679013
Zn5	Zn	0.611602	-0.178968	0.179008
Zn6	Zn	1.111602	0.321032	0.679008
Zn7	Zn	0.611549	-0.254075	0.254102
Zn8	Zn	1.111549	0.245925	0.754102
O9	O	0.649130	-0.216528	0.216565
O10	O	1.149130	0.283472	0.716565
O11	O	0.749577	-0.188952	0.244190
O12	O	1.249577	0.311048	0.744190
O13	O	0.676689	-0.244127	0.116146
O14	O	1.176689	0.255873	0.616146
O15	O	0.621617	-0.116102	0.188987
O16	O	1.121617	0.383898	0.688987
O17	O	0.749527	-0.244137	0.188996
O18	O	1.249527	0.255863	0.688996
O19	O	0.676805	-0.116109	0.244185
O20	O	1.176805	0.383891	0.744185
O21	O	0.621550	-0.188935	0.116141
O22	O	1.121550	0.311065	0.616141
O23	O	0.548727	-0.188921	0.188951
O24	O	1.048727	0.311079	0.688951
O25	O	0.621527	-0.244111	0.316974
O26	O	1.121527	0.255889	0.816974
O27	O	0.548689	-0.244101	0.244123
O28	O	1.048689	0.255899	0.744123
O29	O	0.676754	-0.188937	0.317000
O30	O	1.176754	0.311063	0.817000
O31	O	0.676638	-0.316955	0.188961
O32	O	1.176638	0.183045	0.688961
O33	O	0.621461	-0.316944	0.244129
O34	O	1.121461	0.183056	0.744129
C35	C	0.532407	-0.216509	0.216533
C36	C	1.032407	0.283491	0.716533
C37	C	0.482473	-0.216511	0.216530
C38	C	0.982473	0.283489	0.716530
C39	C	0.172819	-0.245303	0.245258
C40	C	0.672819	0.254697	0.745258
C41	C	-0.014854	-0.245315	0.245278
C42	C	0.485146	0.254685	0.745278
O43	O	-0.039128	-0.269774	0.269684
O44	O	0.460872	0.230226	0.769684
N45	N	-0.038312	-0.216544	0.216599
N46	N	0.461688	0.283456	0.716599
C47	C	-0.014849	-0.187766	0.187915
C48	C	0.485151	0.312234	0.687915
O49	O	-0.039108	-0.163291	0.163526
O50	O	0.460892	0.336709	0.663526
C51	C	0.172823	-0.187751	0.187898
C52	C	0.672823	0.312249	0.687898
C53	C	0.196279	-0.216527	0.216575
C54	C	0.696279	0.283473	0.716575
C55	C	0.196274	-0.274076	0.273933
C56	C	0.696274	0.225924	0.773933
C57	C	0.243190	-0.274075	0.273926
C58	C	0.743190	0.225925	0.773926
C59	C	0.266650	-0.245299	0.245244
C60	C	0.766650	0.254701	0.745244
C61	C	0.243194	-0.216526	0.216568
C62	C	0.743194	0.283474	0.716568
C63	C	0.196285	-0.158971	0.159217
C64	C	0.696285	0.341029	0.659217
C65	C	0.243207	-0.158969	0.159216
C66	C	0.743207	0.341031	0.659216
C67	C	0.266662	-0.187745	0.187893
C68	C	0.766662	0.312255	0.687893
C69	C	0.313570	-0.187749	0.187879
C70	C	0.813570	0.312251	0.687879
N71	N	0.337027	-0.216520	0.216558
N72	N	0.837027	0.283480	0.716558
C73	C	0.313568	-0.245295	0.245240
C74	C	0.813568	0.254705	0.745240
C75	C	-0.113380	-0.187776	0.187926
C76	C	0.386620	0.312224	0.687926
C77	C	-0.160297	-0.187780	0.187930
C78	C	0.339703	0.312220	0.687930
C79	C	-0.160299	-0.245329	0.245293
C80	C	0.339701	0.254671	0.745293
C81	C	-0.113381	-0.245327	0.245286
C82	C	0.386619	0.254673	0.745286
C83	C	-0.089922	-0.216547	0.216605
C84	C	0.410078	0.283453	0.716605
C85	C	0.412093	-0.245290	0.245223
C86	C	0.912093	0.254710	0.745223
C87	C	0.459013	-0.245287	0.245212
C88	C	0.959013	0.254713	0.745212
C89	C	0.459011	-0.187736	0.187851
C90	C	0.959011	0.312264	0.687851
C91	C	0.412095	-0.187740	0.187860
C92	C	0.912095	0.312260	0.687860
C93	C	0.388638	-0.216519	0.216550
C94	C	0.888638	0.283481	0.716550
O95	O	0.337872	-0.163299	0.163489
O96	O	0.837872	0.336701	0.663489
O97	O	0.337834	-0.269759	0.269633
O98	O	0.837834	0.230241	0.769633
C99	C	0.125903	-0.245304	0.245265
C100	C	0.625903	0.254696	0.745265
C101	C	0.102448	-0.216531	0.216589
C102	C	0.602448	0.283469	0.716589
C103	C	0.125908	-0.187755	0.187907
C104	C	0.625908	0.312245	0.687907
C105	C	0.055530	-0.216535	0.216593
C106	C	0.555530	0.283465	0.716593
C107	C	0.032070	-0.245310	0.245276
C108	C	0.532070	0.254690	0.745276
C109	C	0.055528	-0.274082	0.273954
C110	C	0.555528	0.225918	0.773954
C111	C	0.102444	-0.274080	0.273947
C112	C	0.602444	0.225920	0.773947
C113	C	0.102450	-0.158984	0.159228
C114	C	0.602450	0.341016	0.659228
C115	C	0.055534	-0.158989	0.159237
C116	C	0.555534	0.341011	0.659237
C117	C	0.032074	-0.187764	0.187920
C118	C	0.532074	0.312236	0.687920
C119	C	0.649048	-0.333250	0.216551
C120	C	1.149048	0.166750	0.716551
C121	C	0.649054	-0.383185	0.216561
C122	C	1.149054	0.116815	0.716561
C123	C	0.620418	-0.739782	0.245289
C124	C	1.120418	-0.239782	0.745289
C125	C	0.620358	-0.552109	0.245275
C126	C	1.120358	-0.052109	0.745275
O127	O	0.595913	-0.527853	0.269692
O128	O	1.095913	-0.027853	0.769692
N129	N	0.649102	-0.528630	0.216574
N130	N	1.149102	-0.028630	0.716574
C131	C	0.677864	-0.552072	0.187877
C132	C	1.177864	-0.052072	0.687877
O133	O	0.702314	-0.527796	0.163468
O134	O	1.202314	-0.027796	0.663468
C135	C	0.677926	-0.739744	0.187893
C136	C	1.177926	-0.239744	0.687893
C137	C	0.649177	-0.763221	0.216593
C138	C	1.149177	-0.263221	0.716593
C139	C	0.591672	-0.763258	0.273986
C140	C	1.091672	-0.263258	0.773986
C141	C	0.591685	-0.810174	0.273988
C142	C	1.091685	-0.310174	0.773988
C143	C	0.620445	-0.833613	0.245292
C144	C	1.120445	-0.333613	0.745292
C145	C	0.649190	-0.810136	0.216594
C146	C	1.149190	-0.310136	0.716594
C147	C	0.706690	-0.763186	0.159199
C148	C	1.206690	-0.263186	0.659199
C149	C	0.706703	-0.810107	0.159206
C150	C	1.206703	-0.310107	0.659206
C151	C	0.677955	-0.833583	0.187906
C152	C	1.177955	-0.333583	0.687906
C153	C	0.677963	-0.880491	0.187900
C154	C	1.177963	-0.380491	0.687900
N155	N	0.649220	-0.903969	0.216601
N156	N	1.149220	-0.403969	0.716601
C157	C	0.620460	-0.880530	0.245297
C158	C	1.120460	-0.380530	0.745297
C159	C	0.677829	-0.453541	0.187869
C160	C	1.177829	0.046459	0.687869
C161	C	0.677814	-0.406624	0.187865
C162	C	1.177814	0.093376	0.687865
C163	C	0.620308	-0.406663	0.245263
C164	C	1.120308	0.093337	0.745263
C165	C	0.620322	-0.453582	0.245266
C166	C	1.120322	0.046418	0.745266
C167	C	0.649086	-0.477020	0.216570
C168	C	1.149086	0.022980	0.716570
C169	C	0.620490	-0.979056	0.245297
C170	C	1.120490	-0.479056	0.745297
C171	C	0.620505	-1.025976	0.245295
C172	C	1.120505	-0.525976	0.745295
C173	C	0.678012	-1.025932	0.187898
C174	C	1.178012	-0.525932	0.687898
C175	C	0.677996	-0.979016	0.187899
C176	C	1.177996	-0.479016	0.687899
C177	C	0.649234	-0.955580	0.216602
C178	C	1.149234	-0.455580	0.716602
O179	O	0.702399	-0.904776	0.163499
O180	O	1.202399	-0.404776	0.663499
O181	O	0.596021	-0.904815	0.269709
O182	O	1.096021	-0.404815	0.769709
C183	C	0.620404	-0.692866	0.245287
C184	C	1.120404	-0.192866	0.745287
C185	C	0.649150	-0.669390	0.216590
C186	C	1.149150	-0.169390	0.716590
C187	C	0.677909	-0.692829	0.187894
C188	C	1.177909	-0.192829	0.687894
C189	C	0.649134	-0.622472	0.216585
C190	C	1.149134	-0.122472	0.716585
C191	C	0.620375	-0.599033	0.245281
C192	C	1.120375	-0.099033	0.745281
C193	C	0.591632	-0.622512	0.273982
C194	C	1.091632	-0.122512	0.773982
C195	C	0.591645	-0.669427	0.273983
C196	C	1.091645	-0.169427	0.773983
C197	C	0.706653	-0.669350	0.159193
C198	C	1.206653	-0.169350	0.659193
C199	C	0.706637	-0.622434	0.159194
C200	C	1.206637	-0.122434	0.659194
C201	C	0.677877	-0.598995	0.187890
C202	C	1.177877	-0.098995	0.687890
C203	C	0.766308	-0.216547	0.216598
C204	C	1.266308	0.283453	0.716598
C205	C	0.816243	-0.216555	0.216612
C206	C	1.316243	0.283445	0.716612
C207	C	0.649142	-0.216524	0.333744
C208	C	1.149142	0.283476	0.833744
C209	C	0.649147	-0.216522	0.383678
C210	C	1.149147	0.283478	0.883678
C211	C	0.649224	-0.099349	0.216589
C212	C	1.149224	0.400651	0.716589
C213	C	0.649264	-0.049415	0.216599
C214	C	1.149264	0.450585	0.716599
C215	C	0.649144	-0.216499	0.099843
C216	C	1.149144	0.283501	0.599843
C217	C	0.649226	-0.216374	0.049909
C218	C	1.149226	0.283626	0.549909
C219	C	0.677934	-0.187718	0.693338
C220	C	1.177934	0.312282	1.193338
C221	C	0.677956	-0.187680	0.881012
C222	C	1.177956	0.312320	1.381012
O223	O	0.702399	-0.163232	0.905291
O224	O	1.202399	0.336768	1.405291
N225	N	0.649207	-0.216402	0.904463
N226	N	1.149207	0.283598	1.404463
C227	C	0.620447	-0.245133	0.880994
C228	C	1.120447	0.254867	1.380994
O229	O	0.595991	-0.269559	0.905247
O230	O	1.095991	0.230441	1.405247
C231	C	0.620423	-0.245169	0.693322
C232	C	1.120423	0.254831	1.193322
C233	C	0.649178	-0.216448	0.669872
C234	C	1.149178	0.283552	1.169872
C235	C	0.706686	-0.158999	0.669889
C236	C	1.206686	0.341001	1.169889
C237	C	0.706682	-0.159011	0.622974
C238	C	1.206682	0.340989	1.122974
C239	C	0.677926	-0.187741	0.599507
C240	C	1.177926	0.312259	1.099507
C241	C	0.649174	-0.216460	0.622957
C242	C	1.149174	0.283540	1.122957
C243	C	0.591662	-0.273898	0.669853
C244	C	1.091662	0.226102	1.169853
C245	C	0.591658	-0.273903	0.622932
C246	C	1.091658	0.226097	1.122932
C247	C	0.620412	-0.245183	0.599483
C248	C	1.120412	0.254817	1.099483
C249	C	0.620414	-0.245202	0.552575
C250	C	1.120414	0.254798	1.052575
N251	N	0.649163	-0.216480	0.529124
N252	N	1.149163	0.283520	1.029124
C253	C	0.677919	-0.187749	0.552590
C254	C	1.177919	0.312251	1.052590
C255	C	0.620463	-0.245113	0.979525
C256	C	1.120463	0.254887	1.479525
C257	C	0.620469	-0.245105	1.026443
C258	C	1.120469	0.254895	1.526443
C259	C	0.677978	-0.187650	1.026457
C260	C	1.177978	0.312350	1.526457
C261	C	0.677973	-0.187661	0.979538
C262	C	1.177973	0.312339	1.479538
C263	C	0.649212	-0.216391	0.956073
C264	C	1.149212	0.283609	1.456073
C265	C	0.677909	-0.187776	0.454064
C266	C	1.177909	0.312224	0.954064
C267	C	0.677903	-0.187792	0.407144
C268	C	1.177903	0.312208	0.907144
C269	C	0.620393	-0.245244	0.407134
C270	C	1.120393	0.254756	0.907134
C271	C	0.620400	-0.245230	0.454049
C272	C	1.120400	0.254770	0.954049
C273	C	0.649159	-0.216493	0.477513
C274	C	1.149159	0.283507	0.977513
O275	O	0.595981	-0.269633	0.528267
O276	O	1.095981	0.230367	1.028267
O277	O	0.702365	-0.163320	0.528328
O278	O	1.202365	0.336680	1.028328
C279	C	0.677938	-0.187706	0.740254
C280	C	1.177938	0.312294	1.240254
C281	C	0.649186	-0.216425	0.763703
C282	C	1.149186	0.283575	1.263703
C283	C	0.620430	-0.245155	0.740237
C284	C	1.120430	0.254845	1.240237
C285	C	0.649193	-0.216417	0.810621
C286	C	1.149193	0.283583	1.310621
C287	C	0.677949	-0.187686	0.834087
C288	C	1.177949	0.312314	1.334087
C289	C	0.706699	-0.158964	0.810635
C290	C	1.206699	0.341036	1.310635
C291	C	0.706694	-0.158976	0.763720
C292	C	1.206694	0.341024	1.263720
C293	C	0.591680	-0.273877	0.763689
C294	C	1.091680	0.226123	1.263689
C295	C	0.591687	-0.273864	0.810605
C296	C	1.091687	0.226136	1.310605
C297	C	0.620443	-0.245133	0.834071
C298	C	1.120443	0.254867	1.334071
H299	H	-0.094284	-0.164339	0.164568
H300	H	0.405716	0.335661	0.664568
H301	H	0.730096	-0.135623	0.603885
H302	H	1.230096	0.364377	1.103885
H303	H	0.597043	-0.268511	0.960424
H304	H	1.097043	0.231489	1.460424
H305	H	0.730103	-0.135601	0.688990
H306	H	1.230103	0.364399	1.188990
O307	O	0.592447	-0.273068	0.476879
O308	O	1.092447	0.226932	0.976879
C309	C	0.531764	-0.279080	0.529801
C310	C	1.031764	0.220920	1.029801
C311	C	0.563406	-0.247509	0.503989
C312	C	1.063406	0.252491	1.003989
H313	H	0.508271	-0.258428	0.551718
H314	H	1.008271	0.241572	1.051718
H315	H	0.552342	-0.302563	0.551807
H316	H	1.052342	0.197437	1.051807
H317	H	0.511234	-0.299626	0.504957
H318	H	1.011234	0.200374	1.004957
H319	H	0.583944	-0.226934	0.528800
H320	H	1.083944	0.273066	1.028800
H321	H	0.542803	-0.224055	0.481975
H322	H	1.042803	0.275945	0.981975
O323	O	0.705728	-0.476376	0.160006
O324	O	1.205728	0.023624	0.660006
C325	C	0.711907	-0.529398	0.099402
C326	C	1.211907	-0.029398	0.599402
C327	C	0.680250	-0.503564	0.130914
C328	C	1.180250	-0.003564	0.630914
H329	H	0.691319	-0.551379	0.075868
H330	H	1.191319	-0.051379	0.575868
H331	H	0.735359	-0.551344	0.120080
H332	H	1.235359	-0.051344	0.620080
H333	H	0.732481	-0.504569	0.078910
H334	H	1.232481	-0.004569	0.578910
H335	H	0.659646	-0.528361	0.151413
H336	H	1.159646	-0.028361	0.651413
H337	H	0.656827	-0.481611	0.110210
H338	H	1.156827	0.018389	0.610210
H339	H	-0.179391	-0.164352	0.164573
H340	H	0.320609	0.335648	0.664573
O341	O	0.705917	-0.159718	0.956831
O342	O	1.205917	0.340282	1.456831
C343	C	0.762978	-0.102751	0.961810
C344	C	1.262978	0.397249	1.461810
C345	C	0.731347	-0.134369	0.987578
C346	C	1.231347	0.365631	1.487578
H347	H	0.783553	-0.082255	0.986658
H348	H	1.283553	0.417745	1.486658
H349	H	0.742391	-0.079228	0.939854
H350	H	1.242391	0.420772	1.439854
H351	H	0.786431	-0.123389	0.939835
H352	H	1.286431	0.376611	1.439835
H353	H	0.707888	-0.113767	1.009577
H354	H	1.207888	0.386233	1.509577
H355	H	0.751962	-0.157893	1.009505
H356	H	1.251962	0.342107	1.509505
H357	H	0.701393	-0.164257	1.045571
H358	H	1.201393	0.335743	1.545571
O359	O	0.563769	-0.692208	0.301929
O360	O	1.063769	-0.192208	0.801929
C361	C	0.541891	-0.706526	0.378326
C362	C	1.041891	-0.206526	0.878326
C363	C	0.573497	-0.680711	0.346726
C364	C	1.073497	-0.180711	0.846726
H365	H	0.549739	-0.697233	0.414550
H366	H	1.049739	-0.197233	0.914550
H367	H	0.546838	-0.744093	0.373444
H368	H	1.046838	-0.244093	0.873444
H369	H	0.505673	-0.697340	0.370371
H370	H	1.005673	-0.197340	0.870371
H371	H	0.609727	-0.689860	0.354660
H372	H	1.109727	-0.189860	0.854660
H373	H	0.568512	-0.643151	0.351613
H374	H	1.068512	-0.143151	0.851613
H375	H	0.596891	-0.387572	0.268628
H376	H	1.096891	0.112428	0.768628
H377	H	0.730046	-0.603323	0.135819
H378	H	1.230046	-0.103323	0.635819
H379	H	0.036419	-0.297513	0.297307
H380	H	0.536419	0.202487	0.797307
O381	O	0.563632	-0.599759	0.301812
O382	O	1.063632	-0.099759	0.801812
C383	C	0.487198	-0.585478	0.323558
C384	C	0.987198	-0.085478	0.823558
C385	C	0.518851	-0.611267	0.292005
C386	C	1.018851	-0.111267	0.792005
H387	H	0.450987	-0.594779	0.315648
H388	H	0.950987	-0.094779	0.815648
H389	H	0.492091	-0.547907	0.318623
H390	H	0.992091	-0.047907	0.818623
H391	H	0.495090	-0.594679	0.359790
H392	H	0.995090	-0.094679	0.859790
H393	H	0.510980	-0.602104	0.255762
H394	H	1.010980	-0.102104	0.755762
H395	H	0.513953	-0.648831	0.296979
H396	H	1.013953	-0.148831	0.796979
O397	O	0.592498	-0.273022	1.049149
O398	O	1.092498	0.226978	1.549149
C399	C	0.535475	-0.330026	1.044170
C400	C	1.035475	0.169974	1.544170
C401	C	0.567125	-0.298427	1.018402
C402	C	1.067125	0.201573	1.518402
H403	H	0.514959	-0.350581	1.019322
H404	H	1.014959	0.149419	1.519322
H405	H	0.511972	-0.309416	1.066118
H406	H	1.011972	0.190584	1.566118
H407	H	0.556090	-0.353499	1.066152
H408	H	1.056090	0.146501	1.566152
H409	H	0.546547	-0.274948	0.996395
H410	H	1.046547	0.225052	1.496395
H411	H	0.590629	-0.319066	0.996482
H412	H	1.090629	0.180934	1.496482
O413	O	0.592573	-0.956343	0.273241
O414	O	1.092573	-0.456343	0.773241
C415	C	0.570718	-0.941975	0.349636
C416	C	1.070718	-0.441975	0.849636
C417	C	0.602356	-0.967734	0.318044
C418	C	1.102356	-0.467734	0.818044
H419	H	0.578623	-0.951168	0.385866
H420	H	1.078623	-0.451168	0.885866
H421	H	0.534495	-0.951248	0.341741
H422	H	1.034495	-0.451248	0.841741
H423	H	0.575635	-0.904410	0.344686
H424	H	1.075635	-0.404410	0.844686
H425	H	0.597480	-1.005305	0.322976
H426	H	1.097480	-0.505305	0.822976
H427	H	0.638567	-0.958424	0.325946
H428	H	1.138567	-0.458424	0.825946
H429	H	0.121546	-0.135551	0.135871
H430	H	0.621546	0.364449	0.635871
O431	O	0.734662	-0.740458	0.131309
O432	O	1.234662	-0.240458	0.631309
C433	C	0.791694	-0.745390	0.074372
C434	C	1.291694	-0.245390	0.574372
C435	C	0.760041	-0.771184	0.105942
C436	C	1.260041	-0.271184	0.605942
H437	H	0.812214	-0.770222	0.053847
H438	H	1.312214	-0.270222	0.553847
H439	H	0.815193	-0.723411	0.095004
H440	H	1.315193	-0.223411	0.595004
H441	H	0.771081	-0.723437	0.050869
H442	H	1.271081	-0.223437	0.550869
H443	H	0.780618	-0.793162	0.129450
H444	H	1.280618	-0.293162	0.629450
H445	H	0.736541	-0.793135	0.085282
H446	H	1.236541	-0.293135	0.585282
O447	O	0.705850	-0.159847	0.384435
O448	O	1.205850	0.340153	0.884435
C449	C	0.762910	-0.102879	0.389410
C450	C	1.262910	0.397121	0.889410
C451	C	0.731278	-0.134494	0.415181
C452	C	1.231278	0.365506	0.915181
H453	H	0.783483	-0.082379	0.414256
H454	H	1.283483	0.417621	0.914256
H455	H	0.742324	-0.079359	0.367450
H456	H	1.242324	0.420641	0.867450
H457	H	0.786364	-0.123520	0.367439
H458	H	1.286364	0.376480	0.867439
H459	H	0.707817	-0.113890	0.437176
H460	H	1.207817	0.386110	0.937176
H461	H	0.751892	-0.158015	0.437112
H462	H	1.251892	0.341985	0.937112
H463	H	0.701218	-0.387512	0.164490
H464	H	1.201218	0.112488	0.664490
O465	O	0.563710	-0.740444	0.301800
O466	O	1.063710	-0.240444	0.801800
C467	C	0.503004	-0.687563	0.307770
C468	C	1.003004	-0.187563	0.807770
C469	C	0.534656	-0.713359	0.276221
C470	C	1.034656	-0.213359	0.776221
H471	H	0.479500	-0.665666	0.287101
H472	H	0.979500	-0.165666	0.787101
H473	H	0.523574	-0.665538	0.331279
H474	H	1.023574	-0.165538	0.831279
H475	H	0.482486	-0.712418	0.328288
H476	H	0.982486	-0.212418	0.828288
H477	H	0.555181	-0.688537	0.255673
H478	H	1.055181	-0.188537	0.755673
H479	H	0.514060	-0.735391	0.252741
H480	H	1.014060	-0.235391	0.752741
O481	O	0.563672	-0.301752	0.600121
O482	O	1.063672	0.198248	1.100121
C483	C	0.503021	-0.307808	0.547119
C484	C	1.003021	0.192192	1.047119
C485	C	0.534677	-0.276217	0.572929
C486	C	1.034677	0.223783	1.072929
H487	H	0.479577	-0.287176	0.525120
H488	H	0.979577	0.212824	1.025120
H489	H	0.482442	-0.328322	0.571924
H490	H	0.982442	0.171678	1.071924
H491	H	0.523633	-0.331319	0.525180
H492	H	1.023633	0.168681	1.025180
H493	H	0.514100	-0.252678	0.594868
H494	H	1.014100	0.247322	1.094868
H495	H	0.555257	-0.255734	0.548099
H496	H	1.055257	0.244266	1.048099
H497	H	0.177178	-0.297509	0.297292
H498	H	0.677178	0.202491	0.797292
H499	H	0.596915	-0.472694	0.268638
H500	H	1.096915	0.027306	0.768638
O501	O	0.734697	-0.832891	0.131396
O502	O	1.234697	-0.332891	0.631396
C503	C	0.795364	-0.885817	0.125431
C504	C	1.295364	-0.385817	0.625431
C505	C	0.763696	-0.860037	0.156975
C506	C	1.263696	-0.360037	0.656975
H507	H	0.818811	-0.907777	0.146098
H508	H	1.318811	-0.407777	0.646098
H509	H	0.815939	-0.860992	0.104931
H510	H	1.315939	-0.360992	0.604931
H511	H	0.774761	-0.907791	0.101903
H512	H	1.274761	-0.407791	0.601903
H513	H	0.784263	-0.838062	0.180530
H514	H	1.284263	-0.338062	0.680530
H515	H	0.743119	-0.884886	0.177443
H516	H	1.243119	-0.384886	0.677443
H517	H	-0.179408	-0.268759	0.268647
H518	H	0.320592	0.231241	0.768647
H519	H	0.596982	-0.268637	0.388019
H520	H	1.096982	0.231363	0.888019
O521	O	0.705958	-0.956278	0.160001
O522	O	1.205958	-0.456278	0.660001
C523	C	0.762973	-0.961196	0.103046
C524	C	1.262973	-0.461196	0.603046
C525	C	0.731333	-0.986998	0.134622
C526	C	1.231333	-0.486998	0.634622
H527	H	0.783490	-0.986022	0.082512
H528	H	1.283490	-0.486022	0.582512
H529	H	0.786475	-0.939216	0.123674
H530	H	1.286475	-0.439216	0.623674
H531	H	0.742350	-0.939243	0.079552
H532	H	1.242350	-0.439243	0.579552
H533	H	0.751920	-1.008976	0.158122
H534	H	1.251920	-0.508976	0.658122
H535	H	0.707830	-1.008950	0.113967
H536	H	1.207830	-0.508950	0.613967
O537	O	0.563699	-0.301724	0.740877
O538	O	1.063699	0.198276	1.240877
C539	C	0.503051	-0.307783	0.687871
C540	C	1.003051	0.192217	1.187871
C541	C	0.534704	-0.276191	0.713683
C542	C	1.034704	0.223809	1.213683
H543	H	0.479607	-0.287152	0.665872
H544	H	0.979607	0.212848	1.165872
H545	H	0.482473	-0.328299	0.712674
H546	H	0.982473	0.171701	1.212674
H547	H	0.523666	-0.331292	0.665933
H548	H	1.023666	0.168708	1.165933
H549	H	0.514124	-0.252654	0.735622
H550	H	1.014124	0.247346	1.235622
H551	H	0.555284	-0.255705	0.688856
H552	H	1.055284	0.244295	1.188856
O553	O	0.705923	-1.048775	0.160056
O554	O	1.205923	-0.548775	0.660056
C555	C	0.731385	-1.121043	0.134590
C556	C	1.231385	-0.621043	0.634590
C557	C	0.699764	-1.095228	0.166155
C558	C	1.199764	-0.595228	0.666155
H559	H	0.726409	-1.158605	0.139503
H560	H	1.226409	-0.658605	0.639503
H561	H	0.767616	-1.111825	0.142509
H562	H	1.267616	-0.611825	0.642509
H563	H	0.723515	-1.111805	0.098364
H564	H	1.223515	-0.611805	0.598364
H565	H	0.707593	-1.104452	0.202392
H566	H	1.207593	-0.604452	0.702392
H567	H	0.663542	-1.104448	0.158198
H568	H	1.163542	-0.604448	0.658198
H569	H	0.730109	-0.135588	0.744632
H570	H	1.230109	0.364412	1.244632
H571	H	0.568275	-0.829284	0.297357
H572	H	1.068275	-0.329284	0.797357
H573	H	0.730073	-0.688429	0.135825
H574	H	1.230073	-0.188429	0.635825
O575	O	0.173578	-0.130972	0.131347
O576	O	0.673578	0.369028	0.631347
C577	C	0.178552	-0.073901	0.074442
C578	C	0.678552	0.426099	0.574442
C579	C	0.204323	-0.105582	0.105990
C580	C	0.704323	0.394418	0.605990
H581	H	0.203398	-0.053372	0.053926
H582	H	0.703398	0.446628	0.553926
H583	H	0.156624	-0.050412	0.095091
H584	H	0.656624	0.449588	0.595091
H585	H	0.156549	-0.094492	0.050931
H586	H	0.656549	0.405508	0.550931
H587	H	0.226350	-0.085027	0.129507
H588	H	0.726350	0.414973	0.629507
H589	H	0.226222	-0.129072	0.085313
H590	H	0.726222	0.370928	0.585313
O591	O	0.734567	-0.131006	0.833455
O592	O	1.234567	0.368994	1.333455
C593	C	0.740654	-0.070362	0.886455
C594	C	1.240654	0.429638	1.386455
C595	C	0.709046	-0.101990	0.860630
C596	C	1.209046	0.398010	1.360630
H597	H	0.720033	-0.046902	0.908439
H598	H	1.220033	0.453098	1.408439
H599	H	0.761196	-0.049800	0.861659
H600	H	1.261196	0.450200	1.361659
H601	H	0.764138	-0.090996	0.908409
H602	H	1.264138	0.409004	1.408409
H603	H	0.685535	-0.081391	0.838675
H604	H	1.185535	0.418609	1.338675
H605	H	0.688535	-0.122554	0.885450
H606	H	1.188535	0.377446	1.385450
O607	O	-0.090667	-0.273292	0.273188
O608	O	0.409333	0.226708	0.773188
C609	C	-0.095634	-0.330392	0.330065
C610	C	0.404366	0.169608	0.830065
C611	C	-0.121409	-0.298737	0.298494
C612	C	0.378591	0.201263	0.798494
H613	H	-0.120478	-0.350980	0.350526
H614	H	0.379522	0.149020	0.850526
H615	H	-0.073660	-0.309822	0.353623
H616	H	0.426340	0.190178	0.853623
H617	H	-0.073677	-0.353831	0.309392
H618	H	0.426323	0.146169	0.809392
H619	H	-0.143391	-0.275292	0.319131
H620	H	0.356609	0.224708	0.819131
H621	H	-0.143355	-0.319335	0.274935
H622	H	0.356645	0.180665	0.774935
H623	H	0.701326	-0.164374	0.473162
H624	H	1.201326	0.335626	0.973162
O625	O	0.563711	-0.301780	0.833311
O626	O	1.063711	0.198220	1.333311
C627	C	0.506683	-0.358780	0.828332
C628	C	1.006683	0.141220	1.328332
C629	C	0.538338	-0.327186	0.802564
C630	C	1.038338	0.172814	1.302564
H631	H	0.486167	-0.379335	0.803484
H632	H	0.986167	0.120665	1.303484
H633	H	0.483180	-0.338165	0.850276
H634	H	0.983180	0.161835	1.350276
H635	H	0.527293	-0.382253	0.850318
H636	H	1.027293	0.117747	1.350318
H637	H	0.517763	-0.303707	0.780553
H638	H	1.017763	0.196293	1.280553
H639	H	0.561842	-0.347828	0.780648
H640	H	1.061842	0.152172	1.280648
H641	H	0.568247	-0.297285	0.688938
H642	H	1.068247	0.202715	1.188938
H643	H	0.478108	-0.268721	0.268565
H644	H	0.978108	0.231279	0.768565
O645	O	0.389381	-0.273286	0.273106
O646	O	0.889381	0.226714	0.773106
C647	C	0.394343	-0.330347	0.330020
C648	C	0.894343	0.169653	0.830020
C649	C	0.420120	-0.298671	0.298460
C650	C	0.920120	0.201329	0.798460
H651	H	0.419185	-0.350872	0.350533
H652	H	0.919185	0.149128	0.850533
H653	H	0.372364	-0.353841	0.309381
H654	H	0.872364	0.146159	0.809381
H655	H	0.372390	-0.309753	0.353533
H656	H	0.872390	0.190247	0.853533
H657	H	0.442097	-0.319229	0.274940
H658	H	0.942097	0.180771	0.774940
H659	H	0.442071	-0.275176	0.319127
H660	H	0.942071	0.224824	0.819127
H661	H	0.262283	-0.297506	0.297279
H662	H	0.762283	0.202494	0.797279
H663	H	0.597094	-1.045088	0.268667
H664	H	1.097094	-0.545088	0.768667
H665	H	0.392997	-0.164309	0.164507
H666	H	0.892997	0.335691	0.664507
O667	O	0.266063	-0.131026	0.131395
O668	O	0.766063	0.368974	0.631395
C669	C	0.338342	-0.105532	0.105939
C670	C	0.838342	0.394468	0.605939
C671	C	0.312514	-0.137190	0.137478
C672	C	0.812514	0.362810	0.637478
H673	H	0.375902	-0.110511	0.110840
H674	H	0.875902	0.389489	0.610840
H675	H	0.329175	-0.069310	0.113896
H676	H	0.829175	0.430690	0.613896
H677	H	0.329065	-0.113361	0.069707
H678	H	0.829065	0.386639	0.569707
H679	H	0.321777	-0.129402	0.173720
H680	H	0.821777	0.370598	0.673720
H681	H	0.321683	-0.173403	0.129482
H682	H	0.821683	0.326597	0.629482
O683	O	0.481874	-0.159798	0.160033
O684	O	0.981874	0.340202	0.660033
C685	C	0.554160	-0.134309	0.134595
C686	C	1.054160	0.365691	0.634595
C687	C	0.528323	-0.165967	0.166125
C688	C	1.028323	0.334033	0.666125
H689	H	0.591719	-0.139293	0.139503
H690	H	1.091719	0.360707	0.639503
H691	H	0.544996	-0.098087	0.142553
H692	H	1.044996	0.401913	0.642553
H693	H	0.544890	-0.142134	0.098360
H694	H	1.044890	0.357866	0.598360
H695	H	0.537579	-0.158183	0.202371
H696	H	1.037579	0.341817	0.702371
H697	H	0.537490	-0.202180	0.158129
H698	H	1.037490	0.297820	0.658129
H699	H	0.121537	-0.297512	0.297299
H700	H	0.621537	0.202488	0.797299
H701	H	0.036441	-0.135556	0.135881
H702	H	0.536441	0.364444	0.635881
