data_functionalizedCrystal
_audit_creation_method	'MofGen! by Chris Wilmer'
_symmetry_space_group_name_H-M	'P1'
_symmetry_Int_Tables_number	1
_symmetry_cell_setting	triclinic
loop_
_symmetry_equiv_pos_as_xyz
  x,y,z
_cell_length_a	16.992694
_cell_length_b	10.654541
_cell_length_c	15.455313
_cell_angle_alpha	92.691200
_cell_angle_beta	87.142206
_cell_angle_gamma	87.576076
loop_
_atom_site_label
_atom_site_type_symbol
_atom_site_fract_x
_atom_site_fract_y
_atom_site_fract_z
O1	O	1.045242	0.261289	-0.072021
O2	O	0.816942	0.258364	-0.072047
O3	O	0.936342	0.077541	-0.072028
O4	O	0.925843	0.442112	-0.072040
O5	O	0.929514	0.087836	0.072233
O6	O	0.810114	0.268659	0.072214
O7	O	1.038414	0.271584	0.072240
Cu8	Cu	0.923641	0.271061	0.085399
Cu9	Cu	0.931716	0.258886	-0.085206
O10	O	0.919015	0.452407	0.072221
C11	C	0.784296	0.259751	0.000080
C12	C	0.697191	0.248531	0.000071
C13	C	0.647539	0.356782	0.000068
C14	C	0.565694	0.346233	0.000080
C15	C	0.533504	0.227433	0.000089
C16	C	0.583162	0.119174	0.000095
C17	C	0.665005	0.129724	0.000089
C18	C	0.289667	0.183707	0.000114
C19	C	0.207818	0.173165	0.000117
C20	C	0.190356	0.400226	0.000105
C21	C	0.272201	0.410765	0.000093
C22	C	0.321852	0.302507	0.000103
N23	N	0.449846	0.216648	0.000099
N24	N	0.405508	0.313293	0.000100
C25	C	0.932158	0.035824	0.000102
C26	C	0.929852	-0.103819	0.000100
C27	C	1.072627	-0.119450	0.000127
C28	C	1.142928	-0.192868	0.000142
C29	C	1.140757	-0.324074	0.000139
C30	C	1.068277	-0.381864	0.000119
C31	C	0.997977	-0.308446	0.000103
C32	C	1.000155	-0.177238	0.000109
C33	C	0.855204	-0.292816	0.000070
C34	C	0.857373	-0.161609	0.000079
C35	C	0.782725	-0.350606	0.000050
C36	C	0.712422	-0.277188	0.000041
C37	C	0.714596	-0.145974	0.000045
C38	C	0.787072	-0.088191	0.000064
C39	C	1.071061	0.270197	0.000111
C40	C	1.158166	0.281416	0.000115
C41	C	0.923199	0.494124	0.000089
C42	C	0.925505	0.633766	0.000085
N43	N	0.917967	0.279624	0.205394
N44	N	0.937396	0.250314	-0.205201
C45	C	0.968710	0.202836	0.250796
C46	C	0.964427	0.209324	0.341603
C47	C	0.909403	0.292608	0.387007
C48	C	0.858655	0.369399	0.341598
C49	C	0.862935	0.362903	0.250793
C50	C	0.890928	0.320610	0.658585
C51	C	0.886653	0.327102	0.749397
C52	C	0.992424	0.167025	0.749396
C53	C	0.996703	0.160543	0.658588
C54	C	0.945952	0.237329	0.613188
N55	N	0.905025	0.299244	0.479826
N56	N	0.950326	0.230685	0.520370
H57	H	0.181613	0.076419	0.000124
O58	O	0.805132	0.450325	0.385566
C59	C	0.761273	0.516726	0.326017
H60	H	0.763163	0.460490	0.261294
H61	H	0.787701	0.611962	0.316346
C62	C	0.672791	0.605646	0.440959
C63	C	0.675107	0.536571	0.361467
H64	H	0.619641	0.617893	0.462827
H65	H	0.702341	0.560915	0.481079
H66	H	0.694818	0.685002	0.432889
H67	H	0.653090	0.457212	0.369540
H68	H	0.645552	0.581290	0.321349
H69	H	0.780962	-0.457442	0.000042
H70	H	0.330084	0.095555	0.000123
H71	H	0.525270	0.434383	0.000077
H72	H	0.149921	0.488363	0.000098
H73	H	1.033743	0.104508	0.786369
H74	H	0.298404	0.507504	0.000076
H75	H	0.849605	0.383135	0.621627
H76	H	0.788849	0.018643	0.000073
H77	H	1.198002	-0.383851	0.000145
O78	O	1.213357	-0.136796	0.000007
C79	C	1.259805	-0.178958	-0.074688
H80	H	1.219913	-0.214179	-0.126918
H81	H	1.302256	-0.258784	-0.057788
C82	C	1.356078	-0.026346	-0.044405
C83	C	1.307082	-0.069595	-0.108558
H84	H	1.385244	0.041112	-0.065296
H85	H	1.324787	0.002057	0.005920
H86	H	1.391447	-0.092878	-0.030328
H87	H	1.271708	-0.003068	-0.122626
H88	H	1.338368	-0.097984	-0.158886
H89	H	1.074401	-0.012615	0.000141
O90	O	0.833122	0.408025	0.793369
C91	C	0.789254	0.474423	0.733827
H92	H	0.791145	0.418193	0.669101
H93	H	0.815672	0.569666	0.724159
C94	C	0.700771	0.563313	0.848778
C95	C	0.703089	0.494245	0.769282
H96	H	0.647621	0.575546	0.870649
H97	H	0.730327	0.518583	0.888894
H98	H	0.722790	0.642674	0.840711
H99	H	0.681079	0.414880	0.777353
H100	H	0.673527	0.538962	0.729169
O101	O	1.022079	0.121732	0.206753
C102	C	1.007597	-0.002334	0.229004
H103	H	0.943602	-0.007490	0.253961
H104	H	1.048379	-0.031049	0.281730
C105	C	1.101735	-0.085770	0.117718
C106	C	1.023133	-0.092105	0.148365
H107	H	1.111321	-0.141147	0.067978
H108	H	1.111495	-0.002184	0.102729
H109	H	1.135711	-0.109696	0.161665
H110	H	0.989159	-0.068163	0.104423
H111	H	1.013368	-0.175689	0.163344
H112	H	1.066517	-0.488700	0.000105
H113	H	1.005745	0.146797	0.378569
H114	H	0.556946	0.022445	0.000114
H115	H	0.673741	0.453522	0.000060
O116	O	0.642011	-0.333277	-0.000136
C117	C	0.602646	-0.301754	-0.074845
H118	H	0.647488	-0.273964	-0.127053
H119	H	0.558590	-0.219526	-0.057955
C120	C	0.503509	-0.450067	-0.044622
C121	C	0.558585	-0.415946	-0.108747
H122	H	0.476327	-0.520503	-0.065533
H123	H	0.530028	-0.471302	0.005713
H124	H	0.466803	-0.381534	-0.030552
H125	H	0.595295	-0.484472	-0.122808
H126	H	0.532071	-0.394724	-0.159086
O127	O	1.050173	0.079527	0.614621
C128	C	1.094056	0.013163	0.674167
H129	H	1.058835	0.013113	0.738902
H130	H	1.152099	0.060557	0.683811
C131	C	1.154424	-0.123221	0.559230
C132	C	1.111162	-0.123292	0.638736
H133	H	1.164979	-0.207391	0.537374
H134	H	1.124861	-0.078508	0.519112
H135	H	1.202787	-0.083720	0.567277
H136	H	1.062795	-0.162778	0.630686
H137	H	1.140717	-0.168015	0.678853
O138	O	0.813757	0.437555	0.206590
C139	C	0.858663	0.515594	0.154065
H140	H	0.920421	0.470796	0.140458
H141	H	0.862843	0.611504	0.189047
C142	C	0.742789	0.586815	0.084523
C143	C	0.818640	0.531789	0.067806
H144	H	0.718101	0.596811	0.031316
H145	H	0.712535	0.534243	0.119913
H146	H	0.746284	0.666735	0.113678
H147	H	0.815144	0.451865	0.038662
H148	H	0.848894	0.584349	0.032409
H149	H	0.705432	0.041574	0.000090
H150	H	0.657348	-0.086204	0.000029
