data_functionalizedCrystal
_audit_creation_method	'MofGen! by Chris Wilmer'
_symmetry_space_group_name_H-M	'P1'
_symmetry_Int_Tables_number	1
_symmetry_cell_setting	triclinic
loop_
_symmetry_equiv_pos_as_xyz
  x,y,z
_cell_length_a	11.792254
_cell_length_b	10.268362
_cell_length_c	10.654550
_cell_angle_alpha	89.994874
_cell_angle_beta	95.658236
_cell_angle_gamma	90.004525
loop_
_atom_site_label
_atom_site_type_symbol
_atom_site_fract_x
_atom_site_fract_y
_atom_site_fract_z
O1	O	1.507298	0.108299	-0.172212
O2	O	2.007298	0.608299	0.327788
O3	O	1.177000	0.108302	-0.189936
O4	O	1.677000	0.608302	0.310064
O5	O	1.349743	0.108292	0.001686
O6	O	1.849743	0.608292	0.501686
O7	O	1.334555	0.108308	-0.363834
O8	O	1.834555	0.608308	0.136166
O9	O	1.349728	-0.108309	0.001694
O10	O	1.849728	0.391691	0.501694
O11	O	1.176985	-0.108299	-0.189928
O12	O	1.676985	0.391701	0.310072
O13	O	1.507283	-0.108302	-0.172204
O14	O	2.007283	0.391698	0.327796
Cu15	Cu	1.342132	-0.128078	-0.181065
Cu16	Cu	1.842132	0.371922	0.318935
Cu17	Cu	1.342150	0.128078	-0.181075
Cu18	Cu	1.842150	0.628078	0.318925
O19	O	1.334540	-0.108292	-0.363826
O20	O	1.834540	0.391708	0.136174
C21	C	1.134699	0.000002	-0.188815
C22	C	1.634699	0.500002	0.311185
C23	C	1.008678	0.000003	-0.185474
C24	C	1.508678	0.500003	0.314526
C25	C	0.906335	0.000008	-0.182758
C26	C	1.406335	0.500008	0.317242
C27	C	0.777941	0.000009	-0.179363
C28	C	1.277941	0.500009	0.320637
N29	N	1.342128	-0.308244	-0.181058
N30	N	1.842128	0.191756	0.318942
C31	C	1.342145	-0.573914	-0.181072
C32	C	1.842145	-0.073914	0.318928
C33	C	1.342132	-0.426076	-0.181068
C34	C	1.842132	0.073924	0.318932
C35	C	1.549584	0.000001	-0.173325
C36	C	2.049584	0.500001	0.326675
C37	C	1.675605	0.000009	-0.176666
C38	C	2.175605	0.500009	0.323334
C39	C	1.348620	-0.000008	0.048485
C40	C	1.848620	0.499992	0.548485
C41	C	1.345284	-0.000006	0.187919
C42	C	1.845284	0.499994	0.687919
N43	N	1.342164	0.308243	-0.181072
N44	N	1.842164	0.808243	0.318928
C45	C	1.335662	0.000010	-0.410625
C46	C	1.835662	0.500010	0.089375
C47	C	1.338999	0.000017	-0.550059
C48	C	1.838999	0.500017	-0.050059
C49	C	1.446992	-0.000006	0.267687
C50	C	1.946992	0.499994	0.767687
C51	C	1.443850	0.000010	0.398699
C52	C	1.943850	0.500010	0.898699
C53	C	1.237283	0.000021	0.370162
C54	C	1.737283	0.500021	0.870162
C55	C	1.240426	0.000015	0.239153
C56	C	1.740426	0.500015	0.739153
C57	C	1.563644	0.075901	0.594874
C58	C	2.063644	0.575901	1.094874
C59	C	1.665358	0.075878	0.674648
C60	C	2.165358	0.575878	1.174648
C61	C	1.757559	-0.000028	0.644735
C62	C	2.257559	0.499972	1.144735
C63	C	1.748051	-0.075943	0.535051
C64	C	2.248051	0.424057	1.035051
C65	C	1.646335	-0.075932	0.455284
C66	C	2.146335	0.424068	0.955284
C67	C	1.554138	0.000005	0.485196
C68	C	2.054138	0.500005	0.985196
C69	C	1.120639	-0.075887	0.042977
C70	C	1.620639	0.424113	0.542977
C71	C	1.018922	-0.075886	-0.036793
C72	C	1.518922	0.424114	0.463207
C73	C	0.926712	0.000013	-0.006884
C74	C	1.426712	0.500013	0.493116
C75	C	0.936209	0.075908	0.102803
C76	C	1.436209	0.575908	0.602803
C77	C	1.037926	0.075906	0.182572
C78	C	1.537926	0.575906	0.682572
C79	C	1.130137	0.000010	0.152654
C80	C	1.630137	0.500010	0.652654
H81	H	1.532374	-0.000020	0.225978
H82	H	2.032374	0.499980	0.725978
Cl83	Cl	1.236567	-0.171303	0.005364
Cl84	Cl	1.736567	0.328697	0.505364
H85	H	1.638592	-0.137745	0.365985
H86	H	2.138592	0.362255	0.865985
H87	H	0.861113	0.137684	0.127173
H88	H	1.361113	0.637684	0.627173
Cl89	Cl	1.049865	0.171320	0.320466
Cl90	Cl	1.549865	0.671320	0.820466
Cl91	Cl	1.677310	0.171313	0.812529
Cl92	Cl	2.177310	0.671313	1.312529
H93	H	0.843883	-0.000009	-0.071835
H94	H	1.343883	0.499991	0.428165
Cl95	Cl	1.863966	-0.171382	0.497460
Cl96	Cl	2.363966	0.328618	0.997460
Cl97	Cl	1.447742	0.171357	0.632475
Cl98	Cl	1.947742	0.671357	1.132475
H99	H	1.011191	-0.137701	-0.126098
H100	H	1.511191	0.362299	0.373902
Cl101	Cl	1.105468	0.000046	0.434580
Cl102	Cl	1.605468	0.500046	0.934580
H103	H	1.840377	-0.000045	0.709696
H104	H	2.340377	0.499955	1.209696
