data_functionalizedCrystal
_audit_creation_method	'MofGen! by Chris Wilmer'
_symmetry_space_group_name_H-M	'P1'
_symmetry_Int_Tables_number	1
_symmetry_cell_setting	triclinic
loop_
_symmetry_equiv_pos_as_xyz
  x,y,z
_cell_length_a	13.032831
_cell_length_b	12.645330
_cell_length_c	13.033109
_cell_angle_alpha	97.156412
_cell_angle_beta	76.665514
_cell_angle_gamma	82.822813
loop_
_atom_site_label
_atom_site_type_symbol
_atom_site_fract_x
_atom_site_fract_y
_atom_site_fract_z
Zn1	Zn	1.700119	-0.745257	-0.806444
Zn2	Zn	1.677451	-0.896744	-0.628834
Zn3	Zn	1.499942	-0.693694	-0.606335
Zn4	Zn	1.522466	-0.896651	-0.783878
O5	O	1.599995	-0.808086	-0.706373
O6	O	1.845748	-0.786970	-0.801744
O7	O	1.634992	-0.848269	-0.477217
O8	O	1.526556	-0.552198	-0.632907
O9	O	1.829095	-0.898267	-0.671254
O10	O	1.673625	-0.590081	-0.779927
O11	O	1.504577	-0.699089	-0.460686
O12	O	1.354294	-0.698999	-0.611026
O13	O	1.564945	-0.898108	-0.935504
O14	O	1.370842	-0.848110	-0.741467
O15	O	1.695465	-0.786880	-0.952083
O16	O	1.656833	-1.045068	-0.649373
O17	O	1.542966	-1.044999	-0.763283
C18	C	1.324028	-0.767950	-0.671357
C19	C	1.205972	-0.750808	-0.656402
C20	C	1.161542	-0.817033	-0.714178
C21	C	1.039525	-0.799318	-0.698723
C22	C	1.599915	-1.083503	-0.706348
C23	C	1.599983	-1.201346	-0.706385
C24	C	1.528720	-1.368997	-0.778342
C25	C	1.528268	-1.246339	-0.778025
C26	C	1.555468	-1.225285	-0.590611
C27	C	1.555032	-1.347884	-0.591047
C28	C	1.716146	-1.388959	-0.749359
C29	C	1.715768	-1.266607	-0.751719
C30	C	1.877039	-0.848381	-0.741526
C31	C	1.995098	-0.865552	-0.756506
C32	C	1.635246	-0.848235	-0.983410
C33	C	1.650268	-0.865344	-1.101467
C34	C	1.600106	-0.531602	-0.706424
C35	C	1.600154	-0.413781	-0.706446
C36	C	1.592438	-0.799160	-1.145922
C37	C	1.607963	-0.816842	-1.267940
C38	C	1.564942	-0.768027	-0.430421
C39	C	1.550125	-0.750649	-0.312390
H40	H	1.153678	-0.680993	-0.595501
H41	H	1.711270	-0.935097	-1.153741
N42	N	1.443645	-1.164355	-0.544213
H43	H	1.415693	-1.180289	-0.469709
H44	H	1.444780	-1.084336	-0.541320
H45	H	1.753977	-1.435469	-0.833097
H46	H	1.531431	-0.729412	-1.093647
N47	N	1.469326	-0.658242	-1.243153
H48	H	1.488293	-0.587676	-1.264510
H49	H	1.395886	-0.666521	-1.252786
H50	H	1.668969	-0.886600	-1.320210
H51	H	1.047389	-0.935364	-0.817422
H52	H	1.213837	-0.886842	-0.775087
H53	H	1.442564	-1.202240	-0.748472
N54	N	1.619931	-1.385971	-0.516657
H55	H	1.648692	-1.323119	-0.483722
H56	H	1.573112	-1.416781	-0.458399
H57	H	1.557766	-1.230990	-0.863426
N58	N	0.970267	-0.706843	-0.618033
H59	H	1.016680	-0.665082	-0.581598
H60	H	0.929772	-0.657494	-0.655562
N61	N	1.759894	-1.248227	-0.864670
H62	H	1.762413	-1.168795	-0.865261
H63	H	1.834352	-1.290459	-0.893340
H64	H	1.443567	-1.385145	-0.749098
N65	N	1.567590	-1.427589	-0.891798
H66	H	1.643661	-1.417305	-0.922078
H67	H	1.564425	-1.507082	-0.892669
N68	N	1.442162	-1.365417	-0.545083
H69	H	1.393157	-1.293590	-0.524730
H70	H	1.418288	-1.413270	-0.600155
H71	H	1.605218	-1.195377	-0.534954
N72	N	1.791498	-1.227689	-0.688918
H73	H	1.751645	-1.166934	-0.629923
H74	H	1.822261	-1.289204	-0.656905
N75	N	1.786879	-1.427571	-0.680231
H76	H	1.744057	-1.460986	-0.621406
H77	H	1.848362	-1.483131	-0.725289
