data_functionalizedCrystal
_audit_creation_method	'MofGen! by Chris Wilmer'
_symmetry_space_group_name_H-M	'P1'
_symmetry_Int_Tables_number	1
_symmetry_cell_setting	triclinic
loop_
_symmetry_equiv_pos_as_xyz
  x,y,z
_cell_length_a	12.759401
_cell_length_b	16.120484
_cell_length_c	12.759393
_cell_angle_alpha	87.137118
_cell_angle_beta	90.018496
_cell_angle_gamma	92.925560
loop_
_atom_site_label
_atom_site_type_symbol
_atom_site_fract_x
_atom_site_fract_y
_atom_site_fract_z
Zn1	Zn	1.584972	-0.331853	0.615146
Zn2	Zn	1.575923	-0.471291	0.448359
Zn3	Zn	1.409271	-0.331897	0.439488
Zn4	Zn	1.400324	-0.471227	0.623996
O5	O	1.492622	-0.401567	0.531747
O6	O	1.730792	-0.350358	0.593030
O7	O	1.553774	-0.452845	0.300164
O8	O	1.440109	-0.215226	0.455373
O9	O	1.724144	-0.452803	0.470492
O10	O	1.569196	-0.215194	0.584428
O11	O	1.431335	-0.350433	0.293646
O12	O	1.261064	-0.350370	0.463955
O13	O	1.424860	-0.452693	0.769840
O14	O	1.254490	-0.452736	0.599512
O15	O	1.560520	-0.350296	0.763338
O16	O	1.545098	-0.587947	0.479074
O17	O	1.416086	-0.587900	0.608114
C18	C	1.219656	-0.401551	0.531732
C19	C	1.102879	-0.401565	0.531752
C20	C	1.044616	-0.454952	0.602231
C21	C	0.934891	-0.454962	0.602243
C22	C	0.941702	-0.348197	0.461287
C23	C	1.051425	-0.348183	0.461281
C24	C	1.096069	-0.508334	0.672701
C25	C	1.037806	-0.561726	0.743185
C26	C	0.928081	-0.561736	0.743197
C27	C	0.876620	-0.508355	0.672725
C28	C	1.478668	-0.618174	0.545540
C29	C	1.472794	-0.710839	0.551475
C30	C	1.462076	-0.880500	0.562334
C31	C	1.523357	-0.921793	0.501178
C32	C	1.517393	-1.016198	0.507219
C33	C	1.468038	-0.786086	0.556293
C34	C	1.766655	-0.401583	0.531763
C35	C	1.883431	-0.401590	0.531770
C36	C	1.492701	-0.401483	0.805775
C37	C	1.492735	-0.401447	0.922550
C38	C	1.506660	-0.184114	0.517924
C39	C	1.512642	-0.091448	0.512033
C40	C	1.492608	-0.401590	0.258781
C41	C	1.492793	-0.401391	0.141992
C42	C	1.563383	-0.348123	0.974027
C43	C	1.563410	-0.348093	1.083750
C44	C	1.422138	-0.454717	1.090507
C45	C	1.422106	-0.454742	0.980787
C46	C	1.634011	-0.294828	0.915790
C47	C	1.704666	-0.241501	0.967268
C48	C	1.704693	-0.241471	1.076990
C49	C	1.634065	-0.294768	1.135235
H50	H	1.079714	-0.605181	0.800566
H51	H	1.364563	-0.498150	0.938872
O52	O	1.773213	-0.189693	1.127161
C53	C	1.758113	-0.201105	1.236492
H54	H	1.675275	-0.228401	1.253205
H55	H	1.769280	-0.138646	1.274223
H56	H	1.817573	-0.245496	1.270457
O57	O	1.202650	-0.508403	0.672861
C58	C	1.235573	-0.566982	0.750151
H59	H	1.171615	-0.578725	0.812264
H60	H	1.310612	-0.541858	0.788464
H61	H	1.251115	-0.627729	0.712224
H62	H	1.405137	-0.916046	0.619223
O63	O	1.591228	-0.879483	0.433154
C64	C	1.566978	-0.900762	0.329760
H65	H	1.522675	-0.964043	0.331525
H66	H	1.642646	-0.903609	0.282885
H67	H	1.516006	-0.851840	0.291261
H68	H	0.899793	-0.304737	0.403912
H69	H	1.364636	-0.498108	1.137939
H70	H	0.880647	-0.605204	0.800595
O71	O	1.634093	-0.294724	0.809199
C72	C	1.711597	-0.236268	0.768834
H73	H	1.729477	-0.187543	0.828970
H74	H	1.681923	-0.204649	0.693417
H75	H	1.786061	-0.269342	0.751474
O76	O	0.770026	-0.508469	0.672875
C77	C	0.729634	-0.567005	0.750232
H78	H	0.789716	-0.615745	0.767915
H79	H	0.654153	-0.598593	0.720515
H80	H	0.712372	-0.534014	0.824818
O81	O	1.773306	-0.189651	0.910852
C82	C	1.835683	-0.142592	0.979820
H83	H	1.792855	-0.139682	1.057845
H84	H	1.851125	-0.076916	0.943949
H85	H	1.913506	-0.173126	0.993437
O86	O	1.107867	-0.296305	0.392709
C87	C	1.038927	-0.249185	0.330519
H88	H	0.958514	-0.283335	0.328993
H89	H	1.071176	-0.240220	0.247186
H90	H	1.031346	-0.185901	0.365087
O91	O	1.634080	-0.294892	1.241829
C92	C	1.655937	-0.374782	1.283560
H93	H	1.634873	-0.422817	1.223375
H94	H	1.607608	-0.389580	1.357898
H95	H	1.743001	-0.376549	1.303150
