data_functionalizedCrystal
_audit_creation_method	'MofGen! by Chris Wilmer'
_symmetry_space_group_name_H-M	'P1'
_symmetry_Int_Tables_number	1
_symmetry_cell_setting	triclinic
loop_
_symmetry_equiv_pos_as_xyz
  x,y,z
_cell_length_a	15.995292
_cell_length_b	14.044220
_cell_length_c	12.503572
_cell_angle_alpha	86.156832
_cell_angle_beta	86.481317
_cell_angle_gamma	91.671253
loop_
_atom_site_label
_atom_site_type_symbol
_atom_site_fract_x
_atom_site_fract_y
_atom_site_fract_z
O1	O	1.124542	-0.116429	-0.089353
O2	O	1.624542	0.383571	0.410647
O3	O	0.881891	-0.131574	-0.089349
O4	O	1.381891	0.368426	0.410651
O5	O	0.999574	0.013982	-0.089340
O6	O	1.499574	0.513982	0.410660
O7	O	1.006860	-0.261984	-0.089362
O8	O	1.506860	0.238016	0.410638
O9	O	0.990725	0.003017	0.089301
O10	O	1.490725	0.503017	0.589301
O11	O	0.873042	-0.142539	0.089292
O12	O	1.373042	0.357461	0.589292
O13	O	1.115693	-0.127393	0.089288
O14	O	1.615693	0.372607	0.589288
Cu15	Cu	0.993560	-0.135967	0.105602
Cu16	Cu	1.493560	0.364033	0.605602
Cu17	Cu	1.004025	-0.123000	-0.105662
Cu18	Cu	1.504025	0.377000	0.394338
O19	O	0.998010	-0.272949	0.089280
O20	O	1.498010	0.227051	0.589280
C21	C	0.846225	-0.136440	-0.000028
C22	C	1.346225	0.363560	0.499972
C23	C	0.753134	-0.134592	-0.000026
C24	C	1.253134	0.365408	0.499974
C25	C	0.414889	-0.127798	-0.000038
C26	C	0.914889	0.372202	0.499962
C27	C	0.446068	-0.232831	-0.000445
C28	C	0.946068	0.267169	0.499555
C29	C	0.542873	-0.234853	-0.000038
C30	C	1.042873	0.265147	0.499962
C31	C	0.582696	-0.131169	-0.000033
C32	C	1.082696	0.368831	0.499967
C33	C	0.544618	-0.084906	0.101981
C34	C	1.044618	0.415094	0.601981
C35	C	0.447729	-0.083646	0.102062
C36	C	0.947729	0.416354	0.602062
C37	C	0.457776	-0.069032	-0.101087
C38	C	0.957776	0.430968	0.398913
C39	C	0.554626	-0.072843	-0.102431
C40	C	1.054626	0.427157	0.397569
C41	C	0.677534	-0.133069	-0.000026
C42	C	1.177534	0.366931	0.499974
C43	C	0.320051	-0.125895	-0.000037
C44	C	0.820051	0.374105	0.499963
C45	C	0.991961	0.043813	-0.000019
C46	C	1.491961	0.543813	0.499981
C47	C	0.982450	0.149037	-0.000018
C48	C	1.482450	0.649037	0.499982
C49	C	1.151359	-0.122527	-0.000035
C50	C	1.651359	0.377473	0.499965
C51	C	1.244451	-0.124375	-0.000044
C52	C	1.744451	0.375625	0.499956
C53	C	1.005624	-0.302780	-0.000044
C54	C	1.505624	0.197220	0.499956
C55	C	1.015135	-0.408003	-0.000052
C56	C	1.515135	0.091997	0.499948
N57	N	0.986205	-0.145087	0.254193
N58	N	1.486205	0.354913	0.754193
C59	C	0.965062	0.341695	-0.000033
C60	C	1.465062	0.841695	0.499967
C61	C	1.032519	0.399344	-0.000037
C62	C	1.532519	0.899344	0.499963
C63	C	1.022844	0.506546	-0.000046
C64	C	1.522844	1.006546	0.499954
C65	C	0.974736	0.234483	-0.000024
C66	C	1.474736	0.734483	0.499976
N67	N	1.011385	-0.113873	-0.254254
N68	N	1.511385	0.386127	0.245746
C69	C	0.975387	-0.158510	0.473308
C70	C	1.475387	0.341490	0.973308
C71	C	1.022201	-0.100452	0.526638
C72	C	1.522201	0.399548	1.026638
C73	C	1.016182	-0.107921	0.648561
C74	C	1.516182	0.392079	1.148561
C75	C	0.981405	-0.151043	0.351374
C76	C	1.481405	0.348957	0.851374
H77	H	0.424721	-0.268835	-0.073604
H78	H	0.924721	0.231165	0.426396
H79	H	0.416454	-0.277566	0.072297
H80	H	0.916454	0.222434	0.572297
C81	C	0.591933	0.029913	-0.110743
C82	C	1.091933	0.529913	0.389257
N83	N	0.620030	0.107313	-0.116995
N84	N	1.120030	0.607313	0.383005
C85	C	1.082464	-0.025735	0.464619
C86	C	1.582464	0.474265	0.964619
N87	N	1.127857	0.030535	0.417902
N88	N	1.627857	0.530535	0.917902
H89	H	0.579791	-0.106454	-0.177899
H90	H	1.079791	0.393546	0.322101
H91	H	1.097540	0.368193	-0.000110
H92	H	1.597540	0.868193	0.499890
C93	C	0.915137	-0.233232	0.535326
C94	C	1.415137	0.266768	1.035326
N95	N	0.869758	-0.289512	0.582051
N96	N	1.369758	0.210488	1.082051
C97	C	0.577627	-0.284302	-0.098868
C98	C	1.077627	0.215698	0.401132
N99	N	0.603800	-0.321531	-0.173324
N100	N	1.103800	0.178469	0.326676
C101	C	0.410066	-0.139129	0.205065
C102	C	0.910066	0.360871	0.705065
N103	N	0.381702	-0.180927	0.282646
N104	N	0.881702	0.319073	0.782646
C105	C	0.567013	-0.296819	0.098926
C106	C	1.067013	0.203181	0.598926
N107	N	0.585194	-0.343492	0.173472
N108	N	1.085194	0.156508	0.673472
C109	C	0.428107	-0.107090	-0.205546
C110	C	0.928107	0.392910	0.294454
N111	N	0.405762	-0.135768	-0.284220
N112	N	0.905762	0.364232	0.215780
H113	H	0.570599	-0.008841	0.105778
H114	H	1.070599	0.491159	0.605778
H115	H	0.900050	0.372849	-0.000035
H116	H	1.400050	0.872849	0.499965
H117	H	0.563641	-0.126040	0.177895
H118	H	1.063641	0.373960	0.677895
C119	C	0.431113	0.035493	-0.102016
C120	C	0.931113	0.535493	0.397984
N121	N	0.411024	0.114218	-0.102709
N122	N	0.911024	0.614218	0.397291
C123	C	0.419986	0.020030	0.108332
C124	C	0.919986	0.520030	0.608332
N125	N	0.399094	0.098117	0.113061
N126	N	0.899094	0.598117	0.613061
