data_functionalizedCrystal
_audit_creation_method	'MofGen! by Chris Wilmer'
_symmetry_space_group_name_H-M	'P1'
_symmetry_Int_Tables_number	1
_symmetry_cell_setting	triclinic
loop_
_symmetry_equiv_pos_as_xyz
  x,y,z
_cell_length_a	12.759401
_cell_length_b	17.637651
_cell_length_c	12.759393
_cell_angle_alpha	78.749413
_cell_angle_beta	89.982620
_cell_angle_gamma	101.219542
loop_
_atom_site_label
_atom_site_type_symbol
_atom_site_fract_x
_atom_site_fract_y
_atom_site_fract_z
Zn1	Zn	1.521681	-0.314718	-0.509310
Zn2	Zn	1.486046	-0.446957	-0.298053
Zn3	Zn	1.345975	-0.314760	-0.333639
Zn4	Zn	1.310456	-0.446896	-0.473711
O5	O	1.416039	-0.380833	-0.403678
O6	O	1.663973	-0.332268	-0.481293
O7	O	1.467417	-0.429464	-0.155741
O8	O	1.399060	-0.204113	-0.386733
O9	O	1.637792	-0.429424	-0.326083
O10	O	1.528151	-0.204082	-0.515798
O11	O	1.364507	-0.332340	-0.181885
O12	O	1.194244	-0.332280	-0.352214
O13	O	1.338523	-0.429319	-0.625466
O14	O	1.168149	-0.429360	-0.455124
O15	O	1.493709	-0.332209	-0.651621
O16	O	1.432976	-0.557591	-0.291564
O17	O	1.303970	-0.557546	-0.420619
C18	C	1.143076	-0.380818	-0.403668
C19	C	1.026296	-0.380831	-0.403683
C20	C	0.957852	-0.431462	-0.457136
C21	C	0.848125	-0.431472	-0.457145
C22	C	0.875297	-0.330219	-0.350240
C23	C	0.985023	-0.330205	-0.350238
C24	C	0.942162	-0.489922	-0.518853
C25	C	0.832436	-0.489932	-0.518862
C26	C	1.360781	-0.586257	-0.348390
C27	C	1.337237	-0.674138	-0.324772
C28	C	1.595582	-0.962794	-0.583429
C29	C	1.573425	-1.045372	-0.561219
C30	C	1.439093	-1.045511	-0.426693
C31	C	1.461242	-0.962932	-0.448889
C32	C	1.539487	-0.921580	-0.527259
C33	C	1.405147	-0.921717	-0.392718
C34	C	1.427290	-0.839145	-0.414917
C35	C	1.505529	-0.797787	-0.493285
C36	C	1.561630	-0.839007	-0.549457
C37	C	1.326897	-0.963071	-0.314354
C38	C	1.270802	-0.921857	-0.258184
C39	C	1.292950	-0.839283	-0.280376
C40	C	1.371189	-0.797925	-0.358745
C41	C	1.236849	-0.798063	-0.224204
C42	C	1.258992	-0.715490	-0.246402
C43	C	1.393332	-0.715353	-0.380943
C44	C	1.690069	-0.380848	-0.403689
C45	C	1.806844	-0.380855	-0.403694
C46	C	1.416129	-0.380753	-0.677734
C47	C	1.416168	-0.380718	-0.794519
C48	C	1.471543	-0.174607	-0.459206
C49	C	1.495195	-0.086726	-0.482868
C50	C	1.362613	-0.330136	-0.863003
C51	C	1.362651	-0.330112	-0.972734
C52	C	1.469807	-0.431256	-0.945486
C53	C	1.469761	-0.431282	-0.835757
C54	C	1.300752	-0.271739	-0.878736
C55	C	1.300790	-0.271716	-0.988467
C56	C	1.416026	-0.380856	-0.130705
C57	C	1.416251	-0.380668	-0.013979
H58	H	1.457055	-0.681682	-0.444752
H59	H	0.786191	-0.551152	-0.480459
H60	H	1.659304	-0.929124	-0.647239
C61	C	0.794430	-0.460411	-0.631301
C62	C	0.708551	-0.514694	-0.682082
C63	C	0.670545	-0.485173	-0.794518
C64	C	0.718418	-0.401370	-0.856174
C65	C	0.804302	-0.347082	-0.805394
C66	C	0.842308	-0.376603	-0.692957
H67	H	0.673108	-0.576734	-0.636440
H68	H	0.606968	-0.525361	-0.832108
H69	H	0.690284	-0.379517	-0.939406
H70	H	0.839744	-0.285042	-0.851035
H71	H	0.905885	-0.336415	-0.655367
H72	H	1.513442	-0.472423	-0.979076
C73	C	1.529988	-0.706956	-0.517708
C74	C	1.515146	-0.661478	-0.630869
C75	C	1.539652	-0.570648	-0.655292
C76	C	1.579000	-0.525296	-0.566553
C77	C	1.593844	-0.570774	-0.453384
C78	C	1.569338	-0.661604	-0.428961
H79	H	1.486016	-0.695051	-0.696566
H80	H	1.528663	-0.536983	-0.739067
H81	H	1.597141	-0.458058	-0.584632
H82	H	1.622973	-0.537201	-0.387687
H83	H	1.580327	-0.695269	-0.345186
H84	H	1.625353	-0.805337	-0.613266
C85	C	1.361256	-0.193176	-0.853907
C86	C	1.413148	-0.125829	-0.945685
C87	C	1.473656	-0.047267	-0.920855
C88	C	1.482272	-0.036052	-0.804246
C89	C	1.430378	-0.103402	-0.712461
C90	C	1.369870	-0.181963	-0.737291
H91	H	1.406772	-0.134129	-1.032013
H92	H	1.512072	0.002589	-0.988801
H93	H	1.527063	0.022104	-0.785865
H94	H	1.436754	-0.095102	-0.626133
H95	H	1.331454	-0.231820	-0.669345
H96	H	1.619096	-1.078926	-0.606980
H97	H	0.960556	-0.548058	-0.473928
C98	C	1.353030	-1.091004	-0.340486
C99	C	1.383383	-1.147792	-0.242781
C100	C	1.297322	-1.193284	-0.156570
C101	C	1.180909	-1.181988	-0.168064
C102	C	1.150551	-1.125197	-0.265774
C103	C	1.236612	-1.079705	-0.351985
H104	H	1.469563	-1.156157	-0.234268
H105	H	1.319795	-1.235325	-0.084238
H106	H	1.117202	-1.215664	-0.104246
H107	H	1.064371	-1.116832	-0.274287
H108	H	1.214139	-1.037665	-0.424317
H109	H	1.308861	-1.030307	-0.296293
H110	H	1.040749	-0.288972	-0.306720
H111	H	0.841679	-0.289000	-0.306727
H112	H	1.207092	-0.955537	-0.194377
H113	H	1.513352	-0.472483	-0.779997
H114	H	1.214957	-0.288137	-0.844547
H115	H	1.173135	-0.831744	-0.160403
H116	H	1.217603	-0.293635	-1.016596
C117	C	1.197293	-0.670148	-0.184613
C118	C	1.111233	-0.715632	-0.098406
C119	C	1.049530	-0.670289	-0.036619
C120	C	1.073886	-0.579463	-0.061039
C121	C	1.159950	-0.533974	-0.147251
C122	C	1.221654	-0.579317	-0.209038
H123	H	1.093200	-0.782871	-0.080324
H124	H	0.985819	-0.703963	0.027201
H125	H	1.028209	-0.545897	-0.015301
H126	H	1.177984	-0.466734	-0.165332
H127	H	1.285364	-0.545642	-0.272858
C128	C	1.352518	-0.188989	-1.050992
C129	C	1.453162	-0.177918	-1.123371
C130	C	1.504889	-0.095196	-1.185896
C131	C	1.455971	-0.023544	-1.176043
C132	C	1.355322	-0.034612	-1.103661
C133	C	1.303595	-0.117335	-1.041136
H134	H	1.489379	-0.230961	-1.130667
H135	H	1.579396	-0.087002	-1.239478
H136	H	1.494262	0.037693	-1.222328
H137	H	1.319105	0.018431	-1.096364
H138	H	1.229088	-0.125528	-0.987554
H139	H	0.976357	-0.473591	-0.604653
