data_functionalizedCrystal
_audit_creation_method	'MofGen! by Chris Wilmer'
_symmetry_space_group_name_H-M	'P1'
_symmetry_Int_Tables_number	1
_symmetry_cell_setting	triclinic
loop_
_symmetry_equiv_pos_as_xyz
  x,y,z
_cell_length_a	14.519709
_cell_length_b	17.038272
_cell_length_c	13.596369
_cell_angle_alpha	89.993837
_cell_angle_beta	90.000291
_cell_angle_gamma	87.395851
loop_
_atom_site_label
_atom_site_type_symbol
_atom_site_fract_x
_atom_site_fract_y
_atom_site_fract_z
O1	O	1.231711	0.102502	-0.081664
O2	O	1.731711	0.602502	0.418336
O3	O	0.964158	0.114573	-0.081694
O4	O	1.464158	0.614573	0.418306
O5	O	1.096344	-0.005280	-0.081671
O6	O	1.596344	0.494720	0.418329
O7	O	1.099525	0.222356	-0.081686
O8	O	1.599525	0.722356	0.418314
O9	O	1.096330	-0.005286	0.081912
O10	O	1.596330	0.494714	0.581912
O11	O	0.964143	0.114567	0.081889
O12	O	1.464143	0.614567	0.581889
O13	O	1.231696	0.102496	0.081919
O14	O	1.731696	0.602496	0.581919
Zn15	Zn	1.097918	0.108530	0.107877
Zn16	Zn	1.597918	0.608530	0.607877
Zn17	Zn	1.097937	0.108539	-0.107651
Zn18	Zn	1.597937	0.608539	0.392349
O19	O	1.099510	0.222349	0.081897
O20	O	1.599510	0.722349	0.581897
C21	C	0.929748	0.114008	0.000094
C22	C	1.429748	0.614008	0.500094
C23	C	0.827237	0.112322	0.000083
C24	C	1.327237	0.612322	0.500083
C25	C	0.451867	0.106116	0.000128
C26	C	0.951867	0.606116	0.500128
C27	C	0.556307	0.107839	0.000115
C28	C	1.056307	0.607839	0.500115
C29	C	0.639549	0.109219	0.000104
C30	C	1.139549	0.609219	0.500104
C31	C	0.743995	0.110942	0.000093
C32	C	1.243995	0.610942	0.500093
C33	C	1.093444	-0.034416	0.000120
C34	C	1.593444	0.465584	0.500120
C35	C	1.084814	-0.121223	0.000119
C36	C	1.584814	0.378777	0.500119
C37	C	1.164047	-0.171209	0.000129
C38	C	1.664047	0.328791	0.500129
C39	C	1.155933	-0.252773	0.000118
C40	C	1.655933	0.247227	0.500118
C41	C	1.068585	-0.284349	0.000105
C42	C	1.568585	0.215651	0.500105
C43	C	0.989347	-0.234357	0.000092
C44	C	1.489347	0.265643	0.500092
C45	C	0.997462	-0.152795	0.000096
C46	C	1.497462	0.347205	0.500096
C47	C	1.039916	-0.530153	0.000089
C48	C	1.539916	-0.030153	0.500089
C49	C	1.031807	-0.611722	0.000088
C50	C	1.531807	-0.111722	0.500088
C51	C	1.198394	-0.630132	0.000112
C52	C	1.698394	-0.130132	0.500112
C53	C	1.206502	-0.548568	0.000122
C54	C	1.706502	-0.048568	0.500122
C55	C	1.127263	-0.498583	0.000104
C56	C	1.627263	0.001417	0.500104
C57	C	1.060289	-0.367720	0.000098
C58	C	1.560289	0.132280	0.500098
C59	C	1.135560	-0.415213	0.000104
C60	C	1.635560	0.084787	0.500104
C61	C	1.266107	0.103062	0.000129
C62	C	1.766107	0.603062	0.500129
C63	C	1.368617	0.104748	0.000134
C64	C	1.868617	0.604748	0.500134
C65	C	1.102410	0.251486	0.000103
C66	C	1.602410	0.751486	0.500103
C67	C	1.111040	0.338292	0.000098
C68	C	1.611040	0.838292	0.500098
N69	N	1.097911	0.108524	0.254968
N70	N	1.597911	0.608524	0.754968
N71	N	1.097950	0.108539	-0.254743
N72	N	1.597950	0.608539	0.245257
C73	C	1.097936	0.108540	0.656259
C74	C	1.597936	0.608540	1.156259
C75	C	1.097926	0.108538	0.544608
C76	C	1.597926	0.608538	1.044608
C77	C	1.097924	0.108533	0.455617
C78	C	1.597924	0.608533	0.955617
C79	C	1.097913	0.108530	0.343959
C80	C	1.597913	0.608530	0.843959
H81	H	1.235175	-0.145506	0.000145
H82	H	1.735175	0.354494	0.500145
H83	H	0.989170	-0.393438	0.000089
H84	H	1.489170	0.106562	0.500089
O85	O	1.232994	-0.301217	0.000179
O86	O	1.732994	0.198783	0.500179
C87	C	1.399081	-0.310870	0.000159
C88	C	1.899081	0.189130	0.500159
C89	C	1.311882	-0.255918	0.000114
C90	C	1.811882	0.244082	0.500114
H91	H	1.462884	-0.274268	0.000086
H92	H	1.962884	0.225732	0.500086
H93	H	1.399500	-0.349508	0.068633
H94	H	1.899500	0.150492	0.568633
H95	H	1.399409	-0.349524	-0.068286
H96	H	1.899409	0.150476	0.431714
H97	H	1.311497	-0.217214	0.068512
H98	H	1.811497	0.282786	0.568512
H99	H	1.311498	-0.217333	-0.068405
H100	H	1.811498	0.282667	0.431595
H101	H	1.277629	-0.522865	0.000132
H102	H	1.777629	-0.022865	0.500132
H103	H	1.262906	-0.670838	0.000125
H104	H	1.762906	-0.170838	0.500125
O105	O	0.946882	-0.642266	0.000021
O106	O	1.446882	-0.142266	0.500021
C107	C	0.782506	-0.615403	0.000033
C108	C	1.282506	-0.115403	0.500033
C109	C	0.878619	-0.580707	0.000087
C110	C	1.378619	-0.080707	0.500087
H111	H	0.727289	-0.565650	0.000107
H112	H	1.227289	-0.065650	0.500107
H113	H	0.774501	-0.653095	-0.068444
H114	H	1.274501	-0.153095	0.431556
H115	H	0.774578	-0.653161	0.068474
H116	H	1.274578	-0.153161	0.568474
H117	H	0.886612	-0.542914	-0.068308
H118	H	1.386612	-0.042914	0.431692
H119	H	0.886580	-0.543060	0.068610
H120	H	1.386580	-0.043060	0.568610
H121	H	0.975394	-0.489465	0.000074
H122	H	1.475394	0.010535	0.500074
O123	O	0.904567	-0.265157	0.000123
O124	O	1.404567	0.234843	0.500123
C125	C	0.818234	-0.382646	0.000056
C126	C	1.318234	0.117354	0.500056
C127	C	0.914305	-0.347872	0.000040
C128	C	1.414305	0.152128	0.500040
H129	H	0.826075	-0.449525	-0.000032
H130	H	1.326075	0.050475	0.499968
H131	H	0.778731	-0.362130	0.068526
H132	H	1.278731	0.137870	0.568526
H133	H	0.778768	-0.362017	-0.068393
H134	H	1.278768	0.137983	0.431607
H135	H	0.953848	-0.368485	0.068442
H136	H	1.453848	0.131515	0.568442
H137	H	0.953738	-0.368383	-0.068476
H138	H	1.453738	0.131617	0.431524
O139	O	0.920401	-0.104347	0.000130
O140	O	1.420401	0.395653	0.500130
C141	C	0.754314	-0.094690	0.000039
C142	C	1.254314	0.405310	0.500039
C143	C	0.841511	-0.149644	0.000031
C144	C	1.341511	0.350356	0.500031
H145	H	0.690509	-0.131290	-0.000062
H146	H	1.190509	0.368710	0.499938
H147	H	0.753872	-0.056062	0.068512
H148	H	1.253872	0.443938	0.568512
H149	H	0.754012	-0.056025	-0.068406
H150	H	1.254012	0.443975	0.431594
H151	H	0.841870	-0.188358	0.068430
H152	H	1.341870	0.311642	0.568430
H153	H	0.841919	-0.188218	-0.068488
H154	H	1.341919	0.311782	0.431512
H155	H	1.206678	-0.389500	0.000093
H156	H	1.706678	0.110500	0.500093
