data_functionalizedCrystal
_audit_creation_method	'MofGen! by Chris Wilmer'
_symmetry_space_group_name_H-M	'P1'
_symmetry_Int_Tables_number	1
_symmetry_cell_setting	triclinic
loop_
_symmetry_equiv_pos_as_xyz
  x,y,z
_cell_length_a	6.817900
_cell_length_b	12.840933
_cell_length_c	10.943632
_cell_angle_alpha	81.923734
_cell_angle_beta	108.838880
_cell_angle_gamma	88.345099
loop_
_atom_site_label
_atom_site_type_symbol
_atom_site_fract_x
_atom_site_fract_y
_atom_site_fract_z
V1	V	-3.926147	0.325188	-0.181671
O2	O	-3.887446	0.319024	0.005600
O3	O	-3.905407	0.322940	-0.357213
O4	O	-3.821522	0.467026	-0.180250
O5	O	-3.971911	0.173940	-0.172588
V6	V	-4.413477	0.307101	-0.159109
O7	O	-4.179056	0.364865	-0.231163
O8	O	-4.610765	0.267425	-0.109617
O9	O	-4.211010	0.309350	0.016433
O10	O	-4.569575	0.313265	-0.346380
O11	O	-4.485109	0.458349	-0.168192
O12	O	-4.294895	0.165264	-0.160530
C13	C	-3.758956	0.317803	-0.399964
C14	C	-3.822910	0.316910	-0.543480
C15	C	-3.651963	0.501598	-0.174223
C16	C	-3.647810	0.619729	-0.174221
C17	C	-4.127795	0.130686	-0.166554
C18	C	-4.110799	0.012554	-0.166553
C19	C	-3.671215	0.310970	-0.620577
C20	C	-3.799079	0.226768	-0.692437
C21	C	-3.809022	0.399531	-0.727345
C22	C	-3.949928	0.232648	-0.613435
C23	C	-3.959845	0.405488	-0.648350
C24	C	-4.087829	0.321270	-0.720172
V25	V	-3.909097	0.811353	-0.181680
O26	O	-3.944242	0.962560	-0.172595
O27	O	-3.814619	0.664169	-0.180259
O28	O	-3.886817	0.852732	-0.357220
O29	O	-3.871544	0.772691	0.005590
V30	V	-4.394481	0.848801	-0.159125
O31	O	-4.163944	0.795819	-0.231176
O32	O	-4.589039	0.887020	-0.109636
O33	O	-4.266146	0.984737	-0.160542
O34	O	-4.476527	0.703510	-0.168212
O35	O	-4.549225	0.893378	-0.346397
O36	O	-4.193947	0.796174	0.016418
C37	C	-4.020806	0.314483	0.059177
C38	C	-3.936087	0.315383	0.202692
C39	C	-3.739915	0.860260	-0.399960
C40	C	-3.802534	0.897232	-0.543475
C41	C	-4.004782	0.771677	0.059171
C42	C	-3.921438	0.733669	0.202688
C43	C	-4.013022	0.920047	-0.617503
C44	C	-4.071885	0.954802	-0.752348
C45	C	-3.920259	0.966733	-0.813164
C46	C	-3.709753	0.943918	-0.739125
C47	C	-3.650891	0.909171	-0.604281
C48	C	-3.709254	0.703395	0.263477
C49	C	-3.630912	0.667694	0.398329
C50	C	-3.764760	0.662261	0.472388
C51	C	-3.976963	0.692541	0.411590
C52	C	-4.055299	0.728248	0.276743
H53	H	-3.494495	0.306516	-0.577052
H54	H	-4.085925	0.688112	0.471910
H55	H	-3.731776	0.151196	-0.712488
Cl56	Cl	-4.203678	0.905063	-0.541078
H57	H	-4.027068	0.481060	-0.628266
Cl58	Cl	-4.322063	0.766293	0.200337
Cl59	Cl	-3.994292	1.010412	-0.982687
Cl60	Cl	-3.519161	0.958915	-0.815601
Cl61	Cl	-4.040888	0.123634	-0.537125
H62	H	-4.264567	0.325595	-0.763437
Cl63	Cl	-3.717982	0.508395	-0.803874
H64	H	-4.243298	0.973371	-0.812614
H65	H	-3.479491	0.890592	-0.544018
H66	H	-3.600235	0.707818	0.203197
H67	H	-3.458123	0.643042	0.447810
Cl68	Cl	-3.666247	0.617366	0.641911
