data_functionalizedCrystal
_audit_creation_method	'MofGen! by Chris Wilmer'
_symmetry_space_group_name_H-M	'P1'
_symmetry_Int_Tables_number	1
_symmetry_cell_setting	triclinic
loop_
_symmetry_equiv_pos_as_xyz
  x,y,z
_cell_length_a	18.215407
_cell_length_b	19.077068
_cell_length_c	18.215399
_cell_angle_alpha	92.268164
_cell_angle_beta	89.980167
_cell_angle_gamma	92.327501
loop_
_atom_site_label
_atom_site_type_symbol
_atom_site_fract_x
_atom_site_fract_y
_atom_site_fract_z
Zn1	Zn	1.113288	-0.280200	-0.427869
Zn2	Zn	1.446621	0.053133	-0.094535
Zn3	Zn	1.779955	0.386466	0.238798
Zn4	Zn	1.108246	-0.397902	-0.309739
Zn5	Zn	1.441580	-0.064569	0.023594
Zn6	Zn	1.774913	0.268765	0.356927
Zn7	Zn	0.990220	-0.280223	-0.304817
Zn8	Zn	1.323553	0.053110	0.028516
Zn9	Zn	1.656886	0.386443	0.361850
Zn10	Zn	0.985238	-0.397863	-0.432763
Zn11	Zn	1.318571	-0.064530	-0.099429
Zn12	Zn	1.651905	0.268804	0.233904
O13	O	1.049248	-0.339047	-0.368797
O14	O	1.382581	-0.005714	-0.035464
O15	O	1.715915	0.327619	0.297870
O16	O	1.215603	-0.295821	-0.412210
O17	O	1.548936	0.037513	-0.078877
O18	O	1.882270	0.370846	0.254456
O19	O	1.092565	-0.382318	-0.206103
O20	O	1.425898	-0.048984	0.127230
O21	O	1.759231	0.284349	0.460564
O22	O	1.010740	-0.181729	-0.317032
O23	O	1.344073	0.151604	0.016301
O24	O	1.677406	0.484937	0.349635
O25	O	1.211899	-0.382295	-0.325421
O26	O	1.545232	-0.048962	0.007912
O27	O	1.878566	0.284371	0.341245
O28	O	1.101157	-0.181712	-0.407437
O29	O	1.434491	0.151621	-0.074104
O30	O	1.767824	0.484954	0.259229
O31	O	1.005851	-0.295860	-0.202487
O32	O	1.339184	0.037474	0.130847
O33	O	1.672518	0.370807	0.464180
O34	O	0.886575	-0.295822	-0.321777
O35	O	1.219908	0.037512	0.011556
O36	O	1.553241	0.370845	0.344889
O37	O	1.002249	-0.382229	-0.535097
O38	O	1.335583	-0.048895	-0.201763
O39	O	1.668916	0.284438	0.131570
O40	O	0.882915	-0.382251	-0.415778
O41	O	1.216248	-0.048918	-0.082445
O42	O	1.549582	0.284416	0.250888
O43	O	1.096327	-0.295783	-0.531501
O44	O	1.429660	0.037551	-0.198168
O45	O	1.762994	0.370884	0.135166
O46	O	1.087734	-0.496388	-0.330167
O47	O	1.421068	-0.163055	0.003167
O48	O	1.754401	0.170279	0.336500
O49	O	0.997361	-0.496359	-0.420551
O50	O	1.330694	-0.163026	-0.087218
O51	O	1.664027	0.170307	0.246115
C52	C	0.858042	-0.339035	-0.368775
C53	C	1.191376	-0.005702	-0.035442
C54	C	1.524709	0.327632	0.297891
C55	C	0.776243	-0.339047	-0.368784
C56	C	1.109576	-0.005714	-0.035451
C57	C	1.442909	0.327620	0.297883
C58	C	0.586159	-0.384121	-0.417674
C59	C	0.919493	-0.050788	-0.084341
C60	C	1.252826	0.282545	0.248992
C61	C	0.509301	-0.384124	-0.417684
C62	C	0.842634	-0.050790	-0.084350
C63	C	1.175967	0.282543	0.248983
C64	C	0.513088	-0.293986	-0.319936
C65	C	0.846421	0.039348	0.013397
C66	C	1.179755	0.372681	0.346731
C67	C	0.589945	-0.293980	-0.319931
C68	C	0.923279	0.039353	0.013403
C69	C	1.256612	0.372686	0.346736
C70	C	0.626479	-0.339052	-0.368799
C71	C	0.959812	-0.005719	-0.035466
C72	C	1.293146	0.327614	0.297868
C73	C	0.472763	-0.339060	-0.368814
C74	C	0.806096	-0.005726	-0.035480
C75	C	1.139429	0.327607	0.297853
C76	C	0.389429	-0.339062	-0.368823
C77	C	0.722762	-0.005728	-0.035490
C78	C	1.056096	0.327605	0.297843
C79	C	0.709818	-0.339050	-0.368791
C80	C	1.043152	-0.005716	-0.035457
C81	C	1.376485	0.327617	0.297876
C82	C	1.041480	-0.521911	-0.376440
C83	C	1.374813	-0.188578	-0.043107
C84	C	1.708146	0.144755	0.290226
C85	C	1.038224	-0.600141	-0.379735
C86	C	1.371557	-0.266808	-0.046401
C87	C	1.704891	0.066525	0.286932
C88	C	1.083783	-0.636886	-0.334263
C89	C	1.417117	-0.303552	-0.000930
C90	C	1.750450	0.029781	0.332404
C91	C	1.080725	-0.710391	-0.337366
C92	C	1.414059	-0.377058	-0.004033
C93	C	1.747392	-0.043724	0.329301
C94	C	1.032104	-0.747151	-0.385937
C95	C	1.365437	-0.413818	-0.052604
C96	C	1.698770	-0.080484	0.280729
C97	C	0.986542	-0.710401	-0.431414
C98	C	1.319875	-0.377068	-0.098081
C99	C	1.653209	-0.043735	0.235253
C100	C	0.989604	-0.636897	-0.428314
C101	C	1.322938	-0.303564	-0.094981
C102	C	1.656271	0.029769	0.238352
C103	C	1.017899	-0.966985	-0.400254
C104	C	1.351232	-0.633652	-0.066920
C105	C	1.684566	-0.300319	0.266413
C106	C	1.014839	-1.040495	-0.403348
C107	C	1.348172	-0.707161	-0.070015
C108	C	1.681505	-0.373828	0.263318
C109	C	1.109023	-1.040479	-0.309301
C110	C	1.442357	-0.707146	0.024032
C111	C	1.775690	-0.373813	0.357366
C112	C	1.112078	-0.966974	-0.306202
C113	C	1.445412	-0.633640	0.027131
C114	C	1.778745	-0.300307	0.360464
C115	C	1.066520	-0.930231	-0.351682
C116	C	1.399853	-0.596897	-0.018348
C117	C	1.733186	-0.263564	0.314985
N118	N	1.028975	-0.822285	-0.389109
N119	N	1.362308	-0.488952	-0.055775
N120	N	1.695642	-0.155619	0.277558
N121	N	1.069652	-0.855098	-0.348514
N122	N	1.402986	-0.521764	-0.015180
N123	N	1.736319	-0.188431	0.318153
C124	C	1.241200	-0.339060	-0.368819
C125	C	1.574534	-0.005726	-0.035486
C126	C	1.907867	0.327607	0.297848
C127	C	1.322999	-0.339065	-0.368828
C128	C	1.656332	-0.005732	-0.035495
C129	C	1.989666	0.327602	0.297838
C130	C	1.049295	-0.338999	-0.560748
C131	C	1.382628	-0.005665	-0.227415
C132	C	1.715962	0.327668	0.105919
C133	C	1.049315	-0.338978	-0.642546
C134	C	1.382648	-0.005645	-0.309213
C135	C	1.715981	0.327689	0.024121
C136	C	1.057067	-0.155469	-0.361140
C137	C	1.390400	0.177864	-0.027806
C138	C	1.723733	0.511198	0.305527
C139	C	1.060398	-0.077239	-0.357877
C140	C	1.393732	0.256094	-0.024543
C141	C	1.727065	0.589428	0.308790
C142	C	1.098320	-0.293923	-0.828867
C143	C	1.431653	0.039410	-0.495534
C144	C	1.764986	0.372743	-0.162201
C145	C	1.098329	-0.293903	-0.905725
C146	C	1.431663	0.039430	-0.572392
C147	C	1.764996	0.372764	-0.239058
C148	C	1.000366	-0.383924	-0.909458
C149	C	1.333700	-0.050590	-0.576125
C150	C	1.667033	0.282743	-0.242791
C151	C	1.000354	-0.383940	-0.832601
C152	C	1.333687	-0.050607	-0.499268
C153	C	1.667021	0.282726	-0.165935
C154	C	1.049335	-0.338941	-0.792308
C155	C	1.382668	-0.005608	-0.458975
C156	C	1.716001	0.327726	-0.125641
C157	C	1.049357	-0.338904	-0.946023
C158	C	1.382690	-0.005571	-0.612689
C159	C	1.716024	0.327763	-0.279356
C160	C	1.049367	-0.338882	-1.029355
C161	C	1.382700	-0.005549	-0.696022
C162	C	1.716034	0.327784	-0.362689
C163	C	1.049324	-0.338962	-0.708970
C164	C	1.382657	-0.005628	-0.375636
C165	C	1.715990	0.327705	-0.042303
C166	C	1.049246	-0.339045	-0.177591
C167	C	1.382579	-0.005711	0.155743
C168	C	1.715912	0.327622	0.489076
C169	C	1.049377	-0.338867	-0.095785
C170	C	1.382710	-0.005534	0.237549
C171	C	1.716043	0.327800	0.570882
H172	H	1.123373	-0.606961	-0.294708
H173	H	1.456707	-0.273627	0.038625
H174	H	1.790040	0.059706	0.371959
O175	O	0.945313	-0.601126	-0.472380
O176	O	1.278647	-0.267793	-0.139047
O177	O	1.611980	0.065541	0.194287
C178	C	0.899559	-0.558685	-0.428652
C179	C	1.232892	-0.225351	-0.095318
C180	C	1.566226	0.107982	0.238015
H181	H	0.926002	-0.547687	-0.372440
H182	H	1.259335	-0.214354	-0.039106
H183	H	1.592669	0.118980	0.294227
H184	H	0.891835	-0.506986	-0.456442
H185	H	1.225168	-0.173652	-0.123109
H186	H	1.558502	0.159681	0.210224
H187	H	0.843843	-0.587060	-0.421713
H188	H	1.177177	-0.253727	-0.088380
H189	H	1.510510	0.079606	0.244953
O190	O	1.145964	-0.250308	-0.789695
O191	O	1.479298	0.083026	-0.456362
O192	O	1.812631	0.416359	-0.123029
C193	C	1.191775	-0.290383	-0.746901
C194	C	1.525109	0.042950	-0.413568
C195	C	1.858442	0.376284	-0.080234
H196	H	1.193973	-0.345811	-0.772372
H197	H	1.527307	-0.012478	-0.439038
H198	H	1.860640	0.320856	-0.105705
H199	H	1.249491	-0.264923	-0.744977
H200	H	1.582825	0.068410	-0.411644
H201	H	1.916158	0.401743	-0.078311
H202	H	1.168907	-0.292820	-0.688750
H203	H	1.502240	0.040513	-0.355417
H204	H	1.835574	0.373846	-0.022083
H205	H	0.622775	-0.257275	-0.280130
H206	H	0.956108	0.076058	0.053203
H207	H	1.289442	0.409391	0.386536
O208	O	0.470217	-0.427871	-0.465260
O209	O	0.803550	-0.094538	-0.131927
O210	O	1.136883	0.238796	0.201406
C211	C	0.489667	-0.412567	-0.537994
C212	C	0.823001	-0.079234	-0.204660
C213	C	1.156334	0.254099	0.128673
H214	H	0.546620	-0.385510	-0.538428
H215	H	0.879954	-0.052176	-0.205095
H216	H	1.213287	0.281157	0.128239
H217	H	0.490154	-0.463403	-0.573030
H218	H	0.823487	-0.130070	-0.239697
H219	H	1.156820	0.203263	0.093636
H220	H	0.447957	-0.376415	-0.561337
H221	H	0.781291	-0.043082	-0.228003
H222	H	1.114624	0.290252	0.105330
O223	O	0.952842	-0.427775	-0.797120
O224	O	1.286176	-0.094442	-0.463786
O225	O	1.619509	0.238892	-0.130453
C226	C	0.965931	-0.497920	-0.818836
C227	C	1.299264	-0.164586	-0.485503
C228	C	1.632597	0.168747	-0.152170
H229	H	1.024574	-0.501472	-0.840126
H230	H	1.357907	-0.168139	-0.506792
H231	H	1.691241	0.165195	-0.173459
H232	H	0.958106	-0.532699	-0.769737
H233	H	1.291439	-0.199366	-0.436404
H234	H	1.624772	0.133967	-0.103071
H235	H	0.925697	-0.516309	-0.864205
H236	H	1.259031	-0.182976	-0.530871
H237	H	1.592364	0.150358	-0.197538
O238	O	0.621734	-0.427799	-0.465180
O239	O	0.955068	-0.094466	-0.131847
O240	O	1.288401	0.238867	0.201486
C241	C	0.667896	-0.387779	-0.511115
C242	C	1.001229	-0.054446	-0.177781
C243	C	1.334562	0.278888	0.155552
H244	H	0.681665	-0.334411	-0.483014
H245	H	1.014999	-0.001078	-0.149680
H246	H	1.348332	0.332256	0.183653
H247	H	0.720728	-0.416456	-0.522127
H248	H	1.054062	-0.083122	-0.188794
H249	H	1.387395	0.250211	0.144540
H250	H	0.638622	-0.380110	-0.565345
H251	H	0.971956	-0.046777	-0.232012
H252	H	1.305289	0.286557	0.101321
H253	H	1.151670	-0.937045	-0.266652
H254	H	1.485003	-0.603712	0.066682
H255	H	1.818337	-0.270379	0.400015
O256	O	0.477481	-0.250273	-0.272493
O257	O	0.810814	0.083061	0.060840
O258	O	1.144148	0.416394	0.394174
C259	C	0.400999	-0.259928	-0.282989
C260	C	0.734332	0.073406	0.050344
C261	C	1.067665	0.406739	0.383677
H262	H	0.388204	-0.314275	-0.309269
H263	H	0.721537	0.019059	0.024064
H264	H	1.054870	0.352392	0.357397
H265	H	0.371971	-0.255085	-0.227673
H266	H	0.705304	0.078248	0.105660
H267	H	1.038638	0.411581	0.438994
H268	H	0.380975	-0.218231	-0.320511
H269	H	0.714309	0.115103	0.012822
H270	H	1.047642	0.448436	0.346155
O271	O	1.125008	-0.745975	-0.293118
O272	O	1.458341	-0.412642	0.040215
O273	O	1.791674	-0.079309	0.373548
C274	C	1.168588	-0.697768	-0.249593
C275	C	1.501921	-0.364435	0.083740
C276	C	1.835255	-0.031102	0.417074
H277	H	1.140625	-0.645399	-0.244810
H278	H	1.473958	-0.312065	0.088523
H279	H	1.807292	0.021268	0.421856
H280	H	1.175582	-0.719039	-0.192513
H281	H	1.508916	-0.385706	0.140820
H282	H	1.842249	-0.052372	0.474153
H283	H	1.224795	-0.689887	-0.276258
H284	H	1.558128	-0.356553	0.057075
H285	H	1.891462	-0.023220	0.390409
O286	O	1.145986	-0.250152	-0.941124
O287	O	1.479319	0.083181	-0.607790
O288	O	1.812652	0.416515	-0.274457
C289	C	1.189198	-0.210428	-0.889075
C290	C	1.522531	0.122906	-0.555742
C291	C	1.855864	0.456239	-0.222409
H292	H	1.190510	-0.239270	-0.835492
H293	H	1.523843	0.094063	-0.502159
H294	H	1.857176	0.427396	-0.168826
H295	H	1.247504	-0.202917	-0.910980
H296	H	1.580838	0.130416	-0.577647
H297	H	1.914171	0.463749	-0.244314
H298	H	1.164523	-0.156974	-0.878666
H299	H	1.497857	0.176359	-0.545332
H300	H	1.831190	0.509693	-0.211999
H301	H	0.975254	-1.070422	-0.442914
H302	H	1.308587	-0.737089	-0.109581
H303	H	1.641920	-0.403756	0.223753
O304	O	1.153257	-1.076281	-0.265209
O305	O	1.486591	-0.742947	0.068125
O306	O	1.819924	-0.409614	0.401458
C307	C	1.140121	-1.149040	-0.278346
C308	C	1.473455	-0.815706	0.054987
C309	C	1.806788	-0.482373	0.388321
H310	H	1.115560	-1.159060	-0.335537
H311	H	1.448894	-0.825727	-0.002204
H312	H	1.782227	-0.492393	0.331130
H313	H	1.194090	-1.176931	-0.274591
H314	H	1.527423	-0.843598	0.058742
H315	H	1.860757	-0.510264	0.392075
H316	H	1.100094	-1.169963	-0.235534
H317	H	1.433427	-0.836630	0.097799
H318	H	1.766760	-0.503297	0.431132
O319	O	0.973560	-0.931408	-0.444448
O320	O	1.306894	-0.598075	-0.111114
O321	O	1.640227	-0.264742	0.222219
C322	C	0.929998	-0.979618	-0.487987
C323	C	1.263331	-0.646285	-0.154654
C324	C	1.596665	-0.312952	0.178679
H325	H	0.925295	-1.032037	-0.460051
H326	H	1.258628	-0.698704	-0.126718
H327	H	1.591961	-0.365370	0.206616
H328	H	0.872889	-0.958427	-0.494880
H329	H	1.206223	-0.625093	-0.161547
H330	H	1.539556	-0.291760	0.171787
H331	H	0.956583	-0.987375	-0.544237
H332	H	1.289916	-0.654041	-0.210904
H333	H	1.623250	-0.320708	0.122430
H334	H	0.960490	-0.420562	-0.942274
H335	H	1.293823	-0.087229	-0.608941
H336	H	1.627156	0.246105	-0.275608
H337	H	0.946956	-0.740337	-0.470965
H338	H	1.280290	-0.407004	-0.137632
H339	H	1.613623	-0.073670	0.195702
