data_functionalizedCrystal
_audit_creation_method	'MofGen! by Chris Wilmer'
_symmetry_space_group_name_H-M	'P1'
_symmetry_Int_Tables_number	1
_symmetry_cell_setting	triclinic
loop_
_symmetry_equiv_pos_as_xyz
  x,y,z
_cell_length_a	15.944551
_cell_length_b	19.288840
_cell_length_c	18.366186
_cell_angle_alpha	89.983729
_cell_angle_beta	90.001349
_cell_angle_gamma	96.687623
loop_
_atom_site_label
_atom_site_type_symbol
_atom_site_fract_x
_atom_site_fract_y
_atom_site_fract_z
O1	O	-0.104683	0.921640	-0.060664
O2	O	0.395317	1.421640	0.439336
O3	O	-0.118840	0.719414	-0.060637
O4	O	0.381160	1.219414	0.439363
O5	O	0.010535	0.826049	-0.060655
O6	O	0.510535	1.326049	0.439345
O7	O	-0.234059	0.815004	-0.060645
O8	O	0.265941	1.315004	0.439355
O9	O	0.010541	0.826031	0.060444
O10	O	0.510541	1.326031	0.560444
O11	O	-0.118834	0.719396	0.060462
O12	O	0.381166	1.219396	0.560462
O13	O	-0.104677	0.921621	0.060436
O14	O	0.395323	1.421621	0.560436
Zn15	Zn	-0.111755	0.820506	0.079676
Zn16	Zn	0.388245	1.320506	0.579676
Zn17	Zn	-0.111763	0.820530	-0.079878
Zn18	Zn	0.388237	1.320530	0.420122
O19	O	-0.234052	0.814986	0.060454
O20	O	0.265948	1.314986	0.560454
C21	C	-0.118385	0.693527	-0.000084
C22	C	0.381615	1.193527	0.499916
C23	C	-0.117028	0.616419	-0.000075
C24	C	0.382972	1.116419	0.499925
C25	C	-0.116380	0.580223	-0.066088
C26	C	0.383620	1.080223	0.433912
C27	C	-0.115096	0.507773	-0.066097
C28	C	0.384904	1.007773	0.433903
C29	C	-0.114443	0.471523	-0.000089
C30	C	0.385557	0.971523	0.499911
C31	C	-0.115096	0.507726	0.065933
C32	C	0.384904	1.007726	0.565933
C33	C	-0.116389	0.580174	0.065940
C34	C	0.383611	1.080174	0.565940
C35	C	-0.063193	0.362052	0.050470
C36	C	0.436807	0.862052	0.550470
C37	C	-0.061895	0.289606	0.050460
C38	C	0.438105	0.789606	0.550460
C39	C	-0.110459	0.248069	-0.000108
C40	C	0.389541	0.748069	0.499892
C41	C	-0.160311	0.278987	-0.050679
C42	C	0.339689	0.778987	0.449321
C43	C	-0.161603	0.351435	-0.050672
C44	C	0.338397	0.851435	0.449328
C45	C	-0.113042	0.392965	-0.000089
C46	C	0.386958	0.892965	0.499911
C47	C	-0.108420	0.133314	-0.066135
C48	C	0.391580	0.633314	0.433865
C49	C	-0.107140	0.060862	-0.066142
C50	C	0.392860	0.560862	0.433858
C51	C	-0.107132	0.060818	0.065890
C52	C	0.392868	0.560818	0.565890
C53	C	-0.108420	0.133267	0.065894
C54	C	0.391580	0.633267	0.565894
C55	C	-0.109059	0.169512	-0.000120
C56	C	0.390941	0.669512	0.499880
C57	C	-0.265348	0.815454	-0.000095
C58	C	0.234652	1.315454	0.499905
C59	C	-0.358588	0.816828	-0.000092
C60	C	0.141412	1.316828	0.499908
C61	C	-0.573170	0.886212	-0.000112
C62	C	-0.073170	1.386212	0.499888
C63	C	-0.634311	0.853983	0.059601
C64	C	-0.134311	1.353983	0.559601
C65	C	-0.529304	0.819315	-0.000099
C66	C	-0.029304	1.319315	0.499901
C67	C	-0.634303	0.853985	-0.059793
C68	C	-0.134303	1.353985	0.440207
C69	C	-0.694207	0.821722	-0.000108
C70	C	-0.194207	1.321722	0.499892
C71	C	-0.589217	0.787069	0.059664
C72	C	-0.089217	1.287069	0.559664
C73	C	-0.589202	0.787080	-0.059784
C74	C	-0.089202	1.287080	0.440216
C75	C	-0.650325	0.754803	-0.000057
C76	C	-0.150325	1.254803	0.499943
C77	C	-0.434307	0.817930	-0.000092
C78	C	0.065693	1.317930	0.499908
C79	C	-0.789203	0.823102	-0.000109
C80	C	-0.289203	1.323102	0.499891
C81	C	0.041830	0.825581	-0.000108
C82	C	0.541830	1.325581	0.499892
C83	C	0.135071	0.824207	-0.000116
C84	C	0.635071	1.324207	0.499884
C85	C	-0.105132	0.947508	-0.000119
C86	C	0.394868	1.447508	0.499881
C87	C	-0.106489	1.024617	-0.000133
C88	C	0.393511	1.524617	0.499867
N89	N	-0.111748	0.820494	0.188567
N90	N	0.388252	1.320494	0.688567
N91	N	-0.111762	0.820546	-0.188769
N92	N	0.388238	1.320546	0.311231
C93	C	-0.054489	0.867728	0.226660
C94	C	0.445511	1.367728	0.726660
C95	C	-0.054485	0.867732	0.302887
C96	C	0.445515	1.367732	0.802887
C97	C	-0.111755	0.820510	0.341020
C98	C	0.388245	1.320510	0.841020
C99	C	-0.169019	0.773267	0.302918
C100	C	0.330981	1.273267	0.802918
C101	C	-0.169015	0.773260	0.226692
C102	C	0.330985	1.273260	0.726692
C103	C	-0.188290	0.811413	0.461784
C104	C	0.311710	1.311413	0.961784
C105	C	-0.188294	0.811426	0.538009
C106	C	0.311706	1.311426	1.038009
C107	C	-0.111766	0.820530	0.576127
C108	C	0.388234	1.320530	1.076127
C109	C	-0.035229	0.829636	0.538012
C110	C	0.464771	1.329636	1.038012
C111	C	-0.035226	0.829628	0.461785
C112	C	0.464774	1.329628	0.961785
C113	C	-0.111765	0.820513	0.423675
C114	C	0.388235	1.320513	0.923675
C115	C	-0.054498	0.867771	0.696875
C116	C	0.445502	1.367771	1.196875
C117	C	-0.054493	0.867770	0.773104
C118	C	0.445507	1.367770	1.273104
C119	C	-0.169034	0.773308	0.773134
C120	C	0.330966	1.273308	1.273134
C121	C	-0.169031	0.773306	0.696906
C122	C	0.330969	1.273306	1.196906
C123	C	-0.111764	0.820540	0.658781
C124	C	0.388236	1.320540	1.158781
H125	H	-0.202196	0.376605	-0.091847
H126	H	0.297804	0.876605	0.408153
F127	F	-0.660420	0.890994	-0.125774
F128	F	-0.160420	1.390994	0.374226
F129	F	-0.106457	0.022340	-0.136406
F130	F	0.393543	0.522340	0.363594
H131	H	-0.215661	0.734856	0.804180
H132	H	0.284339	1.234856	1.304180
H133	H	-0.569335	0.758789	0.110201
H134	H	-0.069335	1.258789	0.610201
H135	H	-0.215648	0.734817	0.333970
H136	H	0.284352	1.234817	0.833970
F137	F	-0.212003	0.234785	-0.104500
F138	F	0.287997	0.734785	0.395500
H139	H	-0.007856	0.906197	0.333908
H140	H	0.492144	1.406197	0.833908
F141	F	-0.563039	0.750138	-0.125763
F142	F	-0.063039	1.250138	0.374237
F143	F	-0.011502	0.406254	0.104297
F144	F	0.488498	0.906254	0.604297
H145	H	-0.215644	0.734796	0.195677
H146	H	0.284356	1.234796	0.695677
F147	F	-0.106445	0.022241	0.136141
F148	F	0.393555	0.522241	0.636141
F149	F	0.006458	0.918041	0.813646
F150	F	0.506458	1.418041	1.313646
F151	F	-0.229978	0.723036	0.656362
F152	F	0.270022	1.223036	1.156362
F153	F	-0.109106	0.171890	-0.136393
F154	F	0.390894	0.671890	0.363607
H155	H	0.027093	0.837041	0.430754
H156	H	0.527093	1.337041	0.930754
F157	F	-0.660450	0.890957	0.125574
F158	F	-0.160450	1.390957	0.625574
F159	F	-0.693949	0.682160	-0.000010
F160	F	-0.193949	1.182160	0.499990
F161	F	-0.117063	0.618793	-0.136347
F162	F	0.382937	1.118793	0.363653
H163	H	-0.114567	0.478206	0.119677
H164	H	0.385433	0.978206	0.619677
F165	F	0.006462	0.917996	0.186086
F166	F	0.506462	1.417996	0.686086
H167	H	-0.116918	0.609644	0.119698
H168	H	0.383082	1.109644	0.619698
F169	F	-0.269750	0.801739	0.578568
F170	F	0.230250	1.301739	1.078568
F171	F	0.046225	0.839330	0.578574
F172	F	0.546225	1.339330	1.078574
F173	F	-0.109106	0.171791	0.136156
F174	F	0.390894	0.671791	0.636156
F175	F	-0.114406	0.469243	-0.136360
F176	F	0.385594	0.969243	0.363640
F177	F	-0.008855	0.256706	0.104293
F178	F	0.491145	0.756706	0.604293
F179	F	0.006454	0.918039	0.656299
F180	F	0.506454	1.418039	1.156299
H181	H	-0.250613	0.803987	0.430754
H182	H	0.249387	1.303987	0.930754
H183	H	-0.539644	0.941739	-0.000060
H184	H	-0.039644	1.441739	0.499940
