data_functionalizedCrystal
_audit_creation_method	'MofGen! by Chris Wilmer'
_symmetry_space_group_name_H-M	'P1'
_symmetry_Int_Tables_number	1
_symmetry_cell_setting	triclinic
loop_
_symmetry_equiv_pos_as_xyz
  x,y,z
_cell_length_a	14.044220
_cell_length_b	14.044190
_cell_length_c	18.366186
_cell_angle_alpha	89.989358
_cell_angle_beta	89.996026
_cell_angle_gamma	93.190328
loop_
_atom_site_label
_atom_site_type_symbol
_atom_site_fract_x
_atom_site_fract_y
_atom_site_fract_z
O1	O	1.277180	0.230170	-0.060487
O2	O	1.527180	0.480170	0.189513
O3	O	1.777180	0.730170	0.439513
O4	O	2.027180	0.980170	0.689513
O5	O	1.000508	0.221865	-0.060505
O6	O	1.250508	0.471865	0.189495
O7	O	1.500508	0.721865	0.439495
O8	O	1.750508	0.971865	0.689495
O9	O	1.134688	0.087681	-0.060482
O10	O	1.384688	0.337681	0.189518
O11	O	1.634688	0.587681	0.439518
O12	O	1.884688	0.837681	0.689518
O13	O	1.143001	0.364354	-0.060510
O14	O	1.393001	0.614354	0.189490
O15	O	1.643001	0.864354	0.439490
O16	O	1.893001	1.114354	0.689490
O17	O	1.134662	0.087672	0.060618
O18	O	1.384662	0.337672	0.310618
O19	O	1.634662	0.587672	0.560618
O20	O	1.884662	0.837672	0.810618
O21	O	1.000483	0.221855	0.060595
O22	O	1.250483	0.471855	0.310595
O23	O	1.500483	0.721855	0.560595
O24	O	1.750483	0.971855	0.810595
O25	O	1.277154	0.230161	0.060612
O26	O	1.527154	0.480161	0.310612
O27	O	1.777154	0.730161	0.560612
O28	O	2.027154	0.980161	0.810612
Zn29	Zn	1.138815	0.226007	0.079831
Zn30	Zn	1.388815	0.476007	0.329831
Zn31	Zn	1.638815	0.726007	0.579831
Zn32	Zn	1.888815	0.976007	0.829831
Zn33	Zn	1.138848	0.226019	-0.079723
Zn34	Zn	1.388848	0.476019	0.170277
Zn35	Zn	1.638848	0.726019	0.420277
Zn36	Zn	1.888848	0.976019	0.670277
O37	O	1.142975	0.364344	0.060589
O38	O	1.392975	0.614344	0.310589
O39	O	1.642975	0.864344	0.560589
O40	O	1.892975	1.114344	0.810589
C41	C	0.964874	0.218224	0.000043
C42	C	1.214874	0.468224	0.250043
C43	C	1.464874	0.718224	0.500043
C44	C	1.714874	0.968224	0.750043
C45	C	0.858731	0.207380	0.000036
C46	C	1.108731	0.457380	0.250036
C47	C	1.358731	0.707380	0.500036
C48	C	1.608731	0.957380	0.750036
C49	C	1.131039	0.052054	0.000070
C50	C	1.381039	0.302054	0.250070
C51	C	1.631039	0.552054	0.500070
C52	C	1.881039	0.802054	0.750070
C53	C	1.120191	-0.054089	0.000075
C54	C	1.370191	0.195911	0.250075
C55	C	1.620191	0.445911	0.500075
C56	C	1.870191	0.695911	0.750075
C57	C	0.664392	0.187553	0.000053
C58	C	0.914392	0.437553	0.250053
C59	C	1.164392	0.687553	0.500053
C60	C	1.414392	0.937553	0.750053
C61	C	0.613264	0.264468	0.000048
C62	C	0.863264	0.514468	0.250048
C63	C	1.113264	0.764468	0.500048
C64	C	1.363264	1.014468	0.750048
C65	C	0.505128	0.253436	0.000057
C66	C	0.755128	0.503436	0.250057
C67	C	1.005128	0.753436	0.500057
C68	C	1.255128	1.003436	0.750057
C69	C	0.772539	0.198583	0.000044
C70	C	1.022539	0.448583	0.250044
C71	C	1.272539	0.698583	0.500044
C72	C	1.522539	0.948583	0.750044
C73	C	1.177292	-0.299547	0.000051
C74	C	1.427292	-0.049547	0.250051
C75	C	1.677292	0.200453	0.500051
C76	C	1.927292	0.450453	0.750051
C77	C	1.100375	-0.248422	0.000051
C78	C	1.350375	0.001578	0.250051
C79	C	1.600375	0.251578	0.500051
C80	C	1.850375	0.501578	0.750051
C81	C	1.111404	-0.140285	0.000064
C82	C	1.361404	0.109715	0.250064
C83	C	1.611404	0.359715	0.500064
C84	C	1.861404	0.609715	0.750064
C85	C	1.166265	-0.407694	0.000037
C86	C	1.416265	-0.157694	0.250037
C87	C	1.666265	0.092306	0.500037
C88	C	1.916265	0.342306	0.750037
C89	C	1.312789	0.233801	0.000063
C90	C	1.562789	0.483801	0.250063
C91	C	1.812789	0.733801	0.500063
C92	C	2.062789	0.983801	0.750063
C93	C	1.418932	0.244646	0.000065
C94	C	1.668932	0.494646	0.250065
C95	C	1.918932	0.744646	0.500065
C96	C	2.168932	0.994646	0.750065
C97	C	1.146624	0.399971	0.000036
C98	C	1.396624	0.649971	0.250036
C99	C	1.646624	0.899971	0.500036
C100	C	1.896624	1.149971	0.750036
C101	C	1.157472	0.506114	0.000026
C102	C	1.407472	0.756114	0.250026
C103	C	1.657472	1.006114	0.500026
C104	C	1.907472	1.256114	0.750026
N105	N	1.138799	0.225998	0.188722
N106	N	1.388799	0.475998	0.438722
N107	N	1.638799	0.725998	0.688722
N108	N	1.888799	0.975998	0.938722
N109	N	1.138871	0.226020	-0.188614
N110	N	1.388871	0.476020	0.061386
N111	N	1.638871	0.726020	0.311386
N112	N	1.888871	0.976020	0.561386
C113	C	1.198237	0.166615	0.226832
C114	C	1.448237	0.416615	0.476832
C115	C	1.698237	0.666615	0.726832
C116	C	1.948237	0.916615	0.976832
C117	C	1.198243	0.166612	0.303060
C118	C	1.448243	0.416612	0.553060
C119	C	1.698243	0.666612	0.803060
C120	C	1.948243	0.916612	1.053060
C121	C	1.138820	0.226008	0.341174
C122	C	1.388820	0.476008	0.591174
C123	C	1.638820	0.726008	0.841174
C124	C	1.888820	0.976008	1.091174
C125	C	1.079370	0.285394	0.303055
C126	C	1.329370	0.535394	0.553055
C127	C	1.579370	0.785394	0.803055
C128	C	1.829370	1.035394	1.053055
C129	C	1.079359	0.285389	0.226828
C130	C	1.329359	0.535389	0.476828
C131	C	1.579359	0.785389	0.726828
C132	C	1.829359	1.035389	0.976828
C133	C	1.133666	0.311899	0.461925
C134	C	1.383666	0.561899	0.711925
C135	C	1.633666	0.811899	0.961925
C136	C	1.883666	1.061899	1.211925
C137	C	1.133684	0.311906	0.538150
C138	C	1.383684	0.561906	0.788150
C139	C	1.633684	0.811906	1.038150
C140	C	1.883684	1.061906	1.288150
C141	C	1.138849	0.226022	0.576282
C142	C	1.388849	0.476022	0.826282
C143	C	1.638849	0.726022	1.076282
C144	C	1.888849	0.976022	1.326282
C145	C	1.144016	0.140129	0.538179
C146	C	1.394016	0.390129	0.788179
C147	C	1.644016	0.640129	1.038179
C148	C	1.894016	0.890129	1.288179
C149	C	1.144005	0.140125	0.461953
C150	C	1.394005	0.390125	0.711953
C151	C	1.644005	0.640125	0.961953
C152	C	1.894005	0.890125	1.211953
C153	C	1.138825	0.226019	0.423829
C154	C	1.388825	0.476019	0.673829
C155	C	1.638825	0.726019	0.923829
C156	C	1.888825	0.976019	1.173829
C157	C	1.198297	0.166630	0.697048
C158	C	1.448297	0.416630	0.947048
C159	C	1.698297	0.666630	1.197048
C160	C	1.948297	0.916630	1.447048
C161	C	1.198296	0.166625	0.773277
C162	C	1.448296	0.416625	1.023277
C163	C	1.698296	0.666625	1.273277
C164	C	1.948296	0.916625	1.523277
C165	C	1.079428	0.285416	0.773270
C166	C	1.329428	0.535416	1.023270
C167	C	1.579428	0.785416	1.273270
C168	C	1.829428	1.035416	1.523270
C169	C	1.079424	0.285413	0.697042
C170	C	1.329424	0.535413	0.947042
C171	C	1.579424	0.785413	1.197042
C172	C	1.829424	1.035413	1.447042
C173	C	1.138863	0.226022	0.658935
C174	C	1.388863	0.476022	0.908935
C175	C	1.638863	0.726022	1.158935
C176	C	1.888863	0.976022	1.408935
H177	H	0.650706	0.338602	0.000037
H178	H	0.900706	0.588602	0.250037
H179	H	1.150706	0.838602	0.500037
H180	H	1.400706	1.088602	0.750037
Cl181	Cl	1.150516	0.032154	0.586107
Cl182	Cl	1.400516	0.282154	0.836107
Cl183	Cl	1.650516	0.532154	1.086107
Cl184	Cl	1.900516	0.782154	1.336107
H185	H	1.251418	-0.262106	0.000063
H186	H	1.501418	-0.012106	0.250063
H187	H	1.751418	0.237894	0.500063
H188	H	2.001418	0.487894	0.750063
H189	H	0.626954	0.113425	0.000064
H190	H	0.876954	0.363425	0.250064
H191	H	1.126954	0.613425	0.500064
H192	H	1.376954	0.863425	0.750064
H193	H	1.026243	-0.285865	0.000042
H194	H	1.276243	-0.035865	0.250042
H195	H	1.526243	0.214135	0.500042
H196	H	1.776243	0.464135	0.750042
H197	H	1.246634	0.118253	0.195808
H198	H	1.496634	0.368253	0.445808
H199	H	1.746634	0.618253	0.695808
H200	H	1.996634	0.868253	0.945808
Cl201	Cl	1.272974	0.091953	0.350979
Cl202	Cl	1.522974	0.341953	0.600979
Cl203	Cl	1.772974	0.591953	0.850979
Cl204	Cl	2.022974	0.841953	1.100979
H205	H	1.148209	0.070188	0.430933
H206	H	1.398209	0.320188	0.680933
H207	H	1.648209	0.570188	0.930933
H208	H	1.898209	0.820188	1.180933
Cl209	Cl	1.273014	0.091962	0.649141
Cl210	Cl	1.523014	0.341962	0.899141
Cl211	Cl	1.773014	0.591962	1.149141
Cl212	Cl	2.023014	0.841962	1.399141
Cl213	Cl	1.273018	0.091960	0.821190
Cl214	Cl	1.523018	0.341960	1.071190
Cl215	Cl	1.773018	0.591960	1.321190
Cl216	Cl	2.023018	0.841960	1.571190
Cl217	Cl	1.004717	0.360078	0.821180
Cl218	Cl	1.254717	0.610078	1.071180
Cl219	Cl	1.504717	0.860078	1.321180
Cl220	Cl	1.754717	1.110078	1.571180
H221	H	1.031027	0.333772	0.666010
H222	H	1.281027	0.583772	0.916010
H223	H	1.531027	0.833772	1.166010
H224	H	1.781027	1.083772	1.416010
Cl225	Cl	1.127195	0.419885	0.586043
Cl226	Cl	1.377195	0.669885	0.836043
Cl227	Cl	1.627195	0.919885	1.086043
Cl228	Cl	1.877195	1.169885	1.336043
H229	H	1.129444	0.381840	0.430885
H230	H	1.379444	0.631840	0.680885
H231	H	1.629444	0.881840	0.930885
H232	H	1.879444	1.131840	1.180885
Cl233	Cl	1.004663	0.360060	0.350968
Cl234	Cl	1.254663	0.610060	0.600968
Cl235	Cl	1.504663	0.860060	0.850968
Cl236	Cl	1.754663	1.110060	1.100968
H237	H	1.030956	0.333747	0.195798
H238	H	1.280956	0.583747	0.445798
H239	H	1.530956	0.833747	0.695798
H240	H	1.780956	1.083747	0.945798
