data_functionalizedCrystal
_audit_creation_method	'MofGen! by Chris Wilmer'
_symmetry_space_group_name_H-M	'P1'
_symmetry_Int_Tables_number	1
_symmetry_cell_setting	triclinic
loop_
_symmetry_equiv_pos_as_xyz
  x,y,z
_cell_length_a	11.792241
_cell_length_b	10.268362
_cell_length_c	11.792241
_cell_angle_alpha	89.994572
_cell_angle_beta	95.806584
_cell_angle_gamma	90.000374
loop_
_atom_site_label
_atom_site_type_symbol
_atom_site_fract_x
_atom_site_fract_y
_atom_site_fract_z
O1	O	-1.506909	-0.108174	0.155569
O2	O	-1.173575	0.225159	0.488902
O3	O	-0.840242	0.558492	0.822235
O4	O	-1.176568	-0.108205	0.171602
O5	O	-0.843234	0.225129	0.504935
O6	O	-0.509901	0.558462	0.838268
O7	O	-1.349755	-0.108180	-0.001585
O8	O	-1.016421	0.225154	0.331748
O9	O	-0.683088	0.558487	0.665081
O10	O	-1.333722	-0.108199	0.328756
O11	O	-1.000388	0.225134	0.662089
O12	O	-0.667055	0.558467	0.995422
O13	O	-1.349740	0.108421	-0.001593
O14	O	-1.016406	0.441754	0.331741
O15	O	-0.683073	0.775088	0.665074
O16	O	-1.176553	0.108396	0.171594
O17	O	-0.843219	0.441729	0.504928
O18	O	-0.509886	0.775063	0.838261
O19	O	-1.506894	0.108426	0.155561
O20	O	-1.173560	0.441760	0.488895
O21	O	-0.840227	0.775093	0.822228
Cu22	Cu	-1.341722	0.128188	0.163577
Cu23	Cu	-1.008388	0.461522	0.496911
Cu24	Cu	-0.675055	0.794855	0.830244
Cu25	Cu	-1.341740	-0.127967	0.163586
Cu26	Cu	-1.008406	0.205366	0.496919
Cu27	Cu	-0.675073	0.538700	0.830252
O28	O	-1.333707	0.108401	0.328748
O29	O	-1.000373	0.441735	0.662082
O30	O	-0.667040	0.775068	0.995415
C31	C	-1.134269	0.000092	0.170591
C32	C	-0.800936	0.333425	0.503924
C33	C	-0.467603	0.666758	0.837258
C34	C	-1.008255	0.000080	0.167576
C35	C	-0.674922	0.333414	0.500910
C36	C	-0.341589	0.666747	0.834243
C37	C	-1.348740	0.000120	-0.043880
C38	C	-1.015407	0.333454	0.289453
C39	C	-0.682073	0.666787	0.622787
C40	C	-1.345726	0.000119	-0.169894
C41	C	-1.012392	0.333452	0.163440
C42	C	-0.679059	0.666785	0.496773
N43	N	-1.341717	0.308354	0.163571
N44	N	-1.008384	0.641688	0.496904
N45	N	-0.675051	0.975021	0.830237
C46	C	-1.549192	0.000127	0.156572
C47	C	-1.215859	0.333460	0.489905
C48	C	-0.882525	0.666794	0.823239
C49	C	-1.675206	0.000130	0.159587
C50	C	-1.341873	0.333463	0.492920
C51	C	-1.008539	0.666796	0.826253
C52	C	-0.777543	0.000118	0.162034
C53	C	-0.444210	0.333451	0.495367
C54	C	-0.110877	0.666785	0.828700
C55	C	-0.905928	0.000097	0.165113
C56	C	-0.572595	0.333431	0.498447
C57	C	-0.239262	0.666764	0.831780
N58	N	-1.341753	-0.308133	0.163584
N59	N	-1.008420	0.025201	0.496917
N60	N	-0.675086	0.358534	0.830250
C61	C	-1.341734	0.574025	0.163583
C62	C	-1.008401	0.907358	0.496917
C63	C	-0.675067	1.240692	0.830250
C64	C	-1.341721	0.426187	0.163580
C65	C	-1.008388	0.759520	0.496913
C66	C	-0.675054	1.092854	0.830246
C67	C	-1.340183	0.000096	-0.400606
C68	C	-1.006849	0.333430	-0.067272
C69	C	-0.673516	0.666763	0.266061
C70	C	-1.343262	0.000108	-0.272221
C71	C	-1.009929	0.333442	0.061113
C72	C	-0.676596	0.666775	0.394446
C73	C	-1.334721	0.000099	0.371043
C74	C	-1.001388	0.333432	0.704376
C75	C	-0.668055	0.666765	1.037710
C76	C	-1.337736	0.000092	0.497057
C77	C	-1.004402	0.333425	0.830390
C78	C	-0.671069	0.666758	1.163723
