data_functionalizedCrystal
_audit_creation_method	'MofGen! by Chris Wilmer'
_symmetry_space_group_name_H-M	'P1'
_symmetry_Int_Tables_number	1
_symmetry_cell_setting	triclinic
loop_
_symmetry_equiv_pos_as_xyz
  x,y,z
_cell_length_a	14.044209
_cell_length_b	14.044220
_cell_length_c	13.101039
_cell_angle_alpha	86.332810
_cell_angle_beta	86.324717
_cell_angle_gamma	86.811585
loop_
_atom_site_label
_atom_site_type_symbol
_atom_site_fract_x
_atom_site_fract_y
_atom_site_fract_z
O1	O	-0.234985	1.272343	0.085226
O2	O	0.015015	1.522343	0.335226
O3	O	0.265015	1.772343	0.585226
O4	O	0.515015	2.022343	0.835226
O5	O	-0.226680	0.995672	0.085228
O6	O	0.023320	1.245672	0.335228
O7	O	0.273320	1.495672	0.585228
O8	O	0.523320	1.745672	0.835228
O9	O	-0.092496	1.129857	0.085212
O10	O	0.157504	1.379857	0.335212
O11	O	0.407504	1.629857	0.585212
O12	O	0.657504	1.879857	0.835212
O13	O	-0.369169	1.138159	0.085242
O14	O	-0.119169	1.388159	0.335242
O15	O	0.130831	1.638159	0.585242
O16	O	0.380831	1.888159	0.835242
O17	O	-0.082856	1.139488	-0.085218
O18	O	0.167144	1.389488	0.164782
O19	O	0.417144	1.639488	0.414782
O20	O	0.667144	1.889488	0.664782
O21	O	-0.217040	1.005303	-0.085203
O22	O	0.032960	1.255303	0.164797
O23	O	0.282960	1.505303	0.414797
O24	O	0.532960	1.755303	0.664797
O25	O	-0.225345	1.281975	-0.085205
O26	O	0.024655	1.531975	0.164795
O27	O	0.274655	1.781975	0.414795
O28	O	0.524655	2.031975	0.664795
Zn29	Zn	-0.219662	1.145168	-0.112264
Zn30	Zn	0.030338	1.395168	0.137736
Zn31	Zn	0.280338	1.645168	0.387736
Zn32	Zn	0.530338	1.895168	0.637736
Zn33	Zn	-0.232363	1.132479	0.112287
Zn34	Zn	0.017637	1.382479	0.362287
Zn35	Zn	0.267637	1.632479	0.612287
Zn36	Zn	0.517637	1.882479	0.862287
O37	O	-0.359529	1.147790	-0.085189
O38	O	-0.109529	1.397790	0.164811
O39	O	0.140471	1.647790	0.414811
O40	O	0.390471	1.897790	0.664811
C41	C	-0.052054	1.131037	-0.000005
C42	C	0.197946	1.381037	0.249995
C43	C	0.447946	1.631037	0.499995
C44	C	0.697946	1.881037	0.749995
C45	C	0.054089	1.120194	-0.000009
C46	C	0.304089	1.370194	0.249991
C47	C	0.554089	1.620194	0.499991
C48	C	0.804089	1.870194	0.749991
C49	C	-0.218224	0.964866	0.000013
C50	C	0.031776	1.214866	0.250013
C51	C	0.281776	1.464866	0.500013
C52	C	0.531776	1.714866	0.750013
C53	C	-0.207380	0.858723	0.000013
C54	C	0.042620	1.108723	0.250013
C55	C	0.292620	1.358723	0.500013
C56	C	0.542620	1.608723	0.750013
C57	C	-0.233801	1.312781	0.000013
C58	C	0.016199	1.562781	0.250013
C59	C	0.266199	1.812781	0.500013
C60	C	0.516199	2.062781	0.750013
C61	C	-0.244646	1.418923	0.000019
C62	C	0.005354	1.668923	0.250019
C63	C	0.255354	1.918923	0.500019
C64	C	0.505354	2.168923	0.750019
C65	C	0.248426	1.100368	-0.000000
C66	C	0.498426	1.350368	0.250000
C67	C	0.748426	1.600368	0.500000
C68	C	0.998426	1.850368	0.750000
C69	C	0.299556	1.177283	0.000000
C70	C	0.549556	1.427283	0.250000
C71	C	0.799556	1.677283	0.500000
C72	C	1.049556	1.927283	0.750000
C73	C	0.407692	1.166252	0.000005
C74	C	0.657692	1.416252	0.250005
C75	C	0.907692	1.666252	0.500005
C76	C	1.157692	1.916252	0.750005
C77	C	0.140280	1.111398	-0.000005
C78	C	0.390280	1.361398	0.249995
C79	C	0.640280	1.611398	0.499995
C80	C	0.890280	1.861398	0.749995
C81	C	0.600029	1.146612	0.000022
C82	C	0.850029	1.396612	0.250022
C83	C	1.100029	1.646612	0.500022
C84	C	1.350029	1.896612	0.750022
C85	C	0.493887	1.157462	0.000009
C86	C	0.743887	1.407462	0.250009
C87	C	0.993887	1.657462	0.500009
C88	C	1.243887	1.907462	0.750009
C89	C	-0.264472	1.613260	0.000020
C90	C	-0.014472	1.863260	0.250020
C91	C	0.235528	2.113260	0.500020
C92	C	0.485528	2.363260	0.750020
C93	C	-0.187558	1.664391	0.000012
C94	C	0.062442	1.914391	0.250012
C95	C	0.312442	2.164391	0.500012
C96	C	0.562442	2.414391	0.750012
C97	C	-0.198589	1.772527	0.000012
C98	C	0.051411	2.022527	0.250012
C99	C	0.301411	2.272527	0.500012
C100	C	0.551411	2.522527	0.750012
C101	C	-0.253442	1.505115	0.000020
C102	C	-0.003442	1.755115	0.250020
C103	C	0.246558	2.005115	0.500020
C104	C	0.496558	2.255115	0.750020
N105	N	-0.241024	1.123818	0.265536
N106	N	0.008976	1.373818	0.515536
N107	N	0.258976	1.623818	0.765536
N108	N	0.508976	1.873818	1.015536
N109	N	-0.210994	1.153835	-0.265513
N110	N	0.039006	1.403835	-0.015513
N111	N	0.289006	1.653835	0.234487
N112	N	0.539006	1.903835	0.484487
C113	C	-0.252808	1.112027	0.474580
C114	C	-0.002808	1.362027	0.724580
C115	C	0.247192	1.612027	0.974580
C116	C	0.497192	1.862027	1.224580
C117	C	-0.199213	1.165623	0.525450
C118	C	0.050787	1.415623	0.775450
C119	C	0.300787	1.665623	1.025450
C120	C	0.550787	1.915623	1.275450
C121	C	-0.205770	1.159063	0.641769
C122	C	0.044230	1.409063	0.891769
C123	C	0.294230	1.659063	1.141769
C124	C	0.544230	1.909063	1.391769
C125	C	-0.246253	1.118587	0.358250
C126	C	0.003747	1.368587	0.608250
C127	C	0.253747	1.618587	0.858250
C128	C	0.503747	1.868587	1.108250
H129	H	0.262113	1.251412	0.000070
H130	H	0.512113	1.501412	0.250070
H131	H	0.762113	1.751412	0.500070
H132	H	1.012113	2.001412	0.750070
N133	N	0.298013	1.002177	-0.000017
N134	N	0.548013	1.252177	0.249983
N135	N	0.798013	1.502177	0.499983
N136	N	1.048013	1.752177	0.749983
H137	H	0.248827	0.952378	-0.000023
H138	H	0.498827	1.202378	0.249977
H139	H	0.748827	1.452378	0.499977
H140	H	0.998827	1.702378	0.749977
H141	H	0.335648	0.990691	0.063162
H142	H	0.585648	1.240691	0.313162
H143	H	0.835648	1.490691	0.563162
H144	H	1.085648	1.740691	0.813162
N145	N	-0.320094	1.044710	0.532594
N146	N	-0.070094	1.294710	0.782594
N147	N	0.179906	1.544710	1.032594
N148	N	0.429906	1.794710	1.282594
H149	H	-0.387759	1.062471	0.514011
H150	H	-0.137759	1.312471	0.764011
H151	H	0.112241	1.562471	1.014011
H152	H	0.362241	1.812471	1.264011
H153	H	-0.315212	1.049532	0.608650
H154	H	-0.065212	1.299532	0.858650
H155	H	0.184788	1.549532	1.108650
H156	H	0.434788	1.799532	1.358650
N157	N	-0.362670	1.662835	0.000040
N158	N	-0.112670	1.912835	0.250040
N159	N	0.137330	2.162835	0.500040
N160	N	0.387330	2.412835	0.750040
H161	H	-0.367100	1.707617	-0.063134
H162	H	-0.117100	1.957617	0.186866
H163	H	0.132900	2.207617	0.436866
H164	H	0.382900	2.457617	0.686866
H165	H	-0.374173	1.700414	0.063265
H166	H	-0.124173	1.950414	0.313265
H167	H	0.125827	2.200414	0.563265
H168	H	0.375827	2.450414	0.813265
H169	H	-0.148405	1.216435	0.481641
H170	H	0.101595	1.466435	0.731641
H171	H	0.351595	1.716435	0.981641
H172	H	0.601595	1.966435	1.231641
N173	N	-0.089356	1.614811	0.000003
N174	N	0.160644	1.864811	0.250003
N175	N	0.410644	2.114811	0.500003
N176	N	0.660644	2.364811	0.750003
H177	H	-0.095290	1.543470	0.000006
H178	H	0.154710	1.793470	0.250006
H179	H	0.404710	2.043470	0.500006
H180	H	0.654710	2.293470	0.750006
H181	H	-0.057124	1.630375	0.063183
H182	H	0.192876	1.880375	0.313183
H183	H	0.442876	2.130375	0.563183
H184	H	0.692876	2.380375	0.813183
