data_functionalizedCrystal
_audit_creation_method	'MofGen! by Chris Wilmer'
_symmetry_space_group_name_H-M	'P1'
_symmetry_Int_Tables_number	1
_symmetry_cell_setting	triclinic
loop_
_symmetry_equiv_pos_as_xyz
  x,y,z
_cell_length_a	25.639239
_cell_length_b	18.215407
_cell_length_c	18.215399
_cell_angle_alpha	89.982632
_cell_angle_beta	89.969965
_cell_angle_gamma	90.036130
loop_
_atom_site_label
_atom_site_type_symbol
_atom_site_fract_x
_atom_site_fract_y
_atom_site_fract_z
Zn1	Zn	-0.208192	1.125001	-0.416057
Zn2	Zn	-0.295628	1.124880	-0.292986
Zn3	Zn	-0.208204	1.001934	-0.293009
Zn4	Zn	-0.295594	1.001870	-0.416016
O5	O	-0.251905	1.063421	-0.354517
O6	O	-0.219799	1.227969	-0.399738
O7	O	-0.284050	1.108547	-0.190005
O8	O	-0.135037	1.018336	-0.309359
O9	O	-0.284038	1.227880	-0.309319
O10	O	-0.135028	1.108754	-0.399761
O11	O	-0.219821	1.018219	-0.190022
O12	O	-0.219788	0.898941	-0.309319
O13	O	-0.283981	1.018228	-0.519006
O14	O	-0.283993	0.898894	-0.399692
O15	O	-0.219767	1.108692	-0.519036
O16	O	-0.368789	1.108485	-0.309279
O17	O	-0.368764	1.018110	-0.399669
C18	C	-0.251888	0.872215	-0.354504
C19	C	-0.251894	0.790416	-0.354516
C20	C	-0.218514	0.602268	-0.401672
C21	C	-0.218518	0.525409	-0.401674
C22	C	-0.285310	0.525327	-0.307375
C23	C	-0.285302	0.602184	-0.307370
C24	C	-0.251905	0.640653	-0.354522
C25	C	-0.251917	0.486937	-0.354530
C26	C	-0.251922	0.403603	-0.354533
C27	C	-0.251899	0.723992	-0.354519
C28	C	-0.387747	1.063298	-0.354483
C29	C	-0.445861	1.063312	-0.354494
C30	C	-0.806224	1.110602	-0.307531
C31	C	-0.860829	1.110631	-0.307541
O32	O	-0.889066	1.150710	-0.267575
N33	N	-0.888144	1.063551	-0.354566
C34	C	-0.860851	1.016444	-0.401589
O35	O	-0.889099	0.976402	-0.441589
C36	C	-0.806248	1.016420	-0.401582
C37	C	-0.778936	1.063498	-0.354549
C38	C	-0.778912	1.157677	-0.260503
C39	C	-0.724312	1.157647	-0.260492
C40	C	-0.697023	1.110543	-0.307510
C41	C	-0.724335	1.063468	-0.354539
C42	C	-0.778957	0.969318	-0.448609
C43	C	-0.724350	0.969298	-0.448598
C44	C	-0.697038	1.016376	-0.401565
C45	C	-0.642446	1.016334	-0.401546
N46	N	-0.615132	1.063414	-0.354521
C47	C	-0.642420	1.110519	-0.307503
C48	C	-0.975522	1.016500	-0.401600
C49	C	-1.030124	1.016520	-0.401604
C50	C	-1.030098	1.110707	-0.307557
C51	C	-0.975495	1.110683	-0.307550
C52	C	-0.948207	1.063580	-0.354576
C53	C	-0.527755	1.110452	-0.307484
C54	C	-0.473150	1.110416	-0.307476
C55	C	-0.473181	1.016232	-0.401525
C56	C	-0.527781	1.016265	-0.401531
C57	C	-0.555067	1.063381	-0.354508
O58	O	-0.614175	0.976277	-0.441494
O59	O	-0.614166	1.150561	-0.267517
C60	C	-0.115532	1.063566	-0.354567
C61	C	-0.057417	1.063627	-0.354588
C62	C	-0.251869	1.063466	-0.546470
C63	C	-0.251853	1.063485	-0.628269
C64	C	-0.251921	1.255374	-0.354530
C65	C	-0.251928	1.337173	-0.354536
C66	C	-0.218386	1.110607	-0.816480
C67	C	-0.218370	1.110616	-0.893339
C68	C	-0.285240	1.016416	-0.893296
C69	C	-0.285252	1.016404	-0.816439
C70	C	-0.251826	1.063504	-0.778033
C71	C	-0.251798	1.063524	-0.931749
C72	C	-0.251782	1.063534	-1.015082
C73	C	-0.251841	1.063494	-0.694694
C74	C	-0.251903	1.063419	-0.163311
C75	C	-0.251771	1.063543	-0.081512
H76	H	-0.312494	0.633438	-0.268970
H77	H	-0.450914	1.148753	-0.269173
H78	H	-1.052326	1.149065	-0.269275
C79	C	-0.808993	0.917532	-0.500347
C80	C	-0.846481	0.949406	-0.558161
C81	C	-0.876517	0.897617	-0.609901
C82	C	-0.869065	0.813956	-0.603828
C83	C	-0.831574	0.782079	-0.546011
C84	C	-0.801538	0.833867	-0.494271
H85	H	-0.852000	1.011341	-0.562659
H86	H	-0.904270	0.921216	-0.652701
H87	H	-0.891299	0.775619	-0.642129
H88	H	-0.826056	0.720144	-0.541513
H89	H	-0.773785	0.810268	-0.451471
H90	H	-0.312483	0.978042	-0.785134
C91	C	-0.181587	1.162432	-0.935631
C92	C	-0.140525	1.130594	-0.988478
C93	C	-0.103740	1.182412	-1.030770
C94	C	-0.108017	1.266068	-1.020217
C95	C	-0.149081	1.297910	-0.967369
C96	C	-0.185866	1.246092	-0.925076
H97	H	-0.137358	1.068663	-0.996292
H98	H	-0.073342	1.158840	-1.069892
H99	H	-0.080787	1.304427	-1.051525
H100	H	-0.152248	1.359841	-0.959554
H101	H	-0.216264	1.269665	-0.885954
H102	H	-1.052357	0.978177	-0.439896
C103	C	-0.557830	0.964481	-0.453265
C104	C	-0.595431	0.906743	-0.421342
C105	C	-0.625477	0.854967	-0.473084
C106	C	-0.617922	0.860928	-0.556748
C107	C	-0.580319	0.918667	-0.588675
C108	C	-0.550273	0.970444	-0.536934
H109	H	-0.601026	0.902329	-0.359405
H110	H	-0.653313	0.812224	-0.449448
H111	H	-0.640163	0.822600	-0.595050
H112	H	-0.574724	0.923082	-0.650612
H113	H	-0.522437	1.013187	-0.560569
H114	H	-0.191327	0.494159	-0.440067
C115	C	-0.322049	0.483009	-0.255515
C116	C	-0.317706	0.493543	-0.171863
C117	C	-0.354447	0.451226	-0.120003
C118	C	-0.395530	0.398375	-0.151795
C119	C	-0.399873	0.387837	-0.235452
C120	C	-0.363133	0.430155	-0.287312
H121	H	-0.287293	0.532670	-0.148324
H122	H	-0.351231	0.459027	-0.058074
H123	H	-0.422727	0.367049	-0.113405
H124	H	-0.430287	0.348711	-0.258990
H125	H	-0.366349	0.422354	-0.349240
H126	H	-0.312456	0.978071	-0.924576
H127	H	-0.549965	1.148821	-0.269195
C128	C	-0.443158	0.964417	-0.453244
C129	C	-0.450621	0.970382	-0.536912
C130	C	-0.420598	0.918570	-0.588636
C131	C	-0.383112	0.860795	-0.556690
C132	C	-0.375647	0.854828	-0.473017
C133	C	-0.405671	0.906639	-0.421294
H134	H	-0.478372	1.013153	-0.560564
H135	H	-0.426124	0.922987	-0.650576
H136	H	-0.360887	0.822441	-0.594979
H137	H	-0.347897	0.812057	-0.449366
H138	H	-0.400145	0.902222	-0.359354
H139	H	-0.702078	1.195984	-0.222196
H140	H	-0.191318	0.633586	-0.440064
C141	C	-0.181613	1.162409	-0.774232
C142	C	-0.144827	1.214218	-0.816527
C143	C	-0.108053	1.266019	-0.774282
C144	C	-0.108064	1.266011	-0.689742
C145	C	-0.144851	1.214201	-0.647442
C146	C	-0.181626	1.162399	-0.689687
H147	H	-0.144818	1.214225	-0.879113
H148	H	-0.080820	1.304373	-0.805595
H149	H	-0.080841	1.304358	-0.658469
H150	H	-0.144861	1.214193	-0.584856
H151	H	-0.208858	1.124045	-0.658374
C152	C	-0.808923	1.209496	-0.208775
C153	C	-0.801445	1.203527	-0.125110
C154	C	-0.831450	1.255346	-0.073374
C155	C	-0.868934	1.313134	-0.105303
C156	C	-0.876413	1.319106	-0.188973
C157	C	-0.846408	1.267287	-0.240709
H158	H	-0.773696	1.160747	-0.101470
H159	H	-0.825913	1.250926	-0.011436
H160	H	-0.891145	1.351494	-0.067005
H161	H	-0.904162	1.361886	-0.212613
H162	H	-0.851945	1.271707	-0.302647
H163	H	-0.953260	1.149018	-0.269252
H164	H	-0.953307	0.978136	-0.439892
H165	H	-0.702135	0.930941	-0.486895
