data_functionalizedCrystal
_audit_creation_method	'MofGen! by Chris Wilmer'
_symmetry_space_group_name_H-M	'P1'
_symmetry_Int_Tables_number	1
_symmetry_cell_setting	triclinic
loop_
_symmetry_equiv_pos_as_xyz
  x,y,z
_cell_length_a	9.482900
_cell_length_b	11.026607
_cell_length_c	11.026607
_cell_angle_alpha	108.586017
_cell_angle_beta	78.599815
_cell_angle_gamma	101.363848
loop_
_atom_site_label
_atom_site_type_symbol
_atom_site_fract_x
_atom_site_fract_y
_atom_site_fract_z
O1	O	-0.120892	-1.742236	-0.518010
O2	O	-0.120894	-1.375656	-0.457246
O3	O	-0.120888	-1.528564	-0.304339
O4	O	-0.120898	-1.589328	-0.670917
O5	O	0.120903	-1.497539	-0.335557
O6	O	0.120897	-1.344632	-0.488465
O7	O	0.120899	-1.711212	-0.549228
Cu8	Cu	0.142976	-1.525089	-0.521697
Cu9	Cu	-0.142971	-1.561779	-0.484778
O10	O	0.120893	-1.558304	-0.702136
C11	C	0.000001	-1.312485	-0.461645
C12	C	0.000000	-1.170471	-0.428228
N13	N	0.344095	-1.499293	-0.547665
C14	C	0.000006	-1.501842	-0.272288
C15	C	0.000000	-1.468426	-0.130273
N16	N	-0.344090	-1.587583	-0.458801
C17	C	0.416296	-1.554160	-0.492428
C18	C	0.583713	-1.532708	-0.514046
C19	C	0.000001	-1.774384	-0.544829
C20	C	-0.000008	-1.916399	-0.578244
C21	C	-0.000003	-1.116822	-0.520498
C22	C	-0.000004	-0.970043	-0.485962
C23	C	-0.000004	-1.585026	-0.734186
C24	C	-0.000008	-1.618444	-0.876199
C25	C	-0.000001	-1.560695	-0.076624
C26	C	-0.000007	-1.526161	0.070155
H27	H	0.354171	-1.617009	-0.429128
C28	C	-0.000011	-1.201552	-0.661756
H29	H	-0.000005	-1.148859	-0.715168
H30	H	-0.084327	-1.264849	-0.667740
H31	H	0.084319	-1.243205	-0.689517
C32	C	-0.000008	-0.885313	-0.344697
H33	H	-0.000021	-0.797779	-0.340015
H34	H	0.084306	-0.892117	-0.314343
H35	H	-0.084340	-0.913760	-0.292584
C36	C	-0.000004	-1.085736	-0.286970
H37	H	-0.000017	-0.998202	-0.282288
H38	H	0.084311	-1.092541	-0.256617
H39	H	-0.084336	-1.114183	-0.234858
C40	C	-0.000008	-1.759711	0.039078
H41	H	-0.000021	-1.813121	0.091775
H42	H	0.084308	-1.765769	-0.024285
H43	H	-0.084339	-1.787402	-0.002508
C44	C	0.428011	-1.414383	-0.633174
H45	H	0.529526	-1.411112	-0.636494
H46	H	0.403158	-1.329462	-0.597749
H47	H	0.403134	-1.450210	-0.718051
H48	H	0.645835	-1.469843	-0.577340
C49	C	0.572009	-1.672499	-0.373286
H50	H	0.639020	-1.704131	-0.341428
H51	H	0.512613	-1.743241	-0.422979
H52	H	0.512648	-1.622494	-0.302675
H53	H	-0.000001	-0.979125	-0.682816
C54	C	0.000005	-1.701952	-0.161360
H55	H	0.000018	-1.706631	-0.248897
H56	H	-0.084310	-1.754008	-0.132853
H57	H	0.084336	-1.732358	-0.154619
C58	C	-0.000010	-1.327168	-0.045543
H59	H	-0.000020	-1.273758	-0.098234
H60	H	0.084301	-1.299471	-0.003942
H61	H	-0.084346	-1.321124	0.017811
H62	H	-0.000017	-1.421592	0.132886
