data_functionalizedCrystal
_audit_creation_method	'MofGen! by Chris Wilmer'
_symmetry_space_group_name_H-M	'P1'
_symmetry_Int_Tables_number	1
_symmetry_cell_setting	triclinic
loop_
_symmetry_equiv_pos_as_xyz
  x,y,z
_cell_length_a	14.519709
_cell_length_b	9.065218
_cell_length_c	7.540329
_cell_angle_alpha	90.001757
_cell_angle_beta	89.997345
_cell_angle_gamma	84.348015
loop_
_atom_site_label
_atom_site_type_symbol
_atom_site_fract_x
_atom_site_fract_y
_atom_site_fract_z
O1	O	-1.225282	-0.193392	-0.147244
O2	O	-0.891948	0.139941	0.186089
O3	O	-0.558615	0.473275	0.519423
O4	O	-0.956971	-0.216167	-0.147297
O5	O	-0.623638	0.117166	0.186036
O6	O	-0.290305	0.450500	0.519369
O7	O	-1.096672	0.009967	-0.147266
O8	O	-0.763339	0.343300	0.186067
O9	O	-0.430006	0.676634	0.519401
O10	O	-1.085581	-0.419526	-0.147275
O11	O	-0.752247	-0.086192	0.186058
O12	O	-0.418914	0.247141	0.519391
O13	O	-1.096664	0.009970	0.147699
O14	O	-0.763331	0.343303	0.481033
O15	O	-0.429997	0.676636	0.814366
O16	O	-0.956963	-0.216164	0.147668
O17	O	-0.623630	0.117169	0.481001
O18	O	-0.290296	0.450503	0.814334
O19	O	-1.225273	-0.193389	0.147721
O20	O	-0.891940	0.139944	0.481054
O21	O	-0.558606	0.473277	0.814388
Cu22	Cu	-1.091117	-0.204776	0.174627
Cu23	Cu	-0.757784	0.128557	0.507960
Cu24	Cu	-0.424451	0.461890	0.841294
Cu25	Cu	-1.091127	-0.204780	-0.174203
Cu26	Cu	-0.757794	0.128554	0.159130
Cu27	Cu	-0.424461	0.461887	0.492463
O28	O	-1.085572	-0.419523	0.147690
O29	O	-0.752239	-0.086190	0.481023
O30	O	-0.418906	0.247144	0.814356
C31	C	-0.922600	-0.215104	0.000178
C32	C	-0.589266	0.118229	0.333512
C33	C	-0.255933	0.451563	0.666845
C34	C	-0.820195	-0.211923	0.000158
C35	C	-0.486862	0.121410	0.333491
C36	C	-0.153528	0.454743	0.666824
C37	C	-1.095602	0.064935	0.000214
C38	C	-0.762269	0.398268	0.333547
C39	C	-0.428936	0.731602	0.666880
C40	C	-1.092415	0.228718	0.000204
C41	C	-0.759082	0.562051	0.333538
C42	C	-0.425748	0.895385	0.666871
C43	C	-1.259645	-0.194452	0.000242
C44	C	-0.926312	0.138881	0.333575
C45	C	-0.592978	0.472214	0.666908
C46	C	-1.362049	-0.197633	0.000251
C47	C	-1.028716	0.135701	0.333584
C48	C	-0.695383	0.469034	0.666917
C49	C	-0.445214	-0.200214	0.000239
C50	C	-0.111880	0.133119	0.333572
C51	C	0.221453	0.466452	0.666905
C52	C	-0.549545	-0.203466	0.000216
C53	C	-0.216212	0.129868	0.333549
C54	C	0.117121	0.463201	0.666882
C55	C	-0.632701	-0.206068	0.000197
C56	C	-0.299368	0.127265	0.333530
C57	C	0.033966	0.460598	0.666863
C58	C	-0.737039	-0.209321	0.000177
C59	C	-0.403706	0.124012	0.333510
C60	C	-0.070373	0.457346	0.666844
C61	C	-1.086642	-0.474491	0.000206
C62	C	-0.753309	-0.141158	0.333540
C63	C	-0.419976	0.192176	0.666873
C64	C	-1.089830	-0.638274	0.000204
C65	C	-0.756496	-0.304941	0.333537
C66	C	-0.423163	0.028392	0.666871
N67	N	-1.091117	-0.204773	0.419976
N68	N	-0.757784	0.128560	0.753309
N69	N	-0.424450	0.461893	1.086642
N70	N	-1.091135	-0.204771	-0.419552
N71	N	-0.757801	0.128562	-0.086218
N72	N	-0.424468	0.461895	0.247115
