data_functionalizedCrystal
_audit_creation_method	'MofGen! by Chris Wilmer'
_symmetry_space_group_name_H-M	'P1'
_symmetry_Int_Tables_number	1
_symmetry_cell_setting	triclinic
loop_
_symmetry_equiv_pos_as_xyz
  x,y,z
_cell_length_a	19.188930
_cell_length_b	19.188930
_cell_length_c	10.268362
_cell_angle_alpha	90.006464
_cell_angle_beta	90.018480
_cell_angle_gamma	83.144779
loop_
_atom_site_label
_atom_site_type_symbol
_atom_site_fract_x
_atom_site_fract_y
_atom_site_fract_z
O1	O	0.926145	0.087164	0.108733
O2	O	1.426145	0.587164	0.608733
O3	O	0.722834	0.098898	0.108646
O4	O	1.222834	0.598898	0.608646
O5	O	0.830357	-0.008624	0.108667
O6	O	1.330357	0.491376	0.608667
O7	O	0.818623	0.194687	0.108713
O8	O	1.318623	0.694687	0.608713
O9	O	0.830347	-0.008621	-0.107934
O10	O	1.330347	0.491379	0.392066
O11	O	0.722824	0.098902	-0.107955
O12	O	1.222824	0.598902	0.392045
O13	O	0.926135	0.087168	-0.107867
O14	O	1.426135	0.587168	0.392133
Cu15	Cu	0.824478	0.093035	-0.127688
Cu16	Cu	1.324478	0.593035	0.372312
Cu17	Cu	0.824491	0.093031	0.128467
Cu18	Cu	1.324491	0.593031	0.628467
O19	O	0.818612	0.194691	-0.107888
O20	O	1.318612	0.694691	0.392112
C21	C	0.696818	0.098520	0.000334
C22	C	1.196818	0.598520	0.500334
C23	C	0.619313	0.097380	0.000300
C24	C	1.119313	0.597380	0.500300
C25	C	0.829972	-0.034634	0.000363
C26	C	1.329972	0.465366	0.500363
C27	C	0.828831	-0.112138	0.000351
C28	C	1.328831	0.387862	0.500351
C29	C	0.574389	0.160470	0.000334
C30	C	1.074389	0.660470	0.500334
C31	C	0.501566	0.159399	0.000349
C32	C	1.001566	0.659399	0.500349
C33	C	0.473669	0.095233	0.000354
C34	C	0.973669	0.595233	0.500354
C35	C	0.518603	0.032133	0.000312
C36	C	1.018603	0.532133	0.500312
C37	C	0.591425	0.033207	0.000285
C38	C	1.091425	0.533207	0.500285
N39	N	0.365692	0.046184	0.074114
N40	N	0.865692	0.546184	0.574114
N41	N	0.296514	0.045169	0.074143
N42	N	0.796514	0.545169	0.574143
C43	C	0.254260	0.091994	0.000433
C44	C	0.754260	0.591994	0.500433
N45	N	0.283798	0.139884	-0.073290
N46	N	0.783798	0.639884	0.426710
N47	N	0.352982	0.140902	-0.073313
N48	N	0.852982	0.640902	0.426687
C49	C	0.394707	0.094062	0.000383
C50	C	0.894707	0.594062	0.500383
C51	C	0.130372	0.153928	0.000481
C52	C	0.630372	0.653928	0.500481
C53	C	0.057547	0.152853	0.000487
C54	C	0.557547	0.652853	0.500487
C55	C	0.074586	0.025586	0.000464
C56	C	0.574586	0.525586	0.500464
C57	C	0.147409	0.026662	0.000445
C58	C	0.647409	0.526662	0.500445
C59	C	0.175298	0.090835	0.000460
C60	C	0.675298	0.590835	0.500460
C61	C	0.891922	-0.157062	0.000372
C62	C	1.391922	0.342938	0.500372
C63	C	0.890850	-0.229886	0.000392
C64	C	1.390850	0.270114	0.500392
C65	C	0.826684	-0.257782	0.000366
C66	C	1.326684	0.242218	0.500366
C67	C	0.763585	-0.212849	0.000352
C68	C	1.263585	0.287151	0.500352
C69	C	0.764658	-0.140026	0.000345
C70	C	1.264658	0.359974	0.500345
N71	N	0.777633	-0.365786	-0.073369
N72	N	1.277633	0.134214	0.426631
N73	N	0.776618	-0.434965	-0.073365
N74	N	1.276618	0.065035	0.426635
C75	C	0.823446	-0.477191	0.000391
C76	C	1.323446	0.022809	0.500391
N77	N	0.871339	-0.447627	0.074125
N78	N	1.371339	0.052373	0.574125
N79	N	0.872356	-0.378442	0.074115
N80	N	1.372356	0.121558	0.574115
C81	C	0.825513	-0.336745	0.000374
C82	C	1.325513	0.163255	0.500374
C83	C	0.885379	-0.601079	0.000435
C84	C	1.385379	-0.101079	0.500435
C85	C	0.884305	-0.673904	0.000464
C86	C	1.384305	-0.173904	0.500464
C87	C	0.757038	-0.656865	0.000411
C88	C	1.257038	-0.156865	0.500411
C89	C	0.758114	-0.584042	0.000395
C90	C	1.258114	-0.084042	0.500395
C91	C	0.822286	-0.556154	0.000401
C92	C	1.322286	-0.056154	0.500401
C93	C	0.952151	0.087546	0.000448
C94	C	1.452151	0.587546	0.500448
C95	C	1.029656	0.088687	0.000490
C96	C	1.529656	0.588687	0.500490
C97	C	0.818997	0.220700	0.000419
C98	C	1.318997	0.720700	0.500419
C99	C	0.820138	0.298204	0.000439
C100	C	1.320138	0.798204	0.500439
N101	N	0.824475	0.093038	-0.307854
N102	N	1.324475	0.593038	0.192146
C103	C	0.824480	0.093038	-0.425696
C104	C	1.324480	0.593038	0.074304
C105	C	0.824489	0.093032	-0.573534
C106	C	1.324489	0.593032	-0.073534
N107	N	0.824500	0.093023	0.308633
N108	N	1.324500	0.593023	0.808633
H109	H	0.597091	0.212725	0.000349
H110	H	1.097091	0.712725	0.500349
H111	H	0.713281	-0.103449	0.000327
H112	H	1.213281	0.396551	0.500327
O113	O	0.157504	0.216243	0.000705
O114	O	0.657504	0.716243	0.500705
C115	C	0.199161	0.220667	0.112853
C116	C	0.699161	0.720667	0.612853
H117	H	0.182069	0.184239	0.191268
H118	H	0.682069	0.684239	0.691268
H119	H	0.192467	0.276959	0.150508
H120	H	0.692467	0.776959	0.650508
H121	H	0.256633	0.204382	0.087472
H122	H	0.756633	0.704382	0.587472
O123	O	0.952120	-0.273565	0.000634
O124	O	1.452120	0.226435	0.500634
C125	C	0.955310	-0.316205	0.112797
C126	C	1.455310	0.183795	0.612797
H127	H	0.919537	-0.289419	0.191200
H128	H	1.419537	0.210581	0.691200
H129	H	1.011581	-0.324569	0.150458
H130	H	1.511581	0.175431	0.650458
H131	H	0.937393	-0.369106	0.087432
H132	H	1.437393	0.130894	0.587432
H133	H	0.628003	-0.018171	0.000257
H134	H	1.128003	0.481829	0.500257
H135	H	0.944176	-0.134360	0.000381
H136	H	1.444176	0.365640	0.500381
H137	H	0.020970	0.204232	0.000508
H138	H	0.520970	0.704232	0.500508
O139	O	0.696845	-0.540371	0.000591
O140	O	1.196845	-0.040371	0.500591
C141	C	0.693670	-0.497716	0.112748
C142	C	1.193670	0.002284	0.612748
H143	H	0.729460	-0.524488	0.191172
H144	H	1.229460	-0.024488	0.691172
H145	H	0.637406	-0.489354	0.150380
H146	H	1.137406	0.010646	0.650380
H147	H	0.711577	-0.444816	0.087387
H148	H	1.211577	0.055184	0.587387
H149	H	0.051874	-0.026659	0.000549
H150	H	0.551874	0.473341	0.500549
H151	H	0.464982	0.210776	0.000373
H152	H	0.964982	0.710776	0.500373
O153	O	0.190953	-0.034689	0.000483
O154	O	0.690953	0.465311	0.500483
C155	C	0.150718	-0.091556	0.000457
C156	C	0.650718	0.408444	0.500457
H157	H	0.096322	-0.073668	0.041487
H158	H	0.596322	0.426332	0.541487
H159	H	0.177734	-0.135749	0.063326
H160	H	0.677734	0.364251	0.563326
H161	H	0.145564	-0.111234	-0.103458
H162	H	0.645564	0.388766	0.396542
O163	O	0.701298	-0.240027	0.000498
O164	O	1.201298	0.259973	0.500498
C165	C	0.696869	-0.281619	0.112693
C166	C	1.196869	0.218381	0.612693
H167	H	0.751958	-0.299921	0.150113
H168	H	1.251958	0.200079	0.650113
H169	H	0.669183	-0.329225	0.087456
H170	H	1.169183	0.170775	0.587456
H171	H	0.665886	-0.249346	0.191233
H172	H	1.165886	0.250654	0.691233
O173	O	0.947774	-0.574099	0.000522
O174	O	1.447774	-0.074099	0.500522
C175	C	1.003232	-0.629371	0.000531
C176	C	1.503232	-0.129371	0.500531
H177	H	0.983812	-0.678780	0.041532
H178	H	1.483812	-0.178780	0.541532
H179	H	1.048045	-0.614282	0.063442
H180	H	1.548045	-0.114282	0.563442
H181	H	1.022685	-0.639745	-0.103370
H182	H	1.522685	-0.139745	0.396630
O183	O	0.694688	-0.683921	0.000617
O184	O	1.194688	-0.183921	0.500617
C185	C	0.656239	-0.660917	0.112762
C186	C	1.156239	-0.160917	0.612762
H187	H	0.693770	-0.645875	0.191180
H188	H	1.193770	-0.145875	0.691180
H189	H	0.626670	-0.704939	0.150413
H190	H	1.126670	-0.204939	0.650413
H191	H	0.617186	-0.613337	0.087377
H192	H	1.117186	-0.113337	0.587377
H193	H	0.935683	-0.710481	0.000488
H194	H	1.435683	-0.210481	0.500488
H195	H	0.495885	-0.020111	0.000334
H196	H	0.995885	0.479889	0.500334
