data_functionalizedCrystal
_audit_creation_method	'MofGen! by Chris Wilmer'
_symmetry_space_group_name_H-M	'P1'
_symmetry_Int_Tables_number	1
_symmetry_cell_setting	triclinic
loop_
_symmetry_equiv_pos_as_xyz
  x,y,z
_cell_length_a	12.759401
_cell_length_b	16.959454
_cell_length_c	12.759393
_cell_angle_alpha	89.969286
_cell_angle_beta	89.981504
_cell_angle_gamma	90.020236
loop_
_atom_site_label
_atom_site_type_symbol
_atom_site_fract_x
_atom_site_fract_y
_atom_site_fract_z
Zn1	Zn	1.606216	-0.314632	-0.593988
Zn2	Zn	1.606094	-0.446833	-0.418310
Zn3	Zn	1.430518	-0.314673	-0.418327
Zn4	Zn	1.430490	-0.446772	-0.593952
O5	O	1.518330	-0.380727	-0.506144
O6	O	1.753221	-0.332177	-0.570692
O7	O	1.582764	-0.429345	-0.271291
O8	O	1.453888	-0.204057	-0.441651
O9	O	1.753131	-0.429304	-0.441622
O10	O	1.582972	-0.204026	-0.570708
O11	O	1.453769	-0.332247	-0.271304
O12	O	1.283493	-0.332188	-0.441616
O13	O	1.453840	-0.429201	-0.740978
O14	O	1.283473	-0.429241	-0.570647
O15	O	1.582945	-0.332118	-0.741004
O16	O	1.582737	-0.557436	-0.441588
O17	O	1.453722	-0.557391	-0.570631
C18	C	1.245362	-0.380713	-0.506130
C19	C	1.128586	-0.380726	-0.506149
C20	C	1.073740	-0.431342	-0.573224
C21	C	0.964016	-0.431352	-0.573235
C22	C	0.963992	-0.330127	-0.439087
C23	C	1.073714	-0.330114	-0.439082
C24	C	1.128612	-0.481954	-0.640291
C25	C	1.073766	-0.532575	-0.707370
C26	C	0.964042	-0.532585	-0.707382
C27	C	0.909164	-0.481974	-0.640313
C28	C	1.518242	-0.586094	-0.506126
C29	C	1.518300	-0.673950	-0.506154
C30	C	1.451249	-1.045433	-0.573330
C31	C	1.585703	-1.045419	-0.439066
C32	C	1.585666	-0.962873	-0.439056
C33	C	1.518419	-0.921603	-0.506183
C34	C	1.451208	-0.962879	-0.573320
C35	C	1.652869	-0.921591	-0.371913
C36	C	1.652834	-0.839040	-0.371900
C37	C	1.585591	-0.797769	-0.439033
C38	C	1.518378	-0.839050	-0.506173
C39	C	1.451130	-0.797780	-0.573300
C40	C	1.383922	-0.839059	-0.640447
C41	C	1.383965	-0.921607	-0.640453
C42	C	1.585548	-0.715220	-0.439027
C43	C	1.451089	-0.715226	-0.573291
C44	C	1.792363	-0.380743	-0.506159
C45	C	1.909140	-0.380749	-0.506165
C46	C	1.518403	-0.380648	-0.780178
C47	C	1.518435	-0.380614	-0.896954
C48	C	1.518447	-0.174559	-0.506185
C49	C	1.518496	-0.086703	-0.506203
C50	C	1.585669	-0.330058	-0.951832
C51	C	1.585694	-0.330029	-1.061556
C52	C	1.451247	-0.431119	-1.061516
C53	C	1.451218	-0.431143	-0.951793
C54	C	1.652886	-0.279528	-0.896993
C55	C	1.720126	-0.228968	-0.951870
C56	C	1.720151	-0.228940	-1.061594
C57	C	1.652935	-0.279471	-1.116441
C58	C	1.518317	-0.380750	-0.233177
C59	C	1.518489	-0.380561	-0.116401
H60	H	1.118370	-0.288892	-0.384471
O61	O	1.792656	-0.174397	-1.120781
H62	H	1.781374	-0.182857	-1.206292
H63	H	1.707610	-0.955199	-0.317254
H64	H	1.396332	-0.681629	-0.627958
H65	H	1.118456	-0.573776	-0.761982
H66	H	0.919301	-0.288923	-0.384483
O67	O	1.311459	-0.966127	-0.712851
H68	H	1.322773	-1.030461	-0.701563
H69	H	1.329164	-0.805447	-0.695097
O70	O	0.904882	-0.587262	-0.779615
H71	H	0.961474	-0.622486	-0.826200
H72	H	1.396454	-0.472299	-0.907111
H73	H	1.217954	-0.481953	-0.640287
H74	H	1.396533	-1.079046	-0.628001
O75	O	0.790817	-0.481990	-0.640310
H76	H	0.761896	-0.525695	-0.698213
H77	H	1.707559	-0.805436	-0.317227
O78	O	1.658029	-0.670695	-0.366618
H79	H	1.704799	-0.713261	-0.319945
H80	H	1.640447	-1.079026	-0.384408
O81	O	1.652852	-0.279557	-0.778648
H82	H	1.710879	-0.235925	-0.749732
O83	O	1.792624	-0.174471	-0.892724
H84	H	1.781323	-0.182989	-0.807207
O85	O	1.652957	-0.279443	-1.234788
H86	H	1.711004	-0.235800	-1.263737
H87	H	1.396523	-0.472259	-1.106180
