data_functionalizedCrystal
_audit_creation_method	'MofGen! by Chris Wilmer'
_symmetry_space_group_name_H-M	'P1'
_symmetry_Int_Tables_number	1
_symmetry_cell_setting	triclinic
loop_
_symmetry_equiv_pos_as_xyz
  x,y,z
_cell_length_a	13.262402
_cell_length_b	15.944493
_cell_length_c	12.376457
_cell_angle_alpha	101.280268
_cell_angle_beta	94.181204
_cell_angle_gamma	83.974489
loop_
_atom_site_label
_atom_site_type_symbol
_atom_site_fract_x
_atom_site_fract_y
_atom_site_fract_z
O1	O	1.325469	0.166635	0.313572
O2	O	1.038768	0.163899	0.225415
O3	O	1.189979	0.043429	0.271901
O4	O	1.174258	0.287106	0.267086
O5	O	1.152190	0.073503	0.448296
O6	O	1.000979	0.193974	0.401810
O7	O	1.287679	0.196710	0.489966
Zn8	Zn	1.138329	0.200117	0.473894
Zn9	Zn	1.188118	0.160492	0.241487
O10	O	1.136468	0.317180	0.443480
C11	C	0.983186	0.176323	0.302331
C12	C	0.873870	0.168525	0.268717
C13	C	0.843112	0.148466	0.156769
C14	C	0.740402	0.141147	0.125188
C15	C	0.668442	0.153880	0.205552
C16	C	0.699200	0.173934	0.317503
C17	C	0.801919	0.181259	0.349086
C18	C	0.627249	0.186674	0.397869
C19	C	0.658008	0.206727	0.509820
C20	C	0.760717	0.214052	0.541398
C21	C	0.832677	0.201318	0.461034
C22	C	0.524530	0.179348	0.366286
C23	C	0.483337	0.212142	0.558603
C24	C	0.586047	0.219461	0.590184
C25	C	1.170443	0.027134	0.359896
C26	C	1.168520	-0.066225	0.359291
C27	C	1.257521	-0.296985	0.386679
C28	C	1.228156	-0.365076	0.284949
C29	C	1.164948	-0.237144	0.358206
C30	C	1.190877	-0.335402	0.458854
C31	C	1.161505	-0.402243	0.357166
C32	C	1.135624	-0.304017	0.256412
C33	C	1.098342	-0.274325	0.430399
C34	C	1.068913	-0.342390	0.328627
C35	C	1.166935	-0.142034	0.358806
C36	C	1.159512	-0.497352	0.356556
C37	C	1.343262	0.184286	0.413048
C38	C	1.452579	0.192083	0.446655
C39	C	1.156005	0.333474	0.355483
C40	C	1.157930	0.426832	0.356081
N41	N	1.104357	0.227159	0.632509
N42	N	1.222099	0.133444	0.082875
C43	C	1.300960	0.070653	1.047935
C44	C	1.324731	0.051725	0.936903
C45	C	1.269640	0.095582	0.860799
C46	C	1.190772	0.158370	0.895738
C47	C	1.167003	0.177304	1.006782
C48	C	1.135683	0.202233	0.819646
C49	C	1.056816	0.265021	0.854585
C50	C	1.033050	0.283952	0.965618
C51	C	1.088142	0.240095	1.041722
C52	C	1.159452	0.183299	0.708602
C53	C	1.025496	0.289950	0.667449
C54	C	1.001724	0.308878	0.778481
H55	H	1.337280	-0.276896	0.411111
H56	H	0.980637	0.325664	0.605485
H57	H	1.283003	-0.404363	0.223441
H58	H	0.937509	0.360001	0.806942
C59	C	0.490703	0.157284	0.243148
C60	C	0.533015	0.072497	0.171605
C61	C	0.499191	0.050430	0.048459
C62	C	0.423053	0.113149	-0.003144
C63	C	0.380737	0.197941	0.068399
C64	C	0.414561	0.220009	0.191545
H65	H	0.589381	0.026064	0.209805
H66	H	0.530517	-0.012339	-0.004501
H67	H	0.398014	0.096813	-0.094304
H68	H	0.324371	0.244374	0.030199
H69	H	0.383235	0.282778	0.244505
C70	C	0.706574	0.119089	0.002050
C71	C	0.748881	0.034305	-0.069501
C72	C	0.715055	0.012246	-0.192648
C73	C	0.638922	0.074973	-0.244243
C74	C	0.596610	0.159763	-0.172692
C75	C	0.630436	0.181821	-0.049545
H76	H	0.805244	-0.012134	-0.031308
H77	H	0.746378	-0.050521	-0.245615
H78	H	0.613882	0.058644	-0.335404
H79	H	0.540248	0.206202	-0.210885
H80	H	0.599114	0.244589	0.003422
C81	C	0.922268	0.134470	0.068382
C82	C	1.009747	0.062737	0.067088
C83	C	1.088906	0.048745	-0.021306
C84	C	1.080586	0.106485	-0.108406
C85	C	0.993102	0.178222	-0.107115
C86	C	0.913944	0.192215	-0.018721
H87	H	1.015910	0.019991	0.131567
H88	H	1.153667	-0.004360	-0.022261
H89	H	1.139184	0.096127	-0.173841
H90	H	0.986940	0.220969	-0.171595
H91	H	0.849183	0.245320	-0.017766
C92	C	0.619892	0.241534	0.713324
C93	C	0.577590	0.326326	0.784865
C94	C	0.611438	0.348403	0.908004
C95	C	0.687588	0.285690	0.959601
C96	C	0.729895	0.200894	0.888060
C97	C	0.696047	0.178816	0.764922
H98	H	0.521216	0.372755	0.746670
H99	H	0.580120	0.411176	0.960963
H100	H	0.712645	0.302034	1.050756
H101	H	0.786270	0.154464	0.926255
H102	H	0.727365	0.116043	0.711962
C103	C	0.404192	0.226149	0.647015
C104	C	0.316718	0.297885	0.648306
C105	C	0.237567	0.311894	0.736710
C106	C	0.245890	0.254165	0.823823
C107	C	0.333368	0.182423	0.822535
C108	C	0.412519	0.168415	0.734131
H109	H	0.310554	0.340624	0.583817
H110	H	0.172811	0.365002	0.737663
H111	H	0.187298	0.264534	0.889265
H112	H	0.339532	0.139684	0.887024
H113	H	0.477275	0.115306	0.733178
H114	H	1.223666	0.132177	0.680166
H115	H	0.584812	0.147920	0.179832
C116	C	1.104155	-0.285010	0.140737
C117	C	1.100238	-0.192586	0.119911
C118	C	1.068775	-0.173578	0.004238
C119	C	1.041228	-0.246995	-0.090609
C120	C	1.045144	-0.339426	-0.069785
C121	C	1.076607	-0.358433	0.045888
H122	H	1.120631	-0.138233	0.190125
H123	H	1.065876	-0.105155	-0.011177
H124	H	1.017937	-0.232924	-0.176237
H125	H	1.024751	-0.393779	-0.139999
H126	H	1.079506	-0.426857	0.061302
C127	C	1.222428	-0.354580	0.574430
C128	C	1.148123	-0.392961	0.637115
C129	C	1.179684	-0.412138	0.752687
C130	C	1.285551	-0.392933	0.805575
C131	C	1.359863	-0.354550	0.742890
C132	C	1.328302	-0.335373	0.627318
H133	H	1.069748	-0.407180	0.597964
H134	H	1.124673	-0.440553	0.799090
H135	H	1.308914	-0.407129	0.891128
H136	H	1.438237	-0.340331	0.782040
H137	H	1.383313	-0.306958	0.580915
C138	C	1.295779	0.074758	0.738660
C139	C	1.288810	-0.016740	0.671434
C140	C	1.314949	-0.037570	0.549289
C141	C	1.348058	0.033097	0.494371
C142	C	1.355029	0.124602	0.561598
C143	C	1.328890	0.145432	0.683743
H144	H	1.264299	-0.069058	0.712087
H145	H	1.309788	-0.105308	0.499524
H146	H	1.367408	0.017678	0.403953
H147	H	1.379540	0.176919	0.520945
H148	H	1.334051	0.213170	0.733508
H149	H	0.989121	-0.362344	0.304041
H150	H	0.968839	0.335084	0.994066
C151	C	1.024293	-0.221218	0.513508
C152	C	1.039374	-0.226435	0.636651
C153	C	0.965332	-0.173325	0.719772
C154	C	0.876210	-0.114998	0.679750
C155	C	0.861125	-0.109779	0.556600
C156	C	0.935166	-0.162889	0.473479
H157	H	1.105352	-0.269614	0.666283
H158	H	0.976500	-0.177188	0.810936
H159	H	0.821400	-0.075682	0.741281
H160	H	0.795147	-0.066599	0.526968
H161	H	0.923999	-0.159025	0.382316
C162	C	1.411475	-0.017340	0.898466
C163	C	1.472078	-0.065588	0.982163
C164	C	1.558824	-0.134658	0.943723
C165	C	1.584969	-0.155480	0.821586
C166	C	1.524365	-0.107230	0.737881
C167	C	1.437618	-0.038160	0.776321
H168	H	1.452725	-0.050176	1.072583
H169	H	1.603687	-0.170375	1.005688
H170	H	1.649184	-0.206609	0.793130
H171	H	1.543717	-0.122643	0.647461
H172	H	1.392755	-0.002443	0.714356
H173	H	0.916315	0.207270	0.486742
H174	H	1.068785	0.255503	1.132133
H175	H	0.785755	0.230388	0.632555
H176	H	1.345813	0.034955	1.109905
