data_functionalizedCrystal
_audit_creation_method	'MofGen! by Chris Wilmer'
_symmetry_space_group_name_H-M	'P1'
_symmetry_Int_Tables_number	1
_symmetry_cell_setting	triclinic
loop_
_symmetry_equiv_pos_as_xyz
  x,y,z
_cell_length_a	11.792241
_cell_length_b	14.519709
_cell_length_c	13.596369
_cell_angle_alpha	90.006934
_cell_angle_beta	90.001112
_cell_angle_gamma	83.936780
loop_
_atom_site_label
_atom_site_type_symbol
_atom_site_fract_x
_atom_site_fract_y
_atom_site_fract_z
O1	O	1.506209	0.126405	0.081698
O2	O	1.175796	0.139433	0.081721
O3	O	1.349763	-0.001287	0.081700
O4	O	1.332242	0.267125	0.081719
O5	O	1.349746	-0.001295	-0.081883
O6	O	1.175779	0.139425	-0.081862
O7	O	1.506192	0.126398	-0.081885
Zn8	Zn	1.340982	0.132910	-0.107845
Zn9	Zn	1.341005	0.132920	0.107682
O10	O	1.332225	0.267118	-0.081864
C11	C	1.133501	0.138611	-0.000067
C12	C	1.007501	0.136161	-0.000059
C13	C	0.776813	0.131657	-0.000087
C14	C	0.905185	0.134160	-0.000072
C15	C	1.548487	0.127220	-0.000094
C16	C	1.674487	0.129669	-0.000096
C17	C	1.348938	-0.035654	-0.000091
C18	C	1.346491	-0.138044	-0.000092
C19	C	1.337483	-0.512973	-0.000065
C20	C	1.339984	-0.408656	-0.000073
C21	C	1.341987	-0.325512	-0.000079
C22	C	1.344489	-0.221188	-0.000085
C23	C	1.333050	0.301484	-0.000070
C24	C	1.335497	0.403875	-0.000063
N25	N	1.340975	0.132903	-0.254937
C26	C	1.341004	0.132921	-0.656228
C27	C	1.340992	0.132919	-0.544577
C28	C	1.340990	0.132913	-0.455586
C29	C	1.340978	0.132909	-0.343928
N30	N	1.341022	0.132920	0.254774
