data_functionalizedCrystal
_audit_creation_method	'MofGen! by Chris Wilmer'
_symmetry_space_group_name_H-M	'P1'
_symmetry_Int_Tables_number	1
_symmetry_cell_setting	triclinic
loop_
_symmetry_equiv_pos_as_xyz
  x,y,z
_cell_length_a	11.792241
_cell_length_b	27.732048
_cell_length_c	10.268362
_cell_angle_alpha	89.989776
_cell_angle_beta	89.999626
_cell_angle_gamma	83.418036
loop_
_atom_site_label
_atom_site_type_symbol
_atom_site_fract_x
_atom_site_fract_y
_atom_site_fract_z
O1	O	1.504790	0.066248	-0.108189
O2	O	2.004790	0.566248	0.391811
O3	O	1.174230	0.073076	-0.108221
O4	O	1.674230	0.573076	0.391779
O5	O	1.349776	-0.000675	-0.108179
O6	O	1.849776	0.499325	0.391821
O7	O	1.329243	0.139999	-0.108231
O8	O	1.829243	0.639999	0.391769
O9	O	1.349761	-0.000678	0.108421
O10	O	1.849761	0.499322	0.608421
O11	O	1.174215	0.073073	0.108379
O12	O	1.674215	0.573073	0.608379
O13	O	1.504775	0.066245	0.108411
O14	O	2.004775	0.566245	0.608411
Cu15	Cu	1.339493	0.069659	0.128173
Cu16	Cu	1.839493	0.569659	0.628173
Cu17	Cu	1.339511	0.069662	-0.127983
Cu18	Cu	1.839511	0.569662	0.372017
O19	O	1.329228	0.139996	0.108370
O20	O	1.829228	0.639996	0.608370
C21	C	1.131945	0.072645	0.000075
C22	C	1.631945	0.572645	0.500075
C23	C	1.005973	0.071362	0.000064
C24	C	1.505973	0.571362	0.500064
C25	C	0.775336	0.069001	0.000103
C26	C	1.275336	0.569001	0.500103
C27	C	0.903679	0.070313	0.000082
C28	C	1.403679	0.570313	0.500082
C29	C	1.349338	-0.018686	0.000124
C30	C	1.849338	0.481314	0.500124
C31	C	1.348040	-0.072348	0.000135
C32	C	1.848040	0.427652	0.500135
C33	C	1.443606	-0.410609	0.000077
C34	C	1.943606	0.089391	0.500077
C35	C	1.438790	-0.612297	0.000059
C36	C	1.938790	-0.112297	0.500059
O37	O	1.526178	-0.643045	0.000010
O38	O	2.026178	-0.143045	0.500010
N39	N	1.334698	-0.632024	0.000050
N40	N	1.834698	-0.132024	0.500050
C41	C	1.231803	-0.601327	0.000037
C42	C	1.731803	-0.101327	0.500037
O43	O	1.143157	-0.622734	0.000016
O44	O	1.643157	-0.122734	0.500016
C45	C	1.236620	-0.399640	0.000046
C46	C	1.736620	0.100360	0.500046
C47	C	1.340718	-0.379915	0.000069
C48	C	1.840718	0.120085	0.500069
C49	C	1.547695	-0.390884	0.000098
C50	C	2.047695	0.109116	0.500098
C51	C	1.548898	-0.340465	0.000110
C52	C	2.048898	0.159535	0.500110
C53	C	1.446011	-0.309771	0.000101
C54	C	1.946011	0.190229	0.500101
C55	C	1.341921	-0.329496	0.000080
C56	C	1.841921	0.170504	0.500080
C57	C	1.133726	-0.368943	0.000024
C58	C	1.633726	0.131057	0.500024
C59	C	1.134940	-0.318519	0.000023
C60	C	1.634940	0.181481	0.500023
C61	C	1.239038	-0.298794	0.000045
C62	C	1.739038	0.201206	0.500045
C63	C	1.240237	-0.248384	0.000083
C64	C	1.740237	0.251616	0.500083
N65	N	1.344328	-0.228656	0.000092
N66	N	1.844328	0.271344	0.500092
C67	C	1.447215	-0.259350	0.000101
C68	C	1.947215	0.240650	0.500101
C69	C	1.229282	-0.707215	0.000035
C70	C	1.729282	-0.207215	0.500035
C71	C	1.228077	-0.757637	0.000035
C72	C	1.728077	-0.257637	0.500035
C73	C	1.435065	-0.768603	0.000054
C74	C	1.935065	-0.268603	0.500054
C75	C	1.436268	-0.718181	0.000063
C76	C	1.936268	-0.218181	0.500063
C77	C	1.333374	-0.687488	0.000044
C78	C	1.833374	-0.187488	0.500044
C79	C	1.449733	-0.153466	0.000127
C80	C	1.949733	0.346534	0.500127
C81	C	1.450927	-0.103042	0.000144
C82	C	1.950927	0.396958	0.500144
C83	C	1.243941	-0.092080	0.000118
C84	C	1.743941	0.407920	0.500118
C85	C	1.242746	-0.142500	0.000108
C86	C	1.742746	0.357500	0.500108
C87	C	1.345652	-0.173192	0.000108
C88	C	1.845652	0.326808	0.500108
O89	O	1.152896	-0.217607	0.000117
O90	O	1.652896	0.282393	0.500117
O91	O	1.535849	-0.237933	0.000093
O92	O	2.035849	0.262067	0.500093
C93	C	1.442403	-0.461028	0.000066
C94	C	1.942403	0.038972	0.500066
C95	C	1.338313	-0.480753	0.000045
C96	C	1.838313	0.019247	0.500045
C97	C	1.235426	-0.450060	0.000036
C98	C	1.735426	0.049940	0.500036
C99	C	1.337108	-0.531175	0.000045
C100	C	1.837108	-0.031175	0.500045
C101	C	1.439996	-0.561868	0.000054
C102	C	1.939996	-0.061868	0.500054
C103	C	1.544087	-0.542141	0.000063
C104	C	2.044087	-0.042141	0.500063
C105	C	1.545290	-0.491722	0.000074
C106	C	2.045290	0.008278	0.500074
C107	C	1.131334	-0.469787	0.000027
C108	C	1.631334	0.030213	0.500027
C109	C	1.130140	-0.520207	0.000017
C110	C	1.630140	-0.020207	0.500017
C111	C	1.233027	-0.550900	0.000026
C112	C	1.733027	-0.050900	0.500026
C113	C	1.547059	0.066676	0.000112
C114	C	2.047059	0.566676	0.500112
C115	C	1.673032	0.067959	0.000114
C116	C	2.173032	0.567959	0.500114
C117	C	1.329667	0.158007	0.000063
C118	C	1.829667	0.658007	0.500063
C119	C	1.330965	0.211669	0.000044
C120	C	1.830965	0.711669	0.500044
N121	N	1.339489	0.069656	0.308339
N122	N	1.839489	0.569656	0.808339
N123	N	1.339525	0.069661	-0.308148
N124	N	1.839525	0.569661	0.191852
C125	C	1.339506	0.069661	0.574009
C126	C	1.839506	0.569661	1.074009
C127	C	1.339493	0.069660	0.426171
C128	C	1.839493	0.569660	0.926171
H129	H	1.535700	-0.086985	0.000165
H130	H	2.035700	0.413015	0.500165
H131	H	1.047549	-0.444801	0.000017
H132	H	1.547549	0.055199	0.500017
H133	H	1.630058	-0.475667	0.000092
H134	H	2.130058	0.024333	0.500092
H135	H	1.048958	-0.384994	-0.000001
H136	H	1.548958	0.115006	0.499999
Cl137	Cl	1.564408	-0.807199	0.000059
Cl138	Cl	2.064408	-0.307199	0.500059
Cl139	Cl	1.673430	-0.580737	0.000080
Cl140	Cl	2.173430	-0.080737	0.500080
Cl141	Cl	1.579103	-0.192043	0.000129
Cl142	Cl	2.079103	0.307957	0.500129
H143	H	1.633666	-0.324410	0.000122
H144	H	2.133666	0.175590	0.500122
Cl145	Cl	1.111879	-0.167297	0.000104
Cl146	Cl	1.611879	0.332703	0.500104
H147	H	1.145488	-0.682229	0.000019
H148	H	1.645488	-0.182229	0.500019
Cl149	Cl	1.567139	-0.693390	0.000089
Cl150	Cl	2.067139	-0.193390	0.500089
Cl151	Cl	1.677058	-0.429462	0.000111
Cl152	Cl	2.177058	0.070538	0.500111
Cl153	Cl	0.999259	-0.544996	-0.000004
Cl154	Cl	1.499259	-0.044996	0.499996
Cl155	Cl	1.097205	-0.782427	0.000032
Cl156	Cl	1.597205	-0.282427	0.500032
Cl157	Cl	1.005578	-0.279936	-0.000003
Cl158	Cl	1.505578	0.220064	0.499997
Cl159	Cl	1.114604	-0.053485	0.000104
Cl160	Cl	1.614604	0.446515	0.500104
