data_functionalizedCrystal
_audit_creation_method	'MofGen! by Chris Wilmer'
_symmetry_space_group_name_H-M	'P1'
_symmetry_Int_Tables_number	1
_symmetry_cell_setting	triclinic
loop_
_symmetry_equiv_pos_as_xyz
  x,y,z
_cell_length_a	15.995292
_cell_length_b	15.072220
_cell_length_c	14.519709
_cell_angle_alpha	90.002063
_cell_angle_beta	83.574380
_cell_angle_gamma	90.013670
loop_
_atom_site_label
_atom_site_type_symbol
_atom_site_fract_x
_atom_site_fract_y
_atom_site_fract_z
O1	O	1.111204	0.073808	0.118612
O2	O	1.611204	0.573808	0.618612
O3	O	0.867444	0.073805	0.133347
O4	O	1.367444	0.573805	0.633347
O5	O	0.995787	0.073799	-0.008272
O6	O	1.495787	0.573799	0.491728
O7	O	0.982861	0.073815	0.260231
O8	O	1.482861	0.573815	0.760231
O9	O	0.995755	-0.073766	-0.008265
O10	O	1.495755	0.426234	0.491735
O11	O	0.867412	-0.073760	0.133355
O12	O	1.367412	0.426240	0.633355
O13	O	1.111172	-0.073757	0.118619
O14	O	1.611172	0.426243	0.618619
Zn15	Zn	0.989287	-0.097187	0.125988
Zn16	Zn	1.489287	0.402813	0.625988
Zn17	Zn	0.989329	0.097236	0.125978
Zn18	Zn	1.489329	0.597236	0.625978
O19	O	0.982829	-0.073750	0.260239
O20	O	1.482829	0.426250	0.760239
C21	C	0.836232	0.000022	0.132751
C22	C	1.336232	0.500022	0.632751
C23	C	0.743276	0.000021	0.130953
C24	C	1.243276	0.500021	0.630953
C25	C	0.405528	0.000030	0.124343
C26	C	0.905528	0.500030	0.624343
C27	C	0.428993	0.000366	0.226560
C28	C	0.928993	0.500366	0.726560
C29	C	0.525671	0.000029	0.228503
C30	C	1.025671	0.500029	0.728503
C31	C	0.573088	0.000026	0.127623
C32	C	1.073088	0.500026	0.627623
C33	C	0.543892	-0.084241	0.076524
C34	C	1.043892	0.415759	0.576524
C35	C	0.447100	-0.084308	0.075293
C36	C	0.947100	0.415692	0.575293
C37	C	0.447277	0.083501	0.073197
C38	C	0.947277	0.583501	0.573197
C39	C	0.543776	0.084611	0.076985
C40	C	1.043776	0.584611	0.576985
C41	C	0.667787	0.000021	0.129471
C42	C	1.167787	0.500021	0.629471
C43	C	0.310829	0.000030	0.122492
C44	C	0.810829	0.500030	0.622492
N45	N	0.989265	-0.229876	0.125995
N46	N	1.489265	0.270124	0.625995
C47	C	0.989327	-0.589078	0.125974
C48	C	1.489327	-0.089078	0.625974
C49	C	0.920422	-0.551467	0.201498
C50	C	1.420422	-0.051467	0.701498
C51	C	0.920581	-0.448642	0.201774
C52	C	1.420581	0.051358	0.701774
C53	C	0.989295	-0.410874	0.125985
C54	C	1.489295	0.089126	0.625985
C55	C	1.076694	-0.448162	0.146982
C56	C	1.576694	0.051838	0.646982
C57	C	1.076308	-0.551020	0.147518
C58	C	1.576308	-0.051020	0.647518
C59	C	0.971612	-0.551184	0.029230
C60	C	1.471612	-0.051184	0.529230
C61	C	0.969609	-0.448321	0.029876
C62	C	1.469609	0.051679	0.529876
C63	C	0.989283	-0.310160	0.125989
C64	C	1.489283	0.189840	0.625989
C65	C	0.989345	-0.689791	0.125972
C66	C	1.489345	-0.189791	0.625972
C67	C	1.142384	0.000028	0.119215
C68	C	1.642384	0.500028	0.619215
C69	C	1.235340	0.000036	0.121013
C70	C	1.735340	0.500036	0.621013
N71	N	0.989358	0.229925	0.125964
N72	N	1.489358	0.729925	0.625964
C73	C	0.995168	0.000016	-0.042627
C74	C	1.495168	0.500016	0.457373
C75	C	0.993363	0.000016	-0.145005
C76	C	1.493363	0.500016	0.354995
C77	C	0.986718	0.000039	-0.519887
C78	C	1.486718	0.500039	-0.019887
C79	C	0.988563	0.000032	-0.415583
C80	C	1.488563	0.500032	0.084417
C81	C	0.990040	0.000026	-0.332449
C82	C	1.490040	0.500026	0.167551
C83	C	0.991886	0.000021	-0.228138
C84	C	1.491886	0.500021	0.271862
C85	C	0.983447	0.000034	0.294593
C86	C	1.483447	0.500034	0.794593
C87	C	0.985253	0.000041	0.396971
C88	C	1.485253	0.500041	0.896971
H89	H	0.432436	-0.088138	0.000348
H90	H	0.932436	0.411862	0.500348
O91	O	1.096959	-0.582786	0.240973
O92	O	1.596959	-0.082786	0.740973
H93	H	1.043958	-0.623206	0.274300
H94	H	1.543958	-0.123206	0.774300
H95	H	0.855252	-0.576231	0.189197
H96	H	1.355252	-0.076231	0.689197
H97	H	1.129191	-0.575897	0.094678
H98	H	1.629191	-0.075897	0.594678
O99	O	0.550979	0.080025	0.281536
O100	O	1.050979	0.580025	0.781536
H101	H	0.595075	0.121647	0.235509
H102	H	1.095075	0.621647	0.735509
H103	H	0.420322	-0.147296	0.110689
H104	H	0.920322	0.352704	0.610689
O105	O	0.585970	-0.088409	-0.021801
O106	O	1.085970	0.411591	0.478199
H107	H	0.569265	-0.028387	-0.060072
H108	H	1.069265	0.471613	0.439928
O109	O	0.889000	-0.585588	0.002498
O110	O	1.389000	-0.085588	0.502498
H111	H	0.900400	-0.623018	-0.063547
H112	H	1.400400	-0.123018	0.436453
H113	H	0.931908	-0.424023	0.273567
H114	H	1.431908	0.075977	0.773567
H115	H	0.563991	-0.146950	0.112016
H116	H	1.063991	0.353050	0.612016
O117	O	1.038135	-0.583407	-0.045249
O118	O	1.538135	-0.083407	0.454751
H119	H	1.100907	-0.560497	-0.029389
H120	H	1.600907	-0.060497	0.470611
O121	O	0.568452	0.167191	0.126272
O122	O	1.068452	0.667191	0.626272
H123	H	0.637848	0.168958	0.126042
H124	H	1.137848	0.668958	0.626042
O125	O	0.390638	-0.079236	0.278468
O126	O	0.890638	0.420764	0.778468
H127	H	0.354936	-0.119038	0.231781
H128	H	0.854936	0.380962	0.731781
H129	H	0.576636	0.089698	0.003353
H130	H	1.076636	0.589698	0.503353
O131	O	0.428595	0.084246	-0.026465
O132	O	0.928595	0.584246	0.473535
H133	H	0.488556	0.082069	-0.072971
H134	H	0.988556	0.582069	0.427029
O135	O	0.550137	-0.080181	0.281726
O136	O	1.050137	0.419819	0.781726
H137	H	0.492882	-0.118880	0.306179
H138	H	0.992882	0.381120	0.806179
O139	O	0.834529	-0.415245	0.185225
O140	O	1.334529	0.084755	0.685225
H141	H	0.808188	-0.374479	0.245226
H142	H	1.308188	0.125521	0.745226
H143	H	0.905316	-0.423951	0.013940
H144	H	1.405316	0.076049	0.513940
O145	O	0.935213	-0.585683	0.296065
O146	O	1.435213	-0.085683	0.796065
H147	H	0.945679	-0.528847	0.342020
H148	H	1.445679	-0.028847	0.842020
O149	O	0.391993	0.080402	0.278763
O150	O	0.891993	0.580402	0.778763
H151	H	0.356478	0.120798	0.232418
H152	H	0.856478	0.620798	0.732418
O153	O	1.146252	-0.415759	0.076062
O154	O	1.646252	0.084241	0.576062
H155	H	1.119203	-0.372626	0.024979
H156	H	1.619203	0.127374	0.524979
H157	H	0.419012	0.147370	0.105143
H158	H	0.919012	0.647370	0.605143
H159	H	1.016525	-0.422615	-0.028957
H160	H	1.516525	0.077385	0.471043
H161	H	1.092651	-0.422389	0.216732
H162	H	1.592651	0.077611	0.716732
