data_functionalizedCrystal
_audit_creation_method	'MofGen! by Chris Wilmer'
_symmetry_space_group_name_H-M	'P1'
_symmetry_Int_Tables_number	1
_symmetry_cell_setting	triclinic
loop_
_symmetry_equiv_pos_as_xyz
  x,y,z
_cell_length_a	18.050582
_cell_length_b	12.759401
_cell_length_c	12.759400
_cell_angle_alpha	89.985155
_cell_angle_beta	89.980852
_cell_angle_gamma	90.011721
loop_
_atom_site_label
_atom_site_type_symbol
_atom_site_fract_x
_atom_site_fract_y
_atom_site_fract_z
Zn1	Zn	-0.419867	-1.606185	-0.418329
Zn2	Zn	-0.086533	-1.272852	-0.084995
Zn3	Zn	0.246800	-0.939519	0.248338
Zn4	Zn	-0.295684	-1.606100	-0.594009
Zn5	Zn	0.037649	-1.272767	-0.260676
Zn6	Zn	0.370982	-0.939434	0.072657
Zn7	Zn	-0.295698	-1.430508	-0.418346
Zn8	Zn	0.037635	-1.097175	-0.085012
Zn9	Zn	0.370969	-0.763841	0.248321
Zn10	Zn	-0.419840	-1.430476	-0.593967
Zn11	Zn	-0.086506	-1.097143	-0.260633
Zn12	Zn	0.246827	-0.763809	0.072700
O13	O	-0.357772	-1.518317	-0.506162
O14	O	-0.024439	-1.184984	-0.172829
O15	O	0.308895	-0.851651	0.160504
O16	O	-0.403399	-1.753195	-0.441644
O17	O	-0.070066	-1.419862	-0.108311
O18	O	0.263267	-1.086528	0.225023
O19	O	-0.191761	-1.582786	-0.570732
O20	O	0.141572	-1.249452	-0.237399
O21	O	0.474905	-0.916119	0.095934
O22	O	-0.312186	-1.453861	-0.271322
O23	O	0.021147	-1.120528	0.062011
O24	O	0.354480	-0.787194	0.395344
O25	O	-0.312163	-1.753133	-0.570716
O26	O	0.021170	-1.419799	-0.237382
O27	O	0.354504	-1.086466	0.095951
O28	O	-0.403413	-1.582930	-0.271310
O29	O	-0.070079	-1.249597	0.062024
O30	O	0.263254	-0.916264	0.395357
O31	O	-0.191771	-1.453779	-0.441673
O32	O	0.141562	-1.120445	-0.108339
O33	O	0.474895	-0.787112	0.224994
O34	O	-0.312160	-1.283483	-0.441631
O35	O	0.021173	-0.950149	-0.108298
O36	O	0.354507	-0.616816	0.225035
O37	O	-0.523768	-1.453806	-0.570643
O38	O	-0.190435	-1.120473	-0.237309
O39	O	0.142899	-0.787140	0.096024
O40	O	-0.403366	-1.283459	-0.570659
O41	O	-0.070033	-0.950126	-0.237326
O42	O	0.263300	-0.616792	0.096007
O43	O	-0.523788	-1.582899	-0.441602
O44	O	-0.190455	-1.249566	-0.108269
O45	O	0.142879	-0.916232	0.225064
O46	O	-0.312137	-1.582754	-0.741025
O47	O	0.021197	-1.249421	-0.407691
O48	O	0.354530	-0.916088	-0.074358
O49	O	-0.403353	-1.453724	-0.740993
O50	O	-0.070020	-1.120391	-0.407660
O51	O	0.263314	-0.787057	-0.074327
C52	C	-0.357762	-1.245350	-0.506143
C53	C	-0.024429	-0.912017	-0.172810
C54	C	0.308905	-0.578683	0.160524
C55	C	-0.357775	-1.128573	-0.506160
C56	C	-0.024442	-0.795240	-0.172827
C57	C	0.308891	-0.461907	0.160506
C58	C	-0.551478	-1.518359	-0.506116
C59	C	-0.218144	-1.185025	-0.172783
C60	C	0.115189	-0.851692	0.160551
C61	C	-0.634024	-1.518376	-0.506096
C62	C	-0.300690	-1.185043	-0.172763
C63	C	0.032643	-0.851709	0.160571
C64	C	-0.357757	-1.518255	-0.779130
C65	C	-0.024423	-1.184922	-0.445797
C66	C	0.308910	-0.851588	-0.112463
C67	C	-0.357775	-1.518324	-0.895906
C68	C	-0.024442	-1.184991	-0.562573
C69	C	0.308892	-0.851658	-0.229240
C70	C	-0.833464	-1.448229	-0.576172
C71	C	-0.500130	-1.114896	-0.242839
C72	C	-0.166797	-0.781562	0.090494
C73	C	-0.882852	-1.544088	-0.601854
C74	C	-0.549519	-1.210754	-0.268520
C75	C	-0.216186	-0.877421	0.064813
C76	C	-0.785154	-1.518428	-0.506016
C77	C	-0.451821	-1.185095	-0.172683
C78	C	-0.118487	-0.851761	0.160651
C79	C	-0.882847	-1.422622	-0.480305
C80	C	-0.549514	-1.089288	-0.146972
C81	C	-0.216181	-0.755955	0.186361
C82	C	-0.931139	-1.518469	-0.505940
C83	C	-0.597806	-1.185136	-0.172607
C84	C	-0.264473	-0.851803	0.160726
C85	C	-0.833455	-1.614337	-0.531747
C86	C	-0.500122	-1.281004	-0.198414
C87	C	-0.166789	-0.947670	0.134919
C88	C	-0.833446	-1.492806	-0.410155
C89	C	-0.500113	-1.159473	-0.076821
C90	C	-0.166780	-0.826140	0.256512
C91	C	-0.882813	-1.588731	-0.435799
C92	C	-0.549479	-1.255398	-0.102466
C93	C	-0.216146	-0.922064	0.230867
C94	C	-0.701056	-1.518402	-0.506062
C95	C	-0.367722	-1.185069	-0.172729
C96	C	-0.034389	-0.851736	0.160605
C97	C	-1.015236	-1.518506	-0.505894
C98	C	-0.681903	-1.185172	-0.172561
C99	C	-0.348569	-0.851839	0.160773
C100	C	-0.164820	-1.518337	-0.506133
C101	C	0.168513	-1.185004	-0.172800
C102	C	0.501847	-0.851670	0.160534
C103	C	-0.082275	-1.518523	-0.505857
C104	C	0.251059	-1.185190	-0.172524
C105	C	0.584392	-0.851856	0.160810
C106	C	-0.357783	-1.792351	-0.506183
C107	C	-0.024449	-1.459017	-0.172849
C108	C	0.308884	-1.125684	0.160484
C109	C	-0.357787	-1.909127	-0.506191
C110	C	-0.024454	-1.575794	-0.172858
C111	C	0.308879	-1.242461	0.160475
C112	C	-0.405188	-1.073727	-0.573453
C113	C	-0.071855	-0.740393	-0.240119
C114	C	0.261479	-0.407060	0.093214
C115	C	-0.405196	-0.964003	-0.573466
C116	C	-0.071863	-0.630669	-0.240133
C117	C	0.261471	-0.297336	0.093201
C118	C	-0.310372	-0.963982	-0.438891
C119	C	0.022961	-0.630648	-0.105558
C120	C	0.356294	-0.297315	0.227775
C121	C	-0.310369	-1.073704	-0.438874
C122	C	0.022965	-0.740370	-0.105540
C123	C	0.356298	-0.407037	0.227793
C124	C	-0.459931	-1.073738	-0.651151
C125	C	-0.126598	-0.740404	-0.317818
C126	C	0.206735	-0.407071	0.015515
C127	C	-0.459940	-0.964014	-0.651165
C128	C	-0.126606	-0.630680	-0.317831
C129	C	0.206727	-0.297347	0.015502
C130	C	-0.310331	-1.585585	-0.950750
C131	C	0.023002	-1.252252	-0.617417
C132	C	0.356336	-0.918919	-0.284083
C133	C	-0.310354	-1.585650	-1.060474
C134	C	0.022979	-1.252316	-0.727141
C135	C	0.356313	-0.918983	-0.393807
C136	C	-0.405267	-1.451184	-1.060501
C137	C	-0.071933	-1.117850	-0.727168
C138	C	0.261400	-0.784517	-0.393835
C139	C	-0.405247	-1.451125	-0.950779
C140	C	-0.071914	-1.117792	-0.617446
C141	C	0.261420	-0.784459	-0.284113
C142	C	-0.255531	-1.663215	-0.950735
C143	C	0.077802	-1.329882	-0.617402
C144	C	0.411135	-0.996548	-0.284068
C145	C	-0.255554	-1.663279	-1.060459
C146	C	0.077779	-1.329946	-0.727126
C147	C	0.411112	-0.996613	-0.393792
C148	C	-0.357804	-1.518409	-0.232129
C149	C	-0.024471	-1.185075	0.101204
C150	C	0.308863	-0.851742	0.434537
C151	C	-0.357818	-1.518447	-0.115353
C152	C	-0.024484	-1.185114	0.217981
C153	C	0.308849	-0.851781	0.551314
H154	H	-0.811796	-1.388920	-0.635579
H155	H	-0.478463	-1.055587	-0.302246
H156	H	-0.145129	-0.722253	0.031088
F157	F	-0.180366	-1.634882	-1.099473
F158	F	0.152967	-1.301549	-0.766140
F159	F	0.486300	-0.968215	-0.432807
F160	F	-0.911219	-1.572448	-0.707772
F161	F	-0.577886	-1.239114	-0.374438
F162	F	-0.244552	-0.905781	-0.041105
F163	F	-0.259917	-1.132072	-0.367236
F164	F	0.073416	-0.798739	-0.033903
F165	F	0.406749	-0.465405	0.299431
F166	F	-0.805220	-1.720291	-0.560259
F167	F	-0.471886	-1.386957	-0.226926
F168	F	-0.138553	-1.053624	0.106408
H169	H	-0.276203	-1.740580	-1.094410
H170	H	0.057130	-1.407247	-0.761077
H171	H	0.390463	-1.073913	-0.427743
F172	F	-0.805057	-1.464412	-0.304265
F173	F	-0.471724	-1.131079	0.029069
F174	F	-0.138391	-0.797745	0.362402
F175	F	-0.259923	-0.905576	-0.367283
F176	F	0.073411	-0.572243	-0.033950
F177	F	0.406744	-0.238910	0.299383
H178	H	-0.904344	-1.648182	-0.376438
H179	H	-0.571011	-1.314849	-0.043105
H180	H	-0.237677	-0.981516	0.290229
F181	F	-0.911206	-1.316699	-0.451921
F182	F	-0.577873	-0.983366	-0.118588
F183	F	-0.244540	-0.650032	0.214745
H184	H	-0.517475	-1.103536	-0.629470
H185	H	-0.184142	-0.770203	-0.296136
H186	H	0.149191	-0.436870	0.037197
H187	H	-0.270978	-1.744556	-0.920882
H188	H	0.062356	-1.411222	-0.587549
H189	H	0.395689	-1.077889	-0.254215
F190	F	-0.432931	-1.118207	-0.752145
F191	F	-0.099597	-0.784873	-0.418812
F192	F	0.233736	-0.451540	-0.085478
H193	H	-0.514617	-0.930007	-0.622137
H194	H	-0.181284	-0.596673	-0.288804
H195	H	0.152049	-0.263340	0.044529
F196	F	-0.455753	-1.379552	-0.892414
F197	F	-0.122420	-1.046218	-0.559081
F198	F	0.210914	-0.712885	-0.225748
F199	F	-0.439657	-0.925067	-0.757478
F200	F	-0.106323	-0.591734	-0.424144
F201	F	0.227010	-0.258400	-0.090811
H202	H	-0.200872	-1.634099	-0.916771
H203	H	0.132461	-1.300766	-0.583438
H204	H	0.465795	-0.967432	-0.250104
H205	H	-0.443917	-1.396473	-1.105192
H206	H	-0.110584	-1.063140	-0.771859
H207	H	0.222749	-0.729807	-0.438525
