data_functionalizedCrystal
_audit_creation_method	'MofGen! by Chris Wilmer'
_symmetry_space_group_name_H-M	'P1'
_symmetry_Int_Tables_number	1
_symmetry_cell_setting	triclinic
loop_
_symmetry_equiv_pos_as_xyz
  x,y,z
_cell_length_a	8.497367
_cell_length_b	8.497366
_cell_length_c	13.897449
_cell_angle_alpha	89.966723
_cell_angle_beta	90.032196
_cell_angle_gamma	90.003193
loop_
_atom_site_label
_atom_site_type_symbol
_atom_site_fract_x
_atom_site_fract_y
_atom_site_fract_z
Zn1	Zn	0.627625	-0.892502	1.475165
Zn2	Zn	0.960959	-0.559168	1.808498
Zn3	Zn	1.294292	-0.225835	2.141832
Zn4	Zn	0.891564	-0.628921	1.475168
Zn5	Zn	1.224897	-0.295587	1.808501
Zn6	Zn	1.558230	0.037746	2.141834
Zn7	Zn	0.627797	-0.628726	1.313819
Zn8	Zn	0.961131	-0.295392	1.647152
Zn9	Zn	1.294464	0.037941	1.980486
Zn10	Zn	0.891363	-0.892649	1.313980
Zn11	Zn	1.224697	-0.559316	1.647313
Zn12	Zn	1.558030	-0.225983	1.980647
O13	O	0.759587	-0.760699	1.394533
O14	O	1.092921	-0.427366	1.727866
O15	O	1.426254	-0.094033	2.061200
O16	O	0.662649	-0.857557	1.610147
O17	O	0.995983	-0.524224	1.943480
O18	O	1.329316	-0.190890	2.276814
O19	O	0.856730	-0.408132	1.453698
O20	O	1.190064	-0.074799	1.787032
O21	O	1.523397	0.258534	2.120365
O22	O	0.407012	-0.663573	1.335153
O23	O	0.740345	-0.330239	1.668487
O24	O	1.073679	0.003094	2.001820
O25	O	0.856564	-0.663905	1.610149
O26	O	1.189897	-0.330572	1.943482
O27	O	1.523230	0.002762	2.276816
O28	O	0.406886	-0.857368	1.453693
O29	O	0.740219	-0.524034	1.787027
O30	O	1.073552	-0.190701	2.120360
O31	O	0.662942	-0.407989	1.335156
O32	O	0.996275	-0.074656	1.668489
O33	O	1.329609	0.258678	2.001823
O34	O	0.662748	-0.663716	1.178859
O35	O	0.996081	-0.330382	1.512192
O36	O	1.329415	0.002951	1.845525
O37	O	0.856222	-1.113392	1.335428
O38	O	1.189556	-0.780059	1.668761
O39	O	1.522889	-0.446725	2.002094
O40	O	0.856389	-0.857619	1.178977
O41	O	1.189722	-0.524286	1.512310
O42	O	1.523056	-0.190953	1.845644
O43	O	0.662455	-1.113284	1.453850
O44	O	0.995789	-0.779950	1.787183
O45	O	1.329122	-0.446617	2.120516
O46	O	1.112300	-0.664048	1.453854
O47	O	1.445633	-0.330715	1.787188
O48	O	1.778966	0.002618	2.120521
O49	O	1.112153	-0.857808	1.335430
O50	O	1.445486	-0.524475	1.668764
O51	O	1.778819	-0.191142	2.002097
C52	C	0.759566	-0.760663	1.143919
C53	C	1.092900	-0.427330	1.477252
C54	C	1.426233	-0.093997	1.810585
C55	C	0.759595	-0.760685	1.036705
C56	C	1.092929	-0.427352	1.370038
C57	C	1.426262	-0.094019	1.703371
C58	C	1.348107	-0.760553	1.394466
C59	C	1.681440	-0.427220	1.727799
C60	C	2.014774	-0.093887	2.061132
C61	C	1.169463	-0.760842	1.394587
C62	C	1.502797	-0.427509	1.727921
C63	C	1.836130	-0.094175	2.061254
C64	C	0.759444	-0.172180	1.394589
C65	C	1.092777	0.161154	1.727923
C66	C	1.426110	0.494487	2.061256
C67	C	0.759774	-0.350823	1.394461
C68	C	1.093107	-0.017490	1.727795
C69	C	1.426440	0.315843	2.061128
C70	C	0.759601	-0.760727	0.840410
C71	C	1.092934	-0.427393	1.173743
C72	C	1.426268	-0.094060	1.507076
C73	C	0.759593	-0.760699	0.949642
C74	C	1.092926	-0.427366	1.282975
C75	C	1.426260	-0.094033	1.616309
C76	C	0.759610	-0.760736	1.646126
C77	C	1.092943	-0.427403	1.979459
C78	C	1.426276	-0.094070	2.312793
C79	C	0.759619	-0.760752	1.753340
C80	C	1.092953	-0.427419	2.086673
C81	C	1.426286	-0.094085	2.420006
