data_functionalizedCrystal
_audit_creation_method	'MofGen! by Chris Wilmer'
_symmetry_space_group_name_H-M	'P1'
_symmetry_Int_Tables_number	1
_symmetry_cell_setting	triclinic
loop_
_symmetry_equiv_pos_as_xyz
  x,y,z
_cell_length_a	11.792241
_cell_length_b	10.654550
_cell_length_c	9.130313
_cell_angle_alpha	90.003780
_cell_angle_beta	89.998583
_cell_angle_gamma	95.660841
loop_
_atom_site_label
_atom_site_type_symbol
_atom_site_fract_x
_atom_site_fract_y
_atom_site_fract_z
O1	O	0.159415	-1.667383	-0.121920
O2	O	0.174603	-1.301862	-0.121897
O3	O	0.001859	-1.493493	-0.121899
O4	O	0.332159	-1.475752	-0.121918
O5	O	0.001864	-1.493490	0.121700
O6	O	0.174608	-1.301859	0.121702
O7	O	0.159419	-1.667381	0.121678
Cu8	Cu	0.167014	-1.484620	0.143933
Cu9	Cu	0.167008	-1.484623	-0.144151
O10	O	0.332164	-1.475750	0.121680
C11	C	0.173490	-1.255066	-0.000095
C12	C	0.170154	-1.115632	-0.000085
C13	C	-0.040432	-1.492377	-0.000100
C14	C	-0.166454	-1.489042	-0.000101
N15	N	0.167017	-1.484627	0.346555
C16	C	-0.397180	-1.482908	-0.000125
C17	C	-0.268787	-1.486316	-0.000112
C18	C	0.374455	-1.476865	-0.000122
C19	C	0.500476	-1.480201	-0.000130
C20	C	0.160532	-1.714177	-0.000127
C21	C	0.163869	-1.853611	-0.000146
C22	C	0.271863	-1.035858	-0.000113
C23	C	0.268721	-0.904847	-0.000138
C24	C	0.062152	-0.933394	-0.000114
C25	C	0.065295	-1.064404	-0.000079
C26	C	0.391124	-1.019376	-0.000133
C27	C	0.387982	-0.888364	-0.000158
N28	N	0.166996	-1.484625	-0.346774
C29	C	0.090552	-1.569503	0.423206
C30	C	0.090539	-1.569500	0.576543
C31	C	0.243465	-1.399740	0.576564
C32	C	0.243472	-1.399739	0.423230
C33	C	0.002265	-1.667516	0.423195
C34	C	0.002251	-1.667513	0.576532
H35	H	-0.023221	-0.891668	-0.000132
C36	C	0.028544	-1.797809	0.632746
C37	C	0.133834	-1.809466	0.729716
C38	C	0.160137	-1.939754	0.785924
C39	C	0.081149	-2.058385	0.745160
C40	C	-0.024148	-2.046732	0.648184
C41	C	-0.050451	-1.916444	0.591977
H42	H	0.192311	-1.721645	0.759897
H43	H	0.238085	-1.948380	0.857712
H44	H	0.100620	-2.154832	0.786768
H45	H	-0.082625	-2.134553	0.618004
H46	H	-0.128399	-1.907818	0.520189
H47	H	-0.080191	-1.637233	0.624086
C48	C	0.327567	-1.306372	0.660909
C49	C	0.327761	-1.306582	0.829570
C50	C	0.411867	-1.213212	0.913911
C51	C	0.495779	-1.119631	0.829591
C52	C	0.495588	-1.119417	0.660921
C53	C	0.411482	-1.212787	0.576580
H54	H	0.265642	-1.375859	0.891998
H55	H	0.412008	-1.213371	1.038773
H56	H	0.558039	-1.050513	0.892025
H57	H	0.557708	-1.050140	0.598493
H58	H	0.411342	-1.212628	0.451718
C59	C	0.454134	-1.058834	0.137588
C60	C	0.408494	-1.030185	0.290777
C61	C	0.471502	-1.069644	0.428494
C62	C	0.580149	-1.137753	0.413023
C63	C	0.625794	-1.166406	0.259828
C64	C	0.562787	-1.126946	0.122111
H65	H	0.328062	-0.979764	0.302235
H66	H	0.437711	-1.048433	0.541899
H67	H	0.626791	-1.166963	0.514969
H68	H	0.706227	-1.216827	0.248370
H69	H	0.596577	-1.148157	0.008706
H70	H	0.029909	-1.758622	0.375629
C71	C	0.436672	-0.826517	0.141910
C72	C	0.560958	-0.839668	0.186156
C73	C	0.609643	-0.777821	0.328222
C74	C	0.534042	-0.702824	0.426043
C75	C	0.409748	-0.689669	0.381800
C76	C	0.361064	-0.751516	0.239733
H77	H	0.616930	-0.895188	0.113741
H78	H	0.701653	-0.787559	0.360974
H79	H	0.570081	-0.657041	0.531210
H80	H	0.353777	-0.634149	0.454215
H81	H	0.269053	-0.741778	0.206982
C82	C	-0.115584	-1.638874	0.366963
C83	C	-0.186442	-1.735459	0.269989
C84	C	-0.304287	-1.706816	0.213757
C85	C	-0.351274	-1.581588	0.254499
C86	C	-0.280416	-1.484994	0.351478
C87	C	-0.162571	-1.513637	0.407710
H88	H	-0.151660	-1.828169	0.239825
H89	H	-0.356741	-1.778322	0.141967
H90	H	-0.438510	-1.560384	0.212872
H91	H	-0.315198	-1.392285	0.381642
H92	H	-0.110117	-1.442131	0.479500
H93	H	-0.017527	-1.129352	-0.000036
H94	H	0.429096	-1.054925	-0.105307
H95	H	0.432916	-0.846505	-0.102114
H96	H	0.305726	-1.330615	0.360822
