data_functionalizedCrystal
_audit_creation_method	'MofGen! by Chris Wilmer'
_symmetry_space_group_name_H-M	'P1'
_symmetry_Int_Tables_number	1
_symmetry_cell_setting	triclinic
loop_
_symmetry_equiv_pos_as_xyz
  x,y,z
_cell_length_a	18.050591
_cell_length_b	21.295417
_cell_length_c	18.050582
_cell_angle_alpha	89.973245
_cell_angle_beta	89.979078
_cell_angle_gamma	90.026512
loop_
_atom_site_label
_atom_site_type_symbol
_atom_site_fract_x
_atom_site_fract_y
_atom_site_fract_z
Zn1	Zn	1.135281	-0.250716	-0.420010
Zn2	Zn	1.635281	0.249284	0.079990
Zn3	Zn	1.135186	-0.355977	-0.295811
Zn4	Zn	1.635186	0.144023	0.204189
Zn5	Zn	1.011100	-0.250719	-0.295821
Zn6	Zn	1.511100	0.249281	0.204179
Zn7	Zn	1.011043	-0.355944	-0.419946
Zn8	Zn	1.511043	0.144056	0.080054
O9	O	1.073153	-0.303339	-0.357897
O10	O	1.573153	0.196661	0.142103
O11	O	1.239193	-0.264692	-0.403557
O12	O	1.739193	0.235308	0.096443
O13	O	1.118710	-0.342030	-0.191887
O14	O	1.618710	0.157970	0.308113
O15	O	1.027636	-0.162629	-0.312326
O16	O	1.527636	0.337371	0.187674
O17	O	1.239124	-0.342027	-0.312308
O18	O	1.739124	0.157973	0.187692
O19	O	1.118871	-0.162627	-0.403567
O20	O	1.618871	0.337373	0.096433
O21	O	1.027545	-0.264697	-0.191895
O22	O	1.527545	0.235303	0.308105
O23	O	0.907168	-0.264664	-0.312264
O24	O	1.407168	0.235336	0.187736
O25	O	1.027539	-0.341971	-0.523879
O26	O	1.527539	0.158029	-0.023879
O27	O	0.907126	-0.341973	-0.403458
O28	O	1.407126	0.158027	0.096542
O29	O	1.118816	-0.264660	-0.523926
O30	O	1.618816	0.235340	-0.023926
O31	O	1.118655	-0.444062	-0.312247
O32	O	1.618655	0.055938	0.187753
O33	O	1.027448	-0.444038	-0.403449
O34	O	1.527448	0.055962	0.096551
C35	C	0.880200	-0.303316	-0.357856
C36	C	1.380200	0.196684	0.142144
C37	C	0.797655	-0.303321	-0.357856
C38	C	1.297655	0.196679	0.142144
C39	C	0.598205	-0.261232	-0.308379
C40	C	1.098205	0.238768	0.191621
C41	C	0.548783	-0.318646	-0.290098
C42	C	1.048783	0.181354	0.209902
C43	C	0.646524	-0.303340	-0.357889
C44	C	1.146524	0.196660	0.142111
C45	C	0.548865	-0.245945	-0.376169
C46	C	1.048865	0.254055	0.123831
C47	C	0.500539	-0.303353	-0.357920
C48	C	1.000539	0.196647	0.142080
C49	C	0.598189	-0.360785	-0.339573
C50	C	1.098189	0.139215	0.160427
C51	C	0.598276	-0.288045	-0.425676
C52	C	1.098276	0.211955	0.074324
C53	C	0.548875	-0.345499	-0.407420
C54	C	1.048875	0.154501	0.092580
C55	C	0.730623	-0.303331	-0.357870
C56	C	1.230623	0.196669	0.142130
C57	C	0.416443	-0.303368	-0.357940
C58	C	0.916443	0.196632	0.142060
C59	C	1.073055	-0.466891	-0.357856
C60	C	1.573055	0.033109	0.142144
C61	C	1.073081	-0.536859	-0.357863
C62	C	1.573081	-0.036859	0.142137
C63	C	1.120615	-0.569717	-0.310423
C64	C	1.620615	-0.069717	0.189577
C65	C	1.120650	-0.635460	-0.310440
C66	C	1.620650	-0.135460	0.189560
C67	C	1.073138	-0.668341	-0.357889
C68	C	1.573138	-0.168341	0.142111
C69	C	1.025600	-0.635475	-0.405338
C70	C	1.525600	-0.135475	0.094662
C71	C	1.025572	-0.569734	-0.405325
C72	C	1.525572	-0.069734	0.094675
N73	N	1.008171	-0.771604	-0.363536
N74	N	1.508171	-0.271604	0.136464
N75	N	1.008200	-0.834055	-0.363544
N76	N	1.508200	-0.334055	0.136456
C77	C	1.073221	-0.866416	-0.357931
C78	C	1.573221	-0.366416	0.142069
N79	N	1.138214	-0.833966	-0.352296
N80	N	1.638214	-0.333966	0.147704
N81	N	1.138184	-0.771509	-0.352284
N82	N	1.638184	-0.271509	0.147716
C83	C	1.073163	-0.739627	-0.357908
C84	C	1.573163	-0.239627	0.142092
C85	C	1.120797	-0.970560	-0.310507
C86	C	1.620797	-0.470560	0.189493
C87	C	1.120833	-1.036304	-0.310529
C88	C	1.620833	-0.536304	0.189471
C89	C	1.025776	-1.036318	-0.405423
C90	C	1.525776	-0.536318	0.094577
C91	C	1.025747	-0.970575	-0.405405
C92	C	1.525747	-0.470575	0.094595
C93	C	1.073256	-0.937700	-0.357943
C94	C	1.573256	-0.437700	0.142057
C95	C	1.266858	-0.303363	-0.357939
C96	C	1.766858	0.196637	0.142061
C97	C	1.349404	-0.303373	-0.357956
C98	C	1.849404	0.196627	0.142044
C99	C	1.073182	-0.303311	-0.551603
C100	C	1.573182	0.196689	-0.051603
C101	C	1.073194	-0.303299	-0.634148
C102	C	1.573194	0.196701	-0.134148
C103	C	1.073270	-0.139149	-0.357954
C104	C	1.573270	0.360851	0.142046
C105	C	1.073321	-0.069181	-0.357979
C106	C	1.573321	0.430819	0.142021
C107	C	1.023596	-0.345283	-0.833574
C108	C	1.523596	0.154717	-0.333574
C109	C	1.091350	-0.360675	-0.882971
C110	C	1.591350	0.139325	-0.382971
C111	C	1.073231	-0.303251	-0.785279
C112	C	1.573231	0.196749	-0.285279
C113	C	1.005513	-0.287842	-0.882964
C114	C	1.505513	0.212158	-0.382964
C115	C	1.073260	-0.303206	-0.931264
C116	C	1.573260	0.196794	-0.431264
C117	C	1.141021	-0.318673	-0.833589
C118	C	1.641021	0.181327	-0.333589
C119	C	1.055138	-0.245814	-0.833577
C120	C	1.555138	0.254186	-0.333577
C121	C	1.122940	-0.261183	-0.882952
C122	C	1.622940	0.238817	-0.382952
C123	C	1.073213	-0.303279	-0.701181
C124	C	1.573213	0.196721	-0.201181
C125	C	1.073286	-0.303178	-1.015361
C126	C	1.573286	0.196822	-0.515361
C127	C	1.073166	-0.303322	-0.164945
C128	C	1.573166	0.196678	0.335055
C129	C	1.073298	-0.303156	-0.082399
C130	C	1.573298	0.196844	0.417601
H131	H	0.619765	-0.409343	-0.324062
H132	H	1.119765	0.090657	0.175938
Cl133	Cl	0.515218	-0.338636	-0.201614
Cl134	Cl	1.015218	0.161364	0.298386
H135	H	1.106671	-0.409229	-0.904667
H136	H	1.606671	0.090771	-0.404667
H137	H	0.620032	-0.275080	-0.482970
H138	H	1.120032	0.224920	0.017030
H139	H	1.159302	-0.542953	-0.271778
H140	H	1.659302	-0.042953	0.228222
H141	H	0.981660	-0.380875	-0.811894
H142	H	1.481660	0.119125	-0.311894
H143	H	1.198317	-0.331742	-0.811991
H144	H	1.698317	0.168258	-0.311991
Cl145	Cl	1.187837	-0.206275	-0.916220
Cl146	Cl	1.687837	0.293725	-0.416220
H147	H	1.039798	-0.197273	-0.811864
H148	H	1.539798	0.302727	-0.311864
H149	H	0.948233	-0.274828	-0.904653
H150	H	1.448233	0.225172	-0.404653
H151	H	0.527159	-0.197408	-0.391591
H152	H	1.027159	0.302592	0.108409
Cl153	Cl	0.631650	-0.206312	-0.243669
Cl154	Cl	1.131650	0.293688	0.256331
Cl155	Cl	1.180411	-0.676776	-0.250795
Cl156	Cl	1.680411	-0.176776	0.249205
H157	H	0.527352	-0.381156	-0.449303
H158	H	1.027352	0.118844	0.050697
Cl159	Cl	0.965874	-0.676811	-0.464992
Cl160	Cl	1.465874	-0.176811	0.035008
Cl161	Cl	0.965809	-0.528424	-0.464969
Cl162	Cl	1.465809	-0.028424	0.035031
H163	H	1.159484	-0.943792	-0.271862
H164	H	1.659484	-0.443792	0.228138
H165	H	0.987094	-1.063089	-0.444060
H166	H	1.487094	-0.563089	0.055940
Cl167	Cl	1.180601	-1.077612	-0.250889
Cl168	Cl	1.680601	-0.577612	0.249111
Cl169	Cl	0.965983	-0.929265	-0.465044
Cl170	Cl	1.465983	-0.429265	0.034956
