data_functionalizedCrystal
_audit_creation_method	'MofGen! by Chris Wilmer'
_symmetry_space_group_name_H-M	'P1'
_symmetry_Int_Tables_number	1
_symmetry_cell_setting	triclinic
loop_
_symmetry_equiv_pos_as_xyz
  x,y,z
_cell_length_a	21.295418
_cell_length_b	21.295418
_cell_length_c	16.959447
_cell_angle_alpha	89.972529
_cell_angle_beta	89.962187
_cell_angle_gamma	90.044200
loop_
_atom_site_label
_atom_site_type_symbol
_atom_site_fract_x
_atom_site_fract_y
_atom_site_fract_z
Zn1	Zn	0.962328	-0.250353	-0.447333
Zn2	Zn	0.962245	-0.355623	-0.315153
Zn3	Zn	0.857062	-0.250401	-0.315124
Zn4	Zn	0.857025	-0.355618	-0.447245
O5	O	0.909665	-0.302999	-0.381214
O6	O	1.050407	-0.264300	-0.429849
O7	O	0.948274	-0.341688	-0.204538
O8	O	0.871076	-0.162305	-0.332687
O9	O	1.050346	-0.341641	-0.332736
O10	O	0.948415	-0.162270	-0.429820
O11	O	0.870996	-0.264381	-0.204517
O12	O	0.768968	-0.264376	-0.332601
O13	O	0.871012	-0.341631	-0.557868
O14	O	0.768940	-0.341678	-0.429670
O15	O	0.948378	-0.264294	-0.557933
O16	O	0.948237	-0.443712	-0.332651
O17	O	0.870932	-0.443708	-0.429698
C18	C	0.746114	-0.303032	-0.381123
C19	C	0.676145	-0.303061	-0.381103
C20	C	0.909589	-0.466550	-0.381185
C21	C	0.909614	-0.536518	-0.381199
C22	C	0.950014	-1.035905	-0.431893
C23	C	0.949995	-0.970162	-0.431880
C24	C	0.909751	-0.937358	-0.381263
C25	C	0.869534	-0.970301	-0.330641
C26	C	0.869558	-1.036043	-0.330649
N27	N	0.854614	-0.834204	-0.375099
N28	N	0.854593	-0.771752	-0.375096
C29	C	0.909677	-0.739283	-0.381234
N30	N	0.964784	-0.771625	-0.387391
N31	N	0.964804	-0.834082	-0.387398
C32	C	0.909721	-0.866072	-0.381248
C33	C	0.949875	-0.635062	-0.431836
C34	C	0.949858	-0.569318	-0.431818
C35	C	0.869390	-0.569459	-0.330582
C36	C	0.869413	-0.635201	-0.330596
C37	C	0.909655	-0.667999	-0.381227
C38	C	0.643281	-0.343366	-0.431571
C39	C	0.577538	-0.343350	-0.431606
C40	C	0.544663	-0.303037	-0.381160
C41	C	0.577535	-0.262724	-0.330688
C42	C	0.643277	-0.262737	-0.330660
N43	N	0.441392	-0.298119	-0.312025
N44	N	0.378941	-0.298111	-0.312054
C45	C	0.346588	-0.302997	-0.381243
N46	N	0.379046	-0.307902	-0.450404
N47	N	0.441503	-0.307914	-0.450373
C48	C	0.473378	-0.303019	-0.381185
C49	C	0.242438	-0.343286	-0.431754
C50	C	0.176695	-0.343267	-0.431791
C51	C	0.176693	-0.262644	-0.330866
C52	C	0.242435	-0.262661	-0.330836
C53	C	0.275304	-0.302985	-0.381279
C54	C	1.073855	-0.302966	-0.381306
C55	C	1.143824	-0.302952	-0.381345
C56	C	0.909700	-0.302957	-0.587382
C57	C	0.909716	-0.302939	-0.675239
C58	C	0.909759	-0.138808	-0.381260
C59	C	0.909799	-0.068840	-0.381280
C60	C	0.869442	-0.343197	-0.716481
C61	C	0.949999	-0.262660	-0.716551
C62	C	0.950012	-0.262639	-0.799097
C63	C	0.909739	-0.302898	-0.840338
C64	C	0.869453	-0.343176	-0.799034
C65	C	0.990293	-0.222357	-0.840407
C66	C	0.990307	-0.222334	-0.922958
C67	C	0.950037	-0.262596	-0.964201
C68	C	0.909750	-0.302877	-0.922892
C69	C	0.869477	-0.343135	-0.964134
C70	C	0.829192	-0.383420	-0.922826
C71	C	0.829183	-0.383438	-0.840277
C72	C	0.950046	-0.262577	-1.046750
C73	C	0.869487	-0.343114	-1.046687
C74	C	0.909666	-0.302995	-0.175848
C75	C	0.909773	-0.302836	-0.087992
H76	H	0.982787	-1.062605	-0.473114
H77	H	0.982841	-0.229773	-1.080379
H78	H	0.149926	-0.229817	-0.289795
F79	F	0.786328	-0.426260	-0.966728
H80	H	0.550764	-0.229900	-0.289615
H81	H	0.836645	-0.375998	-0.682844
H82	H	0.982744	-0.943341	-0.473097
F83	F	0.826705	-0.935388	-0.276768
F84	F	0.992665	-0.534266	-0.485686
H85	H	0.982785	-0.229881	-0.682967
F86	F	0.678258	-0.386281	-0.485260
F87	F	0.826563	-0.534550	-0.276705
F88	F	0.678255	-0.219837	-0.276942
F89	F	0.786309	-0.426305	-0.796310
F90	F	0.542554	-0.386249	-0.485324
F91	F	0.826753	-1.071096	-0.276778
H92	H	0.836664	-0.662018	-0.289385
F93	F	0.992708	-0.669970	-0.485714
H94	H	0.269201	-0.376118	-0.472832
H95	H	0.149937	-0.376086	-0.472893
H96	H	0.269194	-0.229844	-0.289735
H97	H	1.023079	-0.189579	-0.806822
H98	H	0.836694	-0.375900	-1.080260
F99	F	1.033192	-0.179471	-0.966914
