data_functionalizedCrystal
_audit_creation_method	'MofGen! by Chris Wilmer'
_symmetry_space_group_name_H-M	'P1'
_symmetry_Int_Tables_number	1
_symmetry_cell_setting	triclinic
loop_
_symmetry_equiv_pos_as_xyz
  x,y,z
_cell_length_a	15.995280
_cell_length_b	10.540510
_cell_length_c	9.616153
_cell_angle_alpha	90.000246
_cell_angle_beta	90.007585
_cell_angle_gamma	96.011546
loop_
_atom_site_label
_atom_site_type_symbol
_atom_site_fract_x
_atom_site_fract_y
_atom_site_fract_z
O1	O	-1.111990	0.163189	-0.115661
O2	O	-0.868326	0.183487	-0.115658
O3	O	-0.995730	-0.011450	-0.115659
O4	O	-0.984586	0.358126	-0.115660
O5	O	-0.995713	-0.011445	0.115632
O6	O	-0.868309	0.183491	0.115634
O7	O	-1.111972	0.163193	0.115630
Zn8	Zn	-0.990138	0.173343	0.152354
Zn9	Zn	-0.990161	0.173337	-0.152382
O10	O	-0.984569	0.358130	0.115632
C11	C	-0.837117	0.182666	-0.000012
C12	C	-0.744149	0.180197	-0.000011
C13	C	-0.406355	0.171122	-0.000031
C14	C	-0.430499	0.311814	-0.000547
C15	C	-0.527191	0.314482	-0.000019
C16	C	-0.573938	0.175625	-0.000022
C17	C	-0.544411	0.105289	0.132052
C18	C	-0.447610	0.103602	0.132156
C19	C	-0.447757	0.100724	-0.130866
C20	C	-0.544281	0.105931	-0.132605
C21	C	-0.668650	0.178163	-0.000012
C22	C	-0.311644	0.168580	-0.000031
C23	C	-0.994891	-0.058739	-0.000016
C24	C	-0.992406	-0.199654	-0.000024
C25	C	-1.080913	-0.418360	0.000504
C26	C	-1.083564	-0.271802	-0.000024
C27	C	-0.945753	-0.243756	-0.132100
C28	C	-0.943748	-0.390489	-0.132203
C29	C	-0.941830	-0.390266	0.130818
C30	C	-0.946153	-0.243985	0.132557
C31	C	-0.143180	0.164031	-0.000022
C32	C	-0.236144	0.166550	-0.000042
C33	C	-0.985408	0.405420	-0.000014
C34	C	-0.987892	0.546334	-0.000015
N35	N	-0.990128	0.173346	0.360329
N36	N	-0.990177	0.173324	-0.360356
C37	C	-0.921768	0.277280	0.580700
C38	C	-0.921918	0.277664	0.419532
C39	C	-1.077669	0.202243	0.418777
C40	C	-1.077297	0.202978	0.579995
C41	C	-0.971819	0.040164	0.580241
C42	C	-0.969810	0.041058	0.419014
H43	H	-0.402830	0.366044	-0.095265
H44	H	-0.401792	0.365747	0.093637
H45	H	-1.116420	-0.460815	0.095222
C46	C	-0.980747	-0.448143	0.266062
N47	N	-1.010070	-0.491736	0.367921
H48	H	-0.546550	0.369559	-0.094698
H49	H	-0.433152	-0.002835	-0.131762
C50	C	-1.098973	0.334180	0.630778
N51	N	-1.115294	0.433009	0.669020
C52	C	-0.833619	0.254432	0.633164
N53	N	-0.767224	0.237226	0.672699
C54	C	-0.409954	0.160277	-0.266109
N55	N	-0.381482	0.205150	-0.367967
H56	H	-0.905410	0.019126	0.380815
C57	C	-0.588005	-0.030998	-0.143377
N58	N	-0.620936	-0.134141	-0.151478
H59	H	-0.975646	-0.431156	-0.230932
C60	C	-0.991994	-0.205934	0.264561
N61	N	-1.026516	-0.177252	0.363985
C62	C	-0.552491	0.389333	0.128117
N63	N	-0.571546	0.445709	0.224638
H64	H	-0.575675	0.003110	0.136961
H65	H	-0.879601	-0.193978	0.140533
H66	H	-0.873388	-0.411449	0.131709
H67	H	-1.116230	-0.462366	-0.093679
C68	C	-1.132880	-0.232851	0.127877
N69	N	-1.170030	-0.203520	0.224214
H70	H	-1.129819	0.128542	0.380424
H71	H	-0.856872	0.260452	0.380018
H72	H	-0.933414	0.375541	0.621198
C73	C	-0.855095	-0.178447	-0.138746
N74	N	-0.786812	-0.129251	-0.143751
H75	H	-1.094085	0.298250	0.378386
C76	C	-1.148205	0.104610	0.632670
N77	N	-1.201622	0.030536	0.672339
H78	H	-0.909333	0.012367	0.620979
H79	H	-1.016334	-0.039921	0.378719
C80	C	-0.989547	-0.202706	-0.264890
N81	N	-1.022538	-0.171792	-0.364904
H82	H	-0.421073	0.152321	0.230886
H83	H	-1.120294	-0.243917	-0.094865
C84	C	-1.039198	-0.064348	0.631744
N85	N	-1.089949	-0.143057	0.670544
H86	H	-0.432449	0.000446	0.138152
H87	H	-0.564751	0.154137	0.230344
C88	C	-0.569794	0.175107	-0.264606
N89	N	-0.589018	0.227210	-0.364028
H90	H	-0.933717	0.376483	0.380952
H91	H	-0.875568	-0.412521	-0.138186
