data_functionalizedCrystal
_audit_creation_method	'MofGen! by Chris Wilmer'
_symmetry_space_group_name_H-M	'P1'
_symmetry_Int_Tables_number	1
_symmetry_cell_setting	triclinic
loop_
_symmetry_equiv_pos_as_xyz
  x,y,z
_cell_length_a	18.101398
_cell_length_b	29.839131
_cell_length_c	18.101389
_cell_angle_alpha	90.021287
_cell_angle_beta	90.024327
_cell_angle_gamma	90.036686
loop_
_atom_site_label
_atom_site_type_symbol
_atom_site_fract_x
_atom_site_fract_y
_atom_site_fract_z
Zn1	Zn	1.132068	-0.178957	0.418824
Zn2	Zn	1.131941	-0.254074	0.294976
Zn3	Zn	1.008227	-0.178952	0.294985
Zn4	Zn	1.008155	-0.254055	0.418765
O5	O	1.070098	-0.216510	0.356887
O6	O	1.235684	-0.188932	0.402416
O7	O	1.115507	-0.244115	0.191344
O8	O	1.024737	-0.116086	0.311441
O9	O	1.235591	-0.244119	0.311426
O10	O	1.115723	-0.116089	0.402425
O11	O	1.024615	-0.188924	0.191351
O12	O	0.904584	-0.188905	0.311384
O13	O	1.024615	-0.244087	0.522406
O14	O	0.904532	-0.244082	0.402324
O15	O	1.115654	-0.188913	0.522449
O16	O	1.115438	-0.316938	0.311369
O17	O	1.024493	-0.316924	0.402315
C18	C	0.877687	-0.216491	0.356849
C19	C	0.795373	-0.216494	0.356850
C20	C	0.496282	-0.216522	0.356912
C21	C	0.527616	-0.181633	0.299974
C22	C	0.613234	-0.181726	0.299731
C23	C	0.644665	-0.216508	0.356881
C24	C	0.613533	-0.263830	0.335553
C25	C	0.527888	-0.263636	0.335157
C26	C	0.527900	-0.204501	0.435313
C27	C	0.613552	-0.203447	0.434885
C28	C	0.728524	-0.216503	0.356865
C29	C	0.412423	-0.216531	0.356926
C30	C	1.069964	-0.333232	0.356851
C31	C	1.069975	-0.383167	0.356860
C32	C	1.117539	-0.692805	0.309601
C33	C	1.117631	-0.880478	0.309629
O34	O	1.157965	-0.904738	0.269420
N35	N	1.070251	-0.903952	0.356943
C36	C	1.022849	-0.880504	0.404257
O37	O	0.982558	-0.904777	0.444506
C38	C	1.022762	-0.692832	0.404231
C39	C	1.070139	-0.669361	0.356909
C40	C	1.164913	-0.669333	0.262283
C41	C	1.164887	-0.622418	0.262273
C42	C	1.117487	-0.598974	0.309582
C43	C	1.070113	-0.622445	0.356899
C44	C	0.975365	-0.669386	0.451548
C45	C	0.975348	-0.622465	0.451539
C46	C	1.022725	-0.598993	0.404217
C47	C	1.022687	-0.552086	0.404198
N48	N	1.070066	-0.528612	0.356884
C49	C	1.117466	-0.552056	0.309576
C50	C	1.022898	-0.979035	0.404266
C51	C	1.022918	-1.025953	0.404272
C52	C	1.117700	-1.025923	0.309645
C53	C	1.117675	-0.979004	0.309636
C54	C	1.070277	-0.955561	0.356952
C55	C	1.117407	-0.453530	0.309559
C56	C	1.117374	-0.406610	0.309551
C57	C	1.022595	-0.406645	0.404181
C58	C	1.022625	-0.453560	0.404186
C59	C	1.070037	-0.477002	0.356872
O60	O	0.982379	-0.527797	0.444393
O61	O	1.157763	-0.527776	0.269344
C62	C	1.117565	-0.739720	0.309610
C63	C	1.070192	-0.763192	0.356928
C64	C	1.022792	-0.739748	0.404236
C65	C	1.070212	-0.810109	0.356934
C66	C	1.117612	-0.833553	0.309625
C67	C	1.164991	-0.810079	0.262311
C68	C	1.164965	-0.763164	0.262302
C69	C	0.975413	-0.763222	0.451550
C70	C	0.975442	-0.810137	0.451556
C71	C	1.022842	-0.833581	0.404247
C72	C	1.263260	-0.216528	0.356927
C73	C	1.345574	-0.216536	0.356943
C74	C	1.070141	-0.216498	0.550049
C75	C	1.070159	-0.216493	0.632364
C76	C	1.070252	-0.099331	0.356941
C77	C	1.070318	-0.049397	0.356963
C78	C	1.070098	-0.216488	0.164477
C79	C	1.070223	-0.216367	0.082163
C80	C	1.070202	-0.216409	0.931455
C81	C	1.012726	-0.251013	0.900102
C82	C	1.012881	-0.251173	0.814484
C83	C	1.070180	-0.216451	0.783072
C84	C	1.148202	-0.229306	0.814177
C85	C	1.147881	-0.229533	0.899822
C86	C	1.050335	-0.168874	0.899883
C87	C	1.048599	-0.169148	0.814232
C88	C	1.070172	-0.216474	0.699213
C89	C	1.070215	-0.216387	1.015314
H90	H	0.507636	-0.229913	0.477737
O91	O	1.100019	-0.133185	0.785930
H92	H	1.083238	-0.100255	0.808975
H93	H	0.507158	-0.290511	0.374819
H94	H	1.203584	-0.829176	0.223789
O95	O	1.168481	-0.381294	0.258515
H96	H	1.201451	-0.405481	0.225628
O97	O	0.924333	-0.835451	0.502594
H98	H	0.957468	-0.856797	0.540308
H99	H	0.984001	-0.387549	0.442696
O100	O	1.168552	-0.478803	0.258529
H101	H	1.206233	-0.500140	0.291716
O102	O	0.640328	-0.192254	0.222780
H103	H	0.701644	-0.192353	0.222336
H104	H	1.203544	-0.744057	0.223768
H105	H	1.203467	-0.603310	0.223741
H106	H	0.634944	-0.274203	0.278857
O107	O	0.971811	-1.051268	0.455302
H108	H	0.984479	-1.042242	0.513436
O109	O	0.924270	-0.694695	0.502594
H110	H	0.891319	-0.670504	0.535491
O111	O	0.641877	-0.234667	0.494085
H112	H	0.703098	-0.232915	0.496037
O113	O	0.935854	-0.240466	0.927364
H114	H	0.899227	-0.233765	0.879438
O115	O	0.924270	-0.737938	0.502562
H116	H	0.891325	-0.762147	0.535452
H117	H	1.025711	-0.286032	0.921625
H118	H	1.025997	-0.286408	0.793999
H119	H	0.633906	-0.168623	0.450967
O120	O	1.105784	-0.134723	0.926746
H121	H	1.133892	-0.119245	0.878603
O122	O	1.168788	-0.953694	0.258604
H123	H	1.206436	-0.932291	0.291791
H124	H	0.991182	-0.159454	0.793901
H125	H	0.633889	-0.290522	0.375726
H126	H	1.164725	-0.264282	0.919802
O127	O	0.936248	-0.240504	0.786626
H128	H	0.896856	-0.266147	0.807174
O129	O	1.206484	-0.197570	0.927301
H130	H	1.206674	-0.197479	0.988619
O131	O	1.206460	-0.196979	0.787222
H132	H	1.180360	-0.171347	0.751282
H133	H	0.634285	-0.146635	0.313101
H134	H	0.506339	-0.170595	0.454703
H135	H	1.165337	-0.263685	0.792732
H136	H	1.203515	-0.688416	0.223758
H137	H	1.156295	-1.045019	0.271125
O138	O	0.501366	-0.277135	0.259237
H139	H	0.549712	-0.283737	0.223150
H140	H	0.507056	-0.146434	0.313196
H141	H	0.984298	-0.959951	0.442797
H142	H	0.936751	-0.603380	0.490072
O143	O	0.976276	-0.153365	0.928462
H144	H	0.978060	-0.151407	0.989671
O145	O	0.499093	-0.192043	0.223462
H146	H	0.462696	-0.221958	0.225811
O147	O	0.971526	-0.478880	0.455222
H148	H	0.938564	-0.454694	0.488119
