data_functionalizedCrystal
_audit_creation_method	'MofGen! by Chris Wilmer'
_symmetry_space_group_name_H-M	'P1'
_symmetry_Int_Tables_number	1
_symmetry_cell_setting	triclinic
loop_
_symmetry_equiv_pos_as_xyz
  x,y,z
_cell_length_a	21.295418
_cell_length_b	12.827893
_cell_length_c	12.827879
_cell_angle_alpha	89.942478
_cell_angle_beta	89.937048
_cell_angle_gamma	90.019326
loop_
_atom_site_label
_atom_site_type_symbol
_atom_site_fract_x
_atom_site_fract_y
_atom_site_fract_z
Zn1	Zn	0.962593	-0.415206	-0.591475
Zn2	Zn	1.462593	0.084794	-0.091475
Zn3	Zn	0.962510	-0.590082	-0.416749
Zn4	Zn	1.462510	-0.090082	0.083251
Zn5	Zn	0.857281	-0.415404	-0.416683
Zn6	Zn	1.357281	0.084596	0.083317
Zn7	Zn	0.857336	-0.589954	-0.591385
Zn8	Zn	1.357336	-0.089954	-0.091385
O9	O	0.909930	-0.502661	-0.504073
O10	O	1.409930	-0.002661	-0.004073
O11	O	1.050672	-0.438374	-0.568362
O12	O	1.550672	0.061626	-0.068362
O13	O	0.948494	-0.567047	-0.270504
O14	O	1.448494	-0.067047	0.229496
O15	O	0.871263	-0.269142	-0.439880
O16	O	1.371263	0.230858	0.060120
O17	O	1.050611	-0.566855	-0.439992
O18	O	1.550611	-0.066855	0.060008
O19	O	0.948636	-0.268996	-0.568298
O20	O	1.448636	0.231004	-0.068298
O21	O	0.871182	-0.438712	-0.270456
O22	O	1.371182	0.061288	0.229544
O23	O	0.769199	-0.438588	-0.439793
O24	O	1.269199	0.061412	0.060207
O25	O	0.871356	-0.566636	-0.737633
O26	O	1.371356	-0.066636	-0.237633
O27	O	0.769239	-0.566829	-0.568145
O28	O	1.269239	-0.066829	-0.068145
O29	O	0.948688	-0.438250	-0.737699
O30	O	1.448688	0.061750	-0.237699
O31	O	0.948546	-0.736301	-0.439905
O32	O	1.448546	-0.236301	0.060095
O33	O	0.871275	-0.736207	-0.568209
O34	O	1.371275	-0.236207	-0.068209
C35	C	0.746378	-0.502717	-0.503953
C36	C	1.246378	-0.002717	-0.003953
C37	C	0.676410	-0.502765	-0.503926
C38	C	1.176410	-0.002765	-0.003926
C39	C	0.909925	-0.774171	-0.504077
C40	C	1.409925	-0.274171	-0.004077
C41	C	0.909980	-0.890324	-0.504114
C42	C	1.409980	-0.390324	-0.004114
C43	C	0.910037	-0.502407	-0.776644
C44	C	1.410037	-0.002407	-0.276644
C45	C	0.910083	-0.502298	-0.892797
C46	C	1.410083	-0.002298	-0.392797
C47	C	0.643581	-0.569629	-0.570659
C48	C	1.143581	-0.069629	-0.070659
C49	C	0.577838	-0.569603	-0.570706
C50	C	1.077838	-0.069603	-0.070706
C51	C	0.544928	-0.502725	-0.504001
C52	C	1.044928	-0.002725	-0.004001
C53	C	0.577765	-0.435848	-0.437263
C54	C	1.077765	0.064152	0.062737
C55	C	0.643506	-0.435868	-0.437226
C56	C	1.143506	0.064132	0.062774
N57	N	0.441631	-0.494623	-0.412599
N58	N	0.941631	0.005377	0.087401
N59	N	0.379180	-0.494610	-0.412637
N60	N	0.879180	0.005390	0.087363
C61	C	0.346853	-0.502658	-0.504112
C62	C	0.846853	-0.002658	-0.004112
N63	N	0.379337	-0.510740	-0.595548
N64	N	0.879337	-0.010740	-0.095548
N65	N	0.441795	-0.510758	-0.595509
N66	N	0.941795	-0.010758	-0.095509
C67	C	0.473642	-0.502695	-0.504035
C68	C	0.973642	-0.002695	-0.004035
C69	C	0.242738	-0.569497	-0.570902
C70	C	0.742738	-0.069497	-0.070902
C71	C	0.176995	-0.569464	-0.570950
C72	C	0.676995	-0.069464	-0.070950
C73	C	0.176923	-0.435714	-0.437498
C74	C	0.676923	0.064286	0.062502
C75	C	0.242665	-0.435742	-0.437459
C76	C	0.742665	0.064258	0.062541
C77	C	0.275569	-0.502639	-0.504159
C78	C	0.775569	-0.002639	-0.004159
C79	C	1.074120	-0.502607	-0.504194
C80	C	1.574120	-0.002607	-0.004194
C81	C	1.144089	-0.502584	-0.504246
C82	C	1.644089	-0.002584	-0.004246
C83	C	0.909953	-0.230091	-0.504092
C84	C	1.409953	0.269909	-0.004092
C85	C	0.909962	-0.113938	-0.504100
C86	C	1.409962	0.386062	-0.004100
C87	C	0.871684	-0.062226	-0.440565
C88	C	1.371684	0.437774	0.059435
C89	C	0.871693	0.057825	-0.440571
C90	C	1.371693	0.557825	0.059429
C91	C	0.909859	-0.502840	-0.232563
C92	C	1.409859	-0.002840	0.267437
C93	C	0.909936	-0.502654	-0.116410
C94	C	1.409936	-0.002654	0.383590
C95	C	0.871520	-0.439346	0.055394
C96	C	1.371520	0.060654	0.555394
C97	C	0.871441	-0.439537	-0.064656
C98	C	1.371441	0.060463	0.435344
H99	H	0.670367	-0.624100	-0.624973
H100	H	1.170367	-0.124100	-0.124973
H101	H	0.670236	-0.381417	-0.382883
H102	H	1.170236	0.118583	0.117117
F103	F	0.542892	-0.640771	-0.641736
F104	F	1.042892	-0.140771	-0.141736
H105	H	0.550965	-0.381393	-0.382954
H106	H	1.050965	0.118607	0.117046
F107	F	0.952804	-0.055643	-0.575212
F108	F	1.452804	0.444357	-0.075212
H109	H	0.838562	-0.385314	0.099915
H110	H	1.338562	0.114686	0.599915
F111	F	0.828289	-0.369084	-0.122887
F112	F	1.328289	0.130916	0.377113
F113	F	0.953158	-0.572936	0.049016
F114	F	1.453158	-0.072936	0.549016
F115	F	0.277759	-0.640689	-0.641894
F116	F	0.777759	-0.140689	-0.141894
F117	F	0.142055	-0.640628	-0.641987
F118	F	0.642055	-0.140628	-0.141987
H119	H	0.150127	-0.381256	-0.383191
H120	H	0.650127	0.118744	0.116809
F121	F	0.277606	-0.364578	-0.366429
F122	F	0.777606	0.135422	0.133571
H123	H	0.838904	-0.106829	-0.386168
H124	H	1.338904	0.393171	0.113832
F125	F	0.828861	0.115949	-0.369465
F126	F	1.328861	0.615949	0.130535
F127	F	0.952821	0.051558	-0.575212
F128	F	1.452821	0.551558	-0.075212
H129	H	0.942955	-0.556548	-0.071862
H130	H	1.442955	-0.056548	0.428138
