data_functionalizedCrystal
_audit_creation_method	'MofGen! by Chris Wilmer'
_symmetry_space_group_name_H-M	'P1'
_symmetry_Int_Tables_number	1
_symmetry_cell_setting	triclinic
loop_
_symmetry_equiv_pos_as_xyz
  x,y,z
_cell_length_a	21.295420
_cell_length_b	21.295417
_cell_length_c	18.050583
_cell_angle_alpha	89.960588
_cell_angle_beta	89.983938
_cell_angle_gamma	90.025484
loop_
_atom_site_label
_atom_site_type_symbol
_atom_site_fract_x
_atom_site_fract_y
_atom_site_fract_z
Zn1	Zn	0.962306	-0.250635	-0.419897
Zn2	Zn	0.962225	-0.355921	-0.295700
Zn3	Zn	0.857045	-0.250662	-0.295721
Zn4	Zn	0.857000	-0.355862	-0.419849
O5	O	0.909644	-0.303270	-0.357792
O6	O	1.050385	-0.264615	-0.403434
O7	O	0.948258	-0.341995	-0.191778
O8	O	0.871060	-0.162569	-0.312222
O9	O	1.050325	-0.341968	-0.312187
O10	O	0.948395	-0.162549	-0.403454
O11	O	0.870982	-0.264661	-0.191794
O12	O	0.768949	-0.264604	-0.312175
O13	O	0.870984	-0.341868	-0.523780
O14	O	0.768917	-0.341894	-0.403371
O15	O	0.948352	-0.264558	-0.523815
O16	O	0.948215	-0.444003	-0.312140
O17	O	0.870906	-0.443960	-0.403351
C18	C	0.746092	-0.303246	-0.357771
C19	C	0.676124	-0.303251	-0.357780
C20	C	0.176696	-0.263087	-0.405392
C21	C	0.242439	-0.263082	-0.405392
C22	C	0.275285	-0.303289	-0.357809
C23	C	0.242383	-0.343515	-0.310236
C24	C	0.176642	-0.343523	-0.310243
N25	N	0.378483	-0.308043	-0.292781
N26	N	0.440934	-0.308032	-0.292777
C27	C	0.473360	-0.303269	-0.357787
N28	N	0.440974	-0.298505	-0.422804
N29	N	0.378517	-0.298513	-0.422807
C30	C	0.346570	-0.303285	-0.357797
C31	C	0.577539	-0.263043	-0.405361
C32	C	0.643283	-0.263043	-0.405362
C33	C	0.643226	-0.343473	-0.310199
C34	C	0.577483	-0.343476	-0.310205
C35	C	0.544644	-0.303258	-0.357785
C36	C	0.909564	-0.466822	-0.357754
C37	C	0.909587	-0.536790	-0.357763
C38	C	0.949832	-0.569589	-0.405301
C39	C	0.949855	-0.635331	-0.405320
C40	C	0.909638	-0.668272	-0.357786
C41	C	0.869385	-0.635465	-0.310245
C42	C	0.869360	-0.569724	-0.310233
N43	N	0.904887	-0.771542	-0.292792
N44	N	0.904915	-0.833994	-0.292805
C45	C	0.909712	-0.866347	-0.357820
N46	N	0.914492	-0.833890	-0.422822
N47	N	0.914467	-0.771432	-0.422808
C48	C	0.909661	-0.739558	-0.357794
C49	C	0.949983	-0.970432	-0.405382
C50	C	0.950001	-1.036175	-0.405402
C51	C	0.869535	-1.036308	-0.310320
C52	C	0.869514	-0.970566	-0.310307
C53	C	0.909741	-0.937631	-0.357837
C54	C	1.073834	-0.303295	-0.357813
C55	C	1.143802	-0.303305	-0.357823
C56	C	0.909672	-0.303203	-0.551498
C57	C	0.909684	-0.303174	-0.634043
C58	C	0.909742	-0.139080	-0.357846
C59	C	0.909783	-0.069112	-0.357869
C60	C	0.951798	-0.261113	-0.833514
C61	C	0.894386	-0.245702	-0.882909
C62	C	0.909709	-0.303164	-0.785174
C63	C	0.967145	-0.318535	-0.882860
C64	C	0.909738	-0.303152	-0.931159
C65	C	0.852266	-0.287723	-0.833482
C66	C	0.925063	-0.360582	-0.833429
C67	C	0.867611	-0.345193	-0.882802
C68	C	0.909693	-0.303169	-0.701076
C69	C	0.909748	-0.303147	-1.015256
C70	C	0.909653	-0.303292	-0.164840
C71	C	0.909763	-0.303143	-0.082294
H72	H	0.550700	-0.376223	-0.271465
C73	C	0.278084	-0.219451	-0.457161
C74	C	0.262104	-0.233211	-0.530615
C75	C	0.294920	-0.193026	-0.578322
H76	H	0.321950	-0.225168	-0.450440
H77	H	0.267309	-0.177136	-0.446423
H78	H	0.272883	-0.275515	-0.541348
H79	H	0.218244	-0.227490	-0.537358
H80	H	0.284144	-0.150711	-0.567585
H81	H	0.338784	-0.198746	-0.571595
H82	H	0.284077	-0.202353	-0.628165
H83	H	0.982586	-0.542776	-0.444005
C84	C	0.942345	-0.425281	-0.804275
C85	C	0.941518	-0.424556	-0.726720
C86	C	0.957435	-0.484147	-0.699837
H87	H	0.983177	-0.436211	-0.821071
H88	H	0.912861	-0.455267	-0.821844
H89	H	0.971002	-0.394579	-0.709158
H90	H	0.900693	-0.413637	-0.709904
H91	H	0.927950	-0.514133	-0.717406
H92	H	0.998265	-0.495072	-0.716638
H93	H	0.956870	-0.483664	-0.647213
H94	H	1.015705	-0.331539	-0.904552
C95	C	0.993770	-1.071675	-0.457044
C96	C	1.029005	-1.028758	-0.498646
C97	C	1.069339	-1.061438	-0.546218
H98	H	0.969757	-1.097320	-0.489451
H99	H	1.021252	-1.097305	-0.428680
H100	H	1.001525	-1.003139	-0.527008
H101	H	1.053030	-1.003112	-0.466258
H102	H	1.096821	-1.087068	-0.517855
H103	H	1.045321	-1.087081	-0.578621
H104	H	1.093254	-1.032324	-0.574446
H105	H	0.269130	-0.376254	-0.271495
H106	H	0.831989	-0.380749	-0.904308
C107	C	0.825689	-0.533996	-0.258695
C108	C	0.834266	-0.469373	-0.268869
C109	C	0.794043	-0.436440	-0.221410
H110	H	0.834891	-0.544723	-0.208778
H111	H	0.783378	-0.544759	-0.269528
H112	H	0.876568	-0.458615	-0.258030
H113	H	0.825059	-0.458628	-0.318775
H114	H	0.751732	-0.447203	-0.232244
H115	H	0.803248	-0.447172	-0.171496
H116	H	0.799853	-0.392590	-0.228312
H117	H	0.881408	-0.197139	-0.904644
C118	C	0.993613	-0.670838	-0.456972
C119	C	1.028842	-0.627925	-0.498586
C120	C	1.069161	-0.660609	-0.546173
H121	H	0.969589	-0.696480	-0.489371
H122	H	1.021100	-0.696472	-0.428618
H123	H	1.001359	-0.602303	-0.526938
H124	H	1.052879	-0.602282	-0.466206
H125	H	1.096648	-0.686242	-0.517819
H126	H	1.045132	-0.686249	-0.578567
H127	H	1.093073	-0.631497	-0.574409
C128	C	0.999273	-0.213717	-0.804749
C129	C	1.059172	-0.229359	-0.830854
C130	C	1.102916	-0.185707	-0.804378
H131	H	0.999281	-0.214280	-0.752129
H132	H	0.988311	-0.172928	-0.821715
H133	H	1.070131	-0.270137	-0.813884
H134	H	1.059185	-0.228791	-0.883471
H135	H	1.091953	-0.144919	-0.821344
H136	H	1.102917	-0.186274	-0.751759
H137	H	1.143561	-0.196311	-0.822092
C138	C	0.825790	-0.671340	-0.258665
C139	C	0.834438	-0.735935	-0.268834
C140	C	0.794291	-0.769001	-0.221326
H141	H	0.783459	-0.660671	-0.269440
H142	H	0.835030	-0.660629	-0.208758
H143	H	0.825193	-0.746641	-0.318730
H144	H	0.876760	-0.746622	-0.258054
H145	H	0.803532	-0.758290	-0.171420
H146	H	0.751963	-0.758326	-0.232105
H147	H	0.800157	-0.812831	-0.228215
C148	C	0.787548	-0.270284	-0.804545
C149	C	0.788299	-0.270453	-0.726984
C150	C	0.728697	-0.254381	-0.700300
H151	H	0.757584	-0.299938	-0.821737
H152	H	0.776577	-0.229602	-0.821857
H153	H	0.799262	-0.311128	-0.709679
H154	H	0.818251	-0.240797	-0.709773
H155	H	0.717726	-0.213699	-0.717612
H156	H	0.698738	-0.284037	-0.717496
H157	H	0.729200	-0.254488	-0.647673
H158	H	0.836786	-1.063128	-0.271623
C159	C	0.140965	-0.219532	-0.457102
C160	C	0.103217	-0.255223	-0.504620
C161	C	0.070286	-0.215123	-0.552261
H162	H	0.169904	-0.195566	-0.485504
H163	H	0.115281	-0.192089	-0.428778
H164	H	0.128899	-0.282655	-0.532942
H165	H	0.074266	-0.279188	-0.476239
H166	H	0.044602	-0.187681	-0.523937
H167	H	0.099230	-0.191159	-0.580658
H168	H	0.044666	-0.239334	-0.584503
C169	C	0.993547	-0.934586	-0.457033
C170	C	0.957861	-0.896825	-0.504569
C171	C	0.997969	-0.863791	-0.552153
H172	H	1.017531	-0.963464	-0.485426
H173	H	1.020971	-0.908903	-0.428669
H174	H	0.930448	-0.922506	-0.532930
H175	H	0.933878	-0.867936	-0.476196
H176	H	1.025394	-0.838107	-0.523789
H177	H	1.021952	-0.892673	-0.580541
H178	H	0.973763	-0.838162	-0.584407
H179	H	0.149859	-0.376275	-0.271504
H180	H	0.836745	-0.943859	-0.271594
H181	H	0.670064	-0.230294	-0.444105
C182	C	0.541912	-0.219466	-0.457149
C183	C	0.557906	-0.233255	-0.530597
C184	C	0.525094	-0.193132	-0.578325
H185	H	0.552669	-0.177136	-0.446471
H186	H	0.498041	-0.225235	-0.450386
H187	H	0.601767	-0.227481	-0.537357
H188	H	0.547147	-0.275578	-0.541298
H189	H	0.481223	-0.198901	-0.571563
H190	H	0.535854	-0.150805	-0.567641
H191	H	0.535937	-0.202486	-0.628166
C192	C	0.678765	-0.387196	-0.258508
C193	C	0.635882	-0.422429	-0.216858
C194	C	0.668601	-0.462722	-0.169240
H195	H	0.704412	-0.363154	-0.226133
H196	H	0.704396	-0.414682	-0.286841
H197	H	0.610262	-0.394947	-0.188527
H198	H	0.610234	-0.446484	-0.249213
H199	H	0.694232	-0.490208	-0.197573
H200	H	0.694247	-0.438675	-0.136870
H201	H	0.639510	-0.486637	-0.140980
