data_functionalizedCrystal
_audit_creation_method	'MofGen! by Chris Wilmer'
_symmetry_space_group_name_H-M	'P1'
_symmetry_Int_Tables_number	1
_symmetry_cell_setting	triclinic
loop_
_symmetry_equiv_pos_as_xyz
  x,y,z
_cell_length_a	12.759401
_cell_length_b	12.759399
_cell_length_c	12.759393
_cell_angle_alpha	90.028363
_cell_angle_beta	89.981433
_cell_angle_gamma	89.985425
loop_
_atom_site_label
_atom_site_type_symbol
_atom_site_fract_x
_atom_site_fract_y
_atom_site_fract_z
Zn1	Zn	1.606249	0.418231	-0.594007
Zn2	Zn	1.606141	0.593950	-0.418337
Zn3	Zn	1.430551	0.418283	-0.418346
Zn4	Zn	1.430537	0.593866	-0.593978
O5	O	1.518370	0.506082	-0.506167
O6	O	1.753256	0.441554	-0.570712
O7	O	1.582809	0.570704	-0.271317
O8	O	1.453909	0.271255	-0.441664
O9	O	1.753176	0.570654	-0.441648
O10	O	1.582994	0.271217	-0.570721
O11	O	1.453804	0.441642	-0.271324
O12	O	1.283528	0.441560	-0.441636
O13	O	1.453885	0.570511	-0.741003
O14	O	1.283518	0.570561	-0.570672
O15	O	1.582980	0.441473	-0.741024
O16	O	1.582796	0.740960	-0.441620
O17	O	1.453780	0.740898	-0.570663
C18	C	1.245402	0.506058	-0.506152
C19	C	1.128626	0.506072	-0.506171
C20	C	1.073798	0.438977	-0.573479
C21	C	0.964074	0.438997	-0.573485
C22	C	0.964015	0.573217	-0.438873
C23	C	1.073737	0.573191	-0.438862
C24	C	1.128687	0.371858	-0.640787
C25	C	1.073859	0.304758	-0.708101
C26	C	0.964135	0.304778	-0.708108
C27	C	0.909239	0.371899	-0.640800
C28	C	1.518303	0.779050	-0.506160
C29	C	1.518371	0.895826	-0.506192
C30	C	1.585623	0.950686	-0.439077
C31	C	1.585686	1.060410	-0.439116
C32	C	1.451236	1.060405	-0.573388
C33	C	1.451179	0.950683	-0.573354
C34	C	1.652815	0.895829	-0.371916
C35	C	1.720072	0.950688	-0.304794
C36	C	1.720135	1.060412	-0.304833
C37	C	1.652941	1.115277	-0.371993
C38	C	1.792403	0.506108	-0.506182
C39	C	1.909180	0.506119	-0.506189
C40	C	1.518443	0.505976	-0.780200
C41	C	1.518475	0.505931	-0.896977
C42	C	1.518461	1.232049	-0.506210
C43	C	1.518491	1.115272	-0.506265
C44	C	1.585704	0.438735	-0.951852
C45	C	1.585729	0.438697	-1.061576
C46	C	1.451293	0.573061	-1.061541
C47	C	1.451263	0.573093	-0.951819
C48	C	1.652915	0.371573	-0.897010
C49	C	1.720150	0.304372	-0.951885
C50	C	1.720175	0.304334	-1.061609
C51	C	1.652965	0.371497	-1.116458
C52	C	1.518357	0.506112	-0.233199
C53	C	1.518529	0.505861	-0.116423
H54	H	0.919497	0.250135	-0.762911
H55	H	1.118563	0.250105	-0.762894
H56	H	1.652978	0.371449	-1.205803
H57	H	1.653006	1.204622	-0.372027
F58	F	1.379709	0.644610	-0.893414
F59	F	1.379771	0.644538	-1.119919
F60	F	1.652897	0.371611	-0.780232
F61	F	1.245464	0.371835	-0.640790
F62	F	1.791732	0.232815	-1.120008
F63	F	0.792459	0.371907	-0.640801
H64	H	0.919310	0.627865	-0.384077
H65	H	1.652769	0.806486	-0.371874
H66	H	1.774785	0.906012	-0.250121
F67	F	1.132092	0.644609	-0.367233
H68	H	1.774906	1.105076	-0.250187
F69	F	1.379727	1.118800	-0.644857
H70	H	1.396417	0.906016	-0.628006
H71	H	1.774864	0.249684	-0.907219
