data_functionalizedCrystal
_audit_creation_method	'MofGen! by Chris Wilmer'
_symmetry_space_group_name_H-M	'P1'
_symmetry_Int_Tables_number	1
_symmetry_cell_setting	triclinic
loop_
_symmetry_equiv_pos_as_xyz
  x,y,z
_cell_length_a	25.639242
_cell_length_b	25.639240
_cell_length_c	16.120256
_cell_angle_alpha	92.863576
_cell_angle_beta	92.870378
_cell_angle_gamma	90.027658
loop_
_atom_site_label
_atom_site_type_symbol
_atom_site_fract_x
_atom_site_fract_y
_atom_site_fract_z
Zn1	Zn	0.784283	-0.223237	-0.471504
Zn2	Zn	0.788640	-0.306234	-0.332071
Zn3	Zn	0.701284	-0.218807	-0.332090
Zn4	Zn	0.696816	-0.310632	-0.471415
O5	O	0.742756	-0.264728	-0.401770
O6	O	0.858025	-0.234259	-0.453038
O7	O	0.780746	-0.290942	-0.215412
O8	O	0.712340	-0.146231	-0.350629
O9	O	0.861227	-0.295237	-0.350597
O10	O	0.773319	-0.149485	-0.453056
O11	O	0.716565	-0.226710	-0.215426
O12	O	0.627527	-0.230975	-0.350542
O13	O	0.704725	-0.302733	-0.588089
O14	O	0.624244	-0.298438	-0.452904
O15	O	0.768987	-0.238524	-0.588154
O16	O	0.776414	-0.379981	-0.350511
O17	O	0.708951	-0.383213	-0.452886
C18	C	0.606915	-0.264704	-0.401716
C19	C	0.548801	-0.264707	-0.401713
C20	C	0.299303	-0.229546	-0.348563
C21	C	0.353908	-0.229541	-0.348552
O22	O	0.383587	-0.199614	-0.303315
N23	N	0.379526	-0.264715	-0.401755
C24	C	0.350536	-0.299892	-0.454977
O25	O	0.377340	-0.329809	-0.500229
C26	C	0.295932	-0.299894	-0.454991
C27	C	0.270317	-0.264722	-0.401779
C28	C	0.273688	-0.194377	-0.295356
C29	C	0.219087	-0.194383	-0.295365
C30	C	0.190101	-0.229558	-0.348582
C31	C	0.215716	-0.264728	-0.401789
C32	C	0.266943	-0.335068	-0.508217
C33	C	0.212336	-0.335067	-0.508227
C34	C	0.186721	-0.299895	-0.455015
C35	C	0.132130	-0.299909	-0.455015
N36	N	0.106512	-0.264736	-0.401813
C37	C	0.135498	-0.229561	-0.348596
C38	C	0.465208	-0.299884	-0.454944
C39	C	0.519810	-0.299884	-0.454926
C40	C	0.523178	-0.229533	-0.348502
C41	C	0.468575	-0.229535	-0.348517
C42	C	0.439590	-0.264710	-0.401742
C43	C	0.020832	-0.229576	-0.348620
C44	C	-0.033774	-0.229587	-0.348632
C45	C	-0.037137	-0.299936	-0.455059
C46	C	0.017464	-0.299927	-0.455044
C47	C	0.046447	-0.264743	-0.401822
O48	O	0.102416	-0.329820	-0.500232
O49	O	0.108686	-0.199644	-0.303359
C50	C	0.742684	-0.400568	-0.401705
C51	C	0.742700	-0.458682	-0.401705
C52	C	0.774521	-0.820706	-0.455200
C53	C	0.774536	-0.875311	-0.455217
O54	O	0.801505	-0.904958	-0.500634
N55	N	0.742826	-0.900969	-0.401851
C56	C	0.711094	-0.872020	-0.348470
O57	O	0.684123	-0.898858	-0.303080
C58	C	0.711077	-0.817416	-0.348458
C59	C	0.742793	-0.791761	-0.401822
C60	C	0.806234	-0.795051	-0.508561
C61	C	0.806220	-0.740450	-0.508542
C62	C	0.774492	-0.711504	-0.455164
C63	C	0.742779	-0.737160	-0.401804
C64	C	0.679344	-0.788468	-0.295082
C65	C	0.679329	-0.733860	-0.295075
C66	C	0.711045	-0.708205	-0.348439
C67	C	0.711037	-0.653613	-0.348407
N68	N	0.742748	-0.627955	-0.401773
C69	C	0.774475	-0.656900	-0.455152
C70	C	0.711133	-0.986691	-0.348501
C71	C	0.711152	-1.041294	-0.348508
C72	C	0.774593	-1.044582	-0.455257
C73	C	0.774576	-0.989978	-0.455244
C74	C	0.742843	-0.961033	-0.401867
C75	C	0.774443	-0.542234	-0.455109
C76	C	0.774428	-0.487628	-0.455083
C77	C	0.710985	-0.484345	-0.348338
C78	C	0.711002	-0.538946	-0.348360
C79	C	0.742733	-0.567890	-0.401752
O80	O	0.684080	-0.623932	-0.303016
O81	O	0.801437	-0.630055	-0.500542
C82	C	0.879127	-0.264752	-0.401825
C83	C	0.937240	-0.264762	-0.401849
C84	C	0.735872	-0.271613	-0.619216
C85	C	0.732938	-0.274548	-0.711879
C86	C	0.742841	-0.128357	-0.401854
C87	C	0.742878	-0.070244	-0.401890
C88	C	0.758053	-0.249412	-0.922853
C89	C	0.727565	-0.279884	-0.881529
C90	C	0.730555	-0.276914	-0.787127
C91	C	0.755063	-0.252381	-1.017264
C92	C	0.749643	-0.257831	-0.185170
C93	C	0.752678	-0.254749	-0.092508
H94	H	0.198236	-0.165742	-0.252035
C95	C	0.648442	-1.032546	-0.242993
C96	C	0.676292	-1.069490	-0.289843
H97	H	0.626917	-1.049953	-0.206782
H98	H	0.672243	-1.010236	-0.211140
H99	H	0.627273	-1.012398	-0.279287
H100	H	0.697464	-1.089635	-0.253550
H101	H	0.652488	-1.091809	-0.321699
C102	C	0.082611	-0.158856	-0.337218
C103	C	0.052683	-0.190903	-0.290113
H104	H	0.102272	-0.134981	-0.301093
H105	H	0.105687	-0.179796	-0.368891
H106	H	0.060170	-0.140049	-0.373607
H107	H	0.075125	-0.209714	-0.253728
H108	H	0.029605	-0.169960	-0.258425
C109	C	0.693717	-0.313709	-1.015066
C110	C	0.689305	-0.318124	-0.929473
H111	H	0.670103	-0.337321	-1.044665
H112	H	0.685635	-0.279024	-1.029293
H113	H	0.728405	-0.321796	-1.029290
H114	H	0.654618	-0.310033	-0.915248
H115	H	0.697384	-0.352816	-0.915240
H116	H	0.188739	-0.363710	-0.551574
C117	C	0.358884	-0.163125	-0.248058
C118	C	0.305544	-0.155709	-0.236851
H119	H	0.378546	-0.139251	-0.211936
H120	H	0.368203	-0.197848	-0.235747
H121	H	0.366077	-0.157296	-0.304092
H122	H	0.298350	-0.161542	-0.180818
H123	H	0.296221	-0.120978	-0.249156
H124	H	0.832070	-0.818613	-0.552033
H125	H	0.800277	-0.565794	-0.498592
C126	C	0.648291	-0.530209	-0.242845
C127	C	0.676141	-0.567150	-0.289701
H128	H	0.626764	-0.547619	-0.206639
H129	H	0.672091	-0.507902	-0.210985
H130	H	0.627123	-0.510058	-0.279135
H131	H	0.697312	-0.587298	-0.253410
H132	H	0.652338	-0.589465	-0.321563
H133	H	0.685154	-0.460769	-0.304875
H134	H	0.786399	-0.221096	-0.887336
H135	H	0.447723	-0.200893	-0.305190
C136	C	-0.024952	-0.160043	-0.243436
C137	C	-0.061929	-0.190920	-0.290142
H138	H	-0.042334	-0.136171	-0.207333
H139	H	-0.002661	-0.181778	-0.211475
H140	H	-0.004789	-0.141233	-0.279829
H141	H	-0.082089	-0.209734	-0.253749
H142	H	-0.084229	-0.169183	-0.322106
H143	H	0.546789	-0.200890	-0.305172
C144	C	0.510983	-0.369422	-0.560123
C145	C	0.547963	-0.338550	-0.513414
H146	H	0.528363	-0.393289	-0.596237
H147	H	0.490824	-0.388233	-0.523739
H148	H	0.488689	-0.347679	-0.592080
H149	H	0.570255	-0.360292	-0.481452
H150	H	0.568131	-0.319737	-0.549802
H151	H	0.287789	-0.363709	-0.551548
C152	C	0.400284	-0.310824	-0.567089
C153	C	0.433350	-0.338557	-0.513447
H154	H	0.380621	-0.334700	-0.603208
H155	H	0.377211	-0.289885	-0.535409
H156	H	0.420597	-0.289087	-0.599039
H157	H	0.413036	-0.360292	-0.481492
H158	H	0.456425	-0.359506	-0.545130
C159	C	0.008647	-0.369464	-0.560245
C160	C	0.045623	-0.338589	-0.513534
H161	H	0.026029	-0.393327	-0.596363
H162	H	-0.011509	-0.388281	-0.523863
H163	H	-0.013651	-0.347724	-0.592199
H164	H	0.067919	-0.360329	-0.481575
H165	H	0.065788	-0.319771	-0.549921
C166	C	-0.122341	-0.331167	-0.502328
C167	C	-0.069006	-0.338597	-0.513557
H168	H	-0.142016	-0.355031	-0.538450
H169	H	-0.129528	-0.336995	-0.446300
H170	H	-0.131652	-0.296436	-0.514632
H171	H	-0.059694	-0.373327	-0.501247
H172	H	-0.061816	-0.332773	-0.569598
C173	C	0.675645	-0.668950	-0.182900
C174	C	0.644447	-0.702045	-0.236398
H175	H	0.654109	-0.649308	-0.146680
H176	H	0.699450	-0.689238	-0.151058
H177	H	0.694526	-0.645855	-0.214684
H178	H	0.625568	-0.725143	-0.204615
H179	H	0.620632	-0.681756	-0.268243
C180	C	0.809858	-0.682558	-0.620689
C181	C	0.841078	-0.712254	-0.567211
H182	H	0.831380	-0.665153	-0.656908
H183	H	0.786061	-0.704876	-0.652533
H184	H	0.790967	-0.657500	-0.588891
H185	H	0.859967	-0.737316	-0.599009
H186	H	0.864884	-0.689934	-0.535364
H187	H	0.800402	-0.969093	-0.498698
C188	C	0.795348	-0.475218	-0.596293
C189	C	0.809289	-0.459427	-0.513749
H190	H	0.816866	-0.457807	-0.632509
H191	H	0.799898	-0.511876	-0.603935
H192	H	0.759824	-0.466672	-0.608419
H193	H	0.844811	-0.467977	-0.501622
H194	H	0.804743	-0.422761	-0.506104
C195	C	0.778258	-1.109496	-0.567429
C196	C	0.809466	-1.076405	-0.513941
H197	H	0.799786	-1.129140	-0.603658
H198	H	0.759378	-1.132585	-0.535644
H199	H	0.754450	-1.089202	-0.599269
H200	H	0.833271	-1.096698	-0.482096
H201	H	0.828354	-1.053313	-0.545729
C202	C	0.641153	-0.924981	-0.336762
C203	C	0.676254	-0.954878	-0.289814
H204	H	0.619619	-0.905346	-0.300531
H205	H	0.660034	-0.901884	-0.368531
H206	H	0.619996	-0.947441	-0.373055
H207	H	0.697414	-0.932418	-0.253525
H208	H	0.657371	-0.977977	-0.258031
H209	H	0.653517	-0.809347	-0.251627
