data_functionalizedCrystal
_audit_creation_method	'MofGen! by Chris Wilmer'
_symmetry_space_group_name_H-M	'P1'
_symmetry_Int_Tables_number	1
_symmetry_cell_setting	triclinic
loop_
_symmetry_equiv_pos_as_xyz
  x,y,z
_cell_length_a	6.817900
_cell_length_b	17.284796
_cell_length_c	16.015572
_cell_angle_alpha	74.520630
_cell_angle_beta	104.485554
_cell_angle_gamma	103.042616
loop_
_atom_site_label
_atom_site_type_symbol
_atom_site_fract_x
_atom_site_fract_y
_atom_site_fract_z
V1	V	-3.989851	-0.032421	-0.267205
V2	V	-3.489851	0.467579	0.232795
O3	O	-3.984272	0.082635	-0.269842
O4	O	-3.484272	0.582635	0.230158
O5	O	-3.935653	-0.142261	-0.257950
O6	O	-3.435653	0.357739	0.242050
O7	O	-3.928075	0.003653	-0.387131
O8	O	-3.428075	0.503653	0.112869
O9	O	-3.991902	-0.064290	-0.139766
O10	O	-3.491902	0.435710	0.360234
V11	V	-4.475964	-0.022862	-0.252865
V12	V	-3.975964	0.477138	0.247135
O13	O	-4.245429	-0.053388	-0.298662
O14	O	-3.745429	0.446612	0.201338
O15	O	-4.670583	-0.001895	-0.221408
O16	O	-4.170583	0.498105	0.278592
O17	O	-4.306955	0.086979	-0.262120
O18	O	-3.806955	0.586979	0.237880
O19	O	-4.598940	-0.137917	-0.250228
O20	O	-4.098940	0.362083	0.249772
O21	O	-4.591309	0.009007	-0.380304
O22	O	-4.091309	0.509007	0.119696
O23	O	-4.314533	-0.058936	-0.132939
O24	O	-3.814533	0.441064	0.367061
C25	C	-3.779677	-0.170150	-0.251818
C26	C	-3.279677	0.329850	0.248182
C27	C	-3.816561	-0.259717	-0.245050
C28	C	-3.316561	0.240283	0.254950
C29	C	-4.020748	-0.765145	-0.198298
C30	C	-3.520748	-0.265145	0.301702
C31	C	-3.986107	-0.680986	-0.204672
C32	C	-3.486107	-0.180986	0.295328
C33	C	-3.999359	-0.627252	-0.287771
C34	C	-3.499359	-0.127252	0.212229
C35	C	-4.047237	-0.657682	-0.364501
C36	C	-3.547237	-0.157682	0.135499
C37	C	-4.081863	-0.741840	-0.358126
C38	C	-3.581863	-0.241840	0.141874
C39	C	-3.899065	-0.374305	-0.315405
C40	C	-3.399065	0.125695	0.184595
C41	C	-3.864440	-0.290141	-0.321775
C42	C	-3.364440	0.209859	0.178225
C43	C	-3.803308	-0.313451	-0.161944
C44	C	-3.303308	0.186549	0.338056
C45	C	-3.837950	-0.397610	-0.155577
C46	C	-3.337950	0.102390	0.344423
C47	C	-3.885814	-0.428032	-0.232307
C48	C	-3.385814	0.071968	0.267693
N49	N	-3.963957	-0.541227	-0.294288
N50	N	-3.463957	-0.041227	0.205712
N51	N	-3.921200	-0.514056	-0.225789
N52	N	-3.421200	-0.014056	0.274211
C53	C	-3.770009	0.015980	-0.416600
C54	C	-3.270009	0.515980	0.083400
C55	C	-3.800745	0.044747	-0.514592
C56	C	-3.300745	0.544747	-0.014592
C57	C	-4.075902	-0.210593	-0.874993
C58	C	-3.575902	0.289407	-0.374993
C59	C	-4.104789	-0.183536	-0.967068
C60	C	-3.604789	0.316464	-0.467068
C61	C	-4.035190	-0.043549	-0.951808
C62	C	-3.535190	0.456451	-0.451808
C63	C	-4.006286	-0.070595	-0.859730
C64	C	-3.506286	0.429405	-0.359730
C65	C	-4.026648	-0.154118	-0.821329
C66	C	-3.526648	0.345882	-0.321329
C67	C	-3.957032	-0.014119	-0.806066
C68	C	-3.457032	0.485881	-0.306066
C69	C	-3.928142	-0.041163	-0.713996
C70	C	-3.428142	0.458837	-0.213996
C71	C	-3.948505	-0.124683	-0.675589
C72	C	-3.448505	0.375317	-0.175589
C73	C	-3.997757	-0.181162	-0.729259
C74	C	-3.497757	0.318838	-0.229259
C75	C	-3.936686	0.069404	-0.844469
C76	C	-3.436686	0.569404	-0.344469
C77	C	-3.887432	0.125879	-0.790805
C78	C	-3.387432	0.625879	-0.290805
C79	C	-3.858526	0.098835	-0.698733
C80	C	-3.358526	0.598835	-0.198733
C81	C	-3.878890	0.015316	-0.660326
C82	C	-3.378890	0.515316	-0.160326
C83	C	-3.809274	0.155314	-0.645062
C84	C	-3.309274	0.655314	-0.145062
C85	C	-3.780383	0.128270	-0.552992
C86	C	-3.280383	0.628270	-0.052992
C87	C	-3.849999	-0.011728	-0.568255
C88	C	-3.349999	0.488272	-0.068255
C89	C	-4.126274	0.114862	-0.268249
C90	C	-3.626274	0.614862	0.231751
C91	C	-4.068627	0.204430	-0.275022
C92	C	-3.568627	0.704430	0.224978
C93	C	-4.135942	-0.071266	-0.103464
C94	C	-3.635942	0.428734	0.396536
C95	C	-4.084444	-0.100030	-0.005472
C96	C	-3.584444	0.399970	0.494528
H97	H	-3.866552	-0.079741	-0.536987
H98	H	-3.366552	0.420259	-0.036987
H99	H	-4.144888	-0.229531	-1.010759
H100	H	-3.644888	0.270469	-0.510759
O101	O	-4.133523	-0.774655	-0.440883
O102	O	-3.633523	-0.274655	0.059117
H103	H	-4.155358	-0.842202	-0.422490
H104	H	-3.655358	-0.342202	0.077510
O105	O	-3.823622	-0.455558	-0.065944
O106	O	-3.323622	0.044442	0.434056
H107	H	-3.937936	-0.447111	-0.031920
H108	H	-3.437936	0.052889	0.468080
O109	O	-3.751643	-0.280638	-0.079188
O110	O	-3.251643	0.219362	0.420812
H111	H	-3.870020	-0.244970	-0.081341
H112	H	-3.370020	0.255030	0.418659
O113	O	-3.878713	-0.232180	-0.411406
O114	O	-3.378713	0.267820	0.088594
H115	H	-3.917791	-0.267472	-0.463691
H116	H	-3.417791	0.232528	0.036309
O117	O	-3.950729	-0.407115	-0.398160
O118	O	-3.450729	0.092885	0.101840
H119	H	-3.954158	-0.355610	-0.457013
H120	H	-3.454158	0.144390	0.042987
O121	O	-4.013200	0.046535	-0.993225
O122	O	-3.513200	0.546535	-0.493225
H123	H	-4.160311	0.060178	-1.037960
H124	H	-3.660311	0.560178	-0.537960
H125	H	-4.058012	-0.613925	-0.432162
H126	H	-3.558012	-0.113925	0.067838
O127	O	-3.865442	0.215963	-0.832222
O128	O	-3.365442	0.715963	-0.332222
H129	H	-4.012553	0.229606	-0.876957
H130	H	-3.512553	0.729606	-0.376957
O131	O	-3.917323	-0.153860	-0.576283
O132	O	-3.417323	0.346140	-0.076283
H133	H	-4.030290	-0.132812	-0.551848
H134	H	-3.530290	0.367188	-0.051848
H135	H	-4.014311	-0.249174	-0.697991
H136	H	-3.514311	0.250826	-0.197991
H137	H	-4.092455	-0.278606	-0.843725
H138	H	-3.592455	0.221394	-0.343725
H139	H	-3.960181	0.091421	-0.919438
H140	H	-3.460181	0.591421	-0.419438
O141	O	-3.787302	0.245398	-0.686481
O142	O	-3.287302	0.745398	-0.186481
H143	H	-3.934423	0.259033	-0.731213
H144	H	-3.434423	0.759033	-0.231213
O145	O	-4.006440	-0.823100	-0.108669
O146	O	-3.506440	-0.323100	0.391331
H147	H	-3.967302	-0.787801	-0.056388
H148	H	-3.467302	-0.287801	0.443612
O149	O	-3.934417	-0.648166	-0.121919
O150	O	-3.434417	-0.148166	0.378081
H151	H	-3.931026	-0.699669	-0.063064
H152	H	-3.431026	-0.199669	0.436936
H153	H	-3.740277	0.174259	-0.509298
H154	H	-3.240277	0.674259	-0.009298
