data_functionalizedCrystal
_audit_creation_method	'MofGen! by Chris Wilmer'
_symmetry_space_group_name_H-M	'P1'
_symmetry_Int_Tables_number	1
_symmetry_cell_setting	triclinic
loop_
_symmetry_equiv_pos_as_xyz
  x,y,z
_cell_length_a	14.908571
_cell_length_b	25.639240
_cell_length_c	14.908694
_cell_angle_alpha	93.258804
_cell_angle_beta	83.592472
_cell_angle_gamma	86.728305
loop_
_atom_site_label
_atom_site_type_symbol
_atom_site_fract_x
_atom_site_fract_y
_atom_site_fract_z
Zn1	Zn	1.413233	-0.275253	-0.591411
Zn2	Zn	1.404368	-0.357333	-0.440018
Zn3	Zn	1.253139	-0.264559	-0.431350
Zn4	Zn	1.261800	-0.357293	-0.582616
O5	O	1.333135	-0.313609	-0.511349
O6	O	1.538722	-0.290633	-0.578637
O7	O	1.376973	-0.340568	-0.312204
O8	O	1.274461	-0.192817	-0.452636
O9	O	1.532209	-0.350938	-0.467408
O10	O	1.392081	-0.200673	-0.570232
O11	O	1.265865	-0.272407	-0.305836
O12	O	1.127623	-0.272368	-0.444108
O13	O	1.289222	-0.350868	-0.710447
O14	O	1.133986	-0.340499	-0.555242
O15	O	1.400479	-0.290594	-0.716909
O16	O	1.385371	-0.430489	-0.458880
O17	O	1.280627	-0.430459	-0.563646
C18	C	1.097962	-0.305269	-0.497780
C19	C	0.997355	-0.301714	-0.491997
C20	C	1.333003	-0.449445	-0.511270
C21	C	1.333031	-0.507560	-0.511272
C22	C	0.814969	-0.366078	-0.596699
C23	C	0.720440	-0.362740	-0.591268
C24	C	0.713766	-0.291697	-0.475711
C25	C	0.808295	-0.295036	-0.481141
C26	C	0.858893	-0.332228	-0.541636
C27	C	0.953424	-0.335568	-0.547062
C28	C	0.946748	-0.264524	-0.431510
C29	C	0.852219	-0.261185	-0.426079
C30	C	1.394415	-0.871986	-0.572687
C31	C	1.394442	-0.926592	-0.572707
O32	O	1.446477	-0.958276	-0.624843
N33	N	1.333266	-0.949856	-0.511443
C34	C	1.272051	-0.918511	-0.450162
O35	O	1.220017	-0.943313	-0.398055
C36	C	1.272020	-0.863906	-0.450147
C37	C	1.333207	-0.840645	-0.511409
C38	C	1.455596	-0.848725	-0.633944
C39	C	1.455569	-0.794123	-0.633923
C40	C	1.394361	-0.762782	-0.572645
C41	C	1.333180	-0.786043	-0.511387
C42	C	1.210801	-0.832562	-0.388871
C43	C	1.210775	-0.777953	-0.388861
C44	C	1.271962	-0.754693	-0.450123
C45	C	1.271945	-0.700100	-0.450088
N46	N	1.333121	-0.676836	-0.511351
C47	C	1.394330	-0.708177	-0.572630
C48	C	1.272120	-1.033185	-0.450199
C49	C	1.272155	-1.087789	-0.450209
C50	C	1.394546	-1.095866	-0.572755
C51	C	1.394515	-1.041262	-0.572741
C52	C	1.333297	-1.009921	-0.511463
C53	C	1.394269	-0.593508	-0.572580
C54	C	1.394239	-0.538901	-0.572551
C55	C	1.271846	-0.530828	-0.450008
C56	C	1.271879	-0.585431	-0.450033
C57	C	1.333093	-0.616770	-0.511327
O58	O	1.219935	-0.668383	-0.397981
O59	O	1.446346	-0.683368	-0.624736
C60	C	1.569227	-0.321983	-0.524971
C61	C	1.669835	-0.325551	-0.530775
C62	C	1.346806	-0.321920	-0.747438
C63	C	1.352632	-0.325461	-0.848046
C64	C	1.333293	-0.177245	-0.511449
C65	C	1.333361	-0.119135	-0.511491
C66	C	1.247861	-0.261140	-1.030467
C67	C	1.253332	-0.264465	-1.124997
C68	C	1.369038	-0.335439	-1.131635
C69	C	1.363568	-0.332114	-1.037106
C70	C	1.302978	-0.294962	-0.986525
C71	C	1.297512	-0.291635	-0.891994
C72	C	1.413214	-0.362611	-0.898635
C73	C	1.418685	-0.365937	-0.993164
C74	C	1.319569	-0.305296	-0.276181
C75	C	1.313919	-0.301613	-0.175584
H76	H	0.994620	-0.365852	-0.596319
C77	C	1.144266	-0.744017	-0.322229
C78	C	1.090708	-0.776080	-0.268575
C79	C	1.029441	-0.744838	-0.207176
H80	H	1.106707	-0.722536	-0.354433
H81	H	1.176601	-0.722560	-0.284755
H82	H	1.058376	-0.797528	-0.306044
H83	H	1.128243	-0.797561	-0.236350
H84	H	1.061776	-0.723381	-0.169702
H85	H	0.991888	-0.723358	-0.239389
H86	H	0.993100	-0.766588	-0.170759
C87	C	1.522104	-0.882811	-0.700336
C88	C	1.577205	-0.914406	-0.652492
C89	C	1.638485	-0.945813	-0.713621
H90	H	1.558619	-0.861193	-0.736836
H91	H	1.489776	-0.904310	-0.737748
H92	H	1.609531	-0.892909	-0.615096
H93	H	1.540716	-0.936035	-0.615995
H94	H	1.606157	-0.967313	-0.751033
H95	H	1.674992	-0.924192	-0.750118
H96	H	1.675872	-0.967258	-0.681168
C97	C	1.205414	-0.610761	-0.383659
C98	C	1.150348	-0.641874	-0.431525
C99	C	1.089113	-0.665218	-0.370416
H100	H	1.168871	-0.584330	-0.347131
H101	H	1.237776	-0.631931	-0.346273
H102	H	1.117988	-0.620705	-0.468896
H103	H	1.186866	-0.668313	-0.468050
H104	H	1.121476	-0.686388	-0.333030
H105	H	1.052577	-0.638784	-0.333891
H106	H	1.051750	-0.686334	-0.402884
H107	H	1.222013	-0.505302	-0.400113
H108	H	1.458097	-0.390150	-0.862847
C109	C	1.460774	-0.513619	-0.638926
C110	C	1.515872	-0.482524	-0.591066
C111	C	1.577178	-0.459234	-0.652179
H112	H	1.428496	-0.492442	-0.676354
H113	H	1.497280	-0.540093	-0.675412
H114	H	1.479371	-0.456054	-0.554596
H115	H	1.548171	-0.503688	-0.553642
H116	H	1.613684	-0.485708	-0.688666
H117	H	1.544892	-0.438060	-0.689604
H118	H	1.614575	-0.438138	-0.619716
H119	H	1.198535	-0.230885	-0.989284
H120	H	0.684681	-0.390303	-0.636108
H121	H	1.248181	-0.261382	-0.850813
C122	C	1.193448	-0.227678	-1.172541
C123	C	1.139235	-0.194424	-1.108009
C124	C	1.084064	-0.160523	-1.151773
H125	H	1.156043	-0.247516	-1.207126
H126	H	1.230211	-0.207392	-1.211410
H127	H	1.102476	-0.214707	-1.069155
H128	H	1.176616	-0.174575	-1.073420
H129	H	1.120827	-0.140238	-1.190642
H130	H	1.046665	-0.180365	-1.186357
H131	H	1.047280	-0.137953	-1.107995
H132	H	1.418355	-0.365693	-1.172834
H133	H	0.811010	-0.230903	-0.376828
C134	C	1.460828	-0.627439	-0.639170
C135	C	1.514408	-0.595371	-0.692791
C136	C	1.575740	-0.626608	-0.754134
H137	H	1.428570	-0.648910	-0.676678
H138	H	1.498358	-0.648905	-0.606893
H139	H	1.476883	-0.573913	-0.725066
H140	H	1.546685	-0.573900	-0.655308
H141	H	1.613270	-0.648075	-0.721857
H142	H	1.543475	-0.648078	-0.791636
H143	H	1.612107	-0.604855	-0.790518
H144	H	0.856167	-0.396364	-0.645951
H145	H	1.222340	-1.106723	-0.400314
H146	H	1.468012	-0.396186	-1.034359
H147	H	0.672553	-0.261414	-0.426465
C148	C	0.994607	-0.227799	-0.371829
C149	C	1.088223	-0.238674	-0.389542
C150	C	1.132340	-0.204852	-0.334589
H151	H	0.975675	-0.232679	-0.310068
H152	H	0.979973	-0.192595	-0.384312
H153	H	1.102851	-0.273869	-0.377053
H154	H	1.107182	-0.233790	-0.451293
H155	H	1.117705	-0.169648	-0.347072
H156	H	1.113400	-0.209735	-0.272831
H157	H	1.195862	-0.212223	-0.346606
C158	C	1.522037	-0.768972	-0.700544
C159	C	1.575622	-0.808116	-0.754222
C160	C	1.636855	-0.784971	-0.815615
H161	H	1.559581	-0.747847	-0.668334
H162	H	1.489675	-0.747850	-0.738001
H163	H	1.607981	-0.829229	-0.716769
H164	H	1.538103	-0.829244	-0.786451
H165	H	1.604494	-0.763849	-0.853073
H166	H	1.674393	-0.763846	-0.783398
H167	H	1.673214	-0.811526	-0.852049
C168	C	1.460978	-1.016109	-0.639362
C169	C	1.514569	-1.055250	-0.693040
C170	C	1.575797	-1.032102	-0.754435
H171	H	1.498519	-0.994980	-0.607154
H172	H	1.428612	-0.994989	-0.676820
H173	H	1.546933	-1.076360	-0.655587
H174	H	1.477053	-1.076381	-0.725268
H175	H	1.543431	-1.010983	-0.791893
H176	H	1.613332	-1.010974	-0.722219
H177	H	1.612160	-1.058655	-0.790868
H178	H	1.444383	-1.121394	-0.622653
H179	H	1.222272	-1.007670	-0.400292
H180	H	1.160977	-0.851491	-0.338985
