data_functionalizedCrystal
_audit_creation_method	'MofGen! by Chris Wilmer'
_symmetry_space_group_name_H-M	'P1'
_symmetry_Int_Tables_number	1
_symmetry_cell_setting	triclinic
loop_
_symmetry_equiv_pos_as_xyz
  x,y,z
_cell_length_a	16.992694
_cell_length_b	12.837942
_cell_length_c	16.053802
_cell_angle_alpha	92.838962
_cell_angle_beta	87.249047
_cell_angle_gamma	92.748582
loop_
_atom_site_label
_atom_site_type_symbol
_atom_site_fract_x
_atom_site_fract_y
_atom_site_fract_z
O1	O	1.059913	0.217066	-0.069322
O2	O	0.831447	0.214638	-0.069347
O3	O	0.940614	0.064530	-0.069330
O4	O	0.950746	0.367174	-0.069339
O5	O	0.934602	0.072756	0.069528
O6	O	0.825435	0.222864	0.069511
O7	O	1.053901	0.225292	0.069536
Zn8	Zn	0.938714	0.225384	0.091570
Zn9	Zn	0.946634	0.214546	-0.091381
O10	O	0.944734	0.375400	0.069519
C11	C	0.798996	0.215629	0.000079
C12	C	0.711256	0.206315	0.000070
C13	C	0.667730	0.296178	0.000068
C14	C	0.585288	0.287422	0.000079
C15	C	0.546375	0.188801	0.000087
C16	C	0.589907	0.098931	0.000092
C17	C	0.672346	0.107689	0.000086
C18	C	0.300064	0.152502	0.000111
C19	C	0.217618	0.143751	0.000114
C20	C	0.213006	0.332243	0.000103
C21	C	0.295447	0.340992	0.000092
C22	C	0.338972	0.251122	0.000101
N23	N	0.462107	0.179847	0.000097
N24	N	0.423238	0.260077	0.000098
C25	C	0.934185	0.029738	0.000098
C26	C	0.923977	-0.086184	0.000096
C27	C	1.046699	-0.316977	0.000092
C28	C	1.037111	-0.425897	0.000089
C29	C	0.895215	-0.412948	0.000082
C30	C	0.904802	-0.304027	0.000085
C31	C	0.980547	-0.256046	0.000091
C32	C	0.990134	-0.147123	0.000099
C33	C	0.848238	-0.134176	0.000086
C34	C	0.838650	-0.243097	0.000084
C35	C	1.086353	0.224300	0.000108
C36	C	1.174092	0.233614	0.000112
C37	C	0.951163	0.410191	0.000089
C38	C	0.961371	0.526114	0.000086
N39	N	0.933314	0.232780	0.216430
N40	N	0.952040	0.207141	-0.216241
C41	C	0.979785	0.168935	0.260131
C42	C	0.976016	0.174120	0.347537
C43	C	0.925779	0.243156	0.391240
C44	C	0.879303	0.307004	0.347533
C45	C	0.883068	0.301813	0.260129
C46	C	0.909329	0.265799	0.652647
C47	C	0.905569	0.270987	0.740058
C48	C	1.002281	0.138101	0.740056
C49	C	1.006046	0.132921	0.652650
C50	C	0.959566	0.196765	0.608950
N51	N	0.921927	0.248459	0.480584
N52	N	0.963414	0.191455	0.519608
H53	H	0.177559	0.405409	0.000097
O54	O	0.859208	0.334666	0.605518
H55	H	0.823652	0.383550	0.650595
H56	H	0.845226	0.353801	0.224548
O57	O	0.719300	0.010768	0.000091
H58	H	0.707035	-0.039459	-0.056505
O59	O	0.175649	0.037373	0.000133
H60	H	0.111011	0.046386	0.000128
H61	H	0.335492	0.079324	0.000119
O62	O	0.776880	-0.068461	0.000082
H63	H	0.796269	0.015340	0.000081
O64	O	0.825120	0.381471	0.394664
H65	H	0.830316	0.374366	0.462784
H66	H	1.040121	0.086121	0.775644
H67	H	0.699407	0.376486	0.000061
O68	O	0.851372	0.345437	0.787201
H69	H	0.819676	0.388951	0.742131
O70	O	1.071826	-0.095366	0.000105
H71	H	1.082029	-0.049394	-0.056488
H72	H	0.776981	-0.282179	0.000076
H73	H	0.558216	0.018632	0.000110
O74	O	0.337409	0.447369	0.000103
H75	H	0.322915	0.487537	-0.056487
O76	O	1.026153	0.105279	0.394675
H77	H	1.061731	0.056418	0.349601
O78	O	1.128389	-0.265213	0.000097
H79	H	1.172779	-0.325883	0.000093
H80	H	1.090979	-0.475503	0.000087
O81	O	0.538344	0.384347	0.000073
H82	H	0.498240	0.388229	0.056677
O83	O	0.813527	-0.464717	0.000081
H84	H	0.808218	-0.517385	-0.056514
O85	O	1.033966	0.094470	0.212994
H86	H	1.065640	0.050938	0.258070
H87	H	1.046952	0.076706	0.617068
