data_functionalizedCrystal
_audit_creation_method	'MofGen! by Chris Wilmer'
_symmetry_space_group_name_H-M	'P1'
_symmetry_Int_Tables_number	1
_symmetry_cell_setting	triclinic
loop_
_symmetry_equiv_pos_as_xyz
  x,y,z
_cell_length_a	14.519731
_cell_length_b	14.519731
_cell_length_c	13.596369
_cell_angle_alpha	89.993029
_cell_angle_beta	89.994584
_cell_angle_gamma	83.688853
loop_
_atom_site_label
_atom_site_type_symbol
_atom_site_fract_x
_atom_site_fract_y
_atom_site_fract_z
O1	O	1.223866	0.120985	-0.081796
O2	O	1.473866	0.370985	0.168204
O3	O	1.723866	0.620985	0.418204
O4	O	1.973866	0.870985	0.668204
O5	O	0.955392	0.135201	-0.081798
O6	O	1.205392	0.385201	0.168202
O7	O	1.455392	0.635201	0.418202
O8	O	1.705392	0.885201	0.668202
O9	O	1.096737	-0.006144	-0.081788
O10	O	1.346737	0.243856	0.168212
O11	O	1.596737	0.493856	0.418212
O12	O	1.846737	0.743856	0.668212
O13	O	1.082521	0.262330	-0.081806
O14	O	1.332521	0.512330	0.168194
O15	O	1.582521	0.762330	0.418194
O16	O	1.832521	1.012330	0.668194
O17	O	1.096723	-0.006151	0.081795
O18	O	1.346723	0.243849	0.331795
O19	O	1.596723	0.493849	0.581795
O20	O	1.846723	0.743849	0.831795
O21	O	0.955378	0.135194	0.081785
O22	O	1.205378	0.385194	0.331785
O23	O	1.455378	0.635194	0.581785
O24	O	1.705378	0.885194	0.831785
O25	O	1.223851	0.120978	0.081787
O26	O	1.473851	0.370978	0.331787
O27	O	1.723851	0.620978	0.581787
O28	O	1.973851	0.870978	0.831787
Zn29	Zn	1.089613	0.128084	0.107759
Zn30	Zn	1.339613	0.378084	0.357759
Zn31	Zn	1.589613	0.628084	0.607759
Zn32	Zn	1.839613	0.878084	0.857759
Zn33	Zn	1.089631	0.128094	-0.107769
Zn34	Zn	1.339631	0.378094	0.142231
Zn35	Zn	1.589631	0.628094	0.392231
Zn36	Zn	1.839631	0.878094	0.642231
O37	O	1.082507	0.262322	0.081777
O38	O	1.332507	0.512322	0.331777
O39	O	1.582507	0.762322	0.581777
O40	O	1.832507	1.012322	0.831777
C41	C	0.921026	0.134531	-0.000006
C42	C	1.171026	0.384531	0.249994
C43	C	1.421026	0.634531	0.499994
C44	C	1.671026	0.884531	0.749994
C45	C	0.818645	0.132535	-0.000007
C46	C	1.068645	0.382535	0.249993
C47	C	1.318645	0.632535	0.499993
C48	C	1.568645	0.882535	0.749993
C49	C	0.735501	0.130913	-0.000010
C50	C	0.985501	0.380913	0.249990
C51	C	1.235501	0.630913	0.499990
C52	C	1.485501	0.880913	0.749990
C53	C	0.631192	0.128887	-0.000011
C54	C	0.881192	0.378887	0.249989
C55	C	1.131192	0.628887	0.499989
C56	C	1.381192	0.878887	0.749989
C57	C	0.548053	0.127278	-0.000011
C58	C	0.798053	0.377278	0.249989
C59	C	1.048053	0.627278	0.499989
C60	C	1.298053	0.877278	0.749989
C61	C	0.443738	0.125252	-0.000013
C62	C	0.693738	0.375252	0.249987
C63	C	0.943738	0.625252	0.499987
C64	C	1.193738	0.875252	0.749987
C65	C	1.096064	-0.040507	0.000004
C66	C	1.346064	0.209493	0.250004
C67	C	1.596064	0.459493	0.500004
C68	C	1.846064	0.709493	0.750004
C69	C	1.094068	-0.142887	0.000005
C70	C	1.344068	0.107113	0.250005
C71	C	1.594068	0.357113	0.500005
C72	C	1.844068	0.607113	0.750005
C73	C	1.092446	-0.226031	0.000002
C74	C	1.342446	0.023969	0.250002
C75	C	1.592446	0.273969	0.500002
C76	C	1.842446	0.523969	0.750002
C77	C	1.090419	-0.330340	-0.000005
C78	C	1.340419	-0.080340	0.249995
C79	C	1.590419	0.169660	0.499995
C80	C	1.840419	0.419660	0.749995
C81	C	1.088811	-0.413479	-0.000012
C82	C	1.338811	-0.163479	0.249988
C83	C	1.588811	0.086521	0.499988
C84	C	1.838811	0.336521	0.749988
C85	C	1.086785	-0.517795	-0.000017
C86	C	1.336785	-0.267795	0.249983
C87	C	1.586785	-0.017795	0.499983
C88	C	1.836785	0.232205	0.749983
C89	C	1.258218	0.121648	-0.000006
C90	C	1.508218	0.371648	0.249994
C91	C	1.758218	0.621648	0.499994
C92	C	2.008218	0.871648	0.749994
C93	C	1.360598	0.123644	-0.000012
C94	C	1.610598	0.373644	0.249988
C95	C	1.860598	0.623644	0.499988
C96	C	2.110598	0.873644	0.749988
C97	C	1.083180	0.296685	-0.000017
C98	C	1.333180	0.546685	0.249983
C99	C	1.583180	0.796685	0.499983
C100	C	1.833180	1.046685	0.749983
C101	C	1.085176	0.399066	-0.000024
C102	C	1.335176	0.649066	0.249976
C103	C	1.585176	0.899066	0.499976
C104	C	1.835176	1.149066	0.749976
N105	N	1.089607	0.128077	0.254850
N106	N	1.339607	0.378077	0.504850
N107	N	1.589607	0.628077	0.754850
N108	N	1.839607	0.878077	1.004850
N109	N	1.089644	0.128094	-0.254861
N110	N	1.339644	0.378094	-0.004861
N111	N	1.589644	0.628094	0.245139
N112	N	1.839644	0.878094	0.495139
C113	C	1.089630	0.128095	0.656141
C114	C	1.339630	0.378095	0.906141
C115	C	1.589630	0.628095	1.156141
C116	C	1.839630	0.878095	1.406141
C117	C	1.089621	0.128093	0.544490
C118	C	1.339621	0.378093	0.794490
C119	C	1.589621	0.628093	1.044490
C120	C	1.839621	0.878093	1.294490
C121	C	1.089619	0.128087	0.455499
C122	C	1.339619	0.378087	0.705499
C123	C	1.589619	0.628087	0.955499
C124	C	1.839619	0.878087	1.205499
C125	C	1.089609	0.128083	0.343841
C126	C	1.339609	0.378083	0.593841
C127	C	1.589609	0.628083	0.843841
C128	C	1.839609	0.878083	1.093841
