data_functionalizedCrystal
_audit_creation_method	'MofGen! by Chris Wilmer'
_symmetry_space_group_name_H-M	'P1'
_symmetry_Int_Tables_number	1
_symmetry_cell_setting	triclinic
loop_
_symmetry_equiv_pos_as_xyz
  x,y,z
_cell_length_a	10.723024
_cell_length_b	14.853567
_cell_length_c	9.198806
_cell_angle_alpha	90.000611
_cell_angle_beta	89.996352
_cell_angle_gamma	84.051400
loop_
_atom_site_label
_atom_site_type_symbol
_atom_site_fract_x
_atom_site_fract_y
_atom_site_fract_z
O1	O	1.655909	0.126445	-0.120870
O2	O	1.292634	0.138549	-0.120873
O3	O	1.483975	0.001318	-0.120876
O4	O	1.464568	0.263675	-0.120867
O5	O	1.483960	0.001318	0.120909
O6	O	1.292619	0.138548	0.120912
O7	O	1.655894	0.126445	0.120915
Cu8	Cu	1.474255	0.132497	0.142991
Cu9	Cu	1.474273	0.132497	-0.142948
O10	O	1.464553	0.263675	0.120918
C11	C	1.246136	0.137668	0.000019
C12	C	1.107608	0.135032	0.000017
C13	C	1.031849	0.211819	0.000018
C14	C	0.888673	0.209097	0.000016
C15	C	1.483088	-0.032275	0.000013
C16	C	1.480453	-0.132373	-0.000000
C17	C	1.355653	-0.545565	0.000026
C18	C	1.582971	-0.565646	0.000029
C19	C	1.585448	-0.471599	0.000020
C20	C	1.473027	-0.414531	0.000017
C21	C	1.358127	-0.451510	0.000022
C22	C	1.700345	-0.434614	0.000029
C23	C	1.702828	-0.340562	0.000022
C24	C	1.590405	-0.283491	0.000009
C25	C	1.475501	-0.320475	0.000013
C26	C	1.363079	-0.263407	0.000009
C27	C	1.248174	-0.300389	0.000003
C28	C	1.245704	-0.394440	0.000009
C29	C	1.592874	-0.189441	0.000003
C30	C	1.365554	-0.169351	0.000005
C31	C	1.702392	0.127326	0.000020
C32	C	1.840919	0.129961	0.000013
C33	C	1.465439	0.297269	0.000026
C34	C	1.468075	0.397366	0.000030
N35	N	1.474251	0.132496	0.344104
N36	N	1.474286	0.132491	-0.344062
C37	C	1.554592	0.074623	0.416300
C38	C	1.554612	0.074619	0.583713
H39	H	0.823575	0.274833	0.000012
H40	H	1.623400	0.025075	0.645798
O41	O	1.256460	-0.113789	-0.000063
C42	C	1.283276	-0.022846	-0.000022
H43	H	1.381298	-0.018630	-0.045790
H44	H	1.211635	0.019311	-0.070221
H45	H	1.278578	0.004320	0.115976
O46	O	1.080704	0.292732	0.000084
C47	C	0.982465	0.363600	0.000045
H48	H	0.893939	0.337873	0.045817
H49	H	1.009872	0.421660	0.070241
H50	H	0.964144	0.388574	-0.115953
O51	O	1.139004	-0.244911	-0.000257
C52	C	1.133670	-0.189890	-0.125456
H53	H	1.197425	-0.223936	-0.212980
H54	H	1.033178	-0.179929	-0.167493
H55	H	1.166093	-0.121313	-0.097137
H56	H	1.405478	0.182038	0.406233
O57	O	1.636685	0.015426	0.342418
C58	C	1.711413	-0.038369	0.442050
H59	H	1.660337	-0.039688	0.550601
H60	H	1.730016	-0.110233	0.397953
H61	H	1.804311	-0.008687	0.458162
H62	H	1.791873	-0.481085	0.000045
O63	O	1.392174	0.191693	0.582116
C64	C	1.317469	0.245484	0.681787
H65	H	1.368570	0.246798	0.790314
H66	H	1.298857	0.317350	0.637705
H67	H	1.224574	0.215802	0.697938
H68	H	1.066471	0.067277	-0.000023
O69	O	0.918690	0.051591	-0.000184
C70	C	0.994840	0.048173	-0.125426
H71	H	1.001423	0.119788	-0.167173
H72	H	1.092647	0.015278	-0.097266
H73	H	0.952030	0.006689	-0.213112
H74	H	1.686428	-0.159334	0.000018
O75	O	1.134174	-0.430472	-0.000179
C76	C	1.125937	-0.484266	-0.125410
H77	H	1.224251	-0.507071	-0.167161
H78	H	1.076102	-0.546155	-0.097234
H79	H	1.070798	-0.443074	-0.213099
H80	H	1.674499	-0.612116	0.000043
O81	O	1.244147	-0.581633	0.000086
C82	C	1.266060	-0.676882	0.000046
H83	H	1.363398	-0.698362	0.045822
H84	H	1.192524	-0.706210	0.070239
H85	H	1.259977	-0.703094	-0.115952
H86	H	1.796390	-0.310459	0.000026
