data_functionalizedCrystal
_audit_creation_method	'MofGen! by Chris Wilmer'
_symmetry_space_group_name_H-M	'P1'
_symmetry_Int_Tables_number	1
_symmetry_cell_setting	triclinic
loop_
_symmetry_equiv_pos_as_xyz
  x,y,z
_cell_length_a	16.109302
_cell_length_b	16.176319
_cell_length_c	16.109298
_cell_angle_alpha	90.001949
_cell_angle_beta	96.539015
_cell_angle_gamma	90.007924
loop_
_atom_site_label
_atom_site_type_symbol
_atom_site_fract_x
_atom_site_fract_y
_atom_site_fract_z
O1	O	1.103132	0.068774	-0.106868
O2	O	0.861070	0.068766	-0.120167
O3	O	0.988752	0.068776	0.007513
O4	O	0.975450	0.068764	-0.234549
O5	O	0.988737	-0.068717	0.007514
O6	O	0.861055	-0.068727	-0.120167
O7	O	1.103117	-0.068720	-0.106868
Cu8	Cu	0.982085	-0.081278	-0.113517
Cu9	Cu	0.982103	0.081324	-0.113518
O10	O	0.975435	-0.068730	-0.234549
C11	C	0.830088	0.000018	-0.119628
C12	C	0.737793	0.000016	-0.118013
N13	N	0.982078	-0.195643	-0.113517
C14	C	0.525444	-0.074923	-0.114277
C15	C	0.438724	-0.074920	-0.112751
C16	C	0.438750	0.074982	-0.112755
C17	C	0.525470	0.074979	-0.114276
C18	C	0.568813	0.000023	-0.115041
C19	C	0.395374	0.000030	-0.111994
C20	C	0.301348	0.000034	-0.110338
C21	C	0.662845	0.000019	-0.116695
C22	C	1.032484	-0.238904	-0.163960
C23	C	1.032493	-0.325452	-0.163957
C24	C	0.982091	-0.368735	-0.113514
C25	C	0.931684	-0.325468	-0.063065
C26	C	0.931680	-0.238922	-0.063064
C27	C	0.931699	-0.674496	-0.063066
C28	C	0.931705	-0.761048	-0.063072
C29	C	1.032512	-0.761025	-0.163959
C30	C	1.032508	-0.674480	-0.163958
C31	C	0.982104	-0.631220	-0.113506
C32	C	0.982097	-0.537376	-0.113509
C33	C	0.982094	-0.462578	-0.113515
C34	C	1.134100	0.000030	-0.107407
C35	C	1.226395	0.000038	-0.109022
C36	C	0.988206	0.000033	0.038489
C37	C	0.986592	0.000042	0.130784
N38	N	0.982116	0.195689	-0.113512
C39	C	0.975981	0.000016	-0.265524
C40	C	0.977595	0.000011	-0.357819
C41	C	0.981333	0.074972	0.429853
C42	C	0.982861	0.074978	0.343133
C43	C	0.982857	-0.074924	0.343119
C44	C	0.981335	-0.074930	0.429838
C45	C	0.980569	0.000021	0.473202
C46	C	0.983619	0.000032	0.299763
C47	C	0.985275	0.000038	0.205737
C48	C	0.978914	0.000016	0.567234
H49	H	0.560732	-0.135957	-0.114901
H50	H	0.403449	0.136008	-0.112133
H51	H	0.403416	-0.135949	-0.112129
H52	H	0.890650	-0.360716	-0.021989
H53	H	0.980715	-0.135967	0.465134
H54	H	0.560783	0.136013	-0.114896
F55	F	1.086127	-0.192846	-0.217651
H56	H	1.073540	-0.360671	-0.205031
H57	H	1.073556	-0.796258	-0.205037
H58	H	0.983485	0.136011	0.307842
H59	H	0.890660	-0.796287	-0.021993
F60	F	1.086143	-0.628418	-0.217655
H61	H	0.890658	-0.639284	-0.021984
F62	F	0.878038	-0.192881	-0.009369
H63	H	0.983479	-0.135947	0.307801
F64	F	0.980521	0.154741	0.476001
