data_functionalizedCrystal
_audit_creation_method	'MofGen! by Chris Wilmer'
_symmetry_space_group_name_H-M	'P1'
_symmetry_Int_Tables_number	1
_symmetry_cell_setting	triclinic
loop_
_symmetry_equiv_pos_as_xyz
  x,y,z
_cell_length_a	27.731988
_cell_length_b	19.288865
_cell_length_c	26.809956
_cell_angle_alpha	90.011357
_cell_angle_beta	90.012008
_cell_angle_gamma	82.877306
loop_
_atom_site_label
_atom_site_type_symbol
_atom_site_fract_x
_atom_site_fract_y
_atom_site_fract_z
O1	O	-0.641209	-0.082450	-0.041347
O2	O	-0.141209	0.417550	0.458653
O3	O	-0.500449	-0.095060	-0.041379
O4	O	-0.000449	0.404940	0.458621
O5	O	-0.574896	0.012402	-0.041352
O6	O	-0.074896	0.512402	0.458648
O7	O	-0.566762	-0.189912	-0.041374
O8	O	-0.066762	0.310088	0.458626
O9	O	-0.574863	0.012403	0.041607
O10	O	-0.074863	0.512403	0.541607
O11	O	-0.500416	-0.095059	0.041580
O12	O	-0.000416	0.404941	0.541580
O13	O	-0.641175	-0.082449	0.041612
O14	O	-0.141175	0.417551	0.541612
Zn15	Zn	-0.570790	-0.088754	0.054768
Zn16	Zn	-0.070790	0.411246	0.554768
Zn17	Zn	-0.570834	-0.088755	-0.054535
Zn18	Zn	-0.070834	0.411245	0.445465
O19	O	-0.566728	-0.189911	0.041585
O20	O	-0.066728	0.310089	0.541585
C21	C	-0.482424	-0.094801	0.000097
C22	C	0.017576	0.405199	0.500097
C23	C	-0.428765	-0.094024	0.000085
C24	C	0.071235	0.405976	0.500085
C25	C	-0.574618	0.038277	0.000129
C26	C	-0.074618	0.538277	0.500129
C27	C	-0.573832	0.115375	0.000133
C28	C	-0.073832	0.615375	0.500133
N29	N	-0.570763	-0.088752	0.129364
N30	N	-0.070763	0.411248	0.629364
C31	C	-0.045606	-0.088386	-0.045114
C32	C	0.454394	0.411614	0.454886
C33	C	-0.247272	-0.091351	-0.045127
C34	C	0.252728	0.408649	0.454873
O35	O	-0.273362	-0.091707	-0.083586
O36	O	0.226638	0.408293	0.416414
N37	N	-0.272476	-0.091721	0.000094
N38	N	0.227524	0.408279	0.500094
C39	C	-0.247259	-0.091346	0.045320
C40	C	0.252741	0.408654	0.545320
O41	O	-0.273324	-0.091722	0.083782
O42	O	0.226676	0.408278	0.583782
C43	C	-0.045594	-0.088376	0.045332
C44	C	0.454406	0.411624	0.545332
C45	C	-0.020393	-0.088013	0.000109
C46	C	0.479607	0.411987	0.500109
C47	C	-0.020405	-0.088022	-0.090333
C48	C	0.479595	0.411978	0.409667
C49	C	0.030010	-0.087285	-0.090330
C50	C	0.530010	0.412715	0.409670
C51	C	0.055223	-0.086911	-0.045107
C52	C	0.555223	0.413089	0.454893
C53	C	0.030021	-0.087275	0.000113
C54	C	0.530021	0.412725	0.500113
C55	C	-0.020379	-0.087995	0.090558
C56	C	0.479621	0.412005	0.590558
C57	C	0.030041	-0.087251	0.090557
C58	C	0.530041	0.412749	0.590557
C59	C	0.055242	-0.086888	0.045334
C60	C	0.555242	0.413112	0.545334
C61	C	0.105648	-0.086164	0.045339
C62	C	0.605648	0.413836	0.545339
N63	N	0.130851	-0.085794	0.000119
N64	N	0.630851	0.414206	0.500119
C65	C	0.105639	-0.086167	-0.045104
C66	C	0.605639	0.413833	0.454896
C67	C	-0.353136	-0.092906	0.045311
C68	C	0.146864	0.407094	0.545311
C69	C	-0.403552	-0.093650	0.045308
C70	C	0.096448	0.406350	0.545308
C71	C	-0.403562	-0.093654	-0.045139
C72	C	0.096438	0.406346	0.454861
C73	C	-0.353145	-0.092915	-0.045136
C74	C	0.146855	0.407085	0.454864
C75	C	-0.327933	-0.092536	0.000090
C76	C	0.172067	0.407464	0.500090
C77	C	0.211512	-0.084619	-0.045093
C78	C	0.711512	0.415381	0.454907
C79	C	0.261931	-0.083885	-0.045085
C80	C	0.761931	0.416115	0.454915
C81	C	0.261936	-0.083877	0.045361
C82	C	0.761936	0.416123	0.545361
C83	C	0.211522	-0.084616	0.045354
C84	C	0.711522	0.415384	0.545354
C85	C	0.186311	-0.084984	0.000123
C86	C	0.686311	0.415016	0.500123
O87	O	0.131769	-0.085800	0.083779
O88	O	0.631769	0.414200	0.583779
O89	O	0.131711	-0.085776	-0.083560
O90	O	0.631711	0.414224	0.416440
C91	C	-0.096020	-0.089123	-0.045118
C92	C	0.403980	0.410877	0.454882
C93	C	-0.121221	-0.089487	0.000102
C94	C	0.378779	0.410513	0.500102
C95	C	-0.096008	-0.089114	0.045325
C96	C	0.403992	0.410886	0.545325
C97	C	-0.171637	-0.090231	0.000099
C98	C	0.328363	0.409769	0.500099
C99	C	-0.196850	-0.090604	-0.045124
C100	C	0.303150	0.409396	0.454876
C101	C	-0.171647	-0.090234	-0.090344
C102	C	0.328353	0.409766	0.409656
C103	C	-0.121233	-0.089497	-0.090341
C104	C	0.378767	0.410503	0.409659
C105	C	-0.121211	-0.089484	0.090545
C106	C	0.378789	0.410516	0.590545
C107	C	-0.171625	-0.090223	0.090538
C108	C	0.328375	0.409777	0.590538
C109	C	-0.196838	-0.090596	0.045315
C110	C	0.303162	0.409404	0.545315
C111	C	0.340800	-0.082714	0.000134
C112	C	0.840800	0.417286	0.500134
C113	C	0.287143	-0.083511	0.000138
C114	C	0.787143	0.416489	0.500138
C115	C	-0.567007	-0.215786	0.000103
C116	C	-0.067007	0.284214	0.500103
C117	C	-0.567792	-0.292885	0.000096
C118	C	-0.067792	0.207115	0.500096
C119	C	-0.617514	0.160358	0.000145
C120	C	-0.117514	0.660358	0.500145
C121	C	-0.616776	0.232800	0.000137
C122	C	-0.116776	0.732800	0.500137
C123	C	-0.572353	0.260257	0.000127
C124	C	-0.072353	0.760257	0.500127
C125	C	-0.528665	0.215265	0.000112
C126	C	-0.028665	0.715265	0.500112
C127	C	-0.529405	0.142824	0.000115
C128	C	-0.029405	0.642824	0.500115
C129	C	-0.537420	0.368316	0.029178
C130	C	-0.037420	0.868316	0.529178
C131	C	-0.536682	0.440756	0.029178
C132	C	-0.036682	0.940756	0.529178
C133	C	-0.570071	0.483687	0.000115
C134	C	-0.070071	0.983687	0.500115
C135	C	-0.604205	0.454172	-0.028941
C136	C	-0.104205	0.954172	0.471059
C137	C	-0.604944	0.381731	-0.028938
C138	C	-0.104944	0.881731	0.471062
C139	C	-0.571546	0.338805	0.000123
C140	C	-0.071546	0.838805	0.500123
C141	C	-0.612956	0.607220	0.000118
C142	C	-0.112956	1.107220	0.500118
C143	C	-0.612216	0.679663	0.000107
C144	C	-0.112216	1.179663	0.500107
C145	C	-0.524104	0.662127	0.000086
C146	C	-0.024104	1.162127	0.500086
C147	C	-0.524845	0.589685	0.000092
C148	C	-0.024845	1.089685	0.500092
C149	C	-0.569272	0.562236	0.000111
C150	C	-0.069272	1.062236	0.500111
N151	N	-0.570865	-0.088751	-0.129131
N152	N	-0.070865	0.411249	0.370869
C153	C	-0.537836	-0.136317	0.526235
C154	C	-0.037836	0.363683	1.026235
C155	C	-0.537811	-0.136317	0.317357
C156	C	-0.037811	0.363683	0.817357
O157	O	-0.509754	-0.176752	0.290347
O158	O	-0.009754	0.323248	0.790347
N159	N	-0.570780	-0.088750	0.291242
N160	N	-0.070780	0.411250	0.791242
C161	C	-0.603756	-0.041176	0.317350
C162	C	-0.103756	0.458824	0.817350
O163	O	-0.631794	-0.000713	0.290344
O164	O	-0.131794	0.499287	0.790344
C165	C	-0.603778	-0.041173	0.526226
C166	C	-0.103778	0.458827	1.026226
C167	C	-0.570810	-0.088748	0.552339
C168	C	-0.070810	0.411252	1.052339
C169	C	-0.504870	-0.183888	0.552348
C170	C	-0.004870	0.316112	1.052348
C171	C	-0.504879	-0.183890	0.604564
C172	C	-0.004879	0.316110	1.104564
C173	C	-0.537853	-0.136321	0.630668
C174	C	-0.037853	0.363679	1.130668
C175	C	-0.570819	-0.088750	0.604555
C176	C	-0.070819	0.411250	1.104555
C177	C	-0.636751	0.006403	0.552333
C178	C	-0.136751	0.506403	1.052333
C179	C	-0.636753	0.006401	0.604555
C180	C	-0.136753	0.506401	1.104555
C181	C	-0.603785	-0.041174	0.630668
C182	C	-0.103785	0.458826	1.130668
C183	C	-0.603801	-0.041184	0.682875
C184	C	-0.103801	0.458816	1.182875
N185	N	-0.570832	-0.088751	0.708990
N186	N	-0.070832	0.411249	1.208990
C187	C	-0.537858	-0.136320	0.682887
C188	C	-0.037858	0.363680	1.182887
C189	C	-0.603742	-0.041182	0.207686
C190	C	-0.103742	0.458818	0.707686
C191	C	-0.603737	-0.041184	0.155468
C192	C	-0.103737	0.458816	0.655468
C193	C	-0.537792	-0.136324	0.155479
C194	C	-0.037792	0.363676	0.655479
C195	C	-0.537799	-0.136325	0.207699
C196	C	-0.037799	0.363675	0.707699
C197	C	-0.570773	-0.088750	0.233802
C198	C	-0.070773	0.411250	0.733802
C199	C	-0.537878	-0.136321	0.792545
C200	C	-0.037878	0.363679	1.292545
C201	C	-0.537891	-0.136320	0.844766
C202	C	-0.037891	0.363680	1.344766
C203	C	-0.603835	-0.041178	0.844750
C204	C	-0.103835	0.458822	1.344750
C205	C	-0.603824	-0.041180	0.792533
C206	C	-0.103824	0.458820	1.292533
C207	C	-0.570842	-0.088754	0.766432
C208	C	-0.070842	0.411246	1.266432
O209	O	-0.631840	-0.000765	0.709918
O210	O	-0.131840	0.499235	1.209918
O211	O	-0.509816	-0.176767	0.709901
O212	O	-0.009816	0.323233	1.209901
C213	C	-0.537828	-0.136315	0.474019
C214	C	-0.037828	0.363685	0.974019
C215	C	-0.570793	-0.088744	0.447906
C216	C	-0.070793	0.411256	0.947906
C217	C	-0.603768	-0.041176	0.474010
C218	C	-0.103768	0.458824	0.974010
C219	C	-0.570788	-0.088746	0.395687
C220	C	-0.070788	0.411254	0.895687
C221	C	-0.537814	-0.136315	0.369584
C222	C	-0.037814	0.363685	0.869584
C223	C	-0.504845	-0.183882	0.395699
C224	C	-0.004845	0.316118	0.895699
C225	C	-0.504853	-0.183884	0.447915
C226	C	-0.004853	0.316116	0.947915
C227	C	-0.636737	0.006392	0.447895
C228	C	-0.136737	0.506392	0.947895
C229	C	-0.636726	0.006389	0.395679
C230	C	-0.136726	0.506389	0.895679
C231	C	-0.603752	-0.041180	0.369575
C232	C	-0.103752	0.458820	0.869575
H233	H	0.282447	-0.083591	-0.081913
H234	H	0.782447	0.416409	0.418087
H235	H	-0.647788	0.716288	0.000114
H236	H	-0.147788	1.216288	0.500114
H237	H	0.191003	-0.084925	0.082178
H238	H	0.691003	0.415075	0.582178
F239	F	-0.502801	-0.186959	0.872554
F240	F	-0.002801	0.313041	1.372554
H241	H	-0.631393	0.489126	-0.052607
H242	H	-0.131393	0.989126	0.447393
F243	F	-0.641269	0.350321	-0.059863
F244	F	-0.141269	0.850321	0.440137
H245	H	0.190991	-0.084921	-0.081924
H246	H	0.690991	0.415079	0.418076
F247	F	-0.198440	-0.090615	0.138674
F248	F	0.301560	0.409385	0.638674
H249	H	-0.478008	-0.222624	0.469172
H250	H	0.021992	0.277376	0.969172
H251	H	-0.511020	-0.175059	0.771299
H252	H	-0.011020	0.324941	1.271299
F253	F	-0.469787	-0.234522	0.632350
F254	F	0.030213	0.265478	1.132350
H255	H	0.050524	-0.086986	-0.127155
H256	H	0.550524	0.413014	0.372845
F257	F	-0.660238	0.578005	0.000140
F258	F	-0.160238	1.078005	0.500140
F259	F	-0.476825	0.691343	0.000073
F260	F	0.023175	1.191343	0.500073
F261	F	-0.638918	0.009448	0.764743
F262	F	-0.138918	0.509448	1.264743
H263	H	-0.652348	0.269431	0.000145
H264	H	-0.152348	0.769431	0.500145
F265	F	-0.664798	0.131149	0.000154
F266	F	-0.164798	0.631149	0.500154
H267	H	-0.663577	0.045129	0.374421
H268	H	-0.163577	0.545129	0.874421
H269	H	-0.100718	-0.089201	-0.127166
H270	H	0.399282	0.410799	0.372834
F271	F	-0.500356	0.472161	0.060103
F272	F	-0.000356	0.972161	0.560103
H273	H	-0.489274	0.553059	0.000085
H274	H	0.010726	1.053059	0.500085
H275	H	-0.332629	-0.092619	-0.081960
H276	H	0.167371	0.407381	0.418040
H277	H	-0.510230	0.333366	0.052847
H278	H	-0.010230	0.833366	0.552847
H279	H	-0.478016	-0.222624	0.531099
H280	H	0.021984	0.277376	1.031099
F281	F	-0.481387	0.244487	0.000097
F282	F	0.018613	0.744487	0.500097
F283	F	-0.482910	0.094949	0.000101
F284	F	0.017090	0.594949	0.500101
H285	H	-0.040928	-0.088324	-0.127161
H286	H	0.459072	0.411676	0.372839
H287	H	-0.510954	-0.175065	0.228956
H288	H	-0.010954	0.324935	0.728956
F289	F	-0.638928	0.009445	0.872539
F290	F	-0.138928	0.509445	1.372539
F291	F	-0.430404	-0.094054	-0.093269
F292	F	0.069596	0.405946	0.406731
H293	H	-0.100688	-0.089177	0.127372
H294	H	0.399312	0.410823	0.627372
H295	H	-0.510943	-0.175058	0.134216
H296	H	-0.010943	0.324942	0.634216
F297	F	-0.671849	0.057041	0.632333
F298	F	-0.171849	0.557041	1.132333
F299	F	-0.198489	-0.090634	-0.138474
F300	F	0.301511	0.409366	0.361526
H301	H	-0.477998	-0.222617	0.374437
H302	H	0.022002	0.277383	0.874437
H303	H	-0.040889	-0.088289	0.127384
H304	H	0.459111	0.411711	0.627384
F305	F	-0.638832	0.009443	0.127682
F306	F	-0.138832	0.509443	0.627682
H307	H	-0.332614	-0.092595	0.082141
H308	H	0.167386	0.407405	0.582141
H309	H	-0.630595	-0.002439	0.228936
H310	H	-0.130595	0.497561	0.728936
F311	F	-0.671834	0.057023	0.475671
F312	F	-0.171834	0.557023	0.975671
F313	F	-0.430367	-0.094050	0.093440
F314	F	0.069633	0.405950	0.593440
F315	F	0.056869	-0.086843	0.138695
F316	F	0.556869	0.413157	0.638695
H317	H	0.282473	-0.083576	0.082181
H318	H	0.782473	0.416424	0.582181
F319	F	-0.671840	0.057040	0.524552
F320	F	-0.171840	0.557040	1.024552
