data_functionalizedCrystal
_audit_creation_method	'MofGen! by Chris Wilmer'
_symmetry_space_group_name_H-M	'P1'
_symmetry_Int_Tables_number	1
_symmetry_cell_setting	triclinic
loop_
_symmetry_equiv_pos_as_xyz
  x,y,z
_cell_length_a	14.853558
_cell_length_b	13.596369
_cell_length_c	14.853567
_cell_angle_alpha	90.002036
_cell_angle_beta	96.366968
_cell_angle_gamma	89.994689
loop_
_atom_site_label
_atom_site_type_symbol
_atom_site_fract_x
_atom_site_fract_y
_atom_site_fract_z
O1	O	1.196372	-0.081771	-0.117666
O2	O	1.696372	0.418229	0.382334
O3	O	0.933911	-0.081774	-0.131696
O4	O	1.433911	0.418226	0.368304
O5	O	1.072152	-0.081776	0.006549
O6	O	1.572152	0.418224	0.506549
O7	O	1.058130	-0.081770	-0.255911
O8	O	1.558130	0.418230	0.244089
O9	O	1.072137	0.081807	0.006556
O10	O	1.572137	0.581807	0.506556
O11	O	0.933896	0.081808	-0.131689
O12	O	1.433896	0.581808	0.368311
O13	O	1.196356	0.081812	-0.117659
O14	O	1.696356	0.581812	0.382341
Zn15	Zn	1.065124	0.107783	-0.124673
Zn16	Zn	1.565124	0.607783	0.375327
Zn17	Zn	1.065144	-0.107745	-0.124682
Zn18	Zn	1.565144	0.392255	0.375318
O19	O	1.058115	0.081813	-0.255904
O20	O	1.558115	0.581813	0.244096
C21	C	0.900314	0.000016	-0.131058
C22	C	1.400314	0.500016	0.368942
C23	C	0.800230	0.000015	-0.129158
C24	C	1.300230	0.500015	0.370842
C25	C	0.753218	-0.089158	-0.128270
C26	C	1.253218	0.410842	0.371730
C27	C	0.753200	0.089186	-0.128252
C28	C	1.253200	0.589186	0.371748
C29	C	0.659167	0.089188	-0.126461
C30	C	1.159167	0.589188	0.373539
C31	C	0.612155	0.000015	-0.125574
C32	C	1.112155	0.500015	0.374426
C33	C	0.659176	-0.089159	-0.126477
C34	C	1.159176	0.410841	0.373523
C35	C	0.612139	0.178361	-0.125549
C36	C	1.112139	0.678361	0.374451
C37	C	0.518100	0.178366	-0.123758
C38	C	1.018100	0.678366	0.376242
C39	C	0.471085	0.089192	-0.122877
C40	C	0.971085	0.589192	0.377123
C41	C	0.518113	0.000014	-0.123781
C42	C	1.018113	0.500014	0.376219
C43	C	0.471101	-0.089159	-0.122893
C44	C	0.971101	0.410841	0.377107
C45	C	0.518126	-0.178338	-0.123803
C46	C	1.018126	0.321662	0.376197
C47	C	0.612162	-0.178333	-0.125596
C48	C	1.112162	0.321667	0.374404
C49	C	0.377049	0.089187	-0.121084
C50	C	0.877049	0.589187	0.378916
C51	C	0.377059	-0.089160	-0.121100
C52	C	0.877059	0.410840	0.378900
N53	N	1.065117	0.254874	-0.124666
N54	N	1.565117	0.754874	0.375334
C55	C	1.065136	0.656165	-0.124685
C56	C	1.565136	1.156165	0.375315
C57	C	1.065128	0.544514	-0.124683
C58	C	1.565128	1.044514	0.375317
C59	C	1.065127	0.455523	-0.124676
C60	C	1.565127	0.955523	0.375324
C61	C	1.065118	0.343865	-0.124673
C62	C	1.565118	0.843865	0.375327
C63	C	1.229953	0.000019	-0.118296
C64	C	1.729953	0.500019	0.381704
C65	C	1.330037	0.000014	-0.120197
C66	C	1.830037	0.500014	0.379803
C67	C	1.071509	0.000013	0.040141
C68	C	1.571509	0.500013	0.540141
C69	C	1.069605	0.000004	0.140225
C70	C	1.569605	0.500004	0.640225
N71	N	1.065149	0.745163	-0.124685
N72	N	1.565149	1.245163	0.375315
C73	C	1.058758	0.000022	-0.289496
C74	C	1.558758	0.500022	0.210504
C75	C	1.060662	0.000024	-0.389580
C76	C	1.560662	0.500024	0.110420
C77	C	0.979439	0.000022	0.552756
C78	C	1.479439	0.500022	1.052756
C79	C	1.143673	0.000024	0.574042
C80	C	1.643673	0.500024	1.074042
C81	C	1.145463	0.000018	0.480009
C82	C	1.645463	0.500018	0.980009
C83	C	1.064240	0.000016	0.422344
C84	C	1.564240	0.500016	0.922344
C85	C	0.981227	0.000019	0.458713
C86	C	1.481227	0.500019	0.958713
C87	C	1.228474	0.000025	0.443632
C88	C	1.728474	0.500025	0.943632
C89	C	1.230268	0.000020	0.349593
C90	C	1.730268	0.500020	0.849593
C91	C	1.149044	0.000011	0.291927
C92	C	1.649044	0.500011	0.791927
C93	C	1.066027	0.000013	0.328301
C94	C	1.566027	0.500013	0.828301
C95	C	0.984805	0.000011	0.270637
C96	C	1.484805	0.500011	0.770637
C97	C	0.901787	0.000006	0.307009
C98	C	1.401787	0.500006	0.807009
C99	C	0.900003	0.000010	0.401047
C100	C	1.400003	0.500010	0.901047
C101	C	1.150828	0.000007	0.197890
C102	C	1.650828	0.500007	0.697890
C103	C	0.986592	0.000008	0.176594
C104	C	1.486592	0.500008	0.676594
H105	H	0.338787	-0.161776	-0.120382
H106	H	0.838787	0.338224	0.379618
H107	H	1.297865	0.000023	0.319987
H108	H	1.797865	0.500023	0.819987
F109	F	0.891090	0.000008	0.591466
F110	F	1.391090	0.500008	1.091466
H111	H	0.650458	-0.250938	-0.126335
H112	H	1.150458	0.249062	0.373665
F113	F	0.468060	0.273276	-0.122798
F114	F	0.968060	0.773276	0.377202
H115	H	0.791510	-0.161765	-0.129015
H116	H	1.291510	0.338235	0.370985
F117	F	1.314911	0.000046	0.505006
F118	F	1.814911	0.500046	1.005006
H119	H	0.479837	-0.250942	-0.123076
H120	H	0.979837	0.249058	0.376924
F121	F	0.662176	0.273257	-0.126495
F122	F	1.162176	0.773257	0.373505
F123	F	0.900141	-0.000002	0.115230
F124	F	1.400141	0.499998	0.615230
F125	F	0.327007	0.184091	-0.120103
F126	F	0.827007	0.684091	0.379897
H127	H	1.209801	0.000034	0.620998
H128	H	1.709801	0.500034	1.120998
F129	F	0.803236	0.184084	-0.129194
F130	F	1.303236	0.684084	0.370806
H131	H	0.835656	0.000011	0.260047
H132	H	1.335656	0.500011	0.760047
F133	F	0.811658	0.000001	0.439764
F134	F	1.311658	0.500001	0.939764
F135	F	1.239175	0.000028	0.159183
F136	F	1.739175	0.500028	0.659183
