data_functionalizedCrystal
_audit_creation_method	'MofGen! by Chris Wilmer'
_symmetry_space_group_name_H-M	'P1'
_symmetry_Int_Tables_number	1
_symmetry_cell_setting	triclinic
loop_
_symmetry_equiv_pos_as_xyz
  x,y,z
_cell_length_a	19.288859
_cell_length_b	10.540539
_cell_length_c	18.366186
_cell_angle_alpha	89.995944
_cell_angle_beta	89.990083
_cell_angle_gamma	83.829609
loop_
_atom_site_label
_atom_site_type_symbol
_atom_site_fract_x
_atom_site_fract_y
_atom_site_fract_z
O1	O	0.922412	0.158308	-0.060561
O2	O	0.720293	0.179676	-0.060559
O3	O	0.825964	-0.015818	-0.060559
O4	O	0.816741	0.353801	-0.060560
O5	O	0.825945	-0.015827	0.060541
O6	O	0.720275	0.179667	0.060541
O7	O	0.922394	0.158298	0.060539
Zn8	Zn	0.821331	0.168981	0.079767
Zn9	Zn	0.821355	0.168993	-0.079787
O10	O	0.816723	0.353792	0.060539
C11	C	0.694403	0.178985	-0.000009
C12	C	0.617285	0.176925	-0.000008
C13	C	0.053917	0.277696	-0.000009
C14	C	0.126377	0.279643	-0.000013
C15	C	0.170318	0.164936	-0.000011
C16	C	0.141794	0.048274	-0.000024
C17	C	0.069336	0.046330	-0.000028
C18	C	0.291011	0.079385	0.042418
C19	C	0.363468	0.081333	0.042426
C20	C	0.393804	0.170925	-0.000004
C21	C	0.351673	0.258591	-0.042433
C22	C	0.279215	0.256647	-0.042436
C23	C	0.248888	0.167030	-0.000008
C24	C	0.500888	0.289691	-0.000000
C25	C	0.573349	0.291633	-0.000009
C26	C	0.588766	0.060261	-0.000012
C27	C	0.516306	0.058322	-0.000011
C28	C	0.472371	0.173041	-0.000002
C29	C	0.825263	-0.063110	-0.000010
C30	C	0.823194	-0.204012	-0.000014
C31	C	0.743905	-0.385668	-0.000285
C32	C	0.746002	-0.239097	-0.000013
C33	C	0.860331	-0.266504	0.069139
C34	C	0.857697	-0.412990	0.069197
C35	C	0.859288	-0.413532	-0.068515
C36	C	0.859999	-0.266566	-0.069430
C37	C	0.948284	0.158989	-0.000013
C38	C	1.025401	0.161049	-0.000018
C39	C	0.817424	0.401084	-0.000011
C40	C	0.819493	0.541986	-0.000012
N41	N	0.821320	0.168971	0.188658
N42	N	0.821372	0.168993	-0.188678
C43	C	0.868127	0.082449	0.226758
C44	C	0.868131	0.082443	0.302986
C45	C	0.821336	0.168982	0.341111
C46	C	0.774520	0.255511	0.303001
C47	C	0.774512	0.255506	0.226775
C48	C	0.812809	0.284637	0.461871
C49	C	0.812822	0.284644	0.538096
C50	C	0.821355	0.168998	0.576218
C51	C	0.829891	0.053340	0.538107
C52	C	0.829884	0.053335	0.461880
C53	C	0.821338	0.168997	0.423766
C54	C	0.868169	0.082462	0.696974
C55	C	0.868169	0.082455	0.773203
C56	C	0.774561	0.255533	0.773216
C57	C	0.774558	0.255529	0.696989
C58	C	0.821366	0.168995	0.658872
H59	H	0.266318	0.006421	0.076971
H60	H	0.397765	0.009957	0.076978
H61	H	0.805848	0.378816	0.430837
N62	N	0.915991	-0.005914	0.187871
N63	N	0.914529	-0.123250	0.196399
H64	H	0.948355	-0.185640	0.168947
H65	H	0.713420	-0.413584	-0.049876
H66	H	0.177576	-0.045121	-0.000025
H67	H	0.624542	-0.033136	-0.000016
N68	N	0.838600	-0.064812	0.577026
N69	N	0.846215	-0.168062	0.542991
H70	H	0.852367	-0.251506	0.570479
N71	N	0.705794	-0.422650	0.061591
N72	N	0.644225	-0.375535	0.071371
H73	H	0.617313	-0.401642	0.115077
N74	N	0.236189	0.346196	-0.085776
N75	N	0.263276	0.426190	-0.123657
H76	H	0.232890	0.489434	-0.154269
H77	H	0.834312	-0.444523	-0.120929
N78	N	0.927331	-0.474751	0.073151
N79	N	0.937791	-0.593852	0.073902
H80	H	0.986969	-0.637469	0.076698
H81	H	0.915043	-0.462003	-0.068981
H82	H	0.917018	-0.245416	0.071710
H83	H	0.493089	-0.036665	-0.000014
H84	H	0.832825	-0.225097	-0.120587
H85	H	0.834519	-0.223333	0.120601
H86	H	0.046120	-0.048661	-0.000035
N87	N	0.915947	-0.005954	0.341904
N88	N	0.957732	-0.083211	0.307863
H89	H	0.991503	-0.145642	0.335346
H90	H	0.916278	-0.243601	-0.073606
N91	N	0.838602	-0.064808	0.422961
N92	N	0.846223	-0.168060	0.457000
H93	H	0.852378	-0.251501	0.429514
N94	N	0.726703	0.343880	0.187840
N95	N	0.683393	0.303805	0.145315
H96	H	0.649628	0.366221	0.117815
H97	H	0.736447	0.325989	0.665965
H98	H	0.906281	0.011997	0.665938
H99	H	0.716780	-0.195837	-0.049584
H100	H	0.376370	0.331548	-0.076981
H101	H	0.805876	0.378819	0.569120
H102	H	0.465114	0.383102	0.000006
H103	H	0.906282	0.011991	0.804225
N104	N	0.709067	-0.185904	0.062282
N105	N	0.681662	-0.257045	0.105695
H106	H	0.655576	-0.219479	0.149694
H107	H	0.736457	0.325989	0.804257
N108	N	0.726710	0.343890	0.341942
N109	N	0.683406	0.303814	0.384492
H110	H	0.649636	0.366229	0.411994
N111	N	0.009050	0.394886	-0.000001
N112	N	0.034526	0.499030	0.000006
H113	H	0.002838	0.581798	0.000012
H114	H	0.596564	0.386625	-0.000007
H115	H	0.830235	-0.440581	0.120891
H116	H	0.149599	0.374634	0.000001
