data_functionalizedCrystal
_audit_creation_method	'MofGen! by Chris Wilmer'
_symmetry_space_group_name_H-M	'P1'
_symmetry_Int_Tables_number	1
_symmetry_cell_setting	triclinic
loop_
_symmetry_equiv_pos_as_xyz
  x,y,z
_cell_length_a	16.109301
_cell_length_b	15.995292
_cell_length_c	15.186229
_cell_angle_alpha	89.999448
_cell_angle_beta	89.999006
_cell_angle_gamma	83.465100
loop_
_atom_site_label
_atom_site_type_symbol
_atom_site_fract_x
_atom_site_fract_y
_atom_site_fract_z
O1	O	1.103137	0.107628	-0.073174
O2	O	0.861076	0.121022	-0.073185
O3	O	0.988749	-0.007568	-0.073181
O4	O	0.975465	0.236218	-0.073179
O5	O	0.988740	-0.007570	0.073277
O6	O	0.861068	0.121020	0.073272
O7	O	1.103129	0.107626	0.073283
Zn8	Zn	0.982097	0.114323	0.096531
Zn9	Zn	0.982108	0.114325	-0.096433
O10	O	0.975456	0.236216	0.073279
C11	C	0.830097	0.120478	0.000042
C12	C	0.737802	0.118852	0.000037
C13	C	0.428808	0.189837	0.000053
C14	C	0.515528	0.191373	0.000048
C15	C	0.535392	0.038805	0.000035
C16	C	0.448673	0.037270	0.000034
C17	C	0.395383	0.112788	0.000047
C18	C	0.568822	0.115860	0.000043
C19	C	0.662848	0.117525	0.000038
C20	C	0.301351	0.111123	0.000051
C21	C	0.988204	-0.038764	0.000046
C22	C	0.986583	-0.131717	0.000039
C23	C	0.980624	-0.469454	0.000047
C24	C	1.072775	-0.446166	0.000378
C25	C	1.074526	-0.349491	0.000045
C26	C	0.983581	-0.301898	0.000043
C27	C	0.937515	-0.330986	-0.083590
C28	C	0.936405	-0.427776	-0.083657
C29	C	0.934514	-0.427635	0.082892
C30	C	0.937929	-0.331143	0.083994
C31	C	0.985247	-0.207203	0.000039
C32	C	0.978955	-0.564149	0.000046
C33	C	1.134108	0.108170	0.000054
C34	C	1.226403	0.109796	0.000053
C35	C	0.976001	0.267412	0.000050
C36	C	0.977622	0.360365	0.000051
N37	N	0.982095	0.114321	0.228224
N38	N	0.982116	0.114321	-0.228126
C39	C	1.038648	0.057400	0.453948
C40	C	1.038650	0.057398	0.546138
C41	C	0.925557	0.171244	0.546143
C42	C	0.925552	0.171241	0.453955
C43	C	0.982101	0.114320	0.407860
C44	C	0.982110	0.114321	0.592238
C45	C	0.982112	0.114319	0.692194
C46	C	0.982098	0.114321	0.307898
H47	H	0.421459	-0.025476	0.000026
H48	H	0.868840	-0.442308	-0.087448
H49	H	0.578791	-0.022679	0.000026
Br50	Br	1.134634	-0.317791	0.099983
H51	H	0.385421	0.251328	0.000063
Br52	Br	0.848816	0.248492	0.608703
H53	H	1.108290	-0.474174	0.060356
Br54	Br	0.560887	0.295943	0.000048
H55	H	1.108100	-0.475193	-0.059259
Br56	Br	0.990843	-0.297570	-0.187329
H57	H	1.110824	-0.331096	-0.060008
H58	H	0.879501	0.217593	0.416427
Br59	Br	0.982555	-0.474817	0.188547
Br60	Br	0.989596	-0.472491	-0.187852
H61	H	0.870591	-0.299100	-0.086701
Br62	Br	0.993828	-0.300210	0.187122
H63	H	0.871547	-0.298156	0.089044
H64	H	0.866684	-0.441607	0.083454
H65	H	1.084693	0.011051	0.416420
H66	H	1.084695	0.011048	0.583661
