data_functionalizedCrystal
_audit_creation_method	'MofGen! by Chris Wilmer'
_symmetry_space_group_name_H-M	'P1'
_symmetry_Int_Tables_number	1
_symmetry_cell_setting	triclinic
loop_
_symmetry_equiv_pos_as_xyz
  x,y,z
_cell_length_a	14.519709
_cell_length_b	15.995292
_cell_length_c	12.996460
_cell_angle_alpha	89.997047
_cell_angle_beta	90.000034
_cell_angle_gamma	83.574380
loop_
_atom_site_label
_atom_site_type_symbol
_atom_site_fract_x
_atom_site_fract_y
_atom_site_fract_z
O1	O	1.223644	0.109763	-0.085425
O2	O	1.556978	0.443096	0.247908
O3	O	1.890311	0.776430	0.581241
O4	O	0.955141	0.122689	-0.085456
O5	O	1.288474	0.456022	0.247877
O6	O	1.621807	0.789356	0.581211
O7	O	1.096760	-0.005654	-0.085441
O8	O	1.430093	0.327679	0.247892
O9	O	1.763427	0.661013	0.581225
O10	O	1.082025	0.238106	-0.085440
O11	O	1.415358	0.571439	0.247893
O12	O	1.748692	0.904773	0.581227
O13	O	1.096745	-0.005661	0.085692
O14	O	1.430079	0.327672	0.419026
O15	O	1.763412	0.661006	0.752359
O16	O	0.955126	0.122682	0.085678
O17	O	1.288459	0.456015	0.419011
O18	O	1.621793	0.789348	0.752345
O19	O	1.223629	0.109756	0.085708
O20	O	1.556963	0.443089	0.419042
O21	O	1.890296	0.776423	0.752375
Cu22	Cu	1.089376	0.116218	0.101319
Cu23	Cu	1.422710	0.449552	0.434652
Cu24	Cu	1.756043	0.782885	0.767986
Cu25	Cu	1.089394	0.116227	-0.101067
Cu26	Cu	1.422727	0.449560	0.232267
Cu27	Cu	1.756061	0.782893	0.565600
O28	O	1.082010	0.238099	0.085694
O29	O	1.415343	0.571432	0.419027
O30	O	1.748677	0.904765	0.752361
C31	C	0.920775	0.122083	0.000107
C32	C	1.254108	0.455416	0.333440
C33	C	1.587442	0.788750	0.666774
C34	C	0.818397	0.120278	0.000095
C35	C	1.151731	0.453611	0.333428
C36	C	1.485064	0.786944	0.666762
C37	C	0.443515	0.113632	0.000142
C38	C	0.776848	0.446966	0.333475
C39	C	1.110182	0.780299	0.666808
C40	C	0.547819	0.115478	0.000128
C41	C	0.881153	0.448811	0.333462
C42	C	1.214486	0.782144	0.666795
C43	C	0.630953	0.116955	0.000117
C44	C	0.964286	0.450288	0.333451
C45	C	1.297620	0.783621	0.666784
C46	C	0.735264	0.118801	0.000106
C47	C	1.068597	0.452134	0.333439
C48	C	1.401930	0.785467	0.666773
C49	C	1.096153	-0.036854	0.000123
C50	C	1.429486	0.296479	0.333456
C51	C	1.762820	0.629813	0.666790
C52	C	1.094355	-0.129810	0.000115
C53	C	1.427688	0.203524	0.333448
C54	C	1.761022	0.536857	0.666782
C55	C	1.087745	-0.467558	0.000124
C56	C	1.421079	-0.134225	0.333457
C57	C	1.754412	0.199109	0.666790
C58	C	1.189962	-0.444093	0.000518
C59	C	1.523296	-0.110759	0.333851
C60	C	1.856629	0.222574	0.667184
C61	C	1.191905	-0.347414	0.000128
C62	C	1.525238	-0.014081	0.333462
C63	C	1.858572	0.319253	0.666795
C64	C	1.091025	-0.299997	0.000120
C65	C	1.424358	0.033336	0.333453
C66	C	1.757692	0.366670	0.666787
C67	C	1.039930	-0.329171	-0.097609
C68	C	1.373263	0.004163	0.235725
C69	C	1.706596	0.337496	0.569058
C70	C	1.038699	-0.425963	-0.097687
C71	C	1.372033	-0.092630	0.235647
C72	C	1.705366	0.240704	0.568980
C73	C	1.036595	-0.425831	0.096924
C74	C	1.369929	-0.092498	0.430258
C75	C	1.703262	0.240835	0.763591
C76	C	1.040383	-0.329333	0.098212
C77	C	1.373716	0.004000	0.431546
C78	C	1.707050	0.337334	0.764879
C79	C	1.092873	-0.205298	0.000114
C80	C	1.426207	0.128035	0.333448
C81	C	1.759540	0.461368	0.666781
C82	C	1.085894	-0.562257	0.000122
C83	C	1.419227	-0.228923	0.333456
C84	C	1.752561	0.104410	0.666789
C85	C	1.257995	0.110362	0.000143
C86	C	1.591329	0.443695	0.333477
C87	C	1.924662	0.777029	0.666810
C88	C	1.360373	0.112167	0.000149
C89	C	1.693706	0.445500	0.333482
C90	C	2.027040	0.778834	0.666815
C91	C	1.082617	0.269299	0.000127
C92	C	1.415951	0.602632	0.333461
C93	C	1.749284	0.935966	0.666794
C94	C	1.084415	0.362254	0.000129
C95	C	1.417749	0.695588	0.333462
C96	C	1.751082	1.028921	0.666795
N97	N	1.089371	0.116212	0.243666
N98	N	1.422704	0.449545	0.576999
N99	N	1.756038	0.782878	0.910333
N100	N	1.089407	0.116226	-0.243414
N101	N	1.422740	0.449560	0.089920
N102	N	1.756073	0.782893	0.423253
C103	C	1.089393	0.116227	0.663480
C104	C	1.422726	0.449561	0.996814
C105	C	1.756059	0.782894	1.330147
C106	C	1.089384	0.116226	0.546675
C107	C	1.422717	0.449559	0.880009
C108	C	1.756050	0.782893	1.213342
C109	C	1.089382	0.116220	0.453577
C110	C	1.422716	0.449554	0.786910
C111	C	1.756049	0.782887	1.120244
C112	C	1.089373	0.116217	0.336764
C113	C	1.422706	0.449551	0.670098
C114	C	1.756039	0.782884	1.003431
H115	H	1.231922	-0.328332	0.070183
H116	H	1.565255	0.005001	0.403516
H117	H	1.898589	0.338335	0.736849
H118	H	1.229149	-0.473049	-0.069166
H119	H	1.562482	-0.139715	0.264167
H120	H	1.895815	0.193618	0.597501
O121	O	0.941599	-0.287103	-0.102433
O122	O	1.274933	0.046230	0.230900
O123	O	1.608266	0.379564	0.564233
H124	H	0.892820	-0.335798	-0.101362
H125	H	1.226153	-0.002464	0.231971
H126	H	1.559487	0.330869	0.565304
H127	H	1.232170	-0.328946	-0.070041
H128	H	1.565503	0.004387	0.263292
H129	H	1.898837	0.337720	0.596626
O130	O	0.936936	-0.444522	0.097795
O131	O	1.270269	-0.111188	0.431128
O132	O	1.603603	0.222145	0.764461
H133	H	0.890422	-0.384564	0.095273
H134	H	1.223755	-0.051231	0.428606
H135	H	1.557088	0.282102	0.761939
O136	O	1.078999	-0.463196	0.195047
O137	O	1.412332	-0.129863	0.528380
O138	O	1.745666	0.203470	0.861714
H139	H	1.105505	-0.412863	0.241614
H140	H	1.438838	-0.079530	0.574947
H141	H	1.772172	0.253804	0.908281
H142	H	1.077588	-0.310715	0.170511
H143	H	1.410922	0.022618	0.503844
H144	H	1.744255	0.355952	0.837178
H145	H	1.074098	-0.452723	-0.170734
H146	H	1.407431	-0.119390	0.162599
H147	H	1.740765	0.213943	0.495932
H148	H	1.229355	-0.472034	0.070603
H149	H	1.562689	-0.138700	0.403936
H150	H	1.896022	0.194633	0.737270
O151	O	0.939433	-0.445402	-0.103584
O152	O	1.272767	-0.112069	0.229749
O153	O	1.606100	0.221265	0.563082
H154	H	0.907204	-0.418262	-0.175355
H155	H	1.240538	-0.084929	0.157978
H156	H	1.573871	0.248404	0.491312
O157	O	1.087171	-0.302839	-0.193945
O158	O	1.420504	0.030495	0.139389
O159	O	1.753838	0.363828	0.472722
H160	H	1.147002	-0.268944	-0.172467
H161	H	1.480335	0.064390	0.160867
H162	H	1.813669	0.397723	0.494200
H163	H	0.966750	-0.296474	0.104108
H164	H	1.300084	0.036859	0.437441
H165	H	1.633417	0.370192	0.770775
