data_functionalizedCrystal
_audit_creation_method	'MofGen! by Chris Wilmer'
_symmetry_space_group_name_H-M	'P1'
_symmetry_Int_Tables_number	1
_symmetry_cell_setting	triclinic
loop_
_symmetry_equiv_pos_as_xyz
  x,y,z
_cell_length_a	14.628931
_cell_length_b	23.196402
_cell_length_c	23.196401
_cell_angle_alpha	60.008520
_cell_angle_beta	90.013263
_cell_angle_gamma	59.998542
loop_
_atom_site_label
_atom_site_type_symbol
_atom_site_fract_x
_atom_site_fract_y
_atom_site_fract_z
Zr1	Zr	0.880570	0.631019	-0.075640
O2	O	0.734570	0.751291	-0.167690
O3	O	0.925329	0.510749	-0.047424
O4	O	0.925280	0.631021	-0.167692
O5	O	0.734655	0.631018	0.047450
O6	O	1.075712	0.631021	-0.167692
O7	O	0.734619	0.631019	-0.047422
O8	O	1.075800	0.415877	0.047445
O9	O	0.734567	0.846161	-0.167688
O10	O	1.056681	0.560218	-0.035388
O11	O	0.944442	0.560217	0.035413
O12	O	0.944384	0.701821	-0.106187
O13	O	0.832145	0.701820	-0.035385
Zr14	Zr	1.120549	0.631017	0.075669
Zr15	Zr	1.120492	0.631019	-0.075640
Zr16	Zr	0.880627	0.631017	0.075668
Zr17	Zr	0.880565	0.782327	-0.075637
Zr18	Zr	1.120554	0.479709	0.075665
O19	O	1.075790	0.751287	0.047452
O20	O	1.075708	0.751290	-0.167689
O21	O	0.734652	0.751287	0.047452
O22	O	1.266549	0.510746	0.167718
O23	O	1.266467	0.510749	-0.047424
O24	O	0.925411	0.510746	0.167718
O25	O	1.266463	0.631018	-0.047421
O26	O	1.075839	0.631015	0.167720
O27	O	0.925407	0.631016	0.167720
O28	O	1.266499	0.631017	0.047450
O29	O	0.925273	0.846161	-0.167688
O30	O	1.075846	0.415875	0.167716
O31	O	1.266552	0.415875	0.167716
O32	O	1.266506	0.415877	0.047446
O33	O	0.734613	0.846159	-0.047417
O34	O	0.925318	0.846159	-0.047417
O35	O	1.056735	0.560215	0.106215
O36	O	1.168974	0.560216	0.035413
O37	O	1.056677	0.701819	-0.035385
O38	O	0.944438	0.701818	0.035416
C39	C	1.000566	0.441755	0.000010
C40	C	1.000568	0.377521	0.000009
C41	C	0.700454	0.631019	0.000014
C42	C	0.598601	0.631019	0.000014
C43	C	1.059149	-0.085322	-0.036931
C44	C	1.059147	-0.024963	-0.036937
C45	C	1.000561	0.005219	0.000020
C46	C	0.941950	-0.024949	0.036972
C47	C	0.941945	-0.085300	0.036972
C48	C	1.008957	0.067245	0.061926
C49	C	1.008970	0.127592	0.061928
C50	C	1.000569	0.191367	0.000021
C51	C	0.992178	0.194779	-0.061888
C52	C	0.992173	0.134428	-0.061889
C53	C	1.000559	0.070661	0.000025
C54	C	1.059167	0.286979	-0.036940
C55	C	1.059156	0.347343	-0.036948
C56	C	0.941966	0.347350	0.036968
C57	C	0.941970	0.286993	0.036970
C58	C	1.000576	0.256809	0.000017
C59	C	0.392220	0.701262	-0.035106
C60	C	0.497490	0.701263	-0.035107
C61	C	1.300665	0.631017	0.000014
C62	C	1.402518	0.631017	0.000014
C63	C	1.000488	0.631021	-0.189250
C64	C	1.000463	0.631022	-0.253485
C65	C	1.000553	0.820281	0.000018
C66	C	1.000551	0.884515	0.000019
C67	C	0.941851	0.704935	-0.320614
C68	C	0.941879	0.704936	-0.380969
C69	C	1.000505	0.631020	-0.374191
C70	C	1.059130	0.557097	-0.307050
C71	C	1.059109	0.557098	-0.246697
C72	C	0.992182	0.574390	-0.441510
C73	C	0.992195	0.574392	-0.501863
C74	C	1.000576	0.631014	-0.560339
C75	C	1.008921	0.687647	-0.558461
C76	C	1.008900	0.687648	-0.498107
C77	C	1.000535	0.631011	-0.439630
C78	C	0.941991	0.704933	-0.692915
C79	C	0.942028	0.704931	-0.753270
C80	C	1.059271	0.557090	-0.679348
C81	C	1.059242	0.557094	-0.618995
C82	C	1.000596	0.631018	-0.625783
C83	C	1.000631	0.631015	0.189278
C84	C	1.000656	0.631014	0.253513
C85	C	1.300671	0.441755	0.000010
C86	C	1.402526	0.377520	0.000009
C87	C	1.000637	0.441752	0.189275
C88	C	1.000664	0.377517	0.253508
C89	C	1.300743	0.441752	0.189275
C90	C	1.402623	0.377516	0.253508
C91	C	0.700376	0.820284	-0.189247
C92	C	0.598496	0.884520	-0.253480
C93	C	0.700448	0.820281	0.000018
C94	C	0.598592	0.884516	0.000019
C95	C	1.000481	0.820284	-0.189246
C96	C	1.000455	0.884519	-0.253480
C97	C	1.391743	0.347356	-0.036955
C98	C	1.487438	0.287009	-0.036971
C99	C	1.593915	0.256824	-0.000017
C100	C	1.604696	0.286995	0.036949
C101	C	1.509002	0.347344	0.036960
C102	C	1.059292	0.347351	0.320636
C103	C	1.059312	0.287004	0.380996
C104	C	1.000711	0.256820	0.374226
C105	C	0.942076	0.286992	0.307090
C106	C	0.942049	0.347342	0.246732
C107	C	1.509064	0.347351	0.246715
C108	C	1.604800	0.287004	0.307064
C109	C	1.594092	0.256818	0.374204
C110	C	1.487639	0.286990	0.380996
C111	C	1.391906	0.347340	0.320648
C112	C	0.492055	0.914692	-0.246687
C113	C	0.396319	0.975058	-0.307035
C114	C	0.407027	1.005247	-0.374176
C115	C	0.513480	0.975072	-0.380967
C116	C	0.609213	0.914711	-0.320620
C117	C	0.609376	0.914686	0.036977
C118	C	0.513681	0.975050	0.036976
C119	C	0.407204	1.005237	0.000020
C120	C	0.396423	0.975064	-0.036943
C121	C	0.492117	0.914706	-0.036945
C122	C	1.059068	0.914684	-0.246687
C123	C	1.059065	0.975032	-0.307035
C124	C	1.000442	1.005217	-0.374175
C125	C	0.941827	0.975046	-0.380967
C126	C	0.941837	0.914696	-0.320620
H127	H	1.106867	-0.109894	-0.067022
F128	F	0.305367	1.069475	0.000030
F129	F	1.718084	0.254902	0.299821
F130	F	1.121448	1.007134	-0.299792
H131	H	1.517804	0.371919	0.192051
F132	F	0.305128	1.069489	-0.438398
F133	F	0.983335	0.514087	-0.379260
F134	F	0.879651	0.379437	0.175290
H135	H	1.000442	1.054359	-0.423308
F136	F	0.879594	0.007176	0.076303
F137	F	0.879604	0.379474	0.076296
H138	H	1.015740	0.733756	-0.606074
F139	F	0.879575	-0.117404	0.076302
H140	H	1.672053	0.207677	0.423337
F141	F	0.879597	0.783608	-0.700137
H142	H	0.894147	0.765127	-0.435636
H143	H	0.305470	0.761400	-0.065170
F144	F	0.879432	1.007186	-0.452429
F145	F	1.476260	0.254856	0.452457
F146	F	0.524858	1.007208	-0.452429
F147	F	1.278625	0.379434	0.327888
H148	H	0.894258	0.262430	0.067062
H149	H	0.695880	0.890145	-0.326159
H150	H	0.696066	0.890113	0.067076
F151	F	0.983246	0.262647	-0.127779
F152	F	1.121545	0.254849	-0.076264
H153	H	0.488848	0.761402	-0.065178
F154	F	0.480633	0.882573	-0.175237
H155	H	0.489268	0.570879	0.030085
F156	F	0.879440	0.882604	-0.327860
F157	F	0.480623	0.882598	-0.076279
F158	F	0.525179	1.007149	0.076321
F159	F	1.121527	0.478430	-0.299837
F160	F	1.475940	0.254908	-0.076314
H161	H	0.309650	0.999617	-0.301492
H162	H	1.107064	0.262445	0.435655
F163	F	1.121468	0.882569	-0.175236
F164	F	1.718026	0.254859	0.076277
H165	H	0.309717	0.999652	-0.067031
H166	H	1.015698	0.733759	-0.496581
H167	H	1.106866	-0.000399	-0.067028
H168	H	0.894302	0.765122	-0.807931
H169	H	0.607251	0.570877	0.030079
F170	F	0.983234	0.138064	-0.127776
F171	F	1.121672	0.379462	0.327858
F172	F	1.278431	0.379472	-0.076292
H173	H	1.106869	0.371906	-0.067042
H174	H	1.015793	0.015321	0.112341
F175	F	0.879415	0.783612	-0.327843
F176	F	1.017919	0.123947	0.127819
H177	H	1.107007	0.496906	-0.673828
F178	F	1.695751	0.192593	-0.000034
H179	H	1.106966	0.496906	-0.564334
H180	H	0.985394	0.528281	-0.503388
H181	H	1.106840	0.496907	-0.192035
H182	H	0.894364	0.262407	0.301588
F183	F	1.000750	0.192588	0.438472
F184	F	1.520496	0.379437	0.076309
