data_functionalizedCrystal
_audit_creation_method	'MofGen! by Chris Wilmer'
_symmetry_space_group_name_H-M	'P1'
_symmetry_Int_Tables_number	1
_symmetry_cell_setting	triclinic
loop_
_symmetry_equiv_pos_as_xyz
  x,y,z
_cell_length_a	21.295420
_cell_length_b	21.295417
_cell_length_c	15.296720
_cell_angle_alpha	99.638166
_cell_angle_beta	99.661426
_cell_angle_gamma	90.028757
loop_
_atom_site_label
_atom_site_type_symbol
_atom_site_fract_x
_atom_site_fract_y
_atom_site_fract_z
Zn1	Zn	0.900686	-0.312214	-0.510033
Zn2	Zn	1.400686	0.187786	-0.010033
Zn3	Zn	0.918829	-0.399274	-0.359172
Zn4	Zn	1.418829	0.100726	0.140828
Zn5	Zn	0.813647	-0.294023	-0.359199
Zn6	Zn	1.313647	0.205977	0.140801
Zn7	Zn	0.795386	-0.417439	-0.509971
Zn8	Zn	1.295386	0.082561	-0.009971
O9	O	0.857137	-0.355737	-0.434594
O10	O	1.357137	0.144263	0.065406
O11	O	0.991181	-0.323774	-0.490035
O12	O	1.491181	0.176226	0.009965
O13	O	0.920112	-0.370097	-0.232941
O14	O	1.420112	0.129903	0.267059
O15	O	0.825242	-0.208351	-0.379245
O16	O	1.325242	0.291649	0.120755
O17	O	1.004510	-0.387736	-0.379198
O18	O	1.504510	0.112264	0.120802
O19	O	0.889189	-0.221716	-0.490062
O20	O	1.389189	0.278284	0.009938
O21	O	0.842835	-0.292769	-0.232962
O22	O	1.342835	0.207231	0.267038
O23	O	0.723137	-0.310383	-0.379185
O24	O	1.223137	0.189617	0.120815
O25	O	0.794119	-0.418696	-0.636213
O26	O	1.294119	0.081304	-0.136213
O27	O	0.709721	-0.401056	-0.489956
O28	O	1.209721	0.098944	0.010044
O29	O	0.871483	-0.341387	-0.636259
O30	O	1.371483	0.158613	-0.136259
O31	O	0.902405	-0.489768	-0.379138
O32	O	1.402405	0.010232	0.120862
O33	O	0.811712	-0.503114	-0.489930
O34	O	1.311712	-0.003114	0.010070
C35	C	0.693589	-0.355717	-0.434568
C36	C	1.193589	0.144283	0.065432
C37	C	0.623619	-0.355726	-0.434578
C38	C	1.123619	0.144274	0.065422
C39	C	0.117197	-0.403018	-0.492216
C40	C	0.617197	0.096982	0.007784
C41	C	0.182941	-0.403017	-0.492207
C42	C	0.682941	0.096983	0.007793
C43	C	0.222775	-0.355755	-0.434622
C44	C	0.722775	0.144245	0.065378
C45	C	0.196862	-0.308500	-0.377026
C46	C	0.696862	0.191500	0.122974
C47	C	0.131120	-0.308505	-0.377031
C48	C	0.631120	0.191495	0.122969
N49	N	0.326835	-0.299820	-0.427840
N50	N	0.826835	0.200180	0.072160
N51	N	0.389287	-0.299816	-0.427841
N52	N	0.889287	0.200184	0.072159
C53	C	0.420852	-0.355735	-0.434603
C54	C	0.920852	0.144265	0.065397
N55	N	0.387604	-0.411660	-0.441382
N56	N	0.887604	0.088340	0.058618
N57	N	0.325146	-0.411663	-0.441386
N58	N	0.825146	0.088337	0.058614
C59	C	0.294061	-0.355743	-0.434610
C60	C	0.794061	0.144257	0.065390
C61	C	0.518044	-0.402989	-0.492180
C62	C	1.018044	0.097011	0.007820
C63	C	0.583790	-0.402988	-0.492164
C64	C	1.083790	0.097012	0.007836
C65	C	0.597709	-0.308466	-0.376989
C66	C	1.097709	0.191534	0.123011
C67	C	0.531965	-0.308471	-0.377000
C68	C	1.031965	0.191529	0.123000
C69	C	0.492136	-0.355733	-0.434600
C70	C	0.992136	0.144267	0.065400
C71	C	0.857061	-0.519283	-0.434544
C72	C	1.357061	-0.019283	0.065456
C73	C	0.857082	-0.589252	-0.434553
C74	C	1.357082	-0.089252	0.065447
C75	C	0.904335	-0.615156	-0.376922
C76	C	1.404335	-0.115156	0.123078
C77	C	0.904362	-0.680901	-0.376943
C78	C	1.404362	-0.180901	0.123057
C79	C	0.857126	-0.720738	-0.434584
C80	C	1.357126	-0.220738	0.065416
C81	C	0.809869	-0.694828	-0.492225
C82	C	1.309869	-0.194828	0.007775
C83	C	0.809847	-0.629085	-0.492209
C84	C	1.309847	-0.129085	0.007791
N85	N	0.801228	-0.824831	-0.441452
N86	N	1.301228	-0.324831	0.058548
N87	N	0.801252	-0.887284	-0.441461
N88	N	1.301252	-0.387284	0.058539
C89	C	0.857190	-0.918819	-0.434635
C90	C	1.357190	-0.418819	0.065365
N91	N	0.913108	-0.885540	-0.427782
N92	N	1.413108	-0.385540	0.072218
N93	N	0.913084	-0.823081	-0.427768
N94	N	1.413084	-0.323081	0.072232
C95	C	0.857145	-0.792027	-0.434607
C96	C	1.357145	-0.292027	0.065393
C97	C	0.904476	-1.016011	-0.377024
C98	C	1.404476	-0.516011	0.122976
C99	C	0.904503	-1.081758	-0.377051
C100	C	1.404503	-0.581758	0.122949
C101	C	0.810006	-1.095683	-0.492328
C102	C	1.310006	-0.595683	0.007672
C103	C	0.809984	-1.029938	-0.492306
C104	C	1.309984	-0.529938	0.007694
C105	C	0.857218	-0.990105	-0.434650
C106	C	1.357218	-0.490105	0.065350
C107	C	1.021324	-0.355758	-0.434620
C108	C	1.521324	0.144242	0.065380
C109	C	1.091291	-0.355767	-0.434632
C110	C	1.591291	0.144233	0.065368
C111	C	0.828740	-0.384097	-0.669882
C112	C	1.328740	0.115903	-0.169882
C113	C	0.816639	-0.396182	-0.770148
C114	C	1.316639	0.103818	-0.270148
C115	C	0.857229	-0.191555	-0.434664
C116	C	1.357229	0.308445	0.065336
C117	C	0.857268	-0.121591	-0.434693
C118	C	1.357268	0.378409	0.065307
C119	C	0.943649	-0.269252	-1.052876
C120	C	1.443649	0.230748	-0.552876
C121	C	0.955023	-0.257899	-0.958671
C122	C	1.455023	0.242101	-0.458671
C123	C	0.920428	-0.292468	-0.911536
C124	C	1.420428	0.207532	-0.411536
C125	C	0.874457	-0.338394	-0.958615
C126	C	1.374457	0.161606	-0.458615
C127	C	0.863086	-0.349752	-1.052829
C128	C	1.363086	0.150248	-0.552829
C129	C	0.839865	-0.372968	-0.911489
C130	C	1.339865	0.127032	-0.411489
C131	C	0.793894	-0.418894	-0.958567
C132	C	1.293894	0.081106	-0.458567
C133	C	0.782525	-0.430250	-1.052772
C134	C	1.282525	0.069750	-0.552772
C135	C	0.817120	-0.395680	-1.099908
C136	C	1.317120	0.104320	-0.599908
C137	C	0.851236	-0.361610	-0.817274
C138	C	1.351236	0.138390	-0.317274
C139	C	0.770673	-0.442110	-0.817227
C140	C	1.270673	0.057890	-0.317227
C141	C	0.759299	-0.453463	-0.911432
C142	C	1.259299	0.046537	-0.411432
C143	C	0.885460	-0.327443	-0.200220
C144	C	1.385460	0.172557	0.299780
C145	C	0.897683	-0.315180	-0.099955
C146	C	1.397683	0.184820	0.400045
H147	H	0.485614	-0.441473	-0.539081
H148	H	0.985614	0.058527	-0.039081
H149	H	0.204037	-0.441495	-0.539102
H150	H	0.704037	0.058505	-0.039102
C151	C	0.981295	-0.231681	-1.103889
C152	C	1.481295	0.268319	-0.603889
C153	C	1.023996	-0.189038	-1.042500
C154	C	1.523996	0.310962	-0.542500
C155	C	1.058694	-0.154421	-1.089460
C156	C	1.558694	0.345579	-0.589460
H157	H	0.952865	-0.208628	-1.140654
H158	H	1.452865	0.291372	-0.640654
H159	H	1.004307	-0.260181	-1.140611
H160	H	1.504307	0.239819	-0.640611
H161	H	1.000984	-0.160542	-1.005793
H162	H	1.500984	0.339458	-0.505793
H163	H	1.052438	-0.212074	-1.005733
H164	H	1.552438	0.287926	-0.505733
H165	H	1.081707	-0.182921	-1.126183
H166	H	1.581707	0.317079	-0.626183
H167	H	1.030260	-0.131372	-1.126224
H168	H	1.530260	0.368628	-0.626224
H169	H	1.087675	-0.125488	-1.047815
H170	H	1.587675	0.374512	-0.547815
C171	C	0.102874	-0.257281	-0.314529
C172	C	0.602874	0.242719	0.185471
C173	C	0.036777	-0.267414	-0.326839
C174	C	0.536777	0.232586	0.173161
C175	C	0.010736	-0.220247	-0.269262
C176	C	0.510736	0.279753	0.230738
H177	H	0.111989	-0.216564	-0.327763
H178	H	0.611989	0.283436	0.172237
H179	H	0.120924	-0.259138	-0.253879
H180	H	0.620924	0.240862	0.246121
H181	H	0.018733	-0.265551	-0.387474
H182	H	0.518733	0.234449	0.112526
H183	H	0.027644	-0.308121	-0.313597
H184	H	0.527644	0.191879	0.186403
H185	H	0.028786	-0.222104	-0.208613
H186	H	0.528786	0.277896	0.291387
H187	H	0.019856	-0.179533	-0.282502
H188	H	0.519856	0.320467	0.217498
H189	H	-0.034112	-0.227119	-0.277601
H190	H	0.465888	0.272881	0.222399
C191	C	0.758758	-1.139029	-0.554817
C192	C	1.258758	-0.639029	-0.054817
C193	C	0.768883	-1.202148	-0.542485
C194	C	1.268883	-0.702148	-0.042485
C195	C	0.721683	-1.242099	-0.600032
C196	C	1.221683	-0.742099	-0.100032
H197	H	0.760574	-1.135612	-0.615472
H198	H	1.260574	-0.635612	-0.115472
H199	H	0.718053	-1.126735	-0.541550
H200	H	1.218053	-0.626735	-0.041550
H201	H	0.809577	-1.214439	-0.555759
H202	H	1.309577	-0.714439	-0.055759
H203	H	0.767061	-1.205586	-0.481843
H204	H	1.267061	-0.705586	0.018157
H205	H	0.680977	-1.229805	-0.586765
H206	H	1.180977	-0.729805	-0.086765
H207	H	0.723502	-1.238676	-0.660683
H208	H	1.223502	-0.738676	-0.160683
H209	H	0.728542	-1.284929	-0.591667
H210	H	1.228542	-0.784929	-0.091667
H211	H	0.888665	-0.324216	-0.778952
H212	H	1.388665	0.175784	-0.278952
H213	H	0.745098	-0.467651	-1.091101
H214	H	1.245098	0.032349	-0.591101
C215	C	0.804777	-0.408141	-1.202191
C216	C	1.304777	0.091859	-0.702191
C217	C	0.817025	-0.471832	-1.233344
C218	C	1.317025	0.028168	-0.733344
C219	C	0.805656	-0.483334	-1.327562
C220	C	1.305656	0.016666	-0.827562
H221	H	0.831947	-0.381034	-1.223631
H222	H	1.331947	0.118966	-0.723631
H223	H	0.761579	-0.399857	-1.223534
H224	H	1.261579	0.100143	-0.723534
H225	H	0.860217	-0.480109	-1.212011
H226	H	1.360217	0.019891	-0.712011
H227	H	0.789858	-0.498953	-1.211929
H228	H	1.289858	0.001047	-0.711929
H229	H	0.762458	-0.475050	-1.348905
H230	H	1.262458	0.024950	-0.848905
H231	H	0.832827	-0.456223	-1.348993
H232	H	1.332827	0.043777	-0.848993
H233	H	0.813959	-0.526550	-1.348711
H234	H	1.313959	-0.026550	-0.848711
H235	H	0.604881	-0.441470	-0.539054
H236	H	1.104881	0.058530	-0.039054
C237	C	0.503944	-0.257181	-0.314327
C238	C	1.003944	0.242819	0.185673
C239	C	0.530718	-0.260029	-0.225046
C240	C	1.030718	0.239971	0.274954
C241	C	0.504933	-0.212783	-0.167277
C242	C	1.004933	0.287217	0.332723
H243	H	0.459091	-0.263890	-0.322441
H244	H	0.959091	0.236110	0.177559
H245	H	0.513155	-0.216486	-0.327581
H246	H	1.013155	0.283514	0.172419
H247	H	0.521502	-0.300714	-0.211796
H248	H	1.021502	0.199286	0.288204
H249	H	0.575569	-0.253313	-0.216903
H250	H	1.075569	0.246687	0.283097
H251	H	0.514144	-0.172088	-0.180531
H252	H	1.014144	0.327912	0.319469
H253	H	0.460080	-0.219496	-0.175399
H254	H	0.960080	0.280504	0.324601
H255	H	0.523099	-0.214705	-0.106694
H256	H	1.023099	0.285295	0.393306
H257	H	0.771368	-0.607994	-0.539140
H258	H	1.271368	-0.107994	-0.039140
H259	H	0.630142	-0.269985	-0.330099
H260	H	1.130142	0.230015	0.169901
C261	C	0.955696	-0.572021	-0.314302
C262	C	1.455696	-0.072021	0.185698
C263	C	0.997095	-0.608786	-0.263854
C264	C	1.497095	-0.108786	0.236146
C265	C	1.044423	-0.569072	-0.206171
C266	C	1.544423	-0.069072	0.293829
H267	H	0.936460	-0.541652	-0.274879
H268	H	1.436460	-0.041652	0.225121
H269	H	0.978963	-0.550517	-0.348823
H270	H	1.478963	-0.050517	0.151177
H271	H	0.973831	-0.630278	-0.229336
H272	H	1.473831	-0.130278	0.270664
H273	H	1.016346	-0.639153	-0.303254
H274	H	1.516346	-0.139153	0.196746
H275	H	1.067690	-0.547568	-0.240692
H276	H	1.567690	-0.047568	0.259308
H277	H	1.025182	-0.538704	-0.166754
H278	H	1.525182	-0.038704	0.333246
H279	H	1.072521	-0.594011	-0.171942
H280	H	1.572521	-0.094011	0.328058
C281	C	1.004827	-0.207970	-0.907460
C282	C	1.504827	0.292030	-0.407460
C283	C	0.975723	-0.161111	-0.853387
C284	C	1.475723	0.338889	-0.353387
C285	C	1.021580	-0.115100	-0.806196
C286	C	1.521580	0.384900	-0.306196
H287	H	1.023816	-0.188936	-0.948932
H288	H	1.523816	0.311064	-0.448932
H289	H	1.036683	-0.227579	-0.870641
H290	H	1.536683	0.272421	-0.370641
H291	H	0.943878	-0.141504	-0.890204
H292	H	1.443878	0.358496	-0.390204
H293	H	0.956737	-0.180125	-0.811899
H294	H	1.456737	0.319875	-0.311899
H295	H	1.053436	-0.134709	-0.769377
H296	H	1.553436	0.365291	-0.269377
H297	H	1.040566	-0.096071	-0.847674
H298	H	1.540566	0.403929	-0.347674
H299	H	1.001840	-0.083304	-0.769496
H300	H	1.501840	0.416696	-0.269496
H301	H	0.942843	-0.701996	-0.330014
H302	H	1.442843	-0.201996	0.169986
C303	C	0.758600	-1.001926	-0.554902
C304	C	1.258600	-0.501926	-0.054902
C305	C	0.717228	-1.050881	-0.605370
C306	C	1.217228	-0.550881	-0.105370
C307	C	0.669880	-1.025100	-0.663037
C308	C	1.169880	-0.525100	-0.163037
H309	H	0.777820	-0.980993	-0.594313
H310	H	1.277820	-0.480993	-0.094313
H311	H	0.735318	-0.972168	-0.520368
H312	H	1.235318	-0.472168	-0.020368
H313	H	0.740507	-1.080628	-0.639901
H314	H	1.240507	-0.580628	-0.139901
H315	H	0.697992	-1.071818	-0.565983
H316	H	1.197992	-0.571818	-0.065983
H317	H	0.646597	-0.995342	-0.628504
H318	H	1.146597	-0.495342	-0.128504
H319	H	0.689105	-1.004168	-0.702442
H320	H	1.189105	-0.504168	-0.202442
H321	H	0.641800	-1.058311	-0.697281
H322	H	1.141800	-0.558311	-0.197281
C323	C	0.932864	-0.280265	-0.809256
C324	C	1.432864	0.219735	-0.309256
C325	C	0.952671	-0.336440	-0.778082
C326	C	1.452671	0.163560	-0.278082
C327	C	0.964153	-0.325219	-0.683864
C328	C	1.464153	0.174781	-0.183864
H329	H	0.894869	-0.266826	-0.787794
H330	H	1.394869	0.233174	-0.287794
H331	H	0.965225	-0.247992	-0.787950
H332	H	1.465225	0.252008	-0.287950
H333	H	0.920312	-0.368703	-0.799379
H334	H	1.420312	0.131297	-0.299379
H335	H	0.990669	-0.349888	-0.799519
H336	H	1.490669	0.150112	-0.299519
H337	H	0.996514	-0.292946	-0.662558
H338	H	1.496514	0.207054	-0.162558
H339	H	0.926156	-0.311779	-0.662411
H340	H	1.426156	0.188221	-0.162411
H341	H	0.977599	-0.363330	-0.662701
H342	H	1.477599	0.136670	-0.162701
C343	C	0.709443	-0.503324	-0.962714
C344	C	1.209443	-0.003324	-0.462714
C345	C	0.706903	-0.505879	-1.055304
C346	C	1.206903	-0.005879	-0.555304
C347	C	0.660990	-0.551808	-1.102573
C348	C	1.160990	-0.051808	-0.602573
H349	H	0.668977	-0.492299	-0.947383
H350	H	1.168977	0.007701	-0.447383
H351	H	0.720494	-0.543778	-0.947312
H352	H	1.220494	-0.043778	-0.447312
H353	H	0.695848	-0.465434	-1.070701
H354	H	1.195848	0.034566	-0.570701
H355	H	0.747357	-0.516912	-1.070662
H356	H	1.247357	-0.016912	-0.570662
H357	H	0.672041	-0.592262	-1.087171
H358	H	1.172041	-0.092262	-0.587171
H359	H	0.620528	-0.540779	-1.087235
H360	H	1.120528	-0.040779	-0.587235
H361	H	0.659265	-0.553552	-1.165400
H362	H	1.159265	-0.053552	-0.665400
C363	C	0.733151	-0.479558	-0.765899
C364	C	1.233151	0.020442	-0.265899
C365	C	0.752935	-0.459769	-0.673319
C366	C	1.252935	0.040231	-0.173319
C367	C	0.718383	-0.494243	-0.626003
C368	C	1.218383	0.005757	-0.126003
H369	H	0.740449	-0.523726	-0.781209
H370	H	1.240449	-0.023726	-0.281209
H371	H	0.688991	-0.472188	-0.781284
H372	H	1.188991	0.027812	-0.281284
H373	H	0.797085	-0.467143	-0.657941
H374	H	1.297085	0.032857	-0.157941
H375	H	0.745636	-0.415606	-0.657983
H376	H	1.245636	0.084394	-0.157983
H377	H	0.674223	-0.486874	-0.641387
H378	H	1.174223	0.013126	-0.141387
H379	H	0.725684	-0.538410	-0.641320
H380	H	1.225684	-0.038410	-0.141320
H381	H	0.731798	-0.480817	-0.563183
H382	H	1.231798	0.019183	-0.063183
C383	C	0.758619	-0.738178	-0.554708
C384	C	1.258619	-0.238178	-0.054708
C385	C	0.768741	-0.801297	-0.542369
C386	C	1.268741	-0.301297	-0.042369
C387	C	0.721538	-0.841247	-0.599910
C388	C	1.221538	-0.341247	-0.099910
H389	H	0.760434	-0.734765	-0.615365
H390	H	1.260434	-0.234765	-0.115365
H391	H	0.717915	-0.725881	-0.541440
H392	H	1.217915	-0.225881	-0.041440
H393	H	0.809435	-0.813590	-0.555644
H394	H	1.309435	-0.313590	-0.055644
H395	H	0.766920	-0.804730	-0.481725
H396	H	1.266920	-0.304730	0.018275
H397	H	0.680834	-0.828950	-0.586642
H398	H	1.180834	-0.328950	-0.086642
H399	H	0.723357	-0.837829	-0.660563
H400	H	1.223357	-0.337829	-0.160563
H401	H	0.728396	-0.884076	-0.591540
H402	H	1.228396	-0.384076	-0.091540
H403	H	0.942939	-0.983578	-0.330079
H404	H	1.442939	-0.483578	0.169921
H405	H	0.229299	-0.270019	-0.330139
H406	H	0.729299	0.229981	0.169861
C407	C	0.074066	-0.454410	-0.554772
C408	C	0.574066	0.045590	-0.054772
C409	C	0.110833	-0.495803	-0.605181
C410	C	0.610833	0.004197	-0.105181
C411	C	0.071123	-0.543160	-0.662803
C412	C	0.571123	-0.043160	-0.162803
H413	H	0.043667	-0.435205	-0.594223
H414	H	0.543667	0.064795	-0.094223
H415	H	0.052594	-0.477672	-0.520209
H416	H	0.552594	0.022328	-0.020209
H417	H	0.132294	-0.472545	-0.639742
H418	H	0.632294	0.027455	-0.139742
H419	H	0.141230	-0.515024	-0.565754
H420	H	0.641230	-0.015024	-0.065754
H421	H	0.049651	-0.566421	-0.628240
H422	H	0.549651	-0.066421	-0.128240
H423	H	0.040726	-0.523949	-0.702248
H424	H	0.540726	-0.023949	-0.202248
H425	H	0.096064	-0.571254	-0.697006
H426	H	0.596064	-0.071254	-0.197006
H427	H	0.942986	-1.102847	-0.330123
H428	H	1.442986	-0.602847	0.169877
