data_functionalizedCrystal
_audit_creation_method	'MofGen! by Chris Wilmer'
_symmetry_space_group_name_H-M	'P1'
_symmetry_Int_Tables_number	1
_symmetry_cell_setting	triclinic
loop_
_symmetry_equiv_pos_as_xyz
  x,y,z
_cell_length_a	12.827893
_cell_length_b	12.759400
_cell_length_c	12.827885
_cell_angle_alpha	90.029377
_cell_angle_beta	90.019272
_cell_angle_gamma	90.013136
loop_
_atom_site_label
_atom_site_type_symbol
_atom_site_fract_x
_atom_site_fract_y
_atom_site_fract_z
Zn1	Zn	1.597686	-0.418216	0.590852
Zn2	Zn	1.597587	-0.593932	0.416113
Zn3	Zn	1.422927	-0.418267	0.416125
Zn4	Zn	1.422919	-0.593854	0.590813
O5	O	1.510280	-0.506067	0.503476
O6	O	1.743909	-0.441537	0.567683
O7	O	1.574380	-0.570684	0.269879
O8	O	1.446154	-0.271240	0.439324
O9	O	1.743836	-0.570634	0.439304
O10	O	1.574548	-0.271202	0.567695
O11	O	1.446058	-0.441624	0.269888
O12	O	1.276690	-0.441548	0.439287
O13	O	1.446141	-0.570501	0.737054
O14	O	1.276684	-0.570550	0.567629
O15	O	1.574541	-0.441461	0.737083
O16	O	1.574372	-0.740942	0.439266
O17	O	1.446044	-0.740885	0.567618
C18	C	1.238770	-0.506047	0.503456
C19	C	1.122617	-0.506064	0.503472
C20	C	1.510225	-0.779035	0.503459
C21	C	1.510297	-0.895811	0.503487
C22	C	1.070857	-0.569998	0.566882
C23	C	0.950806	-0.570017	0.566900
C24	C	1.577119	-0.950574	0.570385
C25	C	1.577167	-1.060298	0.570410
C26	C	1.443570	-1.060487	0.436632
C27	C	1.443517	-0.950765	0.436612
C28	C	1.643899	-0.895620	0.637259
C29	C	1.710727	-0.950383	0.704161
C30	C	1.710775	-1.060107	0.704187
C31	C	1.643996	-1.115068	0.637310
C32	C	1.782850	-0.506088	0.503496
C33	C	1.899003	-0.506097	0.503505
C34	C	1.510351	-0.505966	0.776046
C35	C	1.510381	-0.505923	0.892199
C36	C	1.510363	-0.232034	0.503515
C37	C	1.510399	-0.115257	0.503532
C38	C	1.510269	-0.506092	0.231966
C39	C	1.510441	-0.505839	0.115813
C40	C	1.573925	-0.442058	0.943998
C41	C	1.573957	-0.442012	1.064049
H42	H	1.115420	-0.624717	0.621160
C43	C	1.062426	-0.432132	0.430146
C44	C	1.077273	-0.440548	0.311318
C45	C	1.017086	-0.366613	0.237989
C46	C	0.942052	-0.284263	0.283489
C47	C	0.927202	-0.275844	0.402324
C48	C	0.987390	-0.349778	0.475653
H49	H	1.132820	-0.501511	0.277630
H50	H	1.028079	-0.372846	0.150020
H51	H	0.897498	-0.229532	0.229207
H52	H	0.871655	-0.214880	0.436012
H53	H	0.976396	-0.343545	0.563622
H54	H	1.643869	-0.806278	0.637244
C55	C	1.784177	-0.889932	0.777726
C56	C	1.784130	-0.769242	0.777702
C57	C	1.857581	-0.708793	0.851269
C58	C	1.931080	-0.769034	0.924861
C59	C	1.931129	-0.889730	0.924888
C60	C	1.857678	-0.950179	0.851320
H61	H	1.729720	-0.724642	0.723222
H62	H	1.857544	-0.619445	0.851249
H63	H	1.985453	-0.724286	0.979320
H64	H	1.985539	-0.934331	0.979367
H65	H	1.857715	-1.039527	0.851341
H66	H	1.628363	-0.387338	1.108594
C67	C	1.436915	-0.579749	0.952345
C68	C	1.482261	-0.662139	1.027399
C69	C	1.408792	-0.735967	1.087541
C70	C	1.289979	-0.727404	1.072630
C71	C	1.244628	-0.645010	0.997572
C72	C	1.318096	-0.571182	0.937430
H73	H	1.570219	-0.668481	1.038440
H74	H	1.442365	-0.796961	1.143104
H75	H	1.235593	-0.782056	1.117151
H76	H	1.156669	-0.638668	0.986531
H77	H	1.284523	-0.510189	0.881867
H78	H	1.456040	-0.560523	1.071274
C79	C	1.370125	-1.120942	0.363064
C80	C	1.415495	-1.196394	0.281074
C81	C	1.342052	-1.256848	0.207502
C82	C	1.223241	-1.241850	0.215920
C83	C	1.177865	-1.166395	0.297914
C84	C	1.251308	-1.105941	0.371486
H85	H	1.503451	-1.207500	0.274839
H86	H	1.375643	-1.312706	0.146804
H87	H	1.168874	-1.286602	0.161457
H88	H	1.089909	-1.155290	0.304149
H89	H	1.217717	-1.050084	0.432183
H90	H	0.906294	-0.624756	0.621185
C91	C	1.784280	-1.120350	0.777776
C92	C	1.738997	-1.195753	0.859801
C93	C	1.812509	-1.255994	0.933387
C94	C	1.931305	-1.240832	0.924948
C95	C	1.976594	-1.165426	0.842920
C96	C	1.903082	-1.105185	0.769334
H97	H	1.651052	-1.206979	0.866051
H98	H	1.778983	-1.311814	0.994110
H99	H	1.985723	-1.285426	0.979421
H100	H	2.064539	-1.154199	0.836670
H101	H	1.936608	-1.049364	0.708611
C102	C	1.370017	-0.890514	0.363025
C103	C	1.378612	-0.905664	0.244235
C104	C	1.305108	-0.845410	0.170651
C105	C	1.223008	-0.770007	0.215857
C106	C	1.214409	-0.754854	0.334654
C107	C	1.287913	-0.815107	0.408238
H108	H	1.439391	-0.961484	0.210765
H109	H	1.311474	-0.856628	0.082710
H110	H	1.168595	-0.725404	0.161386
H111	H	1.153630	-0.699033	0.368124
H112	H	1.281548	-0.803890	0.496179
H113	H	0.943509	-0.451362	0.449211
H114	H	1.644029	-1.204413	0.637349
H115	H	1.628298	-0.387410	0.899468
