data_functionalizedCrystal
_audit_creation_method	'MofGen! by Chris Wilmer'
_symmetry_space_group_name_H-M	'P1'
_symmetry_Int_Tables_number	1
_symmetry_cell_setting	triclinic
loop_
_symmetry_equiv_pos_as_xyz
  x,y,z
_cell_length_a	10.686220
_cell_length_b	12.759394
_cell_length_c	10.686551
_cell_angle_alpha	85.595060
_cell_angle_beta	90.307919
_cell_angle_gamma	94.395603
loop_
_atom_site_label
_atom_site_type_symbol
_atom_site_fract_x
_atom_site_fract_y
_atom_site_fract_z
Zn1	Zn	1.972294	-0.256132	-0.562396
Zn2	Zn	1.956070	-0.446292	-0.352640
Zn3	Zn	1.746413	-0.283009	-0.368713
Zn4	Zn	1.762500	-0.444163	-0.578417
O5	O	1.859319	-0.357399	-0.465542
O6	O	2.145684	-0.271000	-0.521140
O7	O	1.914736	-0.436771	-0.179227
O8	O	1.776435	-0.132417	-0.394427
O9	O	2.133764	-0.410710	-0.367033
O10	O	1.942389	-0.112671	-0.536725
O11	O	1.760702	-0.316807	-0.191036
O12	O	1.573006	-0.314743	-0.409963
O13	O	1.803852	-0.407082	-0.751838
O14	O	1.584824	-0.433143	-0.564031
O15	O	1.957987	-0.268936	-0.740067
O16	O	1.930334	-0.593036	-0.382569
O17	O	1.788119	-0.591472	-0.548446
C18	C	1.533399	-0.376629	-0.490480
C19	C	1.393971	-0.384879	-0.501179
C20	C	1.859248	-0.630372	-0.465527
C21	C	1.859335	-0.747141	-0.465553
C22	C	2.032032	-0.726420	-0.613857
C23	C	2.118421	-0.770918	-0.688016
C24	C	2.118497	-0.880633	-0.688037
C25	C	2.032174	-0.945855	-0.613895
C26	C	1.945785	-0.901357	-0.539736
C27	C	1.945720	-0.791638	-0.539720
C28	C	1.773085	-0.922078	-0.391441
C29	C	1.773012	-0.812363	-0.391411
C30	C	1.686761	-0.987300	-0.317298
C31	C	1.600376	-0.942802	-0.243131
C32	C	1.600304	-0.833080	-0.243112
C33	C	1.686623	-0.767866	-0.317252
C34	C	2.186512	-0.338094	-0.440507
C35	C	2.325942	-0.329868	-0.429838
C36	C	1.884523	-0.334773	-0.792742
C37	C	1.895264	-0.325132	-0.932175
C38	C	1.859427	-0.083356	-0.465582
C39	C	1.859473	0.033425	-0.465599
C40	C	1.834285	-0.379856	-0.139609
C41	C	1.823788	-0.389188	-0.000158
H42	H	1.345547	-0.438290	-0.570440
O43	O	1.383504	-0.266135	-0.347092
C44	C	1.292264	-0.216624	-0.282936
H45	H	1.198482	-0.265420	-0.285599
H46	H	1.322579	-0.209907	-0.181242
H47	H	1.281951	-0.134513	-0.330085
H48	H	1.686578	-0.678528	-0.317238
O49	O	2.032226	-1.052447	-0.613692
C50	C	2.055326	-1.095525	-0.491032
H51	H	2.028345	-1.038595	-0.420378
H52	H	1.997083	-1.173853	-0.473038
H53	H	2.159226	-1.108962	-0.480493
O54	O	2.202441	-0.707674	-0.759965
C55	C	2.325399	-0.728896	-0.723059
H56	H	2.324372	-0.811745	-0.674643
H57	H	2.388558	-0.723012	-0.809340
H58	H	2.362696	-0.669092	-0.655354
H59	H	2.031989	-0.637083	-0.613835
O60	O	1.741144	-0.463465	-0.942192
C61	C	1.806775	-0.532304	-0.860947
H62	H	1.900371	-0.490970	-0.834183
H63	H	1.748660	-0.555698	-0.772658
H64	H	1.824364	-0.605907	-0.910303
H65	H	1.964685	-0.262915	-0.980648
H66	H	2.188830	-0.916862	-0.748438
O67	O	1.686846	-1.093861	-0.317547
C68	C	1.663803	-1.124108	-0.440222
H69	H	1.690709	-1.054589	-0.510852
H70	H	1.722141	-1.192581	-0.458238
H71	H	1.559929	-1.149615	-0.450777
O72	O	1.516650	-1.006308	-0.171150
C73	C	1.535212	-1.112686	-0.187107
H74	H	1.635170	-1.119033	-0.220863
H75	H	1.519561	-1.161421	-0.093796
H76	H	1.465918	-1.143624	-0.259563
H77	H	1.529951	-0.796857	-0.182728
