data_functionalizedCrystal
_audit_creation_method	'MofGen! by Chris Wilmer'
_symmetry_space_group_name_H-M	'P1'
_symmetry_Int_Tables_number	1
_symmetry_cell_setting	triclinic
loop_
_symmetry_equiv_pos_as_xyz
  x,y,z
_cell_length_a	12.759401
_cell_length_b	21.295417
_cell_length_c	12.759393
_cell_angle_alpha	89.961905
_cell_angle_beta	89.980404
_cell_angle_gamma	90.030784
loop_
_atom_site_label
_atom_site_type_symbol
_atom_site_fract_x
_atom_site_fract_y
_atom_site_fract_z
Zn1	Zn	1.606151	-0.250574	-0.593927
Zn2	Zn	1.605994	-0.355856	-0.418224
Zn3	Zn	1.430450	-0.250605	-0.418266
Zn4	Zn	1.430393	-0.355810	-0.593865
O5	O	1.518247	-0.303211	-0.506071
O6	O	1.753151	-0.264546	-0.570628
O7	O	1.582665	-0.341927	-0.271208
O8	O	1.453846	-0.162512	-0.441612
O9	O	1.753035	-0.341897	-0.441539
O10	O	1.582933	-0.162489	-0.570669
O11	O	1.453694	-0.264599	-0.271239
O12	O	1.283421	-0.264555	-0.441552
O13	O	1.453750	-0.341818	-0.740894
O14	O	1.283380	-0.341848	-0.570563
O15	O	1.582878	-0.264501	-0.740940
O16	O	1.582610	-0.443939	-0.441479
O17	O	1.453597	-0.443905	-0.570522
C18	C	1.245279	-0.303200	-0.506056
C19	C	1.128503	-0.303210	-0.506075
C20	C	0.963916	-0.343528	-0.573153
C21	C	1.073640	-0.343521	-0.573142
C22	C	1.073636	-0.262909	-0.439007
C23	C	0.963914	-0.262920	-0.439013
C24	C	1.518109	-0.466763	-0.506012
C25	C	1.518146	-0.536731	-0.506023
C26	C	1.585383	-0.569595	-0.438899
C27	C	1.585432	-0.635337	-0.438922
C28	C	1.518226	-0.668214	-0.506059
C29	C	1.450985	-0.635342	-0.573196
C30	C	1.450945	-0.569601	-0.573178
N31	N	1.426319	-0.771479	-0.514063
N32	N	1.426360	-0.833931	-0.514074
C33	C	1.518344	-0.866288	-0.506119
N34	N	1.610287	-0.833835	-0.498132
N35	N	1.610245	-0.771378	-0.498115
C36	C	1.518262	-0.739499	-0.506086
C37	C	1.585639	-0.970437	-0.439017
C38	C	1.585690	-1.036181	-0.439048
C39	C	1.451233	-1.036185	-0.573316
C40	C	1.451192	-0.970442	-0.573291
C41	C	1.518393	-0.937573	-0.506136
C42	C	1.792280	-0.303223	-0.506086
C43	C	1.909057	-0.303228	-0.506092
C44	C	1.518325	-0.303151	-0.780104
C45	C	1.518359	-0.303125	-0.896881
C46	C	1.518414	-0.139021	-0.506152
C47	C	1.518485	-0.069053	-0.506187
C48	C	1.585601	-0.262860	-0.951768
C49	C	1.585619	-0.262833	-1.061492
C50	C	1.451149	-0.343341	-1.061432
C51	C	1.451127	-0.343365	-0.951710
C52	C	1.518229	-0.303226	-0.233103
C53	C	1.518399	-0.303075	-0.116327
H54	H	1.640105	-0.542834	-0.384220
N55	N	1.378655	-0.386749	-1.120573
H56	H	1.336053	-0.412260	-1.069150
H57	H	1.330070	-0.361115	-1.166108
H58	H	1.640373	-0.230044	-1.106177
N59	N	1.658115	-0.219461	-0.892634
H60	H	1.706769	-0.245060	-0.847114
H61	H	1.700643	-0.193961	-0.944131
N62	N	1.378577	-0.386783	-0.892500
H63	H	1.335989	-0.412271	-0.943882
H64	H	1.421285	-0.415929	-0.846955
H65	H	1.118301	-0.376338	-0.627748
N66	N	0.904745	-0.387004	-0.645493
H67	H	0.956152	-0.412534	-0.687971
H68	H	0.859186	-0.416108	-0.602636
N69	N	1.132804	-0.219433	-0.366663
H70	H	1.210637	-0.225540	-0.376836
H71	H	1.113657	-0.174490	-0.383156
H72	H	0.919247	-0.230102	-0.384399
N73	N	1.657945	-0.670800	-0.366521
H74	H	1.733001	-0.659316	-0.382886
H75	H	1.641561	-0.659394	-0.291467
N76	N	1.378500	-0.670797	-0.645611
H77	H	1.388724	-0.717431	-0.635435
H78	H	1.303467	-0.659353	-0.629192
H79	H	1.396517	-1.062952	-0.627984
N80	N	1.378421	-0.534151	-0.645576
H81	H	1.335853	-0.564951	-0.688115
H82	H	1.329805	-0.506924	-0.602756
H83	H	1.640363	-0.943674	-0.384339
N84	N	1.658210	-1.071628	-0.366640
H85	H	1.648043	-1.118263	-0.376843
H86	H	1.733230	-1.060086	-0.383044
H87	H	1.396437	-0.943683	-0.627945
