data_functionalizedCrystal
_audit_creation_method	'MofGen! by Chris Wilmer'
_symmetry_space_group_name_H-M	'P1'
_symmetry_Int_Tables_number	1
_symmetry_cell_setting	triclinic
loop_
_symmetry_equiv_pos_as_xyz
  x,y,z
_cell_length_a	10.654546
_cell_length_b	14.421503
_cell_length_c	10.654551
_cell_angle_alpha	89.992837
_cell_angle_beta	95.515557
_cell_angle_gamma	89.985070
loop_
_atom_site_label
_atom_site_type_symbol
_atom_site_fract_x
_atom_site_fract_y
_atom_site_fract_z
O1	O	-1.667852	0.077261	0.176361
O2	O	-1.302373	0.077228	0.193172
O3	O	-1.493515	0.077246	0.002027
O4	O	-1.476710	0.077243	0.367506
O5	O	-1.493483	-0.076977	0.002056
O6	O	-1.302341	-0.076995	0.193200
O7	O	-1.667820	-0.076962	0.176390
Cu8	Cu	-1.485078	-0.091061	0.184797
Cu9	Cu	-1.485115	0.091327	0.184764
O10	O	-1.476678	-0.076980	0.367534
C11	C	-1.255559	0.000112	0.191952
C12	C	-1.116116	0.000100	0.188262
C13	C	-1.036630	0.000109	0.300805
C14	C	-0.905609	0.000119	0.297330
C15	C	-0.933572	0.000114	0.068760
C16	C	-1.064590	0.000098	0.072236
C17	C	-1.088156	0.000112	0.416831
C18	C	-1.008669	0.000122	0.529382
C19	C	-0.877648	0.000132	0.525907
C20	C	-0.826114	0.000131	0.409881
N21	N	-1.485061	-0.219342	0.184820
C22	C	-1.396661	-0.469004	0.273165
C23	C	-1.510358	-0.530796	0.298529
C24	C	-1.485091	-0.408503	0.184791
C25	C	-1.371423	-0.530804	0.159457
C26	C	-1.485110	-0.591225	0.184765
C27	C	-1.598846	-0.468935	0.210211
C28	C	-1.459836	-0.468938	0.071089
C29	C	-1.573615	-0.530703	0.096405
C30	C	-1.485078	-0.303242	0.184809
C31	C	-1.485136	-0.696484	0.184746
C32	C	-0.714634	0.000144	0.177612
C33	C	-0.854076	0.000126	0.181311
C34	C	-1.492265	0.000136	-0.044757
C35	C	-1.488572	0.000142	-0.184200
N36	N	-1.485142	0.219608	0.184731
C37	C	-1.486857	0.084208	-0.249727
C38	C	-1.483377	0.084203	-0.380747
C39	C	-1.483332	-0.083940	-0.380702
C40	C	-1.486803	-0.083934	-0.249683
C41	C	-1.488626	0.168284	-0.184244
C42	C	-1.486913	0.252356	-0.249772
C43	C	-1.483433	0.252352	-0.380792
C44	C	-1.481666	0.168275	-0.446285
C45	C	-1.477928	0.000132	0.414318
C46	C	-1.481621	0.000132	0.553761
H47	H	-0.891601	0.000129	-0.025704
N48	N	-1.244091	-0.566801	0.131064
H49	H	-1.245279	-0.636829	0.130452
H50	H	-1.177424	-0.544294	0.197906
N51	N	-1.492378	0.168281	-0.042931
H52	H	-1.570944	0.201289	-0.020887
H53	H	-1.415457	0.201267	-0.001962
N54	N	-1.538675	-0.566787	0.425880
H55	H	-1.466110	-0.606339	0.462948
H56	H	-1.618204	-0.605258	0.415957
H57	H	-1.129310	0.000093	-0.019406
N58	N	-1.431465	-0.432912	-0.056219
H59	H	-1.432491	-0.362885	-0.055494
H60	H	-1.497378	-0.456400	-0.123124
H61	H	-1.321955	-0.441913	0.347962
N62	N	-1.488701	0.343035	-0.179129
H63	H	-1.491133	0.330284	-0.086181
H64	H	-1.565787	0.379806	-0.211504
H65	H	-1.482024	0.320807	-0.434140
H66	H	-1.695003	-0.441873	0.231742
H67	H	-1.050637	0.000114	0.623847
N68	N	-0.684799	0.000142	0.406123
H69	H	-0.658701	-0.057026	0.360427
H70	H	-0.642355	0.000179	0.495059
N71	N	-1.477895	0.168267	-0.587597
H72	H	-1.477070	0.234280	-0.619174
H73	H	-1.554770	0.135222	-0.628562
H74	H	-1.648488	-0.557623	0.021654
N75	N	-1.481445	-0.174617	-0.451336
H76	H	-1.478994	-0.161864	-0.544280
H77	H	-1.559768	-0.211314	-0.437924
N78	N	-1.488656	-0.174598	-0.178986
H79	H	-1.410326	-0.211360	-0.192269
H80	H	-1.565811	-0.211277	-0.211307
N81	N	-1.229470	0.000096	0.420572
H82	H	-1.255575	0.057266	0.466261
H83	H	-1.255411	-0.057113	0.466268
N84	N	-0.791913	0.000083	0.647293
H85	H	-0.844440	0.000065	0.721317
H86	H	-0.736942	0.057244	0.650861
