data_functionalizedCrystal
_audit_creation_method	'MofGen! by Chris Wilmer'
_symmetry_space_group_name_H-M	'P1'
_symmetry_Int_Tables_number	1
_symmetry_cell_setting	triclinic
loop_
_symmetry_equiv_pos_as_xyz
  x,y,z
_cell_length_a	14.971491
_cell_length_b	14.519709
_cell_length_c	12.996460
_cell_angle_alpha	90.007090
_cell_angle_beta	90.007431
_cell_angle_gamma	83.648190
loop_
_atom_site_label
_atom_site_type_symbol
_atom_site_fract_x
_atom_site_fract_y
_atom_site_fract_z
O1	O	1.187011	0.120206	0.085613
O2	O	0.926619	0.134593	0.085606
O3	O	1.063719	-0.006843	0.085600
O4	O	1.049911	0.261642	0.085619
O5	O	1.063705	-0.006851	-0.085533
O6	O	0.926605	0.134586	-0.085528
O7	O	1.186996	0.120198	-0.085521
Cu8	Cu	1.056799	0.127391	-0.101150
Cu9	Cu	1.056816	0.127400	0.101235
O10	O	1.049897	0.261634	-0.085515
C11	C	0.893287	0.133945	0.000038
C12	C	0.793989	0.132014	0.000035
C13	C	0.366287	0.123688	0.093343
C14	C	0.459588	0.125499	0.093339
C15	C	0.506226	0.126406	0.000051
C16	C	0.459560	0.125493	-0.093240
C17	C	0.366261	0.123675	-0.093235
C18	C	0.654024	0.129284	-0.093244
C19	C	0.747329	0.131104	-0.093249
C20	C	0.747351	0.131108	0.093331
C21	C	0.654052	0.129290	0.093336
C22	C	0.607392	0.128379	0.000045
C23	C	1.063068	-0.041206	0.000033
C24	C	1.061140	-0.143586	0.000033
C25	C	1.054041	-0.518478	0.000059
C26	C	1.056012	-0.414171	0.000052
C27	C	1.057590	-0.331035	0.000045
C28	C	1.059562	-0.226722	0.000039
C29	C	1.220328	0.120846	0.000050
C30	C	1.319626	0.122777	0.000059
C31	C	1.050547	0.295998	0.000054
C32	C	1.052476	0.398378	0.000062
N33	N	1.056794	0.127384	-0.243497
C34	C	1.056815	0.127401	-0.663312
C35	C	1.056806	0.127400	-0.546506
C36	C	1.056805	0.127393	-0.453408
C37	C	1.056796	0.127390	-0.336596
N38	N	1.056829	0.127400	0.243582
H39	H	0.328270	0.122943	-0.169197
O40	O	0.792529	0.132022	0.184048
C41	C	0.782712	0.131776	0.369109
C42	C	0.731430	0.130756	0.266453
H43	H	0.733338	0.130733	0.435760
H44	H	0.818288	0.197129	0.373852
H45	H	0.834495	0.068149	0.373709
H46	H	0.679604	0.194339	0.261785
H47	H	0.695916	0.065362	0.261754
H48	H	0.328320	0.122955	0.169310
H49	H	0.497575	0.126235	0.169300
H50	H	0.616080	0.128558	0.169300
O51	O	0.792504	0.131928	-0.183959
C52	C	0.782639	0.131756	-0.369021
C53	C	0.731370	0.130804	-0.266366
H54	H	0.733233	0.130867	-0.435674
H55	H	0.834380	0.068099	-0.373747
H56	H	0.818263	0.197081	-0.373635
H57	H	0.695693	0.065522	-0.261684
H58	H	0.679681	0.194504	-0.261684
H59	H	0.616035	0.128553	-0.169211
O60	O	0.504729	0.126328	-0.183954
C61	C	0.494846	0.126186	-0.369014
C62	C	0.443587	0.125214	-0.266354
H63	H	0.445433	0.125305	-0.435662
H64	H	0.546588	0.062531	-0.373758
H65	H	0.530466	0.191513	-0.373619
H66	H	0.407913	0.059930	-0.261680
H67	H	0.391896	0.188912	-0.261654
