data_functionalizedCrystal
_audit_creation_method	'MofGen! by Chris Wilmer'
_symmetry_space_group_name_H-M	'P1'
_symmetry_Int_Tables_number	1
_symmetry_cell_setting	triclinic
loop_
_symmetry_equiv_pos_as_xyz
  x,y,z
_cell_length_a	19.121241
_cell_length_b	19.121063
_cell_length_c	19.120904
_cell_angle_alpha	94.741613
_cell_angle_beta	90.124528
_cell_angle_gamma	84.996879
loop_
_atom_site_label
_atom_site_type_symbol
_atom_site_fract_x
_atom_site_fract_y
_atom_site_fract_z
Zn1	Zn	1.043557	0.254510	0.452551
Zn2	Zn	1.376890	0.587844	0.785884
Zn3	Zn	1.710224	0.921177	1.119218
Zn4	Zn	1.043470	0.367161	0.339898
Zn5	Zn	1.376803	0.700494	0.673231
Zn6	Zn	1.710137	1.033828	1.006565
Zn7	Zn	0.931342	0.254092	0.330304
Zn8	Zn	1.264675	0.587425	0.663637
Zn9	Zn	1.598009	0.920759	0.996970
Zn10	Zn	0.920835	0.377147	0.452491
Zn11	Zn	1.254168	0.710481	0.785824
Zn12	Zn	1.587502	1.043814	1.119158
O13	O	0.984801	0.313228	0.393811
O14	O	1.318134	0.646561	0.727144
O15	O	1.651468	0.979894	1.060478
O16	O	1.141831	0.265449	0.441648
O17	O	1.475164	0.598783	0.774981
O18	O	1.808498	0.932116	1.108314
O19	O	1.032957	0.347808	0.240344
O20	O	1.366290	0.681141	0.573677
O21	O	1.699624	1.014474	0.907010
O22	O	0.950661	0.155504	0.342530
O23	O	1.283995	0.488837	0.675863
O24	O	1.617328	0.822170	1.009196
O25	O	1.141767	0.348213	0.358882
O26	O	1.475100	0.681547	0.692215
O27	O	1.808434	1.014880	1.025549
O28	O	1.033105	0.155811	0.432344
O29	O	1.366438	0.489144	0.765677
O30	O	1.699772	0.822478	1.099011
O31	O	0.950577	0.264736	0.233295
O32	O	1.283910	0.598070	0.566628
O33	O	1.617244	0.931403	0.899961
O34	O	0.831663	0.274420	0.342472
O35	O	1.164996	0.607753	0.675805
O36	O	1.498330	0.941086	1.009138
O37	O	0.932754	0.365234	0.550781
O38	O	1.266087	0.698567	0.884114
O39	O	1.599420	1.031900	1.217447
O40	O	0.823943	0.364828	0.432242
O41	O	1.157277	0.698161	0.765576
O42	O	1.490610	1.031495	1.098909
O43	O	1.022917	0.275133	0.550825
O44	O	1.356250	0.608466	0.884158
O45	O	1.689584	0.941799	1.217491
O46	O	1.022769	0.467129	0.358824
O47	O	1.356102	0.800463	0.692157
O48	O	1.689435	1.133796	1.025491
O49	O	0.932669	0.474466	0.441546
O50	O	1.266003	0.807800	0.774879
O51	O	1.599336	1.141133	1.108212
C52	C	0.802319	0.320663	0.386310
C53	C	1.135652	0.653996	0.719643
C54	C	1.468985	0.987329	1.052976
C55	C	0.724250	0.323861	0.383118
C56	C	1.057584	0.657194	0.716451
C57	C	1.390917	0.990528	1.049785
C58	C	0.687602	0.282348	0.424782
C59	C	1.020935	0.615681	0.758115
C60	C	1.354268	0.949014	1.091448
C61	C	0.614249	0.285349	0.421777
C62	C	0.947582	0.618683	0.755110
C63	C	1.280915	0.952016	1.088443
C64	C	0.577546	0.329869	0.377111
C65	C	0.910879	0.663202	0.710444
C66	C	1.244212	0.996535	1.043778
C67	C	0.614200	0.371384	0.335443
C68	C	0.947533	0.704717	0.668776
C69	C	1.280866	1.038050	1.002110
C70	C	0.687552	0.368378	0.338445
C71	C	1.020885	0.701711	0.671778
C72	C	1.354218	1.035044	1.005111
C73	C	0.356069	0.341093	0.365885
C74	C	0.689402	0.674426	0.699218
C75	C	1.022736	1.007759	1.032551
C76	C	0.282712	0.344097	0.362887
C77	C	0.616045	0.677430	0.696221
C78	C	0.949378	1.010764	1.029554
C79	C	0.282766	0.258061	0.449221
C80	C	0.616099	0.591395	0.782554
C81	C	0.949432	0.924728	1.115887
C82	C	0.356119	0.255063	0.452222
C83	C	0.689452	0.588396	0.785555
C84	C	1.022785	0.921729	1.118888
C85	C	0.392767	0.296575	0.410551
C86	C	0.726100	0.629908	0.743884
C87	C	1.059433	0.963242	1.077217
C88	C	0.502567	0.332939	0.374040
C89	C	0.835900	0.666273	0.707373
C90	C	1.169234	0.999606	1.040707
C91	C	0.467744	0.293500	0.413619
C92	C	0.801078	0.626833	0.746952
C93	C	1.134411	0.960167	1.080285
C94	C	0.976588	0.496375	0.401236
C95	C	1.309921	0.829708	0.734569
C96	C	1.643254	1.163042	1.067902
C97	C	0.973137	0.574724	0.404438
C98	C	1.306471	0.908058	0.737772
C99	C	1.639804	1.241391	1.071105
C100	C	0.976673	0.321344	0.576998
C101	C	1.310006	0.654677	0.910332
C102	C	1.643340	0.988011	1.243665
C103	C	0.973209	0.324803	0.655062
C104	C	1.306542	0.658136	0.988395
C105	C	1.639876	0.991469	1.321729
C106	C	1.167996	0.305764	0.401342
C107	C	1.501329	0.639097	0.734675
C108	C	1.834663	0.972431	1.068008
C109	C	1.246063	0.302584	0.404551
C110	C	1.579396	0.635917	0.737884
C111	C	1.912729	0.969250	1.071218
C112	C	0.993065	0.129365	0.386373
C113	C	1.326398	0.462698	0.719707
C114	C	1.659732	0.796032	1.053040
C115	C	0.996587	0.051014	0.383204
C116	C	1.329920	0.384347	0.716537
C117	C	1.663253	0.717680	1.049870
C118	C	1.018459	0.607690	0.362913
C119	C	1.351793	0.941024	0.696246
C120	C	1.685126	1.274357	1.029579
C121	C	1.015218	0.681308	0.365929
C122	C	1.348552	1.014642	0.699262
C123	C	1.681885	1.347975	1.032596
C124	C	0.966651	0.721959	0.410467
C125	C	1.299984	1.055293	0.743801
C126	C	1.633318	1.388626	1.077134
C127	C	0.921327	0.688989	0.451998
C128	C	1.254660	1.022322	0.785331
C129	C	1.587994	1.355655	1.118664
C130	C	0.924572	0.615372	0.448985
C131	C	1.257905	0.948705	0.782318
C132	C	1.591239	1.282039	1.115651
C133	C	0.954507	0.944426	0.421721
C134	C	1.287841	1.277760	0.755054
C135	C	1.621174	1.611093	1.088388
C136	C	0.951264	1.018048	0.424729
C137	C	1.284598	1.351381	0.758063
C138	C	1.617931	1.684715	1.091396
C139	C	1.045157	1.010363	0.338661
C140	C	1.378490	1.343696	0.671994
C141	C	1.711824	1.677029	1.005328
C142	C	1.048395	0.936745	0.335649
C143	C	1.381728	1.270078	0.668982
C144	C	1.715062	1.603412	1.002316
C145	C	1.003073	0.903781	0.377182
C146	C	1.336407	1.237114	0.710515
C147	C	1.669740	1.570447	1.043849
C148	C	0.963335	0.797209	0.413550
C149	C	1.296669	1.130542	0.746883
C150	C	1.630002	1.463875	1.080217
C151	C	1.006393	0.828532	0.374103
C152	C	1.339726	1.161866	0.707436
C153	C	1.673060	1.495199	1.040769
C154	C	0.992940	0.305090	0.211336
C155	C	1.326274	0.638424	0.544669
C156	C	1.659607	0.971757	0.878002
C157	C	0.996549	0.301428	0.133270
C158	C	1.329882	0.634761	0.466603
C159	C	1.663216	0.968094	0.799937
C160	C	1.018523	0.279519	0.691760
C161	C	1.351856	0.612852	1.025094
C162	C	1.685189	0.946186	1.358427
C163	C	1.015260	0.282766	0.765109
C164	C	1.348593	0.616100	1.098442
C165	C	1.681926	0.949433	1.431776
C166	C	0.966686	0.331301	0.801758
C167	C	1.300019	0.664635	1.135091
C168	C	1.633353	0.997968	1.468425
C169	C	0.921368	0.376587	0.765054
C170	C	1.254701	0.709920	1.098388
C171	C	1.588034	1.043254	1.431721
C172	C	0.924628	0.373336	0.691707
C173	C	1.257961	0.706669	1.025040
C174	C	1.591294	1.040002	1.358374
C175	C	0.954491	0.343462	1.023219
C176	C	1.287824	0.676795	1.356552
C177	C	1.621158	1.010129	1.689885
C178	C	0.951236	0.346711	1.096572
C179	C	1.284569	0.680045	1.429905
C180	C	1.617902	1.013378	1.763238
C181	C	1.045127	0.252889	1.096621
C182	C	1.378460	0.586223	1.429954
C183	C	1.711794	0.919556	1.763288
C184	C	1.048386	0.249645	1.023272
C185	C	1.381719	0.582979	1.356606
C186	C	1.715052	0.916312	1.689939
C187	C	1.003065	0.294928	0.986575
C188	C	1.336398	0.628262	1.319908
C189	C	1.669732	0.961595	1.653241
C190	C	0.963351	0.334623	0.876732
C191	C	1.296684	0.667957	1.210066
C192	C	1.630018	1.001290	1.543399
C193	C	1.006397	0.291602	0.911602
C194	C	1.339730	0.624936	1.244935
C195	C	1.673064	0.958269	1.578268
H196	H	0.497631	0.257250	0.449982
H197	H	0.830965	0.590583	0.783315
H198	H	1.164298	0.923916	1.116649
Br199	Br	0.855441	0.442453	0.814791
Br200	Br	1.188774	0.775786	1.148125
Br201	Br	1.522108	1.109119	1.481458
Br202	Br	0.885336	1.073218	0.485166
Br203	Br	1.218669	1.406551	0.818499
Br204	Br	1.552003	1.739884	1.151833
Br205	Br	1.072307	0.225726	0.861862
Br206	Br	1.405641	0.559060	1.195195
Br207	Br	1.738974	0.892393	1.528529
H208	H	1.058005	0.574597	0.326641
H209	H	1.391338	0.907930	0.659975
H210	H	1.724672	1.241263	0.993308
H211	H	1.082024	0.216022	1.126508
H212	H	1.415357	0.549355	1.459841
H213	H	1.748690	0.882688	1.793175
H214	H	0.472675	0.369187	0.337673
H215	H	0.806008	0.702521	0.671007
H216	H	1.139342	1.035854	1.004340
Br217	Br	0.863065	0.570632	0.505348
Br218	Br	1.196398	0.903965	0.838681
Br219	Br	1.529732	1.237298	1.172014
H220	H	0.252919	0.224264	0.483146
H221	H	0.586252	0.557597	0.816479
H222	H	0.919586	0.890930	1.149812
H223	H	1.045939	0.795432	0.337842
H224	H	1.379272	1.128766	0.671175
H225	H	1.712606	1.462099	1.004509
H226	H	0.917604	0.917593	0.455537
H227	H	1.250937	1.250926	0.788871
H228	H	1.584270	1.584260	1.122204
Br229	Br	0.855419	0.744157	0.512450
Br230	Br	1.188752	1.077490	0.845783
Br231	Br	1.522086	1.410824	1.179117
H232	H	1.052124	0.708145	0.332114
H233	H	1.385457	1.041479	0.665447
H234	H	1.718791	1.374812	0.998780
H235	H	0.717390	0.402182	0.304517
H236	H	1.050724	0.735515	0.637851
H237	H	1.384057	1.068849	0.971184
Br238	Br	0.897425	0.852384	0.473995
Br239	Br	1.230759	1.185717	0.807328
Br240	Br	1.564092	1.519050	1.140662
H241	H	0.252830	0.380353	0.326515
H242	H	0.586163	0.713687	0.659848
H243	H	0.919497	1.047020	0.993182
Br244	Br	0.885307	0.412582	1.146310
Br245	Br	1.218641	0.745916	1.479643
Br246	Br	1.551974	1.079249	1.812976
Br247	Br	0.564513	0.229007	0.478323
Br248	Br	0.897846	0.562341	0.811657
Br249	Br	1.231180	0.895674	1.144990
Br250	Br	1.084452	0.213652	0.642030
Br251	Br	1.417786	0.546985	0.975363
Br252	Br	1.751119	0.880318	1.308697
H253	H	0.917597	0.380345	0.993349
H254	H	1.250931	0.713678	1.326683
H255	H	1.584264	1.047011	1.660016
Br256	Br	0.897433	0.400492	0.926476
Br257	Br	1.230766	0.733826	1.259810
Br258	Br	1.564099	1.067159	1.593143
Br259	Br	1.114312	0.183776	0.973539
Br260	Br	1.447645	0.517109	1.306873
Br261	Br	1.780978	0.850443	1.640206
H262	H	1.052160	0.245893	0.794986
H263	H	1.385494	0.579226	1.128319
H264	H	1.718827	0.912560	1.461652
H265	H	0.887722	0.410204	0.661827
H266	H	1.221055	0.743537	0.995161
H267	H	1.554388	1.076870	1.328494
Br268	Br	0.405798	0.397412	0.309312
Br269	Br	0.739131	0.730745	0.642645
Br270	Br	1.072465	1.064079	0.975978
H271	H	0.385997	0.218813	0.488596
H272	H	0.719330	0.552146	0.821929
H273	H	1.052664	0.885480	1.155262
Br274	Br	0.737405	0.221931	0.485407
Br275	Br	1.070739	0.555264	0.818741
Br276	Br	1.404072	0.888597	1.152074
H277	H	0.584311	0.407629	0.299072
H278	H	0.917644	0.740962	0.632405
H279	H	1.250977	1.074295	0.965738
H280	H	1.087942	0.903648	0.299382
H281	H	1.421276	1.236981	0.632715
H282	H	1.754609	1.570315	0.966049
Br283	Br	1.106665	1.055103	0.282302
Br284	Br	1.439998	1.388437	0.615635
Br285	Br	1.773331	1.721770	0.948969
