data_functionalizedCrystal
_audit_creation_method	'MofGen! by Chris Wilmer'
_symmetry_space_group_name_H-M	'P1'
_symmetry_Int_Tables_number	1
_symmetry_cell_setting	triclinic
loop_
_symmetry_equiv_pos_as_xyz
  x,y,z
_cell_length_a	14.519731
_cell_length_b	12.996460
_cell_length_c	14.519709
_cell_angle_alpha	90.005823
_cell_angle_beta	83.684499
_cell_angle_gamma	89.993340
loop_
_atom_site_label
_atom_site_type_symbol
_atom_site_fract_x
_atom_site_fract_y
_atom_site_fract_z
O1	O	1.223840	0.085571	0.120987
O2	O	1.557173	0.418905	0.454320
O3	O	1.890507	0.752238	0.787653
O4	O	0.955366	0.085573	0.135203
O5	O	1.288699	0.418906	0.468536
O6	O	1.622033	0.752240	0.801869
O7	O	1.096721	0.085563	-0.006143
O8	O	1.430055	0.418896	0.327190
O9	O	1.763388	0.752230	0.660523
O10	O	1.082485	0.085582	0.262333
O11	O	1.415818	0.418915	0.595666
O12	O	1.749151	0.752248	0.928999
O13	O	1.096739	-0.085571	-0.006151
O14	O	1.430073	0.247762	0.327182
O15	O	1.763406	0.581096	0.660515
O16	O	0.955384	-0.085561	0.135195
O17	O	1.288717	0.247773	0.468528
O18	O	1.622051	0.581106	0.801861
O19	O	1.223858	-0.085563	0.120979
O20	O	1.557192	0.247771	0.454312
O21	O	1.890525	0.581104	0.787645
Cu22	Cu	1.089623	-0.101187	0.128086
Cu23	Cu	1.422956	0.232146	0.461419
Cu24	Cu	1.756290	0.565479	0.794752
Cu25	Cu	1.089601	0.101198	0.128095
Cu26	Cu	1.422935	0.434531	0.461429
Cu27	Cu	1.756268	0.767865	0.794762
O28	O	1.082503	-0.085552	0.262324
O29	O	1.415836	0.247781	0.595658
O30	O	1.749170	0.581114	0.928991
C31	C	0.921016	0.000006	0.134532
C32	C	1.254349	0.333340	0.467866
C33	C	1.587682	0.666673	0.801199
C34	C	0.818635	0.000007	0.132536
C35	C	1.151969	0.333340	0.465870
C36	C	1.485302	0.666673	0.799203
C37	C	0.735491	0.000011	0.130915
C38	C	1.068825	0.333344	0.464248
C39	C	1.402158	0.666678	0.797581
C40	C	0.631182	0.000011	0.128888
C41	C	0.964516	0.333344	0.462221
C42	C	1.297849	0.666678	0.795555
C43	C	0.548043	0.000011	0.127280
C44	C	0.881377	0.333344	0.460613
C45	C	1.214710	0.666678	0.793946
C46	C	0.443728	0.000013	0.125253
C47	C	0.777061	0.333346	0.458586
C48	C	1.110395	0.666680	0.791920
C49	C	1.096067	-0.000004	-0.040507
C50	C	1.429400	0.333329	0.292826
C51	C	1.762734	0.666663	0.626160
C52	C	1.094079	-0.000005	-0.142889
C53	C	1.427412	0.333329	0.190445
C54	C	1.760745	0.666662	0.523778
C55	C	1.258209	0.000007	0.121649
C56	C	1.591542	0.333340	0.454982
C57	C	1.924875	0.666673	0.788315
C58	C	1.360589	0.000013	0.123645
C59	C	1.693922	0.333346	0.456978
C60	C	2.027256	0.666680	0.790311
N61	N	1.089645	-0.243535	0.128079
N62	N	1.422978	0.089799	0.461412
N63	N	1.756312	0.423132	0.794745
N64	N	1.089587	0.243545	0.128095
N65	N	1.422920	0.576879	0.461429
N66	N	1.756253	0.910212	0.794762
C67	C	1.089590	0.336651	0.128096
C68	C	1.422923	0.669984	0.461430
C69	C	1.756256	1.003318	0.794763
C70	C	1.089602	0.453456	0.128095
C71	C	1.422936	0.786790	0.461428
C72	C	1.756269	1.120123	0.794761
C73	C	1.089618	0.546555	0.128088
C74	C	1.422951	0.879888	0.461421
C75	C	1.756284	1.213221	0.794755
C76	C	1.089629	0.663367	0.128085
C77	C	1.422963	0.996700	0.461418
C78	C	1.756296	1.330034	0.794752
C79	C	1.086759	0.000022	-0.517785
C80	C	1.420093	0.333355	-0.184452
C81	C	1.753426	0.666689	0.148882
C82	C	1.088792	0.000014	-0.413477
C83	C	1.422125	0.333348	-0.080143
C84	C	1.755459	0.666681	0.253190
C85	C	1.090419	0.000008	-0.330340
C86	C	1.423752	0.333341	0.002993
C87	C	1.757085	0.666674	0.336327
C88	C	1.092452	0.000002	-0.226025
C89	C	1.425785	0.333335	0.107308
C90	C	1.759118	0.666669	0.440641
C91	C	1.083157	0.000017	0.296688
C92	C	1.416491	0.333350	0.630022
C93	C	1.749824	0.666684	0.963355
C94	C	1.085146	0.000024	0.399070
C95	C	1.418479	0.333358	0.732403
C96	C	1.751812	0.666691	1.065736
