data_functionalizedCrystal
_audit_creation_method	'MofGen! by Chris Wilmer'
_symmetry_space_group_name_H-M	'P1'
_symmetry_Int_Tables_number	1
_symmetry_cell_setting	triclinic
loop_
_symmetry_equiv_pos_as_xyz
  x,y,z
_cell_length_a	17.699077
_cell_length_b	17.699083
_cell_length_c	16.176319
_cell_angle_alpha	89.995661
_cell_angle_beta	89.994578
_cell_angle_gamma	83.281795
loop_
_atom_site_label
_atom_site_type_symbol
_atom_site_fract_x
_atom_site_fract_y
_atom_site_fract_z
O1	O	1.004080	0.095688	-0.068737
O2	O	1.504080	0.595688	0.431263
O3	O	0.783701	0.108145	-0.068741
O4	O	1.283701	0.608145	0.431259
O5	O	0.900117	-0.008273	-0.068732
O6	O	1.400117	0.491727	0.431268
O7	O	0.887665	0.212106	-0.068747
O8	O	1.387665	0.712106	0.431253
O9	O	0.900104	-0.008273	0.068761
O10	O	1.400104	0.491727	0.568761
O11	O	0.783688	0.108145	0.068752
O12	O	1.283688	0.608145	0.568752
O13	O	1.004067	0.095688	0.068756
O14	O	1.504067	0.595688	0.568756
Cu15	Cu	0.893876	0.101916	0.081308
Cu16	Cu	1.393876	0.601916	0.581308
Cu17	Cu	0.893892	0.101917	-0.081294
Cu18	Cu	1.393892	0.601917	0.418706
O19	O	0.887651	0.212106	0.068746
O20	O	1.387651	0.712106	0.568746
C21	C	0.755498	0.107700	0.000005
C22	C	1.255498	0.607700	0.500005
C23	C	0.671479	0.106363	0.000003
C24	C	1.171479	0.606363	0.500003
C25	C	0.632004	0.105733	0.074952
C26	C	1.132004	0.605733	0.574952
C27	C	0.553062	0.104464	0.074953
C28	C	1.053062	0.604464	0.574953
C29	C	0.513595	0.103832	0.000004
C30	C	1.013595	0.603832	0.500004
C31	C	0.553076	0.104460	-0.074950
C32	C	1.053076	0.604460	0.425050
C33	C	0.632017	0.105722	-0.074950
C34	C	1.132017	0.605722	0.425050
C35	C	0.234712	0.099366	-0.074951
C36	C	0.734712	0.599366	0.425049
C37	C	0.155765	0.098106	-0.074945
C38	C	0.655765	0.598106	0.425055
C39	C	0.155757	0.098108	0.074952
C40	C	0.655757	0.598108	0.574952
C41	C	0.234699	0.099371	0.074951
C42	C	0.734699	0.599371	0.574951
C43	C	0.274173	0.099995	-0.000002
C44	C	0.774173	0.599995	0.499998
C45	C	0.359772	0.101369	-0.000002
C46	C	0.859772	0.601369	0.499998
C47	C	0.427997	0.102464	0.000004
C48	C	0.927997	0.602464	0.500004
C49	C	0.899664	-0.036470	0.000015
C50	C	1.399664	0.463530	0.500015
C51	C	0.898326	-0.120488	0.000015
C52	C	1.398326	0.379512	0.500015
C53	C	0.966659	-0.169110	0.000018
C54	C	1.466659	0.330890	0.500018
C55	C	0.965397	-0.248054	0.000010
C56	C	1.465397	0.251946	0.500010
C57	C	0.895800	-0.278373	0.000006
C58	C	1.395800	0.221627	0.500006
C59	C	0.827461	-0.229744	0.000001
C60	C	1.327461	0.270256	0.500001
C61	C	0.828724	-0.150803	0.000003
C62	C	1.328724	0.349197	0.500003
C63	C	0.822366	-0.548107	-0.000005
C64	C	1.322366	-0.048107	0.499995
C65	C	0.821108	-0.627055	-0.000004
C66	C	1.321108	-0.127055	0.499996
C67	C	0.959039	-0.645358	0.000002
C68	C	1.459039	-0.145358	0.500002
C69	C	0.960302	-0.566417	0.000003
C70	C	1.460302	-0.066417	0.500003
C71	C	0.891963	-0.517795	-0.000006
C72	C	1.391963	-0.017795	0.499994
C73	C	0.893333	-0.432196	0.000000
C74	C	1.393333	0.067804	0.500000
C75	C	0.894430	-0.363971	0.000006
C76	C	1.394430	0.136029	0.500006
C77	C	1.032271	0.096133	0.000008
C78	C	1.532271	0.596133	0.500008
C79	C	1.116289	0.097470	0.000004
C80	C	1.616289	0.597470	0.500004
C81	C	0.888104	0.240303	-0.000002
C82	C	1.388104	0.740303	0.499998
C83	C	0.889443	0.324321	-0.000008
C84	C	1.389443	0.824321	0.499992
N85	N	0.893870	0.101916	0.195673
N86	N	1.393870	0.601916	0.695673
N87	N	0.893904	0.101911	-0.195659
N88	N	1.393904	0.601911	0.304341
C89	C	0.939685	0.147763	0.238932
C90	C	1.439685	0.647763	0.738932
C91	C	0.939693	0.147760	0.325479
C92	C	1.439693	0.647760	0.825479
C93	C	0.893882	0.101913	0.368766
C94	C	1.393882	0.601913	0.868766
C95	C	0.848065	0.056060	0.325502
C96	C	1.348065	0.556060	0.825502
C97	C	0.848062	0.056060	0.238956
C98	C	1.348062	0.556060	0.738956
C99	C	0.848079	0.056061	0.674530
C100	C	1.348079	0.556061	1.174530
C101	C	0.848084	0.056067	0.761081
C102	C	1.348084	0.556067	1.261081
C103	C	0.939711	0.147762	0.761052
C104	C	1.439711	0.647762	1.261052
C105	C	0.939707	0.147761	0.674507
C106	C	1.439707	0.647761	1.174507
C107	C	0.893894	0.101906	0.631250
C108	C	1.393894	0.601906	1.131250
C109	C	0.893887	0.101908	0.537406
C110	C	1.393887	0.601908	1.037406
C111	C	0.893884	0.101914	0.462608
C112	C	1.393884	0.601914	0.962608
H113	H	0.664157	0.106237	-0.135981
H114	H	1.164157	0.606237	0.364019
H115	H	0.664132	0.106254	0.135984
H116	H	1.164132	0.606254	0.635984
H117	H	0.520927	0.103939	0.135983
H118	H	1.020927	0.603939	0.635983
C119	C	1.043222	-0.135767	0.000022
C120	C	1.543222	0.364233	0.500022
N121	N	1.100892	-0.110656	0.000022
N122	N	1.600892	0.389344	0.500022
C123	C	0.744543	-0.660404	-0.000015
C124	C	1.244543	-0.160404	0.499985
N125	N	0.686877	-0.685522	-0.000024
N126	N	1.186877	-0.185522	0.499976
H127	H	0.977009	0.185098	0.639267
H128	H	1.477009	0.685098	1.139267
H129	H	0.770794	-0.254436	-0.000007
H130	H	1.270794	0.245564	0.499993
H131	H	1.021041	-0.287639	0.000014
H132	H	1.521041	0.212361	0.500014
C133	C	1.036863	-0.533070	0.000008
C134	C	1.536863	-0.033070	0.500008
N135	N	1.094531	-0.507955	0.000007
N136	N	1.594531	-0.007955	0.500007
H137	H	1.014683	-0.684956	0.000005
H138	H	1.514683	-0.184956	0.500005
C139	C	0.797670	0.005630	0.373121
C140	C	1.297670	0.505630	0.873121
N141	N	0.759709	-0.032353	0.408987
N142	N	1.259709	0.467647	0.908987
C143	C	0.747192	-0.494633	-0.000020
C144	C	1.247192	0.005367	0.499980
N145	N	0.690566	-0.454354	-0.000034
N146	N	1.190566	0.045646	0.499966
C147	C	0.990114	0.198198	0.808643
C148	C	1.490114	0.698198	1.308643
N149	N	1.028076	0.236185	0.844486
N150	N	1.528076	0.736185	1.344486
H151	H	0.773080	-0.111214	0.000001
H152	H	1.273080	0.388786	0.500001
H153	H	0.977002	0.185093	0.360696
H154	H	1.477002	0.685093	0.860696
H155	H	0.976986	0.185102	0.203693
H156	H	1.476986	0.685102	0.703693
C157	C	0.797689	0.005626	0.808696
C158	C	1.297689	0.505626	1.308696
N159	N	0.759734	-0.032364	0.844559
N160	N	1.259734	0.467636	1.344559
C161	C	0.112329	0.097413	0.157403
C162	C	0.612329	0.597413	0.657403
N163	N	0.079621	0.096891	0.219504
N164	N	0.579621	0.596891	0.719504
H165	H	0.266828	0.099890	0.135982
H166	H	0.766828	0.599890	0.635982
C167	C	0.112354	0.097401	-0.157398
C168	C	0.612354	0.597401	0.342602
N169	N	0.079657	0.096869	-0.219499
N170	N	0.579657	0.596869	0.280501
C171	C	0.278125	0.100046	-0.157403
C172	C	0.778125	0.600046	0.342597
N173	N	0.310826	0.100555	-0.219509
N174	N	0.810826	0.600555	0.280491
C175	C	0.797676	0.005625	0.626959
C176	C	1.297676	0.505625	1.126959
N177	N	0.759708	-0.032363	0.591125
N178	N	1.259708	0.467637	1.091125
H179	H	0.520936	0.103939	-0.135974
H180	H	1.020936	0.603939	0.364026
C181	C	0.797660	0.005626	0.191372
C182	C	1.297660	0.505626	0.691372
N183	N	0.759697	-0.032364	0.155534
N184	N	1.259697	0.467636	0.655534
