data_functionalizedCrystal
_audit_creation_method	'MofGen! by Chris Wilmer'
_symmetry_space_group_name_H-M	'P1'
_symmetry_Int_Tables_number	1
_symmetry_cell_setting	triclinic
loop_
_symmetry_equiv_pos_as_xyz
  x,y,z
_cell_length_a	12.759400
_cell_length_b	12.759401
_cell_length_c	19.076919
_cell_angle_alpha	92.283553
_cell_angle_beta	92.274856
_cell_angle_gamma	90.014668
loop_
_atom_site_label
_atom_site_type_symbol
_atom_site_fract_x
_atom_site_fract_y
_atom_site_fract_z
Zn1	Zn	-0.442153	1.582346	-0.397919
Zn2	Zn	-0.610789	1.589312	-0.280231
Zn3	Zn	-0.435125	1.413719	-0.280243
Zn4	Zn	-0.617789	1.406638	-0.397892
O5	O	-0.526464	1.498004	-0.339071
O6	O	-0.464535	1.730291	-0.382314
O7	O	-0.581616	1.571897	-0.181743
O8	O	-0.289038	1.436135	-0.295869
O9	O	-0.588431	1.735408	-0.295849
O10	O	-0.294201	1.560025	-0.382325
O11	O	-0.452557	1.442890	-0.181752
O12	O	-0.459345	1.265759	-0.295843
O13	O	-0.600361	1.424068	-0.496385
O14	O	-0.593547	1.260557	-0.382279
O15	O	-0.471322	1.553160	-0.496405
O16	O	-0.758738	1.565032	-0.295823
O17	O	-0.763881	1.430822	-0.382268
C18	C	-0.526443	1.225037	-0.339060
C19	C	-0.526461	1.108260	-0.339072
C20	C	-0.799431	1.497942	-0.339057
C21	C	-0.916208	1.498011	-0.339074
C22	C	-0.462087	0.940999	-0.384170
C23	C	-0.462073	1.050723	-0.384163
C24	C	-0.590876	1.056066	-0.293989
C25	C	-0.590896	0.946344	-0.293999
C26	C	-0.397687	0.883468	-0.429259
C27	C	-0.333273	0.935654	-0.474343
C28	C	-0.333258	1.045378	-0.474337
C29	C	-0.397657	1.102917	-0.429246
C30	C	-0.968361	1.567965	-0.294112
C31	C	-1.078086	1.568028	-0.294134
C32	C	-1.083497	1.428174	-0.384082
C33	C	-0.973774	1.428116	-0.384063
C34	C	-0.910795	1.637860	-0.249123
C35	C	-0.962947	1.707819	-0.204157
C36	C	-1.072672	1.707882	-0.204178
C37	C	-1.130246	1.637986	-0.249167
C38	C	-0.252433	1.498093	-0.339102
C39	C	-0.135657	1.498131	-0.339114
C40	C	-0.537407	1.487047	-0.522646
C41	C	-0.542070	1.482378	-0.600875
C42	C	-0.526486	1.772036	-0.339083
C43	C	-0.526495	1.888813	-0.339088
C44	C	-0.477080	1.547392	-0.637639
C45	C	-0.481457	1.542992	-0.711143
C46	C	-0.550830	1.473583	-0.747882
C47	C	-0.615823	1.408561	-0.711114
C48	C	-0.611439	1.412957	-0.637611
C49	C	-0.571139	1.453225	-0.967711
C50	C	-0.575520	1.448837	-1.041219
C51	C	-0.441152	1.583267	-1.041243
C52	C	-0.436779	1.587660	-0.967739
C53	C	-0.501768	1.522635	-0.930977
N54	N	-0.555309	1.469086	-0.823015
N55	N	-0.497283	1.527128	-0.855845
C56	C	-0.515489	1.508978	-0.156211
C57	C	-0.510530	1.513851	-0.077982
H58	H	-0.397687	0.794124	-0.429266
H59	H	-0.280848	0.888798	-0.511058
H60	H	-0.420592	1.603916	-0.607731
N61	N	-0.660317	1.118117	-0.245348
H62	H	-0.736061	1.098378	-0.256192
H63	H	-0.650441	1.195525	-0.252202
H64	H	-1.115132	1.764853	-0.167570
N65	N	-0.792451	1.637792	-0.249105
H66	H	-0.765319	1.566492	-0.236126
H67	H	-0.763976	1.692729	-0.213791
N68	N	-0.397638	1.221262	-0.429244
H69	H	-0.375333	1.250564	-0.380984
H70	H	-0.470519	1.246835	-0.442127
N71	N	-0.900859	1.783214	-0.155643
H72	H	-0.823435	1.772561	-0.162451
H73	H	-0.917089	1.769935	-0.105372
H74	H	-0.672304	1.352043	-0.741033
N75	N	-1.248592	1.638060	-0.249183
H76	H	-1.274315	1.566793	-0.236208
H77	H	-1.277776	1.654491	-0.297489
H78	H	-1.130382	1.371267	-0.420708
H79	H	-0.931312	1.371154	-0.420676
N80	N	-0.681525	1.342825	-0.597955
H81	H	-0.726137	1.298186	-0.632381
H82	H	-0.728332	1.387390	-0.567452
H83	H	-0.643344	0.903853	-0.257291
N84	N	-0.411341	1.613093	-0.750796
H85	H	-0.366727	1.657729	-0.716368
H86	H	-0.455911	1.659879	-0.781301
N87	N	-0.263791	1.101660	-0.522965
H88	H	-0.213331	1.148888	-0.494416
H89	H	-0.308570	1.145181	-0.555522
H90	H	-0.632014	1.392312	-1.071130
H91	H	-0.380291	1.644184	-0.937831
H92	H	-0.388241	1.636205	-1.071183
N93	N	-0.641196	1.383060	-0.928066
H94	H	-0.685798	1.338416	-0.962495
H95	H	-0.688014	1.427594	-0.897551
