data_functionalizedCrystal
_audit_creation_method	'MofGen! by Chris Wilmer'
_symmetry_space_group_name_H-M	'P1'
_symmetry_Int_Tables_number	1
_symmetry_cell_setting	triclinic
loop_
_symmetry_equiv_pos_as_xyz
  x,y,z
_cell_length_a	14.560438
_cell_length_b	18.878441
_cell_length_c	18.878441
_cell_angle_alpha	90.001442
_cell_angle_beta	60.000347
_cell_angle_gamma	60.002501
loop_
_atom_site_label
_atom_site_type_symbol
_atom_site_fract_x
_atom_site_fract_y
_atom_site_fract_z
Zr1	Zr	1.005275	-0.092935	0.682392
O2	O	1.196869	-0.206036	0.569288
O3	O	0.813676	-0.058265	0.717065
O4	O	1.005270	-0.206038	0.717066
O5	O	1.005281	0.058304	0.569287
O6	O	1.005270	-0.206036	0.833635
O7	O	1.005275	-0.058264	0.569287
O8	O	0.662544	0.058302	0.833633
O9	O	1.348007	-0.206034	0.569288
O10	O	0.892485	-0.043475	0.818847
O11	O	0.892489	0.043517	0.731852
O12	O	1.118066	-0.130466	0.731853
O13	O	1.118069	-0.043474	0.644858
Zr14	Zr	1.005284	0.092979	0.868306
Zr15	Zr	1.005276	-0.092933	0.868307
Zr16	Zr	1.005283	0.092978	0.682391
Zr17	Zr	1.246322	-0.092931	0.682393
Zr18	Zr	0.764237	0.092976	0.868306
O19	O	1.196883	0.058310	0.833634
O20	O	1.196871	-0.206034	0.833636
O21	O	1.196882	0.058307	0.569287
O22	O	0.813689	0.206081	0.981411
O23	O	0.813677	-0.058262	0.981412
O24	O	0.813688	0.206078	0.717063
O25	O	1.005278	-0.058259	0.981412
O26	O	1.005289	0.206082	0.833633
O27	O	1.005289	0.206081	0.717064
O28	O	1.005283	0.058308	0.981412
O29	O	1.348008	-0.206033	0.717066
O30	O	0.662551	0.206077	0.833633
O31	O	0.662551	0.206079	0.981410
O32	O	0.662545	0.058303	0.981411
O33	O	1.348014	-0.058259	0.569288
O34	O	1.348015	-0.058257	0.717065
O35	O	0.892493	0.130511	0.818846
O36	O	0.892490	0.043519	0.905841
O37	O	1.118070	-0.043472	0.818847
O38	O	1.118074	0.043520	0.731852
C39	C	0.703766	0.000018	0.775349
C40	C	0.601435	0.000017	0.775349
C41	C	1.005278	0.000020	0.542798
C42	C	1.005278	0.000019	0.463872
C43	C	1.005290	0.232570	0.775348
C44	C	1.005294	0.311495	0.775348
C45	C	0.553357	-0.045393	0.820758
C46	C	0.457197	-0.045385	0.820761
C47	C	0.457206	0.045443	0.729940
C48	C	0.553357	0.045440	0.729942
C49	C	0.272274	-0.058663	0.916590
C50	C	0.224208	-0.104087	0.961989
C51	C	0.308933	-0.185464	0.960799
C52	C	0.441744	-0.221437	0.914195
C53	C	0.489812	-0.176019	0.868789
C54	C	0.405068	-0.094627	0.869997
C55	C	0.738290	0.058709	0.634110
C56	C	0.786367	0.104122	0.588698
C57	C	0.701650	0.185500	0.589880
C58	C	0.568850	0.221467	0.636469
C59	C	0.520773	0.176054	0.681880
C60	C	0.605495	0.094677	0.680700
C61	C	1.306793	0.000027	0.775350
C62	C	1.409124	0.000028	0.775350
C63	C	1.005269	-0.232525	0.775351
C64	C	1.005265	-0.311450	0.775351
C65	C	1.123043	0.303168	0.729939
C66	C	1.123039	0.377329	0.729935
C67	C	1.005284	0.459816	0.775345
C68	C	0.887525	0.468141	0.820755
C69	C	0.887531	0.393981	0.820754
C70	C	0.887522	0.622712	0.820756
C71	C	0.887515	0.696877	0.820759
C72	C	1.123030	0.606059	0.729938
C73	C	1.123035	0.531899	0.729937
C74	C	1.005276	0.540230	0.775348
C75	C	1.005278	-0.064201	0.426793
C76	C	1.005271	-0.064198	0.352636
C77	C	1.005273	0.000023	0.315557
C78	C	1.005268	0.064250	0.352643
C79	C	1.005266	0.064250	0.426802
C80	C	1.005276	0.064246	0.198071
C81	C	1.005281	0.064246	0.123906
C82	C	1.005281	-0.064201	0.123905
C83	C	1.005279	-0.064202	0.198064
C84	C	1.005277	0.000024	0.235144
C85	C	1.005281	0.000025	1.007901
C86	C	1.005281	0.000026	1.086827
C87	C	0.703767	0.000020	1.007900
C88	C	0.601436	0.000020	1.086826
C89	C	0.703776	0.232566	0.775348
C90	C	0.601449	0.311489	0.775347
C91	C	0.703778	0.232568	1.007899
C92	C	0.601451	0.311492	1.086824
C93	C	1.306781	-0.232523	0.542800
C94	C	1.409108	-0.311447	0.463874
C95	C	1.306792	0.000024	0.542798
C96	C	1.409122	0.000025	0.463873
C97	C	1.306782	-0.232521	0.775351
C98	C	1.409110	-0.311444	0.775352
C99	C	0.553378	-0.045398	1.078480
C100	C	0.457241	-0.045416	1.152632
C101	C	0.409157	-0.000011	1.235129
C102	C	0.457225	0.045409	1.243473
C103	C	0.553367	0.045421	1.169322
C104	C	0.553397	0.393970	0.820757
C105	C	0.457263	0.468134	0.820753
C106	C	0.409176	0.459815	0.775344
C107	C	0.457237	0.377325	0.729929
C108	C	0.553376	0.303163	0.729928
C109	C	0.553395	0.303147	1.169307
C110	C	0.457262	0.377297	1.243473
C111	C	0.409179	0.459792	1.235154
C112	C	0.457244	0.468136	1.152663
C113	C	0.553382	0.393986	1.078499
C114	C	1.457175	-0.303102	0.381392
C115	C	1.553339	-0.377252	0.307226
C116	C	1.601427	-0.459747	0.315545
C117	C	1.553355	-0.468091	0.398036
C118	C	1.457200	-0.393942	0.472200
C119	C	1.457190	0.045435	0.472218
C120	C	1.553354	0.045433	0.398067
C121	C	1.601441	0.000025	0.315570
C122	C	1.553369	-0.045391	0.307226
C123	C	1.457214	-0.045393	0.381377
C124	C	1.457166	-0.303097	0.820769
C125	C	1.553301	-0.377247	0.820787
C126	C	1.601384	-0.459742	0.775381
C127	C	1.553318	-0.468088	0.729962
C128	C	1.457178	-0.393939	0.729950
H129	H	0.592497	-0.082377	0.857732
C130	C	1.404305	-0.212364	0.372220
N131	N	1.364496	-0.144022	0.365305
H132	H	0.418051	0.082424	0.692970
C133	C	1.707190	-0.541306	0.233953
N134	N	1.786846	-0.602733	0.172495
H135	H	0.592528	-0.082384	1.011314
C136	C	1.707143	-0.541300	0.775401
N137	N	1.786803	-0.602727	0.775418
C138	C	1.404287	-0.212359	0.870729
N139	N	1.364457	-0.144016	0.908366
C140	C	1.606197	-0.368054	0.216494
N141	N	1.646007	-0.361124	0.148157
H142	H	1.592426	-0.370435	0.857771
H143	H	0.418061	0.082376	1.310652
H144	H	1.418065	-0.400747	0.539359
C145	C	1.005270	0.134897	0.083125
N146	N	1.005259	0.188114	0.052410
H147	H	1.592521	-0.535267	0.404799
C148	C	0.606282	0.403142	0.870709
N149	N	0.646116	0.410058	0.908330
H150	H	0.592487	0.236006	0.692953
C151	C	1.606177	-0.558841	0.680054
N152	N	1.645981	-0.627199	0.642474
C153	C	1.005285	0.134894	0.238853
N154	N	1.005303	0.188101	0.269566
C155	C	0.475654	0.310989	0.637771
N156	N	0.405461	0.378417	0.638750
C157	C	0.404402	0.558864	0.870725
N158	N	0.364585	0.627200	0.908367
C159	C	0.303408	0.541404	0.775363
N160	N	0.223737	0.602860	0.775384
H161	H	0.592530	0.235981	1.176097
C162	C	0.757979	0.787614	0.870705
N163	N	0.660410	0.855958	0.908324
C164	C	0.404396	0.368099	1.334205
N165	N	0.364577	0.361169	1.402542
H166	H	1.005287	-0.116499	0.228250
H167	H	0.330896	0.520162	1.295550
H168	H	1.005270	-0.116490	0.322447
H169	H	0.791630	0.629502	0.857731
H170	H	0.418117	-0.082402	1.145821
C171	C	0.303389	-0.000026	1.316690
N172	N	0.223720	-0.000038	1.378118
H173	H	0.807283	-0.007557	0.633143
C174	C	0.606207	0.095398	1.178517
N175	N	0.646000	0.133044	1.185449
C176	C	1.404318	0.095387	0.562958
N177	N	1.364508	0.133009	0.631302
H178	H	1.005263	0.116545	0.456992
C179	C	1.404344	-0.403135	0.679970
N180	N	1.364557	-0.410068	0.642320
C181	C	0.404328	0.558889	1.143527
N182	N	0.364461	0.627246	1.136649
C183	C	1.606205	0.095404	0.407264
N184	N	1.646007	0.133044	0.414195
C185	C	1.707210	0.000040	0.234009
N186	N	1.786871	0.000058	0.172581
H187	H	1.592537	-0.082361	0.240047
H188	H	0.597945	-0.205309	0.830841
H189	H	0.592497	0.400794	1.011341
H190	H	1.418080	-0.082370	0.374569
H191	H	0.510726	-0.287708	0.913220
C192	C	0.256054	-0.235427	1.010742
N193	N	0.216217	-0.273054	1.048364
C194	C	0.078117	-0.064512	1.013256
N195	N	-0.031916	-0.034708	1.051868
H196	H	0.740811	0.222470	0.552892
H197	H	1.218922	0.370541	0.692960
H198	H	0.203272	0.007607	0.917575
H199	H	0.412637	0.205344	0.719813
C200	C	0.932454	0.064553	0.537448
N201	N	1.042485	0.034752	0.498849
H202	H	0.418070	0.370564	0.692958
H203	H	1.218933	0.236007	0.692965
C204	C	0.757993	0.558881	0.870837
N205	N	0.660427	0.627226	0.908611
C206	C	1.005276	-0.134848	0.083118
N207	N	1.005276	-0.188058	0.052393
H208	H	1.218922	0.464736	0.692965
H209	H	1.218914	0.599278	0.692960
H210	H	0.791647	0.400767	0.857728
C211	C	1.005275	-0.134850	0.467573
N212	N	1.005267	-0.188063	0.498290
H213	H	1.005262	0.116544	0.322452
