data_functionalizedCrystal
_audit_creation_method	'MofGen! by Chris Wilmer'
_symmetry_space_group_name_H-M	'P1'
_symmetry_Int_Tables_number	1
_symmetry_cell_setting	triclinic
loop_
_symmetry_equiv_pos_as_xyz
  x,y,z
_cell_length_a	15.944499
_cell_length_b	15.944493
_cell_length_c	15.021413
_cell_angle_alpha	89.990110
_cell_angle_beta	90.009905
_cell_angle_gamma	83.476327
loop_
_atom_site_label
_atom_site_type_symbol
_atom_site_fract_x
_atom_site_fract_y
_atom_site_fract_z
O1	O	1.114533	0.108117	0.074074
O2	O	1.614533	0.608117	0.574074
O3	O	0.869975	0.121519	0.074062
O4	O	1.369975	0.621519	0.574062
O5	O	0.998958	-0.007461	0.074076
O6	O	1.498958	0.492539	0.574076
O7	O	0.985551	0.237097	0.074060
O8	O	1.485551	0.737097	0.574060
O9	O	0.998937	-0.007443	-0.073989
O10	O	1.498937	0.492557	0.426011
O11	O	0.869955	0.121537	-0.074002
O12	O	1.369955	0.621537	0.425998
O13	O	1.114513	0.108135	-0.073991
O14	O	1.614513	0.608135	0.426009
Zn15	Zn	0.992230	0.114839	-0.097505
Zn16	Zn	1.492230	0.614839	0.402495
Zn17	Zn	0.992257	0.114815	0.097576
Zn18	Zn	1.492257	0.614815	0.597576
O19	O	0.985530	0.237116	-0.074004
O20	O	1.485530	0.737116	0.425996
C21	C	0.838670	0.120979	0.000029
C22	C	1.338670	0.620979	0.500029
C23	C	0.745422	0.119334	0.000025
C24	C	1.245422	0.619334	0.500025
C25	C	0.453871	0.194269	0.000034
C26	C	0.953871	0.694269	0.500034
C27	C	0.514918	0.155307	0.073041
C28	C	1.014918	0.655307	0.573041
C29	C	0.409787	0.113358	0.000046
C30	C	0.909787	0.613358	0.500046
C31	C	0.514884	0.155303	-0.072939
C32	C	1.014884	0.655303	0.427061
C33	C	0.574695	0.116299	0.000034
C34	C	1.074695	0.616299	0.500034
C35	C	0.469606	0.074374	0.073114
C36	C	0.969606	0.574374	0.573114
C37	C	0.469565	0.074382	-0.072931
C38	C	0.969565	0.574382	0.427069
C39	C	0.530595	0.035361	0.000094
C40	C	1.030595	0.535361	0.500094
C41	C	0.314787	0.111666	0.000054
C42	C	0.814787	0.611666	0.500054
C43	C	0.669694	0.117984	0.000033
C44	C	1.169694	0.617984	0.500033
C45	C	0.998400	-0.038747	0.000047
C46	C	1.498400	0.461253	0.500047
C47	C	0.996757	-0.131995	0.000059
C48	C	1.496757	0.368005	0.500059
C49	C	1.072679	-0.367769	0.000045
C50	C	1.572679	0.132231	0.500045
C51	C	1.031747	-0.418339	0.073046
C52	C	1.531747	0.081661	0.573046
C53	C	0.993713	-0.302716	0.000048
C54	C	1.493713	0.197284	0.500048
C55	C	1.031709	-0.418297	-0.072933
C56	C	1.531709	0.081703	0.427067
C57	C	0.990778	-0.467625	0.000033
C58	C	1.490778	0.032375	0.500033
C59	C	0.952802	-0.352057	0.073109
C60	C	1.452802	0.147943	0.573109
C61	C	0.952775	-0.352012	-0.072936
C62	C	1.452775	0.147988	0.427064
C63	C	0.911785	-0.402548	0.000082
C64	C	1.411785	0.097452	0.500082
C65	C	0.995405	-0.207716	0.000057
C66	C	1.495405	0.292284	0.500057
C67	C	0.989079	-0.562622	0.000030
C68	C	1.489079	-0.062622	0.500030
C69	C	1.145818	0.108675	0.000045
C70	C	1.645818	0.608675	0.500045
C71	C	1.239066	0.110320	0.000054
C72	C	1.739066	0.610320	0.500054
C73	C	0.986088	0.268401	0.000026
C74	C	1.486088	0.768401	0.500026
C75	C	0.987731	0.361650	0.000021
C76	C	1.487731	0.861650	0.500021
N77	N	0.992218	0.114855	-0.230642
N78	N	1.492218	0.614855	0.269358
C79	C	0.932567	0.174468	-0.470332
C80	C	1.432567	0.674468	0.029668
C81	C	1.008466	0.190761	-0.529664
C82	C	1.508466	0.690761	-0.029664
C83	C	0.992240	0.114834	-0.412249
C84	C	1.492240	0.614834	0.087751
C85	C	0.916361	0.098560	-0.529659
C86	C	1.416361	0.598560	-0.029659
C87	C	0.992254	0.114816	-0.587673
C88	C	1.492254	0.614816	-0.087673
C89	C	1.068177	0.131165	-0.470275
C90	C	1.568177	0.631165	0.029725
C91	C	0.976022	0.038931	-0.470264
C92	C	1.476022	0.538931	0.029736
C93	C	1.051976	0.055192	-0.529570
C94	C	1.551976	0.555192	-0.029570
C95	C	0.992230	0.114847	-0.311192
C96	C	1.492230	0.614847	0.188808
C97	C	0.992272	0.114803	-0.688728
C98	C	1.492272	0.614803	-0.188728
N99	N	0.992276	0.114792	0.230714
N100	N	1.492276	0.614792	0.730714
H101	H	0.420527	0.261416	0.000100
H102	H	0.920527	0.761416	0.500100
H103	H	0.852187	0.084803	-0.555746
H104	H	1.352187	0.584803	-0.055746
H105	H	0.563787	-0.031847	0.000137
H106	H	1.063787	0.468153	0.500137
Br107	Br	1.087341	-0.466608	0.175919
Br108	Br	1.587341	0.033392	0.675919
Br109	Br	1.031354	0.297733	-0.573150
Br110	Br	1.531354	0.797733	-0.073150
Br111	Br	1.087302	-0.466515	-0.175792
Br112	Br	1.587302	0.033485	0.324208
H113	H	0.449643	0.040176	0.134905
H114	H	0.949643	0.540176	0.634905
H115	H	0.919481	-0.323239	0.134892
H116	H	1.419481	0.176761	0.634892
Br117	Br	0.953100	-0.068011	-0.426741
Br118	Br	1.453100	0.431989	0.073259
Br119	Br	0.897243	-0.303694	-0.175814
Br120	Br	1.397243	0.196306	0.324186
H121	H	0.882155	0.224939	-0.444321
H122	H	1.382155	0.724939	0.055679
Br123	Br	0.798328	-0.428309	0.000138
Br124	Br	1.298328	0.071691	0.500138
Br125	Br	1.175166	0.154218	-0.426989
Br126	Br	1.675166	0.654218	0.073011
H127	H	1.102500	0.004751	-0.555417
H128	H	1.602500	0.504751	-0.055417
H129	H	0.535018	0.189524	0.134755
H130	H	1.035018	0.689524	0.634755
H131	H	0.449447	0.040195	-0.134651
H132	H	0.949447	0.540195	0.365349
Br133	Br	0.548324	0.212377	-0.175806
Br134	Br	1.048324	0.712377	0.324194
H135	H	1.140699	-0.352153	0.000122
H136	H	1.640699	0.147847	0.500122
