data_functionalizedCrystal
_audit_creation_method	'MofGen! by Chris Wilmer'
_symmetry_space_group_name_H-M	'P1'
_symmetry_Int_Tables_number	1
_symmetry_cell_setting	triclinic
loop_
_symmetry_equiv_pos_as_xyz
  x,y,z
_cell_length_a	11.792241
_cell_length_b	11.792241
_cell_length_c	7.540329
_cell_angle_alpha	90.001242
_cell_angle_beta	89.998613
_cell_angle_gamma	95.806585
loop_
_atom_site_label
_atom_site_type_symbol
_atom_site_fract_x
_atom_site_fract_y
_atom_site_fract_z
O1	O	-0.155566	1.506906	-0.147289
O2	O	0.177767	1.840240	0.186044
O3	O	0.511101	2.173573	0.519378
O4	O	-0.171599	1.176565	-0.147328
O5	O	0.161734	1.509899	0.186005
O6	O	0.495068	1.843232	0.519338
O7	O	0.001588	1.349752	-0.147318
O8	O	0.334921	1.683086	0.186015
O9	O	0.668255	2.016419	0.519348
O10	O	-0.328753	1.333719	-0.147299
O11	O	0.004580	1.667053	0.186034
O12	O	0.337914	2.000386	0.519368
O13	O	0.001590	1.349742	0.147647
O14	O	0.334923	1.683075	0.480980
O15	O	0.668257	2.016409	0.814313
O16	O	-0.171597	1.176555	0.147637
O17	O	0.161736	1.509888	0.480970
O18	O	0.495070	1.843222	0.814303
O19	O	-0.155564	1.506896	0.147676
O20	O	0.177769	1.840229	0.481009
O21	O	0.511103	2.173563	0.814343
Cu22	Cu	-0.163580	1.341725	0.174589
Cu23	Cu	0.169753	1.675058	0.507922
Cu24	Cu	0.503086	2.008391	0.841256
Cu25	Cu	-0.163583	1.341737	-0.174241
Cu26	Cu	0.169751	1.675070	0.159092
Cu27	Cu	0.503084	2.008403	0.492425
O28	O	-0.328751	1.333709	0.147666
O29	O	0.004582	1.667042	0.480999
O30	O	0.337916	2.000376	0.814333
C31	C	-0.170591	1.134269	0.000149
C32	C	0.162742	1.467603	0.333482
C33	C	0.496076	1.800936	0.666816
C34	C	-0.167576	1.008255	0.000133
C35	C	0.165757	1.341589	0.333466
C36	C	0.499090	1.674922	0.666800
C37	C	-0.162034	0.777543	0.000184
C38	C	0.171300	1.110877	0.333517
C39	C	0.504633	1.444210	0.666850
C40	C	-0.165113	0.905928	0.000156
C41	C	0.168220	1.239262	0.333489
C42	C	0.501553	1.572595	0.666822
C43	C	-0.371043	1.334721	0.000186
C44	C	-0.037710	1.668055	0.333520
C45	C	0.295624	2.001388	0.666853
C46	C	-0.497057	1.337736	0.000194
C47	C	-0.163723	1.671069	0.333528
C48	C	0.169610	2.004402	0.666861
C49	C	-0.727769	1.343279	0.000150
C50	C	-0.394436	1.676612	0.333484
C51	C	-0.061102	2.009945	0.666817
C52	C	-0.599384	1.340199	0.000174
C53	C	-0.266050	1.673532	0.333508
C54	C	0.067283	2.006866	0.666841
C55	C	0.043880	1.348740	0.000158
C56	C	0.377213	1.682073	0.333491
C57	C	0.710547	2.015407	0.666824
C58	C	0.169894	1.345726	0.000138
C59	C	0.503227	1.679059	0.333471
C60	C	0.836560	2.012392	0.666804
C61	C	-0.156572	1.549192	0.000195
C62	C	0.176761	1.882525	0.333528
C63	C	0.510095	2.215859	0.666861
C64	C	-0.159587	1.675206	0.000199
C65	C	0.173747	2.008539	0.333532
C66	C	0.507080	2.341873	0.666866
N67	N	-0.163578	1.341724	0.419937
N68	N	0.169756	1.675058	0.753271
N69	N	0.503089	2.008391	1.086604
N70	N	-0.163576	1.341746	-0.419590
N71	N	0.169757	1.675079	-0.086257
N72	N	0.503090	2.008413	0.247077
