data_functionalizedCrystal
_audit_creation_method	'MofGen! by Chris Wilmer'
_symmetry_space_group_name_H-M	'P1'
_symmetry_Int_Tables_number	1
_symmetry_cell_setting	triclinic
loop_
_symmetry_equiv_pos_as_xyz
  x,y,z
_cell_length_a	25.639239
_cell_length_b	12.827893
_cell_length_c	12.827885
_cell_angle_alpha	89.980728
_cell_angle_beta	89.964018
_cell_angle_gamma	90.038657
loop_
_atom_site_label
_atom_site_type_symbol
_atom_site_fract_x
_atom_site_fract_y
_atom_site_fract_z
Zn1	Zn	-0.208126	1.597500	-0.590804
Zn2	Zn	-0.295571	1.597324	-0.416045
Zn3	Zn	-0.208151	1.422742	-0.416077
Zn4	Zn	-0.295532	1.422656	-0.590745
O5	O	-0.251845	1.510055	-0.503418
O6	O	-0.219731	1.743713	-0.567633
O7	O	-0.284002	1.574127	-0.269813
O8	O	-0.134983	1.446034	-0.439293
O9	O	-0.283977	1.743583	-0.439238
O10	O	-0.134964	1.574428	-0.567664
O11	O	-0.219775	1.445862	-0.269837
O12	O	-0.219737	1.276494	-0.439236
O13	O	-0.283911	1.445888	-0.736989
O14	O	-0.283935	1.276431	-0.567564
O15	O	-0.219694	1.574345	-0.737032
O16	O	-0.368731	1.574044	-0.439181
O17	O	-0.368702	1.445716	-0.567533
C18	C	-0.251835	1.238546	-0.503398
C19	C	-0.251843	1.122392	-0.503414
C20	C	-0.387688	1.509880	-0.503370
C21	C	-0.445802	1.509900	-0.503384
C22	C	-0.283660	1.070604	-0.566817
C23	C	-0.283670	0.950554	-0.566835
C24	C	-0.806167	1.577050	-0.436699
C25	C	-0.860771	1.577090	-0.436713
O26	O	-0.889010	1.634001	-0.379962
N27	N	-0.888084	1.510239	-0.503487
C28	C	-0.860790	1.443350	-0.570259
O29	O	-0.889035	1.386493	-0.627057
C30	C	-0.806186	1.443316	-0.570249
C31	C	-0.778876	1.510164	-0.503463
C32	C	-0.778857	1.643893	-0.369920
C33	C	-0.724256	1.643851	-0.369904
C34	C	-0.696966	1.576966	-0.436669
C35	C	-0.724276	1.510122	-0.503448
C36	C	-0.778893	1.376433	-0.637026
C37	C	-0.724286	1.376405	-0.637011
C38	C	-0.696976	1.443253	-0.570225
C39	C	-0.642385	1.443194	-0.570198
N40	N	-0.615072	1.510045	-0.503424
C41	C	-0.642363	1.576931	-0.436659
C42	C	-0.975460	1.443429	-0.570275
C43	C	-1.030063	1.443458	-0.570280
C44	C	-1.030040	1.577199	-0.436735
C45	C	-0.975437	1.577165	-0.436726
C46	C	-0.948148	1.510281	-0.503501
C47	C	-0.527698	1.576837	-0.436632
C48	C	-0.473092	1.576786	-0.436620
C49	C	-0.473119	1.443049	-0.570168
C50	C	-0.527720	1.443095	-0.570177
C51	C	-0.555008	1.509998	-0.503405
O52	O	-0.614112	1.386315	-0.626923
O53	O	-0.614110	1.633789	-0.379880
C54	C	-0.115472	1.510260	-0.503489
C55	C	-0.057358	1.510348	-0.503519
C56	C	-0.251795	1.510127	-0.775988
C57	C	-0.251773	1.510157	-0.892141
C58	C	-0.251856	1.782626	-0.503438
C59	C	-0.251860	1.898779	-0.503447
C60	C	-0.219991	1.573729	-0.943947
C61	C	-0.219968	1.573761	-1.063998
C62	C	-0.251857	1.510045	-0.231908
C63	C	-0.251731	1.510217	-0.115755
H64	H	-0.310911	0.906017	-0.621113
C65	C	-0.914018	1.428766	-0.710834
C66	C	-0.945466	1.369892	-0.643671
H67	H	-0.895506	1.383367	-0.756149
H68	H	-0.889936	1.468560	-0.671070
H69	H	-0.935287	1.474288	-0.750846
H70	H	-0.924197	1.324376	-0.603653
H71	H	-0.969551	1.330081	-0.683440
H72	H	-1.052294	1.389013	-0.624654
H73	H	-0.801120	1.321993	-0.691405
H74	H	-0.224621	0.943309	-0.449159
H75	H	-0.278964	1.455748	-0.936665
C76	C	-0.795540	1.820903	-0.319197
C77	C	-0.808827	1.717455	-0.296520
H78	H	-0.814031	1.866324	-0.273870
H79	H	-0.804471	1.836155	-0.389410
H80	H	-0.759105	1.830389	-0.309670
H81	H	-0.845262	1.707967	-0.306054
H82	H	-0.799899	1.702198	-0.226290
C83	C	-0.244570	0.999475	-0.362988
C84	C	-0.215081	1.062287	-0.430134
H85	H	-0.221874	0.962378	-0.317740
H86	H	-0.264523	0.951426	-0.402770
H87	H	-0.267306	1.042027	-0.322905
H88	H	-0.192348	1.019733	-0.470224
H89	H	-0.195119	1.110341	-0.390349
H90	H	-0.450858	1.631221	-0.382231
C91	C	-0.131445	1.624778	-1.097842
C92	C	-0.183231	1.647241	-1.124127
H93	H	-0.108765	1.670148	-1.134961
H94	H	-0.123800	1.554574	-1.115685
H95	H	-0.126648	1.634395	-1.025053
H96	H	-0.188028	1.637616	-1.196916
H97	H	-0.190879	1.717462	-1.106291
C98	C	-0.589012	1.717502	-0.422253
C99	C	-0.557681	1.650393	-0.363243
H100	H	-0.607517	1.762917	-0.376944
H101	H	-0.613100	1.677705	-0.462001
H102	H	-0.567664	1.757410	-0.467823
H103	H	-0.579029	1.610479	-0.317678
H104	H	-0.533590	1.690194	-0.323478
C105	C	-0.290941	1.193546	-0.707222
C106	C	-0.320425	1.130723	-0.640079
H107	H	-0.313640	1.230663	-0.752447
H108	H	-0.268214	1.151007	-0.747322
H109	H	-0.270979	1.241587	-0.667430
H110	H	-0.340384	1.082677	-0.679872
H111	H	-0.343162	1.173265	-0.599976
C112	C	-0.729797	1.244223	-0.769030
C113	C	-0.694290	1.302882	-0.710415
H114	H	-0.711278	1.198830	-0.814341
H115	H	-0.751055	1.289753	-0.809039
H116	H	-0.751132	1.204290	-0.723459
H117	H	-0.672957	1.342822	-0.755986
H118	H	-0.673024	1.257347	-0.670403
C119	C	-0.707497	1.694868	-0.192994
C120	C	-0.694244	1.717348	-0.296501
H121	H	-0.688974	1.740254	-0.147681
H122	H	-0.698580	1.624672	-0.177632
H123	H	-0.743925	1.704451	-0.183470
H124	H	-0.657817	1.707758	-0.306028
H125	H	-0.703158	1.787562	-0.311868
H126	H	-0.953205	1.631599	-0.382344
H127	H	-1.052270	1.631665	-0.382375
C128	C	-0.522254	1.310900	-0.702184
C129	C	-0.557742	1.369616	-0.643587
H130	H	-0.540787	1.265548	-0.747516
H131	H	-0.501001	1.270931	-0.656611
H132	H	-0.500912	1.356405	-0.742180
H133	H	-0.579082	1.324112	-0.603586
H134	H	-0.579004	1.409589	-0.689167
C135	C	-0.194550	1.750680	-0.910170
C136	C	-0.183277	1.647177	-0.883859
H137	H	-0.171881	1.796024	-0.873080
H138	H	-0.229687	1.765892	-0.892308
H139	H	-0.189719	1.760322	-0.982965
H140	H	-0.188112	1.637533	-0.811064
H141	H	-0.148132	1.631960	-0.901713
H142	H	-0.278945	1.455792	-1.071210
H143	H	-0.450891	1.388588	-0.624524
