data_functionalizedCrystal
_audit_creation_method	'MofGen! by Chris Wilmer'
_symmetry_space_group_name_H-M	'P1'
_symmetry_Int_Tables_number	1
_symmetry_cell_setting	triclinic
loop_
_symmetry_equiv_pos_as_xyz
  x,y,z
_cell_length_a	31.640172
_cell_length_b	31.640172
_cell_length_c	12.970454
_cell_angle_alpha	90.002799
_cell_angle_beta	60.005854
_cell_angle_gamma	60.005009
loop_
_atom_site_label
_atom_site_type_symbol
_atom_site_fract_x
_atom_site_fract_y
_atom_site_fract_z
Zr1	Zr	0.462581	-0.055468	0.993369
O2	O	0.550739	-0.122946	0.828773
O3	O	0.374417	-0.034783	1.043806
O4	O	0.462573	-0.122950	1.043833
O5	O	0.462592	0.034769	0.828748
O6	O	0.462573	-0.122952	1.213499
O7	O	0.462583	-0.034779	0.828746
O8	O	0.304879	0.034762	1.213452
O9	O	0.620287	-0.122945	0.828796
O10	O	0.410683	-0.025962	1.191962
O11	O	0.410689	0.025943	1.065344
O12	O	0.514481	-0.077862	1.065375
O13	O	0.514487	-0.025958	0.938756
Zr14	Zr	0.462596	0.055450	1.263971
Zr15	Zr	0.462582	-0.055471	1.263968
Zr16	Zr	0.462595	0.055453	0.993373
Zr17	Zr	0.573501	-0.055467	0.993406
Zr18	Zr	0.351676	0.055449	1.263934
O19	O	0.550760	0.034765	1.213534
O20	O	0.550740	-0.122951	1.213529
O21	O	0.550759	0.034770	0.828778
O22	O	0.374438	0.122928	1.428568
O23	O	0.374418	-0.034788	1.428563
O24	O	0.374437	0.122933	1.043812
O25	O	0.462585	-0.034787	1.428592
O26	O	0.462604	0.122932	1.213508
O27	O	0.462604	0.122934	1.043841
O28	O	0.462593	0.034761	1.428595
O29	O	0.620287	-0.122948	1.043886
O30	O	0.304890	0.122930	1.213455
O31	O	0.304890	0.122927	1.428545
O32	O	0.304879	0.034760	1.428542
O33	O	0.620298	-0.034778	0.828799
O34	O	0.620298	-0.034780	1.043889
O35	O	0.410696	0.077844	1.191966
O36	O	0.410690	0.025940	1.318584
O37	O	0.514488	-0.025961	1.191997
O38	O	0.514494	0.025944	1.065378
C39	C	0.323844	-0.000011	1.128624
C40	C	0.276756	-0.000011	1.128608
C41	C	-0.015290	-0.027098	1.194789
C42	C	-0.192285	-0.027098	1.194815
O43	O	-0.215193	-0.050121	1.251072
N44	N	-0.214411	-0.000005	1.128720
C45	C	-0.192288	0.027092	1.062621
O46	O	-0.215173	0.050141	1.006414
C47	C	-0.015296	0.027095	1.062603
C48	C	0.006832	-0.000004	1.128692
C49	C	0.006838	-0.054194	1.260874
C50	C	0.051086	-0.054196	1.260861
C51	C	0.073208	-0.027102	1.194764
C52	C	0.051080	-0.000006	1.128679
C53	C	0.006823	0.054195	0.996511
C54	C	0.051073	0.054194	0.996515
C55	C	0.073201	0.027095	1.062604
C56	C	0.117450	0.027086	1.062569
N57	N	0.139576	-0.000007	1.128664
C58	C	0.117455	-0.027101	1.194761
C59	C	-0.285210	0.027088	1.062633
C60	C	-0.329458	0.027087	1.062635
C61	C	-0.329453	-0.027102	1.194832
C62	C	-0.285202	-0.027104	1.194821
C63	C	-0.263085	-0.000004	1.128728
C64	C	0.210380	-0.027104	1.194728
C65	C	0.254634	-0.027105	1.194706
C66	C	0.254623	0.027086	1.062515
C67	C	0.210375	0.027086	1.062532
C68	C	0.188253	-0.000010	1.128648
O69	O	0.140380	0.050102	1.006353
O70	O	0.140338	-0.050136	1.250982
C71	C	-0.059538	-0.027096	1.194802
C72	C	-0.081666	0.000000	1.128717
C73	C	-0.059544	0.027094	1.062620
C74	C	-0.125913	-0.000001	1.128720
C75	C	-0.148034	-0.027095	1.194817
C76	C	-0.125908	-0.054188	1.260912
C77	C	-0.081659	-0.054190	1.260899
C78	C	-0.081670	0.054187	0.996525
C79	C	-0.125918	0.054186	0.996542
C80	C	-0.148039	0.027092	1.062639
C81	C	0.462571	-0.138755	1.128666
C82	C	0.462565	-0.185844	1.128664
C83	C	0.516776	-0.504970	1.062605
C84	C	0.516786	-0.681966	1.062606
O85	O	0.562866	-0.727892	1.006455
N86	N	0.462605	-0.677005	1.128681
C87	C	0.408417	-0.627790	1.194767
O88	O	0.362333	-0.627631	1.250978
C89	C	0.408407	-0.450795	1.194772
C90	C	0.462592	-0.455761	1.128682
C91	C	0.570956	-0.509934	0.996522
C92	C	0.570953	-0.465687	0.996516
C93	C	0.516769	-0.416477	1.062594
C94	C	0.462589	-0.411514	1.128677
C95	C	0.354220	-0.401582	1.260865
C96	C	0.354223	-0.357333	1.260863
C97	C	0.408408	-0.362298	1.194773
C98	C	0.408402	-0.318058	1.194749
N99	N	0.462584	-0.323020	1.128675
C100	C	0.516767	-0.372229	1.062597
C101	C	0.408426	-0.720716	1.194757
C102	C	0.408428	-0.764965	1.194754
C103	C	0.516797	-0.819138	1.062595
C104	C	0.516795	-0.774888	1.062592
C105	C	0.462607	-0.725678	1.128683
C106	C	0.516756	-0.279306	1.062590
C107	C	0.516749	-0.235054	1.062586
C108	C	0.408380	-0.180884	1.194750
C109	C	0.408387	-0.225133	1.194749
C110	C	0.462581	-0.274345	1.128666
O111	O	0.362347	-0.272117	1.250882
O112	O	0.562844	-0.372377	1.006417
C113	C	0.516779	-0.549217	1.062610
C114	C	0.462599	-0.544254	1.128693
C115	C	0.408415	-0.495044	1.194771
C116	C	0.462601	-0.588502	1.128690
C117	C	0.516784	-0.637712	1.062612
C118	C	0.570965	-0.642673	0.996538
C119	C	0.570962	-0.598427	0.996532
C120	C	0.354234	-0.490083	1.260846
C121	C	0.354241	-0.534332	1.260844
C122	C	0.408425	-0.583541	1.194767
C123	C	0.601333	-0.000007	1.128717
C124	C	0.648421	-0.000007	1.128733
C125	C	0.462588	-0.000005	0.790193
C126	C	0.462588	-0.000003	0.675317
C127	C	0.462606	0.138737	1.128675
C128	C	0.462612	0.185826	1.128677
C129	C	0.462589	-0.000013	1.467148
C130	C	0.462589	-0.000015	1.582024
C131	C	0.323845	-0.000015	1.467101
C132	C	0.276757	-0.000017	1.581962
C133	C	0.323862	0.138735	1.128629
C134	C	0.276779	0.185824	1.128614
C135	C	0.323862	0.138731	1.467106
C136	C	0.276780	0.185818	1.581968
C137	C	0.601315	-0.138749	0.790234
C138	C	0.648397	-0.185836	0.675372
C139	C	0.601332	-0.000003	0.790239
C140	C	0.648420	-0.000001	0.675379
C141	C	0.601315	-0.138753	1.128712
C142	C	0.648398	-0.185842	1.128726
C143	C	0.254640	-0.027114	1.569806
C144	C	0.210402	-0.027127	1.677719
C145	C	0.188278	-0.000038	1.797787
C146	C	0.210399	0.027060	1.809940
C147	C	0.254639	0.027069	1.702028
C148	C	0.254672	0.235034	1.194703
C149	C	0.210439	0.279283	1.194685
C150	C	0.188311	0.274320	1.128585
C151	C	0.210422	0.225105	1.062488
C152	C	0.254657	0.180858	1.062500
C153	C	0.254666	0.180837	1.702014
C154	C	0.210434	0.225076	1.809949
C155	C	0.188312	0.274296	1.797836
C156	C	0.210430	0.279276	1.677778
C157	C	0.254665	0.235037	1.569846
C158	C	0.670516	-0.180855	0.555327
C159	C	0.714762	-0.225094	0.447392
C160	C	0.736886	-0.274314	0.459504
C161	C	0.714765	-0.279294	0.579562
C162	C	0.670523	-0.235055	0.687495
C163	C	0.670542	0.027092	0.687535
C164	C	0.714792	0.027092	0.579621
C165	C	0.736918	0.000001	0.459554
C166	C	0.714794	-0.027095	0.447400
C167	C	0.670548	-0.027098	0.555312
C168	C	0.670512	-0.180863	1.194839
C169	C	0.714745	-0.225104	1.194877
C170	C	0.736867	-0.274322	1.128794
C171	C	0.714748	-0.279300	1.062679
C172	C	0.670513	-0.235060	1.062649
H173	H	0.192373	-0.049167	1.248568
F174	F	0.738280	-0.219795	1.265242
F175	F	0.646986	-0.240367	0.992267
H176	H	0.272665	0.239100	1.472103
F177	F	0.278170	0.055915	1.714985
H178	H	0.310114	-0.530280	1.314658
H179	H	0.310110	-0.450017	1.314658
F180	F	0.646983	-0.240365	0.815253
F181	F	0.278184	-0.055950	1.265046
F182	F	0.647006	-0.055932	0.542356
F183	F	0.186845	0.055890	1.937736
F184	F	0.186900	0.219765	1.937711
F185	F	0.646977	-0.128476	0.542407
H186	H	0.772946	0.000008	0.371695
F187	F	0.628634	-0.603719	0.926183
H188	H	0.272651	0.140790	1.008686
F189	F	0.783973	-0.321393	0.344620
F190	F	0.278204	0.128458	1.714933
F191	F	0.141231	0.321418	1.128585
F192	F	0.186913	0.331656	1.265041
H193	H	0.069079	0.076261	0.942691
H194	H	0.069099	-0.076260	1.314681
F195	F	-0.058115	-0.083032	1.331241
F196	F	0.738347	-0.055923	0.319605
H197	H	0.652531	0.049155	0.785290
H198	H	0.272653	-0.049180	1.472051
H199	H	0.272684	0.239084	1.248530
H200	H	-0.011186	0.076262	0.942696
F201	F	0.141233	0.321374	1.912720
F202	F	0.186881	0.331663	1.664907
H203	H	0.192396	-0.049193	1.667799
H204	H	0.732797	0.049159	0.589541
F205	F	-0.261678	0.055934	0.992283
H206	H	-0.347470	-0.049164	1.248649
F207	F	0.738316	-0.331681	0.592434
H208	H	0.652508	-0.140791	1.248652
F209	F	0.783948	-0.321402	1.128834
H210	H	0.732766	-0.319380	1.008876
H211	H	-0.011171	-0.076257	1.314704
H212	H	-0.267188	-0.049169	1.248637
H213	H	-0.347464	0.049147	1.008802
H214	H	0.152254	-0.000049	1.885646
H215	H	0.732766	-0.221029	0.349646
H216	H	0.192365	0.049145	1.008700
F217	F	0.278175	0.055920	0.992172
H218	H	0.364265	-0.140811	1.248545
H219	H	0.192399	0.221073	1.008671
F220	F	-0.149461	0.083028	0.926188
F221	F	-0.149457	-0.083025	1.331253
H222	H	0.560874	-0.239103	1.008762
F223	F	0.574435	-0.331677	0.992258
F224	F	0.628624	-0.470979	0.926157
F225	F	-0.058135	0.083027	0.926175
F226	F	0.574465	-0.780178	0.992255
F227	F	0.628631	-0.562304	0.926187
F228	F	0.350749	-0.668344	1.265085
H229	H	0.364306	-0.760915	1.248555
F230	F	0.574464	-0.871518	0.992272
H231	H	0.310096	-0.317264	1.314684
F232	F	0.296549	-0.396286	1.331207
H233	H	0.364266	-0.221089	1.248547
H234	H	0.615084	-0.682748	0.942728
