data_functionalizedCrystal
_audit_creation_method	'MofGen! by Chris Wilmer'
_symmetry_space_group_name_H-M	'P1'
_symmetry_Int_Tables_number	1
_symmetry_cell_setting	triclinic
loop_
_symmetry_equiv_pos_as_xyz
  x,y,z
_cell_length_a	23.532407
_cell_length_b	10.489716
_cell_length_c	8.965430
_cell_angle_alpha	89.996523
_cell_angle_beta	89.995773
_cell_angle_gamma	83.688907
loop_
_atom_site_label
_atom_site_type_symbol
_atom_site_fract_x
_atom_site_fract_y
_atom_site_fract_z
O1	O	0.080273	1.691403	-0.124044
O2	O	0.087830	1.319952	-0.124052
O3	O	0.001194	1.516879	-0.124021
O4	O	0.166909	1.494476	-0.124076
O5	O	0.001199	1.516862	0.124058
O6	O	0.087835	1.319935	0.124027
O7	O	0.080279	1.691386	0.124034
Cu8	Cu	0.084058	1.505659	0.146682
Cu9	Cu	0.084051	1.505679	-0.146700
O10	O	0.166915	1.494460	0.124003
C11	C	0.087265	1.272430	-0.000013
C12	C	0.085566	1.130856	-0.000014
C13	C	0.138694	1.031416	-0.000036
C14	C	0.110623	0.954995	0.122296
C15	C	0.110605	0.955018	-0.122290
C16	C	0.057517	1.056300	0.122419
C17	C	0.057507	1.056328	-0.122278
C18	C	0.029397	0.979958	0.000084
C19	C	-0.020023	1.516300	0.000023
C20	C	-0.083252	1.514585	0.000034
C21	C	-0.481658	1.620364	-0.000046
C22	C	-0.541069	1.618771	-0.000057
O23	O	-0.577167	1.716829	-0.000110
N24	N	-0.564466	1.501698	-0.000058
C25	C	-0.528449	1.386211	-0.000063
O26	O	-0.553806	1.286485	-0.000067
C27	C	-0.469040	1.387806	-0.000062
C28	C	-0.445646	1.504886	-0.000046
C29	C	-0.458263	1.737435	-0.000031
C30	C	-0.398857	1.739028	-0.000017
C31	C	-0.362845	1.623549	-0.000017
C32	C	-0.386239	1.506479	-0.000032
C33	C	-0.433024	1.272320	-0.000078
C34	C	-0.373611	1.273925	-0.000079
C35	C	-0.350217	1.391005	-0.000062
C36	C	-0.290820	1.392593	-0.000018
N37	N	-0.267423	1.509666	-0.000017
C38	C	-0.303435	1.625144	-0.000017
C39	C	-0.653214	1.382871	-0.000067
C40	C	-0.712622	1.381275	-0.000057
C41	C	-0.725238	1.613835	-0.000054
C42	C	-0.665828	1.615430	-0.000053
C43	C	-0.629816	1.499944	-0.000066
C44	C	-0.178676	1.628480	0.000014
C45	C	-0.119264	1.630063	0.000035
C46	C	-0.106654	1.397503	0.000023
C47	C	-0.166061	1.395920	0.000011
C48	C	-0.202071	1.511419	0.000001
O49	O	-0.254687	1.294586	0.000029
O50	O	-0.278070	1.724854	-0.000033
C51	C	0.188132	1.495039	-0.000043
C52	C	0.251360	1.496754	-0.000064
N53	N	0.084062	1.505655	0.353031
C54	C	0.080844	1.738908	-0.000008
C55	C	0.082543	1.880482	-0.000016
N56	N	0.084042	1.505694	-0.353049
C57	C	0.124115	1.414555	0.450323
C58	C	0.135633	1.529670	0.549735
C59	C	0.072549	1.390589	0.549747
C60	C	0.095606	1.620827	0.450254
C61	C	0.032499	1.481670	0.450258
C62	C	0.043996	1.596869	0.549625
H63	H	-0.100220	1.725408	0.000052
N64	N	-0.067797	1.272970	0.000020
H65	H	-0.075368	1.221862	-0.091949
H66	H	-0.075392	1.221940	0.092038
H67	H	0.158018	1.337585	0.406722
N68	N	0.140290	0.896392	-0.259280
H69	H	0.138565	0.800611	-0.258709
H70	H	0.181538	0.914698	-0.259170
H71	H	0.133053	0.910760	0.225702
N72	N	0.193379	1.556590	0.607617
H73	H	0.223617	1.487716	0.571505
H74	H	0.192780	1.557264	0.720255
N75	N	0.108560	1.749780	0.392626
H76	H	0.108504	1.748958	0.279976
H77	H	0.147361	1.768048	0.429798
H78	H	-0.011084	1.461321	0.406529
H79	H	-0.207990	1.722531	0.000001
N80	N	-0.000885	1.699038	0.607032
H81	H	0.007879	1.785882	0.570644
H82	H	-0.000851	1.697888	0.719674
N83	N	0.059658	1.261678	0.607653
H84	H	0.089948	1.192922	0.571533
H85	H	0.021001	1.242950	0.569907
N86	N	-0.373629	1.865307	-0.000004
H87	H	-0.405464	1.938210	-0.000010
H88	H	-0.349252	1.871046	-0.091969
H89	H	0.184907	1.054549	0.000063
H90	H	-0.487579	1.831476	-0.000036
H91	H	0.035105	1.100354	0.225942
N92	N	-0.031861	0.949626	0.000182
H93	H	-0.051852	0.986846	0.092615
H94	H	-0.032644	0.853557	-0.000746
H95	H	0.035094	1.100576	-0.225688
H96	H	-0.185109	1.300584	0.000039
H97	H	-0.452061	1.176981	-0.000100
H98	H	-0.646785	1.710767	-0.000041
N99	N	-0.764088	1.738387	-0.000056
H100	H	-0.789014	1.742905	-0.092023
H101	H	-0.740218	1.812732	0.000007
N102	N	-0.737845	1.254989	-0.000040
H103	H	-0.724740	1.204437	-0.092000
H104	H	-0.780941	1.271587	0.000013
N105	N	-0.614370	1.258309	-0.000056
H106	H	-0.621948	1.207198	-0.092016
H107	H	-0.621974	1.207301	0.091971
N108	N	-0.334770	1.149362	-0.000100
H109	H	-0.358609	1.074959	-0.000111
H110	H	-0.309850	1.144941	0.091870
