data_functionalizedCrystal
_audit_creation_method	'MofGen! by Chris Wilmer'
_symmetry_space_group_name_H-M	'P1'
_symmetry_Int_Tables_number	1
_symmetry_cell_setting	triclinic
loop_
_symmetry_equiv_pos_as_xyz
  x,y,z
_cell_length_a	10.489741
_cell_length_b	11.026607
_cell_length_c	10.065875
_cell_angle_alpha	79.268236
_cell_angle_beta	98.834861
_cell_angle_gamma	96.562595
loop_
_atom_site_label
_atom_site_type_symbol
_atom_site_fract_x
_atom_site_fract_y
_atom_site_fract_z
O1	O	-1.746374	-0.153857	-0.113403
O2	O	-1.246374	0.346143	0.386597
O3	O	-1.378724	-0.169957	-0.113423
O4	O	-0.878724	0.330043	0.386577
O5	O	-1.532078	0.015012	-0.113410
O6	O	-1.032078	0.515012	0.386590
O7	O	-1.593020	-0.338826	-0.113416
O8	O	-1.093020	0.161174	0.386584
O9	O	-1.502868	-0.020402	0.113576
O10	O	-1.002868	0.479598	0.613576
O11	O	-1.349514	-0.205370	0.113563
O12	O	-0.849514	0.294630	0.613563
O13	O	-1.717165	-0.189271	0.113584
O14	O	-1.217165	0.310729	0.613584
Zn15	Zn	-1.528702	-0.202943	0.149612
Zn16	Zn	-1.028702	0.297057	0.649612
Zn17	Zn	-1.567187	-0.156284	-0.149452
Zn18	Zn	-1.067187	0.343716	0.350548
O19	O	-1.563810	-0.374239	0.113570
O20	O	-1.063810	0.125761	0.613570
C21	C	-1.506231	0.042615	0.000081
C22	C	-1.006231	0.542615	0.500081
C23	C	-1.472717	0.177623	0.000074
C24	C	-0.972717	0.677623	0.500074
C25	C	-1.316320	-0.186447	0.000067
C26	C	-0.816320	0.313553	0.500067
C27	C	-1.173891	-0.182807	0.000059
C28	C	-0.673891	0.317193	0.500059
C29	C	-1.779569	-0.172780	0.000090
C30	C	-1.279569	0.327220	0.500090
C31	C	-1.921999	-0.176419	0.000089
C32	C	-1.421999	0.323581	0.500089
C33	C	-1.079860	-0.065118	0.000074
C34	C	-0.579860	0.434882	0.500074
C35	C	-1.014365	-0.103253	-0.111840
C36	C	-0.514365	0.396747	0.388160
C37	C	-0.985606	-0.138197	0.111950
C38	C	-0.485606	0.361803	0.611950
C39	C	-1.110283	-0.220977	-0.111948
C40	C	-0.610283	0.279023	0.388052
C41	C	-1.081518	-0.255919	0.111944
C42	C	-0.581518	0.244081	0.611944
C43	C	-1.016072	-0.294136	0.000002
C44	C	-0.516072	0.205864	0.500002
C45	C	-1.589658	-0.401842	0.000076
C46	C	-1.089658	0.098158	0.500076
C47	C	-1.623173	-0.536848	0.000074
C48	C	-1.123173	-0.036848	0.500074
N49	N	-1.502446	-0.234786	0.353715
N50	N	-1.002446	0.265214	0.853715
C51	C	-1.565256	0.250619	0.000078
C52	C	-1.065256	0.750619	0.500078
C53	C	-1.530620	0.390157	0.000071
C54	C	-1.030620	0.890157	0.500071
N55	N	-1.593451	-0.124431	-0.353555
N56	N	-1.093451	0.375569	0.146445
C57	C	-1.558042	-0.167355	0.421499
C58	C	-1.058042	0.332645	0.921499
C59	C	-1.537846	-0.191872	0.578665
C60	C	-1.037846	0.308128	1.078665
H61	H	-1.108286	0.031654	-0.000064
H62	H	-0.608286	0.531654	0.499936
H63	H	-0.987961	-0.390979	-0.000061
H64	H	-0.487961	0.109021	0.499939
Cl65	Cl	-1.368701	0.453148	0.000048
Cl66	Cl	-0.868701	0.953148	0.500048
H67	H	-1.670123	0.209809	0.000092
H68	H	-1.170123	0.709809	0.500092
H69	H	-1.475288	-0.267754	0.636980
H70	H	-0.975288	0.232246	1.136980
H71	H	-1.620585	-0.091470	0.363180
H72	H	-1.120585	0.408530	0.863180
H73	H	-1.728062	0.422366	-0.000023
H74	H	-1.228062	0.922366	0.499977
Cl75	Cl	-1.310805	0.240619	0.000051
Cl76	Cl	-0.810805	0.740619	0.500051
H77	H	-1.439891	-0.310663	0.412036
H78	H	-0.939891	0.189337	0.912036
H79	H	-1.655998	-0.048541	0.588130
H80	H	-1.155998	0.451459	1.088130
H81	H	-0.984572	-0.038694	-0.206455
H82	H	-0.484572	0.461306	0.293545
H83	H	-1.164246	-0.255957	-0.206669
H84	H	-0.664246	0.244043	0.293331
H85	H	-1.111333	-0.320439	0.206563
H86	H	-0.611333	0.179561	0.706563
H87	H	-0.931494	-0.103139	0.206565
H88	H	-0.431494	0.396861	0.706565
