data_functionalizedCrystal
_audit_creation_method	'MofGen! by Chris Wilmer'
_symmetry_space_group_name_H-M	'P1'
_symmetry_Int_Tables_number	1
_symmetry_cell_setting	triclinic
loop_
_symmetry_equiv_pos_as_xyz
  x,y,z
_cell_length_a	27.731996
_cell_length_b	27.732064
_cell_length_c	16.176319
_cell_angle_alpha	90.001664
_cell_angle_beta	89.990583
_cell_angle_gamma	82.635407
loop_
_atom_site_label
_atom_site_type_symbol
_atom_site_fract_x
_atom_site_fract_y
_atom_site_fract_z
O1	O	0.057556	0.640912	-0.068610
O2	O	0.066293	0.500118	-0.068645
O3	O	-0.008474	0.574901	-0.068608
O4	O	0.132323	0.566129	-0.068646
O5	O	-0.008474	0.574892	0.068885
O6	O	0.066293	0.500110	0.068848
O7	O	0.057555	0.640904	0.068884
Cu8	Cu	0.061924	0.570506	0.081420
Cu9	Cu	0.061924	0.570516	-0.081182
O10	O	0.132322	0.566121	0.068847
C11	C	0.066108	0.482107	0.000097
C12	C	0.065552	0.428453	0.000084
C13	C	0.017584	0.051389	0.000144
C14	C	0.019630	0.253049	0.000122
O15	O	-0.017592	0.284309	0.000163
N16	N	0.063966	0.272168	0.000107
C17	C	0.107793	0.240869	0.000102
O18	O	0.145549	0.261758	0.000097
C19	C	0.105746	0.039210	0.000130
C20	C	0.061407	0.020094	0.000137
C21	C	-0.026751	0.032272	0.000153
C22	C	-0.027262	-0.018140	0.000154
C23	C	0.016562	-0.049435	0.000146
C24	C	0.060896	-0.030318	0.000138
C25	C	0.149572	0.007912	0.000131
C26	C	0.149057	-0.042506	0.000140
C27	C	0.104718	-0.061622	0.000148
C28	C	0.104209	-0.112026	0.000132
N29	N	0.059873	-0.131145	0.000148
C30	C	0.016050	-0.099849	0.000155
C31	C	0.108864	0.346743	0.000086
C32	C	0.109376	0.397158	0.000077
C33	C	0.021213	0.409334	0.000099
C34	C	0.020702	0.358919	0.000102
C35	C	0.064529	0.327624	0.000101
C36	C	0.014980	-0.205719	0.000156
C37	C	0.014473	-0.256136	0.000154
C38	C	0.102635	-0.268308	0.000136
C39	C	0.103142	-0.217895	0.000134
C40	C	0.059311	-0.186601	0.000147
O41	O	0.141411	-0.143313	0.000101
O42	O	-0.021702	-0.120748	0.000179
C43	C	0.018095	0.101801	0.000143
C44	C	0.062430	0.120918	0.000135
C45	C	0.106253	0.089623	0.000128
C46	C	0.062941	0.171332	0.000127
C47	C	0.019118	0.202628	0.000134
C48	C	-0.025218	0.183508	0.000150
C49	C	-0.025729	0.133096	0.000151
C50	C	0.150589	0.108742	0.000112
C51	C	0.151096	0.159154	0.000111
C52	C	0.107273	0.190450	0.000118
C53	C	-0.026482	0.574717	0.000141
C54	C	-0.080138	0.574174	0.000149
C55	C	-0.412854	0.570764	-0.074840
C56	C	-0.614513	0.568703	-0.074855
O57	O	-0.640583	0.568420	-0.138595
N58	N	-0.639730	0.568442	0.000092
C59	C	-0.614529	0.568694	0.075048
O60	O	-0.640604	0.568419	0.138795
C61	C	-0.412871	0.570751	0.075062
C62	C	-0.387657	0.571017	0.000111
C63	C	-0.387640	0.571029	-0.149785
C64	C	-0.337229	0.571547	-0.149781
C65	C	-0.312032	0.571800	-0.074830
C66	C	-0.337246	0.571535	0.000115
C67	C	-0.387671	0.570999	0.150017
C68	C	-0.337253	0.571512	0.150014
C69	C	-0.312039	0.571778	0.075062
C70	C	-0.261637	0.572305	0.075070
N71	N	-0.236420	0.572566	0.000123
C72	C	-0.261617	0.572313	-0.074827
C73	C	-0.720402	0.567614	0.075035
C74	C	-0.770817	0.567101	0.075032
C75	C	-0.770797	0.567109	-0.074871
C76	C	-0.720382	0.567626	-0.074867
C77	C	-0.695185	0.567875	0.000089
C78	C	-0.155750	0.573401	-0.074812
C79	C	-0.105335	0.573921	-0.074801
C80	C	-0.105359	0.573910	0.075102
C81	C	-0.155770	0.573393	0.075091
C82	C	-0.180964	0.573137	0.000127
O83	O	-0.235535	0.572583	0.138777
O84	O	-0.235532	0.572577	-0.138564
C85	C	-0.463265	0.570246	-0.074844
C86	C	-0.488479	0.569981	0.000102
C87	C	-0.463282	0.570234	0.075052
C88	C	-0.538894	0.569467	0.000098
C89	C	-0.564091	0.569215	-0.074852
C90	C	-0.538874	0.569475	-0.149799
C91	C	-0.488463	0.569993	-0.149794
C92	C	-0.488500	0.569973	0.149998
C93	C	-0.538911	0.569456	0.149988
C94	C	-0.564108	0.569203	0.075038
C95	C	0.150330	0.566305	0.000096
C96	C	0.203986	0.566848	0.000082
C97	C	0.057740	0.658915	0.000139
C98	C	0.058296	0.712569	0.000147
N99	N	0.061924	0.570502	0.195785
N100	N	0.061921	0.570524	-0.195547
C101	C	0.091043	0.599592	0.239045
C102	C	0.091042	0.599597	0.325592
C103	C	0.061922	0.570510	0.368878
C104	C	0.032799	0.541418	0.325612
C105	C	0.032799	0.541416	0.239066
C106	C	0.032800	0.541427	0.674640
C107	C	0.032803	0.541431	0.761192
C108	C	0.091043	0.599608	0.761166
C109	C	0.091042	0.599606	0.674621
C110	C	0.061917	0.570517	0.631362
C111	C	0.061919	0.570513	0.537518
C112	C	0.061923	0.570511	0.462720
H113	H	-0.014470	0.434824	0.000102
H114	H	-0.020712	-0.180245	0.000166
H115	H	0.145480	0.412717	0.000060
H116	H	-0.699856	0.567842	-0.135899
H117	H	0.144555	0.321266	0.000084
O118	O	-0.563477	0.569209	0.222728
C119	C	-0.641136	0.568346	0.289174
C120	C	-0.613381	0.568648	0.206741
H121	H	-0.681487	0.567881	0.276278
H122	H	-0.635948	0.602288	0.326176
H123	H	-0.626510	0.534606	0.326102
H124	H	-0.627989	0.602365	0.169747
H125	H	-0.618568	0.534683	0.169802
H126	H	-0.699892	0.567819	0.136076
O127	O	0.145215	-0.298694	-0.000016
C128	C	0.220427	-0.324526	-0.071223
C129	C	0.172218	-0.290093	-0.071171
H130	H	0.242277	-0.317577	-0.128738
H131	H	0.212468	-0.363850	-0.071270
H132	H	0.242242	-0.317619	-0.013659
H133	H	0.150380	-0.296956	-0.128726
H134	H	0.180211	-0.250780	-0.071081
H135	H	0.009086	0.517728	0.203845
H136	H	-0.408191	0.570783	0.211051
O137	O	-0.563341	0.569309	-0.222631
C138	C	-0.584526	0.611016	-0.350780
C139	C	-0.556804	0.611279	-0.268324
H140	H	-0.579242	0.644940	-0.387754
H141	H	-0.624898	0.610629	-0.337956
H142	H	-0.569930	0.577259	-0.387700
H143	H	-0.571359	0.645031	-0.231363
H144	H	-0.516435	0.611641	-0.281206
H145	H	0.186276	0.083265	0.000108
H146	H	0.009087	0.517737	0.360862
H147	H	-0.061833	0.117537	0.000157
H148	H	-0.021635	-0.271697	0.000158
H149	H	0.139246	-0.202330	0.000128
H150	H	-0.467989	0.570180	0.211033
H151	H	-0.084835	0.574118	0.136124
H152	H	0.114759	0.623276	0.203808
O153	O	0.191644	-0.072885	-0.000010
C154	C	0.266856	-0.098697	-0.071229
C155	C	0.218641	-0.064274	-0.071168
H156	H	0.288701	-0.091740	-0.128745
H157	H	0.258907	-0.138024	-0.071279
H158	H	0.288671	-0.091787	-0.013666
H159	H	0.196802	-0.071140	-0.128721
H160	H	0.226624	-0.024958	-0.071074
H161	H	0.009084	0.517742	0.639429
H162	H	0.114753	0.623286	0.360811
O163	O	-0.067757	0.213963	0.000047
C164	C	-0.118349	0.277936	-0.071195
C165	C	-0.070154	0.243480	-0.071178
H166	H	-0.120307	0.301802	-0.128783
H167	H	-0.120315	0.301878	-0.013694
H168	H	-0.150121	0.255608	-0.071145
H169	H	-0.038355	0.265769	-0.071257
H170	H	-0.068230	0.219536	-0.128674
O171	O	-0.795348	0.566777	0.147790
C172	C	-0.846444	0.524267	0.234803
C173	C	-0.818699	0.524586	0.152362
H174	H	-0.865322	0.490154	0.238534
H175	H	-0.874756	0.557841	0.238591
H176	H	-0.819760	0.524556	0.288349
H177	H	-0.845346	0.524281	0.098770
H178	H	-0.790380	0.491015	0.148646
H179	H	0.114756	0.623295	0.796398
H180	H	0.114756	0.623290	0.639382
H181	H	-0.791321	0.566904	-0.135898
H182	H	-0.063367	-0.033699	0.000163
O183	O	-0.312854	0.571770	0.222902
C184	C	-0.318192	0.571657	0.371584
C185	C	-0.345884	0.571379	0.289100
H186	H	-0.344883	0.571331	0.425127
H187	H	-0.299280	0.605745	0.375416
H188	H	-0.289902	0.538063	0.375269
H189	H	-0.374197	0.604950	0.285360
H190	H	-0.364763	0.537268	0.285304
O191	O	0.004440	0.513232	0.803204
C192	C	-0.076790	0.494973	0.829688
C193	C	-0.044730	0.526947	0.782072
H194	H	-0.116549	0.506043	0.812607
H195	H	-0.071825	0.499976	0.898985
H196	H	-0.065721	0.455200	0.812680
H197	H	-0.055778	0.566732	0.799011
H198	H	-0.049698	0.521902	0.712787
O199	O	-0.069369	0.062600	0.000120
C200	C	-0.156867	0.069339	0.000176
C201	C	-0.108634	0.034943	0.000203
H202	H	-0.188625	0.046993	0.000260
H203	H	-0.158866	0.093232	-0.057384
H204	H	-0.158815	0.093263	0.057697
H205	H	-0.106654	0.010989	-0.057280
H206	H	-0.106655	0.011084	0.057801
H207	H	0.185677	0.023467	0.000122
H208	H	-0.015402	0.343358	0.000108
O209	O	-0.180237	0.573055	0.147915
C210	C	-0.189868	0.531012	0.276046
C211	C	-0.162133	0.531333	0.193596
H212	H	-0.175235	0.497289	0.313009
H213	H	-0.230229	0.530565	0.263212
H214	H	-0.184651	0.564970	0.312980
H215	H	-0.167310	0.497382	0.156620
H216	H	-0.121782	0.531806	0.206487
O217	O	0.194202	0.177660	-0.000010
C218	C	0.269705	0.182683	-0.071273
C219	C	0.220912	0.161687	-0.071238
H220	H	0.291310	0.169785	-0.128864
H221	H	0.291370	0.169749	-0.013774
H222	H	0.262541	0.224091	-0.071231
H223	H	0.228032	0.120279	-0.071309
H224	H	0.199263	0.174659	-0.128732
O225	O	-0.080819	0.574242	-0.147581
C226	C	-0.029621	0.616659	-0.234552
C227	C	-0.057379	0.616377	-0.152120
H228	H	-0.010654	0.650716	-0.238241
H229	H	-0.056262	0.616409	-0.288170
H230	H	-0.001368	0.583035	-0.238246
H231	H	-0.085632	0.649996	-0.148345
H232	H	-0.030709	0.616602	-0.098540
O233	O	-0.463994	0.570153	-0.222636
C234	C	-0.442839	0.528418	-0.350788
C235	C	-0.470550	0.528178	-0.268303
H236	H	-0.448138	0.494490	-0.387740
H237	H	-0.402463	0.528795	-0.338006
H238	H	-0.457430	0.562172	-0.387709
H239	H	-0.456000	0.494429	-0.231341
H240	H	-0.510923	0.527826	-0.281143
H241	H	-0.176257	0.573190	-0.135854
H242	H	-0.316704	0.571761	-0.210814
H243	H	-0.408150	0.570821	-0.210822
