data_functionalizedCrystal
_audit_creation_method	'MofGen! by Chris Wilmer'
_symmetry_space_group_name_H-M	'P1'
_symmetry_Int_Tables_number	1
_symmetry_cell_setting	triclinic
loop_
_symmetry_equiv_pos_as_xyz
  x,y,z
_cell_length_a	12.827893
_cell_length_b	12.827892
_cell_length_c	12.759393
_cell_angle_alpha	90.029972
_cell_angle_beta	90.020570
_cell_angle_gamma	90.015363
loop_
_atom_site_label
_atom_site_type_symbol
_atom_site_fract_x
_atom_site_fract_y
_atom_site_fract_z
Zn1	Zn	1.597686	-0.415978	0.594014
Zn2	Zn	1.597576	-0.590755	0.418335
Zn3	Zn	1.422923	-0.416029	0.418350
Zn4	Zn	1.422914	-0.590678	0.593974
O5	O	1.510275	-0.503360	0.506168
O6	O	1.743908	-0.439173	0.570720
O7	O	1.574366	-0.567631	0.271316
O8	O	1.446156	-0.269787	0.441675
O9	O	1.743827	-0.567582	0.441650
O10	O	1.574554	-0.269749	0.570734
O11	O	1.446049	-0.439261	0.271327
O12	O	1.276686	-0.439186	0.441636
O13	O	1.446140	-0.567450	0.741000
O14	O	1.276679	-0.567500	0.570666
O15	O	1.574544	-0.439099	0.741029
O16	O	1.574357	-0.736981	0.441611
O17	O	1.446033	-0.736924	0.570652
C18	C	1.238765	-0.503341	0.506149
C19	C	1.122612	-0.503358	0.506166
C20	C	1.070803	-0.439780	0.442431
C21	C	0.950753	-0.439796	0.442447
C22	C	1.510210	-0.774870	0.506149
C23	C	1.510278	-0.891023	0.506176
C24	C	1.446765	-0.942814	0.569982
C25	C	1.446834	-1.062865	0.570011
C26	C	1.782845	-0.503380	0.506188
C27	C	1.898998	-0.503389	0.506196
C28	C	1.510353	-0.503260	0.780202
C29	C	1.510386	-0.503217	0.896978
C30	C	1.510368	-0.230790	0.506211
C31	C	1.510408	-0.114637	0.506229
C32	C	1.510257	-0.503385	0.233201
C33	C	1.510426	-0.503133	0.116425
C34	C	1.577252	-0.436374	0.951857
C35	C	1.577269	-0.436329	1.061581
C36	C	1.443554	-0.569979	1.061538
C37	C	1.443531	-0.570018	0.951816
C38	C	1.614682	-0.313035	1.211558
C39	C	1.681563	-0.246201	1.266441
C40	C	1.783529	-0.230179	1.230849
C41	C	1.818634	-0.281006	1.140376
C42	C	1.751758	-0.347848	1.085498
C43	C	1.649777	-0.363850	1.121089
C44	C	1.406130	-0.693314	0.801837
C45	C	1.339258	-0.760161	0.746958
C46	C	1.237291	-0.776194	0.782548
C47	C	1.202190	-0.725385	0.873025
C48	C	1.269062	-0.658538	0.927904
C49	C	1.371028	-0.642503	0.892306
H50	H	1.392333	-0.898281	0.624585
F51	F	1.581492	-1.056432	0.434827
H52	H	0.943546	-0.557818	0.560770
F53	F	1.581416	-0.949230	0.434794
H54	H	1.182848	-0.830637	0.737861
F55	F	1.648402	-0.365276	0.893499
H56	H	1.078091	-0.557804	0.560740
F57	F	1.789113	-0.401941	0.989217
F58	F	1.093665	-0.742451	0.910908
F59	F	1.128990	-0.368620	0.371087
H60	H	1.392462	-1.107404	0.624643
H61	H	1.901668	-0.267962	1.111409
F62	F	1.376623	-0.814246	0.650670
H63	H	1.837984	-0.175760	1.275542
F64	F	1.644200	-0.192109	1.362726
H65	H	1.531651	-0.326066	1.240541
H66	H	1.389125	-0.624369	1.106200
F67	F	1.231701	-0.604461	1.024198
H68	H	1.489158	-0.680257	0.772845
F69	F	0.892521	-0.368642	0.371128
