data_functionalizedCrystal
_audit_creation_method	'MofGen! by Chris Wilmer'
_symmetry_space_group_name_H-M	'P1'
_symmetry_Int_Tables_number	1
_symmetry_cell_setting	triclinic
loop_
_symmetry_equiv_pos_as_xyz
  x,y,z
_cell_length_a	19.288840
_cell_length_b	10.654559
_cell_length_c	17.766277
_cell_angle_alpha	89.995202
_cell_angle_beta	89.983415
_cell_angle_gamma	83.807337
loop_
_atom_site_label
_atom_site_type_symbol
_atom_site_fract_x
_atom_site_fract_y
_atom_site_fract_z
O1	O	0.922392	0.156506	-0.062718
O2	O	0.720268	0.177672	-0.062691
O3	O	0.825974	-0.015750	-0.062703
O4	O	0.816686	0.349927	-0.062706
O5	O	0.825955	-0.015760	0.062486
O6	O	0.720249	0.177662	0.062497
O7	O	0.922373	0.156496	0.062471
Cu8	Cu	0.821309	0.167078	0.073915
Cu9	Cu	0.821331	0.167090	-0.074135
O10	O	0.816667	0.349918	0.062483
C11	C	0.694377	0.176991	-0.000094
C12	C	0.617259	0.174962	-0.000084
C13	C	0.581060	0.173993	-0.068326
C14	C	0.508600	0.172073	-0.068335
C15	C	0.472345	0.171097	-0.000098
C16	C	0.508553	0.172073	0.068153
C17	C	0.581010	0.174006	0.068160
C18	C	0.362506	0.094476	0.052171
C19	C	0.290051	0.092536	0.052161
C20	C	0.248862	0.165141	-0.000118
C21	C	0.280139	0.239671	-0.052399
C22	C	0.352596	0.241604	-0.052392
C23	C	0.393777	0.169002	-0.000098
C24	C	0.134093	0.162092	-0.068375
C25	C	0.061632	0.160180	-0.068381
C26	C	0.061587	0.160167	0.068109
C27	C	0.134046	0.162092	0.068113
C28	C	0.170295	0.163048	-0.000130
C29	C	0.825281	-0.062538	-0.000110
C30	C	0.823237	-0.201936	-0.000113
C31	C	0.759077	-0.252092	-0.000108
C32	C	0.757160	-0.383073	-0.000106
C33	C	0.883569	-0.413732	-0.000117
C34	C	0.885484	-0.282753	-0.000113
C35	C	0.678603	-0.543665	0.043757
C36	C	0.614440	-0.593825	0.043749
C37	C	0.559267	-0.537772	-0.000112
C38	C	0.568255	-0.431562	-0.043983
C39	C	0.632419	-0.381410	-0.043982
C40	C	0.687589	-0.437459	-0.000103
C41	C	0.964037	-0.122158	-0.043983
C42	C	1.028202	-0.072003	-0.043987
C43	C	1.083381	-0.128054	-0.000130
C44	C	1.074400	-0.234270	0.043730
C45	C	1.010235	-0.284425	0.043734
C46	C	0.955056	-0.228365	-0.000121
C47	C	0.948264	0.157177	-0.000128
C48	C	1.025381	0.159206	-0.000143
C49	C	0.817360	0.396706	-0.000112
C50	C	0.819404	0.536104	-0.000114
N51	N	0.821299	0.167069	0.178045
N52	N	0.821347	0.167089	-0.178265
C53	C	0.868121	0.081464	0.217427
C54	C	0.868125	0.081458	0.296229
C55	C	0.821313	0.167079	0.335646
C56	C	0.774482	0.252691	0.296254
C57	C	0.774475	0.252686	0.217454
C58	C	0.812766	0.281501	0.460483
C59	C	0.812778	0.281508	0.539282
C60	C	0.821332	0.167094	0.578692
C61	C	0.829889	0.052669	0.539293
C62	C	0.829881	0.052664	0.460493
C63	C	0.821316	0.167094	0.421091
C64	C	0.868161	0.081476	0.703520
C65	C	0.868160	0.081468	0.782323
C66	C	0.774521	0.252712	0.782347
C67	C	0.774519	0.252708	0.703545
C68	C	0.821342	0.167092	0.664136
H69	H	0.479120	0.171286	-0.123908
H70	H	0.378058	0.302292	-0.094959
C71	C	0.919661	-0.012715	0.660167
N72	N	0.958450	-0.083662	0.627516
H73	H	1.035511	0.014486	-0.079703
H74	H	0.736404	0.322421	0.814440
C75	C	0.919659	-0.012731	0.825643
N76	N	0.958446	-0.083689	0.858272
H77	H	0.639736	-0.294935	-0.079701
H78	H	0.610483	0.174796	0.123733
H79	H	0.723522	-0.589304	0.079484
C80	C	0.723061	0.346973	0.660224
N81	N	0.684316	0.418005	0.627594
H82	H	1.002926	-0.370914	0.079450
C83	C	0.407807	0.014595	0.109684
N84	N	0.441927	-0.045571	0.153000
C85	C	0.803359	0.407376	0.582613
N86	N	0.796260	0.502184	0.615249
H87	H	0.805788	0.374676	0.428403
C88	C	0.620930	0.175042	-0.143396
N89	N	0.650961	0.175831	-0.199940
C90	C	0.903337	-0.060483	-0.092225
N91	N	0.857619	-0.014029	-0.128562
C92	C	0.507560	-0.369917	-0.092238
N93	N	0.461842	-0.323481	-0.128583
C94	C	0.952037	-0.502642	-0.000125
N95	N	1.003609	-0.569608	-0.000134
C96	C	0.468670	0.170998	0.143214
N97	N	0.438631	0.170191	0.199752
H98	H	1.119333	-0.279918	0.079435
H99	H	0.163608	0.162884	-0.123943
C100	C	0.488687	-0.592947	-0.000114
N101	N	0.435525	-0.634506	-0.000109
C102	C	0.173868	0.163141	0.143186
N103	N	0.203862	0.163931	0.199735
C104	C	0.255653	0.010563	0.109677
N105	N	0.229745	-0.051174	0.153002
H106	H	0.246604	0.298799	-0.094967
H107	H	0.836854	-0.040497	0.571379
H108	H	0.607127	-0.680303	0.079474
H109	H	1.135627	-0.087207	-0.000139
C110	C	0.021710	0.159095	0.143171
N111	N	-0.008329	0.158290	0.199709
H112	H	0.736367	0.322403	0.328352
C113	C	0.919621	-0.012729	0.174082
N114	N	0.958410	-0.083680	0.141433
C115	C	0.722995	0.346917	0.174133
N116	N	0.684231	0.417914	0.141502
H117	H	0.906254	0.011746	0.328299
H118	H	0.032159	0.159398	-0.123954
H119	H	0.708391	-0.186294	-0.000104
H120	H	0.836846	-0.040504	0.428418
