data_functionalizedCrystal
_audit_creation_method	'MofGen! by Chris Wilmer'
_symmetry_space_group_name_H-M	'P1'
_symmetry_Int_Tables_number	1
_symmetry_cell_setting	triclinic
loop_
_symmetry_equiv_pos_as_xyz
  x,y,z
_cell_length_a	19.805407
_cell_length_b	25.639240
_cell_length_c	19.805399
_cell_angle_alpha	90.035908
_cell_angle_beta	90.017803
_cell_angle_gamma	90.030074
loop_
_atom_site_label
_atom_site_type_symbol
_atom_site_fract_x
_atom_site_fract_y
_atom_site_fract_z
Zn1	Zn	1.034706	-0.208200	0.382648
Zn2	Zn	1.368039	0.125133	0.715982
Zn3	Zn	1.701372	0.458466	1.049315
Zn4	Zn	1.034608	-0.295634	0.269444
Zn5	Zn	1.367941	0.037699	0.602777
Zn6	Zn	1.701275	0.371032	0.936110
Zn7	Zn	0.921520	-0.208211	0.269477
Zn8	Zn	1.254854	0.125123	0.602810
Zn9	Zn	1.588187	0.458456	0.936143
Zn10	Zn	0.921471	-0.295602	0.382594
Zn11	Zn	1.254805	0.037731	0.715927
Zn12	Zn	1.588138	0.371064	1.049261
O13	O	0.978076	-0.251912	0.326041
O14	O	1.311410	0.081421	0.659374
O15	O	1.644743	0.414755	0.992707
O16	O	1.129409	-0.219808	0.367641
O17	O	1.462743	0.113526	0.700974
O18	O	1.796076	0.446859	1.034307
O19	O	1.019586	-0.284055	0.174732
O20	O	1.352920	0.049278	0.508065
O21	O	1.686253	0.382612	0.841398
O22	O	0.936596	-0.135044	0.284526
O23	O	1.269929	0.198289	0.617859
O24	O	1.603263	0.531623	0.951192
O25	O	1.129338	-0.284045	0.284470
O26	O	1.462671	0.049288	0.617803
O27	O	1.796004	0.382622	0.951136
O28	O	1.019753	-0.135037	0.367672
O29	O	1.353086	0.198297	0.701006
O30	O	1.686420	0.531630	1.034339
O31	O	0.936501	-0.219825	0.174756
O32	O	1.269835	0.113508	0.508089
O33	O	1.603168	0.446841	0.841422
O34	O	0.826797	-0.219794	0.284473
O35	O	1.160131	0.113539	0.617806
O36	O	1.493464	0.446872	0.951139
O37	O	0.936513	-0.283991	0.477318
O38	O	1.269846	0.049343	0.810651
O39	O	1.603179	0.382676	1.143985
O40	O	0.826761	-0.284001	0.367580
O41	O	1.160095	0.049333	0.700913
O42	O	1.493428	0.382666	1.034246
O43	O	1.019705	-0.219777	0.477358
O44	O	1.353039	0.113557	0.810691
O45	O	1.686372	0.446890	1.144025
O46	O	1.019539	-0.368795	0.284417
O47	O	1.352872	-0.035462	0.617750
O48	O	1.686205	0.297871	0.951084
O49	O	0.936418	-0.368772	0.367548
O50	O	1.269751	-0.035439	0.700881
O51	O	1.603084	0.297895	1.034215
C52	C	0.802220	-0.251896	0.326024
C53	C	1.135554	0.081438	0.659358
C54	C	1.468887	0.414771	0.992691
C55	C	0.726988	-0.251901	0.326033
C56	C	1.060322	0.081432	0.659367
C57	C	1.393655	0.414765	0.992700
C58	C	0.691682	-0.218512	0.369406
C59	C	1.025016	0.114821	0.702740
C60	C	1.358349	0.448155	1.036073
C61	C	0.620994	-0.218515	0.369409
C62	C	0.954327	0.114819	0.702742
C63	C	1.287660	0.448152	1.036076
C64	C	0.585613	-0.251910	0.326041
C65	C	0.918946	0.081424	0.659375
C66	C	1.252279	0.414757	0.992708
C67	C	0.620924	-0.285300	0.282664
C68	C	0.954257	0.048033	0.615997
C69	C	1.287591	0.381366	0.949330
C70	C	0.691611	-0.285295	0.282658
C71	C	1.024944	0.048039	0.615991
C72	C	1.358278	0.381372	0.949325
C73	C	0.335851	-0.285324	0.282684
C74	C	0.669184	0.048009	0.616018
C75	C	1.002517	0.381343	0.949351
C76	C	0.265159	-0.285328	0.282695
C77	C	0.598492	0.048005	0.616028
C78	C	0.931825	0.381338	0.949361
C79	C	0.265233	-0.218544	0.369435
C80	C	0.598567	0.114789	0.702768
C81	C	0.931900	0.448123	1.036102
C82	C	0.335921	-0.218538	0.369430
C83	C	0.669254	0.114795	0.702763
C84	C	1.002587	0.448128	1.036096
C85	C	0.371225	-0.251927	0.326050
C86	C	0.704559	0.081407	0.659383
C87	C	1.037892	0.414740	0.992716
C88	C	0.447874	-0.251923	0.326046
C89	C	0.781207	0.081411	0.659380
C90	C	1.114541	0.414744	0.992713
C91	C	0.508966	-0.251917	0.326048
C92	C	0.842299	0.081417	0.659381
C93	C	1.175632	0.414750	0.992714
C94	C	0.977981	-0.387755	0.325988
C95	C	1.311314	-0.054421	0.659321
C96	C	1.644647	0.278912	0.992654
C97	C	0.978002	-0.445869	0.325988
C98	C	1.311335	-0.112535	0.659321
C99	C	1.644668	0.220798	0.992654
C100	C	1.021398	-0.806189	0.369413
C101	C	1.354731	-0.472856	0.702747
C102	C	1.688064	-0.139523	1.036080
C103	C	1.021418	-0.860793	0.369427
C104	C	1.354751	-0.527460	0.702760
C105	C	1.688084	-0.194127	1.036094
O106	O	1.058201	-0.888994	0.406295
O107	O	1.391534	-0.555661	0.739628
O108	O	1.724867	-0.222328	1.072961
N109	N	0.978170	-0.888151	0.326106
N110	N	1.311504	-0.554818	0.659439
N111	N	1.644837	-0.221484	0.992773
C112	C	0.934895	-0.860901	0.282773
C113	C	1.268229	-0.527568	0.616107
C114	C	1.601562	-0.194235	0.949440
O115	O	0.898112	-0.889185	0.245927
O116	O	1.231445	-0.555852	0.579260
O117	O	1.564778	-0.222518	0.912594
C118	C	0.934873	-0.806298	0.282764
C119	C	1.268206	-0.472965	0.616097
C120	C	1.601539	-0.139631	0.949430
C121	C	0.978128	-0.778943	0.326083
C122	C	1.311461	-0.445610	0.659416
C123	C	1.644794	-0.112277	0.992749
C124	C	1.064649	-0.778834	0.412729
C125	C	1.397982	-0.445501	0.746063
C126	C	1.731315	-0.112168	1.079396
C127	C	1.064629	-0.724234	0.412715
C128	C	1.397963	-0.390901	0.746048
C129	C	1.731296	-0.057567	1.079381
C130	C	1.021359	-0.696988	0.369384
C131	C	1.354693	-0.363655	0.702717
C132	C	1.688026	-0.030321	1.036050
C133	C	0.978108	-0.724343	0.326068
C134	C	1.311442	-0.391010	0.659401
C135	C	1.644775	-0.057676	0.992734
C136	C	0.891595	-0.779049	0.239435
C137	C	1.224928	-0.445716	0.572768
C138	C	1.558261	-0.112383	0.906101
C139	C	0.891575	-0.724442	0.239429
C140	C	1.224909	-0.391109	0.572762
C141	C	1.558242	-0.057776	0.906096
C142	C	0.934830	-0.697088	0.282748
C143	C	1.268163	-0.363754	0.616081
C144	C	1.601497	-0.030421	0.949415
C145	C	0.934819	-0.642497	0.282722
C146	C	1.268152	-0.309163	0.616055
C147	C	1.601486	0.024170	0.949389
N148	N	0.978066	-0.615139	0.326043
N149	N	1.311399	-0.281806	0.659376
N150	N	1.644733	0.051528	0.992710
C151	C	1.021336	-0.642385	0.369374
C152	C	1.354670	-0.309051	0.702707
C153	C	1.688003	0.024282	1.036041
C154	C	0.934946	-0.975572	0.282798
C155	C	1.268279	-0.642239	0.616131
C156	C	1.601613	-0.308905	0.949465
C157	C	0.934972	-1.030174	0.282804
C158	C	1.268305	-0.696841	0.616137
C159	C	1.601638	-0.363508	0.949471
C160	C	1.021493	-1.030063	0.369459
C161	C	1.354827	-0.696729	0.702792
C162	C	1.688160	-0.363396	1.036126
C163	C	1.021470	-0.975459	0.369449
C164	C	1.354804	-0.642126	0.702782
C165	C	1.688137	-0.308793	1.036116
C166	C	0.978193	-0.948214	0.326119
C167	C	1.311527	-0.614881	0.659453
C168	C	1.644860	-0.281548	0.992786
C169	C	1.021293	-0.527720	0.369339
C170	C	1.354626	-0.194386	0.702672
C171	C	1.687960	0.138947	1.036006
C172	C	1.021272	-0.473114	0.369318
C173	C	1.354605	-0.139781	0.702652
C174	C	1.687939	0.193552	1.035985
C175	C	0.934748	-0.473231	0.282666
C176	C	1.268082	-0.139897	0.616000
C177	C	1.601415	0.193436	0.949333
C178	C	0.934772	-0.527831	0.282684
C179	C	1.268105	-0.194498	0.616018
C180	C	1.601438	0.138835	0.949351
C181	C	0.978046	-0.555075	0.326026
C182	C	1.311380	-0.221741	0.659359
C183	C	1.644713	0.111592	0.992693
O184	O	0.898053	-0.614261	0.245875
O185	O	1.231386	-0.280928	0.579209
O186	O	1.564719	0.052406	0.912542
O187	O	1.058108	-0.614095	0.406220
O188	O	1.391441	-0.280761	0.739554
O189	O	1.724774	0.052572	1.072887
C190	C	1.154619	-0.251929	0.326058
C191	C	1.487952	0.081405	0.659391
C192	C	1.821286	0.414738	0.992724
C193	C	1.229851	-0.251936	0.326065
C194	C	1.563184	0.081397	0.659398
C195	C	1.896518	0.414731	0.992731
C196	C	0.978114	-0.251879	0.502584
C197	C	1.311448	0.081454	0.835917
C198	C	1.644781	0.414788	1.169250
C199	C	0.978131	-0.251865	0.577816
C200	C	1.311464	0.081468	0.911149
C201	C	1.644797	0.414802	1.244482
C202	C	0.978191	-0.115539	0.326109
C203	C	1.311524	0.217794	0.659442
C204	C	1.644858	0.551128	0.992775
C205	C	0.978240	-0.057425	0.326138
C206	C	1.311573	0.275908	0.659471
C207	C	1.644906	0.609242	0.992804
C208	C	0.978078	-0.251907	0.150185
C209	C	1.311411	0.081426	0.483518
C210	C	1.644744	0.414760	0.816851
C211	C	0.978193	-0.251774	0.074953
C212	C	1.311526	0.081560	0.408286
C213	C	1.644859	0.414893	0.741620
C214	C	1.021450	-0.218427	0.613182
C215	C	1.354783	0.114906	0.946515
C216	C	1.688117	0.448240	1.279848
C217	C	1.021457	-0.218412	0.683870
C218	C	1.354790	0.114921	1.017203
C219	C	1.688124	0.448255	1.350537
C220	C	0.978147	-0.251838	0.719191
C221	C	1.311481	0.081496	1.052525
C222	C	1.644814	0.414829	1.385858
C223	C	0.934823	-0.285277	0.683820
C224	C	1.268156	0.048056	1.017153
C225	C	1.601490	0.381390	1.350487
C226	C	0.934813	-0.285289	0.613133
C227	C	1.268147	0.048044	0.946466
C228	C	1.601480	0.381377	1.279800
C229	C	0.934861	-0.285228	0.968894
C230	C	1.268195	0.048105	1.302227
C231	C	1.601528	0.381438	1.635560
C232	C	0.934876	-0.285215	1.039586
C233	C	1.268209	0.048119	1.372919
C234	C	1.601543	0.381452	1.706252
C235	C	1.021505	-0.218351	1.039631
C236	C	1.354838	0.114982	1.372964
C237	C	1.688172	0.448316	1.706297
C238	C	1.021495	-0.218363	0.968944
C239	C	1.354829	0.114970	1.302277
C240	C	1.688162	0.448303	1.635610
C241	C	0.978169	-0.251800	0.933579
C242	C	1.311502	0.081533	1.266912
C243	C	1.644835	0.414866	1.600245
C244	C	0.978161	-0.251816	0.856930
C245	C	1.311494	0.081518	1.190264
C246	C	1.644827	0.414851	1.523597
C247	C	0.978158	-0.251825	0.795838
C248	C	1.311492	0.081508	1.129172
C249	C	1.644825	0.414841	1.462505
H250	H	0.592111	-0.312489	0.247350
H251	H	0.925444	0.020845	0.580683
H252	H	1.258778	0.354178	0.914017
H253	H	0.856372	-0.801312	0.204159
H254	H	1.189705	-0.467979	0.537493
H255	H	1.523039	-0.134646	0.870826
N256	N	1.111274	-0.694736	0.459449
N257	N	1.444607	-0.361402	0.792782
N258	N	1.777940	-0.028069	1.126116
H259	H	1.104701	-0.656009	0.452874
H260	H	1.438034	-0.322676	0.786208
H261	H	1.771367	0.010658	1.119541
H262	H	1.159624	-0.704258	0.448964
H263	H	1.492957	-0.370924	0.782297
H264	H	1.826290	-0.037591	1.115630
N265	N	0.374077	-0.182521	0.416209
N266	N	0.707411	0.150813	0.749542
N267	N	1.040744	0.484146	1.082875
H268	H	0.361793	-0.145154	0.405791
H269	H	0.695127	0.188179	0.739124
H270	H	1.028460	0.521513	1.072457
H271	H	0.424203	-0.187628	0.409603
H272	H	0.757536	0.145705	0.742937
H273	H	1.090869	0.479038	1.076270
N274	N	1.068187	-0.182344	0.722003
N275	N	1.401520	0.150989	1.055336
N276	N	1.734853	0.484323	1.388669
H277	H	1.099540	-0.203587	0.751328
H278	H	1.432874	0.129747	1.084661
H279	H	1.766207	0.463080	1.417994
H280	H	1.040661	-0.158108	0.751296
H281	H	1.373994	0.175225	1.084630
H282	H	1.707328	0.508559	1.417963
N283	N	0.227155	-0.182529	0.416224
N284	N	0.560488	0.150804	0.749557
N285	N	0.893821	0.484138	1.082890
H286	H	0.177006	-0.187597	0.409648
H287	H	0.510339	0.145737	0.742981
H288	H	0.843673	0.479070	1.076314
H289	H	0.239530	-0.145177	0.405785
H290	H	0.572863	0.188157	0.739118
H291	H	0.906196	0.521490	1.072451
H292	H	0.592251	-0.191327	0.404729
H293	H	0.925584	0.142007	0.738062
H294	H	1.258917	0.475340	1.071395
N295	N	0.888274	-0.946193	0.236048
N296	N	1.221607	-0.612859	0.569381
N297	N	1.554940	-0.279526	0.902715
H298	H	0.915791	-0.923540	0.204702
H299	H	1.249124	-0.590207	0.538035
H300	H	1.582457	-0.256873	0.871368
H301	H	0.856884	-0.923571	0.263561
H302	H	1.190217	-0.590238	0.596895
H303	H	1.523551	-0.256904	0.930228
H304	H	0.236353	-0.312524	0.247377
H305	H	0.569687	0.020810	0.580711
H306	H	0.903020	0.354143	0.914044
N307	N	0.844895	-0.695057	0.192695
N308	N	1.178228	-0.361724	0.526028
N309	N	1.511562	-0.028390	0.859362
H310	H	0.817500	-0.720675	0.165258
H311	H	1.150833	-0.387342	0.498591
H312	H	1.484167	-0.054009	0.831924
H313	H	0.872454	-0.672405	0.161388
H314	H	1.205787	-0.339071	0.494722
H315	H	1.539121	-0.005738	0.828055
H316	H	0.899592	-0.312463	0.940108
H317	H	1.232926	0.020871	1.273441
H318	H	1.566259	0.354204	1.606775
N319	N	1.068211	-0.182314	0.930847
N320	N	1.401544	0.151019	1.264180
N321	N	1.734877	0.484352	1.597514
H322	H	1.095655	-0.161128	0.963978
H323	H	1.428988	0.172205	1.297312
H324	H	1.762321	0.505539	1.630645
H325	H	1.040675	-0.158121	0.901526
H326	H	1.374008	0.175212	1.234860
H327	H	1.707341	0.508545	1.568193
H328	H	0.364587	-0.312511	0.247362
H329	H	0.697921	0.020822	0.580696
H330	H	1.031254	0.354155	0.914029
H331	H	0.899557	-0.312491	0.712584
H332	H	1.232891	0.020842	1.045918
H333	H	1.566224	0.354176	1.379251
H334	H	0.720356	-0.312483	0.247339
H335	H	1.053690	0.020850	0.580672
H336	H	1.387023	0.354183	0.914006
H337	H	1.099884	-0.801012	0.448019
H338	H	1.433218	-0.467679	0.781352
H339	H	1.766551	-0.134346	1.114685
N340	N	1.067928	-0.443610	0.416042
N341	N	1.401261	-0.110277	0.749375
N342	N	1.734595	0.223056	1.082709
H343	H	1.095339	-0.469159	0.443495
H344	H	1.428673	-0.135826	0.776828
H345	H	1.762006	0.197507	1.110161
H346	H	1.040350	-0.420952	0.447335
H347	H	1.373683	-0.087619	0.780668
H348	H	1.707017	0.245714	1.114001
H349	H	1.056527	-0.549895	0.404637
H350	H	1.389860	-0.216561	0.737970
H351	H	1.723193	0.116772	1.071303
H352	H	1.056781	-0.191123	1.068433
H353	H	1.390115	0.142210	1.401767
H354	H	1.723448	0.475544	1.735100
N355	N	1.068122	-0.945957	0.416172
N356	N	1.401456	-0.612624	0.749505
N357	N	1.734789	-0.279291	1.082838
H358	H	1.095536	-0.971508	0.443620
H359	H	1.428869	-0.638175	0.776953
H360	H	1.762202	-0.304841	1.110286
H361	H	1.040544	-0.923303	0.447469
H362	H	1.373877	-0.589970	0.780802
H363	H	1.707211	-0.256636	1.114136
N364	N	1.068165	-1.059454	0.416197
N365	N	1.401498	-0.726121	0.749530
N366	N	1.734831	-0.392788	1.082863
H367	H	1.061611	-1.098195	0.409628
H368	H	1.394944	-0.764862	0.742961
H369	H	1.728277	-0.431529	1.076294
H370	H	1.057597	-1.049889	0.464525
H371	H	1.390930	-0.716556	0.797859
H372	H	1.724263	-0.383223	1.131192
H373	H	0.899756	-1.052442	0.247522
H374	H	1.233090	-0.719109	0.580855
H375	H	1.566423	-0.385775	0.914189
N376	N	0.888128	-0.557339	0.235955
N377	N	1.221461	-0.224006	0.569289
N378	N	1.554795	0.109327	0.902622
H379	H	0.860716	-0.531791	0.208501
H380	H	1.194049	-0.198458	0.541835
H381	H	1.527383	0.134875	0.875168
H382	H	0.856794	-0.579994	0.263485
H383	H	1.190127	-0.246660	0.596819
H384	H	1.523460	0.086673	0.930152
N385	N	0.888162	-0.321268	1.077685
N386	N	1.221495	0.012065	1.411018
N387	N	1.554828	0.345398	1.744351
H388	H	0.860711	-0.342452	1.044556
H389	H	1.194045	-0.009119	1.377889
H390	H	1.527378	0.324215	1.711222
H391	H	0.856866	-0.299975	1.107021
H392	H	1.190199	0.033359	1.440355
H393	H	1.523533	0.366692	1.773688
H394	H	0.899531	-0.312512	0.584339
H395	H	1.232865	0.020821	0.917672
H396	H	1.566198	0.354154	1.251005
N397	N	0.888085	-0.443834	0.235933
N398	N	1.221418	-0.110501	0.569266
N399	N	1.554751	0.222833	0.902600
H400	H	0.856699	-0.421182	0.263413
H401	H	1.190032	-0.087849	0.596746
H402	H	1.523366	0.245484	0.930079
H403	H	0.860729	-0.469476	0.208498
H404	H	1.194062	-0.136143	0.541831
H405	H	1.527395	0.197191	0.875164
N406	N	0.729841	-0.182496	0.416186
N407	N	1.063174	0.150837	0.749519
N408	N	1.396508	0.484171	1.082853
H409	H	0.696745	-0.161344	0.443662
H410	H	1.030079	0.171989	0.776995
H411	H	1.363412	0.505322	1.110329
H412	H	0.759173	-0.158270	0.388694
H413	H	1.092506	0.175064	0.722027
H414	H	1.425839	0.508397	1.055361
N415	N	1.068167	-0.182378	0.575088
N416	N	1.401501	0.150955	0.908421
N417	N	1.734834	0.484289	1.241754
H418	H	1.095610	-0.161193	0.608221
H419	H	1.428943	0.172141	0.941554
H420	H	1.762277	0.505474	1.274888
H421	H	1.040633	-0.158184	0.545766
H422	H	1.373967	0.175149	0.879099
H423	H	1.707300	0.508482	1.212433
