data_functionalizedCrystal
_audit_creation_method	'MofGen! by Chris Wilmer'
_symmetry_space_group_name_H-M	'P1'
_symmetry_Int_Tables_number	1
_symmetry_cell_setting	triclinic
loop_
_symmetry_equiv_pos_as_xyz
  x,y,z
_cell_length_a	15.625110
_cell_length_b	19.188930
_cell_length_c	14.750779
_cell_angle_alpha	77.396187
_cell_angle_beta	120.099500
_cell_angle_gamma	83.721350
loop_
_atom_site_label
_atom_site_type_symbol
_atom_site_fract_x
_atom_site_fract_y
_atom_site_fract_z
O1	O	1.286342	0.021421	0.368010
O2	O	1.786342	0.521421	0.868010
O3	O	0.999244	0.051222	0.268051
O4	O	1.499244	0.551222	0.768051
O5	O	1.151083	-0.065859	0.320936
O6	O	1.651083	0.434141	0.820936
O7	O	1.134503	0.138502	0.315125
O8	O	1.634503	0.638502	0.815125
O9	O	1.194006	-0.098953	0.495536
O10	O	1.694006	0.401047	0.995536
O11	O	1.042167	0.018128	0.442651
O12	O	1.542167	0.518128	0.942651
O13	O	1.329265	-0.011673	0.542610
O14	O	1.829265	0.488327	1.042610
Zn15	Zn	1.192531	-0.002027	0.520352
Zn16	Zn	1.692531	0.497973	1.020352
Zn17	Zn	1.135978	0.041576	0.290309
Zn18	Zn	1.635978	0.541576	0.790309
O19	O	1.177426	0.105408	0.489725
O20	O	1.677426	0.605408	0.989725
C21	C	0.983975	0.036606	0.342563
C22	C	1.483975	0.536606	0.842563
C23	C	0.874531	0.042352	0.304459
C24	C	1.374531	0.542352	0.804459
C25	C	0.696877	0.068491	0.155585
C26	C	1.196877	0.568491	0.655585
C27	C	0.799719	0.063089	0.191401
C28	C	1.299719	0.563089	0.691401
C29	C	0.846521	0.027013	0.381746
C30	C	1.346521	0.527013	0.881746
C31	C	0.743680	0.032416	0.345946
C32	C	1.243680	0.532416	0.845946
C33	C	0.668865	0.053154	0.232864
C34	C	1.168865	0.553154	0.732864
C35	C	0.715668	0.017079	0.423225
C36	C	1.215668	0.517079	0.923225
C37	C	0.612836	0.022477	0.387427
C38	C	1.112836	0.522477	0.887427
C39	C	0.538016	0.043212	0.274351
C40	C	1.038016	0.543212	0.774351
C41	C	0.566033	0.058552	0.197067
C42	C	1.066033	0.558552	0.697067
C43	C	0.790485	-0.003664	0.536306
C44	C	1.290485	0.496336	1.036306
C45	C	0.762474	-0.019001	0.613585
C46	C	1.262474	0.480999	1.113585
C47	C	0.659639	-0.013598	0.577788
C48	C	1.159639	0.486402	1.077788
C49	C	0.584819	0.007137	0.464711
C50	C	1.084819	0.507137	0.964711
C51	C	0.631623	-0.028938	0.655072
C52	C	1.131623	0.471062	1.155072
C53	C	0.528791	-0.023540	0.619274
C54	C	1.028791	0.476460	1.119274
C55	C	0.481988	0.012535	0.428914
C56	C	0.981988	0.512535	0.928914
C57	C	1.172009	-0.108384	0.408052
C58	C	1.672009	0.391616	0.908052
C59	C	1.170400	-0.185789	0.407500
C60	C	1.670400	0.314211	0.907500
C61	C	1.259492	-0.236320	0.438524
C62	C	1.759492	0.263680	0.938524
C63	C	1.257975	-0.309046	0.437980
C64	C	1.757975	0.190954	0.937980
C65	C	1.167365	-0.331240	0.406432
C66	C	1.667365	0.168760	0.906432
C67	C	1.078260	-0.280697	0.375398
C68	C	1.578260	0.219303	0.875398
C69	C	1.079777	-0.207972	0.375932
C70	C	1.579777	0.292028	0.875932
N71	N	1.112713	-0.446149	0.441737
N72	N	1.612713	0.053851	0.941737
N73	N	1.111278	-0.515237	0.441234
N74	N	1.611278	-0.015237	0.941234
C75	C	1.162788	-0.550357	0.404819
C76	C	1.662788	-0.050357	0.904819
N77	N	1.215805	-0.513784	0.368943
N78	N	1.715805	-0.013784	0.868943
N79	N	1.217243	-0.444692	0.369452
N80	N	1.717243	0.055308	0.869452
C81	C	1.165710	-0.410097	0.405849
C82	C	1.665710	0.089903	0.905849
C83	C	1.250240	-0.679746	0.435253
C84	C	1.750240	-0.179746	0.935253
C85	C	1.248718	-0.752471	0.434702
C86	C	1.748718	-0.252471	0.934702
C87	C	1.069002	-0.724123	0.372130
C88	C	1.569002	-0.224123	0.872130
C89	C	1.070525	-0.651398	0.372672
C90	C	1.570525	-0.151398	0.872672
C91	C	1.161148	-0.629215	0.404239
C92	C	1.661148	-0.129215	0.904239
C93	C	1.344533	0.002943	0.468095
C94	C	1.844533	0.502943	0.968095
C95	C	1.453976	-0.002802	0.506193
C96	C	1.953976	0.497198	1.006193
C97	C	1.156500	0.147934	0.402607
C98	C	1.656500	0.647934	0.902607
C99	C	1.158107	0.225340	0.403152
C100	C	1.658107	0.725340	0.903152
N101	N	1.231134	-0.031786	0.677353
N102	N	1.731134	0.468214	1.177353
N103	N	1.097383	0.071329	0.133311
N104	N	1.597383	0.571329	0.633311
C105	C	0.989570	0.154410	0.945036
C106	C	1.489570	0.654410	1.445036
C107	C	1.016628	0.133561	1.054959
C108	C	1.516628	0.633561	1.554959
C109	C	1.151109	0.029919	1.101761
C110	C	1.651109	0.529919	1.601761
C111	C	1.124059	0.050757	0.991838
C112	C	1.624059	0.550757	1.491838
C113	C	1.043290	0.113003	0.913484
C114	C	1.543290	0.613003	1.413484
C115	C	1.177778	0.009350	0.960286
C116	C	1.677778	0.509350	1.460286
C117	C	1.150734	0.030189	0.850374
C118	C	1.650734	0.530189	1.350374
C119	C	1.069970	0.092435	0.772015
C120	C	1.569970	0.592435	1.272015
C121	C	1.016245	0.133842	0.803572
C122	C	1.516245	0.633842	1.303572
C123	C	1.258552	-0.052893	1.038644
C124	C	1.758552	0.447107	1.538644
C125	C	1.312272	-0.094299	1.007091
C126	C	1.812272	0.405701	1.507091
C127	C	1.285223	-0.073464	0.897176
C128	C	1.785223	0.426536	1.397176
C129	C	1.204459	-0.011218	0.818817
C130	C	1.704459	0.488782	1.318817
C131	C	1.338948	-0.114871	0.865619
C132	C	1.838948	0.385129	1.365619
C133	C	1.311903	-0.094032	0.755707
C134	C	1.811903	0.405968	1.255707
C135	C	1.177414	0.009621	0.708905
C136	C	1.677414	0.509621	1.208905
H137	H	0.454285	0.047608	0.245206
H138	H	0.954285	0.547608	0.745206
H139	H	1.355649	-0.127749	0.730019
H140	H	1.855649	0.372251	1.230019
H141	H	0.997978	-0.610255	0.347415
H142	H	1.497978	-0.110255	0.847415
H143	H	0.421066	0.029431	0.336831
H144	H	0.921066	0.529431	0.836831
H145	H	1.111637	0.060304	0.645102
H146	H	1.611637	0.560304	1.145102
H147	H	0.505982	-0.036015	0.682202
H148	H	1.005982	0.463985	1.182202
H149	H	0.995225	-0.742192	0.346438
H150	H	1.495225	-0.242192	0.846438
H151	H	1.330526	-0.350195	0.463240
H152	H	1.830526	0.149805	0.963240
H153	H	1.333284	-0.218264	0.464225
H154	H	1.833284	0.281736	0.964225
H155	H	1.047955	0.109403	0.682520
H156	H	1.547955	0.609403	1.182520
H157	H	0.505112	0.075448	0.104984
H158	H	1.005112	0.575448	0.604984
H159	H	0.635955	0.085386	0.063502
H160	H	1.135955	0.585386	0.563502
H161	H	0.950468	0.184525	0.739769
H162	H	1.450468	0.684525	1.239769
H163	H	0.923793	0.205093	0.881233
H164	H	1.423793	0.705093	1.381233
H165	H	1.004484	-0.298772	0.349709
H166	H	1.504484	0.201228	0.849709
H167	H	1.216874	-0.020762	1.165569
H168	H	1.716874	0.479238	1.665569
H169	H	0.972877	0.167285	1.080640
H170	H	1.472877	0.667285	1.580640
H171	H	1.280572	-0.069855	1.128140
H172	H	1.780572	0.430145	1.628140
H173	H	1.007225	-0.166828	0.350669
H174	H	1.507225	0.333172	0.850669
H175	H	1.321269	-0.793613	0.459961
H176	H	1.821269	-0.293613	0.959961
H177	H	1.324030	-0.661683	0.460953
H178	H	1.824030	-0.161683	0.960953
H179	H	1.378037	-0.144980	1.070900
H180	H	1.878037	0.355020	1.570900
H181	H	0.822518	0.075584	0.128462
H182	H	1.322518	0.575584	0.628462
H183	H	0.907449	0.010126	0.473818
H184	H	1.407449	0.510126	0.973818
H185	H	1.404717	-0.165549	0.929430
H186	H	1.904717	0.334451	1.429430
H187	H	0.874216	-0.008058	0.565449
H188	H	1.374216	0.491942	1.065449
H189	H	0.823401	-0.035889	0.705657
H190	H	1.323401	0.464111	1.205657
H191	H	0.692552	-0.045830	0.747144
H192	H	1.192552	0.454170	1.247144
