data_functionalizedCrystal
_audit_creation_method	'MofGen! by Chris Wilmer'
_symmetry_space_group_name_H-M	'P1'
_symmetry_Int_Tables_number	1
_symmetry_cell_setting	triclinic
loop_
_symmetry_equiv_pos_as_xyz
  x,y,z
_cell_length_a	19.077105
_cell_length_b	25.639239
_cell_length_c	19.077237
_cell_angle_alpha	92.269360
_cell_angle_beta	85.486555
_cell_angle_gamma	87.734929
loop_
_atom_site_label
_atom_site_type_symbol
_atom_site_fract_x
_atom_site_fract_y
_atom_site_fract_z
Zn1	Zn	1.093599	-0.254028	-0.441820
Zn2	Zn	1.593599	0.245972	0.058180
Zn3	Zn	1.088762	-0.337802	-0.323927
Zn4	Zn	1.588762	0.162198	0.176073
Zn5	Zn	0.970992	-0.246722	-0.319220
Zn6	Zn	1.470992	0.253278	0.180780
Zn7	Zn	0.975650	-0.337766	-0.437044
Zn8	Zn	1.475650	0.162234	0.062956
O9	O	1.032251	-0.294079	-0.380503
O10	O	1.532251	0.205921	0.119497
O11	O	1.191606	-0.268214	-0.430151
O12	O	1.691606	0.231786	0.069849
O13	O	1.069166	-0.322678	-0.224654
O14	O	1.569166	0.177322	0.275346
O15	O	0.987332	-0.174529	-0.335511
O16	O	1.487332	0.325471	0.164489
O17	O	1.188052	-0.329762	-0.343535
O18	O	1.688052	0.170238	0.156465
O19	O	1.077410	-0.179897	-0.425586
O20	O	1.577410	0.320103	0.074414
O21	O	0.982641	-0.255761	-0.221195
O22	O	1.482641	0.244239	0.278805
O23	O	0.872961	-0.255726	-0.330880
O24	O	1.372961	0.244274	0.169120
O25	O	0.995269	-0.329700	-0.536327
O26	O	1.495269	0.170300	-0.036327
O27	O	0.876383	-0.322616	-0.417445
O28	O	1.376383	0.177384	0.082555
O29	O	1.081926	-0.268178	-0.539836
O30	O	1.581926	0.231822	-0.039836
O31	O	1.073682	-0.410959	-0.338904
O32	O	1.573682	0.089041	0.161096
O33	O	0.990579	-0.410933	-0.422010
O34	O	1.490579	0.089067	0.077990
C35	C	0.849094	-0.288374	-0.373134
C36	C	1.349094	0.211626	0.126866
C37	C	0.770739	-0.285947	-0.369998
C38	C	1.270739	0.214053	0.130002
C39	C	0.735725	-0.319680	-0.413524
C40	C	1.235725	0.180320	0.086476
C41	C	0.662102	-0.317393	-0.410581
C42	C	1.162102	0.182607	0.089419
C43	C	0.623495	-0.281374	-0.364109
C44	C	1.123495	0.218626	0.135891
C45	C	0.658514	-0.247636	-0.320581
C46	C	1.158514	0.252364	0.179419
C47	C	0.732136	-0.249922	-0.323528
C48	C	1.232136	0.250078	0.176472
C49	C	0.403119	-0.270796	-0.350473
C50	C	0.903119	0.229204	0.149527
C51	C	0.329492	-0.268514	-0.347528
C52	C	0.829492	0.231486	0.152472
C53	C	0.333085	-0.338270	-0.437529
C54	C	0.833085	0.161730	0.062471
C55	C	0.406708	-0.340555	-0.440469
C56	C	0.906708	0.159445	0.059531
C57	C	0.441721	-0.306816	-0.396944
C58	C	0.941721	0.193184	0.103056
N59	N	0.548241	-0.279036	-0.361098
N60	N	1.048241	0.220964	0.138902
N61	N	0.516973	-0.309152	-0.399959
N62	N	1.016973	0.190848	0.100041
C63	C	1.032131	-0.429917	-0.380466
C64	C	1.532131	0.070083	0.119534
C65	C	1.032145	-0.488032	-0.380476
C66	C	1.532145	0.011968	0.119524
C67	C	1.075643	-0.848406	-0.337311
C68	C	1.575643	-0.348406	0.162689
C69	C	1.075671	-0.903012	-0.337321
C70	C	1.575671	-0.403012	0.162679
O71	O	1.112530	-0.931253	-0.300580
O72	O	1.612530	-0.431253	0.199420
N73	N	1.032376	-0.930324	-0.380555
N74	N	1.532376	-0.430324	0.119445
C75	C	0.989057	-0.903028	-0.423785
C76	C	1.489057	-0.403028	0.076215
O77	O	0.952235	-0.931272	-0.460560
O78	O	1.452235	-0.431272	0.039440
C79	C	0.989033	-0.848423	-0.423778
C80	C	1.489033	-0.348423	0.076222
C81	C	1.032325	-0.821114	-0.380537
C82	C	1.532325	-0.321114	0.119463
C83	C	1.118932	-0.821097	-0.294074
C84	C	1.618932	-0.321097	0.205926
C85	C	1.118903	-0.766495	-0.294062
C86	C	1.618903	-0.266495	0.205938
C87	C	1.075585	-0.739203	-0.337288
C88	C	1.575585	-0.239203	0.162712
C89	C	1.032296	-0.766512	-0.380525
C90	C	1.532296	-0.266512	0.119475
C91	C	0.945718	-0.821128	-0.467012
C92	C	1.445718	-0.321128	0.032988
C93	C	0.945699	-0.766520	-0.467001
C94	C	1.445699	-0.266520	0.032999
C95	C	0.988991	-0.739211	-0.423760
C96	C	1.488991	-0.239211	0.076240
C97	C	0.988950	-0.684618	-0.423740
C98	C	1.488950	-0.184618	0.076260
N99	N	1.032244	-0.657306	-0.380507
N100	N	1.532244	-0.157306	0.119493
C101	C	1.075562	-0.684599	-0.337281
C102	C	1.575562	-0.184599	0.162719
C103	C	0.989110	-1.017700	-0.423798
C104	C	1.489110	-0.517700	0.076202
C105	C	0.989130	-1.072303	-0.423802
C106	C	1.489130	-0.572303	0.076198
C107	C	1.075745	-1.072284	-0.337339
C108	C	1.575745	-0.572284	0.162661
C109	C	1.075721	-1.017680	-0.337332
C110	C	1.575721	-0.517680	0.162668
C111	C	1.032405	-0.990388	-0.380565
C112	C	1.532405	-0.490388	0.119435
C113	C	1.075497	-0.569931	-0.337260
C114	C	1.575497	-0.069931	0.162740
C115	C	1.075463	-0.515324	-0.337250
C116	C	1.575463	-0.015324	0.162750
C117	C	0.988851	-0.515349	-0.423716
C118	C	1.488851	-0.015349	0.076284
C119	C	0.988883	-0.569950	-0.423723
C120	C	1.488883	-0.069950	0.076277
C121	C	1.032212	-0.597240	-0.380493
C122	C	1.532212	-0.097240	0.119507
O123	O	0.952112	-0.656342	-0.460464
O124	O	1.452112	-0.156342	0.039536
O125	O	1.112384	-0.656348	-0.300519
O126	O	1.612384	-0.156348	0.199481
C127	C	1.216123	-0.299807	-0.387901
C128	C	1.716123	0.200193	0.112099
C129	C	1.294478	-0.302248	-0.391053
C130	C	1.794478	0.197752	0.108947
C131	C	1.039657	-0.299750	-0.564375
C132	C	1.539657	0.200250	-0.064375
C133	C	1.042813	-0.302167	-0.642730
C134	C	1.542813	0.197833	-0.142730
C135	C	1.032391	-0.157712	-0.380556
C136	C	1.532391	0.342288	0.119444
C137	C	1.032450	-0.099600	-0.380579
C138	C	1.532450	0.400400	0.119421
C139	C	1.065454	-0.319537	-1.083981
C140	C	1.565454	0.180463	-0.583981
C141	C	1.062478	-0.317263	-1.010358
C142	C	1.562478	0.182737	-0.510358
C143	C	1.015946	-0.281284	-0.971753
C144	C	1.515946	0.218716	-0.471753
C145	C	0.972381	-0.247580	-1.006776
C146	C	1.472381	0.252420	-0.506776
C147	C	0.975354	-0.249857	-1.080398
C148	C	1.475354	0.250143	-0.580398
C149	C	1.002221	-0.270740	-0.751374
C150	C	1.502221	0.229260	-0.251374
C151	C	0.999253	-0.268464	-0.677747
C152	C	1.499253	0.231536	-0.177747
C153	C	1.089350	-0.338148	-0.681335
C154	C	1.589350	0.161852	-0.181335
C155	C	1.092321	-0.340420	-0.754958
C156	C	1.592321	0.159580	-0.254958
C157	C	1.048754	-0.306718	-0.789974
C158	C	1.548754	0.193282	-0.289974
N159	N	1.012904	-0.278957	-0.896498
N160	N	1.512904	0.221043	-0.396498
N161	N	1.051792	-0.309048	-0.865227
N162	N	1.551792	0.190952	-0.365227
C163	C	1.024914	-0.288394	-0.197348
C164	C	1.524914	0.211606	0.302652
C165	C	1.021894	-0.285835	-0.118999
C166	C	1.521894	0.214165	0.381001
H167	H	0.304570	-0.365738	-0.472966
H168	H	0.804570	0.134262	0.027034
C169	C	1.170140	-0.958858	-0.331416
C170	C	1.670140	-0.458858	0.168584
C171	C	1.123311	-0.987663	-0.289805
C172	C	1.623311	-0.487663	0.210195
H173	H	1.199519	-0.940327	-0.302072
H174	H	1.699519	-0.440327	0.197928
H175	H	1.198323	-0.981918	-0.363233
H176	H	1.698323	-0.481918	0.136767
H177	H	1.144335	-0.934786	-0.357154
H178	H	1.644335	-0.434786	0.142846
H179	H	1.149117	-1.011737	-0.264070
H180	H	1.649117	-0.511737	0.235930
H181	H	1.095125	-0.964600	-0.257976
H182	H	1.595125	-0.464600	0.242024
H183	H	1.110716	-0.493091	-0.302036
H184	H	1.610716	0.006909	0.197964
C185	C	0.852122	-0.217695	-0.979323
C186	C	1.352122	0.282305	-0.479323
C187	C	0.921229	-0.208033	-0.964340
C188	C	1.421229	0.291967	-0.464340
H189	H	0.820544	-0.193281	-0.953122
H190	H	1.320544	0.306719	-0.453122
H191	H	0.847661	-0.214225	-1.028175
H192	H	1.347661	0.285775	-0.528175
H193	H	0.841291	-0.252130	-0.966822
H194	H	1.341291	0.247870	-0.466822
H195	H	0.932062	-0.173600	-0.976847
H196	H	1.432062	0.326400	-0.476847
H197	H	0.925693	-0.211499	-0.915478
H198	H	1.425693	0.288501	-0.415478
H199	H	0.953580	-0.493119	-0.458908
H200	H	1.453580	0.006881	0.041092
H201	H	1.110782	-0.592144	-0.302060
H202	H	1.610782	-0.092144	0.197940
H203	H	1.103349	-0.348833	-1.115408
H204	H	1.603349	0.151167	-0.615408
H205	H	1.097941	-0.344713	-0.981850
H206	H	1.597941	0.155287	-0.481850
H207	H	0.298060	-0.239177	-0.309688
H208	H	0.798060	0.260823	0.190312
H209	H	1.154157	-0.744263	-0.258854
H210	H	1.654157	-0.244263	0.241146
H211	H	0.939884	-0.222412	-1.108908
H212	H	1.439884	0.277588	-0.608908
H213	H	1.124819	-0.365587	-0.652817
H214	H	1.624819	0.134413	-0.152817
H215	H	0.961362	-0.239162	-0.646317
H216	H	1.461362	0.260838	-0.146317
H217	H	0.966745	-0.243298	-0.779875
H218	H	1.466745	0.256702	-0.279875
H219	H	0.910426	-0.744303	-0.502209
H220	H	1.410426	-0.244303	-0.002209
C221	C	0.731874	-0.388396	-0.502197
C222	C	1.231874	0.111604	-0.002197
C223	C	0.778158	-0.359273	-0.464612
C224	C	1.278158	0.140727	0.035388
H225	H	0.758071	-0.412835	-0.533741
H226	H	1.258071	0.087165	-0.033741
H227	H	0.701900	-0.406519	-0.470285
H228	H	1.201900	0.093481	0.029715
H229	H	0.704270	-0.365582	-0.528065
H230	H	1.204270	0.134418	-0.028065
H231	H	0.805760	-0.382086	-0.438740
H232	H	1.305760	0.117914	0.061260
H233	H	0.808145	-0.341148	-0.496529
H234	H	1.308145	0.158852	0.003471
H235	H	1.130212	-0.369718	-0.786385
H236	H	1.630212	0.130282	-0.286385
C237	C	1.204531	-0.815578	-0.208603
C238	C	1.704531	-0.315578	0.291397
C239	C	1.166548	-0.851090	-0.246550
C240	C	1.666548	-0.351090	0.253450
H241	H	1.233922	-0.834093	-0.179255
H242	H	1.733922	-0.334093	0.320745
H243	H	1.232700	-0.796042	-0.240422
H244	H	1.732700	-0.296042	0.259578
H245	H	1.172729	-0.792521	-0.180385
H246	H	1.672729	-0.292521	0.319615
H247	H	1.198351	-0.874146	-0.274771
H248	H	1.698351	-0.374146	0.225229
H249	H	1.138377	-0.870635	-0.214726
H250	H	1.638377	-0.370635	0.285274
C251	C	0.579633	-0.385452	-0.416874
C252	C	1.079633	0.114548	0.083126
C253	C	0.623608	-0.354474	-0.458420
C254	C	1.123608	0.145526	0.041580
H255	H	0.555864	-0.408342	-0.446410
H256	H	1.055864	0.091658	0.053590
H257	H	0.607091	-0.405356	-0.387266
H258	H	1.107091	0.094644	0.112734
H259	H	0.546111	-0.363664	-0.388779
H260	H	1.046111	0.136336	0.111221
H261	H	0.657134	-0.376262	-0.486512
H262	H	1.157134	0.123738	0.013488
H263	H	0.596148	-0.334568	-0.488041
H264	H	1.096148	0.165432	0.011959
C265	C	0.894631	-0.953716	-0.429695
C266	C	1.394631	-0.453716	0.070305
C267	C	0.941485	-0.987702	-0.471316
C268	C	1.441485	-0.487702	0.028684
H269	H	0.865234	-0.935197	-0.459032
H270	H	1.365234	-0.435197	0.040968
H271	H	0.866469	-0.973261	-0.397881
H272	H	1.366469	-0.473261	0.102119
H273	H	0.920417	-0.929634	-0.403952
H274	H	1.420417	-0.429634	0.096048
H275	H	0.915699	-1.011786	-0.497055
H276	H	1.415699	-0.511786	0.002945
H277	H	0.969650	-0.968156	-0.503142
H278	H	1.469650	-0.468156	-0.003142
C279	C	0.434183	-0.370541	-0.560687
C280	C	0.934183	0.129459	-0.060687
C281	C	0.449140	-0.380146	-0.491558
C282	C	0.949140	0.119854	0.008442
H283	H	0.460382	-0.394984	-0.592226
H284	H	0.960382	0.105016	-0.092226
H285	H	0.385331	-0.374009	-0.565156
H286	H	0.885331	0.125991	-0.065156
H287	H	0.446703	-0.336119	-0.571566
H288	H	0.946703	0.163881	-0.071566
H289	H	0.436614	-0.414567	-0.480678
H290	H	0.936614	0.085433	0.019322
H291	H	0.498003	-0.376684	-0.487088
H292	H	0.998003	0.123316	0.012912
C293	C	0.420964	-0.242211	-0.232073
C294	C	0.920964	0.257789	0.267927
C295	C	0.441596	-0.233712	-0.302627
C296	C	0.941596	0.266288	0.197373
H297	H	0.444724	-0.219316	-0.202535
H298	H	0.944724	0.280684	0.297465
H299	H	0.371599	-0.235699	-0.223675
H300	H	0.871599	0.264301	0.276325
H301	H	0.432591	-0.277381	-0.222159
H302	H	0.932591	0.222619	0.277841
H303	H	0.429965	-0.198542	-0.312543
H304	H	0.929965	0.301458	0.187457
H305	H	0.490973	-0.240220	-0.311028
H306	H	0.990973	0.259780	0.188972
C307	C	0.571889	-0.234765	-0.222460
C308	C	1.071889	0.265235	0.277540
C309	C	0.616078	-0.208042	-0.269499
C310	C	1.116078	0.291958	0.230501
H311	H	0.545696	-0.210320	-0.190921
H312	H	1.045696	0.289680	0.309079
H313	H	0.540503	-0.254525	-0.247960
H314	H	1.040503	0.245475	0.252040
H315	H	0.599505	-0.257568	-0.196588
H316	H	1.099505	0.242432	0.303412
H317	H	0.588462	-0.185241	-0.295374
H318	H	1.088462	0.314759	0.204626
H319	H	0.647469	-0.188273	-0.243995
H320	H	1.147469	0.311727	0.256005
C321	C	0.721194	-0.180750	-0.234259
C322	C	1.221194	0.319250	0.265741
C323	C	0.770626	-0.212845	-0.275676
C324	C	1.270626	0.287155	0.224324
H325	H	0.744957	-0.157862	-0.204715
H326	H	1.244957	0.342138	0.295285
H327	H	0.693744	-0.160843	-0.263872
H328	H	1.193744	0.339157	0.236128
H329	H	0.691363	-0.201780	-0.206092
H330	H	1.191363	0.298220	0.293908
H331	H	0.800453	-0.191816	-0.303848
H332	H	1.300453	0.308184	0.196152
H333	H	0.798087	-0.232754	-0.246060
H334	H	1.298087	0.267246	0.253940
C335	C	1.170273	-1.136228	-0.331534
C336	C	1.670273	-0.636228	0.168466
C337	C	1.123424	-1.102270	-0.289861
C338	C	1.623424	-0.602270	0.210139
H339	H	1.199725	-1.154732	-0.302234
H340	H	1.699725	-0.654732	0.197766
H341	H	1.144490	-1.160318	-0.357251
H342	H	1.644490	-0.660318	0.142749
H343	H	1.198386	-1.116659	-0.363372
H344	H	1.698386	-0.616659	0.136628
H345	H	1.095308	-1.121839	-0.258027
H346	H	1.595308	-0.621839	0.241973
H347	H	1.149211	-1.078177	-0.264132
H348	H	1.649211	-0.578177	0.235868
C349	C	0.903515	-1.066824	-0.509266
C350	C	1.403515	-0.566824	-0.009266
C351	C	0.941538	-1.102318	-0.471330
C352	C	1.441538	-0.602318	0.028670
H353	H	0.874139	-1.085354	-0.538614
H354	H	1.374139	-0.585354	-0.038614
H355	H	0.875328	-1.043773	-0.477440
H356	H	1.375328	-0.543773	0.022560
H357	H	0.935294	-1.047280	-0.537482
H358	H	1.435294	-0.547280	-0.037482
H359	H	0.909759	-1.121859	-0.443110
H360	H	1.409759	-0.621859	0.056890
H361	H	0.969726	-1.125378	-0.503161
H362	H	1.469726	-0.625378	-0.003161
C363	C	0.860120	-0.815640	-0.552489
C364	C	1.360120	-0.315640	-0.052489
C365	C	0.898134	-0.851137	-0.514550
C366	C	1.398134	-0.351137	-0.014550
H367	H	0.830747	-0.834167	-0.581842
H368	H	1.330747	-0.334167	-0.081842
H369	H	0.831932	-0.792589	-0.520664
H370	H	1.331932	-0.292589	-0.020664
H371	H	0.891904	-0.796096	-0.580699
H372	H	1.391904	-0.296096	-0.080699
H373	H	0.866350	-0.870679	-0.486335
H374	H	1.366350	-0.370679	0.013665
H375	H	0.926325	-0.874197	-0.546379
H376	H	1.426325	-0.374197	-0.046379
C377	C	0.903269	-0.564482	-0.509191
C378	C	1.403269	-0.064482	-0.009191
C379	C	0.941296	-0.599972	-0.471254
C380	C	1.441296	-0.099972	0.028746
H381	H	0.873899	-0.583015	-0.538542
H382	H	1.373899	-0.083015	-0.038542
H383	H	0.875076	-0.541435	-0.477366
H384	H	1.375076	-0.041435	0.022634
H385	H	0.935046	-0.544934	-0.537404
H386	H	1.435046	-0.044934	-0.037404
H387	H	0.909520	-0.619518	-0.443037
H388	H	1.409520	-0.119518	0.056963
H389	H	0.969492	-0.623029	-0.503083
H390	H	1.469492	-0.123029	-0.003083
