data_functionalizedCrystal
_audit_creation_method	'MofGen! by Chris Wilmer'
_symmetry_space_group_name_H-M	'P1'
_symmetry_Int_Tables_number	1
_symmetry_cell_setting	triclinic
loop_
_symmetry_equiv_pos_as_xyz
  x,y,z
_cell_length_a	16.120490
_cell_length_b	16.120531
_cell_length_c	19.076919
_cell_angle_alpha	95.042833
_cell_angle_beta	90.498645
_cell_angle_gamma	89.829344
loop_
_atom_site_label
_atom_site_type_symbol
_atom_site_fract_x
_atom_site_fract_y
_atom_site_fract_z
Zn1	Zn	1.231038	0.416792	0.468362
Zn2	Zn	1.731038	0.916792	0.968362
Zn3	Zn	1.229460	0.550799	0.356325
Zn4	Zn	1.729460	1.050799	0.856325
Zn5	Zn	1.098166	0.404165	0.344463
Zn6	Zn	1.598166	0.904165	0.844463
Zn7	Zn	1.084906	0.548707	0.467713
Zn8	Zn	1.584906	1.048707	0.967713
O9	O	1.160892	0.480116	0.409216
O10	O	1.660892	0.980116	0.909216
O11	O	1.346932	0.440728	0.458736
O12	O	1.846932	0.940728	0.958736
O13	O	1.216932	0.526938	0.256283
O14	O	1.716932	1.026938	0.756283
O15	O	1.122001	0.289266	0.356206
O16	O	1.622001	0.789266	0.856206
O17	O	1.345773	0.539182	0.376422
O18	O	1.845773	1.039182	0.876422
O19	O	1.219621	0.298543	0.447234
O20	O	1.719621	0.798543	0.947234
O21	O	1.120471	0.419207	0.247568
O22	O	1.620471	0.919207	0.747568
O23	O	0.980303	0.417179	0.355577
O24	O	1.480303	0.917179	0.855577
O25	O	1.099402	0.535617	0.566268
O26	O	1.599402	1.035617	1.066268
O27	O	0.970562	0.523373	0.446128
O28	O	1.470562	1.023373	0.946128
O29	O	1.206764	0.438700	0.566744
O30	O	1.706764	0.938700	1.066744
O31	O	1.204075	0.667095	0.375793
O32	O	1.704075	1.167095	0.875793
O33	O	1.097872	0.665558	0.457630
O34	O	1.597872	1.165558	0.957630
C35	C	0.945328	0.468679	0.399496
C36	C	1.445328	0.968679	0.899496
C37	C	0.853107	0.463808	0.395355
C38	C	1.353107	0.963808	0.895355
C39	C	0.638367	0.505379	0.430696
C40	C	1.138367	1.005379	0.930696
C41	C	0.684262	0.454921	0.387794
C42	C	1.184262	0.954921	0.887794
C43	C	0.778216	0.459867	0.392002
C44	C	1.278216	0.959867	0.892002
C45	C	0.544405	0.500434	0.426489
C46	C	1.044405	1.000434	0.926489
C47	C	1.149386	0.696555	0.417945
C48	C	1.649386	1.196555	0.917945
C49	C	1.144538	0.789153	0.421706
C50	C	1.644538	1.289153	0.921706
C51	C	1.135691	0.958693	0.428588
C52	C	1.635691	1.458693	0.928588
C53	C	1.186127	1.000698	0.389806
C54	C	1.686127	1.500698	0.889806
C55	C	1.181205	1.095035	0.393635
C56	C	1.681205	1.595035	0.893635
C57	C	1.140612	0.864347	0.424760
C58	C	1.640612	1.364347	0.924760
C59	C	1.377298	0.491597	0.418975
C60	C	1.877298	0.991597	0.918975
C61	C	1.469518	0.496490	0.423133
C62	C	1.969518	0.996490	0.923133
C63	C	1.151780	0.488334	0.592752
C64	C	1.651780	0.988334	1.092752
C65	C	1.147897	0.491836	0.670964
C66	C	1.647897	0.991836	1.170964
C67	C	1.172437	1.262831	0.400455
C68	C	1.672437	1.762831	0.900455
C69	C	1.177283	1.170232	0.396685
C70	C	1.677283	1.670232	0.896685
C71	C	1.170020	0.471872	0.226394
C72	C	1.670020	0.971872	0.726394
C73	C	1.174076	0.468144	0.148180
C74	C	1.674076	0.968144	0.648180
C75	C	1.201968	0.443024	0.707957
C76	C	1.701968	0.943024	1.207957
C77	C	1.198309	0.446310	0.781445
C78	C	1.698309	0.946310	1.281445
C79	C	1.140584	0.498414	0.817939
C80	C	1.640584	0.998414	1.317939
C81	C	1.086508	0.547228	0.780940
C82	C	1.586508	1.047228	1.280940
C83	C	1.090163	0.543937	0.707453
C84	C	1.590163	1.043937	1.207453
C85	C	1.123655	0.513666	1.037694
C86	C	1.623655	1.013666	1.537694
C87	C	1.120005	0.516956	1.111186
C88	C	1.620005	1.016956	1.611186
C89	C	1.231807	0.416036	1.111686
C90	C	1.731807	0.916036	1.611686
C91	C	1.235460	0.412753	1.038198
C92	C	1.735460	0.912753	1.538198
C93	C	1.181381	0.461564	1.001206
C94	C	1.681381	0.961564	1.501206
N95	N	1.136845	0.501777	0.893055
N96	N	1.636845	1.001777	1.393055
N97	N	1.185117	0.458196	0.926090
N98	N	1.685117	0.958196	1.426090
H99	H	1.233004	0.965808	0.353727
H100	H	1.733004	1.465808	0.853727
H101	H	0.669636	0.552290	0.470582
H102	H	1.169636	1.052290	0.970582
H103	H	1.088817	0.993580	0.464662
H104	H	1.588817	1.493580	0.964662
N105	N	0.642856	0.392779	0.334948
N106	N	1.142856	0.892779	0.834948
H107	H	0.607522	0.353651	0.360459
H108	H	1.107522	0.853651	0.860459
H109	H	0.606764	0.423322	0.302092
H110	H	1.106764	0.923322	0.802092
N111	N	1.264235	0.386831	0.668599
N112	N	1.764235	0.886831	1.168599
H113	H	1.297931	0.356407	0.703188
H114	H	1.797931	0.856407	1.203188
H115	H	1.234034	0.345122	0.635032
H116	H	1.734034	0.845122	1.135032
H117	H	1.079631	0.553424	1.007585
H118	H	1.579631	1.053424	1.507585
H119	H	1.242341	0.406564	0.811562
H120	H	1.742341	0.906564	1.311562
H121	H	1.282468	0.370327	1.008491
H122	H	1.782468	0.870327	1.508491
H123	H	1.275834	0.376297	1.141814
H124	H	1.775834	0.876297	1.641814
N125	N	1.057744	0.573159	1.150550
N126	N	1.557744	1.073159	1.650550
H127	H	1.024039	0.603581	1.115965
H128	H	1.524039	1.103581	1.615965
H129	H	1.019644	0.538577	1.177946
H130	H	1.519644	1.038577	1.677946
H131	H	1.039503	0.589649	0.810659
H132	H	1.539503	1.089649	1.310659
H133	H	1.046125	0.583676	0.677333
H134	H	1.546125	1.083676	1.177333
