data_functionalizedCrystal
_audit_creation_method	'MofGen! by Chris Wilmer'
_symmetry_space_group_name_H-M	'P1'
_symmetry_Int_Tables_number	1
_symmetry_cell_setting	triclinic
loop_
_symmetry_equiv_pos_as_xyz
  x,y,z
_cell_length_a	19.805407
_cell_length_b	16.625545
_cell_length_c	19.805399
_cell_angle_alpha	90.025578
_cell_angle_beta	90.024201
_cell_angle_gamma	90.024805
loop_
_atom_site_label
_atom_site_type_symbol
_atom_site_fract_x
_atom_site_fract_y
_atom_site_fract_z
Zn1	Zn	1.034740	-0.321036	0.382813
Zn2	Zn	1.368073	0.012297	0.716146
Zn3	Zn	1.701406	0.345630	1.049479
Zn4	Zn	1.034656	-0.455874	0.269628
Zn5	Zn	1.367990	-0.122540	0.602962
Zn6	Zn	1.701323	0.210793	0.936295
Zn7	Zn	0.921554	-0.321057	0.269628
Zn8	Zn	1.254888	0.012276	0.602961
Zn9	Zn	1.588221	0.345610	0.936295
Zn10	Zn	0.921520	-0.455829	0.382766
Zn11	Zn	1.254853	-0.122496	0.716099
Zn12	Zn	1.588186	0.210838	1.049433
O13	O	0.978117	-0.388449	0.326209
O14	O	1.311451	-0.055116	0.659542
O15	O	1.644784	0.278218	0.992875
O16	O	1.129445	-0.338933	0.367818
O17	O	1.462779	-0.005600	0.701151
O18	O	1.796112	0.327734	1.034485
O19	O	1.019633	-0.438017	0.174912
O20	O	1.352966	-0.104684	0.508245
O21	O	1.686299	0.228650	0.841578
O22	O	0.936618	-0.208222	0.284662
O23	O	1.269951	0.125112	0.617995
O24	O	1.603285	0.458445	0.951328
O25	O	1.129384	-0.437997	0.284662
O26	O	1.462717	-0.104664	0.617995
O27	O	1.796051	0.228669	0.951329
O28	O	1.019775	-0.208207	0.367818
O29	O	1.353108	0.125127	0.701151
O30	O	1.686442	0.458460	1.034485
O31	O	0.936537	-0.338968	0.174912
O32	O	1.269871	-0.005635	0.508245
O33	O	1.603204	0.327699	0.841578
O34	O	0.826833	-0.338925	0.284616
O35	O	1.160167	-0.005591	0.617950
O36	O	1.493500	0.327742	0.951283
O37	O	0.936559	-0.437921	0.477489
O38	O	1.269892	-0.104588	0.810822
O39	O	1.603225	0.228745	1.144155
O40	O	0.826808	-0.437941	0.367738
O41	O	1.160141	-0.104608	0.701072
O42	O	1.493474	0.228726	1.034405
O43	O	1.019741	-0.338890	0.477523
O44	O	1.353075	-0.005556	0.810856
O45	O	1.686408	0.327777	1.144190
O46	O	1.019599	-0.568700	0.284617
O47	O	1.352932	-0.235367	0.617950
O48	O	1.686266	0.097967	0.951284
O49	O	0.936478	-0.568667	0.367739
O50	O	1.269811	-0.235334	0.701072
O51	O	1.603145	0.097999	1.034405
C52	C	0.802261	-0.388431	0.326173
C53	C	1.135595	-0.055098	0.659506
C54	C	1.468928	0.278236	0.992839
C55	C	0.727029	-0.388442	0.326173
C56	C	1.060363	-0.055109	0.659507
C57	C	1.393696	0.278224	0.992840
C58	C	0.265243	-0.440104	0.369466
C59	C	0.598576	-0.106771	0.702799
C60	C	0.931910	0.226563	1.036132
C61	C	0.335931	-0.440102	0.369451
C62	C	0.669265	-0.106769	0.702785
C63	C	1.002598	0.226564	1.036118
C64	C	0.371268	-0.388468	0.326235
C65	C	0.704601	-0.055135	0.659569
C66	C	1.037934	0.278198	0.992902
C67	C	0.335912	-0.336838	0.283026
C68	C	0.669245	-0.003505	0.616359
C69	C	1.002579	0.329828	0.949692
C70	C	0.265225	-0.336844	0.283037
C71	C	0.598558	-0.003511	0.616370
C72	C	0.931892	0.329822	0.949704
C73	C	0.620985	-0.336814	0.282978
C74	C	0.954319	-0.003480	0.616311
C75	C	1.287652	0.329853	0.949645
C76	C	0.691677	-0.336810	0.282971
C77	C	1.025011	-0.003477	0.616305
C78	C	1.358344	0.329857	0.949638
C79	C	0.691692	-0.440072	0.369392
C80	C	1.025025	-0.106738	0.702726
C81	C	1.358358	0.226595	1.036059
C82	C	0.621005	-0.440078	0.369404
C83	C	0.954338	-0.106744	0.702737
C84	C	1.287671	0.226589	1.036070
C85	C	0.585655	-0.388451	0.326192
C86	C	0.918988	-0.055118	0.659525
C87	C	1.252322	0.278216	0.992859
C88	C	0.509007	-0.388454	0.326207
C89	C	0.842340	-0.055121	0.659541
C90	C	1.175673	0.278213	0.992874
C91	C	0.447915	-0.388461	0.326223
C92	C	0.781248	-0.055127	0.659556
C93	C	1.114582	0.278206	0.992890
C94	C	0.978044	-0.597940	0.326187
C95	C	1.311377	-0.264607	0.659521
C96	C	1.644711	0.068727	0.992854
C97	C	0.978074	-0.687561	0.326201
C98	C	1.311408	-0.354228	0.659534
C99	C	1.644741	-0.020894	0.992868
C100	C	0.978101	-0.760343	0.326214
C101	C	1.311434	-0.427010	0.659548
C102	C	1.644767	-0.093677	0.992881
C103	C	0.978140	-0.851652	0.326229
C104	C	1.311473	-0.518319	0.659563
C105	C	1.644807	-0.184985	0.992896
C106	C	0.978175	-0.924428	0.326238
C107	C	1.311509	-0.591095	0.659571
C108	C	1.644842	-0.257762	0.992905
C109	C	0.978214	-1.015743	0.326252
C110	C	1.311547	-0.682409	0.659585
C111	C	1.644881	-0.349076	0.992918
C112	C	1.154660	-0.388468	0.326245
C113	C	1.487994	-0.055135	0.659579
C114	C	1.821327	0.278199	0.992912
C115	C	1.229892	-0.388476	0.326261
C116	C	1.563225	-0.055143	0.659594
C117	C	1.896559	0.278191	0.992928
C118	C	0.978155	-0.388398	0.502752
C119	C	1.311489	-0.055065	0.836085
C120	C	1.644822	0.278268	1.169418
C121	C	0.978172	-0.388377	0.577984
C122	C	1.311505	-0.055043	0.911317
C123	C	1.644838	0.278290	1.244650
C124	C	0.978210	-0.178140	0.326245
C125	C	1.311543	0.155193	0.659578
C126	C	1.644876	0.488527	0.992912
C127	C	0.978249	-0.088519	0.326260
C128	C	1.311582	0.244814	0.659594
C129	C	1.644916	0.578148	0.992927
C130	C	0.978119	-0.388441	0.150353
C131	C	1.311452	-0.055108	0.483686
C132	C	1.644785	0.278225	0.817019
C133	C	0.978234	-0.388236	0.075121
C134	C	1.311567	-0.054903	0.408454
C135	C	1.644900	0.278431	0.741788
C136	C	1.021486	-0.336808	0.613347
C137	C	1.354819	-0.003475	0.946680
C138	C	1.688152	0.329858	1.280013
C139	C	1.021493	-0.336785	0.684035
C140	C	1.354826	-0.003452	1.017368
C141	C	1.688159	0.329882	1.350702
C142	C	0.978188	-0.388334	0.719359
C143	C	1.311522	-0.055001	1.052693
C144	C	1.644855	0.278332	1.386026
C145	C	0.934870	-0.439905	0.683991
C146	C	1.268203	-0.106572	1.017325
C147	C	1.601536	0.226762	1.350658
C148	C	0.934860	-0.439924	0.613304
C149	C	1.268193	-0.106590	0.946637
C150	C	1.601526	0.226743	1.279971
C151	C	0.934908	-0.439830	0.969065
C152	C	1.268241	-0.106497	1.302398
C153	C	1.601574	0.226837	1.635731
C154	C	0.934922	-0.439809	1.039757
C155	C	1.268256	-0.106476	1.373090
C156	C	1.601589	0.226858	1.706423
C157	C	1.021541	-0.336691	1.039796
C158	C	1.354874	-0.003358	1.373129
C159	C	1.688207	0.329976	1.706462
C160	C	1.021531	-0.336710	0.969109
C161	C	1.354864	-0.003376	1.302442
C162	C	1.688197	0.329957	1.635775
C163	C	0.978210	-0.388277	0.933747
C164	C	1.311543	-0.054944	1.267080
C165	C	1.644876	0.278390	1.600413
C166	C	0.978202	-0.388301	0.857098
C167	C	1.311535	-0.054967	1.190432
C168	C	1.644869	0.278366	1.523765
C169	C	0.978199	-0.388315	0.796006
C170	C	1.311533	-0.054982	1.129340
C171	C	1.644866	0.278351	1.462673
H172	H	0.364711	-0.482145	0.404631
H173	H	0.698044	-0.148812	0.737965
H174	H	1.031377	0.184522	1.071298
N175	N	0.888141	-0.495549	0.575167
N176	N	1.221474	-0.162216	0.908500
N177	N	1.554808	0.171117	1.241834
H178	H	0.915624	-0.532927	0.545838
H179	H	1.248957	-0.199594	0.879171
H180	H	1.582291	0.133740	1.212504
H181	H	0.856792	-0.462729	0.545877
H182	H	1.190126	-0.129395	0.879211
H183	H	1.523459	0.203938	1.212544
H184	H	0.236477	-0.482146	0.404661
H185	H	0.569810	-0.148813	0.737994
H186	H	0.903144	0.184521	1.071328
H187	H	0.592237	-0.482121	0.404597
H188	H	0.925570	-0.148787	0.737931
H189	H	1.258904	0.184546	1.071264
N190	N	0.729786	-0.281111	0.236357
N191	N	1.063119	0.052222	0.569690
N192	N	1.396453	0.385556	0.903023
H193	H	0.717457	-0.293563	0.187979
H194	H	1.050790	0.039771	0.521312
H195	H	1.384123	0.373104	0.854646
H196	H	0.779918	-0.288961	0.242966
H197	H	1.113251	0.044372	0.576299
H198	H	1.446585	0.377705	0.909633
H199	H	0.592212	-0.294779	0.247790
H200	H	0.925546	0.038554	0.581123
H201	H	1.258879	0.371888	0.914457
N202	N	1.068202	-0.281216	0.575252
N203	N	1.401535	0.052117	0.908585
N204	N	1.734868	0.385451	1.241919
H205	H	1.061629	-0.289056	0.525105
H206	H	1.394963	0.044277	0.858439
H207	H	1.728296	0.377610	1.191772
H208	H	1.116534	-0.293780	0.587627
H209	H	1.449867	0.039553	0.920960
H210	H	1.783200	0.372886	1.254293
N211	N	1.068266	-0.281068	1.077936
N212	N	1.401599	0.052266	1.411269
N213	N	1.734932	0.385599	1.744602
H214	H	1.061702	-0.288872	1.128076
H215	H	1.395035	0.044461	1.461409
H216	H	1.728369	0.377794	1.794743
H217	H	1.057757	-0.223484	1.065585
H218	H	1.391091	0.109849	1.398918
H219	H	1.724424	0.443183	1.732252
H220	H	0.720482	-0.482111	0.404576
H221	H	1.053815	-0.148778	0.737909
H222	H	1.387148	0.184556	1.071242
N223	N	0.374021	-0.281150	0.236409
N224	N	0.707354	0.052183	0.569743
N225	N	1.040688	0.385517	0.903076
H226	H	0.424166	-0.288977	0.242959
H227	H	0.757499	0.044356	0.576292
H228	H	1.090832	0.377689	0.909625
H229	H	0.361687	-0.223582	0.247030
H230	H	0.695021	0.109751	0.580363
H231	H	1.028354	0.443084	0.913697
H232	H	0.236443	-0.294801	0.247857
H233	H	0.569777	0.038532	0.581190
H234	H	0.903110	0.371865	0.914524
H235	H	1.056765	-0.294795	0.712825
H236	H	1.390098	0.038539	1.046158
H237	H	1.723432	0.371872	1.379491
H238	H	1.056796	-0.294736	0.940351
H239	H	1.390129	0.038598	1.273685
H240	H	1.723462	0.371931	1.607018
H241	H	0.899656	-0.481788	1.068516
H242	H	1.232989	-0.148455	1.401849
H243	H	1.566323	0.184878	1.735182
H244	H	0.899643	-0.481831	0.940281
H245	H	1.232976	-0.148498	1.273615
H246	H	1.566310	0.184836	1.606948
H247	H	0.899608	-0.481875	0.712758
H248	H	1.232941	-0.148541	1.046091
H249	H	1.566275	0.184792	1.379424
