data_functionalizedCrystal
_audit_creation_method	'MofGen! by Chris Wilmer'
_symmetry_space_group_name_H-M	'P1'
_symmetry_Int_Tables_number	1
_symmetry_cell_setting	triclinic
loop_
_symmetry_equiv_pos_as_xyz
  x,y,z
_cell_length_a	11.169417
_cell_length_b	21.395361
_cell_length_c	21.395355
_cell_angle_alpha	90.019049
_cell_angle_beta	89.978801
_cell_angle_gamma	89.968588
loop_
_atom_site_label
_atom_site_type_symbol
_atom_site_fract_x
_atom_site_fract_y
_atom_site_fract_z
Zn1	Zn	1.834810	0.249496	-0.354203
Zn2	Zn	1.834624	0.354256	-0.249425
Zn3	Zn	1.634091	0.249498	-0.249446
Zn4	Zn	1.634033	0.354242	-0.354171
O5	O	1.734389	0.301873	-0.301811
O6	O	2.002735	0.263398	-0.340308
O7	O	1.807969	0.340367	-0.161749
O8	O	1.660819	0.161820	-0.263365
O9	O	2.002598	0.340365	-0.263328
O10	O	1.808287	0.161819	-0.340329
O11	O	1.660639	0.263401	-0.161765
O12	O	1.466134	0.263387	-0.263333
O13	O	1.660720	0.340340	-0.441853
O14	O	1.466091	0.340342	-0.340274
O15	O	1.808230	0.263384	-0.441877
O16	O	1.807913	0.441932	-0.263297
O17	O	1.660539	0.441922	-0.340254
C18	C	1.422565	0.301864	-0.301803
C19	C	1.289165	0.301875	-0.301814
C20	C	1.734232	0.464661	-0.301783
C21	C	1.734274	0.534302	-0.301792
C22	C	1.734489	0.301860	-0.465234
C23	C	1.734532	0.301855	-0.534876
C24	C	2.047432	0.301883	-0.301820
C25	C	2.180832	0.301887	-0.301823
C26	C	1.811080	0.567000	-0.261763
C27	C	1.811136	0.632435	-0.261780
C28	C	1.734365	0.665170	-0.301819
C29	C	1.657554	0.632465	-0.341856
C30	C	1.657509	0.567030	-0.341842
C31	C	1.626302	0.768886	-0.306737
C32	C	1.626345	0.834319	-0.306746
C33	C	1.734506	0.866991	-0.301865
C34	C	1.842627	0.834222	-0.296961
C35	C	1.842582	0.768788	-0.296947
C36	C	1.734407	0.736123	-0.301839
C37	C	1.811379	0.970641	-0.261852
C38	C	1.811438	1.036078	-0.261873
C39	C	1.657845	1.036106	-0.341946
C40	C	1.657798	0.970671	-0.341928
C41	C	1.734563	0.937942	-0.301878
C42	C	1.734582	1.138450	-0.301864
C43	C	1.734667	1.068809	-0.301914
C44	C	1.811337	0.261782	-0.567602
C45	C	1.811335	0.261755	-0.633038
C46	C	1.734541	0.301812	-0.665744
C47	C	1.657721	0.341888	-0.633010
C48	C	1.657716	0.341909	-0.567576
C49	C	1.725010	0.358228	-0.769409
C50	C	1.725023	0.358207	-0.834842
C51	C	1.734548	0.301746	-0.867565
C52	C	1.744086	0.245303	-0.834846
C53	C	1.744081	0.245325	-0.769412
C54	C	1.734537	0.301793	-0.736697
C55	C	1.811356	0.261641	-0.971244
C56	C	1.811346	0.261613	-1.036681
C57	C	1.657738	0.341751	-1.036652
C58	C	1.657741	0.341773	-0.971216
C59	C	1.734557	0.301719	-0.938516
C60	C	1.734359	0.301841	-0.139024
C61	C	1.734549	0.301669	-0.069383
H62	H	1.873590	0.540354	-0.229154
F63	F	1.957749	0.868988	-0.291760
F64	F	1.575966	0.384562	-0.532745
F65	F	1.714882	0.418278	-0.869658
F66	F	1.511275	0.869189	-0.311963
H67	H	1.873685	0.659063	-0.229184
F68	F	1.957648	0.733915	-0.291733
F69	F	1.575998	0.384427	-0.936385
F70	F	1.893197	1.070877	-0.219271
F71	F	1.576146	1.070941	-0.384562
H72	H	1.873888	0.228977	-1.063325
H73	H	1.595250	0.944046	-0.374521
H74	H	1.873877	0.229120	-0.659689
F75	F	1.754229	0.185208	-0.869667
F76	F	1.714898	0.418327	-0.734590
H77	H	1.595198	0.374360	-1.063281
H78	H	1.873897	0.229023	-0.944618
F79	F	1.575987	0.384517	-0.667819
F80	F	1.893078	0.935807	-0.219227
H81	H	1.538217	0.742291	-0.310715
H82	H	1.594964	0.540407	-0.374440
F83	F	1.893086	0.219150	-0.532804
F84	F	1.575854	0.667304	-0.384471
H85	H	1.751844	0.199367	-0.742776
