data_functionalizedCrystal
_audit_creation_method	'MofGen! by Chris Wilmer'
_symmetry_space_group_name_H-M	'P1'
_symmetry_Int_Tables_number	1
_symmetry_cell_setting	triclinic
loop_
_symmetry_equiv_pos_as_xyz
  x,y,z
_cell_length_a	17.699083
_cell_length_b	17.699083
_cell_length_c	17.666332
_cell_angle_alpha	89.991333
_cell_angle_beta	89.999456
_cell_angle_gamma	83.283016
loop_
_atom_site_label
_atom_site_type_symbol
_atom_site_fract_x
_atom_site_fract_y
_atom_site_fract_z
O1	O	-1.004079	-0.095707	0.062854
O2	O	-0.783700	-0.108160	0.062880
O3	O	-0.900116	0.008255	0.062848
O4	O	-0.887663	-0.212123	0.062886
O5	O	-0.900100	0.008252	-0.063049
O6	O	-0.783685	-0.108164	-0.063016
O7	O	-1.004063	-0.095711	-0.063043
Cu8	Cu	-0.893872	-0.101938	-0.074525
Cu9	Cu	-0.893891	-0.101933	0.074363
O10	O	-0.887648	-0.212127	-0.063010
C11	C	-0.755495	-0.107716	-0.000065
C12	C	-0.671477	-0.106377	-0.000056
C13	C	-0.899662	0.036451	-0.000104
C14	C	-0.898323	0.120469	-0.000113
N15	N	-0.893865	-0.101941	-0.179244
C16	C	-1.032268	-0.096156	-0.000096
C17	C	-1.116286	-0.097494	-0.000100
C18	C	-0.622856	-0.174711	-0.000044
C19	C	-0.543913	-0.173448	-0.000054
C20	C	-0.513592	-0.103852	-0.000070
C21	C	-0.562219	-0.035513	-0.000084
C22	C	-0.641161	-0.036776	-0.000080
C23	C	-0.243856	-0.030418	-0.000104
C24	C	-0.164908	-0.029160	-0.000106
C25	C	-0.146608	-0.167090	-0.000078
C26	C	-0.225550	-0.168353	-0.000074
C27	C	-0.274170	-0.100015	-0.000092
C28	C	-0.359769	-0.101384	-0.000082
C29	C	-0.427995	-0.102481	-0.000074
C30	C	-0.966656	0.169090	-0.000127
C31	C	-0.965394	0.248033	-0.000128
C32	C	-0.895798	0.278354	-0.000121
C33	C	-0.827459	0.229727	-0.000105
C34	C	-0.828722	0.150785	-0.000098
C35	C	-0.822364	0.548090	-0.000132
C36	C	-0.821106	0.627038	-0.000142
C37	C	-0.959036	0.645338	-0.000163
C38	C	-0.960299	0.566396	-0.000156
C39	C	-0.891961	0.517776	-0.000135
C40	C	-0.893330	0.432177	-0.000132
C41	C	-0.894427	0.363951	-0.000130
C42	C	-0.888102	0.759678	-0.000084
C43	C	-0.889440	0.675660	-0.000150
C44	C	-0.939721	-0.147765	-0.781291
C45	C	-0.939713	-0.147772	-0.702043
C46	C	-0.893898	-0.101926	-0.662426
C47	C	-0.848072	-0.056083	-0.702062
C48	C	-0.848075	-0.056082	-0.781309
N49	N	-0.891985	-0.035624	-0.538012
N50	N	-0.891986	-0.035626	-0.462732
C51	C	-0.893884	-0.101926	-0.423662
N52	N	-0.895796	-0.168223	-0.462716
N53	N	-0.895799	-0.168219	-0.538004
C54	C	-0.893889	-0.101921	-0.576497
C55	C	-0.939695	-0.147778	-0.298106
C56	C	-0.939682	-0.147787	-0.218857
C57	C	-0.848045	-0.056090	-0.218877
C58	C	-0.848053	-0.056088	-0.298125
C59	C	-0.893883	-0.101931	-0.337734
N60	N	-0.893904	-0.101925	0.179082
H61	H	-0.504328	-0.229092	-0.000044
H62	H	-1.014680	0.684934	-0.000175
O63	O	-0.984125	-0.192341	-0.819852
C64	C	-0.937884	-0.244060	-0.865671
H65	H	-0.881771	-0.220581	-0.877548
H66	H	-0.968294	-0.252449	-0.921395
H67	H	-0.926195	-0.300969	-0.835123
O68	O	-0.652342	-0.242299	0.000108
C69	C	-0.697468	-0.247148	0.065306
H70	H	-0.678871	-0.207628	0.110870
H71	H	-0.690264	-0.308159	0.087204
H72	H	-0.759757	-0.229581	0.050566
H73	H	-0.250232	-0.225025	-0.000057
H74	H	-0.977008	-0.185109	-0.330357
H75	H	-0.107012	-0.222734	-0.000068
O76	O	-0.984261	-0.192339	-0.180478
C77	C	-1.024695	-0.232810	-0.232435
H78	H	-1.029171	-0.201470	-0.288928
H79	H	-1.084198	-0.237424	-0.209533
H80	H	-0.993413	-0.292263	-0.240859
O81	O	-0.135580	0.038516	-0.000160
C82	C	-0.195420	0.098564	-0.000158
H83	H	-0.249011	0.077447	-0.023986
H84	H	-0.179008	0.147157	-0.036723
H85	H	-0.206629	0.119643	0.060235
O86	O	-0.291153	0.035915	-0.000011
C87	C	-0.337348	0.039325	0.065203
H88	H	-0.341235	-0.020742	0.086949
H89	H	-0.396731	0.067635	0.050538
H90	H	-0.311433	0.073840	0.110855
H91	H	-1.023330	0.144409	-0.000137
H92	H	-0.770792	0.254420	-0.000095
H93	H	-0.810736	-0.018766	-0.186621
O94	O	-0.762413	0.103444	-0.000053
C95	C	-0.778450	0.027267	-0.000066
H96	H	-0.837897	0.024351	0.023761
H97	H	-0.734891	-0.008582	0.036496
H98	H	-0.775531	0.004432	-0.060462
H99	H	-0.810767	-0.018756	-0.669801
H100	H	-0.810748	-0.018757	-0.330389
O101	O	-0.984294	-0.192321	-0.663656
C102	C	-1.024728	-0.232798	-0.715610
H103	H	-1.029202	-0.201463	-0.772106
H104	H	-1.084232	-0.237407	-0.692708
H105	H	-0.993446	-0.292251	-0.724027
O106	O	-0.532731	0.032074	0.000034
C107	C	-0.487599	0.036925	0.065225
H108	H	-0.506196	-0.002589	0.110806
H109	H	-0.494798	0.097938	0.087100
H110	H	-0.425312	0.019352	0.050485
H111	H	-0.680748	0.018868	-0.000089
O112	O	-0.755913	0.500975	-0.000156
C113	C	-0.694218	0.544668	-0.000139
H114	H	-0.713540	0.603625	-0.023979
H115	H	-0.646345	0.515464	-0.036686
H116	H	-0.672881	0.550247	0.060261
H117	H	-1.021038	0.287618	-0.000141
O118	O	-0.753515	0.656528	-0.000262
C119	C	-0.748652	0.701660	-0.065459
H120	H	-0.788155	0.683061	-0.111041
H121	H	-0.687635	0.694466	-0.087329
H122	H	-0.766232	0.763947	-0.050729
H123	H	-0.810764	-0.018753	-0.813572
H124	H	-1.016971	0.541714	-0.000165
