data_functionalizedCrystal
_audit_creation_method	'MofGen! by Chris Wilmer'
_symmetry_space_group_name_H-M	'P1'
_symmetry_Int_Tables_number	1
_symmetry_cell_setting	triclinic
loop_
_symmetry_equiv_pos_as_xyz
  x,y,z
_cell_length_a	23.532355
_cell_length_b	22.610064
_cell_length_c	23.532407
_cell_angle_alpha	89.996958
_cell_angle_beta	82.838087
_cell_angle_gamma	90.009453
loop_
_atom_site_label
_atom_site_type_symbol
_atom_site_fract_x
_atom_site_fract_y
_atom_site_fract_z
O1	O	0.755288	0.049095	0.068993
O2	O	0.589420	0.049112	0.079027
O3	O	0.677356	0.049110	-0.008923
O4	O	0.667352	0.049097	0.156942
O5	O	0.677330	-0.049259	-0.008923
O6	O	0.589394	-0.049257	0.079027
O7	O	0.755262	-0.049274	0.068993
Zn8	Zn	0.672324	-0.064884	0.074010
Zn9	Zn	0.672358	0.064722	0.074010
O10	O	0.667327	-0.049273	0.156942
C11	C	0.568191	-0.000070	0.078776
C12	C	0.504972	-0.000063	0.078022
N13	N	0.672305	-0.153336	0.074009
C14	C	0.112944	-0.053708	0.073284
C15	C	0.053545	-0.053710	0.072566
O16	O	0.022814	-0.099312	0.072176
N17	N	0.023850	-0.000090	0.072211
C18	C	0.053559	0.053537	0.072567
O19	O	0.022847	0.099146	0.072198
C20	C	0.112958	0.053539	0.073280
C21	C	0.142649	-0.000086	0.073641
C22	C	0.142635	-0.107328	0.073645
C23	C	0.202030	-0.107326	0.074363
C24	C	0.231735	-0.053703	0.074721
C25	C	0.202044	-0.000083	0.074360
C26	C	0.142666	0.107165	0.073632
C27	C	0.202069	0.107162	0.074345
C28	C	0.231760	0.053537	0.074706
C29	C	0.291143	0.053542	0.075436
N30	N	0.320838	-0.000079	0.075792
C31	C	0.291134	-0.053702	0.075434
C32	C	-0.071182	0.053530	0.071068
C33	C	-0.130581	0.053529	0.070358
C34	C	-0.130591	-0.053719	0.070357
C35	C	-0.071192	-0.053717	0.071070
C36	C	-0.041488	-0.000091	0.071423
C37	C	0.415868	-0.053692	0.076944
C38	C	0.475268	-0.053685	0.077664
C39	C	0.475273	0.053562	0.077663
C40	C	0.415878	0.053555	0.076945
C41	C	0.386177	-0.000077	0.076583
O42	O	0.321912	0.099120	0.075825
O43	O	0.321853	-0.099303	0.075796
C44	C	0.706704	-0.561985	0.108364
C45	C	0.706711	-0.623905	0.108362
O46	O	0.735935	-0.655929	0.137568
N47	N	0.672369	-0.654874	0.074003
C48	C	0.638022	-0.623919	0.039639
O49	O	0.608813	-0.655946	0.010413
C50	C	0.638019	-0.562000	0.039638
C51	C	0.672358	-0.531035	0.074003
C52	C	0.741041	-0.531019	0.142726
C53	C	0.741033	-0.469103	0.142728
C54	C	0.706687	-0.438153	0.108368
C55	C	0.672350	-0.469119	0.074006
C56	C	0.603675	-0.531047	0.005271
C57	C	0.603675	-0.469124	0.005272
C58	C	0.638014	-0.438159	0.039638
C59	C	0.637997	-0.376254	0.039647
N60	N	0.672338	-0.345285	0.074006
C61	C	0.706684	-0.376235	0.108367
C62	C	0.638033	-0.753953	0.039643
C63	C	0.638034	-0.815870	0.039647
C64	C	0.706723	-0.815852	0.108370
C65	C	0.706719	-0.753933	0.108369
C66	C	0.672375	-0.722984	0.074003
C67	C	0.706664	-0.246207	0.108369
C68	C	0.706651	-0.184286	0.108370
C69	C	0.637964	-0.184311	0.039645
C70	C	0.637974	-0.246226	0.039646
C71	C	0.672329	-0.277173	0.074010
O72	O	0.608789	-0.344190	0.010455
O73	O	0.735894	-0.344200	0.137582
C74	C	0.776491	-0.000091	0.069244
C75	C	0.839710	-0.000094	0.069998
C76	C	0.677088	-0.000071	-0.030139
C77	C	0.676322	-0.000061	-0.093356
N78	N	0.672381	0.153174	0.074006
C79	C	0.667594	-0.000090	0.178158
C80	C	0.668360	-0.000096	0.241375
C81	C	0.621125	-0.000060	0.640487
C82	C	0.621837	-0.000056	0.699887
O83	O	0.578050	-0.000030	0.736640
N84	N	0.674114	-0.000063	0.722504
C85	C	0.725684	-0.000067	0.685717
O86	O	0.770216	-0.000071	0.710408
C87	C	0.724972	-0.000067	0.626318
C88	C	0.672691	-0.000066	0.603705
C89	C	0.568849	-0.000059	0.617874
C90	C	0.568137	-0.000065	0.558478
C91	C	0.619703	-0.000071	0.521695
C92	C	0.671980	-0.000072	0.544309
C93	C	0.776541	-0.000067	0.589532
C94	C	0.775824	-0.000066	0.530129
C95	C	0.723543	-0.000066	0.507516
C96	C	0.722834	-0.000083	0.448130
N97	N	0.670556	-0.000077	0.425514
C98	C	0.618991	-0.000071	0.462296
C99	C	0.727175	-0.000066	0.810459
C100	C	0.727888	-0.000071	0.869857
C101	C	0.624041	-0.000059	0.884023
C102	C	0.623329	-0.000059	0.824624
C103	C	0.674898	-0.000060	0.787842
C104	C	0.617501	-0.000082	0.337560
C105	C	0.616794	-0.000090	0.278158
C106	C	0.720642	-0.000098	0.263996
C107	C	0.721349	-0.000094	0.323393
C108	C	0.669774	-0.000083	0.360174
O109	O	0.766598	-0.000107	0.411343
O110	O	0.574467	-0.000058	0.437597
H111	H	0.391691	-0.097365	0.076654
O112	O	0.110544	-0.165137	0.073302
H113	H	0.127191	-0.190899	0.034635
O114	O	0.777737	-0.000095	0.347784
H115	H	0.780541	-0.040185	0.374514
H116	H	-0.154751	0.097195	0.070073
H117	H	0.582053	-0.000054	0.913983
O118	O	0.566940	-0.000059	0.800237
H119	H	0.564139	0.040032	0.773508
H120	H	0.499439	-0.097355	0.077961
O121	O	0.234049	-0.165163	0.074765
H122	H	0.203407	-0.202446	0.074397
H123	H	0.734614	-0.159077	0.136357
O124	O	0.600988	-0.720588	0.002564
H125	H	0.628468	-0.692382	-0.028197
O126	O	-0.039170	-0.111555	0.071457
H127	H	-0.017411	-0.114124	0.110607
O128	O	0.778076	-0.435712	0.179792
H129	H	0.772305	-0.387455	0.174029
H130	H	0.574219	-0.000092	0.259750
O131	O	0.561876	-0.000080	0.377227
H132	H	0.525410	-0.000088	0.351515
H133	H	0.226251	0.150832	0.074632
O134	O	0.743777	-0.849242	0.145423
H135	H	0.716305	-0.877468	0.176171
H136	H	0.391701	0.097221	0.076660
H137	H	0.762625	-0.000106	0.234037
H138	H	0.525565	-0.000059	0.540072
H139	H	0.770461	-0.000080	0.888262
H140	H	0.769172	-0.000071	0.780513
H141	H	-0.154787	-0.097382	0.070065
H142	H	0.819114	-0.000067	0.607932
H143	H	0.610064	-0.841078	0.011670
O144	O	0.831446	-0.000074	0.490456
H145	H	0.867916	-0.000080	0.516164
H146	H	0.118502	0.150832	0.073337
O147	O	-0.039146	0.111373	0.071459
H148	H	-0.069779	0.148654	0.071098
H149	H	0.575713	-0.556249	-0.022714
O150	O	0.566628	-0.435742	-0.031791
H151	H	0.542749	-0.467681	-0.055681
H152	H	0.609999	-0.159100	0.011671
O153	O	0.513225	-0.000063	0.657539
H154	H	0.488194	0.040027	0.649527
H155	H	0.734639	-0.271397	0.136351
O156	O	0.507318	0.111397	0.078035
H157	H	0.553610	0.102384	0.078584
O158	O	0.778085	-0.564397	0.179793
H159	H	0.801954	-0.532452	0.203686
O160	O	0.743759	-0.720535	0.145431
H161	H	0.767642	-0.752465	0.169320
H162	H	0.610005	-0.271440	0.011670
