data_functionalizedCrystal
_audit_creation_method	'MofGen! by Chris Wilmer'
_symmetry_space_group_name_H-M	'P1'
_symmetry_Int_Tables_number	1
_symmetry_cell_setting	triclinic
loop_
_symmetry_equiv_pos_as_xyz
  x,y,z
_cell_length_a	12.645331
_cell_length_b	12.645330
_cell_length_c	14.908308
_cell_angle_alpha	93.270481
_cell_angle_beta	93.277876
_cell_angle_gamma	90.016671
loop_
_atom_site_label
_atom_site_type_symbol
_atom_site_fract_x
_atom_site_fract_y
_atom_site_fract_z
Zn1	Zn	1.586096	-0.456640	-0.510121
Zn2	Zn	1.596220	-0.623703	-0.359275
Zn3	Zn	1.419052	-0.446451	-0.359279
Zn4	Zn	1.408795	-0.633857	-0.510083
O5	O	1.502541	-0.540163	-0.434690
O6	O	1.735785	-0.478817	-0.490126
O7	O	1.581247	-0.591676	-0.233034
O8	O	1.441267	-0.299456	-0.379306
O9	O	1.743223	-0.601556	-0.379300
O10	O	1.563993	-0.306943	-0.490129
O11	O	1.451083	-0.461450	-0.233037
O12	O	1.269345	-0.471296	-0.379269
O13	O	1.423785	-0.618862	-0.636330
O14	O	1.261809	-0.608982	-0.490065
O15	O	1.554047	-0.488662	-0.636358
O16	O	1.571301	-0.773396	-0.379263
O17	O	1.433601	-0.780856	-0.490061
C18	C	1.227113	-0.540136	-0.434664
C19	C	1.109282	-0.540151	-0.434674
C20	C	0.946397	-0.453182	-0.365357
C21	C	1.068978	-0.453374	-0.365052
C22	C	1.066525	-0.650065	-0.408706
C23	C	0.943959	-0.649583	-0.408233
C24	C	0.935645	-0.518288	-0.530226
C25	C	1.058287	-0.515757	-0.529696
C26	C	1.502464	-0.815592	-0.434677
C27	C	1.502526	-0.933423	-0.434702
C28	C	1.416223	-1.105739	-0.504620
C29	C	1.415821	-0.983164	-0.504395
C30	C	1.478736	-0.971572	-0.339628
C31	C	1.478210	-1.094199	-0.340052
C32	C	1.613172	-1.102168	-0.459087
C33	C	1.612343	-0.979702	-0.461166
C34	C	1.779044	-0.540191	-0.434716
C35	C	1.896873	-0.540202	-0.434728
C36	C	1.486643	-0.556032	-0.669992
C37	C	1.479868	-0.562794	-0.770264
C38	C	1.502645	-0.263660	-0.434722
C39	C	1.502690	-0.145830	-0.434736
C40	C	1.602777	-0.439899	-0.958717
C41	C	1.596414	-0.446250	-1.052931
C42	C	1.460777	-0.581839	-1.052910
C43	C	1.467139	-0.575488	-0.958695
C44	C	1.538142	-0.504518	-0.911602
C45	C	1.544509	-0.498173	-0.817386
C46	C	1.408867	-0.633756	-0.817366
C47	C	1.402505	-0.640107	-0.911580
C48	C	1.518438	-0.524279	-0.200302
C49	C	1.525418	-0.517218	-0.100031
H50	H	1.101869	-0.669871	-0.339642
C51	C	1.622601	-0.420103	-0.765584
H52	H	1.660173	-0.382519	-0.807142
H53	H	1.671264	-0.458169	-0.728828
H54	H	1.584532	-0.371433	-0.728837
H55	H	1.356240	-0.686376	-0.778995
C56	C	1.636744	-0.946745	-0.555690
H57	H	1.703267	-0.974990	-0.571319
H58	H	1.639056	-0.871674	-0.555900
H59	H	1.582962	-0.973261	-0.598175
H60	H	1.402969	-0.639619	-1.091269
C61	C	1.680873	-0.361836	-0.906912
H62	H	1.718453	-0.324256	-0.948466
H63	H	1.729528	-0.399909	-0.870155
H64	H	1.642807	-0.313163	-0.870165
H65	H	1.649044	-0.393628	-1.091289
H66	H	1.344694	-0.697887	-0.949936
C67	C	0.891748	-0.412365	-0.562136
H68	H	0.916083	-0.400656	-0.619882
H69	H	0.915541	-0.356356	-0.520704
H70	H	0.816528	-0.414741	-0.565517
C71	C	1.108156	-0.342991	-0.387019
H72	H	1.049126	-0.297625	-0.396207
H73	H	1.146475	-0.348878	-0.440044
H74	H	1.153022	-0.314356	-0.338338
C75	C	1.094698	-0.595827	-0.603260
H76	H	1.062689	-0.579175	-0.659905
H77	H	1.074312	-0.665257	-0.589937
H78	H	1.169564	-0.592434	-0.605331
C79	C	1.101441	-0.739625	-0.474809
H80	H	1.074733	-0.805370	-0.457867
H81	H	1.176593	-0.742136	-0.473396
H82	H	1.074519	-0.726629	-0.533949
H83	H	1.399045	-0.939536	-0.318627
C84	C	0.905091	-0.342451	-0.387084
H85	H	0.857269	-0.348294	-0.438654
H86	H	0.962960	-0.298293	-0.398672
H87	H	0.869529	-0.312460	-0.337325
H88	H	1.103061	-0.467340	-0.294283
C89	C	0.911175	-0.471787	-0.270317
H90	H	0.941442	-0.418866	-0.228821
H91	H	0.934207	-0.539651	-0.253275
H92	H	0.836136	-0.468304	-0.270220
C93	C	0.911658	-0.675701	-0.313921
H94	H	0.973419	-0.686499	-0.276255
H95	H	0.869511	-0.738179	-0.318408
H96	H	0.872134	-0.618518	-0.288905
H97	H	1.636135	-1.137632	-0.527236
C98	C	1.560058	-1.129345	-0.267313
H99	H	1.560296	-1.204458	-0.267084
H100	H	1.541961	-1.100279	-0.210070
H101	H	1.628420	-1.104991	-0.279924
H102	H	0.911033	-0.716268	-0.456557
H103	H	1.679640	-0.945853	-0.413973
C104	C	1.095836	-0.406555	-0.556174
H105	H	1.064725	-0.392258	-0.613718
H106	H	1.170784	-0.406475	-0.558181
H107	H	1.075158	-0.353562	-0.512964
C108	C	0.891758	-0.604007	-0.600057
H109	H	0.915462	-0.590346	-0.657625
H110	H	0.816545	-0.602988	-0.602177
H111	H	0.916209	-0.671577	-0.583449
C112	C	1.434880	-0.948880	-0.599635
H113	H	1.442937	-1.009912	-0.638812
H114	H	1.497297	-0.906808	-0.597797
H115	H	1.376135	-0.908784	-0.621063
H116	H	1.430170	-1.139946	-0.575348
H117	H	1.334691	-1.135559	-0.488693
H118	H	1.677513	-1.127706	-0.408188
H119	H	1.333784	-0.952834	-0.488262
H120	H	1.540004	-0.938788	-0.286136
C121	C	1.369365	-1.131074	-0.312195
H122	H	1.325883	-1.071117	-0.300730
H123	H	1.378386	-1.169365	-0.259310
H124	H	1.336663	-1.175475	-0.359373
