data_functionalizedCrystal
_audit_creation_method	'MofGen! by Chris Wilmer'
_symmetry_space_group_name_H-M	'P1'
_symmetry_Int_Tables_number	1
_symmetry_cell_setting	triclinic
loop_
_symmetry_equiv_pos_as_xyz
  x,y,z
_cell_length_a	18.426585
_cell_length_b	12.970454
_cell_length_c	12.970454
_cell_angle_alpha	60.000396
_cell_angle_beta	89.999509
_cell_angle_gamma	60.001296
loop_
_atom_site_label
_atom_site_type_symbol
_atom_site_fract_x
_atom_site_fract_y
_atom_site_fract_z
Zr1	Zr	0.699114	1.128553	-0.135315
O2	O	0.583239	1.343634	-0.299933
O3	O	0.734636	0.913466	-0.084852
O4	O	0.734637	1.128554	-0.299940
O5	O	0.583237	1.128547	0.084822
O6	O	0.854063	1.128561	-0.299944
O7	O	0.583238	1.128546	-0.084845
O8	O	0.854060	0.743808	0.084809
O9	O	0.583240	1.513300	-0.299931
O10	O	0.838912	1.001942	-0.063332
O11	O	0.749785	1.001937	0.063292
O12	O	0.749787	1.255175	-0.189947
O13	O	0.660660	1.255171	-0.063323
Zr14	Zr	0.889583	1.128566	0.135277
Zr15	Zr	0.889585	1.128564	-0.135322
Zr16	Zr	0.699113	1.128554	0.135284
Zr17	Zr	0.699115	1.399150	-0.135313
Zr18	Zr	0.889583	0.857968	0.135274
O19	O	0.854062	1.343652	0.084814
O20	O	0.854064	1.343650	-0.299942
O21	O	0.583237	1.343636	0.084824
O22	O	1.005458	0.913484	0.299894
O23	O	1.005460	0.913482	-0.084862
O24	O	0.734634	0.913468	0.299904
O25	O	1.005461	1.128571	-0.084860
O26	O	0.854060	1.128564	0.299902
O27	O	0.734634	1.128557	0.299906
O28	O	1.005460	1.128572	0.084807
O29	O	0.734638	1.513309	-0.299937
O30	O	0.854059	0.743809	0.299898
O31	O	1.005458	0.743818	0.299893
O32	O	1.005459	0.743817	0.084803
O33	O	0.583239	1.513301	-0.084841
O34	O	0.734637	1.513310	-0.084847
O35	O	0.838911	1.001943	0.189909
O36	O	0.928037	1.001948	0.063285
O37	O	0.838913	1.255181	-0.063330
O38	O	0.749786	1.255177	0.063294
C39	C	0.794348	0.790083	-0.000022
C40	C	0.794348	0.675207	-0.000023
C41	C	0.556099	1.128545	-0.000010
C42	C	0.475240	1.128540	-0.000008
C43	C	0.179125	1.128584	-0.000030
C44	C	0.261511	1.128578	-0.000027
C45	C	0.327179	1.128562	-0.000020
C46	C	0.409571	1.128556	-0.000015
C47	C	1.032598	1.128573	-0.000028
C48	C	1.113458	1.128578	-0.000031
C49	C	0.794350	1.128557	-0.338497
C50	C	0.794351	1.128557	-0.453373
C51	C	0.794350	1.467035	-0.000016
C52	C	0.794350	1.581911	-0.000015
C53	C	0.794347	1.128561	0.338458
C54	C	0.794347	1.128562	0.453335
C55	C	1.032597	0.790097	-0.000031
C56	C	1.113457	0.675226	-0.000034
C57	C	0.794346	0.790085	0.338456
C58	C	0.794345	0.675209	0.453331
C59	C	1.032596	0.790099	0.338447
C60	C	1.113455	0.675229	0.453319
C61	C	0.556102	1.467019	-0.338485
C62	C	0.475243	1.581890	-0.453357
C63	C	0.556100	1.467021	-0.000008
C64	C	0.475241	1.581892	-0.000004
C65	C	0.794351	1.467034	-0.338494
C66	C	0.794352	1.581909	-0.453369
C67	C	1.104907	0.621278	-0.066140
C68	C	1.180875	0.513360	-0.066169
C69	C	1.265394	0.459384	-0.000084
C70	C	1.273942	0.513342	0.066024
C71	C	1.197974	0.621266	0.066045
C72	C	1.197958	0.621287	0.441168
C73	C	1.273941	0.513369	0.549093
C74	C	1.265418	0.459388	0.669167
C75	C	1.180906	0.513340	0.681315
C76	C	1.104925	0.621263	0.573392
C77	C	0.390739	1.635845	-0.441206
C78	C	0.314757	1.743796	-0.549131
C79	C	0.323279	1.797783	-0.669205
C80	C	0.407792	1.743824	-0.681353
C81	C	0.483772	1.635882	-0.573430
C82	C	0.483791	1.635851	0.066091
C83	C	0.407822	1.743799	0.066090
C84	C	0.323304	1.797779	0.000001
C85	C	0.314756	1.743816	-0.066102
C86	C	0.390723	1.635877	-0.066107
H87	H	1.036095	0.665225	-0.119970
H88	H	0.383783	1.591894	-0.343446
Br89	Br	1.388652	0.440069	0.155709
H90	H	0.552577	1.591952	-0.583339
H91	H	1.173980	0.469373	0.779094
H92	H	0.383749	1.591946	-0.119926
Br93	Br	0.990245	0.694451	0.589906
H94	H	1.204948	0.665177	0.119883
Br95	Br	1.209549	0.694531	0.278224
Br96	Br	1.368485	0.312913	-0.000125
H97	H	0.414800	1.787718	0.119924
Br98	Br	1.388624	0.440167	0.532576
Br99	Br	1.368545	0.312919	0.815623
Br100	Br	0.598484	1.562621	0.155790
Br101	Br	0.200073	1.817001	-0.532614
Br102	Br	0.220152	1.944278	-0.815662
Br103	Br	0.220212	1.944270	0.000022
H104	H	0.245931	1.787783	-0.119909
H105	H	0.414720	1.787794	-0.779130
H106	H	1.173898	0.469440	-0.120002
