data_functionalizedCrystal
_audit_creation_method	'MofGen! by Chris Wilmer'
_symmetry_space_group_name_H-M	'P1'
_symmetry_Int_Tables_number	1
_symmetry_cell_setting	triclinic
loop_
_symmetry_equiv_pos_as_xyz
  x,y,z
_cell_length_a	18.101398
_cell_length_b	18.101395
_cell_length_c	16.625539
_cell_angle_alpha	89.972352
_cell_angle_beta	89.988670
_cell_angle_gamma	90.026661
loop_
_atom_site_label
_atom_site_type_symbol
_atom_site_fract_x
_atom_site_fract_y
_atom_site_fract_z
Zn1	Zn	1.132133	-0.294916	-0.455714
Zn2	Zn	1.132025	-0.418765	-0.320883
Zn3	Zn	1.008288	-0.294932	-0.320916
Zn4	Zn	1.008242	-0.418711	-0.455695
O5	O	1.070172	-0.356831	-0.388302
O6	O	1.235751	-0.311361	-0.437823
O7	O	1.115585	-0.402368	-0.208055
O8	O	1.024780	-0.191297	-0.338820
O9	O	1.235672	-0.402352	-0.338763
O10	O	1.115768	-0.191285	-0.437855
O11	O	1.024676	-0.311389	-0.208080
O12	O	0.904649	-0.311336	-0.338801
O13	O	1.024702	-0.402260	-0.568530
O14	O	0.904615	-0.402275	-0.437822
O15	O	1.115724	-0.311308	-0.568544
O16	O	1.115541	-0.522391	-0.338744
O17	O	1.024598	-0.522351	-0.437789
C18	C	0.877761	-0.356802	-0.388313
C19	C	0.795447	-0.356807	-0.388337
C20	C	0.496356	-0.356851	-0.388304
C21	C	0.527685	-0.414344	-0.450297
C22	C	0.613303	-0.414164	-0.450552
C23	C	0.644739	-0.356830	-0.388320
C24	C	0.613685	-0.278827	-0.411539
C25	C	0.528040	-0.279173	-0.411980
C26	C	0.527902	-0.376673	-0.302942
C27	C	0.613552	-0.378384	-0.303398
C28	C	0.728598	-0.356813	-0.388328
C29	C	0.412497	-0.356862	-0.388297
C30	C	1.070073	-0.549242	-0.388278
C31	C	1.070098	-0.631556	-0.388295
C32	C	1.070261	-0.930647	-0.388339
C33	C	1.013175	-0.899327	-0.450810
C34	C	1.012903	-0.813709	-0.450615
C35	C	1.070180	-0.782264	-0.388318
C36	C	1.049049	-0.813414	-0.303344
C37	C	1.048681	-0.899060	-0.303717
C38	C	1.148603	-0.898996	-0.410093
C39	C	1.148142	-0.813345	-0.411957
C40	C	1.070136	-0.698405	-0.388301
C41	C	1.070303	-1.014506	-0.388350
C42	C	1.263334	-0.356861	-0.388291
C43	C	1.345648	-0.356874	-0.388287
C44	C	1.070220	-0.356776	-0.598611
C45	C	1.070241	-0.356752	-0.688232
C46	C	1.070292	-0.163669	-0.388344
C47	C	1.070343	-0.081355	-0.388361
C48	C	1.070275	-0.356670	-1.016408
C49	C	1.070263	-0.356695	-0.925100
C50	C	1.070258	-0.356712	-0.852323
C51	C	1.070246	-0.356736	-0.761009
C52	C	1.070167	-0.356833	-0.178811
C53	C	1.070290	-0.356648	-0.089191
H54	H	0.634298	-0.472007	-0.436000
H55	H	0.634048	-0.234829	-0.367794
Br56	Br	0.647485	-0.392306	-0.555970
Br57	Br	0.494768	-0.251152	-0.515989
H58	H	0.506176	-0.401396	-0.513179
H59	H	1.089319	-0.793047	-0.255529
Br60	Br	0.649460	-0.250296	-0.514418
H61	H	1.026265	-0.919876	-0.514022
H62	H	0.955459	-0.920909	-0.436582
H63	H	0.954834	-0.793282	-0.436205
Br64	Br	0.493495	-0.205357	-0.340006
Br65	Br	0.491863	-0.469846	-0.267762
Br66	Br	0.953232	-0.932463	-0.272998
H67	H	0.634950	-0.339550	-0.254727
Br68	Br	1.034937	-0.778598	-0.555633
Br69	Br	0.647376	-0.474060	-0.274214
Br70	Br	0.494134	-0.306876	-0.225952
H71	H	1.088456	-0.919780	-0.255585
Br72	Br	1.174706	-0.779410	-0.516190
H73	H	1.167868	-0.920546	-0.471000
H74	H	0.992387	-0.792025	-0.284583
Br75	Br	1.222788	-0.777657	-0.341653
H76	H	0.507069	-0.472376	-0.435908
Br77	Br	1.219495	-0.932768	-0.334270
