data_functionalizedCrystal
_audit_creation_method	'MofGen! by Chris Wilmer'
_symmetry_space_group_name_H-M	'P1'
_symmetry_Int_Tables_number	1
_symmetry_cell_setting	triclinic
loop_
_symmetry_equiv_pos_as_xyz
  x,y,z
_cell_length_a	19.288864
_cell_length_b	9.016244
_cell_length_c	19.288865
_cell_angle_alpha	89.988012
_cell_angle_beta	96.863755
_cell_angle_gamma	90.016237
loop_
_atom_site_label
_atom_site_type_symbol
_atom_site_fract_x
_atom_site_fract_y
_atom_site_fract_z
O1	O	0.921346	0.123833	-0.086650
O2	O	1.254679	0.457166	0.246683
O3	O	1.588013	0.790499	0.580017
O4	O	0.719085	0.123734	-0.098339
O5	O	1.052419	0.457067	0.234995
O6	O	1.385752	0.790400	0.568328
O7	O	0.826060	0.123757	0.008636
O8	O	1.159393	0.457090	0.341969
O9	O	1.492727	0.790423	0.675303
O10	O	0.814371	0.123810	-0.193625
O11	O	1.147705	0.457143	0.139709
O12	O	1.481038	0.790476	0.473042
O13	O	0.826056	-0.122924	0.008644
O14	O	1.159389	0.210409	0.341977
O15	O	1.492722	0.543743	0.675311
O16	O	0.719081	-0.122947	-0.098331
O17	O	1.052414	0.210386	0.235002
O18	O	1.385748	0.543720	0.568336
O19	O	0.921341	-0.122848	-0.086642
O20	O	1.254675	0.210485	0.246691
O21	O	1.588008	0.543819	0.580025
Cu22	Cu	0.820211	-0.145421	-0.092486
Cu23	Cu	1.153544	0.187912	0.240848
Cu24	Cu	1.486877	0.521245	0.574181
Cu25	Cu	0.820216	0.146307	-0.092495
Cu26	Cu	1.153549	0.479640	0.240838
Cu27	Cu	1.486883	0.812974	0.574172
O28	O	0.814367	-0.122871	-0.193617
O29	O	1.147700	0.210462	0.139717
O30	O	1.481033	0.543796	0.473050
C31	C	0.693207	0.000380	-0.097959
C32	C	1.026540	0.333713	0.235375
C33	C	1.359873	0.667047	0.568708
C34	C	0.616103	0.000341	-0.096830
C35	C	0.949436	0.333674	0.236504
C36	C	1.282770	0.667008	0.569837
N37	N	0.820212	-0.350608	-0.092479
N38	N	1.153546	-0.017274	0.240855
N39	N	1.486879	0.316059	0.574188
C40	C	0.571407	0.000381	-0.159598
C41	C	0.904740	0.333714	0.173736
C42	C	1.238073	0.667048	0.507069
C43	C	0.498960	0.000397	-0.158537
C44	C	0.832293	0.333730	0.174796
C45	C	1.165626	0.667064	0.508130
C46	C	0.471212	0.000403	-0.094705
C47	C	0.804545	0.333736	0.238629
C48	C	1.137879	0.667070	0.571962
C49	C	0.515918	0.000355	-0.031929
C50	C	0.849252	0.333688	0.301405
C51	C	1.182585	0.667022	0.634738
C52	C	0.588364	0.000324	-0.032991
C53	C	0.921697	0.333657	0.300342
C54	C	1.255030	0.666991	0.633676
C55	C	0.362952	0.086863	-0.044528
C56	C	0.696285	0.420196	0.288805
C57	C	1.029618	0.753530	0.622138
C58	C	0.290507	0.086903	-0.043469
C59	C	0.623840	0.420236	0.289865
C60	C	0.957174	0.753570	0.623198
C61	C	0.247767	0.000492	-0.091425
C62	C	0.581100	0.333825	0.241908
C63	C	0.914433	0.667159	0.575242
C64	C	0.277478	-0.085940	-0.140453
C65	C	0.610811	0.247393	0.192880
C66	C	0.944144	0.580726	0.526213
C67	C	0.349923	-0.085971	-0.141516
C68	C	0.683256	0.247362	0.191817
C69	C	1.016590	0.580695	0.525151
C70	C	0.392658	0.000436	-0.093546
C71	C	0.725991	0.333769	0.239788
C72	C	1.059325	0.667102	0.573121
C73	C	0.124514	0.000547	-0.153047
C74	C	0.457848	0.333880	0.180286
C75	C	0.791181	0.667214	0.513619
C76	C	0.052066	0.000554	-0.151984
C77	C	0.385400	0.333887	0.181349
C78	C	0.718733	0.667221	0.514683
C79	C	0.069026	0.000527	-0.025374
C80	C	0.402360	0.333860	0.307960
C81	C	0.735693	0.667194	0.641293
C82	C	0.141473	0.000505	-0.026439
C83	C	0.474806	0.333838	0.306894
C84	C	0.808140	0.667172	0.640228
C85	C	0.169212	0.000522	-0.090278
C86	C	0.502545	0.333856	0.243056
C87	C	0.835879	0.667189	0.576389
C88	C	0.877645	-0.585582	-0.035447
C89	C	1.210979	-0.252248	0.297887
C90	C	1.544312	0.081085	0.631220
C91	C	0.877495	-0.413691	-0.035234
C92	C	1.210828	-0.080357	0.298100
C93	C	1.544162	0.252976	0.631433
C94	C	0.747795	-0.413074	-0.076876
C95	C	1.081129	-0.079741	0.256457
C96	C	1.414462	0.253593	0.589791
C97	C	0.748137	-0.585019	-0.076477
C98	C	1.081471	-0.251685	0.256857
C99	C	1.414804	0.081648	0.590190
C100	C	0.834558	-0.585083	-0.165318
C101	C	1.167891	-0.251750	0.168016
C102	C	1.501224	0.081584	0.501349
C103	C	0.836202	-0.413126	-0.164821
C104	C	1.169536	-0.079793	0.168513
C105	C	1.502869	0.253540	0.501846
C106	C	0.947220	0.000509	-0.087022
C107	C	1.280553	0.333842	0.246311
C108	C	1.613887	0.667175	0.579645
C109	C	1.024324	0.000558	-0.088151
C110	C	1.357657	0.333891	0.245182
C111	C	1.690990	0.667224	0.578516
C112	C	0.825682	0.000412	0.034516
C113	C	1.159015	0.333745	0.367850
C114	C	1.492348	0.667078	0.701183
C115	C	0.824553	0.000398	0.111620
C116	C	1.157886	0.333731	0.444953
C117	C	1.491219	0.667065	0.778287
N118	N	0.820220	0.351493	-0.092497
N119	N	1.153553	0.684827	0.240837
N120	N	1.486887	1.018160	0.574170
C121	C	0.814745	0.000477	-0.219497
C122	C	1.148078	0.333811	0.113836
C123	C	1.481412	0.667144	0.447169
C124	C	0.815874	0.000501	-0.296601
C125	C	1.149207	0.333834	0.036733
C126	C	1.482541	0.667167	0.370066
C127	C	0.887321	0.000422	0.156316
C128	C	1.220654	0.333755	0.489650
C129	C	1.553987	0.667088	0.822983
C130	C	0.886260	0.000445	0.228763
C131	C	1.219593	0.333778	0.562097
C132	C	1.552927	0.667111	0.895430
C133	C	0.822428	0.000414	0.256511
C134	C	1.155761	0.333748	0.589844
C135	C	1.489094	0.667081	0.923178
C136	C	0.759652	0.000399	0.211805
C137	C	1.092985	0.333732	0.545138
C138	C	1.426318	0.667066	0.878471
C139	C	0.760714	0.000391	0.139359
C140	C	1.094047	0.333724	0.472693
C141	C	1.427381	0.667058	0.806026
C142	C	0.772247	-0.086017	0.364801
C143	C	1.105580	0.247316	0.698134
C144	C	1.438913	0.580649	1.031468
C145	C	0.771187	-0.086018	0.437245
C146	C	1.104520	0.247315	0.770579
C147	C	1.437853	0.580648	1.103912
C148	C	0.819148	0.000446	0.479956
C149	C	1.152481	0.333779	0.813290
C150	C	1.485815	0.667112	1.146623
C151	C	0.868181	0.086892	0.450216
C152	C	1.201514	0.420225	0.783549
C153	C	1.534848	0.753559	1.116882
C154	C	0.869243	0.086884	0.377770
C155	C	1.202577	0.420217	0.711103
C156	C	1.535910	0.753551	1.044437
C157	C	0.821269	0.000424	0.335065
C158	C	1.154602	0.333757	0.668398
C159	C	1.487935	0.667091	1.001732
C160	C	0.880770	0.000496	0.603209
C161	C	1.214104	0.333830	0.936542
C162	C	1.547437	0.667163	1.269875
C163	C	0.879707	0.000528	0.675657
C164	C	1.213040	0.333862	1.008990
C165	C	1.546373	0.667195	1.342323
C166	C	0.753097	0.000468	0.658697
C167	C	1.086430	0.333801	0.992030
C168	C	1.419763	0.667135	1.325363
C169	C	0.754162	0.000451	0.586250
C170	C	1.087495	0.333784	0.919583
C171	C	1.420829	0.667117	1.252917
C172	C	0.818000	0.000458	0.558511
C173	C	1.151334	0.333791	0.891844
C174	C	1.484667	0.667125	1.225177
H175	H	0.593987	0.000398	-0.211580
H176	H	0.927320	0.333731	0.121753
H177	H	1.260654	0.667064	0.455087
Br178	Br	0.649027	0.000267	0.052201
Br179	Br	0.982361	0.333600	0.385534
Br180	Br	1.315694	0.666933	0.718867
H181	H	0.266322	0.157287	-0.003550
H182	H	0.599655	0.490621	0.329784
H183	H	0.932989	0.823954	0.663117
H184	H	0.374111	-0.156352	-0.181434
H185	H	0.707444	0.176981	0.151899
H186	H	1.040778	0.510315	0.485232
Br187	Br	0.964900	0.000576	0.736319
Br188	Br	1.298233	0.333910	1.069652
Br189	Br	1.631566	0.667243	1.402986
H190	H	0.734805	-0.370047	-0.024379
H191	H	1.068139	-0.036714	0.308954
H192	H	1.401472	0.296619	0.642287
Br193	Br	0.674866	-0.344983	-0.144299
Br194	Br	1.008199	-0.011650	0.189034
Br195	Br	1.341532	0.321683	0.522367
Br196	Br	0.933277	0.204244	0.508171
Br197	Br	1.266610	0.537577	0.841505
Br198	Br	1.599944	0.870910	1.174838
Br199	Br	0.770977	-0.341551	-0.238866
Br200	Br	1.104310	-0.008217	0.094467
Br201	Br	1.437644	0.325116	0.427801
H202	H	0.046435	0.000624	0.026600
H203	H	0.379769	0.333957	0.359933
H204	H	0.713102	0.667290	0.693266
H205	H	0.886224	-0.628406	-0.180372
H206	H	1.219557	-0.295072	0.152962
H207	H	1.552890	0.038261	0.486295
H208	H	0.015674	0.000578	-0.203099
H209	H	0.349008	0.333911	0.130234
H210	H	0.682341	0.667245	0.463567
H211	H	0.931666	-0.626891	-0.044553
H212	H	1.264999	-0.293558	0.288780
H213	H	1.598332	0.039776	0.622114
H214	H	0.177866	0.000481	0.024674
H215	H	0.511199	0.333814	0.358007
H216	H	0.844533	0.667147	0.691340
H217	H	0.731258	-0.156399	0.461454
H218	H	1.064592	0.176934	0.794787
H219	H	1.397925	0.510267	1.128121
H220	H	0.889474	-0.372296	-0.176665
H221	H	1.222807	-0.038962	0.156668
H222	H	1.556140	0.294371	0.490001
Br223	Br	0.219481	-0.203216	-0.205544
Br224	Br	0.552815	0.130117	0.127789
Br225	Br	0.886148	0.463450	0.461122
Br226	Br	0.420950	0.204142	0.020563
Br227	Br	0.754284	0.537475	0.353897
Br228	Br	1.087617	0.870808	0.687230
Br229	Br	0.967406	0.000491	0.565558
Br230	Br	1.300739	0.333824	0.898891
Br231	Br	1.634072	0.667158	1.232225
Br232	Br	0.764757	-0.652915	-0.236075
Br233	Br	1.098091	-0.319581	0.097259
Br234	Br	1.431424	0.013752	0.430592
Br235	Br	0.478263	0.000348	0.054702
Br236	Br	0.811596	0.333681	0.388035
Br237	Br	1.144930	0.667015	0.721368
H238	H	0.868357	-0.372592	0.018814
H239	H	1.201690	-0.039259	0.352147
H240	H	1.535024	0.294074	0.685481
H241	H	0.462561	0.000425	-0.209652
H242	H	0.795894	0.333759	0.123682
H243	H	1.129228	0.667092	0.457015
Br244	Br	0.162165	0.000560	-0.239683
Br245	Br	0.495498	0.333893	0.093651
Br246	Br	0.828832	0.667226	0.426984
H247	H	0.931333	-0.371453	-0.044491
H248	H	1.264666	-0.038120	0.288842
H249	H	1.598000	0.295214	0.622175
H250	H	0.909166	0.157274	0.353558
H251	H	1.242500	0.490607	0.686891
H252	H	1.575833	0.823941	1.020225
Br253	Br	0.673021	0.000377	0.249460
Br254	Br	1.006355	0.333710	0.582793
Br255	Br	1.339688	0.667044	0.916126
Br256	Br	0.973958	0.000473	0.118673
Br257	Br	1.307291	0.333806	0.452006
Br258	Br	1.640625	0.667139	0.785340
Br259	Br	0.707150	-0.203373	0.306843
Br260	Br	1.040484	0.129960	0.640176
Br261	Br	1.373817	0.463294	0.973509
H262	H	0.937375	0.000470	0.265162
H263	H	1.270708	0.333803	0.598495
H264	H	1.604041	0.667136	0.931829
Br265	Br	0.862644	-0.657650	0.054126
Br266	Br	1.195977	-0.324316	0.387459
Br267	Br	1.529310	0.009017	0.720793
H268	H	0.701123	0.000451	0.681288
H269	H	1.034457	0.333784	1.014621
H270	H	1.367790	0.667117	1.347954
H271	H	0.735466	-0.625161	-0.023376
H272	H	1.068799	-0.291827	0.309958
H273	H	1.402132	0.041506	0.643291
Br274	Br	0.674796	-0.654414	-0.143116
Br275	Br	1.008129	-0.321081	0.190218
Br276	Br	1.341462	0.012252	0.523551
Br277	Br	0.668972	0.000417	0.525587
Br278	Br	1.002305	0.333751	0.858920
Br279	Br	1.335639	0.667084	1.192253
H280	H	0.709599	0.000371	0.102967
H281	H	1.042932	0.333705	0.436300
H282	H	1.376266	0.667038	0.769633
