data_functionalizedCrystal
_audit_creation_method	'MofGen! by Chris Wilmer'
_symmetry_space_group_name_H-M	'P1'
_symmetry_Int_Tables_number	1
_symmetry_cell_setting	triclinic
loop_
_symmetry_equiv_pos_as_xyz
  x,y,z
_cell_length_a	21.295418
_cell_length_b	17.640280
_cell_length_c	17.640968
_cell_angle_alpha	114.317439
_cell_angle_beta	78.759571
_cell_angle_gamma	101.187999
loop_
_atom_site_label
_atom_site_type_symbol
_atom_site_fract_x
_atom_site_fract_y
_atom_site_fract_z
Zn1	Zn	1.064429	0.233368	-0.400276
Zn2	Zn	1.564429	0.733368	0.099724
Zn3	Zn	1.064378	0.399037	-0.234637
Zn4	Zn	1.564378	0.899037	0.265363
Zn5	Zn	0.941462	0.261311	-0.262411
Zn6	Zn	1.441462	0.761311	0.237589
Zn7	Zn	0.976850	0.371174	-0.372369
Zn8	Zn	1.476850	0.871174	0.127631
O9	O	1.011780	0.316223	-0.317423
O10	O	1.511780	0.816223	0.182577
O11	O	1.152516	0.255311	-0.378360
O12	O	1.652516	0.755311	0.121640
O13	O	1.033242	0.404122	-0.122983
O14	O	1.533242	0.904122	0.377017
O15	O	0.942986	0.142294	-0.304001
O16	O	1.442986	0.642294	0.195999
O17	O	1.152478	0.377027	-0.256666
O18	O	1.652478	0.877027	0.243334
O19	O	1.033329	0.121764	-0.405290
O20	O	1.533329	0.621764	0.094710
O21	O	0.942936	0.302936	-0.143388
O22	O	1.442936	0.802936	0.356612
O23	O	0.858063	0.275918	-0.276941
O24	O	1.358063	0.775918	0.223059
O25	O	1.003299	0.329538	-0.491410
O26	O	1.503299	0.829538	0.008590
O27	O	0.884063	0.356634	-0.357727
O28	O	1.384063	0.856634	0.142273
O29	O	1.067643	0.228293	-0.511913
O30	O	1.567643	0.728293	-0.011913
O31	O	1.067555	0.510652	-0.229606
O32	O	1.567555	1.010652	0.270394
O33	O	1.003249	0.490181	-0.330796
O34	O	1.503249	0.990181	0.169204
C35	C	1.039256	0.530311	-0.274177
C36	C	1.539256	1.030311	0.225823
C37	C	1.051071	0.621894	-0.255704
C38	C	1.551071	1.121894	0.244296
C39	C	0.848222	0.316285	-0.317320
C40	C	1.348222	0.816285	0.182680
C41	C	0.778256	0.316328	-0.317291
C42	C	1.278256	0.816328	0.182709
C43	C	1.039424	0.272691	-0.532403
C44	C	1.539424	0.772691	-0.032403
C45	C	1.051204	0.254140	-0.624015
C46	C	1.551204	0.754140	-0.124015
C47	C	0.758942	0.358442	-0.359263
C48	C	1.258942	0.858442	0.140737
C49	C	0.693202	0.358414	-0.359305
C50	C	1.193202	0.858414	0.140695
C51	C	0.646777	0.316284	-0.317357
C52	C	1.146777	0.816284	0.182643
C53	C	0.666096	0.274160	-0.275383
C54	C	1.166096	0.774160	0.224617
C55	C	0.731836	0.274182	-0.275350
C56	C	1.231836	0.774182	0.224650
N57	N	0.533417	0.324426	-0.246570
N58	N	1.033417	0.824426	0.253430
N59	N	0.470968	0.324410	-0.246603
N60	N	0.970968	0.824410	0.253397
C61	C	0.448707	0.316214	-0.317455
C62	C	0.948707	0.816214	0.182545
N63	N	0.491255	0.308050	-0.388271
N64	N	0.991255	0.808050	0.111729
N65	N	0.553710	0.308071	-0.388236
N66	N	1.053710	0.808071	0.111764
C67	C	0.575492	0.316255	-0.317388
C68	C	1.075492	0.816255	0.182612
C69	C	0.358111	0.358300	-0.359476
C70	C	0.858111	0.858300	0.140524
C71	C	0.292369	0.358266	-0.359519
C72	C	0.792369	0.858266	0.140481
C73	C	0.265264	0.274017	-0.275589
C74	C	0.765264	0.774017	0.224411
C75	C	0.331005	0.274045	-0.275554
C76	C	0.831005	0.774045	0.224446
C77	C	0.377425	0.316191	-0.317495
C78	C	0.877425	0.816191	0.182505
C79	C	1.175977	0.316160	-0.317528
C80	C	1.675977	0.816160	0.182472
C81	C	1.245948	0.316134	-0.317572
C82	C	1.745948	0.816134	0.182428
C83	C	0.984216	0.101294	-0.360857
C84	C	1.484216	0.601294	0.139143
C85	C	0.972470	0.009705	-0.379365
C86	C	1.472470	0.509705	0.120635
C87	C	0.922316	0.870005	-0.458064
C88	C	1.422316	1.370005	0.041936
C89	C	0.933416	0.956066	-0.440679
C90	C	1.433416	1.456066	0.059321
C91	C	1.000442	0.977296	-0.335415
C92	C	1.500442	1.477296	0.164585
C93	C	0.989350	0.891234	-0.352794
C94	C	1.489350	1.391234	0.147206
C95	C	0.950285	0.837596	-0.414119
C96	C	1.450285	1.337596	0.085881
C97	C	1.017320	0.858825	-0.308849
C98	C	1.517320	1.358825	0.191151
C99	C	1.006226	0.772771	-0.326224
C100	C	1.506226	1.272771	0.173776
C101	C	0.967161	0.719128	-0.387543
C102	C	1.467161	1.219128	0.112457
C103	C	0.939191	0.751542	-0.431493
C104	C	1.439191	1.251542	0.068507
C105	C	1.056380	0.912466	-0.247521
C106	C	1.556380	1.412466	0.252479
C107	C	1.084350	0.880056	-0.203576
C108	C	1.584350	1.380056	0.296424
C109	C	1.073260	0.794000	-0.220954
C110	C	1.573260	1.294000	0.279046
C111	C	1.034196	0.740357	-0.282274
C112	C	1.534196	1.240357	0.217726
C113	C	1.101230	0.761586	-0.177004
C114	C	1.601230	1.261586	0.322996
C115	C	1.090136	0.675532	-0.194379
C116	C	1.590136	1.175532	0.305621
C117	C	1.023102	0.654303	-0.299649
C118	C	1.523102	1.154303	0.200351
C119	C	0.922470	0.456701	-0.871938
C120	C	1.422470	0.956701	-0.371938
C121	C	0.933551	0.439260	-0.958024
C122	C	1.433551	0.939260	-0.458024
C123	C	1.000547	0.333842	-0.979361
C124	C	1.500547	0.833842	-0.479361
C125	C	0.989469	0.351272	-0.893277
C126	C	1.489469	0.851272	-0.393277
C127	C	0.950430	0.412703	-0.839571
C128	C	1.450430	0.912703	-0.339571
C129	C	1.017430	0.307274	-0.860910
C130	C	1.517430	0.807274	-0.360910
C131	C	1.006355	0.324706	-0.774832
C132	C	1.506355	0.824706	-0.274832
C133	C	0.967320	0.386136	-0.721121
C134	C	1.467320	0.886136	-0.221121
C135	C	0.939356	0.430135	-0.753494
C136	C	1.439356	0.930135	-0.253494
C137	C	1.056472	0.245847	-0.914616
C138	C	1.556472	0.745847	-0.414616
C139	C	1.084432	0.201849	-0.882249
C140	C	1.584432	0.701849	-0.382249
C141	C	1.073354	0.219277	-0.796170
C142	C	1.573354	0.719277	-0.296170
C143	C	1.034319	0.280706	-0.742460
C144	C	1.534319	0.780706	-0.242460
C145	C	1.101318	0.175277	-0.763798
C146	C	1.601318	0.675277	-0.263798
C147	C	1.090243	0.192709	-0.677720
C148	C	1.590243	0.692709	-0.177720
C149	C	1.023244	0.298138	-0.656382
C150	C	1.523244	0.798138	-0.156382
C151	C	0.984272	0.359525	-0.103292
C152	C	1.484272	0.859525	0.396708
C153	C	0.972584	0.377844	-0.011727
C154	C	1.472584	0.877844	0.488273
H155	H	0.796734	0.392759	-0.393417
H156	H	1.296734	0.892759	0.106583
Cl157	Cl	1.133510	0.124626	-0.949770
Cl158	Cl	1.633510	0.624626	-0.449770
H159	H	1.065414	0.982535	-0.233379
H160	H	1.565414	1.482535	0.266621
Cl161	Cl	1.150401	0.098062	-0.831320
Cl162	Cl	1.650401	0.598062	-0.331320
H163	H	0.747559	0.239885	-0.241171
H164	H	1.247559	0.739885	0.258829
H165	H	0.991437	0.348142	-0.612655
H166	H	1.491437	0.848142	-0.112655
Cl167	Cl	1.049625	0.256619	-1.046883
Cl168	Cl	1.549625	0.756619	-0.546883
H169	H	1.113010	0.156880	-0.651367
H170	H	1.613010	0.656880	-0.151367
H171	H	0.910645	0.982447	-0.476479
H172	H	1.410645	1.482447	0.023521
Cl173	Cl	0.953383	0.610906	-0.409578
Cl174	Cl	1.453383	1.110906	0.090422
H175	H	1.065489	0.231658	-0.984705
H176	H	1.565489	0.731658	-0.484705
Cl177	Cl	0.890271	0.507357	-0.685973
Cl178	Cl	1.390271	1.007357	-0.185973
H179	H	0.958306	0.400331	-0.651031
H180	H	1.458306	0.900331	-0.151031
H181	H	0.677473	0.392708	-0.393487
H182	H	1.177473	0.892708	0.106513
Cl183	Cl	0.607735	0.221191	-0.222653
Cl184	Cl	1.107735	0.721191	0.277347
Cl185	Cl	0.355287	0.221101	-0.222782
Cl186	Cl	0.855287	0.721101	0.277218
Cl187	Cl	0.206907	0.221047	-0.222860
Cl188	Cl	0.706907	0.721047	0.277140
Cl189	Cl	0.268090	0.411209	-0.412296
Cl190	Cl	0.768090	0.911209	0.087704
H191	H	1.116154	0.923740	-0.153643
H192	H	1.616154	1.423740	0.346357
H193	H	0.991297	0.610627	-0.349591
H194	H	1.491297	1.110627	0.150409
H195	H	0.890663	0.506705	-0.828212
H196	H	1.390663	1.006705	-0.328212
H197	H	0.907387	0.707866	-0.481436
H198	H	1.407387	1.207866	0.018564
Cl199	Cl	0.873212	0.802566	-0.535167
Cl200	Cl	1.373212	1.302566	-0.035167
Cl201	Cl	0.898394	0.494576	-0.998710
Cl202	Cl	1.398394	0.994576	-0.498710
Cl203	Cl	0.416470	0.411275	-0.412207
Cl204	Cl	0.916470	0.911275	0.087793
H205	H	1.032246	1.020980	-0.285483
H206	H	1.532246	1.520980	0.214517
H207	H	1.133031	0.805272	-0.127069
H208	H	1.633031	1.305272	0.372931
H209	H	1.112911	0.649145	-0.158593
H210	H	1.612911	1.149145	0.341407
