data_functionalizedCrystal
_audit_creation_method	'MofGen! by Chris Wilmer'
_symmetry_space_group_name_H-M	'P1'
_symmetry_Int_Tables_number	1
_symmetry_cell_setting	triclinic
loop_
_symmetry_equiv_pos_as_xyz
  x,y,z
_cell_length_a	6.817900
_cell_length_b	11.102289
_cell_length_c	17.078481
_cell_angle_alpha	95.111625
_cell_angle_beta	99.306161
_cell_angle_gamma	108.605707
loop_
_atom_site_label
_atom_site_type_symbol
_atom_site_fract_x
_atom_site_fract_y
_atom_site_fract_z
V1	V	-4.005700	-0.175542	-0.247361
O2	O	-3.966747	0.008741	-0.242653
O3	O	-3.983201	-0.348365	-0.245670
O4	O	-3.936325	-0.172708	-0.355244
O5	O	-4.013948	-0.168132	-0.132319
V6	V	-4.488690	-0.153516	-0.233602
O7	O	-4.268129	-0.223859	-0.277545
O8	O	-4.676459	-0.105199	-0.203418
O9	O	-4.287983	0.019306	-0.235293
O10	O	-4.645040	-0.337799	-0.238310
O11	O	-4.597839	-0.160927	-0.348644
O12	O	-4.334858	-0.156350	-0.125719
C13	C	-3.835182	-0.390499	-0.241767
C14	C	-3.897933	-0.531783	-0.241103
C15	C	-3.775386	-0.166430	-0.381540
C16	C	-3.800119	-0.165257	-0.469735
C17	C	-4.109727	-0.604627	-0.244749
C18	C	-4.168680	-0.737379	-0.244131
C19	C	-3.804020	-0.724430	-0.236219
C20	C	-3.745073	-0.591682	-0.236842
C21	C	-4.320260	-0.612103	-0.249313
C22	C	-4.379213	-0.744855	-0.248696
C23	C	-3.994021	-0.171049	-0.515211
C24	C	-4.017249	-0.169946	-0.598079
C25	C	-3.846575	-0.163058	-0.635470
C26	C	-3.652655	-0.157261	-0.589988
C27	C	-3.629426	-0.158356	-0.507121
C28	C	-3.896497	-0.159097	-0.882874
C29	C	-3.919744	-0.158006	-0.965748
C30	C	-4.284335	-0.170689	-0.973832
C31	C	-4.261092	-0.171790	-0.890963
C32	C	-4.067172	-0.165986	-0.845488
N33	N	-3.870314	-0.161934	-0.720175
N34	N	-4.043431	-0.167101	-0.760784
C35	C	-4.099346	0.061434	-0.239194
C36	C	-4.015832	0.202717	-0.239863
C37	C	-4.159142	-0.162632	-0.099419
C38	C	-4.113646	-0.163799	-0.011223
H39	H	-3.679575	-0.773217	-0.232751
H40	H	-4.400077	-0.177397	-0.860525
H41	H	-3.780748	-0.152394	-0.996189
H42	H	-3.738621	-0.154416	-0.845861
H43	H	-4.407441	-0.592813	-0.307012
H44	H	-4.133011	-0.176666	-0.484773
H45	H	-4.485875	-0.802651	-0.307471
O46	O	-3.486933	-0.150402	-0.626383
C47	C	-3.436872	-0.038808	-0.663299
H48	H	-3.581101	-0.007286	-0.675636
H49	H	-3.301153	0.041323	-0.621833
C50	C	-3.193545	-0.106451	-0.727819
C51	C	-3.370696	-0.067741	-0.742978
H52	H	-3.152715	-0.124295	-0.776967
H53	H	-3.227265	-0.181632	-0.702946
H54	H	-3.080468	-0.039668	-0.693262
H55	H	-3.483777	-0.134530	-0.777526
H56	H	-3.336993	0.007428	-0.767859
O57	O	-4.468159	-0.774957	-0.184091
C58	C	-4.527326	-0.908669	-0.183575
H59	H	-4.549369	-0.959751	-0.246957
H60	H	-4.398546	-0.930505	-0.141951
C61	C	-4.709069	-0.893488	-0.075773
C62	C	-4.736160	-0.956229	-0.153622
H63	H	-4.837881	-0.922827	-0.057293
H64	H	-4.669200	-0.803403	-0.076118
H65	H	-4.601744	-0.911691	-0.041096
H66	H	-4.843463	-0.938013	-0.188299
H67	H	-4.776051	-1.046312	-0.153282
O68	O	-4.348678	-0.548467	-0.182618
C69	C	-4.286465	-0.415810	-0.187214
H70	H	-4.170402	-0.391592	-0.229363
H71	H	-4.431353	-0.389691	-0.211082
C72	C	-4.322118	-0.368649	-0.051290
C73	C	-4.179553	-0.338901	-0.103053
H74	H	-4.256178	-0.321206	0.000625
H75	H	-4.364040	-0.458022	-0.048194
H76	H	-4.442848	-0.346882	-0.071190
H77	H	-4.058840	-0.360683	-0.083158
H78	H	-4.137608	-0.249529	-0.106144
O79	O	-4.205770	-0.175620	-0.642139
C80	C	-4.351410	-0.181898	-0.591363
H81	H	-4.300644	-0.221261	-0.535047
H82	H	-4.356269	-0.081538	-0.573812
C83	C	-4.634868	-0.222808	-0.704847
C84	C	-4.572525	-0.271164	-0.635682
H85	H	-4.771264	-0.277866	-0.732185
H86	H	-4.536747	-0.218573	-0.739056
H87	H	-4.638900	-0.139175	-0.690211
H88	H	-4.568468	-0.354788	-0.650320
H89	H	-4.670651	-0.275415	-0.601477
O90	O	-4.472843	-0.176555	-1.017999
C91	C	-4.630626	-0.291234	-1.010954
H92	H	-4.554306	-0.365099	-0.993323
H93	H	-4.718934	-0.270825	-0.962945
C94	C	-4.880526	-0.253570	-1.113581
C95	C	-4.786789	-0.344296	-1.091933
H96	H	-4.976862	-0.286300	-1.163531
H97	H	-4.774228	-0.176306	-1.118326
H98	H	-4.954099	-0.236571	-1.073567
H99	H	-4.713197	-0.361282	-1.131941
H100	H	-4.893079	-0.421565	-1.087197
O101	O	-3.441011	-0.152516	-0.462885
C102	C	-3.364126	-0.042222	-0.403933
H103	H	-3.437821	0.031797	-0.423680
H104	H	-3.407392	-0.069753	-0.344651
C105	C	-3.031633	-0.075451	-0.368690
C106	C	-3.122134	0.015465	-0.392947
H107	H	-2.882360	-0.039869	-0.361909
H108	H	-3.083433	-0.149761	-0.408404
H109	H	-3.067709	-0.098386	-0.319290
H110	H	-3.086079	0.038386	-0.442350
H111	H	-3.070322	0.089781	-0.353240
H112	H	-3.572618	-0.532379	-0.233883
