data_functionalizedCrystal
_audit_creation_method	'MofGen! by Chris Wilmer'
_symmetry_space_group_name_H-M	'P1'
_symmetry_Int_Tables_number	1
_symmetry_cell_setting	triclinic
loop_
_symmetry_equiv_pos_as_xyz
  x,y,z
_cell_length_a	10.654550
_cell_length_b	10.540539
_cell_length_c	9.730223
_cell_angle_alpha	90.000775
_cell_angle_beta	89.996251
_cell_angle_gamma	84.505197
loop_
_atom_site_label
_atom_site_type_symbol
_atom_site_fract_x
_atom_site_fract_y
_atom_site_fract_z
O1	O	1.667897	0.178295	-0.114396
O2	O	1.302424	0.195282	-0.114373
O3	O	1.493499	0.002079	-0.114383
O4	O	1.476822	0.371498	-0.114386
O5	O	1.493496	0.002084	0.114197
O6	O	1.302422	0.195287	0.114207
O7	O	1.667895	0.178300	0.114184
Zn8	Zn	1.485158	0.186794	0.150487
Zn9	Zn	1.485161	0.186788	-0.150677
O10	O	1.476820	0.371503	0.114194
C11	C	1.255625	0.194038	-0.000080
C12	C	1.116180	0.190306	-0.000072
C13	C	1.036734	0.304061	-0.000093
C14	C	0.905712	0.300547	-0.000116
C15	C	0.933595	0.069513	-0.000104
C16	C	1.064614	0.073028	-0.000071
C17	C	1.088301	0.421338	-0.000094
C18	C	1.008854	0.535103	-0.000116
C19	C	0.877832	0.531589	-0.000140
C20	C	0.826256	0.414310	-0.000141
C21	C	1.492247	-0.045221	-0.000096
C22	C	1.488505	-0.186168	-0.000103
C23	C	1.345134	-0.369543	-0.000607
C24	C	1.348927	-0.222926	-0.000093
C25	C	1.555675	-0.247847	0.130423
C26	C	1.550912	-0.394389	0.130533
C27	C	1.553753	-0.394914	-0.129405
C28	C	1.555039	-0.247933	-0.131131
C29	C	1.714694	0.179545	-0.000112
C30	C	1.854139	0.183276	-0.000129
C31	C	1.478072	0.418803	-0.000096
C32	C	1.481813	0.559750	-0.000098
N33	N	1.485165	0.186798	0.356024
N34	N	1.485164	0.186774	-0.356213
C35	C	1.569795	0.101277	0.427945
C36	C	1.569791	0.101261	0.571828
C37	C	1.400525	0.272299	0.571855
C38	C	1.400523	0.272308	0.427975
C39	C	1.654437	0.015767	0.355994
C40	C	1.739074	-0.069760	0.427916
C41	C	1.739071	-0.069775	0.571799
C42	C	1.654430	0.015736	0.643760
H43	H	1.296074	-0.180306	-0.093659
N44	N	1.825515	-0.157155	0.645245
N45	N	1.901072	-0.233497	0.580981
H46	H	1.962130	-0.295211	0.632849
N47	N	1.488613	-0.429770	0.252917
N48	N	1.473830	-0.544190	0.275123
H49	H	1.429827	-0.569174	0.361557
H50	H	1.654450	0.015774	0.238837
H51	H	1.658178	-0.225529	0.135270
H52	H	1.807979	-0.139388	0.369317
H53	H	1.654426	0.015708	0.760919
H54	H	1.331615	0.341921	0.630456
H55	H	1.331609	0.341946	0.369416
N56	N	1.275929	-0.405400	-0.118003
N57	N	1.164840	-0.358654	-0.135923
H58	H	1.115959	-0.383987	-0.218835
H59	H	1.050855	0.630586	-0.000103
N60	N	1.222132	0.424952	-0.000082
N61	N	1.268162	0.529666	-0.000088
H62	H	1.362681	0.532219	-0.000084
N63	N	1.276253	-0.407419	0.116167
N64	N	1.327387	-0.486261	0.199762
H65	H	1.278744	-0.513016	0.282237
N66	N	0.880894	-0.050265	-0.000102
N67	N	0.763912	-0.053386	-0.000131
H68	H	0.726691	-0.137981	-0.000132
H69	H	0.719568	0.411458	-0.000139
N70	N	0.796660	0.647776	-0.000158
N71	N	0.679681	0.644627	-0.000177
H72	H	0.622352	0.726688	-0.000191
N73	N	1.145756	-0.043179	-0.000032
N74	N	1.099703	-0.147881	-0.000035
H75	H	1.157009	-0.229957	0.000001
H76	H	1.651295	-0.442394	0.136449
N77	N	1.282156	-0.170526	0.117493
N78	N	1.232614	-0.242256	0.199440
H79	H	1.185455	-0.205250	0.282493
N80	N	1.497131	-0.194378	0.252276
N81	N	1.405953	-0.110865	0.243328
H82	H	1.364598	-0.073103	0.329384
N83	N	1.497084	-0.434498	-0.253504
N84	N	1.402976	-0.496611	-0.248150
H85	H	1.362942	-0.524571	-0.335788
N86	N	1.493454	-0.196558	-0.252260
N87	N	1.400907	-0.114755	-0.242233
H88	H	1.357408	-0.078464	-0.327778
H89	H	1.656802	-0.223748	-0.139019
N90	N	1.680235	-0.454178	-0.130548
N91	N	1.770896	-0.387239	-0.127286
H92	H	1.860222	-0.429095	-0.128088
