data_functionalizedCrystal
_audit_creation_method	'MofGen! by Chris Wilmer'
_symmetry_space_group_name_H-M	'P1'
_symmetry_Int_Tables_number	1
_symmetry_cell_setting	triclinic
loop_
_symmetry_equiv_pos_as_xyz
  x,y,z
_cell_length_a	19.805407
_cell_length_b	19.805405
_cell_length_c	19.805399
_cell_angle_alpha	90.029301
_cell_angle_beta	90.019573
_cell_angle_gamma	90.026410
loop_
_atom_site_label
_atom_site_type_symbol
_atom_site_fract_x
_atom_site_fract_y
_atom_site_fract_z
Zn1	Zn	1.034736	-0.269479	0.382712
Zn2	Zn	1.034651	-0.382667	0.269520
Zn3	Zn	0.921550	-0.269498	0.269536
Zn4	Zn	0.921514	-0.382631	0.382667
O5	O	0.978113	-0.326069	0.326109
O6	O	1.129441	-0.284501	0.367708
O7	O	1.019627	-0.367678	0.174805
O8	O	0.936616	-0.174778	0.284575
O9	O	1.129378	-0.367660	0.284547
O10	O	1.019772	-0.174765	0.367724
O11	O	0.936533	-0.284533	0.174817
O12	O	0.826829	-0.284498	0.284531
O13	O	0.936553	-0.367598	0.477389
O14	O	0.826802	-0.367617	0.367648
O15	O	1.019737	-0.284466	0.477422
O16	O	1.019592	-0.477379	0.284503
O17	O	0.936471	-0.477353	0.367632
C18	C	0.802257	-0.326056	0.326087
C19	C	0.727025	-0.326067	0.326093
C20	C	0.691684	-0.369412	0.369302
C21	C	0.620996	-0.369413	0.369312
C22	C	0.585649	-0.326072	0.326109
C23	C	0.620994	-0.282722	0.282898
C24	C	0.691681	-0.282718	0.282892
C25	C	0.335921	-0.282737	0.282920
C26	C	0.265229	-0.282746	0.282928
C27	C	0.265235	-0.369432	0.369340
C28	C	0.335922	-0.369428	0.369334
C29	C	0.371262	-0.326076	0.326126
C30	C	0.447910	-0.326074	0.326117
C31	C	0.509002	-0.326076	0.326114
C32	C	0.978036	-0.501925	0.326076
C33	C	0.978066	-0.577157	0.326084
C34	C	1.021389	-0.612492	0.282845
C35	C	1.021418	-0.683181	0.282860
C36	C	0.978119	-0.718532	0.326111
C37	C	0.934794	-0.683192	0.369356
C38	C	0.934769	-0.612505	0.369344
C39	C	0.934894	-0.968265	0.369406
C40	C	0.934921	-1.038957	0.369413
C41	C	1.021542	-1.038941	0.282922
C42	C	1.021517	-0.968254	0.282910
C43	C	0.978195	-0.932920	0.326157
C44	C	0.978166	-0.856271	0.326141
C45	C	0.978145	-0.795179	0.326124
C46	C	1.154655	-0.326082	0.326131
C47	C	1.229887	-0.326088	0.326140
C48	C	0.978151	-0.326026	0.502651
C49	C	0.978167	-0.326008	0.577883
C50	C	0.978207	-0.149526	0.326156
C51	C	0.978248	-0.074294	0.326177
C52	C	0.978114	-0.326062	0.150253
C53	C	0.978229	-0.325890	0.075021
C54	C	1.021481	-0.282719	0.613246
C55	C	1.021488	-0.282699	0.683934
C56	C	0.978184	-0.325973	0.719259
C57	C	0.934864	-0.369264	0.683892
C58	C	0.934854	-0.369279	0.613204
C59	C	0.934902	-0.369201	0.968965
C60	C	0.934917	-0.369183	1.039657
C61	C	1.021536	-0.282620	1.039695
C62	C	1.021527	-0.282636	0.969008
C63	C	0.978205	-0.325924	0.933647
C64	C	0.978197	-0.325944	0.856998
C65	C	0.978194	-0.325957	0.795906
H66	H	0.592209	-0.247430	0.247724
H67	H	0.899663	-1.067739	0.404639
H68	H	0.720458	-0.404707	0.404481
C69	C	0.887256	-0.416823	0.930074
C70	C	0.839627	-0.464426	0.968932
C71	C	0.791979	-0.512051	0.930037
C72	C	0.791960	-0.512074	0.852284
C73	C	0.839590	-0.464469	0.813421
C74	C	0.887238	-0.416843	0.852316
H75	H	0.839640	-0.464411	1.026493
H76	H	0.756720	-0.547291	0.958806
H77	H	0.756688	-0.547329	0.823492
H78	H	0.839577	-0.464484	0.755860
H79	H	0.922497	-0.381603	0.823547
C80	C	0.226346	-0.235064	0.235405
C81	C	0.265215	-0.187376	0.187879
C82	C	0.226332	-0.139698	0.140359
C83	C	0.148579	-0.139708	0.140364
C84	C	0.109705	-0.187398	0.187891
C85	C	0.148588	-0.235076	0.235412
H86	H	0.322777	-0.187367	0.187874
H87	H	0.255109	-0.104395	0.105176
H88	H	0.119795	-0.104414	0.105186
H89	H	0.052143	-0.187407	0.187896
H90	H	0.119811	-0.270379	0.270595
H91	H	0.899618	-0.939502	0.404618
H92	H	1.056809	-0.247370	1.068495
C93	C	0.887164	-0.722077	0.416933
C94	C	0.839510	-0.683206	0.464498
C95	C	0.791877	-0.722089	0.512074
C96	C	0.791898	-0.799842	0.512087
C97	C	0.839554	-0.838717	0.464521
C98	C	0.887187	-0.799834	0.416944
H99	H	0.839493	-0.625645	0.464490
H100	H	0.756598	-0.693311	0.547286
H101	H	0.756637	-0.828626	0.547306
H102	H	0.839571	-0.896278	0.464529
H103	H	0.922465	-0.828612	0.381733
H104	H	0.899602	-0.404495	0.712659
C105	C	0.887211	-0.416905	0.574306
C106	C	0.916507	-0.470057	0.525702
C107	C	0.868861	-0.517684	0.486805
C108	C	0.791920	-0.512157	0.496512
C109	C	0.762621	-0.459003	0.545119
C110	C	0.810266	-0.411376	0.584015
H111	H	0.973467	-0.474150	0.518514
H112	H	0.890551	-0.557032	0.450823
H113	H	0.756650	-0.547413	0.467719
H114	H	0.705661	-0.454910	0.552307
H115	H	0.788577	-0.372028	0.619997
H116	H	0.364698	-0.404723	0.404512
C117	C	0.582121	-0.417094	0.416842
C118	C	0.621000	-0.464772	0.464361
C119	C	0.582126	-0.512453	0.511894
C120	C	0.504373	-0.512457	0.511909
C121	C	0.465490	-0.464778	0.464389
C122	C	0.504364	-0.417096	0.416855
H123	H	0.678561	-0.464770	0.464351
H124	H	0.610910	-0.547749	0.547072
H125	H	0.475596	-0.547754	0.547097
H126	H	0.407928	-0.464779	0.464398
H127	H	0.475579	-0.381800	0.381677
H128	H	0.899492	-0.583735	0.404555
H129	H	0.236454	-0.404729	0.404524
C130	C	0.730560	-0.235037	0.235363
C131	C	0.720872	-0.158100	0.241031
C132	C	0.759751	-0.110415	0.193505
C133	C	0.808318	-0.139667	0.140310
C134	C	0.818008	-0.216608	0.134639
C135	C	0.779129	-0.264293	0.182166
H136	H	0.684919	-0.136443	0.280411
H137	H	0.752577	-0.053459	0.197702
H138	H	0.837098	-0.104368	0.105128
H139	H	0.853961	-0.238265	0.095259
H140	H	0.786302	-0.321250	0.177968
C141	C	1.069019	-0.573608	0.235267
C142	C	1.063548	-0.583386	0.158318
C143	C	1.111181	-0.544504	0.110740
C144	C	1.164285	-0.495844	0.140111
C145	C	1.169758	-0.486064	0.217064
C146	C	1.122125	-0.524946	0.264642
H147	H	1.024236	-0.619409	0.136572
H148	H	1.107129	-0.551744	0.053775
H149	H	1.199545	-0.467061	0.104892
H150	H	1.209070	-0.450041	0.238810
H151	H	1.126176	-0.517706	0.321608
C152	C	0.374780	-0.235064	0.235374
C153	C	0.365088	-0.158125	0.241017
C154	C	0.403947	-0.110454	0.193461
C155	C	0.452498	-0.139721	0.140260
C156	C	0.462193	-0.216663	0.134614
C157	C	0.423334	-0.264334	0.182171
H158	H	0.329145	-0.136457	0.280402
H159	H	0.396770	-0.053496	0.197641
H160	H	0.481264	-0.104432	0.105056
H161	H	0.498135	-0.238332	0.095230
H162	H	0.430511	-0.321292	0.177991
H163	H	1.056773	-0.939473	0.247688
H164	H	1.056695	-0.711948	0.247649
H165	H	0.899650	-0.404423	1.068417
H166	H	1.056820	-1.067719	0.247711
H167	H	1.056747	-0.247482	0.584489
C168	C	1.069134	-0.235078	0.722833
C169	C	1.116770	-0.187480	0.683978
C170	C	1.164415	-0.139855	0.722877
C171	C	1.164424	-0.139827	0.800630
C172	C	1.116786	-0.187427	0.839489
C173	C	1.069141	-0.235052	0.800591
H174	H	1.116765	-0.187499	0.626417
H175	H	1.199680	-0.104618	0.694110
H176	H	1.199693	-0.104572	0.829425
H177	H	1.116790	-0.187408	0.897050
H178	H	1.033876	-0.270289	0.829357
H179	H	1.056792	-0.247400	0.940250
