data_functionalizedCrystal
_audit_creation_method	'MofGen! by Chris Wilmer'
_symmetry_space_group_name_H-M	'P1'
_symmetry_Int_Tables_number	1
_symmetry_cell_setting	triclinic
loop_
_symmetry_equiv_pos_as_xyz
  x,y,z
_cell_length_a	22.610064
_cell_length_b	11.026607
_cell_length_c	11.026607
_cell_angle_alpha	108.586017
_cell_angle_beta	90.007110
_cell_angle_gamma	89.990583
loop_
_atom_site_label
_atom_site_type_symbol
_atom_site_fract_x
_atom_site_fract_y
_atom_site_fract_z
O1	O	0.049183	-1.726738	-0.533608
O2	O	0.549183	-1.226738	-0.033608
O3	O	0.049184	-1.360158	-0.472845
O4	O	0.549184	-0.860158	0.027155
O5	O	0.049182	-1.513067	-0.319936
O6	O	0.549182	-1.013067	0.180064
O7	O	0.049186	-1.573830	-0.686516
O8	O	0.549186	-1.073830	-0.186516
O9	O	-0.049188	-1.513038	-0.319957
O10	O	0.450812	-1.013038	0.180043
O11	O	-0.049185	-1.360130	-0.472866
O12	O	0.450815	-0.860130	0.027134
O13	O	-0.049186	-1.726710	-0.533629
O14	O	0.450814	-1.226710	-0.033629
Zn15	Zn	-0.064804	-1.543416	-0.503251
Zn16	Zn	0.435196	-1.043416	-0.003251
Zn17	Zn	0.064802	-1.543453	-0.503223
Zn18	Zn	0.564802	-1.043453	-0.003223
O19	O	-0.049184	-1.573802	-0.686537
O20	O	0.450816	-1.073802	-0.186537
C21	C	-0.000000	-1.312485	-0.461645
C22	C	0.500000	-0.812485	0.038355
C23	C	-0.000000	-1.170471	-0.428228
C24	C	0.500000	-0.670471	0.071772
C25	C	-0.000002	-1.501843	-0.272287
C26	C	0.499998	-1.001843	0.227713
C27	C	-0.000000	-1.468426	-0.130273
C28	C	0.500000	-0.968426	0.369727
N29	N	-0.153256	-1.543399	-0.503271
N30	N	0.346744	-1.043399	-0.003271
C31	C	-0.561899	-1.611168	-0.435529
C32	C	-0.061899	-1.111168	0.064471
C33	C	-0.623819	-1.611172	-0.435522
C34	C	-0.123819	-1.111172	0.064478
O35	O	-0.655838	-1.668741	-0.377933
O36	O	-0.155838	-1.168741	0.122067
N37	N	-0.654793	-1.543446	-0.503196
N38	N	-0.154793	-1.043446	-0.003196
C39	C	-0.623845	-1.475701	-0.570873
C40	C	-0.123845	-0.975701	-0.070873
O41	O	-0.655877	-1.418094	-0.628434
O42	O	-0.155877	-0.918094	-0.128434
C43	C	-0.561926	-1.475690	-0.570872
C44	C	-0.061926	-0.975690	-0.070872
C45	C	-0.530955	-1.543431	-0.503204
C46	C	-0.030955	-1.043431	-0.003204
C47	C	-0.530927	-1.678902	-0.367865
C48	C	-0.030927	-1.178902	0.132135
C49	C	-0.469012	-1.678899	-0.367875
C50	C	0.030988	-1.178899	0.132125
C51	C	-0.438068	-1.611162	-0.435550
C52	C	0.061932	-1.111162	0.064450
C53	C	-0.469039	-1.543428	-0.503214
C54	C	0.030961	-1.043428	-0.003214
C55	C	-0.530979	-1.407938	-0.638541
C56	C	-0.030979	-0.907938	-0.138541
C57	C	-0.469056	-1.407932	-0.638534
C58	C	0.030944	-0.907932	-0.138534
C59	C	-0.438084	-1.475673	-0.570865
C60	C	0.061916	-0.975673	-0.070865
C61	C	-0.376179	-1.475688	-0.570898
C62	C	0.123821	-0.975688	-0.070898
N63	N	-0.345205	-1.543414	-0.503223
N64	N	0.154795	-1.043414	-0.003223
C65	C	-0.376149	-1.611151	-0.435549
C66	C	0.123851	-1.111151	0.064451
C67	C	-0.753879	-1.475728	-0.570867
C68	C	-0.253879	-0.975728	-0.070867
C69	C	-0.815796	-1.475745	-0.570875
C70	C	-0.315796	-0.975745	-0.070875
C71	C	-0.815766	-1.611215	-0.435522
C72	C	-0.315766	-1.111215	0.064478
C73	C	-0.753847	-1.611204	-0.435522
C74	C	-0.253847	-1.111204	0.064478
C75	C	-0.722904	-1.543453	-0.503192
C76	C	-0.222904	-1.043453	-0.003192
C77	C	-0.246121	-1.611141	-0.435576
C78	C	0.253879	-1.111141	0.064424
C79	C	-0.184200	-1.611136	-0.435597
C80	C	0.315800	-1.111136	0.064403
C81	C	-0.184236	-1.475662	-0.570944
C82	C	0.315764	-0.975662	-0.070944
C83	C	-0.246152	-1.475671	-0.570930
C84	C	0.253848	-0.975671	-0.070930
C85	C	-0.277093	-1.543413	-0.503236
C86	C	0.222907	-1.043413	-0.003236
O87	O	-0.344120	-1.418144	-0.628454
O88	O	0.155880	-0.918144	-0.128454
O89	O	-0.344109	-1.668734	-0.377984
O90	O	0.155891	-1.168734	0.122016
N91	N	0.153254	-1.543477	-0.503195
N92	N	0.653254	-1.043477	-0.003195
C93	C	-0.000000	-1.774384	-0.544828
C94	C	0.500000	-1.274384	-0.044828
C95	C	0.000003	-1.916398	-0.578245
C96	C	0.500003	-1.416398	-0.078245
C97	C	0.000001	-1.116821	-0.520498
C98	C	0.500001	-0.616821	-0.020498
C99	C	0.000002	-0.970043	-0.485962
C100	C	0.500002	-0.470043	0.014038
C101	C	0.000002	-1.585026	-0.734187
C102	C	0.500002	-1.085026	-0.234187
C103	C	0.000003	-1.618443	-0.876200
C104	C	0.500003	-1.118443	-0.376200
C105	C	0.000000	-1.560695	-0.076624
C106	C	0.500000	-1.060695	0.423376
C107	C	0.000003	-1.526160	0.070155
C108	C	0.500003	-1.026160	0.570155
H109	H	-0.158985	-1.666303	-0.380494
H110	H	0.341015	-1.166303	0.119506
Br111	Br	-0.572999	-1.315999	-0.730380
Br112	Br	-0.072999	-0.815999	-0.230380
H113	H	-0.841009	-1.420601	-0.625994
H114	H	-0.341009	-0.920601	-0.125994
Br115	Br	0.000012	-1.351868	0.174697
Br116	Br	0.500012	-0.851868	0.674697
Br117	Br	-0.000000	-1.221368	-0.694783
Br118	Br	0.500000	-0.721368	-0.194783
H119	H	-0.000003	-1.665258	-0.139357
H120	H	0.499997	-1.165258	0.360643
H121	H	-0.443865	-1.352757	-0.693637
H122	H	0.056135	-0.852757	-0.193637
H123	H	0.000047	-1.723013	0.061072
H124	H	0.500047	-1.223013	0.561072
H125	H	-0.271307	-1.666301	-0.380452
H126	H	0.228693	-1.166301	0.119548
Br127	Br	-0.426986	-1.770828	-0.276028
Br128	Br	0.073014	-1.270828	0.223972
Br129	Br	-0.000007	-0.865500	-0.311670
Br130	Br	0.499993	-0.365500	0.188330
H131	H	0.000004	-1.363863	-0.067540
H132	H	0.500004	-0.863863	0.432460
H133	H	-0.271370	-1.420526	-0.626047
H134	H	0.228630	-0.920526	-0.126047
Br135	Br	-0.142231	-1.383740	-0.662789
Br136	Br	0.357769	-0.883740	-0.162789
Br137	Br	-0.000006	-1.020937	-0.752539
Br138	Br	0.499994	-0.520937	-0.252539
H139	H	-0.728634	-1.666363	-0.380419
H140	H	-0.228634	-1.166363	0.119581
H141	H	-0.840972	-1.666368	-0.380416
H142	H	-0.340972	-1.166368	0.119584
H143	H	-0.728688	-1.420563	-0.625983
H144	H	-0.228688	-0.920563	-0.125983
H145	H	-0.556116	-1.734060	-0.312751
H146	H	-0.056116	-1.234060	0.187249
Br147	Br	-0.000009	-1.065924	-0.253943
Br148	Br	0.499991	-0.565924	0.246057
