data_functionalizedCrystal
_audit_creation_method	'MofGen! by Chris Wilmer'
_symmetry_space_group_name_H-M	'P1'
_symmetry_Int_Tables_number	1
_symmetry_cell_setting	triclinic
loop_
_symmetry_equiv_pos_as_xyz
  x,y,z
_cell_length_a	19.121063
_cell_length_b	19.077241
_cell_length_c	19.077569
_cell_angle_alpha	94.521759
_cell_angle_beta	90.211718
_cell_angle_gamma	85.144908
loop_
_atom_site_label
_atom_site_type_symbol
_atom_site_fract_x
_atom_site_fract_y
_atom_site_fract_z
Zn1	Zn	-0.218174	-1.084770	-0.450954
Zn2	Zn	-0.340545	-1.074915	-0.338083
Zn3	Zn	-0.228012	-0.961743	-0.328736
Zn4	Zn	-0.340497	-0.961810	-0.451185
O5	O	-0.281807	-1.020810	-0.392239
O6	O	-0.230309	-1.182284	-0.439797
O7	O	-0.329755	-1.055751	-0.238361
O8	O	-0.128419	-0.982159	-0.340940
O9	O	-0.320215	-1.175044	-0.356871
O10	O	-0.121191	-1.072546	-0.430733
O11	O	-0.247077	-0.972604	-0.231493
O12	O	-0.247031	-0.862930	-0.341164
O13	O	-0.320133	-0.982273	-0.549637
O14	O	-0.329673	-0.862980	-0.431127
O15	O	-0.230262	-1.072611	-0.549467
O16	O	-0.438826	-1.055816	-0.357095
O17	O	-0.438791	-0.972718	-0.440190
C18	C	-0.289415	-0.837332	-0.385156
C19	C	-0.292685	-0.758839	-0.382144
C20	C	-0.247482	-0.725733	-0.423975
C21	C	-0.250552	-0.651980	-0.421138
C22	C	-0.298830	-0.611335	-0.376473
C23	C	-0.344036	-0.644446	-0.334637
C24	C	-0.340961	-0.718197	-0.337471
C25	C	-0.313033	-0.390359	-0.363356
C26	C	-0.316105	-0.316603	-0.360527
C27	C	-0.222620	-0.324142	-0.447027
C28	C	-0.219553	-0.397894	-0.449860
C29	C	-0.264756	-0.430999	-0.408022
N30	N	-0.301971	-0.535948	-0.373573
N31	N	-0.261611	-0.506384	-0.410918
C32	C	-0.464292	-1.013225	-0.399698
C33	C	-0.542356	-1.010045	-0.402915
C34	C	-0.579023	-1.051853	-0.361202
C35	C	-0.652372	-1.048867	-0.364231
C36	C	-0.689054	-1.004069	-0.408971
C37	C	-0.652382	-0.962260	-0.450689
C38	C	-0.579034	-0.965250	-0.447663
C39	C	-0.910518	-0.992879	-0.420275
C40	C	-0.983872	-0.989890	-0.423297
C41	C	-0.983858	-1.076498	-0.336840
C42	C	-0.910508	-1.079481	-0.333814
C43	C	-0.873842	-1.037675	-0.375535
C44	C	-0.764029	-1.001015	-0.412068
C45	C	-0.798868	-1.040734	-0.372442
C46	C	-0.098607	-1.028444	-0.384768
C47	C	-0.020539	-1.031698	-0.381584
C48	C	-0.274095	-1.028549	-0.575801
C49	C	-0.270808	-1.031847	-0.654024
C50	C	-0.274166	-0.205004	-0.399345
C51	C	-0.270901	-0.283497	-0.402358
C52	C	-0.316052	-0.986363	-0.690863
C53	C	-0.312963	-0.989468	-0.764362
C54	C	-0.264628	-1.038053	-0.801020
C55	C	-0.219383	-1.083542	-0.764177
C56	C	-0.222475	-1.080440	-0.690679
C57	C	-0.250366	-1.052377	-1.020825
C58	C	-0.247276	-1.055474	-1.094327
C59	C	-0.340858	-0.961401	-1.094507
C60	C	-0.343943	-0.958300	-1.021008
C61	C	-0.298700	-1.003791	-0.984171
N62	N	-0.261469	-1.041227	-0.876148
N63	N	-0.301863	-1.000621	-0.909045
C64	C	-0.289436	-1.013143	-0.209392
C65	C	-0.292519	-1.009990	-0.131166
H66	H	-0.185817	-0.297180	-0.481089
H67	H	-0.682253	-0.925788	-0.487121
C68	C	-0.172709	-1.130470	-0.650153
H69	H	-0.181477	-1.121669	-0.601132
H70	H	-0.125438	-1.122613	-0.659871
H71	H	-0.180521	-1.177999	-0.664450
H72	H	-0.355422	-0.283511	-0.324155
H73	H	-0.377771	-0.745151	-0.303407
H74	H	-0.180030	-1.123104	-0.794030
C75	C	-0.369234	-0.932932	-0.650546
H76	H	-0.395745	-0.906298	-0.683016
H77	H	-0.344864	-0.902066	-0.619583
H78	H	-0.399921	-0.957479	-0.624175
H79	H	-1.013735	-0.953420	-0.459742
H80	H	-0.207909	-1.095036	-1.124172
C81	C	-0.390627	-0.911372	-1.135030
H82	H	-0.381869	-0.920181	-1.184053
H83	H	-0.382826	-0.863843	-1.120736
H84	H	-0.437898	-0.919241	-1.125309
H85	H	-0.213743	-0.625029	-0.455202
H86	H	-1.013719	-1.110536	-0.302874
H87	H	-0.793903	-0.964539	-0.448494
C88	C	-0.870196	-0.946881	-0.466154
H89	H	-0.902550	-0.919766	-0.493223
H90	H	-0.839134	-0.976322	-0.496703
H91	H	-0.844034	-0.916160	-0.436832
H92	H	-0.349806	-0.952431	-0.794353
C93	C	-0.166441	-0.442599	-0.498985
H94	H	-0.139953	-0.412319	-0.523487
H95	H	-0.190866	-0.471553	-0.531811
H96	H	-0.135726	-0.471498	-0.471958
H97	H	-0.349841	-0.417303	-0.329289
C98	C	-0.538680	-1.101132	-0.311988
H99	H	-0.571025	-1.125608	-0.287585
H100	H	-0.512511	-1.074017	-0.279081
H101	H	-0.507622	-1.134186	-0.338945
H102	H	-0.213527	-1.089419	-0.990841
H103	H	-0.383313	-0.918748	-0.991167
C104	C	-0.397141	-0.599739	-0.285507
H105	H	-0.392504	-0.551073	-0.289815
H106	H	-0.388273	-0.610251	-0.238279
H107	H	-0.443416	-0.610304	-0.298129
H108	H	-0.769000	-1.077211	-0.336017
H109	H	-0.682223	-1.082911	-0.330263
H110	H	-0.208170	-0.758821	-0.460348
H111	H	-0.549180	-0.931207	-0.481631
C112	C	-0.870163	-1.128763	-0.284605
H113	H	-0.902506	-1.153240	-0.260200
H114	H	-0.843994	-1.101647	-0.251699
H115	H	-0.839106	-1.161816	-0.311563
