data_functionalizedCrystal
_audit_creation_method	'MofGen! by Chris Wilmer'
_symmetry_space_group_name_H-M	'P1'
_symmetry_Int_Tables_number	1
_symmetry_cell_setting	triclinic
loop_
_symmetry_equiv_pos_as_xyz
  x,y,z
_cell_length_a	11.169417
_cell_length_b	12.759394
_cell_length_c	11.169409
_cell_angle_alpha	89.967439
_cell_angle_beta	89.980487
_cell_angle_gamma	90.015891
loop_
_atom_site_label
_atom_site_type_symbol
_atom_site_fract_x
_atom_site_fract_y
_atom_site_fract_z
Zn1	Zn	1.834926	-0.418146	-0.678531
Zn2	Zn	2.334926	0.081854	-0.178531
Zn3	Zn	1.834801	-0.593872	-0.477847
Zn4	Zn	2.334801	-0.093872	0.022153
Zn5	Zn	1.634212	-0.418212	-0.477866
Zn6	Zn	2.134212	0.081788	0.022134
Zn7	Zn	1.634205	-0.593788	-0.678493
Zn8	Zn	2.134205	-0.093788	-0.178493
O9	O	1.734536	-0.506004	-0.578184
O10	O	2.234536	-0.006004	-0.078184
O11	O	2.002859	-0.441465	-0.651918
O12	O	2.502859	0.058535	-0.151918
O13	O	1.808143	-0.570633	-0.309900
O14	O	2.308143	-0.070633	0.190100
O15	O	1.660893	-0.271182	-0.504509
O16	O	2.160893	0.228818	-0.004509
O17	O	2.002767	-0.570570	-0.504476
O18	O	2.502767	-0.070570	-0.004476
O19	O	1.808357	-0.271134	-0.651936
O20	O	2.308357	0.228866	-0.151936
O21	O	1.660771	-0.441576	-0.309914
O22	O	2.160771	0.058424	0.190086
O23	O	1.466262	-0.441494	-0.504472
O24	O	1.966262	0.058506	-0.004472
O25	O	1.660880	-0.570426	-0.846448
O26	O	2.160880	-0.070426	-0.346448
O27	O	1.466256	-0.570489	-0.651872
O28	O	1.966256	-0.070489	-0.151872
O29	O	1.808350	-0.441383	-0.846476
O30	O	2.308350	0.058617	-0.346476
O31	O	1.808135	-0.740882	-0.504439
O32	O	2.308135	-0.240882	-0.004439
O33	O	1.660758	-0.740820	-0.651853
O34	O	2.160758	-0.240820	-0.151853
C35	C	1.422711	-0.505990	-0.578171
C36	C	1.922711	-0.005990	-0.078171
C37	C	1.289311	-0.506010	-0.578193
C38	C	1.789311	-0.006010	-0.078193
C39	C	1.734465	-0.778972	-0.578166
C40	C	2.234465	-0.278972	-0.078166
C41	C	1.734545	-0.895749	-0.578198
C42	C	2.234545	-0.395749	-0.078198
C43	C	1.888263	-1.115183	-0.424861
C44	C	2.388263	-0.615183	0.075139
C45	C	1.965023	-1.060317	-0.348159
C46	C	2.465023	-0.560317	0.151841
C47	C	1.964961	-0.950595	-0.348136
C48	C	2.464961	-0.450595	0.151864
C49	C	1.888127	-0.895738	-0.424819
C50	C	2.388127	-0.395738	0.075181
C51	C	1.811367	-0.950604	-0.501521
C52	C	2.311367	-0.450604	-0.001521
C53	C	1.811440	-1.060328	-0.501539
C54	C	2.311440	-0.560328	-0.001539
C55	C	1.657784	-0.950615	-0.654900
C56	C	2.157784	-0.450615	-0.154900
C57	C	1.657851	-1.060337	-0.654932
C58	C	2.157851	-0.560337	-0.154932
C59	C	1.580951	-0.895757	-0.731583
C60	C	2.080951	-0.395757	-0.231583
C61	C	1.504195	-0.950623	-0.808293
C62	C	2.004195	-0.450623	-0.308293
C63	C	1.504261	-1.060352	-0.808314
C64	C	2.004261	-0.560352	-0.308314
C65	C	1.581091	-1.115203	-0.731633
C66	C	2.081091	-0.615203	-0.231633
C67	C	2.047578	-0.506019	-0.578199
C68	C	2.547578	-0.006019	-0.078199
C69	C	2.180978	-0.506026	-0.578205
C70	C	2.680978	-0.006026	-0.078205
C71	C	1.734628	-0.505888	-0.891227
C72	C	2.234628	-0.005888	-0.391227
C73	C	1.734667	-0.505838	-1.024627
C74	C	2.234667	-0.005838	-0.524627
C75	C	1.734640	-0.231971	-0.578229
C76	C	2.234640	0.268029	-0.078229
C77	C	1.734684	-0.115194	-0.578248
C78	C	2.234684	0.384806	-0.078248
C79	C	1.734513	-0.506045	-0.266360
C80	C	2.234513	-0.006045	0.233640
C81	C	1.734707	-0.505799	-0.132960
C82	C	2.234707	-0.005799	0.367040
H83	H	1.888333	-1.204524	-0.424884
H84	H	2.388333	-0.704524	0.075116
H85	H	1.580901	-0.806416	-0.731554
H86	H	2.080901	-0.306416	-0.231554
Br87	Br	1.888385	-0.746829	-0.425127
Br88	Br	2.388385	-0.246829	0.074873
H89	H	1.441755	-1.105017	-0.870776
H90	H	1.941755	-0.605017	-0.370776
H91	H	2.027577	-1.104994	-0.285723
H92	H	2.527577	-0.604994	0.214277
Br93	Br	2.069122	-0.876129	-0.244027
Br94	Br	2.569122	-0.376129	0.255973
H95	H	1.581157	-1.204544	-0.731648
H96	H	2.081157	-0.704544	-0.231648
H97	H	1.441637	-0.905951	-0.870717
H98	H	1.941637	-0.405951	-0.370717
