data_functionalizedCrystal
_audit_creation_method	'MofGen! by Chris Wilmer'
_symmetry_space_group_name_H-M	'P1'
_symmetry_Int_Tables_number	1
_symmetry_cell_setting	triclinic
loop_
_symmetry_equiv_pos_as_xyz
  x,y,z
_cell_length_a	10.908878
_cell_length_b	11.026607
_cell_length_c	9.798715
_cell_angle_alpha	89.998891
_cell_angle_beta	89.996659
_cell_angle_gamma	84.335404
loop_
_atom_site_label
_atom_site_type_symbol
_atom_site_fract_x
_atom_site_fract_y
_atom_site_fract_z
O1	O	1.662457	-0.179078	-0.113468
O2	O	1.309523	-0.088538	-0.113475
O3	O	1.456739	-0.304558	-0.113467
O4	O	1.515241	0.036942	-0.113476
O5	O	1.456725	-0.304555	0.113515
O6	O	1.309508	-0.088535	0.113507
O7	O	1.662443	-0.179075	0.113514
Zn8	Zn	1.485974	-0.133805	0.149549
Zn9	Zn	1.485992	-0.133808	-0.149510
O10	O	1.515227	0.036945	0.113506
C11	C	1.263630	-0.080075	0.000016
C12	C	1.126902	-0.054876	0.000013
C13	C	1.445939	-0.347589	0.000022
C14	C	1.413766	-0.475811	0.000017
C15	C	1.056640	-0.146821	0.000015
C16	C	0.915324	-0.120779	0.000012
C17	C	1.502601	-0.567544	0.000016
C18	C	1.469351	-0.700068	0.000011
C19	C	1.708336	-0.187538	0.000020
C20	C	1.845063	-0.212737	0.000014
C21	C	1.526026	0.079976	0.000014
C22	C	1.558199	0.208198	0.000010
N23	N	1.485970	-0.133805	0.353649
N24	N	1.486004	-0.133819	-0.353610
C25	C	1.547709	-0.224833	0.421429
C26	C	1.547728	-0.224841	0.578591
H27	H	1.101105	-0.244817	0.000011
C28	C	1.572767	-0.440012	0.377071
C29	C	1.619055	-0.330012	0.342672
H30	H	1.616813	-0.504936	0.328434
H31	H	1.582162	-0.453845	0.472342
H32	H	1.487936	-0.435860	0.353745
H33	H	1.703885	-0.334161	0.366007
H34	H	1.609671	-0.316177	0.247380
H35	H	1.433148	-0.055879	0.588111
C36	C	1.769894	-0.875564	0.000011
C37	C	1.694114	-0.765403	0.000014
H38	H	1.853799	-0.859262	0.000005
H39	H	1.753643	-0.921065	0.079159
H40	H	1.753644	-0.921065	-0.079149
H41	H	1.710358	-0.719905	0.079180
H42	H	1.710373	-0.719882	-0.079142
C43	C	1.257654	-0.616311	-0.000003
C44	C	1.333437	-0.726471	-0.000001
H45	H	1.173749	-0.632616	-0.000020
H46	H	1.273889	-0.570816	0.079150
H47	H	1.273917	-0.570803	-0.079158
H48	H	1.317181	-0.771975	0.079159
H49	H	1.317195	-0.771985	-0.079162
C50	C	0.892218	0.071595	-0.116683
C51	C	0.855315	0.011524	0.000003
H52	H	0.855163	0.153269	-0.116691
H53	H	0.979301	0.071452	-0.116668
H54	H	0.867198	0.030812	-0.195826
H55	H	0.880344	0.052302	0.079147
H56	H	0.768213	0.011675	0.000001
C57	C	1.744115	-0.336148	0.622806
C58	C	1.619087	-0.330056	0.657267
H59	H	1.788168	-0.401102	0.671386
H60	H	1.753454	-0.349947	0.527523
H61	H	1.775519	-0.261528	0.646160
H62	H	1.587680	-0.404673	0.633903
H63	H	1.609741	-0.316266	0.752570
C64	C	1.325054	-0.074785	0.514549
C65	C	1.414628	-0.028603	0.432372
H66	H	1.281016	-0.009834	0.563153
H67	H	1.269599	-0.113931	0.458813
H68	H	1.363806	-0.131896	0.577431
H69	H	1.375876	0.028503	0.369483
H70	H	1.470091	0.010563	0.488113
H71	H	1.313096	-0.495386	0.000006
H72	H	0.889522	-0.310740	0.000007
C73	C	1.103782	0.137501	0.116685
C74	C	1.066893	0.077422	0.000006
H75	H	1.066742	0.219180	0.116672
H76	H	1.078748	0.096737	0.195824
H77	H	1.190878	0.137346	0.116673
H78	H	0.979797	0.077568	0.000022
H79	H	1.091920	0.118197	-0.079154
C80	C	1.645141	-0.414961	0.000033
C81	C	1.638508	-0.541132	0.000026
H82	H	1.729047	-0.398662	0.000048
H83	H	1.605458	-0.380326	-0.079118
H84	H	1.605430	-0.380331	0.079191
H85	H	1.678211	-0.575761	-0.079137
H86	H	1.678208	-0.575782	0.079185
