data_functionalizedCrystal
_audit_creation_method	'MofGen! by Chris Wilmer'
_symmetry_space_group_name_H-M	'P1'
_symmetry_Int_Tables_number	1
_symmetry_cell_setting	triclinic
loop_
_symmetry_equiv_pos_as_xyz
  x,y,z
_cell_length_a	10.654550
_cell_length_b	9.130313
_cell_length_c	10.654550
_cell_angle_alpha	89.994910
_cell_angle_beta	84.484931
_cell_angle_gamma	90.002757
loop_
_atom_site_label
_atom_site_type_symbol
_atom_site_fract_x
_atom_site_fract_y
_atom_site_fract_z
O1	O	1.667834	-0.121690	0.176401
O2	O	1.302355	-0.121716	0.193207
O3	O	1.493498	-0.121693	0.002064
O4	O	1.476691	-0.121713	0.367543
O5	O	1.493496	0.121906	0.002055
O6	O	1.302353	0.121882	0.193197
O7	O	1.667832	0.121909	0.176391
Cu8	Cu	1.485093	0.144138	0.184793
Cu9	Cu	1.485095	-0.143946	0.184805
O10	O	1.476690	0.121886	0.367534
C11	C	1.255556	0.000080	0.191968
C12	C	1.116113	0.000070	0.188276
C13	C	1.036628	0.000068	0.300818
C14	C	0.905607	0.000093	0.297341
C15	C	0.933570	0.000117	0.068772
C16	C	1.064588	0.000101	0.072250
N17	N	1.485097	-0.346568	0.184803
C18	C	1.569895	-0.423210	0.100333
C19	C	1.569900	-0.576547	0.100327
C20	C	1.400298	-0.576587	0.269264
C21	C	1.400300	-0.423253	0.269276
C22	C	1.714631	0.000110	0.177630
C23	C	1.854074	0.000110	0.181322
C24	C	1.492263	0.000105	-0.044738
C25	C	1.488571	0.000103	-0.184181
N26	N	1.485100	0.346761	0.184785
C27	C	1.601112	0.000111	-0.263667
C28	C	1.597636	0.000092	-0.394688
C29	C	1.369066	0.000065	-0.366725
C30	C	1.372544	0.000073	-0.235706
C31	C	1.477925	0.000084	0.414336
C32	C	1.481617	0.000077	0.553779
H33	H	0.891602	0.000151	-0.025693
H34	H	1.331246	-0.360847	0.338067
H35	H	1.129309	0.000107	-0.019401
O36	O	1.652386	-0.348944	0.018237
C37	C	1.820551	-0.365096	-0.149384
C38	C	1.727216	-0.449377	-0.056454
H39	H	1.881058	-0.446259	-0.209813
H40	H	1.883735	-0.293353	-0.094514
H41	H	1.765888	-0.293263	-0.212682
H42	H	1.781777	-0.521289	0.006866
H43	H	1.664033	-0.521028	-0.111402
H44	H	1.280893	0.000062	-0.170985
H45	H	1.078574	0.000053	0.395294
H46	H	1.331256	-0.639039	0.338038
H47	H	1.695588	0.000132	-0.221720
O48	O	1.707044	-0.000091	-0.471770
C49	C	1.901312	-0.126312	-0.535783
C50	C	1.777463	-0.126267	-0.448397
H51	H	1.958268	-0.228330	-0.516935
H52	H	1.958432	-0.024424	-0.516916
H53	H	1.878873	-0.126257	-0.638268
H54	H	1.799787	-0.126373	-0.345881
H55	H	1.720378	-0.228145	-0.467373
O56	O	1.256334	-0.000213	-0.416722
C57	C	1.059887	-0.126394	-0.432840
C58	C	1.187526	-0.126282	-0.376163
H59	H	1.004208	-0.228294	-0.400050
H60	H	1.076659	-0.126488	-0.540142
H61	H	1.004262	-0.024407	-0.400217
H62	H	1.243217	-0.228251	-0.408689
H63	H	1.170665	-0.126111	-0.268868
H64	H	0.840894	0.000095	0.388984
H65	H	1.638952	-0.638944	0.031545
