data_functionalizedCrystal
_audit_creation_method	'MofGen! by Chris Wilmer'
_symmetry_space_group_name_H-M	'P1'
_symmetry_Int_Tables_number	1
_symmetry_cell_setting	triclinic
loop_
_symmetry_equiv_pos_as_xyz
  x,y,z
_cell_length_a	10.540510
_cell_length_b	9.016244
_cell_length_c	10.654550
_cell_angle_alpha	89.992277
_cell_angle_beta	84.499121
_cell_angle_gamma	90.002790
loop_
_atom_site_label
_atom_site_type_symbol
_atom_site_fract_x
_atom_site_fract_y
_atom_site_fract_z
O1	O	1.685831	-0.123349	0.176821
O2	O	1.316407	-0.123350	0.193536
O3	O	1.509613	-0.123340	0.002442
O4	O	1.492625	-0.123359	0.367916
O5	O	1.509625	0.123340	0.002421
O6	O	1.316419	0.123331	0.193516
O7	O	1.685843	0.123332	0.176801
Cu8	Cu	1.501133	0.145855	0.185157
Cu9	Cu	1.501118	-0.145874	0.185181
O10	O	1.492638	0.123322	0.367896
C11	C	1.269110	-0.000010	0.192280
C12	C	1.128162	-0.000010	0.188554
C13	C	0.910658	-0.000583	0.321307
C14	C	1.057253	-0.000019	0.325282
C15	C	1.083434	0.140857	0.118551
C16	C	0.936674	0.140966	0.115544
C17	C	0.936855	-0.139556	0.112720
C18	C	1.083194	-0.141409	0.119205
N19	N	1.501109	-0.351060	0.185188
C20	C	1.397883	-0.586097	0.287509
C21	C	1.397485	-0.414206	0.287268
C22	C	1.471370	-0.413418	0.053782
C23	C	1.470653	-0.585363	0.054353
C24	C	1.634453	-0.585579	0.213010
C25	C	1.633567	-0.413624	0.216009
C26	C	1.733140	-0.000012	0.178057
C27	C	1.874089	-0.000022	0.181783
C28	C	1.508372	-0.000001	-0.044367
C29	C	1.504640	-0.000003	-0.183811
N30	N	1.501152	0.351041	0.185139
C31	C	1.618396	-0.000003	-0.263269
C32	C	1.614882	-0.000021	-0.394290
C33	C	1.383846	-0.000033	-0.366384
C34	C	1.387361	-0.000025	-0.235365
C35	C	1.493879	-0.000021	0.414704
C36	C	1.497611	-0.000029	0.554148
H37	H	0.867137	0.099862	0.374259
H38	H	1.294721	-0.000029	-0.170667
H39	H	1.662838	-0.628975	0.306850
H40	H	1.298572	-0.373078	0.269318
H41	H	1.375230	-0.370346	0.028904
C42	C	1.339288	-0.639553	0.021498
H43	H	1.286860	-0.556482	0.007934
H44	H	1.349523	-0.698207	-0.052840
H45	H	1.300422	-0.697378	0.089152
H46	H	0.894286	-0.246326	0.155846
H47	H	1.656104	-0.372896	0.312693
H48	H	1.415318	-0.372048	0.384898
H49	H	1.714071	-0.370637	0.146411
H50	H	1.288361	-0.000048	-0.408376
H51	H	1.713892	0.000012	-0.221298
H52	H	1.086574	-0.101002	0.380046
C53	C	0.853937	-0.137043	0.393292
H54	H	0.807436	-0.194895	0.338907
H55	H	0.920823	-0.195049	0.421608
H56	H	0.798525	-0.105364	0.463765
H57	H	1.542965	-0.626943	-0.024189
H58	H	1.111788	-0.245621	0.170139
H59	H	1.085642	0.101125	0.380362
C60	C	1.738288	-0.640510	0.112203
H61	H	1.700655	-0.701772	0.053408
H62	H	1.778090	-0.557823	0.069470
H63	H	1.800162	-0.695861	0.151545
H64	H	0.896446	0.246261	0.163368
H65	H	1.707515	-0.000025	-0.458980
C66	C	0.905651	0.149629	-0.022599
H67	H	0.982715	0.153079	-0.076634
H68	H	0.857963	0.064688	-0.042095
H69	H	0.857155	0.236498	-0.034294
C70	C	1.147506	0.147959	-0.017423
H71	H	1.202240	0.064882	-0.032743
H72	H	1.083978	0.146653	-0.074914
H73	H	1.195855	0.236721	-0.028491
C74	C	1.421613	-0.641979	0.419822
H75	H	1.494705	-0.704161	0.413822
H76	H	1.435201	-0.559712	0.472594
H77	H	1.349579	-0.696570	0.454674
H78	H	1.114276	0.245685	0.167150
H79	H	1.132297	-0.149911	0.019384
C80	C	0.906973	-0.140847	-0.025953
H81	H	0.856496	-0.056814	-0.041736
H82	H	0.984342	-0.137751	-0.079524
H83	H	0.861612	-0.228765	-0.042139
H84	H	1.299537	-0.629310	0.269794
H85	H	1.544543	-0.372511	-0.024276
