data_functionalizedCrystal
_audit_creation_method	'MofGen! by Chris Wilmer'
_symmetry_space_group_name_H-M	'P1'
_symmetry_Int_Tables_number	1
_symmetry_cell_setting	triclinic
loop_
_symmetry_equiv_pos_as_xyz
  x,y,z
_cell_length_a	9.065218
_cell_length_b	15.995350
_cell_length_c	8.140239
_cell_angle_alpha	89.998714
_cell_angle_beta	89.997198
_cell_angle_gamma	84.254130
loop_
_atom_site_label
_atom_site_type_symbol
_atom_site_fract_x
_atom_site_fract_y
_atom_site_fract_z
O1	O	1.957507	0.122770	-0.136609
O2	O	2.457507	0.622770	0.363391
O3	O	1.527985	0.132840	-0.136610
O4	O	2.027985	0.632840	0.363390
O5	O	1.754487	0.006007	-0.136608
O6	O	2.254487	0.506007	0.363392
O7	O	1.731005	0.249604	-0.136611
O8	O	2.231005	0.749604	0.363389
O9	O	1.754475	0.006005	0.136619
O10	O	2.254475	0.506005	0.636619
O11	O	1.527973	0.132839	0.136617
O12	O	2.027973	0.632839	0.636617
O13	O	1.957495	0.122769	0.136619
O14	O	2.457495	0.622769	0.636619
Zn15	Zn	1.742732	0.127803	0.179998
Zn16	Zn	2.242732	0.627803	0.679998
Zn17	Zn	1.742748	0.127806	-0.179990
Zn18	Zn	2.242748	0.627806	0.320010
O19	O	1.730992	0.249602	0.136616
O20	O	2.230992	0.749602	0.636616
C21	C	1.473015	0.131872	0.000003
C22	C	1.973015	0.631872	0.500003
C23	C	1.309240	0.128978	0.000002
C24	C	1.809240	0.628978	0.500002
C25	C	1.753510	-0.025196	0.000003
C26	C	2.253510	0.474804	0.500003
C27	C	1.750600	-0.118169	-0.000007
C28	C	2.250600	0.381831	0.499993
C29	C	1.740148	-0.455995	-0.000001
C30	C	2.240148	0.044005	0.499999
C31	C	1.578837	-0.409785	-0.000615
C32	C	2.078837	0.090215	0.499385
C33	C	1.581748	-0.313072	0.000001
C34	C	2.081748	0.186928	0.500001
C35	C	1.745332	-0.288396	-0.000005
C36	C	2.245332	0.211604	0.499995
C37	C	1.824889	-0.328871	0.156019
C38	C	2.324889	0.171129	0.656019
C39	C	1.820837	-0.425537	0.156149
C40	C	2.320837	0.074463	0.656149
C41	C	1.824183	-0.425868	-0.154561
C42	C	2.324183	0.074132	0.345439
C43	C	1.824145	-0.328923	-0.156623
C44	C	2.324145	0.171077	0.343377
C45	C	1.748271	-0.193676	-0.000001
C46	C	2.248271	0.306324	0.499999
C47	C	1.737214	-0.550716	0.000006
C48	C	2.237214	-0.050716	0.500006
C49	C	2.012465	0.123737	0.000002
C50	C	2.512465	0.623737	0.500002
C51	C	2.176239	0.126631	-0.000008
C52	C	2.676239	0.626631	0.499992
C53	C	1.731969	0.280805	0.000002
C54	C	2.231969	0.780805	0.500002
C55	C	1.734880	0.373778	0.000001
C56	C	2.234880	0.873778	0.500001
N57	N	1.742731	0.127802	0.425681
N58	N	2.242731	0.627802	0.925681
N59	N	1.742760	0.127801	-0.425673
N60	N	2.242760	0.627801	0.074327
H61	H	1.519210	-0.285124	-0.111842
H62	H	2.019210	0.214876	0.388158
C63	C	1.491729	-0.435489	-0.151758
C64	C	1.991729	0.064511	0.348242
N65	N	1.426116	-0.454857	-0.265600
N66	N	1.926116	0.045143	0.234400
C67	C	1.492129	-0.436887	0.149732
C68	C	1.992129	0.063113	0.649732
N69	N	1.426831	-0.457294	0.262988
N70	N	1.926831	0.042706	0.762988
C71	C	1.742433	-0.450858	0.313707
C72	C	2.242433	0.049142	0.813707
N73	N	1.683371	-0.469925	0.432379
N74	N	2.183371	0.030075	0.932379
H75	H	1.945070	-0.313833	0.161817
H76	H	2.445070	0.186167	0.661817
H77	H	1.771448	-0.446807	-0.272818
H78	H	2.271448	0.053193	0.227182
H79	H	1.518780	-0.285686	0.112035
H80	H	2.018780	0.214314	0.612035
H81	H	1.765979	-0.302115	-0.272045
H82	H	2.265979	0.197885	0.227955
H83	H	1.943438	-0.312656	-0.166048
H84	H	2.443438	0.187344	0.333952
C85	C	1.750220	-0.291103	0.312883
C86	C	2.250220	0.208897	0.812883
N87	N	1.693968	-0.262658	0.431030
N88	N	2.193968	0.237342	0.931030
H89	H	1.939269	-0.456887	0.163224
H90	H	2.439269	0.043113	0.663224
H91	H	1.943117	-0.456727	-0.155614
H92	H	2.443117	0.043273	0.344386
