data_functionalizedCrystal
_audit_creation_method	'MofGen! by Chris Wilmer'
_symmetry_space_group_name_H-M	'P1'
_symmetry_Int_Tables_number	1
_symmetry_cell_setting	triclinic
loop_
_symmetry_equiv_pos_as_xyz
  x,y,z
_cell_length_a	10.908937
_cell_length_b	19.188924
_cell_length_c	10.065875
_cell_angle_alpha	98.757069
_cell_angle_beta	83.441416
_cell_angle_gamma	71.613960
loop_
_atom_site_label
_atom_site_type_symbol
_atom_site_fract_x
_atom_site_fract_y
_atom_site_fract_z
O1	O	1.723314	-0.120355	-0.113524
O2	O	1.349144	-0.065798	-0.113522
O3	O	1.547029	-0.195967	-0.113507
O4	O	1.525429	0.009814	-0.113539
O5	O	1.509294	-0.171063	0.113479
O6	O	1.311410	-0.040895	0.113464
O7	O	1.685580	-0.095451	0.113462
Zn8	Zn	1.492503	-0.064219	0.149502
Zn9	Zn	1.542220	-0.097030	-0.149562
O10	O	1.487695	0.034718	0.113447
C11	C	1.282407	-0.048248	-0.000028
C12	C	1.139769	-0.033064	-0.000027
C13	C	0.943655	-0.072783	-0.000045
C14	C	1.091075	-0.088475	-0.000026
C15	C	1.527463	-0.209446	-0.000012
C16	C	1.525367	-0.286711	-0.000009
C17	C	1.544958	-0.336572	-0.123739
C18	C	1.542972	-0.409169	-0.123749
C19	C	1.521420	-0.431905	-0.000022
C20	C	1.501819	-0.382031	0.123724
C21	C	1.503793	-0.309434	0.123731
N22	N	1.576134	-0.549478	0.092064
N23	N	1.574263	-0.618444	0.092049
C24	C	1.515470	-0.650634	-0.000036
N25	N	1.458638	-0.611259	-0.092126
N26	N	1.460515	-0.542288	-0.092115
C27	C	1.519277	-0.510622	-0.000016
C28	C	1.532908	-0.779214	-0.123786
C29	C	1.530913	-0.851810	-0.123791
C30	C	1.489773	-0.824672	0.123686
C31	C	1.491755	-0.752076	0.123688
C32	C	1.513329	-0.729353	-0.000052
C33	C	1.752317	-0.113002	-0.000034
C34	C	1.894956	-0.128186	-0.000044
C35	C	1.507261	0.048197	-0.000050
C36	C	1.509359	0.125460	-0.000063
N37	N	1.458582	-0.041827	0.353605
N38	N	1.576151	-0.119428	-0.353665
C39	C	1.530410	-0.089243	0.421389
C40	C	1.504313	-0.072006	0.578555
H41	H	1.158520	-0.147530	-0.000019
H42	H	1.423489	-0.018649	0.636869
F43	F	1.051625	0.044125	-0.000054
F44	F	1.635814	-0.159081	0.345167
F45	F	1.682003	-0.189082	0.570121
F46	F	0.983110	-0.205372	-0.000034
H47	H	1.475813	-0.711478	0.224443
F48	F	1.482938	-0.256364	0.255428
F49	F	1.352944	0.027911	0.429828
H50	H	1.558918	-0.449773	-0.224509
F51	F	0.855506	0.004401	-0.000078
H52	H	1.562521	-0.318076	-0.224498
F53	F	1.478874	-0.406227	0.255403
F54	F	1.551757	-0.904876	-0.255489
F55	F	1.555860	-0.755026	-0.255478
H56	H	1.472215	-0.843181	0.224427
