data_functionalizedCrystal
_audit_creation_method	'MofGen! by Chris Wilmer'
_symmetry_space_group_name_H-M	'P1'
_symmetry_Int_Tables_number	1
_symmetry_cell_setting	triclinic
loop_
_symmetry_equiv_pos_as_xyz
  x,y,z
_cell_length_a	27.731993
_cell_length_b	27.732048
_cell_length_c	26.210047
_cell_angle_alpha	90.000479
_cell_angle_beta	90.002578
_cell_angle_gamma	97.368475
loop_
_atom_site_label
_atom_site_type_symbol
_atom_site_fract_x
_atom_site_fract_y
_atom_site_fract_z
O1	O	0.640948	-0.057384	-0.042297
O2	O	0.500151	-0.066158	-0.042329
O3	O	0.574923	0.008627	-0.042302
O4	O	0.566177	-0.132169	-0.042324
O5	O	0.574908	0.008615	0.042556
O6	O	0.500137	-0.066169	0.042529
O7	O	0.640934	-0.057396	0.042561
Cu8	Cu	0.570534	-0.061784	0.050293
Cu9	Cu	0.570551	-0.061770	-0.050061
O10	O	0.566163	-0.132180	0.042534
C11	C	0.482137	-0.065983	0.000096
C12	C	0.428480	-0.065441	0.000084
C13	C	0.045328	-0.061504	-0.046147
C14	C	0.246985	-0.063571	-0.046161
O15	O	0.273065	-0.063813	-0.085501
N16	N	0.272198	-0.063836	0.000094
C17	C	0.246993	-0.063581	0.046356
O18	O	0.273066	-0.063849	0.085699
C19	C	0.045337	-0.061511	0.046370
C20	C	0.020127	-0.061251	0.000112
C21	C	0.020118	-0.061243	-0.092401
C22	C	-0.030294	-0.060729	-0.092397
C23	C	-0.055495	-0.060476	-0.046139
C24	C	-0.030285	-0.060736	0.000116
C25	C	0.020134	-0.061252	0.092631
C26	C	-0.030283	-0.060733	0.092630
C27	C	-0.055493	-0.060473	0.046372
C28	C	-0.105898	-0.059969	0.046378
N29	N	-0.131110	-0.059704	0.000123
C30	C	-0.105909	-0.059957	-0.046135
C31	C	0.352865	-0.064669	0.046346
C32	C	0.403279	-0.065188	0.046343
C33	C	0.403268	-0.065177	-0.046175
C34	C	0.352853	-0.064662	-0.046171
C35	C	0.327653	-0.064404	0.000091
C36	C	-0.211777	-0.058878	-0.046123
C37	C	-0.262194	-0.058366	-0.046115
C38	C	-0.262178	-0.058375	0.046402
C39	C	-0.211766	-0.058889	0.046394
C40	C	-0.186567	-0.059139	0.000127
O41	O	-0.132008	-0.059721	0.085698
O42	O	-0.131989	-0.059679	-0.085472
C43	C	0.095740	-0.062018	-0.046151
C44	C	0.120950	-0.062279	0.000104
C45	C	0.095749	-0.062025	0.046362
C46	C	0.171364	-0.062797	0.000101
C47	C	0.196565	-0.063051	-0.046158
C48	C	0.171353	-0.062786	-0.092413
C49	C	0.120941	-0.062272	-0.092409
C50	C	0.120961	-0.062290	0.092617
C51	C	0.171373	-0.062805	0.092609
C52	C	0.196574	-0.063058	0.046351
C53	C	0.574732	0.026628	0.000128
C54	C	0.574179	0.080282	0.000132
C55	C	0.658949	-0.057570	0.000135
C56	C	0.712605	-0.058113	0.000143
C57	C	0.566353	-0.150181	0.000103
C58	C	0.566906	-0.203836	0.000095
N59	N	0.570526	-0.061793	0.120877
C60	C	0.614884	0.419105	0.000115
C61	C	0.612833	0.620765	0.000108
O62	O	0.650055	0.652028	0.000094
N63	N	0.568497	0.639880	0.000098
C64	C	0.524670	0.608576	0.000087
O65	O	0.486912	0.629462	0.000073
C66	C	0.526721	0.406918	0.000091
C67	C	0.571061	0.387806	0.000106
C68	C	0.659220	0.399993	0.000129
C69	C	0.659732	0.349581	0.000134
C70	C	0.615909	0.318282	0.000124
C71	C	0.571573	0.337394	0.000110
C72	C	0.482895	0.375616	0.000076
C73	C	0.483412	0.325199	0.000076
C74	C	0.527751	0.306087	0.000091
C75	C	0.528262	0.255683	0.000105
N76	N	0.572598	0.236568	0.000115
C77	C	0.616422	0.267867	0.000124
C78	C	0.523596	0.714450	0.000086
C79	C	0.523083	0.764865	0.000086
C80	C	0.611246	0.777049	0.000105
C81	C	0.611759	0.726634	0.000109
C82	C	0.567932	0.695335	0.000095
C83	C	0.617494	0.161998	0.000135
C84	C	0.618003	0.111582	0.000142
C85	C	0.529839	0.099401	0.000119
C86	C	0.529331	0.149814	0.000115
C87	C	0.573162	0.181112	0.000121
O88	O	0.491060	0.224392	0.000114
O89	O	0.654174	0.246972	0.000127
C90	C	0.614372	0.469517	0.000110
C91	C	0.570036	0.488630	0.000096
C92	C	0.526213	0.457331	0.000087
C93	C	0.569523	0.539044	0.000096
C94	C	0.613346	0.570343	0.000106
C95	C	0.657683	0.551228	0.000115
C96	C	0.658195	0.500817	0.000120
C97	C	0.481876	0.476446	0.000077
C98	C	0.481368	0.526858	0.000073
C99	C	0.525191	0.558157	0.000083
N100	N	0.570564	-0.061757	-0.120645
C101	C	0.603657	-0.028663	0.473403
C102	C	0.603667	-0.028656	0.687062
O103	O	0.631818	-0.000490	0.714693
N104	N	0.570554	-0.061759	0.713771
C105	C	0.537433	-0.094864	0.687063
O106	O	0.509265	-0.123017	0.714683
C107	C	0.537421	-0.094868	0.473405
C108	C	0.570540	-0.061766	0.446698
C109	C	0.636772	0.004437	0.446696
C110	C	0.636771	0.004433	0.393285
C111	C	0.603654	-0.028671	0.366580
C112	C	0.570538	-0.061770	0.393287
C113	C	0.504298	-0.127971	0.446697
C114	C	0.504297	-0.127968	0.393280
C115	C	0.537416	-0.094866	0.366573
C116	C	0.537420	-0.094877	0.313171
N117	N	0.570533	-0.061774	0.286461
C118	C	0.603650	-0.028671	0.313166
C119	C	0.537443	-0.094861	0.799236
C120	C	0.537446	-0.094860	0.852650
C121	C	0.603680	-0.028651	0.852645
C122	C	0.603678	-0.028654	0.799230
C123	C	0.570556	-0.061757	0.772526
C124	C	0.603646	-0.028682	0.200998
C125	C	0.603643	-0.028690	0.147582
C126	C	0.537408	-0.094897	0.147591
C127	C	0.537412	-0.094891	0.201003
C128	C	0.570533	-0.061779	0.227705
O129	O	0.509281	-0.123025	0.285506
O130	O	0.631807	-0.000515	0.285536
C131	C	0.603658	-0.028659	0.526814
C132	C	0.570542	-0.061759	0.553521
C133	C	0.537425	-0.094862	0.526816
C134	C	0.570546	-0.061759	0.606935
C135	C	0.603663	-0.028655	0.633640
C136	C	0.636776	0.004448	0.606931
C137	C	0.636775	0.004444	0.553519
C138	C	0.504311	-0.127965	0.553526
C139	C	0.504316	-0.127959	0.606937
C140	C	0.537433	-0.094856	0.633642
H141	H	0.332353	-0.064458	0.084020
C142	C	0.430995	-0.065450	-0.097060
C143	C	0.471460	-0.023810	-0.109767
C144	C	0.499190	-0.024079	-0.160650
C145	C	0.486455	-0.065988	-0.198826
C146	C	0.445988	-0.107632	-0.186120
C147	C	0.418258	-0.107363	-0.135237
H148	H	0.480890	0.007217	-0.081506
H149	H	0.529147	0.006749	-0.170056
H150	H	0.506982	-0.066187	-0.236493
H151	H	0.436558	-0.138659	-0.214381
H152	H	0.388301	-0.138191	-0.125832
C153	C	-0.058022	-0.060436	-0.143281
C154	C	-0.098489	-0.102068	-0.156016
C155	C	-0.126214	-0.101772	-0.206903
C156	C	-0.113471	-0.059845	-0.245054
C157	C	-0.073002	-0.018210	-0.232320
C158	C	-0.045278	-0.018506	-0.181433
H159	H	-0.107924	-0.133108	-0.127773
H160	H	-0.156172	-0.132593	-0.216329
H161	H	-0.133994	-0.059626	-0.282724
H162	H	-0.063568	0.012830	-0.260563
H163	H	-0.015320	0.012315	-0.172007
C164	C	0.707430	0.434418	0.000143
C165	C	0.719222	0.470754	-0.043915
C166	C	0.767436	0.505175	-0.043896
C167	C	0.803859	0.503260	0.000182
C168	C	0.792068	0.466923	0.044244
C169	C	0.743854	0.432501	0.044224
H170	H	0.692259	0.472173	-0.076547
H171	H	0.776164	0.532075	-0.076514
H172	H	0.839550	0.528741	0.000196
H173	H	0.819031	0.465504	0.076875
H174	H	0.735126	0.405602	0.076842
C175	C	0.500984	-0.131306	0.230381
C176	C	0.445947	-0.130883	0.223029
C177	C	0.409514	-0.167296	0.252402
C178	C	0.428118	-0.204131	0.289128
C179	C	0.483158	-0.204555	0.296482
C180	C	0.519591	-0.168142	0.267109
H181	H	0.432172	-0.103615	0.195841
H182	H	0.368770	-0.166982	0.246958
H183	H	0.401148	-0.231086	0.310872
H184	H	0.496932	-0.231823	0.323670
H185	H	0.560335	-0.168456	0.272553
H186	H	0.510483	-0.121820	0.874391
H187	H	0.630646	-0.001700	0.777489
C188	C	0.199104	-0.063089	0.143496
C189	C	0.239567	-0.021448	0.156216
C190	C	0.267299	-0.021726	0.207100
C191	C	0.254567	-0.063645	0.245264
C192	C	0.214102	-0.105288	0.232546
C193	C	0.186371	-0.105010	0.181662
H194	H	0.248994	0.009585	0.127963
H195	H	0.297254	0.009101	0.216514
H196	H	0.275095	-0.063850	0.282931
H197	H	0.204675	-0.136322	0.260798
H198	H	0.156416	-0.135838	0.172247
H199	H	0.477343	-0.154922	0.531787
H200	H	0.494160	0.073909	0.000113
C201	C	0.325124	-0.064371	-0.097055
C202	C	0.284656	-0.106003	-0.109786
C203	C	0.256931	-0.105711	-0.160673
C204	C	0.269675	-0.063787	-0.198828
C205	C	0.310145	-0.022152	-0.186098
C206	C	0.337870	-0.022444	-0.135212
H207	H	0.275221	-0.137040	-0.081540
H208	H	0.226972	-0.136532	-0.170096
H209	H	0.249151	-0.063571	-0.236498
H210	H	0.319580	0.008885	-0.214344
H211	H	0.367829	0.008377	-0.125788
C212	C	0.467864	-0.164381	0.476067
C213	C	0.412828	-0.163949	0.468716
C214	C	0.376390	-0.200360	0.498085
C215	C	0.394989	-0.237202	0.534807
C216	C	0.450027	-0.237635	0.542160
C217	C	0.486465	-0.201224	0.512791
H218	H	0.399058	-0.136675	0.441531
H219	H	0.335647	-0.200039	0.492642
H220	H	0.368015	-0.264155	0.556548
H221	H	0.463797	-0.264908	0.569345
H222	H	0.527208	-0.201544	0.518234
H223	H	0.100419	-0.062060	-0.130077
H224	H	0.694301	0.485261	0.000132
C225	C	0.474308	0.785884	0.000076
C226	C	0.438005	0.773919	0.044130
C227	C	0.389228	0.794935	0.044117
C228	C	0.376756	0.827916	0.000049
C229	C	0.413060	0.839882	-0.044008
C230	C	0.461837	0.818866	-0.043995
H231	H	0.447237	0.749503	0.076755
H232	H	0.362353	0.786076	0.076732
H233	H	0.340649	0.843473	0.000040
H234	H	0.403828	0.864298	-0.076633
H235	H	0.488712	0.827725	-0.076610
C236	C	0.673204	0.040860	0.524146
C237	C	0.672805	0.095900	0.531494
C238	C	0.709235	0.132319	0.502125
C239	C	0.746064	0.113697	0.465406
C240	C	0.746464	0.058654	0.458056
C241	C	0.710034	0.022235	0.487426
H242	H	0.645541	0.109688	0.558677
H243	H	0.708938	0.173065	0.507566
H244	H	0.773031	0.140656	0.443665
H245	H	0.773728	0.044866	0.430873
H246	H	0.710331	-0.018511	0.481984
H247	H	0.663740	0.031396	0.468434
H248	H	0.423800	-0.065407	0.084011
C249	C	0.047832	-0.061525	-0.143291
C250	C	0.046698	-0.019463	-0.181450
C251	C	0.074407	-0.019749	-0.232345
C252	C	0.103250	-0.062097	-0.245079
C253	C	0.104385	-0.104162	-0.206919
C254	C	0.076676	-0.103876	-0.156025
H255	H	0.025346	0.011889	-0.172024
H256	H	0.073567	0.011391	-0.260593
H257	H	0.123762	-0.062308	-0.282754
H258	H	0.125737	-0.135514	-0.216345
H259	H	0.077516	-0.135016	-0.127776
H260	H	0.446789	0.391168	0.000061
H261	H	0.510470	-0.121818	0.777497
C262	C	0.673205	0.040863	0.636312
C263	C	0.654590	0.077697	0.673031
C264	C	0.691014	0.114112	0.702416
C265	C	0.746053	0.113694	0.695081
C266	C	0.764671	0.076860	0.658360
C267	C	0.728247	0.040444	0.628976
H268	H	0.613844	0.078007	0.678463
H269	H	0.677232	0.141379	0.729599
H270	H	0.773017	0.140651	0.716833
H271	H	0.805417	0.076549	0.652929
H272	H	0.742029	0.013177	0.601792
H273	H	-0.191266	-0.059083	-0.083798
C274	C	0.047851	-0.061517	0.143522
C275	C	0.035112	-0.103422	0.181700
C276	C	0.062826	-0.103678	0.232597
C277	C	0.103279	-0.062028	0.245315
C278	C	0.116021	-0.020119	0.207136
C279	C	0.088307	-0.019864	0.156239
H280	H	0.005164	-0.134257	0.172286
H281	H	0.053393	-0.134701	0.260860
H282	H	0.123794	-0.062216	0.282992
H283	H	0.145968	0.010716	0.216550
H284	H	0.097739	0.011160	0.127977
H285	H	0.493226	0.165375	0.000117
H286	H	0.647864	0.711077	0.000121
H287	H	0.510445	-0.121851	0.125840
H288	H	0.693365	0.576721	0.000125
H289	H	0.654110	0.096024	0.000155
C290	C	-0.289907	-0.058095	0.097283
C291	C	-0.288787	-0.100159	0.135444
C292	C	-0.316517	-0.099876	0.186325
C293	C	-0.345368	-0.057530	0.199046
C294	C	-0.346489	-0.015464	0.160885
C295	C	-0.318758	-0.015746	0.110003
H296	H	-0.267429	-0.131509	0.126028
H297	H	-0.315687	-0.131017	0.214575
H298	H	-0.365895	-0.057321	0.236712
H299	H	-0.367847	0.015886	0.170301
H300	H	-0.319588	0.015394	0.081754
H301	H	0.477347	-0.154919	0.628678
C302	C	0.640107	0.007766	0.882027
C303	C	0.640103	0.007763	0.940781
C304	C	0.676525	0.044181	0.970166
C305	C	0.712950	0.080600	0.940797
C306	C	0.712955	0.080604	0.882040
C307	C	0.676534	0.044187	0.852655
H308	H	0.613138	-0.019198	0.962524
H309	H	0.676521	0.044178	1.013662
H310	H	0.739912	0.107559	0.962550
H311	H	0.739921	0.107566	0.860297
H312	H	0.676537	0.044190	0.809160
C313	C	-0.058002	-0.060452	0.143521
C314	C	-0.086851	-0.018108	0.156253
C315	C	-0.114568	-0.017828	0.207143
C316	C	-0.113437	-0.059893	0.245300
C317	C	-0.084587	-0.102240	0.232568
C318	C	-0.056869	-0.102520	0.181679
H319	H	-0.087689	0.013034	0.128007
H320	H	-0.135925	0.013520	0.216568
H321	H	-0.133955	-0.059686	0.282972
H322	H	-0.083748	-0.133382	0.260815
H323	H	-0.035512	-0.133868	0.172254
H324	H	0.445259	0.542414	0.000065
H325	H	-0.282718	-0.058156	-0.083786
H326	H	0.630615	-0.001719	0.222733
H327	H	0.663738	0.031389	0.371543
H328	H	0.447722	0.299717	0.000064
C329	C	0.665708	0.196421	0.000146
C330	C	0.702132	0.194512	0.044223
C331	C	0.750345	0.228935	0.044238
C332	C	0.762135	0.265267	0.000176
C333	C	0.725710	0.267178	-0.043905
C334	C	0.677497	0.232755	-0.043920
H335	H	0.693405	0.167615	0.076844
H336	H	0.777309	0.227520	0.076870
H337	H	0.797825	0.290749	0.000187
H338	H	0.734436	0.294074	-0.076526
H339	H	0.650533	0.234170	-0.076552
C340	C	0.475382	0.680026	0.000076
C341	C	0.463607	0.643693	-0.043990
C342	C	0.415392	0.609272	-0.043997
C343	C	0.378953	0.611184	0.000062
C344	C	0.390727	0.647519	0.044132
C345	C	0.438942	0.681940	0.044138
H346	H	0.490582	0.642276	-0.076608
H347	H	0.406676	0.582375	-0.076620
H348	H	0.343262	0.585704	0.000057
H349	H	0.363752	0.648936	0.076750
H350	H	0.447657	0.708837	0.076762
H351	H	0.191880	-0.062995	-0.130078
H352	H	0.695838	0.334025	0.000144
H353	H	0.446189	0.450966	0.000068
H354	H	0.477324	-0.154924	0.371540
C355	C	0.659453	0.811484	0.000112
C356	C	0.671218	0.847823	0.044176
C357	C	0.719422	0.882259	0.044178
C358	C	0.755862	0.880357	0.000118
C359	C	0.744098	0.844017	-0.043949
C360	C	0.695894	0.809581	-0.043952
H361	H	0.644242	0.849232	0.076795
H362	H	0.728130	0.909160	0.076799
H363	H	0.791546	0.905849	0.000119
H364	H	0.771074	0.842608	-0.076568
H365	H	0.687186	0.782680	-0.076573
H366	H	0.630614	-0.001734	0.125839
H367	H	-0.191240	-0.059111	0.084061
H368	H	0.100448	-0.062081	0.130287
