data_functionalizedCrystal
_audit_creation_method	'MofGen! by Chris Wilmer'
_symmetry_space_group_name_H-M	'P1'
_symmetry_Int_Tables_number	1
_symmetry_cell_setting	triclinic
loop_
_symmetry_equiv_pos_as_xyz
  x,y,z
_cell_length_a	17.699077
_cell_length_b	23.532409
_cell_length_c	16.176319
_cell_angle_alpha	89.996251
_cell_angle_beta	89.993140
_cell_angle_gamma	83.065068
loop_
_atom_site_label
_atom_site_type_symbol
_atom_site_fract_x
_atom_site_fract_y
_atom_site_fract_z
O1	O	1.003717	0.072004	-0.068730
O2	O	1.503717	0.572004	0.431270
O3	O	0.783291	0.081377	-0.068733
O4	O	1.283291	0.581377	0.431267
O5	O	0.900150	-0.006222	-0.068733
O6	O	1.400150	0.493778	0.431267
O7	O	0.886858	0.159603	-0.068731
O8	O	1.386858	0.659603	0.431269
O9	O	0.900134	-0.006228	0.068761
O10	O	1.400134	0.493772	0.568761
O11	O	0.783275	0.081372	0.068760
O12	O	1.283275	0.581372	0.568760
O13	O	1.003701	0.071998	0.068763
O14	O	1.503701	0.571998	0.568763
Cu15	Cu	0.893486	0.076684	0.081316
Cu16	Cu	1.393486	0.576684	0.581316
Cu17	Cu	0.893505	0.076691	-0.081286
Cu18	Cu	1.393505	0.576691	0.418714
O19	O	0.886842	0.159598	0.068763
O20	O	1.386842	0.659598	0.568763
C21	C	0.755087	0.081039	0.000013
C22	C	1.255087	0.581039	0.500013
C23	C	0.671074	0.080033	0.000011
C24	C	1.171074	0.580033	0.500011
C25	C	0.899803	-0.027442	0.000012
C26	C	1.399803	0.472558	0.500012
C27	C	0.898785	-0.090662	0.000006
C28	C	1.398785	0.409338	0.500006
C29	C	0.631600	0.079556	0.074960
C30	C	1.131600	0.579556	0.574960
C31	C	0.552663	0.078602	0.074961
C32	C	1.052663	0.578602	0.574961
C33	C	0.513199	0.078129	0.000012
C34	C	1.013199	0.578129	0.500012
C35	C	0.552679	0.078604	-0.074942
C36	C	1.052679	0.578604	0.425058
C37	C	0.631616	0.079554	-0.074942
C38	C	1.131616	0.579554	0.425058
C39	C	0.234335	0.074772	-0.074944
C40	C	0.734335	0.574772	0.425056
C41	C	0.155392	0.073823	-0.074938
C42	C	0.655392	0.573823	0.425062
C43	C	0.155382	0.073819	0.074959
C44	C	0.655382	0.573819	0.574959
C45	C	0.234319	0.074769	0.074959
C46	C	0.734319	0.574769	0.574959
C47	C	0.273792	0.075242	0.000005
C48	C	0.773792	0.575242	0.500005
C49	C	0.359385	0.076275	0.000005
C50	C	0.859385	0.576275	0.500005
C51	C	0.427607	0.077099	0.000011
C52	C	0.927607	0.577099	0.500011
C53	C	0.894462	-0.363916	-0.074945
C54	C	1.394462	0.136084	0.425055
C55	C	0.895408	-0.304513	-0.074945
C56	C	1.395408	0.195487	0.425055
O57	O	0.895931	-0.273784	-0.138683
O58	O	1.395931	0.226216	0.361317
N59	N	0.895868	-0.274813	0.000003
N60	N	1.395868	0.225187	0.500003
C61	C	0.895389	-0.304519	0.074957
C62	C	1.395389	0.195481	0.574957
O63	O	0.895867	-0.273802	0.138707
O64	O	1.395867	0.226198	0.638707
C65	C	0.894449	-0.363922	0.074956
C66	C	1.394449	0.136078	0.574956
C67	C	0.893981	-0.393618	0.000003
C68	C	1.393981	0.106382	0.500003
C69	C	0.893996	-0.393613	-0.149893
C70	C	1.393996	0.106387	0.350107
C71	C	0.893049	-0.453012	-0.149892
C72	C	1.393049	0.046988	0.350108
C73	C	0.892568	-0.482714	-0.074944
C74	C	1.392568	0.017286	0.425056
C75	C	0.893034	-0.453017	0.000003
C76	C	1.393034	0.046983	0.500003
C77	C	0.893975	-0.393627	0.149909
C78	C	1.393975	0.106373	0.649909
C79	C	0.893036	-0.453034	0.149902
C80	C	1.393036	0.046966	0.649902
C81	C	0.892568	-0.482730	0.074949
C82	C	1.392568	0.017270	0.574949
C83	C	0.891606	-0.542117	0.074952
C84	C	1.391606	-0.042117	0.574952
N85	N	0.891147	-0.571818	0.000003
N86	N	1.391147	-0.071818	0.500003
C87	C	0.891628	-0.542116	-0.074945
C88	C	1.391628	-0.042116	0.425055
C89	C	0.897365	-0.179770	0.074953
C90	C	1.397365	0.320230	0.574953
C91	C	0.898300	-0.120369	0.074955
C92	C	1.398300	0.379631	0.574955
C93	C	0.898320	-0.120367	-0.074948
C94	C	1.398320	0.379633	0.425052
C95	C	0.897380	-0.179769	-0.074949
C96	C	1.397380	0.320231	0.425051
C97	C	0.896905	-0.209471	0.000004
C98	C	1.396905	0.290529	0.500004
C99	C	0.889638	-0.666857	-0.074938
C100	C	1.389638	-0.166857	0.425062
C101	C	0.888688	-0.726261	-0.074931
C102	C	1.388688	-0.226261	0.425069
C103	C	0.888671	-0.726258	0.074971
C104	C	1.388671	-0.226258	0.574971
C105	C	0.889617	-0.666859	0.074965
C106	C	1.389617	-0.166859	0.574965
C107	C	0.890103	-0.637160	0.000003
C108	C	1.390103	-0.137160	0.500003
O109	O	0.891086	-0.572884	0.138657
O110	O	1.391086	-0.072884	0.638657
O111	O	0.891159	-0.572841	-0.138684
O112	O	1.391159	-0.072841	0.361316
C113	C	1.031904	0.072336	0.000015
C114	C	1.531904	0.572336	0.500015
C115	C	1.115918	0.073342	0.000011
C116	C	1.615918	0.573342	0.500011
C117	C	0.887188	0.180817	0.000016
C118	C	1.387188	0.680817	0.500016
C119	C	0.888207	0.244037	0.000017
C120	C	1.388207	0.744037	0.500017
N121	N	0.893479	0.076679	0.195681
N122	N	1.393479	0.576679	0.695681
N123	N	0.893519	0.076691	-0.195651
N124	N	1.393519	0.576691	0.304349
C125	C	0.945239	0.037906	0.238946
C126	C	1.445239	0.537906	0.738946
C127	C	0.945243	0.037906	0.325493
C128	C	1.445243	0.537906	0.825493
C129	C	0.893489	0.076681	0.368774
C130	C	1.393489	0.576681	0.868774
C131	C	0.841723	0.115456	0.325503
C132	C	1.341723	0.615456	0.825503
C133	C	0.841716	0.115454	0.238958
C134	C	1.341716	0.615454	0.738958
C135	C	0.841749	0.115467	0.674531
C136	C	1.341749	0.615467	1.174531
C137	C	0.841761	0.115468	0.761083
C138	C	1.341761	0.615468	1.261083
C139	C	0.945276	0.037919	0.761066
C140	C	1.445276	0.537919	1.261066
C141	C	0.945269	0.037916	0.674521
C142	C	1.445269	0.537916	1.174521
C143	C	0.893501	0.076689	0.631258
C144	C	1.393501	0.576689	1.131258
C145	C	0.893496	0.076688	0.537414
C146	C	1.393496	0.576688	1.037414
C147	C	0.893497	0.076685	0.462616
C148	C	1.393497	0.576685	0.962616
H149	H	0.663725	0.079946	0.135992
H150	H	1.163725	0.579946	0.635992
H151	H	0.123234	0.073432	0.135990
H152	H	0.623234	0.573432	0.635990
H153	H	0.123263	0.073437	-0.135974
H154	H	0.623263	0.573437	0.364026
H155	H	0.799580	0.147026	0.360747
H156	H	1.299580	0.647026	0.860747
H157	H	0.987386	0.006333	0.203712
H158	H	1.487386	0.506333	0.703712
H159	H	0.799614	0.147045	0.796321
H160	H	1.299614	0.647045	1.296321
H161	H	0.663754	0.079944	-0.135973
H162	H	1.163754	0.579944	0.364027
H163	H	0.892674	-0.477186	-0.210927
H164	H	1.392674	0.022814	0.289073
H165	H	0.896998	-0.203944	-0.135983
H166	H	1.396998	0.296056	0.364017
H167	H	0.889968	-0.642676	0.135998
H168	H	1.389968	-0.142676	0.635998
H169	H	0.888305	-0.750437	-0.135970
H170	H	1.388305	-0.250437	0.364030
H171	H	0.266465	0.075154	-0.135976
H172	H	0.766465	0.575154	0.364024
H173	H	0.520528	0.078204	0.135991
H174	H	1.020528	0.578204	0.635991
H175	H	0.799567	0.147026	0.203732
H176	H	1.299567	0.647026	0.703732
H177	H	0.520542	0.078215	-0.135966
H178	H	1.020542	0.578215	0.364034
H179	H	0.987414	0.006343	0.639284
H180	H	1.487414	0.506343	1.139284
H181	H	0.890035	-0.642684	-0.135979
H182	H	1.390035	-0.142684	0.364021
H183	H	0.888277	-0.750452	0.135992
H184	H	1.388277	-0.250452	0.635992
H185	H	0.894390	-0.369436	-0.210928
H186	H	1.394390	0.130564	0.289072
H187	H	0.987390	0.006333	0.360718
H188	H	1.487390	0.506333	0.860718
H189	H	0.987426	0.006346	0.796300
H190	H	1.487426	0.506346	1.296300
H191	H	0.898709	-0.096173	-0.135975
H192	H	1.398709	0.403827	0.364025
H193	H	0.266445	0.075158	0.135990
H194	H	0.766445	0.575158	0.635990
H195	H	0.799599	0.147038	0.639313
H196	H	1.299599	0.647038	1.139313
H197	H	0.898666	-0.096193	0.135989
H198	H	1.398666	0.403807	0.635989
H199	H	0.894364	-0.369459	0.210945
H200	H	1.394364	0.130541	0.710945
H201	H	0.896972	-0.203949	0.135993
H202	H	1.396972	0.296051	0.635993
H203	H	0.892650	-0.477214	0.210940
H204	H	1.392650	0.022786	0.710940
