data_functionalizedCrystal
_audit_creation_method	'MofGen! by Chris Wilmer'
_symmetry_space_group_name_H-M	'P1'
_symmetry_Int_Tables_number	1
_symmetry_cell_setting	triclinic
loop_
_symmetry_equiv_pos_as_xyz
  x,y,z
_cell_length_a	12.837943
_cell_length_b	12.837942
_cell_length_c	11.892095
_cell_angle_alpha	85.697431
_cell_angle_beta	85.689438
_cell_angle_gamma	85.171060
loop_
_atom_site_label
_atom_site_type_symbol
_atom_site_fract_x
_atom_site_fract_y
_atom_site_fract_z
O1	O	1.408367	-0.266110	-0.093982
O2	O	1.105234	-0.252667	-0.093989
O3	O	1.250078	-0.107822	-0.093979
O4	O	1.263522	-0.410955	-0.093992
O5	O	1.237999	-0.119879	0.094028
O6	O	1.093155	-0.264723	0.094018
O7	O	1.396288	-0.278167	0.094025
Zn8	Zn	1.242803	-0.273359	0.123871
Zn9	Zn	1.258718	-0.257474	-0.123836
O10	O	1.251443	-0.423011	0.094014
C11	C	1.060125	-0.254153	0.000014
C12	C	0.943710	-0.240609	0.000011
C13	C	0.718835	-0.403439	0.000020
C14	C	0.609453	-0.390717	0.000019
C15	C	0.615561	-0.202446	0.000015
C16	C	0.724943	-0.215167	0.000017
C17	C	0.776577	-0.315667	0.000017
C18	C	0.885961	-0.328387	0.000011
C19	C	0.892066	-0.140117	0.000015
C20	C	0.782684	-0.127395	0.000014
C21	C	1.239497	-0.074781	0.000024
C22	C	1.225953	0.041634	0.000022
C23	C	1.441397	-0.276680	0.000020
C24	C	1.557812	-0.290224	0.000015
C25	C	1.262024	-0.456052	0.000009
C26	C	1.275569	-0.572467	0.000004
N27	N	1.231950	-0.284200	0.292925
C28	C	1.388784	0.266509	0.000002
C29	C	1.376062	0.375892	-0.000000
C30	C	1.187791	0.369784	0.000007
C31	C	1.200512	0.260402	0.000009
C32	C	1.301011	0.208768	0.000008
C33	C	1.313731	0.099383	0.000019
C34	C	1.125461	0.093278	0.000018
C35	C	1.112740	0.202660	0.000016
N36	N	1.269579	-0.246626	-0.292889
C37	C	1.345098	-0.171130	0.529580
C38	C	1.337519	-0.178716	0.647922
C39	C	1.209210	-0.306952	0.647951
C40	C	1.216788	-0.299366	0.529610
C41	C	1.284736	-0.231454	0.470428
C42	C	1.292319	-0.223874	0.352085
C43	C	1.164005	-0.352104	0.352116
C44	C	1.156426	-0.359690	0.470458
H45	H	0.573495	-0.120630	0.000108
N46	N	1.497171	0.210810	0.000020
H47	H	1.540597	0.235639	-0.069670
H48	H	1.491815	0.132769	0.000068
H49	H	1.153882	-0.362237	0.696151
H50	H	1.447536	0.422901	-0.000009
N51	N	1.030789	0.030993	0.000022
H52	H	0.991894	0.053157	-0.069670
H53	H	0.983026	0.044254	0.069765
N54	N	1.083139	-0.432929	0.534291
H55	H	1.087494	-0.428581	0.618236
H56	H	1.103895	-0.507068	0.513604
N57	N	1.402634	-0.113664	0.711724
H58	H	1.384566	-0.036847	0.691135
H59	H	1.479417	-0.131873	0.691079
H60	H	1.105969	0.411844	-0.000004
H61	H	0.740628	-0.045572	0.000026
N62	N	0.954335	-0.045434	0.000010
H63	H	1.004327	-0.042049	-0.069687
H64	H	0.995315	-0.051030	0.069748
H65	H	1.400430	-0.115841	0.481394
N66	N	0.941657	-0.436776	0.000002
H67	H	0.888476	-0.490448	0.000006
H68	H	0.982433	-0.450622	0.069697
N69	N	0.774536	-0.511825	0.000003
H70	H	0.721359	-0.565500	-0.000002
H71	H	0.815311	-0.525677	0.069698
N72	N	0.547170	-0.485387	0.000066
H73	H	0.596481	-0.550980	0.000080
H74	H	0.506114	-0.479770	-0.069618
N75	N	1.422122	0.043691	0.000025
H76	H	1.465537	0.068524	-0.069673
H77	H	1.416773	-0.034352	0.000075
H78	H	1.030916	0.244716	0.000012
H79	H	1.114857	-0.401227	0.303941
H80	H	1.347647	-0.168579	0.303901
