data_functionalizedCrystal
_audit_creation_method	'MofGen! by Chris Wilmer'
_symmetry_space_group_name_H-M	'P1'
_symmetry_Int_Tables_number	1
_symmetry_cell_setting	triclinic
loop_
_symmetry_equiv_pos_as_xyz
  x,y,z
_cell_length_a	17.637015
_cell_length_b	17.639874
_cell_length_c	11.169409
_cell_angle_alpha	101.172648
_cell_angle_beta	101.253383
_cell_angle_gamma	65.665973
loop_
_atom_site_label
_atom_site_type_symbol
_atom_site_fract_x
_atom_site_fract_y
_atom_site_fract_z
Zn1	Zn	-0.073172	-1.193555	0.290384
Zn2	Zn	0.426828	-0.693555	0.790384
Zn3	Zn	-0.211087	-1.165577	0.055877
Zn4	Zn	0.288913	-0.665577	0.555877
Zn5	Zn	-0.101112	-1.055727	0.123355
Zn6	Zn	0.398888	-0.555727	0.623355
Zn7	Zn	-0.238894	-1.027854	0.290168
Zn8	Zn	0.261106	-0.527854	0.790168
O9	O	-0.156066	-1.110678	0.189946
O10	O	0.343934	-0.610678	0.689946
O11	O	-0.068136	-1.305162	0.231127
O12	O	0.431864	-0.805162	0.731127
O13	O	-0.196555	-1.150961	-0.103125
O14	O	0.303445	-0.650961	0.396875
O15	O	0.017975	-1.097384	0.173842
O16	O	0.517975	-0.597384	0.673842
O17	O	-0.169462	-1.284607	0.058836
O18	O	0.330538	-0.784607	0.558836
O19	O	0.038503	-1.198645	0.296557
O20	O	0.538503	-0.698645	0.796557
O21	O	-0.115756	-1.070255	-0.053549
O22	O	0.384244	-0.570255	0.446451
O23	O	-0.142719	-0.936711	0.173633
O24	O	0.357281	-0.436711	0.673633
O25	O	-0.216855	-1.049878	0.458150
O26	O	0.283145	-0.549878	0.958150
O27	O	-0.243947	-0.916233	0.296190
O28	O	0.256053	-0.416233	0.796190
O29	O	-0.095099	-1.171618	0.458309
O30	O	0.404901	-0.671618	0.958309
O31	O	-0.330157	-1.123934	0.058626
O32	O	0.169843	-0.623934	0.558626
O33	O	-0.350586	-1.022750	0.230759
O34	O	0.149414	-0.522750	0.730759
C35	C	-0.199383	-0.896571	0.242211
C36	C	0.300617	-0.396571	0.742211
C37	C	-0.217934	-0.804971	0.264593
C38	C	0.282066	-0.304971	0.764593
C39	C	-0.015070	-0.556981	0.019873
C40	C	0.484930	-0.056981	0.519873
C41	C	-0.032518	-0.470906	0.040917
C42	C	0.467482	0.029094	0.540917
C43	C	-0.138072	-0.449607	0.168235
C44	C	0.361928	0.050393	0.668235
C45	C	-0.120630	-0.535683	0.147206
C46	C	0.379370	-0.035683	0.647206
C47	C	-0.059129	-0.589364	0.073023
C48	C	0.440871	-0.089364	0.573023
C49	C	-0.164688	-0.568065	0.200357
C50	C	0.335312	-0.068065	0.700357
C51	C	-0.147250	-0.654133	0.179324
C52	C	0.352750	-0.154133	0.679324
C53	C	-0.085754	-0.707819	0.105142
C54	C	0.414246	-0.207819	0.605142
C55	C	-0.041691	-0.675432	0.051991
C56	C	0.458309	-0.175432	0.551991
C57	C	-0.226193	-0.514382	0.274532
C58	C	0.273807	-0.014382	0.774532
C59	C	-0.270252	-0.546765	0.327683
C60	C	0.229748	-0.046765	0.827683
C61	C	-0.252810	-0.632835	0.306658
C62	C	0.247190	-0.132835	0.806658
C63	C	-0.191314	-0.686520	0.232475
C64	C	0.308686	-0.186520	0.732475
C65	C	-0.296873	-0.665222	0.359809
C66	C	0.203127	-0.165222	0.859809
C67	C	-0.279435	-0.751290	0.338776
C68	C	0.220565	-0.251290	0.838776
C69	C	-0.173876	-0.772588	0.211443
C70	C	0.326124	-0.272588	0.711443
C71	C	-0.370284	-1.067304	0.137368
C72	C	0.129716	-0.567304	0.637368
C73	C	-0.461911	-1.048823	0.114896
C74	C	0.038089	-0.548823	0.614896
C75	C	-0.601805	-0.970089	0.019247
C76	C	-0.101805	-0.470089	0.519247
C77	C	-0.515705	-0.987460	0.040370
C78	C	-0.015705	-0.487460	0.540370
C79	C	-0.494202	-1.092843	0.168323
C80	C	0.005798	-0.592843	0.668323
C81	C	-0.580300	-1.075483	0.147206
C82	C	-0.080300	-0.575483	0.647206
C83	C	-0.634096	-1.014105	0.072668
C84	C	-0.134096	-0.514105	0.572668
C85	C	-0.612591	-1.119499	0.200627
C86	C	-0.112591	-0.619499	0.700627
C87	C	-0.698683	-1.102138	0.179516
C88	C	-0.198683	-0.602138	0.679516
C89	C	-0.752484	-1.040761	0.104984
C90	C	-0.252484	-0.540761	0.604984
C91	C	-0.720188	-0.996744	0.051557
C92	C	-0.220188	-0.496744	0.551557
C93	C	-0.558795	-1.180873	0.275172
C94	C	-0.058795	-0.680873	0.775172
C95	C	-0.591086	-1.224889	0.328592
C96	C	-0.091086	-0.724889	0.828592
C97	C	-0.677179	-1.207532	0.307475
C98	C	-0.177179	-0.707532	0.807475
C99	C	-0.730980	-1.146155	0.232943
C100	C	-0.230980	-0.646155	0.732943
C101	C	-0.709475	-1.251550	0.360902
C102	C	-0.209475	-0.751550	0.860902
C103	C	-0.795567	-1.234188	0.339791
C104	C	-0.295567	-0.734188	0.839791
C105	C	-0.817072	-1.128794	0.211832
C106	C	-0.317072	-0.628794	0.711832
C107	C	0.058992	-1.154244	0.242751
C108	C	0.558992	-0.654244	0.742751
C109	C	0.150637	-1.172810	0.265253
C110	C	0.650637	-0.672810	0.765253
C111	C	-0.155962	-1.110760	0.502996
C112	C	0.344038	-0.610760	1.002996
C113	C	-0.155917	-1.110795	0.636399
C114	C	0.344083	-0.610795	1.136399
C115	C	-0.112570	-0.325623	0.137468
C116	C	0.387430	0.174377	0.637468
C117	C	-0.094008	-0.417226	0.115080
C118	C	0.405992	0.082774	0.615080
C119	C	-0.156101	-1.110656	-0.121882
C120	C	0.343899	-0.610656	0.378118
C121	C	-0.155881	-1.110828	-0.255267
C122	C	0.344119	-0.610828	0.244733
H123	H	-0.320329	-0.503046	0.388079
H124	H	0.179671	-0.003046	0.888079
Cl125	Cl	-0.860692	-1.019053	0.078240
Cl126	Cl	-0.360692	-0.519053	0.578240
H127	H	-0.346953	-0.621502	0.420198
H128	H	0.153047	-0.121502	0.920198
H129	H	-0.188149	-0.405888	0.228631
H130	H	0.311851	0.094112	0.728631
H131	H	-0.315311	-0.777656	0.382058
H132	H	0.184689	-0.277656	0.882058
H133	H	-0.860875	-1.078818	0.151128
H134	H	-0.360875	-0.578818	0.651128
Cl135	Cl	-0.787821	-0.919591	-0.042167
Cl136	Cl	-0.287821	-0.419591	0.457833
H137	H	-0.665666	-1.301518	0.421601
H138	H	-0.165666	-0.801518	0.921601
Cl139	Cl	-0.836165	-1.289526	0.406945
Cl140	Cl	-0.336165	-0.789526	0.906945
Cl141	Cl	-0.248126	-0.406179	0.300955
Cl142	Cl	0.251874	0.093821	0.800955
Cl143	Cl	-0.096553	-0.840081	0.118192
Cl144	Cl	0.403447	-0.340081	0.618192
Cl145	Cl	-0.669438	-0.892936	-0.074477
Cl146	Cl	-0.169438	-0.392936	0.425523
H147	H	-0.489420	-0.951611	-0.003136
H148	H	0.010580	-0.451611	0.496864
H149	H	-0.450392	-1.142815	0.229016
H150	H	0.049608	-0.642815	0.729016
H151	H	0.035023	-0.600695	-0.040514
H152	H	0.535023	-0.100695	0.459486
Cl153	Cl	-0.450624	-1.202409	0.302203
Cl154	Cl	0.049376	-0.702409	0.802203
Cl155	Cl	-0.523452	-1.302042	0.422304
Cl156	Cl	-0.023452	-0.802042	0.922304
H157	H	-0.071559	-0.777900	0.088016
H158	H	0.428441	-0.277900	0.588016
Cl159	Cl	0.035632	-0.742924	-0.041260
Cl160	Cl	0.535632	-0.242924	0.458740
H161	H	0.003370	-0.444546	-0.002360
H162	H	0.503370	0.055454	0.497640
