data_functionalizedCrystal
_audit_creation_method	'MofGen! by Chris Wilmer'
_symmetry_space_group_name_H-M	'P1'
_symmetry_Int_Tables_number	1
_symmetry_cell_setting	triclinic
loop_
_symmetry_equiv_pos_as_xyz
  x,y,z
_cell_length_a	19.805407
_cell_length_b	19.805406
_cell_length_c	19.805399
_cell_angle_alpha	89.984242
_cell_angle_beta	90.016510
_cell_angle_gamma	90.003883
loop_
_atom_site_label
_atom_site_type_symbol
_atom_site_fract_x
_atom_site_fract_y
_atom_site_fract_z
Zn1	Zn	-1.034842	-0.269539	-0.382775
Zn2	Zn	-0.534842	0.230461	0.117225
Zn3	Zn	-1.034815	-0.382730	-0.269613
Zn4	Zn	-0.534815	0.117270	0.230387
Zn5	Zn	-0.921662	-0.269553	-0.269600
Zn6	Zn	-0.421662	0.230447	0.230400
Zn7	Zn	-0.921673	-0.382684	-0.382760
Zn8	Zn	-0.421673	0.117316	0.117240
O9	O	-0.978248	-0.326126	-0.326187
O10	O	-0.478248	0.173874	0.173813
O11	O	-1.129555	-0.284568	-0.367775
O12	O	-0.629555	0.215432	0.132225
O13	O	-1.019789	-0.367742	-0.174895
O14	O	-0.519789	0.132258	0.325105
O15	O	-0.936683	-0.174834	-0.284614
O16	O	-0.436683	0.325166	0.215386
O17	O	-1.129535	-0.367729	-0.284636
O18	O	-0.629535	0.132271	0.215364
O19	O	-1.019836	-0.174824	-0.367763
O20	O	-0.519836	0.325176	0.132237
O21	O	-0.936656	-0.284591	-0.174885
O22	O	-0.436656	0.215409	0.325115
O23	O	-0.826947	-0.284546	-0.284600
O24	O	-0.326947	0.215454	0.215400
O25	O	-0.936701	-0.367650	-0.477479
O26	O	-0.436701	0.132350	0.022521
O27	O	-0.826955	-0.367663	-0.367738
O28	O	-0.326955	0.132337	0.132262
O29	O	-1.019846	-0.284523	-0.477490
O30	O	-0.519846	0.215477	0.022510
O31	O	-1.019799	-0.477440	-0.284621
O32	O	-0.519799	0.022560	0.215379
O33	O	-0.936674	-0.477406	-0.367750
O34	O	-0.436674	0.022594	0.132250
C35	C	-0.802392	-0.326102	-0.326167
C36	C	-0.302392	0.173898	0.173833
C37	C	-0.727160	-0.326107	-0.326174
C38	C	-0.227160	0.173893	0.173826
C39	C	-0.691827	-0.282881	-0.369530
C40	C	-0.191827	0.217119	0.130470
C41	C	-0.621138	-0.282883	-0.369530
C42	C	-0.121138	0.217117	0.130470
C43	C	-0.585784	-0.326115	-0.326178
C44	C	-0.085784	0.173885	0.173822
C45	C	-0.621122	-0.369343	-0.282818
C46	C	-0.121122	0.130657	0.217182
C47	C	-0.691809	-0.369337	-0.282814
C48	C	-0.191809	0.130663	0.217186
C49	C	-0.336049	-0.369368	-0.282832
C50	C	0.163951	0.130632	0.217168
C51	C	-0.265357	-0.369372	-0.282840
C52	C	0.234643	0.130628	0.217160
C53	C	-0.265378	-0.282914	-0.369548
C54	C	0.234622	0.217086	0.130452
C55	C	-0.336065	-0.282908	-0.369544
C56	C	0.163935	0.217092	0.130456
C57	C	-0.371397	-0.326133	-0.326181
C58	C	0.128603	0.173867	0.173819
C59	C	-0.448045	-0.326129	-0.326180
C60	C	0.051955	0.173871	0.173820
C61	C	-0.509137	-0.326123	-0.326183
C62	C	-0.009137	0.173877	0.173817
C63	C	-0.978253	-0.501982	-0.326200
C64	C	-0.478253	-0.001982	0.173800
C65	C	-0.978317	-0.577214	-0.326229
C66	C	-0.478317	-0.077214	0.173771
C67	C	-0.978277	-0.326079	-0.502730
C68	C	-0.478277	0.173921	-0.002730
C69	C	-0.978290	-0.326059	-0.577962
C70	C	-0.478290	0.173941	-0.077962
C71	C	-0.154791	-0.326147	-0.326202
C72	C	0.345209	0.173853	0.173798
C73	C	-0.230022	-0.326142	-0.326193
C74	C	0.269978	0.173858	0.173807
C75	C	-0.978261	-0.149584	-0.326189
C76	C	-0.478261	0.350416	0.173811
C77	C	-0.978267	-0.074352	-0.326190
C78	C	-0.478267	0.425648	0.173810
C79	C	-0.934979	-0.039012	-0.282900
C80	C	-0.434979	0.460988	0.217100
C81	C	-0.934983	0.031677	-0.282908
C82	C	-0.434983	0.531677	0.217092
C83	C	-0.978279	0.067024	-0.326201
C84	C	-0.478279	0.567024	0.173799
C85	C	-1.021569	0.031679	-0.369496
C86	C	-0.521569	0.531679	0.130504
C87	C	-1.021561	-0.039008	-0.369491
C88	C	-0.521561	0.460992	0.130509
C89	C	-1.021602	0.316752	-0.369515
C90	C	-0.521602	0.816752	0.130485
C91	C	-1.021609	0.387444	-0.369515
C92	C	-0.521609	0.887444	0.130485
C93	C	-0.935025	0.387437	-0.282932
C94	C	-0.435025	0.887437	0.217068
C95	C	-0.935017	0.316750	-0.282927
C96	C	-0.435017	0.816750	0.217073
C97	C	-0.978304	0.281411	-0.326224
C98	C	-0.478304	0.781411	0.173776
C99	C	-0.978297	0.204763	-0.326216
C100	C	-0.478297	0.704763	0.173784
C101	C	-0.978289	0.143671	-0.326206
C102	C	-0.478289	0.643671	0.173794
C103	C	-0.935015	-0.282759	-0.613301
C104	C	-0.435015	0.217241	-0.113301
C105	C	-0.935025	-0.282745	-0.683989
C106	C	-0.435025	0.217255	-0.183989
C107	C	-0.978313	-0.326030	-0.719338
C108	C	-0.478313	0.173970	-0.219338
C109	C	-1.021589	-0.369336	-0.683994
C110	C	-0.521589	0.130664	-0.183994
C111	C	-1.021576	-0.369352	-0.613307
C112	C	-0.521576	0.130648	-0.113307
C113	C	-1.021643	-0.369272	-0.969067
C114	C	-0.521643	0.130728	-0.469067
C115	C	-1.021654	-0.369251	-1.039759
C116	C	-0.521654	0.130749	-0.539759
C117	C	-0.935091	-0.282666	-1.039750
C118	C	-0.435091	0.217334	-0.539750
C119	C	-0.935078	-0.282682	-0.969063
C120	C	-0.435078	0.217318	-0.469063
C121	C	-0.978352	-0.325990	-0.933725
C122	C	-0.478352	0.174010	-0.433725
C123	C	-0.978341	-0.326005	-0.857077
C124	C	-0.478341	0.173995	-0.357077
C125	C	-0.978328	-0.326013	-0.795985
C126	C	-0.478328	0.173987	-0.295985
C127	C	-0.978257	-0.326124	-0.150331
C128	C	-0.478257	0.173876	0.349669
C129	C	-0.978376	-0.325954	-0.075100
C130	C	-0.478376	0.174046	0.424900
H131	H	-0.899725	-0.067786	-0.247643
H132	H	-0.399725	0.432214	0.252357
H133	H	-0.899735	0.060450	-0.247659
H134	H	-0.399735	0.560450	0.252341
H135	H	-1.056819	0.060463	-0.404750
H136	H	-0.556819	0.560463	0.095250
O137	O	-0.370303	-0.240848	-0.411678
O138	O	0.129697	0.259152	0.088322
C139	C	-0.323958	-0.202706	-0.449957
C140	C	0.176042	0.297294	0.050043
H141	H	-0.273559	-0.200331	-0.422242
H142	H	0.226441	0.299669	0.077758
H143	H	-0.344377	-0.149385	-0.457257
H144	H	0.155623	0.350615	0.042743
H145	H	-0.316463	-0.227557	-0.501326
H146	H	0.183537	0.272443	-0.001326
O147	O	-0.230981	-0.241013	-0.411700
O148	O	0.269019	0.258987	0.088300
C149	C	-0.190125	-0.279609	-0.455368
C150	C	0.309875	0.220391	0.044632
H151	H	-0.179531	-0.330871	-0.431414
H152	H	0.320469	0.169129	0.068586
H153	H	-0.140418	-0.252053	-0.464487
H154	H	0.359582	0.247947	0.035513
H155	H	-0.217385	-0.287112	-0.505514
H156	H	0.282615	0.212888	-0.005514
H157	H	-0.236573	-0.404579	-0.247535
H158	H	0.263427	0.095421	0.252465
O159	O	-0.892895	0.282519	-0.240850
O160	O	-0.392895	0.782519	0.259150
C161	C	-0.854698	0.328870	-0.202631
C162	C	-0.354698	0.828870	0.297369
H163	H	-0.852366	0.379266	-0.230356
H164	H	-0.352366	0.879266	0.269644
H165	H	-0.801366	0.308454	-0.195406
H166	H	-0.301366	0.808454	0.304594
H167	H	-0.879475	0.336371	-0.151228
H168	H	-0.379475	0.836371	0.348772
H169	H	-1.056872	-0.404544	-0.940304
H170	H	-0.556872	0.095456	-0.440304
O171	O	-1.063579	-0.411508	-0.579049
O172	O	-0.563579	0.088492	-0.079049
C173	C	-1.048770	-0.478961	-0.596307
C174	C	-0.548770	0.021039	-0.096307
H175	H	-1.022763	-0.480346	-0.647629
H176	H	-0.522763	0.019654	-0.147629
H177	H	-1.097614	-0.509321	-0.598726
H178	H	-0.597614	-0.009321	-0.098726
H179	H	-1.013957	-0.501760	-0.556521
H180	H	-0.513957	-0.001760	-0.056521
O181	O	-1.063687	0.282350	-0.411469
O182	O	-0.563687	0.782350	0.088531
C183	C	-1.107399	0.241459	-0.372929
C184	C	-0.607399	0.741459	0.127071
H185	H	-1.083512	0.230867	-0.321633
H186	H	-0.583512	0.730867	0.178367
H187	H	-1.116469	0.191754	-0.400493
H188	H	-0.616469	0.691754	0.099507
H189	H	-1.157560	0.268689	-0.365497
H190	H	-0.657560	0.768689	0.134503
H191	H	-0.720607	-0.247678	-0.404834
H192	H	-0.220607	0.252322	0.095166
O193	O	-0.370259	-0.411421	-0.240691
O194	O	0.129741	0.088579	0.259309
C195	C	-0.323894	-0.449567	-0.202420
C196	C	0.176106	0.050433	0.297580
H197	H	-0.273519	-0.451951	-0.230147
H198	H	0.226481	0.048049	0.269853
H199	H	-0.344322	-0.502884	-0.195111
H200	H	0.155678	-0.002884	0.304889
H201	H	-0.316350	-0.424713	-0.151055
H202	H	0.183650	0.075287	0.348945
H203	H	-0.899776	0.416217	-0.247680
H204	H	-0.399776	0.916217	0.252320
H205	H	-0.592331	-0.404540	-0.247517
H206	H	-0.092331	0.095460	0.252483
H207	H	-1.056867	0.416223	-0.404773
H208	H	-0.556867	0.916223	0.095227
O209	O	-1.063670	-0.073235	-0.411569
O210	O	-0.563670	0.426765	0.088431
C211	C	-1.101872	-0.026881	-0.449798
C212	C	-0.601872	0.473119	0.050202
H213	H	-1.104227	0.023499	-0.422074
H214	H	-0.604227	0.523499	0.077926
H215	H	-1.155196	-0.047317	-0.457036
H216	H	-0.655196	0.452683	0.042964
H217	H	-1.077085	-0.019341	-0.501195
H218	H	-0.577085	0.480659	-0.001195
H219	H	-0.899854	-0.247405	-1.068530
H220	H	-0.399854	0.252595	-0.568530
O221	O	-1.063725	-0.411368	-1.073993
O222	O	-0.563725	0.088632	-0.573993
C223	C	-1.101928	-0.449586	-1.027647
C224	C	-0.601928	0.050414	-0.527647
H225	H	-1.074197	-0.451939	-0.977255
H226	H	-0.574197	0.048061	-0.477255
H227	H	-1.109142	-0.502910	-1.048074
H228	H	-0.609142	-0.002910	-0.548074
H229	H	-1.153337	-0.424815	-1.020135
H230	H	-0.653337	0.075185	-0.520135
H231	H	-0.899783	-0.247488	-0.712759
H232	H	-0.399783	0.252512	-0.212759
H233	H	-0.720576	-0.404536	-0.247509
H234	H	-0.220576	0.095464	0.252491
H235	H	-0.899831	-0.247433	-0.940286
H236	H	-0.399831	0.252567	-0.440286
H237	H	-0.899769	-0.247507	-0.584525
H238	H	-0.399769	0.252493	-0.084525
O239	O	-1.063711	-0.411287	-0.718360
O240	O	-0.563711	0.088713	-0.218360
C241	C	-1.107427	-0.372749	-0.759267
C242	C	-0.607427	0.127251	-0.259267
H243	H	-1.111610	-0.319447	-0.737966
H244	H	-0.611610	0.180553	-0.237966
H245	H	-1.159514	-0.397239	-0.760073
H246	H	-0.659514	0.102761	-0.260073
H247	H	-1.086510	-0.370401	-0.812837
H248	H	-0.586510	0.129599	-0.312837
O249	O	-0.586921	-0.240872	-0.411711
O250	O	-0.086921	0.259128	0.088289
C251	C	-0.633283	-0.202704	-0.449964
C252	C	-0.133283	0.297296	0.050036
H253	H	-0.683675	-0.230430	-0.452262
H254	H	-0.183675	0.269570	0.047738
H255	H	-0.612876	-0.195554	-0.503304
H256	H	-0.112876	0.304446	-0.003304
H257	H	-0.640789	-0.151266	-0.425259
H258	H	-0.140789	0.348734	0.074741
