data_functionalizedCrystal
_audit_creation_method	'MofGen! by Chris Wilmer'
_symmetry_space_group_name_H-M	'P1'
_symmetry_Int_Tables_number	1
_symmetry_cell_setting	triclinic
loop_
_symmetry_equiv_pos_as_xyz
  x,y,z
_cell_length_a	12.827893
_cell_length_b	21.295417
_cell_length_c	12.827885
_cell_angle_alpha	89.961900
_cell_angle_beta	89.980538
_cell_angle_gamma	90.030477
loop_
_atom_site_label
_atom_site_type_symbol
_atom_site_fract_x
_atom_site_fract_y
_atom_site_fract_z
Zn1	Zn	1.597562	-0.250579	-0.590788
Zn2	Zn	2.097562	0.249421	-0.090788
Zn3	Zn	1.597409	-0.355861	-0.416023
Zn4	Zn	2.097409	0.144139	0.083977
Zn5	Zn	1.422803	-0.250610	-0.416062
Zn6	Zn	1.922803	0.249390	0.083938
Zn7	Zn	1.422742	-0.355814	-0.590723
Zn8	Zn	1.922742	0.144186	-0.090723
O9	O	1.510129	-0.303216	-0.503399
O10	O	2.010129	0.196784	-0.003399
O11	O	1.743778	-0.264552	-0.567616
O12	O	2.243778	0.235448	-0.067616
O13	O	1.574209	-0.341932	-0.269792
O14	O	2.074209	0.158068	0.230208
O15	O	1.446074	-0.162516	-0.439283
O16	O	1.946074	0.337484	0.060717
O17	O	1.743665	-0.341902	-0.439217
O18	O	2.243665	0.158098	0.060783
O19	O	1.574469	-0.162494	-0.567654
O20	O	2.074469	0.337506	-0.067654
O21	O	1.445926	-0.264604	-0.269821
O22	O	1.945926	0.235396	0.230179
O23	O	1.276559	-0.264559	-0.439220
O24	O	1.776559	0.235441	0.060780
O25	O	1.445971	-0.341822	-0.736968
O26	O	1.945971	0.158178	-0.236968
O27	O	1.276514	-0.341852	-0.567543
O28	O	1.776514	0.158148	-0.067543
O29	O	1.574410	-0.264506	-0.737016
O30	O	2.074410	0.235494	-0.237016
O31	O	1.574150	-0.443944	-0.439154
O32	O	2.074150	0.056056	0.060846
O33	O	1.445823	-0.443910	-0.567505
O34	O	1.945823	0.056090	-0.067505
C35	C	1.238619	-0.303204	-0.503379
C36	C	1.738619	0.196796	-0.003379
C37	C	1.122466	-0.303214	-0.503396
C38	C	1.622466	0.196786	-0.003396
C39	C	1.070687	-0.341521	-0.566796
C40	C	1.570687	0.158479	-0.066796
C41	C	0.950637	-0.341532	-0.566814
C42	C	1.450637	0.158468	-0.066814
C43	C	1.509992	-0.466768	-0.503341
C44	C	2.009992	0.033232	-0.003341
C45	C	1.510029	-0.536736	-0.503351
C46	C	2.010029	-0.036736	-0.003351
C47	C	1.576908	-0.569600	-0.436587
C48	C	2.076908	-0.069600	0.063413
C49	C	1.576957	-0.635342	-0.436611
C50	C	2.076957	-0.135342	0.063389
C51	C	1.510108	-0.668218	-0.503387
C52	C	2.010108	-0.168218	-0.003387
C53	C	1.443224	-0.635347	-0.570165
C54	C	1.943224	-0.135347	-0.070165
C55	C	1.443185	-0.569606	-0.570147
C56	C	1.943185	-0.069606	-0.070147
N57	N	1.418692	-0.771484	-0.511347
N58	N	1.918692	-0.271484	-0.011347
N59	N	1.418732	-0.833935	-0.511358
N60	N	1.918732	-0.333935	-0.011358
C61	C	1.510225	-0.866293	-0.503447
C62	C	2.010225	-0.366293	-0.003447
N63	N	1.601678	-0.833840	-0.495504
N64	N	2.101678	-0.333840	0.004496
N65	N	1.601636	-0.771383	-0.495488
N66	N	2.101636	-0.271383	0.004512
C67	C	1.510144	-0.739504	-0.503415
C68	C	2.010144	-0.239504	-0.003415
C69	C	1.577163	-0.970442	-0.436705
C70	C	2.077163	-0.470442	0.063295
C71	C	1.577214	-1.036186	-0.436736
C72	C	2.077214	-0.536186	0.063264
C73	C	1.443472	-1.036189	-0.570284
C74	C	1.943472	-0.536189	-0.070284
C75	C	1.443431	-0.970447	-0.570259
C76	C	1.943431	-0.470447	-0.070259
C77	C	1.510275	-0.937577	-0.503464
C78	C	2.010275	-0.437577	-0.003464
C79	C	1.782699	-0.303229	-0.503420
C80	C	2.282699	0.196771	-0.003420
C81	C	1.898852	-0.303234	-0.503428
C82	C	2.398852	0.196766	-0.003428
C83	C	1.510201	-0.303156	-0.775969
C84	C	2.010201	0.196844	-0.275969
C85	C	1.510232	-0.303130	-0.892123
C86	C	2.010232	0.196870	-0.392123
C87	C	1.510295	-0.139026	-0.503480
C88	C	2.010295	0.360974	-0.003480
C89	C	1.510366	-0.069058	-0.503515
C90	C	2.010366	0.430942	-0.003515
C91	C	1.446774	-0.264858	-0.943921
C92	C	1.946774	0.235142	-0.443921
C93	C	1.446804	-0.264831	-1.063972
C94	C	1.946804	0.235169	-0.563972
C95	C	1.510117	-0.303231	-0.231889
C96	C	2.010117	0.196769	0.268111
C97	C	1.510289	-0.303079	-0.115737
C98	C	2.010289	0.196921	0.384263
H99	H	1.077919	-0.270424	-0.449134
H100	H	1.577919	0.229576	0.050866
H101	H	1.564582	-0.335876	-0.936653
H102	H	2.064582	0.164124	-0.436653
H103	H	1.392480	-0.232062	-1.108518
H104	H	1.892480	0.267938	-0.608518
N105	N	0.891659	-0.384980	-0.638710
N106	N	1.391659	0.115020	-0.138710
H107	H	0.846411	-0.359414	-0.687182
H108	H	1.346411	0.140586	-0.187182
H109	H	0.942782	-0.410528	-0.680936
H110	H	1.442782	0.089472	-0.180936
N111	N	1.129680	-0.384956	-0.638681
N112	N	1.629680	0.115044	-0.138681
H113	H	1.207078	-0.378792	-0.628477
H114	H	1.707078	0.121208	-0.128477
H115	H	1.110618	-0.429913	-0.622291
H116	H	1.610618	0.070087	-0.122291
H117	H	1.564625	-0.335845	-1.071198
H118	H	2.064625	0.164155	-0.571198
N119	N	1.649016	-0.534147	-0.364563
N120	N	2.149016	-0.034147	0.135437
H121	H	1.691397	-0.564946	-0.322276
H122	H	2.191397	-0.064946	0.177724
H123	H	1.697335	-0.506829	-0.407148
H124	H	2.197335	-0.006829	0.092852
N125	N	1.371368	-1.071634	-0.642316
N126	N	1.871368	-0.571634	-0.142316
H127	H	1.413825	-1.098862	-0.690790
H128	H	1.913825	-0.598862	-0.190790
H129	H	1.322991	-1.098922	-0.599742
H130	H	1.822991	-0.598922	-0.099742
N131	N	0.957808	-0.259785	-0.431518
N132	N	1.457808	0.240215	0.068482
H133	H	1.003054	-0.285352	-0.383043
H134	H	1.503054	0.214648	0.116957
H135	H	1.003073	-0.230672	-0.474181
H136	H	1.503073	0.269328	0.025819
N137	N	1.371118	-0.670798	-0.642190
N138	N	1.871118	-0.170798	-0.142190
H139	H	1.413574	-0.698030	-0.690660
H140	H	1.913574	-0.198030	-0.190660
H141	H	1.322740	-0.698083	-0.599612
H142	H	1.822740	-0.198083	-0.099612
N143	N	1.649095	-0.670799	-0.364600
N144	N	2.149095	-0.170799	0.135400
H145	H	1.691435	-0.640000	-0.322285
H146	H	2.191435	-0.140000	0.177715
H147	H	1.606591	-0.698121	-0.316215
H148	H	2.106591	-0.198121	0.183785
H149	H	1.388723	-0.542847	-0.624515
H150	H	1.888723	-0.042847	-0.124515
N151	N	1.649257	-0.934984	-0.364669
N152	N	2.149257	-0.434984	0.135331
H153	H	1.691639	-0.965782	-0.322382
H154	H	2.191639	-0.465782	0.177618
H155	H	1.697575	-0.907657	-0.407240
H156	H	2.197575	-0.407657	0.092760
N157	N	1.649357	-1.071635	-0.364728
N158	N	2.149357	-0.571635	0.135272
H159	H	1.691692	-1.040834	-0.322413
H160	H	2.191692	-0.540834	0.177587
H161	H	1.606859	-1.098961	-0.316344
H162	H	2.106859	-0.598961	0.183656
N163	N	1.371288	-0.934996	-0.642262
N164	N	1.871288	-0.434996	-0.142262
H165	H	1.328944	-0.965797	-0.684568
H166	H	1.828944	-0.465797	-0.184568
H167	H	1.322936	-0.907768	-0.599669
H168	H	1.822936	-0.407768	-0.099669
H169	H	1.392418	-0.232115	-0.899392
H170	H	1.892418	0.267885	-0.399392
