data_functionalizedCrystal
_audit_creation_method	'MofGen! by Chris Wilmer'
_symmetry_space_group_name_H-M	'P1'
_symmetry_Int_Tables_number	1
_symmetry_cell_setting	triclinic
loop_
_symmetry_equiv_pos_as_xyz
  x,y,z
_cell_length_a	27.732048
_cell_length_b	27.732046
_cell_length_c	9.730217
_cell_angle_alpha	89.990481
_cell_angle_beta	89.995902
_cell_angle_gamma	97.357683
loop_
_atom_site_label
_atom_site_type_symbol
_atom_site_fract_x
_atom_site_fract_y
_atom_site_fract_z
O1	O	0.640925	-0.057516	0.114131
O2	O	0.500131	-0.066262	0.114176
O3	O	0.574901	0.008508	0.114121
O4	O	0.566155	-0.132286	0.114186
O5	O	0.574899	0.008508	-0.114459
O6	O	0.500129	-0.066261	-0.114404
O7	O	0.640922	-0.057516	-0.114449
Zn8	Zn	0.570525	-0.061888	-0.150719
Zn9	Zn	0.570528	-0.061889	0.150445
O10	O	0.566153	-0.132285	-0.114394
C11	C	0.482123	-0.066078	-0.000109
C12	C	0.428468	-0.065525	-0.000094
C13	C	0.089653	-0.106229	-0.000135
C14	C	-0.112007	-0.104178	-0.000148
O15	O	-0.143262	-0.141399	-0.000190
N16	N	-0.131130	-0.059843	-0.000166
C17	C	-0.099835	-0.016017	-0.000189
O18	O	-0.120728	0.021740	-0.000219
C19	C	0.101823	-0.018068	-0.000186
C20	C	0.120944	-0.062407	-0.000154
C21	C	0.108774	-0.150563	-0.000104
C22	C	0.159186	-0.151076	-0.000094
C23	C	0.190477	-0.107253	-0.000113
C24	C	0.171356	-0.062919	-0.000143
C25	C	0.133117	0.025757	-0.000219
C26	C	0.183535	0.025240	-0.000222
C27	C	0.202655	-0.019098	-0.000190
C28	C	0.253059	-0.019609	-0.000152
N29	N	0.272182	-0.063944	-0.000134
C30	C	0.240891	-0.107766	-0.000115
C31	C	-0.205709	-0.014943	-0.000188
C32	C	-0.256124	-0.014430	-0.000187
C33	C	-0.268292	-0.102591	-0.000148
C34	C	-0.217876	-0.103104	-0.000140
C35	C	-0.186586	-0.059278	-0.000171
C36	C	0.346760	-0.108839	-0.000091
C37	C	0.397177	-0.109347	-0.000074
C38	C	0.409341	-0.021186	-0.000120
C39	C	0.358928	-0.020678	-0.000130
C40	C	0.327639	-0.064508	-0.000120
O41	O	0.284343	0.017592	-0.000125
O42	O	0.261794	-0.145518	-0.000115
C43	C	0.039241	-0.105717	-0.000145
C44	C	0.020120	-0.061382	-0.000176
C45	C	0.051411	-0.017560	-0.000195
C46	C	-0.030294	-0.060869	-0.000174
C47	C	-0.061585	-0.104691	-0.000155
C48	C	-0.042462	-0.149027	-0.000137
C49	C	0.007950	-0.149539	-0.000126
C50	C	0.032287	0.026775	-0.000213
C51	C	-0.018125	0.027284	-0.000222
C52	C	-0.049416	-0.016538	-0.000203
C53	C	0.574717	0.026515	-0.000174
C54	C	0.574164	0.080170	-0.000188
C55	C	0.614870	0.418985	-0.000153
C56	C	0.612820	0.620645	-0.000147
O57	O	0.650041	0.651901	-0.000101
N58	N	0.568485	0.639769	-0.000136
C59	C	0.524659	0.608474	-0.000117
O60	O	0.486902	0.629367	-0.000093
C61	C	0.526710	0.406815	-0.000114
C62	C	0.571047	0.387695	-0.000139
C63	C	0.659204	0.399864	-0.000177
C64	C	0.659716	0.349452	-0.000186
C65	C	0.615894	0.318161	-0.000171
C66	C	0.571559	0.337283	-0.000148
C67	C	0.482884	0.375522	-0.000085
C68	C	0.483401	0.325104	-0.000081
C69	C	0.527739	0.305984	-0.000106
C70	C	0.528249	0.255580	-0.000142
N71	N	0.572584	0.236456	-0.000154
C72	C	0.616407	0.267747	-0.000168
C73	C	0.523586	0.714348	-0.000122
C74	C	0.523073	0.764763	-0.000125
C75	C	0.611234	0.776930	-0.000152
C76	C	0.611746	0.726515	-0.000159
C77	C	0.567921	0.695225	-0.000133
C78	C	0.617478	0.161878	-0.000188
C79	C	0.617986	0.111461	-0.000203
C80	C	0.529826	0.099298	-0.000169
C81	C	0.529317	0.149710	-0.000161
C82	C	0.573148	0.180999	-0.000166
O83	O	0.491048	0.224296	-0.000173
O84	O	0.654158	0.246844	-0.000161
C85	C	0.614358	0.469397	-0.000144
C86	C	0.570024	0.488519	-0.000121
C87	C	0.526201	0.457228	-0.000106
C88	C	0.569511	0.538933	-0.000124
C89	C	0.613333	0.570224	-0.000139
C90	C	0.657668	0.551100	-0.000150
C91	C	0.658180	0.500688	-0.000159
C92	C	0.481866	0.476352	-0.000095
C93	C	0.481358	0.526764	-0.000088
C94	C	0.525180	0.558055	-0.000102
C95	C	0.658931	-0.057699	-0.000161
C96	C	0.712585	-0.058252	-0.000167
C97	C	0.566339	0.849708	-0.000113
C98	C	0.566896	0.796054	-0.000140
N99	N	0.570527	-0.061887	-0.356255
C100	C	0.636762	0.004302	-0.356294
C101	C	0.669883	0.037396	-0.428253
C102	C	0.669888	0.037396	-0.572133
C103	C	0.636767	0.004300	-0.644057
C104	C	0.603647	-0.028793	-0.572097
C105	C	0.603646	-0.028791	-0.428214
C106	C	0.537410	-0.094980	-0.572059
C107	C	0.537406	-0.094983	-0.428179
C108	C	0.504289	-0.128075	-0.643983
C109	C	0.471170	-0.161172	-0.572023
C110	C	0.471167	-0.161171	-0.428135
C111	C	0.504286	-0.128077	-0.356220
N112	N	0.570531	-0.061886	0.355982
H113	H	-0.271687	0.021674	-0.000191
Cl114	Cl	0.504292	-0.128074	-0.824861
Cl115	Cl	0.715458	0.325423	-0.000178
Cl116	Cl	0.711517	0.079002	-0.337833
H117	H	-0.293778	-0.138273	-0.000132
H118	H	0.444204	-0.188114	-0.630592
H119	H	0.494147	0.073812	-0.000162
Cl120	Cl	-0.193845	-0.158845	-0.000105
Cl121	Cl	0.636766	0.004299	-0.175415
Cl122	Cl	0.307433	-0.163940	-0.000076
H123	H	0.057760	0.062462	-0.000232
Cl124	Cl	0.183215	-0.206818	-0.000063
Cl125	Cl	0.711524	0.079002	-0.662598
Cl126	Cl	0.667487	0.702483	-0.000189
Cl127	Cl	0.636768	0.004307	-0.824935
Cl128	Cl	0.673730	0.087427	-0.000232
Cl129	Cl	0.425613	0.550795	-0.000063
Cl130	Cl	0.429524	-0.202775	-0.337685
H131	H	0.504288	-0.128075	-0.239065
Cl132	Cl	0.222869	0.080338	-0.000263
H133	H	0.694892	0.425337	-0.000184
Cl134	Cl	0.473578	0.173748	-0.000155
Cl135	Cl	-0.166379	0.040158	-0.000223
H136	H	0.412742	-0.145454	-0.000048
H137	H	0.694285	0.485125	-0.000179
Cl138	Cl	0.672580	0.201205	-0.000197
H139	H	0.446180	0.450879	-0.000080
Cl140	Cl	0.109093	0.081500	-0.000236
Cl141	Cl	0.069445	-0.205662	-0.000076
Cl142	Cl	0.448687	0.033901	-0.000151
Cl143	Cl	0.334890	0.035062	-0.000176
H144	H	0.023513	-0.185643	-0.000102
H145	H	0.486969	0.780326	-0.000129
Cl146	Cl	-0.081809	-0.204117	-0.000107
Cl147	Cl	-0.042155	0.083029	-0.000245
H148	H	0.646916	0.802416	-0.000165
H149	H	0.487896	0.688875	-0.000101
H150	H	0.446780	0.391081	-0.000056
H151	H	0.447712	0.299630	-0.000058
H152	H	0.693350	0.576586	-0.000168
