data_functionalizedCrystal
_audit_creation_method	'MofGen! by Chris Wilmer'
_symmetry_space_group_name_H-M	'P1'
_symmetry_Int_Tables_number	1
_symmetry_cell_setting	triclinic
loop_
_symmetry_equiv_pos_as_xyz
  x,y,z
_cell_length_a	11.026607
_cell_length_b	15.995292
_cell_length_c	10.065918
_cell_angle_alpha	99.815100
_cell_angle_beta	97.708363
_cell_angle_gamma	96.027316
loop_
_atom_site_label
_atom_site_type_symbol
_atom_site_fract_x
_atom_site_fract_y
_atom_site_fract_z
O1	O	1.625974	0.363938	0.113471
O2	O	1.959307	0.697271	0.446804
O3	O	2.292641	1.030604	0.780137
O4	O	1.272681	0.324014	0.113475
O5	O	1.606014	0.657347	0.446808
O6	O	1.939347	0.990680	0.780142
O7	O	1.459022	0.223546	0.113475
O8	O	1.792355	0.556880	0.446808
O9	O	2.125689	0.890213	0.780142
O10	O	1.439633	0.464405	0.113471
O11	O	1.772966	0.797739	0.446804
O12	O	2.106299	1.131072	0.780138
O13	O	1.427166	0.196888	-0.113513
O14	O	1.760499	0.530222	0.219821
O15	O	2.093833	0.863555	0.553154
O16	O	1.240825	0.297356	-0.113512
O17	O	1.574158	0.630689	0.219821
O18	O	1.907491	0.964023	0.553154
O19	O	1.594118	0.337280	-0.113517
O20	O	1.927452	0.670613	0.219817
O21	O	2.260785	1.003946	0.553150
Zn22	Zn	1.412414	0.313085	-0.149554
Zn23	Zn	1.745747	0.646419	0.183780
Zn24	Zn	2.079080	0.979752	0.517113
Zn25	Zn	1.454385	0.348208	0.149512
Zn26	Zn	1.787718	0.681542	0.482845
Zn27	Zn	2.121052	1.014875	0.816179
O28	O	1.407777	0.437747	-0.113517
O29	O	1.741110	0.771081	0.219817
O30	O	2.074444	1.104414	0.553150
C31	C	1.211544	0.303320	-0.000018
C32	C	1.544877	0.636653	0.333315
C33	C	1.878211	0.969986	0.666649
C34	C	1.076837	0.281363	-0.000016
C35	C	1.410170	0.614697	0.333318
C36	C	1.743504	0.948030	0.666651
C37	C	1.442305	0.178903	-0.000015
C38	C	1.775639	0.512237	0.333318
C39	C	2.108972	0.845570	0.666651
C40	C	1.439941	0.085595	-0.000005
C41	C	1.773274	0.418928	0.333328
C42	C	2.106608	0.752262	0.666662
C43	C	1.003013	0.341989	-0.000016
C44	C	1.336346	0.675322	0.333317
C45	C	1.669680	1.008655	0.666651
C46	C	0.863786	0.319297	-0.000014
C47	C	1.197119	0.652631	0.333320
C48	C	1.530453	0.985964	0.666653
C49	C	1.431242	-0.253456	-0.000018
C50	C	1.764575	0.079877	0.333316
C51	C	2.097909	0.413211	0.666649
C52	C	1.565667	-0.209931	-0.000526
C53	C	1.899000	0.123403	0.332807
C54	C	2.232334	0.456736	0.666140
C55	C	1.568296	-0.112809	-0.000010
C56	C	1.901629	0.220524	0.333323
C57	C	2.234962	0.553858	0.666657
C58	C	1.435558	-0.085249	-0.000012
C59	C	1.768892	0.248084	0.333321
C60	C	2.102225	0.581418	0.666655
C61	C	1.386507	-0.109263	0.129605
C62	C	1.719841	0.224071	0.462939
C63	C	2.053174	0.557404	0.796272
C64	C	1.384903	-0.206285	0.129709
C65	C	1.718236	0.127048	0.463042
C66	C	2.051570	0.460381	0.796376
C67	C	1.345930	-0.236871	-0.128418
C68	C	1.679264	0.096462	0.204915
C69	C	2.012597	0.429795	0.538248
C70	C	1.350675	-0.139828	-0.130126
C71	C	1.684008	0.193505	0.203207
C72	C	2.017341	0.526839	0.536540
C73	C	1.437991	0.009815	-0.000005
C74	C	1.771325	0.343148	0.333329
C75	C	2.104658	0.676481	0.666662
C76	C	1.428806	-0.348519	-0.000016
C77	C	1.762140	-0.015185	0.333317
C78	C	2.095473	0.318148	0.666651
C79	C	1.655255	0.357974	-0.000021
C80	C	1.988588	0.691308	0.333313
C81	C	2.321922	1.024641	0.666646
C82	C	1.789963	0.379932	-0.000014
C83	C	2.123297	0.713265	0.333319
C84	C	2.456630	1.046598	0.666653
C85	C	1.424494	0.482391	-0.000023
C86	C	1.757827	0.815724	0.333310
C87	C	2.091161	1.149057	0.666643
C88	C	1.426859	0.575700	-0.000025
C89	C	1.760193	0.909034	0.333309
C90	C	2.093526	1.242367	0.666642
N91	N	1.383778	0.289116	-0.353658
N92	N	1.717112	0.622449	-0.020325
N93	N	2.050445	0.955782	0.313008
C94	C	1.444414	0.339868	-0.421439
C95	C	1.777747	0.673201	-0.088106
C96	C	2.111081	1.006534	0.245227
C97	C	1.422386	0.321413	-0.578606
C98	C	1.755719	0.654747	-0.245272
C99	C	2.089052	0.988080	0.088061
N100	N	1.483030	0.372173	0.353617
N101	N	1.816364	0.705506	0.686950
N102	N	2.149697	1.038839	1.020283
H103	H	1.042883	0.410690	-0.000025
H104	H	1.376216	0.744023	0.333308
H105	H	1.709549	1.077357	0.666642
H106	H	1.252691	-0.122382	-0.137956
H107	H	1.586025	0.210952	0.195377
H108	H	1.919358	0.544285	0.528711
F109	F	0.811684	0.229491	-0.000021
F110	F	1.145017	0.562824	0.333312
F111	F	1.478350	0.896157	0.666645
F112	F	1.294614	0.214460	-0.429886
F113	F	1.627947	0.547793	-0.096553
F114	F	1.961280	0.881127	0.236781
H115	H	1.551258	0.429288	-0.588065
H116	H	1.884592	0.762621	-0.254732
H117	H	2.217925	1.095955	0.078601
F118	F	0.842059	0.469736	-0.000032
F119	F	1.175393	0.803069	0.333301
F120	F	1.508726	1.136402	0.666635
H121	H	1.630192	-0.220322	0.091905
H122	H	1.963525	0.113011	0.425239
H123	H	2.296859	0.446344	0.758572
H124	H	1.607918	-0.096758	-0.092923
H125	H	1.941251	0.236575	0.240411
H126	H	2.274585	0.569908	0.573744
F127	F	1.024729	0.191561	-0.000023
F128	F	1.358062	0.524895	0.333310
F129	F	1.691396	0.858228	0.666643
H130	H	1.374498	-0.270114	-0.226668
H131	H	1.707831	0.063219	0.106665
H132	H	2.041164	0.396552	0.439999
H133	H	1.604463	-0.241031	-0.093481
H134	H	1.937796	0.092303	0.239853
H135	H	2.271129	0.425636	0.573186
H136	H	1.354164	0.264295	-0.636926
H137	H	1.687497	0.597629	-0.303592
H138	H	2.020831	0.930962	0.029741
F139	F	1.654605	-0.064025	0.121650
F140	F	1.987938	0.269308	0.454984
F141	F	2.321272	0.602642	0.788317
H142	H	1.386180	-0.125144	-0.226016
H143	H	1.719513	0.208189	0.107317
H144	H	2.052846	0.541523	0.440650
H145	H	1.445070	-0.214703	0.226602
H146	H	1.778403	0.118631	0.559936
H147	H	2.111736	0.451964	0.893269
H148	H	1.289507	-0.091552	0.134423
H149	H	1.622840	0.241781	0.467756
H150	H	1.956173	0.575114	0.801089
F151	F	1.257091	-0.243831	0.137403
F152	F	1.590424	0.089503	0.470737
F153	F	1.923758	0.422836	0.804070
F154	F	1.465236	-0.059039	0.255691
F155	F	1.798569	0.274294	0.589025
F156	F	2.131902	0.607627	0.922358
H157	H	1.512639	0.396977	-0.363114
H158	H	1.845973	0.730311	-0.029781
H159	H	2.179306	1.063644	0.303552
F160	F	1.216371	-0.274798	-0.129565
F161	F	1.549705	0.058536	0.203768
F162	F	1.883038	0.391869	0.537102
