data_functionalizedCrystal
_audit_creation_method	'MofGen! by Chris Wilmer'
_symmetry_space_group_name_H-M	'P1'
_symmetry_Int_Tables_number	1
_symmetry_cell_setting	triclinic
loop_
_symmetry_equiv_pos_as_xyz
  x,y,z
_cell_length_a	17.038272
_cell_length_b	15.944551
_cell_length_c	15.021413
_cell_angle_alpha	90.002826
_cell_angle_beta	90.004029
_cell_angle_gamma	92.694853
loop_
_atom_site_label
_atom_site_type_symbol
_atom_site_fract_x
_atom_site_fract_y
_atom_site_fract_z
O1	O	0.100827	-1.121728	-0.073940
O2	O	0.113259	-0.878066	-0.073962
O3	O	-0.006773	-0.998449	-0.073944
O4	O	0.220859	-1.001345	-0.073958
O5	O	-0.006755	-0.998429	0.074120
O6	O	0.113277	-0.878046	0.074102
O7	O	0.100844	-1.121708	0.074125
Zn8	Zn	0.107063	-0.999874	0.097622
Zn9	Zn	0.107041	-0.999900	-0.097459
O10	O	0.220876	-1.001326	0.074107
C11	C	-0.035893	-0.995805	0.000088
C12	C	-0.122688	-0.987945	0.000087
C13	C	0.112752	-0.846725	0.000067
C14	C	0.111205	-0.753369	0.000059
C15	C	0.101352	-1.153049	0.000093
C16	C	0.102899	-1.246405	0.000096
C17	C	-0.172781	-1.060103	0.000094
C18	C	-0.254334	-1.052713	0.000085
C19	C	-0.285792	-0.973165	0.000075
C20	C	-0.235693	-0.901002	0.000065
C21	C	-0.154142	-0.908393	0.000068
C22	C	-0.531558	-0.947056	0.000061
C23	C	-0.613115	-0.939671	0.000060
C24	C	-0.631751	-1.091383	0.000079
C25	C	-0.550197	-1.098766	0.000087
C26	C	-0.500105	-1.026603	0.000072
C27	C	-0.369152	-0.965610	0.000069
C28	C	-0.416747	-1.034159	0.000073
C29	C	0.249997	-1.003969	0.000073
C30	C	0.336792	-1.011829	0.000068
N31	N	0.107078	-0.999863	0.230759
C32	C	0.033105	-0.532936	0.000081
C33	C	0.069363	-0.474515	-0.072924
C34	C	0.108405	-0.582443	0.000070
C35	C	0.069398	-0.474519	0.073055
C36	C	0.105696	-0.417337	0.000084
C37	C	0.144684	-0.525252	-0.072996
C38	C	0.144709	-0.525262	0.073049
C39	C	0.181022	-0.466862	0.000026
C40	C	0.109964	-0.677557	0.000061
C41	C	0.104143	-0.322225	0.000087
N42	N	0.107019	-0.999917	-0.230597
C43	C	0.162555	-0.944187	0.470434
C44	C	0.177734	-1.021171	0.529775
C45	C	0.107059	-0.999883	0.412366
C46	C	0.091897	-0.922921	0.529768
C47	C	0.107041	-0.999896	0.587790
C48	C	0.122273	-1.076908	0.470400
C49	C	0.036405	-0.978606	0.470388
C50	C	0.051554	-1.055643	0.529702
C51	C	0.107070	-0.999875	0.311309
C52	C	0.107029	-0.999913	0.688846
H53	H	-0.147175	-1.124879	0.000108
C54	C	0.139691	-1.164864	0.435327
H55	H	0.139620	-1.164315	0.372085
H56	H	0.100499	-1.204469	0.456092
H57	H	0.189717	-1.180063	0.456156
H58	H	0.004613	-1.102803	0.555561
H59	H	0.037542	-0.452150	0.134774
H60	H	-0.672544	-1.150134	0.000090
H61	H	0.209524	-0.897140	0.444412
C62	C	0.187710	-0.555525	0.156422
H63	H	0.232215	-0.585235	0.138886
H64	H	0.153145	-0.591541	0.190202
H65	H	0.204310	-0.508461	0.191612
H66	H	0.237476	-1.039179	0.555860
H67	H	-0.023318	-0.960575	0.444282
C68	C	0.074573	-0.834990	0.564987
H69	H	0.114057	-0.795485	0.544681
H70	H	0.074212	-0.835737	0.628219
H71	H	0.024766	-0.819493	0.543767
H72	H	-0.295117	-1.111472	0.000093
C73	C	-0.515598	-1.186269	0.000087
H74	H	-0.557113	-1.228187	0.000081
H75	H	-0.484168	-1.192302	0.051719
H76	H	-0.484178	-1.192306	-0.051554
C77	C	-0.647718	-0.852165	0.000034
H78	H	-0.606206	-0.810245	0.000014
H79	H	-0.679142	-0.846113	0.051664
H80	H	-0.679146	-0.846150	-0.051609
H81	H	-0.490782	-0.888296	0.000049
H82	H	0.037507	-0.452139	-0.134642
C83	C	-0.051318	-0.571932	-0.000024
H84	H	-0.077951	-0.554619	-0.051963
H85	H	-0.078346	-0.553841	0.051308
H86	H	-0.049734	-0.631408	0.000494
H87	H	-0.261313	-0.836233	0.000051
H88	H	0.176503	-0.547520	-0.134784
C89	C	0.265527	-0.428093	-0.000033
H90	H	0.292140	-0.445510	-0.051940
H91	H	0.292479	-0.446236	0.051332
H92	H	0.264091	-0.368604	0.000453
H93	H	-0.391130	-1.098927	0.000061
C94	C	-0.099040	-0.829020	0.000062
H95	H	-0.129454	-0.780585	0.000063
H96	H	-0.066842	-0.828757	-0.051571
H97	H	-0.066837	-0.828742	0.051702
H98	H	-0.394774	-0.900842	0.000062
