data_functionalizedCrystal
_audit_creation_method	'MofGen! by Chris Wilmer'
_symmetry_space_group_name_H-M	'P1'
_symmetry_Int_Tables_number	1
_symmetry_cell_setting	triclinic
loop_
_symmetry_equiv_pos_as_xyz
  x,y,z
_cell_length_a	16.625547
_cell_length_b	21.295417
_cell_length_c	16.625539
_cell_angle_alpha	90.032326
_cell_angle_beta	90.024822
_cell_angle_gamma	90.029639
loop_
_atom_site_label
_atom_site_type_symbol
_atom_site_fract_x
_atom_site_fract_y
_atom_site_fract_z
Zn1	Zn	1.232640	-0.250609	0.455978
Zn2	Zn	1.565973	0.082724	0.789312
Zn3	Zn	1.899307	0.416058	1.122645
Zn4	Zn	1.232526	-0.355882	0.321136
Zn5	Zn	1.565859	-0.022549	0.654469
Zn6	Zn	1.899193	0.310784	0.987803
Zn7	Zn	1.097802	-0.250631	0.321149
Zn8	Zn	1.431135	0.082702	0.654482
Zn9	Zn	1.764468	0.416036	0.987815
Zn10	Zn	1.097755	-0.355844	0.455916
Zn11	Zn	1.431089	-0.022511	0.789249
Zn12	Zn	1.764422	0.310822	1.122583
O13	O	1.165181	-0.303242	0.388545
O14	O	1.498514	0.030092	0.721878
O15	O	1.831847	0.363425	1.055211
O16	O	1.345457	-0.264581	0.438112
O17	O	1.678791	0.068753	0.771445
O18	O	2.012124	0.402086	1.104779
O19	O	1.214627	-0.341946	0.208305
O20	O	1.547960	-0.008612	0.541639
O21	O	1.881293	0.324721	0.874972
O22	O	1.115755	-0.162539	0.339066
O23	O	1.449089	0.170795	0.672399
O24	O	1.782422	0.504128	1.005732
O25	O	1.345374	-0.341925	0.339044
O26	O	1.678707	-0.008591	0.672377
O27	O	2.012040	0.324742	1.005711
O28	O	1.214821	-0.162523	0.438124
O29	O	1.548154	0.170811	0.771458
O30	O	1.881487	0.504144	1.104791
O31	O	1.115645	-0.264618	0.208315
O32	O	1.448978	0.068715	0.541648
O33	O	1.782312	0.402049	0.874981
O34	O	0.984963	-0.264581	0.339005
O35	O	1.318297	0.068752	0.672339
O36	O	1.651630	0.402086	1.005672
O37	O	1.115676	-0.341859	0.568757
O38	O	1.449009	-0.008526	0.902090
O39	O	1.782343	0.324807	1.235423
O40	O	0.984929	-0.341881	0.438018
O41	O	1.318262	-0.008547	0.771351
O42	O	1.651596	0.324786	1.104685
O43	O	1.214775	-0.264544	0.568802
O44	O	1.548109	0.068790	0.902136
O45	O	1.881442	0.402123	1.235469
O46	O	1.214581	-0.443967	0.338983
O47	O	1.547915	-0.110633	0.672317
O48	O	1.881248	0.222700	1.005650
O49	O	1.115566	-0.443939	0.438006
O50	O	1.448899	-0.110605	0.771339
O51	O	1.782232	0.222728	1.104672
C52	C	0.955690	-0.303229	0.388507
C53	C	1.289023	0.030104	0.721840
C54	C	1.622357	0.363437	1.055173
C55	C	0.866069	-0.303239	0.388510
C56	C	1.199402	0.030094	0.721843
C57	C	1.532735	0.363427	1.055176
C58	C	0.793286	-0.303241	0.388519
C59	C	1.126620	0.030093	0.721853
C60	C	1.459953	0.363426	1.055186
C61	C	0.701978	-0.303244	0.388540
C62	C	1.035311	0.030089	0.721873
C63	C	1.368645	0.363423	1.055206
C64	C	0.629201	-0.303250	0.388560
C65	C	0.962535	0.030084	0.721893
C66	C	1.295868	0.363417	1.055227
C67	C	0.537887	-0.303254	0.388579
C68	C	0.871221	0.030079	0.721913
C69	C	1.204554	0.363413	1.055246
C70	C	1.165078	-0.466793	0.388504
C71	C	1.498411	-0.133460	0.721837
C72	C	1.831745	0.199873	1.055171
C73	C	1.165108	-0.536761	0.388513
C74	C	1.498441	-0.203428	0.721847
C75	C	1.831774	0.129905	1.055180
C76	C	1.216661	-0.569563	0.440130
C77	C	1.549995	-0.236229	0.773463
C78	C	1.883328	0.097104	1.106797
C79	C	1.216690	-0.635305	0.440150
C80	C	1.550023	-0.301972	0.773483
C81	C	1.883357	0.031362	1.106817
C82	C	1.165173	-0.668244	0.388539
C83	C	1.498507	-0.334911	0.721872
C84	C	1.831840	-0.001577	1.055206
C85	C	1.113610	-0.635435	0.336919
C86	C	1.446943	-0.302102	0.670252
C87	C	1.780276	0.031232	1.003585
C88	C	1.113577	-0.569694	0.336906
C89	C	1.446910	-0.236360	0.670239
C90	C	1.780243	0.096973	1.003573
N91	N	1.159082	-0.771508	0.317973
N92	N	1.492415	-0.438174	0.651306
N93	N	1.825748	-0.104841	0.984640
N94	N	1.159117	-0.833959	0.317987
N95	N	1.492451	-0.500626	0.651321
N96	N	1.825784	-0.167292	0.984654
C97	C	1.165267	-0.866319	0.388575
C98	C	1.498601	-0.532985	0.721909
C99	C	1.831934	-0.199652	1.055242
N100	N	1.171396	-0.833868	0.459150
N101	N	1.504729	-0.500534	0.792483
N102	N	1.838063	-0.167201	1.125816
N103	N	1.171364	-0.771410	0.459134
N104	N	1.504698	-0.438077	0.792468
N105	N	1.838031	-0.104744	1.125801
C106	C	1.165203	-0.739529	0.388547
C107	C	1.498536	-0.406196	0.721881
C108	C	1.831869	-0.072863	1.055214
C109	C	1.216855	-0.970405	0.440218
C110	C	1.550188	-0.637072	0.773551
C111	C	1.883521	-0.303739	1.106885
C112	C	1.216877	-1.036149	0.440239
C113	C	1.550211	-0.702816	0.773572
C114	C	1.883544	-0.369482	1.106906
C115	C	1.113801	-1.036278	0.337000
C116	C	1.447135	-0.702944	0.670334
C117	C	1.780468	-0.369611	1.003667
C118	C	1.113774	-0.970535	0.336986
C119	C	1.447108	-0.637202	0.670320
C120	C	1.780441	-0.303868	1.003653
C121	C	1.165305	-0.937603	0.388594
C122	C	1.498639	-0.604270	0.721927
C123	C	1.831972	-0.270936	1.055261
C124	C	1.375490	-0.303254	0.388583
C125	C	1.708823	0.030079	0.721917
C126	C	2.042156	0.363412	1.055250
C127	C	1.465111	-0.303260	0.388600
C128	C	1.798444	0.030073	0.721933
C129	C	2.131777	0.363407	1.055267
C130	C	1.165233	-0.303195	0.598854
C131	C	1.498567	0.030139	0.932187
C132	C	1.831900	0.363472	1.265520
C133	C	1.165256	-0.303175	0.688475
C134	C	1.498589	0.030159	1.021808
C135	C	1.831922	0.363492	1.355142
C136	C	1.165306	-0.139051	0.388603
C137	C	1.498639	0.194282	0.721937
C138	C	1.831973	0.527615	1.055270
C139	C	1.165359	-0.069083	0.388628
C140	C	1.498693	0.264250	0.721962
C141	C	1.832026	0.597583	1.055295
C142	C	1.165175	-0.303243	0.179054
C143	C	1.498508	0.030090	0.512387
C144	C	1.831842	0.363424	0.845721
C145	C	1.165309	-0.303086	0.089433
C146	C	1.498642	0.030248	0.422767
C147	C	1.831976	0.363581	0.756100
C148	C	1.165293	-0.303104	1.016651
C149	C	1.498626	0.030229	1.349984
C150	C	1.831959	0.363562	1.683317
C151	C	1.165280	-0.303126	0.925342
C152	C	1.498613	0.030207	1.258676
C153	C	1.831947	0.363541	1.592009
C154	C	1.165275	-0.303140	0.852566
C155	C	1.498608	0.030193	1.185899
C156	C	1.831941	0.363527	1.519232
C157	C	1.165261	-0.303161	0.761251
C158	C	1.498594	0.030173	1.094585
C159	C	1.831928	0.363506	1.427918
H160	H	1.258619	-0.542751	0.482154
H161	H	1.591952	-0.209418	0.815487
H162	H	1.925286	0.123916	1.148821
H163	H	1.071662	-0.662258	0.294898
H164	H	1.404996	-0.328925	0.628232
H165	H	1.738329	0.004409	0.961565
H166	H	1.258812	-0.943591	0.482243
H167	H	1.592145	-0.610257	0.815576
H168	H	1.925479	-0.276924	1.148909
H169	H	1.071798	-0.943827	0.294952
H170	H	1.405131	-0.610493	0.628285
H171	H	1.738464	-0.277160	0.961618
H172	H	1.071850	-1.063096	0.294983
H173	H	1.405184	-0.729762	0.628316
H174	H	1.738517	-0.396429	0.961649
O175	O	1.267038	-1.067917	0.490406
O176	O	1.600371	-0.734583	0.823739
O177	O	1.933704	-0.401250	1.157073
C178	C	1.312498	-1.024749	0.535962
C179	C	1.645831	-0.691416	0.869295
C180	C	1.979164	-0.358082	1.202628
H181	H	1.315280	-0.977903	0.502928
H182	H	1.648614	-0.644570	0.836262
H183	H	1.981947	-0.311236	1.169595
H184	H	1.376032	-1.043695	0.544620
H185	H	1.709365	-0.710361	0.877953
H186	H	2.042698	-0.377028	1.211286
H187	H	1.282943	-1.017743	0.597173
H188	H	1.616276	-0.684410	0.930507
H189	H	1.949610	-0.351076	1.263840
H190	H	1.071595	-0.542986	0.294873
H191	H	1.404928	-0.209653	0.628206
H192	H	1.738261	0.123680	0.961539
O193	O	1.266840	-0.667080	0.490326
O194	O	1.600173	-0.333746	0.823660
O195	O	1.933506	-0.000413	1.156993
C196	C	1.312292	-0.623915	0.535895
C197	C	1.645625	-0.290582	0.869228
C198	C	1.978959	0.042751	1.202561
H199	H	1.315091	-0.577070	0.502861
H200	H	1.648424	-0.243737	0.836195
H201	H	1.981757	0.089597	1.169528
H202	H	1.375821	-0.642866	0.544572
H203	H	1.709154	-0.309533	0.877905
H204	H	2.042487	0.023800	1.211238
H205	H	1.282720	-0.616907	0.597097
H206	H	1.616053	-0.283573	0.930431
H207	H	1.949387	0.049760	1.263764
