data_functionalizedCrystal
_audit_creation_method	'MofGen! by Chris Wilmer'
_symmetry_space_group_name_H-M	'P1'
_symmetry_Int_Tables_number	1
_symmetry_cell_setting	triclinic
loop_
_symmetry_equiv_pos_as_xyz
  x,y,z
_cell_length_a	12.759395
_cell_length_b	18.101397
_cell_length_c	12.759387
_cell_angle_alpha	90.037018
_cell_angle_beta	90.020509
_cell_angle_gamma	90.022002
loop_
_atom_site_label
_atom_site_type_symbol
_atom_site_fract_x
_atom_site_fract_y
_atom_site_fract_z
Zn1	Zn	1.606227	-0.294760	0.593960
Zn2	Zn	1.606100	-0.418620	0.418261
Zn3	Zn	1.430525	-0.294801	0.418297
Zn4	Zn	1.430499	-0.418568	0.593900
O5	O	1.518338	-0.356687	0.506104
O6	O	1.753231	-0.311196	0.570663
O7	O	1.582767	-0.402234	0.271245
O8	O	1.453896	-0.191162	0.441638
O9	O	1.753137	-0.402195	0.441578
O10	O	1.582983	-0.191133	0.570697
O11	O	1.453773	-0.311264	0.271271
O12	O	1.283500	-0.311213	0.441581
O13	O	1.453853	-0.402105	0.740929
O14	O	1.283482	-0.402145	0.570596
O15	O	1.582959	-0.311145	0.740973
O16	O	1.582742	-0.522246	0.441520
O17	O	1.453729	-0.522208	0.570561
C18	C	1.245370	-0.356678	0.506086
C19	C	1.128593	-0.356692	0.506103
C20	C	1.128613	-0.451532	0.640230
C21	C	1.073761	-0.498958	0.707296
C22	C	0.964040	-0.498967	0.707309
C23	C	0.909167	-0.451543	0.640250
C24	C	0.964018	-0.404118	0.573184
C25	C	1.073742	-0.404115	0.573176
C26	C	0.963999	-0.309275	0.439065
C27	C	1.073720	-0.309269	0.439045
C28	C	0.909126	-0.261852	0.372007
C29	C	0.963977	-0.214429	0.304934
C30	C	1.073705	-0.214422	0.304923
C31	C	1.128572	-0.261843	0.371979
C32	C	1.518248	-0.549098	0.506053
C33	C	1.518305	-0.631412	0.506067
C34	C	1.518439	-0.930503	0.506163
C35	C	1.599384	-0.899171	0.424756
C36	C	1.599665	-0.813553	0.424967
C37	C	1.518373	-0.782120	0.506114
C38	C	1.548394	-0.813118	0.616855
C39	C	1.549020	-0.898763	0.616412
C40	C	1.407258	-0.899016	0.477787
C41	C	1.407807	-0.813367	0.475315
C42	C	1.518334	-0.698261	0.506094
C43	C	1.518481	-1.014362	0.506191
C44	C	1.792371	-0.356697	0.506123
C45	C	1.909148	-0.356701	0.506131
C46	C	1.518417	-0.356615	0.780138
C47	C	1.518451	-0.356584	0.896915
C48	C	1.518456	-0.163525	0.506178
C49	C	1.518507	-0.081211	0.506210
C50	C	1.518319	-0.356706	0.233137
C51	C	1.518489	-0.356528	0.116361
C52	C	1.652898	-0.261872	0.896980
C53	C	1.720136	-0.214506	0.951874
C54	C	1.720162	-0.214479	1.061595
C55	C	1.652940	-0.261822	1.116426
C56	C	1.585701	-0.309189	1.061533
C57	C	1.585685	-0.309212	0.951808
C58	C	1.451251	-0.403895	1.061467
C59	C	1.451229	-0.403927	0.951745
C60	C	1.384028	-0.451238	1.116298
C61	C	1.316794	-0.498610	1.061404
C62	C	1.316772	-0.498636	0.951676
C63	C	1.383990	-0.451294	0.896852
H64	H	0.919380	-0.537581	0.761925
H65	H	1.262062	-0.537149	1.106056
H66	H	1.262007	-0.537200	0.906988
H67	H	1.344252	-0.791978	0.530265
H68	H	0.919291	-0.175817	0.250345
H69	H	1.652957	-0.261789	1.205767
H70	H	1.580828	-0.919821	0.342397
N71	N	1.383950	-0.451328	0.778510
H72	H	1.456002	-0.464956	0.752074
H73	H	1.364624	-0.400519	0.752186
H74	H	1.118451	-0.537568	0.761895
N75	N	1.472694	-0.786142	0.699362
H76	H	1.512067	-0.757016	0.754261
H77	H	1.437232	-0.829881	0.733357
H78	H	1.580882	-0.792598	0.342854
H79	H	1.217954	-0.451535	0.640218
N80	N	1.246913	-0.261841	0.371975
H81	H	1.273375	-0.211055	0.391427
H82	H	1.273225	-0.275418	0.299850
H83	H	0.819826	-0.451549	0.640276
N84	N	0.790784	-0.261863	0.372009
H85	H	0.764360	-0.299107	0.424663
H86	H	0.764417	-0.275391	0.299861
H87	H	1.118359	-0.175797	0.250317
H88	H	1.681291	-0.920636	0.443314
H89	H	1.385170	-0.793115	0.393818
N90	N	1.327364	-0.925852	0.556318
H91	H	1.362956	-0.958247	0.610021
H92	H	1.271351	-0.955180	0.518873
N93	N	1.384030	-0.451197	1.234640
H94	H	1.436821	-0.414006	1.261097
H95	H	1.403268	-0.502019	1.260982
N96	N	1.708752	-0.786327	0.449836
H97	H	1.756842	-0.829962	0.460711
H98	H	1.706837	-0.755405	0.515721
N99	N	1.656673	-0.925151	0.648227
H100	H	1.703275	-0.881149	0.662407
H101	H	1.687736	-0.955795	0.589819
N102	N	1.792647	-0.163458	0.892725
H103	H	1.776387	-0.110534	0.911826
H104	H	1.782393	-0.170734	0.814909
N105	N	1.474323	-0.926218	0.699496
H106	H	1.497434	-0.907420	0.770381
H107	H	1.474180	-0.982012	0.699763
H108	H	1.628753	-0.791607	0.641299
N109	N	1.371076	-0.927711	0.372676
H110	H	1.426397	-0.961417	0.342386
H111	H	1.359057	-0.884790	0.323593
N112	N	1.652884	-0.261912	0.778638
H113	H	1.705671	-0.224736	0.752233
H114	H	1.580784	-0.248320	0.752279
N115	N	1.792671	-0.163386	1.120810
H116	H	1.835249	-0.133396	1.069431
H117	H	1.841277	-0.193525	1.166330
