data_functionalizedCrystal
_audit_creation_method	'MofGen! by Chris Wilmer'
_symmetry_space_group_name_H-M	'P1'
_symmetry_Int_Tables_number	1
_symmetry_cell_setting	triclinic
loop_
_symmetry_equiv_pos_as_xyz
  x,y,z
_cell_length_a	13.033293
_cell_length_b	18.101395
_cell_length_c	13.032268
_cell_angle_alpha	97.146252
_cell_angle_beta	89.079182
_cell_angle_gamma	97.200663
loop_
_atom_site_label
_atom_site_type_symbol
_atom_site_fract_x
_atom_site_fract_y
_atom_site_fract_z
Zn1	Zn	1.498387	-0.230407	-0.781470
Zn2	Zn	1.998387	0.269593	-0.281470
Zn3	Zn	1.520095	-0.336834	-0.609491
Zn4	Zn	2.020095	0.163166	-0.109491
Zn5	Zn	1.348249	-0.226497	-0.587646
Zn6	Zn	1.848249	0.273503	-0.087646
Zn7	Zn	1.326336	-0.367707	-0.759530
Zn8	Zn	1.826336	0.132293	-0.259530
O9	O	1.423267	-0.290361	-0.684534
O10	O	1.923267	0.209639	-0.184534
O11	O	1.645189	-0.233242	-0.776981
O12	O	2.145189	0.266758	-0.276981
O13	O	1.515555	-0.307641	-0.462686
O14	O	2.015555	0.192359	0.037314
O15	O	1.368250	-0.123378	-0.613397
O16	O	1.868250	0.376622	-0.113397
O17	O	1.661138	-0.311433	-0.650629
O18	O	2.161138	0.188567	-0.150629
O19	O	1.478557	-0.126252	-0.755799
O20	O	1.978557	0.373748	-0.255799
O21	O	1.389300	-0.226576	-0.446636
O22	O	1.889300	0.273424	0.053364
O23	O	1.201420	-0.256512	-0.592122
O24	O	1.701420	0.243488	-0.092122
O25	O	1.330904	-0.364051	-0.906348
O26	O	1.830904	0.135949	-0.406348
O27	O	1.185321	-0.360259	-0.718405
O28	O	1.685321	0.139741	-0.218405
O29	O	1.457309	-0.263177	-0.922467
O30	O	1.957309	0.236823	-0.422467
O31	O	1.494307	-0.444567	-0.629355
O32	O	1.994307	0.055433	-0.129355
O33	O	1.351953	-0.467249	-0.739587
O34	O	1.851953	0.032751	-0.239587
C35	C	1.156053	-0.311312	-0.650513
C36	C	1.656053	0.188688	-0.150513
C37	C	1.041734	-0.320295	-0.635982
C38	C	1.541734	0.179705	-0.135982
C39	C	0.982863	-0.285692	-0.692118
C40	C	1.482863	0.214308	-0.192118
C41	C	0.864709	-0.294975	-0.677101
C42	C	1.364709	0.205025	-0.177101
C43	C	1.423133	-0.482780	-0.684487
C44	C	1.923133	0.017220	-0.184487
C45	C	1.423166	-0.565093	-0.684513
C46	C	1.923166	-0.065093	-0.184513
C47	C	1.423384	-0.864172	-0.684597
C48	C	1.923384	-0.364172	-0.184597
C49	C	1.333978	-0.847154	-0.754173
C50	C	1.833978	-0.347154	-0.254173
C51	C	1.333633	-0.761540	-0.753876
C52	C	1.833633	-0.261540	-0.253876
C53	C	1.423276	-0.715795	-0.684556
C54	C	1.923276	-0.215795	-0.184556
C55	C	1.407704	-0.738262	-0.572444
C56	C	1.907704	-0.238262	-0.072444
C57	C	1.407133	-0.823996	-0.572856
C58	C	1.907133	-0.323996	-0.072856
C59	C	1.528656	-0.826793	-0.726200
C60	C	2.028656	-0.326793	-0.226200
C61	C	1.527715	-0.741433	-0.728496
C62	C	2.027715	-0.241433	-0.228496
C63	C	1.423217	-0.631939	-0.684526
C64	C	1.923217	-0.131939	-0.184526
C65	C	1.423441	-0.948028	-0.684619
C66	C	1.923441	-0.448028	-0.184619
C67	C	1.691525	-0.269330	-0.718689
C68	C	2.191525	0.230670	-0.218689
C69	C	1.805840	-0.260367	-0.733244
C70	C	2.305840	0.239633	-0.233244
C71	C	1.389240	-0.317494	-0.952765
C72	C	1.889240	0.182506	-0.452765
C73	C	1.374740	-0.329057	-1.067068
C74	C	1.874740	0.170943	-0.567068
C75	C	1.423426	-0.097192	-0.684608
C76	C	1.923426	0.402808	-0.184608
C77	C	1.423494	-0.014874	-0.684640
C78	C	1.923494	0.485126	-0.184640
C79	C	1.430819	-0.284301	-1.126004
C80	C	1.930819	0.215699	-0.626004
C81	C	1.415833	-0.296251	-1.244143
C82	C	1.915833	0.203749	-0.744143
C83	C	1.457220	-0.263276	-0.417355
C84	C	1.957220	0.236724	0.082645
C85	C	1.471919	-0.251489	-0.303077
C86	C	1.971919	0.248511	0.196923
H87	H	0.842907	-0.223862	-0.792420
H88	H	1.342907	0.276138	-0.292420
H89	H	0.827642	-0.331474	-0.617919
H90	H	1.327642	0.168526	-0.117919
H91	H	1.531023	-0.204319	-1.266078
H92	H	2.031023	0.295681	-0.766078
H93	H	1.256131	-0.873189	-0.725817
H94	H	1.756131	-0.373189	-0.225817
H95	H	1.004662	-0.356790	-0.576804
H96	H	1.504662	0.143210	-0.076804
N97	N	1.307497	-0.714916	-0.527464
N98	N	1.807497	-0.214916	-0.027464
H99	H	1.322369	-0.678669	-0.462497
H100	H	1.822369	-0.178669	0.037503
H101	H	1.272104	-0.689820	-0.579590
H102	H	1.772104	-0.189820	-0.079590
N103	N	1.344469	-0.883315	-0.864028
N104	N	1.844469	-0.383315	-0.364028
H105	H	1.286348	-0.871705	-0.907360
H106	H	1.786348	-0.371705	-0.407360
H107	H	1.413007	-0.863014	-0.893289
H108	H	1.913007	-0.363014	-0.393289
H109	H	1.596745	-0.709687	-0.682615
H110	H	2.096745	-0.209687	-0.182615
N111	N	1.344416	-0.742514	-0.863414
N112	N	1.844416	-0.242514	-0.363414
H113	H	1.349437	-0.789796	-0.912328
H114	H	1.849437	-0.289796	-0.412328
H115	H	1.282050	-0.718895	-0.881829
H116	H	1.782050	-0.218895	-0.381829
H117	H	1.356718	-0.343413	-1.281143
H118	H	1.856718	0.156587	-0.781143
H119	H	1.255325	-0.745581	-0.725226
H120	H	1.755325	-0.245581	-0.225226
H121	H	1.330589	-0.847895	-0.539220
H122	H	1.830589	-0.347895	-0.039220
N123	N	1.551027	-0.862983	-0.833606
N124	N	2.051027	-0.362983	-0.333606
H125	H	1.493140	-0.903981	-0.856384
H126	H	1.993140	-0.403981	-0.356384
H127	H	1.556636	-0.823945	-0.883118
H128	H	2.056636	-0.323945	-0.383118
N129	N	1.490629	-0.837463	-0.500862
N130	N	1.990629	-0.337463	-0.000862
H131	H	1.527641	-0.787732	-0.468995
H132	H	2.027641	-0.287732	0.031005
H133	H	1.458369	-0.866272	-0.444435
H134	H	1.958369	-0.366272	0.055565
N135	N	1.492047	-0.697284	-0.501095
N136	N	1.992047	-0.197284	-0.001095
H137	H	1.541279	-0.663680	-0.540854
H138	H	2.041279	-0.163680	-0.040854
H139	H	1.460221	-0.665886	-0.442450
H140	H	1.960221	-0.165886	0.057550
N141	N	1.296439	-0.391522	-1.116083
N142	N	1.796439	0.108478	-0.616083
H143	H	1.332589	-0.427041	-1.165966
H144	H	1.832589	0.072959	-0.665966
H145	H	1.261088	-0.419693	-1.060464
H146	H	1.761088	0.080307	-0.560464
H147	H	1.539707	-0.727420	-0.811071
H148	H	2.039707	-0.227420	-0.311071
H149	H	1.595098	-0.836526	-0.675694
H150	H	2.095098	-0.336526	-0.175694
N151	N	1.509136	-0.221841	-1.077004
N152	N	2.009136	0.278159	-0.577004
H153	H	1.508751	-0.222166	-0.999557
H154	H	2.008751	0.277834	-0.499557
H155	H	1.580209	-0.229513	-1.105088
H156	H	2.080209	0.270487	-0.605088
H157	H	1.019936	-0.249191	-0.751290
H158	H	1.519936	0.250809	-0.251290
