data_functionalizedCrystal
_audit_creation_method	'MofGen! by Chris Wilmer'
_symmetry_space_group_name_H-M	'P1'
_symmetry_Int_Tables_number	1
_symmetry_cell_setting	triclinic
loop_
_symmetry_equiv_pos_as_xyz
  x,y,z
_cell_length_a	19.077236
_cell_length_b	21.295417
_cell_length_c	21.295411
_cell_angle_alpha	90.021644
_cell_angle_beta	92.326577
_cell_angle_gamma	92.323097
loop_
_atom_site_label
_atom_site_type_symbol
_atom_site_fract_x
_atom_site_fract_y
_atom_site_fract_z
Zn1	Zn	1.076025	-0.212106	0.394645
Zn2	Zn	1.075915	-0.317361	0.289366
Zn3	Zn	0.958313	-0.216326	0.285153
Zn4	Zn	0.958279	-0.321562	0.390364
O5	O	1.017133	-0.266839	0.339882
O6	O	1.174504	-0.222544	0.384235
O7	O	1.060284	-0.303967	0.200717
O8	O	0.973988	-0.127675	0.299705
O9	O	1.174424	-0.299875	0.306887
O10	O	1.060470	-0.124574	0.380149
O11	O	0.973882	-0.229737	0.197621
O12	O	0.859814	-0.233810	0.295554
O13	O	0.973929	-0.307034	0.479022
O14	O	0.859789	-0.311127	0.372852
O15	O	1.060437	-0.226617	0.482168
O16	O	1.060251	-0.406010	0.302736
O17	O	0.973824	-0.409096	0.376938
C18	C	0.834263	-0.273383	0.333282
C19	C	0.756031	-0.276197	0.330473
C20	C	0.719320	-0.237321	0.369485
C21	C	0.645812	-0.239963	0.366841
C22	C	0.609017	-0.281484	0.325186
C23	C	0.645733	-0.320361	0.286169
C24	C	0.719240	-0.317716	0.288811
C25	C	0.389172	-0.293703	0.312957
C26	C	0.315660	-0.296347	0.310320
C27	C	0.315744	-0.215947	0.390991
C28	C	0.389252	-0.213308	0.393632
C29	C	0.425962	-0.252183	0.354612
N30	N	0.533880	-0.284187	0.322484
N31	N	0.501097	-0.249477	0.357312
C32	C	1.017041	-0.430394	0.339844
C33	C	1.017066	-0.500361	0.339851
C34	C	1.062108	-0.531598	0.301256
C35	C	1.062141	-0.597340	0.301272
C36	C	1.017119	-0.631842	0.339874
C37	C	0.972073	-0.600596	0.378477
C38	C	0.972047	-0.534856	0.378465
N39	N	0.955548	-0.737315	0.342451
N40	N	0.955575	-0.799766	0.342459
C41	C	1.017198	-0.829913	0.339913
N42	N	1.078794	-0.795251	0.337348
N43	N	1.078765	-0.732795	0.337337
C44	C	1.017143	-0.703126	0.339892
C45	C	1.062280	-0.932435	0.301334
C46	C	1.062314	-0.998177	0.301353
C47	C	0.972240	-1.001433	0.378555
C48	C	0.972212	-0.935692	0.378538
C49	C	1.017231	-0.901196	0.339924
C50	C	1.200717	-0.260270	0.346509
C51	C	1.278949	-0.257471	0.349332
C52	C	1.017191	-0.266823	0.504074
C53	C	1.017216	-0.266817	0.574043
C54	C	1.017245	-0.102645	0.339935
C55	C	1.017292	-0.032675	0.339957
C56	C	1.017115	-0.266807	0.176330
C57	C	1.017227	-0.266632	0.106366
C58	C	1.062259	-0.224942	0.608549
C59	C	1.062258	-0.224915	0.674291
C60	C	1.017222	-0.266773	0.705526
C61	C	0.972171	-0.308651	0.671012
C62	C	0.972168	-0.308673	0.605271
N63	N	1.011791	-0.322036	0.808546
N64	N	1.011798	-0.322013	0.870998
C65	C	1.017226	-0.266709	0.903601
N66	N	1.022661	-0.211427	0.871394
N67	N	1.022658	-0.211451	0.808937
C68	C	1.017219	-0.266754	0.776812
C69	C	1.062270	-0.224801	1.009392
C70	C	1.062264	-0.224773	1.075136
C71	C	0.972181	-0.308515	1.071856
C72	C	0.972183	-0.308538	1.006113
C73	C	1.017231	-0.266682	0.974886
H74	H	0.285847	-0.184296	0.422757
H75	H	1.098998	-1.023609	0.269927
H76	H	1.098767	-0.503514	0.269816
H77	H	1.098942	-0.190670	1.103229
H78	H	1.098940	-0.190858	0.583127
C79	C	0.937907	-1.022868	0.483886
C80	C	0.922752	-1.039350	0.420991
H81	H	0.907358	-1.046282	0.510085
H82	H	0.931441	-0.979250	0.489395
H83	H	0.985199	-1.031907	0.494833
H84	H	0.875461	-1.030307	0.410042
H85	H	0.929212	-1.082978	0.415478
C86	C	0.883043	-0.597213	0.454788
C87	C	0.922585	-0.638518	0.420911
H88	H	0.852496	-0.620624	0.480990
H89	H	0.856125	-0.572574	0.426367
H90	H	0.913695	-0.570434	0.479988
H91	H	0.891933	-0.665293	0.395707
H92	H	0.949505	-0.663167	0.449335
C93	C	0.563200	-0.234321	0.448563
C94	C	0.605460	-0.197233	0.409729
H95	H	0.538287	-0.207939	0.475040
H96	H	0.591877	-0.260749	0.473616
H97	H	0.530768	-0.259421	0.423369
H98	H	0.637896	-0.172136	0.434924
H99	H	0.576780	-0.170794	0.384674
C100	C	1.072110	-0.139808	0.935810
C101	C	1.111781	-0.178794	0.975057
H102	H	1.102678	-0.111409	0.914611
H103	H	1.041469	-0.116814	0.960340
H104	H	1.045288	-0.164762	0.905853
H105	H	1.138599	-0.153839	1.005017
H106	H	1.142434	-0.201790	0.950525
H107	H	0.935500	-0.342731	0.696448
H108	H	0.419205	-0.179499	0.427553
H109	H	0.935504	-0.342592	1.097286
C110	C	0.322957	-0.375552	0.230836
C111	C	0.275214	-0.341989	0.264529
H112	H	0.297985	-0.403726	0.202568
H113	H	0.351634	-0.398639	0.259245
H114	H	0.351624	-0.347050	0.207838
H115	H	0.246550	-0.370490	0.287531
H116	H	0.246525	-0.318901	0.236116
C117	C	0.623043	-0.427725	0.254491
C118	C	0.605291	-0.366004	0.240382
H119	H	0.598079	-0.455903	0.226221
H120	H	0.611014	-0.437427	0.296332
H121	H	0.672077	-0.431703	0.250479
H122	H	0.556258	-0.362024	0.244399
H123	H	0.617315	-0.356298	0.198531
C124	C	1.151158	-0.587525	0.224946
C125	C	1.111650	-0.631686	0.258841
H126	H	1.181718	-0.608730	0.198749
H127	H	1.178061	-0.560887	0.253355
H128	H	1.120485	-0.563017	0.199739
H129	H	1.142323	-0.656191	0.284052
H130	H	1.084745	-0.658335	0.230429
H131	H	0.935508	-0.342641	0.978019
H132	H	0.749273	-0.203512	0.403407
C133	C	0.801848	-0.323365	0.207087
C134	C	0.759594	-0.360451	0.245927
H135	H	0.826756	-0.349749	0.180608
H136	H	0.834278	-0.298265	0.232272
H137	H	0.773162	-0.296937	0.182032
H138	H	0.788281	-0.386876	0.270986
H139	H	0.727160	-0.385562	0.220740
H140	H	0.935486	-0.342772	0.577177
H141	H	0.935531	-0.910257	0.409963
C142	C	0.471785	-0.375394	0.307022
C143	C	0.429516	-0.336440	0.270073
H144	H	0.496696	-0.401777	0.280545
H145	H	0.443114	-0.400539	0.333371
H146	H	0.504219	-0.350280	0.332200
H147	H	0.397078	-0.361554	0.244898
H148	H	0.458189	-0.311292	0.243713
H149	H	0.935367	-0.509422	0.409894
C150	C	1.096618	-0.910996	0.196000
C151	C	1.111768	-0.894512	0.258895
H152	H	1.127173	-0.887587	0.169802
H153	H	1.049333	-0.901961	0.185049
H154	H	1.103087	-0.954620	0.190494
H155	H	1.105294	-0.850888	0.264402
H156	H	1.159064	-0.903543	0.269850
C157	C	1.151315	-0.142153	0.670937
C158	C	1.111776	-0.178886	0.712230
H159	H	1.181889	-0.113741	0.694359
H160	H	1.120669	-0.119175	0.644187
H161	H	1.178213	-0.168634	0.646269
H162	H	1.084875	-0.152406	0.736896
H163	H	1.142426	-0.201867	0.738992
