data_functionalizedCrystal
_audit_creation_method	'MofGen! by Chris Wilmer'
_symmetry_space_group_name_H-M	'P1'
_symmetry_Int_Tables_number	1
_symmetry_cell_setting	triclinic
loop_
_symmetry_equiv_pos_as_xyz
  x,y,z
_cell_length_a	6.817900
_cell_length_b	13.212940
_cell_length_c	16.255661
_cell_angle_alpha	89.451580
_cell_angle_beta	103.488922
_cell_angle_gamma	106.299459
loop_
_atom_site_label
_atom_site_type_symbol
_atom_site_fract_x
_atom_site_fract_y
_atom_site_fract_z
V1	V	-4.033876	-0.145261	-0.252756
O2	O	-4.013889	0.006113	-0.259316
O3	O	-3.992427	-0.287194	-0.240091
O4	O	-3.985346	-0.143407	-0.367981
O5	O	-4.021019	-0.138669	-0.130540
V6	V	-4.516620	-0.127110	-0.239467
O7	O	-4.296843	-0.185077	-0.281908
O8	O	-4.703850	-0.087294	-0.210315
O9	O	-4.334862	0.014823	-0.252132
O10	O	-4.654004	-0.278484	-0.232907
O11	O	-4.646874	-0.133702	-0.361682
O12	O	-4.341943	-0.128964	-0.124242
C13	C	-3.839124	-0.321782	-0.233282
C14	C	-3.886520	-0.437817	-0.223695
C15	C	-4.057501	-0.686168	-0.358381
C16	C	-4.102037	-0.795194	-0.349377
C17	C	-4.020114	-0.764894	-0.196683
C18	C	-3.975578	-0.655869	-0.205687
C19	C	-3.994278	-0.616511	-0.286539
C20	C	-3.949756	-0.507483	-0.295542
C21	C	-3.867820	-0.477186	-0.142849
C22	C	-3.912355	-0.586211	-0.133845
C23	C	-3.830090	-0.138367	-0.396417
C24	C	-3.871741	-0.137790	-0.490543
C25	C	-3.781958	-0.130904	-0.713888
C26	C	-3.942757	-0.219778	-0.776564
C27	C	-3.948072	-0.136710	-0.662874
C28	C	-3.861514	-0.046819	-0.767913
C29	C	-4.021789	-0.135661	-0.829338
C30	C	-4.108357	-0.225663	-0.724314
C31	C	-4.027048	-0.052625	-0.715654
C32	C	-4.187985	-0.141524	-0.778308
C33	C	-3.905601	-0.137315	-0.566978
C34	C	-4.064277	-0.135064	-0.925232
C35	C	-4.151508	0.049405	-0.258938
C36	C	-4.083349	0.165439	-0.268531
C37	C	-4.160541	-0.134008	-0.095801
C38	C	-4.098128	-0.134579	-0.001675
H39	H	-4.153511	-0.851906	-0.407878
H40	H	-4.072770	-0.654124	-0.424214
O41	O	-3.967572	-0.469113	-0.374028
C42	C	-3.791467	-0.358591	-0.469197
C43	C	-3.771013	-0.401943	-0.380274
H44	H	-3.632563	-0.304293	-0.474282
H45	H	-3.912571	-0.312329	-0.480182
H46	H	-3.844398	-0.427130	-0.518983
H47	H	-3.718015	-0.333468	-0.330433
H48	H	-3.649967	-0.448236	-0.369362
O49	O	-4.002134	-0.803030	-0.118115
C50	C	-4.119149	-0.815661	0.011502
C51	C	-4.139687	-0.772383	-0.077446
H52	H	-4.230374	-0.790919	0.044402
H53	H	-3.950226	-0.782636	0.050366
H54	H	-4.161742	-0.905545	0.005562
H55	H	-4.097200	-0.682502	-0.071585
H56	H	-4.308619	-0.805489	-0.116278
H57	H	-3.816340	-0.420458	-0.084350
O58	O	-4.393181	-0.146713	-0.811749
C59	C	-4.637253	-0.062169	-0.894816
C60	C	-4.404789	-0.056141	-0.856974
H61	H	-4.646713	0.011038	-0.931403
H62	H	-4.721915	-0.066300	-0.841574
H63	H	-4.715233	-0.135760	-0.939536
H64	H	-4.326626	0.017444	-0.812263
H65	H	-4.320281	-0.052068	-0.910259
H66	H	-3.897131	-0.618272	-0.068017
O67	O	-3.576914	-0.125826	-0.680208
C68	C	-3.333641	-0.209805	-0.595819
C69	C	-3.565925	-0.215669	-0.633896
H70	H	-3.324679	-0.282444	-0.558382
H71	H	-3.254817	-0.135564	-0.551878
H72	H	-3.249449	-0.207094	-0.649066
H73	H	-3.650295	-0.218421	-0.580705
H74	H	-3.644590	-0.289899	-0.677858
O75	O	-3.900596	-0.303966	-0.808493
C76	C	-3.695711	-0.363406	-0.889698
C77	C	-3.743308	-0.267977	-0.853612
H78	H	-3.568510	-0.334343	-0.926170
H79	H	-3.844845	-0.415151	-0.934136
H80	H	-3.638442	-0.411381	-0.835444
H81	H	-3.800522	-0.219922	-0.907810
H82	H	-3.594125	-0.216310	-0.809151
O83	O	-4.232059	-0.316003	-0.701306
C84	C	-4.244504	-0.474631	-0.625792
C85	C	-4.104181	-0.372372	-0.651807
H86	H	-4.141173	-0.520224	-0.585753
H87	H	-4.346834	-0.525431	-0.684993
H88	H	-4.349414	-0.453901	-0.587321
H89	H	-3.999145	-0.393005	-0.690258
H90	H	-4.001992	-0.321600	-0.592572
O91	O	-4.068609	0.031800	-0.683819
C92	C	-3.985026	0.221473	-0.669695
C93	C	-3.937742	0.125946	-0.705781
H94	H	-3.879278	0.297614	-0.687453
H95	H	-3.953981	0.219828	-0.597749
H96	H	-4.156958	0.217689	-0.697221
H97	H	-3.765823	0.129668	-0.678321
H98	H	-3.968931	0.127625	-0.777728
O99	O	-3.737197	0.043333	-0.790907
C100	C	-3.383248	0.150729	-0.784164
C101	C	-3.523804	0.048614	-0.758053
H102	H	-3.210692	0.155021	-0.757628
H103	H	-3.417354	0.222052	-0.758011
H104	H	-3.417665	0.150674	-0.856245
H105	H	-3.489468	0.048566	-0.685980
H106	H	-3.489673	-0.022663	-0.784268
