data_functionalizedCrystal
_audit_creation_method	'MofGen! by Chris Wilmer'
_symmetry_space_group_name_H-M	'P1'
_symmetry_Int_Tables_number	1
_symmetry_cell_setting	triclinic
loop_
_symmetry_equiv_pos_as_xyz
  x,y,z
_cell_length_a	19.077236
_cell_length_b	19.077078
_cell_length_c	17.077396
_cell_angle_alpha	87.735096
_cell_angle_beta	92.321175
_cell_angle_gamma	94.710072
loop_
_atom_site_label
_atom_site_type_symbol
_atom_site_fract_x
_atom_site_fract_y
_atom_site_fract_z
Zn1	Zn	1.066453	-0.237446	0.502323
Zn2	Zn	1.399786	0.095888	0.835656
Zn3	Zn	1.733120	0.429221	1.168989
Zn4	Zn	1.061620	-0.355343	0.376108
Zn5	Zn	1.394954	-0.022010	0.709442
Zn6	Zn	1.728287	0.311323	1.042775
Zn7	Zn	0.948561	-0.242196	0.365991
Zn8	Zn	1.281894	0.091137	0.699325
Zn9	Zn	1.615228	0.424470	1.032658
Zn10	Zn	0.943786	-0.360025	0.502252
Zn11	Zn	1.277119	-0.026692	0.835585
Zn12	Zn	1.610452	0.306642	1.168918
O13	O	1.005105	-0.298753	0.436668
O14	O	1.338438	0.034581	0.770002
O15	O	1.671772	0.367914	1.103335
O16	O	1.164464	-0.249138	0.489844
O17	O	1.497797	0.084196	0.823177
O18	O	1.831131	0.417529	1.156510
O19	O	1.046599	-0.340363	0.264919
O20	O	1.379932	-0.007029	0.598253
O21	O	1.713265	0.326304	0.931586
O22	O	0.968221	-0.142914	0.379872
O23	O	1.301554	0.190419	0.713205
O24	O	1.634887	0.523753	1.046538
O25	O	1.160914	-0.335756	0.397114
O26	O	1.494247	-0.002423	0.730448
O27	O	1.827580	0.330910	1.063781
O28	O	1.054835	-0.139424	0.480034
O29	O	1.388169	0.193910	0.813367
O30	O	1.721502	0.527243	1.146700
O31	O	0.963535	-0.257234	0.257486
O32	O	1.296868	0.076099	0.590820
O33	O	1.630201	0.409432	0.924153
O34	O	0.849275	-0.261774	0.379803
O35	O	1.182609	0.071559	0.713136
O36	O	1.515942	0.404892	1.046469
O37	O	0.960082	-0.343736	0.612108
O38	O	1.293415	-0.010403	0.945441
O39	O	1.626749	0.322931	1.278775
O40	O	0.845767	-0.348342	0.479913
O41	O	1.179100	-0.015009	0.813246
O42	O	1.512434	0.318324	1.146580
O43	O	1.050205	-0.253677	0.612160
O44	O	1.383538	0.079656	0.945493
O45	O	1.716872	0.412989	1.278827
O46	O	1.041968	-0.454616	0.397046
O47	O	1.375302	-0.121283	0.730379
O48	O	1.708635	0.212050	1.063712
O49	O	0.955396	-0.458056	0.489723
O50	O	1.288729	-0.124723	0.823056
O51	O	1.622062	0.208611	1.156390
C52	C	0.821942	-0.306082	0.428753
C53	C	1.155275	0.027251	0.762086
C54	C	1.488608	0.360584	1.095419
C55	C	0.743583	-0.309235	0.425386
C56	C	1.076916	0.024098	0.758719
C57	C	1.410250	0.357432	1.092052
C58	C	0.997659	-0.481915	0.444492
C59	C	1.330992	-0.148582	0.777826
C60	C	1.664325	0.184752	1.111159
C61	C	0.994537	-0.560270	0.447869
C62	C	1.327871	-0.226937	0.781202
C63	C	1.661204	0.106397	1.114535
C64	C	0.972149	-1.001520	0.472112
C65	C	1.305483	-0.668186	0.805445
C66	C	1.638816	-0.334853	1.138779
C67	C	0.975082	-0.927897	0.468931
C68	C	1.308415	-0.594564	0.802264
C69	C	1.641748	-0.261230	1.135598
C70	C	1.021655	-0.889272	0.419126
C71	C	1.354989	-0.555939	0.752459
C72	C	1.688322	-0.222605	1.085793
C73	C	1.065304	-0.924274	0.372505
C74	C	1.398638	-0.590940	0.705838
C75	C	1.731971	-0.257607	1.039172
C76	C	1.062375	-0.997895	0.375690
C77	C	1.395708	-0.664562	0.709024
C78	C	1.729042	-0.331229	1.042357
C79	C	1.035257	-0.668893	0.404433
C80	C	1.368590	-0.335560	0.737766
C81	C	1.701924	-0.002226	1.071100
C82	C	1.038182	-0.595267	0.401249
C83	C	1.371515	-0.261933	0.734582
C84	C	1.704848	0.071400	1.067916
C85	C	0.947960	-0.598895	0.497677
C86	C	1.281293	-0.265561	0.831010
C87	C	1.614626	0.067772	1.164344
C88	C	0.945031	-0.672517	0.500854
C89	C	1.278365	-0.339184	0.834188
C90	C	1.611698	-0.005851	1.167521
C91	C	0.988683	-0.707513	0.454236
C92	C	1.322016	-0.374179	0.787570
C93	C	1.655349	-0.040846	1.120903
N94	N	1.024652	-0.814018	0.415872
N95	N	1.357986	-0.480684	0.749205
N96	N	1.691319	-0.147351	1.082538
N97	N	0.985689	-0.782765	0.457495
N98	N	1.319022	-0.449432	0.790829
N99	N	1.652356	-0.116099	1.124162
C100	C	0.708616	-0.265690	0.472163
C101	C	1.041950	0.067643	0.805496
C102	C	1.375283	0.400977	1.138829
C103	C	0.634990	-0.268649	0.468992
C104	C	0.968323	0.064684	0.802326
C105	C	1.301657	0.398018	1.135659
C106	C	0.596332	-0.315157	0.419048
C107	C	0.929665	0.018176	0.752381
C108	C	1.262998	0.351510	1.085715
C109	C	0.631304	-0.358704	0.372266
C110	C	0.964637	-0.025370	0.705599
C111	C	1.297970	0.307963	1.038933
C112	C	0.704929	-0.355741	0.375433
C113	C	1.038262	-0.022407	0.708766
C114	C	1.371595	0.310926	1.042100
C115	C	0.375938	-0.328843	0.404387
C116	C	0.709272	0.004490	0.737720
C117	C	1.042605	0.337823	1.071054
C118	C	0.302308	-0.331804	0.401225
C119	C	0.635642	0.001529	0.734558
C120	C	0.968975	0.334862	1.067892
C121	C	0.306000	-0.241748	0.497951
C122	C	0.639333	0.091585	0.831284
C123	C	0.972667	0.424918	1.164617
C124	C	0.379626	-0.238792	0.501117
C125	C	0.712959	0.094541	0.834450
C126	C	1.046293	0.427874	1.167783
C127	C	0.414592	-0.282337	0.454332
C128	C	0.747925	0.050997	0.787665
C129	C	1.081258	0.384330	1.120998
N130	N	0.521074	-0.318184	0.415808
N131	N	0.854407	0.015149	0.749141
N132	N	1.187740	0.348483	1.082475
N133	N	0.489848	-0.279305	0.457568
N134	N	0.823182	0.054028	0.790902
N135	N	1.156515	0.387361	1.124235
C136	C	1.188983	-0.291395	0.444616
C137	C	1.522317	0.041939	0.777949
C138	C	1.855650	0.375272	1.111282
C139	C	1.267342	-0.288259	0.448002
C140	C	1.600675	0.045074	0.781335
C141	C	1.934008	0.378407	1.114669
C142	C	1.005150	-0.298699	0.641412
C143	C	1.338483	0.034634	0.974746
C144	C	1.671816	0.367968	1.308079
C145	C	1.005169	-0.298676	0.728662
C146	C	1.338502	0.034657	1.061995
C147	C	1.671835	0.367991	1.395329
C148	C	1.012600	-0.114874	0.428832
C149	C	1.345933	0.218459	0.762165
C150	C	1.679266	0.551792	1.095499
C151	C	1.015793	-0.036516	0.425493
C152	C	1.349127	0.296817	0.758826
C153	C	1.682460	0.630150	1.092159
C154	C	1.005103	-0.298754	0.232721
C155	C	1.338436	0.034580	0.566054
C156	C	1.671770	0.367913	0.899387
C157	C	1.005229	-0.298572	0.145469
C158	C	1.338562	0.034761	0.478802
C159	C	1.671895	0.368094	0.812135
C160	C	1.052098	-0.251779	0.769681
C161	C	1.385431	0.081554	1.103014
C162	C	1.718764	0.414888	1.436347
C163	C	1.052107	-0.251755	0.851660
C164	C	1.385440	0.081578	1.184994
C165	C	1.718774	0.414912	1.518327
C166	C	1.005191	-0.298632	0.892621
C167	C	1.338524	0.034701	1.225954
C168	C	1.671857	0.368034	1.559287
C169	C	0.958257	-0.345532	0.851596
C170	C	1.291590	-0.012199	1.184930
C171	C	1.624923	0.321135	1.518263
C172	C	0.958244	-0.345552	0.769618
C173	C	1.291578	-0.012218	1.102951
C174	C	1.624911	0.321115	1.436284
C175	C	0.958287	-0.345488	1.022466
C176	C	1.291620	-0.012155	1.355799
C177	C	1.624953	0.321178	1.689133
C178	C	0.958300	-0.345470	1.104450
C179	C	1.291633	-0.012136	1.437784
C180	C	1.624966	0.321197	1.771117
C181	C	1.052149	-0.251692	1.104509
C182	C	1.385483	0.081642	1.437842
C183	C	1.718816	0.414975	1.771175
C184	C	1.052137	-0.251712	1.022530
C185	C	1.385470	0.081622	1.355863
C186	C	1.718804	0.414955	1.689197
C187	C	1.005204	-0.298612	0.981511
C188	C	1.338537	0.034721	1.314845
C189	C	1.671871	0.368055	1.648178
H190	H	0.934225	-1.032963	0.512670
H191	H	1.267558	-0.699629	0.846003
H192	H	1.600891	-0.366296	1.179336
F193	F	1.102100	-0.201777	1.148164
F194	F	1.435433	0.131557	1.481498
F195	F	1.768767	0.464890	1.814831
F196	F	1.081715	-0.706128	0.354816
F197	F	1.415048	-0.372795	0.688150
F198	F	1.748381	-0.039461	1.021483
F199	F	1.102078	-0.201864	0.895314
F200	F	1.435412	0.131470	1.228647
F201	F	1.768745	0.464803	1.561981
F202	F	0.742142	-0.402088	0.325647
F203	F	1.075476	-0.068755	0.658980
F204	F	1.408809	0.264579	0.992313
F205	F	1.087747	-0.554161	0.348229
F206	F	1.421080	-0.220828	0.681562
F207	F	1.754413	0.112506	1.014896
F208	F	0.749753	-0.216193	0.525324
F209	F	1.083086	0.117141	0.858658
F210	F	1.416419	0.450474	1.191991
F211	F	0.908322	-0.395420	0.895191
F212	F	1.241655	-0.062087	1.228525
F213	F	1.574988	0.271247	1.561858
H214	H	0.920023	-0.383734	0.736221
H215	H	1.253357	-0.050400	1.069554
H216	H	1.586690	0.282933	1.402888
H217	H	0.411097	-0.200923	0.541790
H218	H	0.744430	0.132410	0.875123
H219	H	1.077763	0.465743	1.208456
F220	F	0.413142	-0.375175	0.354579
F221	F	0.746476	-0.041842	0.687913
F222	F	1.079809	0.291492	1.021246
H223	H	1.090345	-0.213544	0.989183
H224	H	1.423678	0.119790	1.322516
H225	H	1.757011	0.453123	1.655849
F226	F	0.597779	-0.222303	0.518781
F227	F	0.931112	0.111030	0.852114
F228	F	1.264446	0.444363	1.185447
F229	F	1.102037	-0.201888	0.726095
F230	F	1.435370	0.131445	1.059429
F231	F	1.768704	0.464779	1.392762
H232	H	0.920095	-0.383640	1.137798
H233	H	1.253428	-0.050307	1.471131
H234	H	1.586761	0.283027	1.804464
H235	H	0.920058	-0.383669	0.989070
H236	H	1.253391	-0.050336	1.322403
H237	H	1.586725	0.282997	1.655737
H238	H	1.097917	-1.026388	0.337730
H239	H	1.431250	-0.693055	0.671063
H240	H	1.764583	-0.359722	1.004396
H241	H	0.277523	-0.206296	0.536040
H242	H	0.610856	0.127037	0.869373
H243	H	0.944190	0.460370	1.202706
F244	F	0.590159	-0.408197	0.319107
F245	F	0.923492	-0.074864	0.652440
F246	F	1.256825	0.258469	0.985774
F247	F	0.895469	-0.713619	0.553873
F248	F	1.228802	-0.380286	0.887206
F249	F	1.562136	-0.046953	1.220540
F250	F	0.928631	-0.890654	0.518553
F251	F	1.261965	-0.557321	0.851886
F252	F	1.595298	-0.223987	1.185219
H253	H	0.912421	-0.570395	0.535632
H254	H	1.245755	-0.237061	0.868965
H255	H	1.579088	0.096272	1.202299
F256	F	1.114876	-0.883164	0.319503
F257	F	1.448209	-0.549831	0.652836
F258	F	1.781543	-0.216498	0.986170
F259	F	0.261166	-0.381320	0.348080
F260	F	0.594499	-0.047987	0.681414
F261	F	0.927833	0.285347	1.014747
