data_functionalizedCrystal
_audit_creation_method	'MofGen! by Chris Wilmer'
_symmetry_space_group_name_H-M	'P1'
_symmetry_Int_Tables_number	1
_symmetry_cell_setting	triclinic
loop_
_symmetry_equiv_pos_as_xyz
  x,y,z
_cell_length_a	14.560438
_cell_length_b	23.196402
_cell_length_c	23.196401
_cell_angle_alpha	60.008520
_cell_angle_beta	90.014604
_cell_angle_gamma	59.998791
loop_
_atom_site_label
_atom_site_type_symbol
_atom_site_fract_x
_atom_site_fract_y
_atom_site_fract_z
Zr1	Zr	0.884719	0.631011	-0.075623
O2	O	0.738031	0.751283	-0.167675
O3	O	0.929689	0.510740	-0.047406
O4	O	0.929640	0.631012	-0.167674
O5	O	0.738117	0.631010	0.047464
O6	O	1.080781	0.631010	-0.167671
O7	O	0.738081	0.631012	-0.047407
O8	O	1.080870	0.415866	0.047467
O9	O	0.738028	0.846154	-0.167673
O10	O	1.061660	0.560207	-0.035367
O11	O	0.948892	0.560207	0.035432
O12	O	0.948834	0.701811	-0.106168
O13	O	0.836066	0.701811	-0.035369
Zr14	Zr	1.125829	0.631005	0.075691
Zr15	Zr	1.125771	0.631008	-0.075618
Zr16	Zr	0.884777	0.631008	0.075686
Zr17	Zr	0.884714	0.782318	-0.075620
Zr18	Zr	1.125834	0.479698	0.075688
O19	O	1.080859	0.751276	0.047474
O20	O	1.080777	0.751279	-0.167668
O21	O	0.738113	0.751280	0.047467
O22	O	1.272517	0.510733	0.167743
O23	O	1.272435	0.510736	-0.047399
O24	O	0.929771	0.510737	0.167736
O25	O	1.272431	0.631006	-0.047396
O26	O	1.080908	0.631005	0.167742
O27	O	0.929767	0.631006	0.167738
O28	O	1.272467	0.631004	0.047475
O29	O	0.929633	0.846152	-0.167669
O30	O	1.080915	0.415864	0.167737
O31	O	1.272520	0.415862	0.167741
O32	O	1.272474	0.415864	0.047471
O33	O	0.738074	0.846152	-0.047403
O34	O	0.929678	0.846150	-0.047399
O35	O	1.061714	0.560205	0.106236
O36	O	1.174482	0.560205	0.035437
O37	O	1.061656	0.701809	-0.035364
O38	O	0.948888	0.701809	0.035435
C39	C	1.005280	0.441745	0.000030
C40	C	1.005282	0.377511	0.000029
C41	C	1.064140	-0.085332	-0.036910
C42	C	1.064137	-0.024973	-0.036917
C43	C	1.005275	0.005209	0.000040
C44	C	0.946388	-0.024958	0.036991
C45	C	0.946383	-0.085310	0.036991
C46	C	1.013711	0.067235	0.061945
C47	C	1.013724	0.127582	0.061948
C48	C	1.005283	0.191357	0.000040
C49	C	0.996853	0.194770	-0.061869
C50	C	0.996848	0.134418	-0.061869
C51	C	1.005273	0.070651	0.000044
C52	C	1.064157	0.286969	-0.036919
C53	C	1.064146	0.347332	-0.036927
C54	C	0.946405	0.347340	0.036987
C55	C	0.946408	0.286984	0.036988
C56	C	1.005291	0.256799	0.000037
C57	C	0.703754	0.631012	0.000028
C58	C	0.601421	0.631013	0.000026
C59	C	0.553318	0.631015	-0.052239
C60	C	0.457172	0.631007	-0.052229
C61	C	0.457239	0.630999	0.052312
C62	C	0.553387	0.631001	0.052304
C63	C	0.553276	0.631023	-0.112596
C64	C	0.457130	0.631016	-0.112587
C65	C	1.306794	0.631004	0.000040
C66	C	1.409127	0.631003	0.000042
C67	C	1.005202	0.631011	-0.189231
C68	C	1.005177	0.631012	-0.253465
C69	C	1.005268	0.820271	0.000038
C70	C	1.005266	0.884505	0.000039
C71	C	0.946289	0.704926	-0.320595
C72	C	0.946317	0.704927	-0.380951
C73	C	1.005219	0.631010	-0.374171
C74	C	1.064121	0.557086	-0.307029
C75	C	1.064100	0.557087	-0.246676
C76	C	0.996858	0.574380	-0.441490
C77	C	0.996870	0.574382	-0.501843
C78	C	1.005290	0.631004	-0.560319
C79	C	1.013675	0.687637	-0.558441
C80	C	1.013654	0.687638	-0.498087
C81	C	1.005249	0.631001	-0.439610
C82	C	0.946430	0.704924	-0.692896
C83	C	0.946467	0.704922	-0.753251
C84	C	1.064263	0.557079	-0.679327
C85	C	1.064234	0.557083	-0.618974
C86	C	1.005311	0.631008	-0.625764
C87	C	1.005346	0.631005	0.189298
C88	C	1.005371	0.631004	0.253533
C89	C	1.306800	0.441742	0.000036
C90	C	1.409135	0.377506	0.000037
C91	C	1.005352	0.441742	0.189294
C92	C	1.005379	0.377507	0.253528
C93	C	1.306872	0.441739	0.189301
C94	C	1.409232	0.377502	0.253536
C95	C	0.703676	0.820277	-0.189233
C96	C	0.601316	0.884514	-0.253468
C97	C	0.703748	0.820274	0.000032
C98	C	0.601413	0.884510	0.000031
C99	C	1.005196	0.820274	-0.189227
C100	C	1.005169	0.884509	-0.253460
C101	C	1.398301	0.347342	-0.036928
C102	C	1.494447	0.286994	-0.036941
C103	C	1.601425	0.256808	0.000015
C104	C	1.612257	0.286978	0.036981
C105	C	1.516113	0.347329	0.036989
C106	C	1.064283	0.347340	0.320657
C107	C	1.064304	0.286993	0.381017
C108	C	1.005426	0.256810	0.374246
C109	C	0.946515	0.286982	0.307109
C110	C	0.946488	0.347333	0.246750
C111	C	1.516175	0.347336	0.246745
C112	C	1.612362	0.286988	0.307095
C113	C	1.601603	0.256803	0.374236
C114	C	1.494649	0.286975	0.381025
C115	C	1.398465	0.347326	0.320675
C116	C	0.494373	0.914687	-0.246677
C117	C	0.398186	0.975054	-0.307028
C118	C	0.408945	1.005243	-0.374168
C119	C	0.515899	0.975067	-0.380957
C120	C	0.612084	0.914705	-0.320608
C121	C	0.612247	0.914680	0.036989
C122	C	0.516102	0.975045	0.036986
C123	C	0.409123	1.005233	0.000028
C124	C	0.398291	0.975060	-0.036935
C125	C	0.494435	0.914701	-0.036936
C126	C	1.064058	0.914673	-0.246666
C127	C	1.064055	0.975021	-0.307014
C128	C	1.005156	1.005207	-0.374156
C129	C	0.946265	0.975037	-0.380948
C130	C	0.946275	0.914686	-0.320601
H131	H	1.112082	-0.109905	-0.067000
H132	H	1.112055	0.496896	-0.192013
H133	H	0.898578	0.262398	0.301606
H134	H	1.699440	0.262428	0.301555
H135	H	1.485605	0.262437	-0.067043
O136	O	1.005132	1.070310	-0.439243
H137	H	1.055968	1.086217	-0.423232
H138	H	0.898311	0.999624	-0.435623
O139	O	1.705349	0.191700	0.439326
H140	H	1.781517	0.175792	0.423317
O141	O	1.022821	-0.001554	0.128722
H142	H	1.028704	0.006204	0.171772
H143	H	0.311176	0.999648	-0.067025
O144	O	0.305441	1.070325	0.000050
H145	H	0.254636	1.125336	-0.054978
O146	O	1.483051	0.254404	0.453442
H147	H	1.567907	0.207361	0.494260
O148	O	1.022822	0.123895	0.128721
H149	H	1.021424	0.176568	0.118325
H150	H	0.330616	1.054393	-0.423303
O151	O	1.127569	1.007557	-0.299675
H152	H	1.192660	0.995960	-0.325385
H153	H	0.898460	-0.000378	0.067080
O154	O	1.283118	0.379844	0.328003
H155	H	1.291808	0.348701	0.384830
H156	H	0.473953	0.572465	-0.102041
H157	H	0.485598	0.890138	-0.067030
H158	H	0.592561	0.630988	0.094867
H159	H	1.311202	0.371919	-0.067031
O160	O	0.882880	-0.117845	0.076848
H161	H	0.892763	-0.164879	0.070636
O162	O	0.405436	0.630980	0.108699
H163	H	0.379872	0.686243	0.106137
O164	O	0.883134	0.379754	0.174346
H165	H	0.842273	0.348577	0.179785
O166	O	0.482756	0.882138	-0.174265
H167	H	0.392225	0.913276	-0.179694
H168	H	0.311109	0.999613	-0.301486
O169	O	1.127756	0.477365	-0.546561
H170	H	1.068314	0.473828	-0.517306
H171	H	0.898314	0.765121	-0.326130
O172	O	1.527810	0.379850	0.076871
H173	H	1.486842	0.368260	0.117720
H174	H	1.679703	0.207666	0.000002
O175	O	1.127604	0.882112	-0.174252
H176	H	1.168561	0.913225	-0.179678
H177	H	1.005457	0.207669	0.423399
O178	O	0.527497	1.007624	-0.453374
H179	H	0.442641	1.054658	-0.494192
O180	O	1.727644	0.254411	0.076846
H181	H	1.792669	0.207371	0.070633
H182	H	0.699159	0.890138	-0.326145
H183	H	0.898316	0.890133	-0.326143
O184	O	1.127647	0.007562	-0.076770
H185	H	1.068195	0.074139	-0.117626
H186	H	0.898453	0.765117	-0.698425
H187	H	0.624574	0.574274	-0.107393
H188	H	0.989981	0.137201	-0.112278
O189	O	0.727626	0.882138	0.076842
H190	H	0.718988	0.913277	0.102527
O191	O	1.127641	0.379873	-0.076789
H192	H	1.192722	0.368299	-0.039478
H193	H	1.524956	0.371904	0.192081
H194	H	0.385804	0.687763	-0.164130
O195	O	0.527796	1.007572	0.076865
H196	H	0.618339	0.976423	0.102574
H197	H	0.990037	0.528271	-0.503368
H198	H	1.112099	0.262393	-0.067010
O199	O	0.987738	0.263552	-0.128650
H200	H	0.989141	0.304954	-0.118255
H201	H	0.898472	0.262421	0.067080
O202	O	0.882934	0.379872	0.076862
H203	H	0.892839	0.426899	0.070662
O204	O	1.127786	0.379893	0.327970
H205	H	1.168732	0.348776	0.384794
H206	H	0.898360	0.765118	-0.435618
O207	O	0.530986	0.708575	-0.176178
H208	H	0.441413	0.749687	-0.209883
H209	H	1.020484	0.733749	-0.496561
H210	H	1.020526	0.733746	-0.606054
H211	H	0.898516	0.765114	-0.807913
H212	H	1.112223	0.496895	-0.673806
O213	O	0.987792	0.513307	-0.378406
H214	H	0.907763	0.521674	-0.394178
O215	O	1.127648	0.477359	-0.299710
H216	H	1.117758	0.489775	-0.352956
H217	H	1.112281	0.262434	0.435677
