data_functionalizedCrystal
_audit_creation_method	'MofGen! by Chris Wilmer'
_symmetry_space_group_name_H-M	'P1'
_symmetry_Int_Tables_number	1
_symmetry_cell_setting	triclinic
loop_
_symmetry_equiv_pos_as_xyz
  x,y,z
_cell_length_a	13.032721
_cell_length_b	18.215407
_cell_length_c	18.215399
_cell_angle_alpha	90.019833
_cell_angle_beta	97.154738
_cell_angle_gamma	82.794992
loop_
_atom_site_label
_atom_site_type_symbol
_atom_site_fract_x
_atom_site_fract_y
_atom_site_fract_z
Zn1	Zn	-0.416041	-1.087881	-0.453320
Zn2	Zn	-0.166041	-0.837881	-0.203320
Zn3	Zn	0.083959	-0.587881	0.046680
Zn4	Zn	0.333959	-0.337881	0.296680
Zn5	Zn	-0.590804	-1.072167	-0.345882
Zn6	Zn	-0.340804	-0.822167	-0.095882
Zn7	Zn	-0.090804	-0.572167	0.154118
Zn8	Zn	0.159196	-0.322167	0.404118
Zn9	Zn	-0.416075	-0.964810	-0.330271
Zn10	Zn	-0.166075	-0.714810	-0.080271
Zn11	Zn	0.083925	-0.464810	0.169729
Zn12	Zn	0.333925	-0.214810	0.419729
Zn13	Zn	-0.590746	-0.949162	-0.468902
Zn14	Zn	-0.340746	-0.699162	-0.218902
Zn15	Zn	-0.090746	-0.449162	0.031098
Zn16	Zn	0.159254	-0.199162	0.281098
O17	O	-0.503417	-1.018505	-0.399594
O18	O	-0.253417	-0.768505	-0.149594
O19	O	-0.003417	-0.518505	0.100406
O20	O	0.246583	-0.268505	0.350406
O21	O	-0.439234	-1.188780	-0.439081
O22	O	-0.189234	-0.938780	-0.189081
O23	O	0.060766	-0.688780	0.060919
O24	O	0.310766	-0.438780	0.310919
O25	O	-0.567665	-1.057898	-0.240831
O26	O	-0.317665	-0.807898	0.009169
O27	O	-0.067665	-0.557898	0.259169
O28	O	0.182335	-0.307898	0.509169
O29	O	-0.269831	-0.994261	-0.333539
O30	O	-0.019831	-0.744261	-0.083539
O31	O	0.230169	-0.494261	0.166461
O32	O	0.480169	-0.244261	0.416461
O33	O	-0.567632	-1.177235	-0.360147
O34	O	-0.317632	-0.927235	-0.110147
O35	O	-0.067632	-0.677235	0.139853
O36	O	0.182368	-0.427235	0.389853
O37	O	-0.269806	-1.084681	-0.423943
O38	O	-0.019806	-0.834681	-0.173943
O39	O	0.230194	-0.584681	0.076057
O40	O	0.480194	-0.334681	0.326057
O41	O	-0.439292	-0.979024	-0.229361
O42	O	-0.189292	-0.729024	0.020639
O43	O	0.060708	-0.479024	0.270639
O44	O	0.310708	-0.229024	0.520639
O45	O	-0.439236	-0.859751	-0.348648
O46	O	-0.189236	-0.609751	-0.098648
O47	O	0.060764	-0.359751	0.151352
O48	O	0.310764	-0.109751	0.401352
O49	O	-0.567533	-0.967591	-0.569816
O50	O	-0.317533	-0.717591	-0.319816
O51	O	-0.067533	-0.467591	-0.069816
O52	O	0.182467	-0.217591	0.180184
O53	O	-0.567566	-0.848254	-0.450500
O54	O	-0.317566	-0.598254	-0.200500
O55	O	-0.067566	-0.348254	0.049500
O56	O	0.182434	-0.098254	0.299500
O57	O	-0.439177	-1.069507	-0.558368
O58	O	-0.189177	-0.819507	-0.308368
O59	O	0.060823	-0.569507	-0.058368
O60	O	0.310823	-0.319507	0.191632
O61	O	-0.737036	-1.042724	-0.375256
O62	O	-0.487036	-0.792724	-0.125256
O63	O	-0.237036	-0.542724	0.124744
O64	O	0.012964	-0.292724	0.374744
O65	O	-0.736993	-0.952353	-0.465638
O66	O	-0.486993	-0.702353	-0.215638
O67	O	-0.236993	-0.452353	0.034362
O68	O	0.013007	-0.202353	0.284362
C69	C	-0.503399	-0.827300	-0.399571
C70	C	-0.253399	-0.577300	-0.149571
C71	C	-0.003399	-0.327300	0.100429
C72	C	0.246601	-0.077300	0.350429
C73	C	-0.503416	-0.745500	-0.399581
C74	C	-0.253416	-0.495500	-0.149581
C75	C	-0.003416	-0.245500	0.100419
C76	C	0.246584	0.004500	0.350419
C77	C	-0.774933	-0.994156	-0.423847
C78	C	-0.524933	-0.744156	-0.173847
C79	C	-0.274933	-0.494156	0.076153
C80	C	-0.024933	-0.244156	0.326153
C81	C	-0.891089	-0.983806	-0.434248
C82	C	-0.641089	-0.733806	-0.184248
C83	C	-0.391089	-0.483806	0.065752
C84	C	-0.141089	-0.233806	0.315752
C85	C	-0.503345	-1.018556	-0.591540
C86	C	-0.253345	-0.768556	-0.341540
C87	C	-0.003345	-0.518556	-0.091540
C88	C	0.246655	-0.268556	0.158460
C89	C	-0.503314	-1.018578	-0.673337
C90	C	-0.253314	-0.768578	-0.423337
C91	C	-0.003314	-0.518578	-0.173337
C92	C	0.246686	-0.268578	0.076663
C93	C	-0.942861	-1.023945	-0.394199
C94	C	-0.692861	-0.773945	-0.144199
C95	C	-0.442861	-0.523945	0.105801
C96	C	-0.192861	-0.273945	0.355801
C97	C	-1.062914	-1.013250	-0.404947
C98	C	-0.812914	-0.763250	-0.154947
C99	C	-0.562914	-0.513250	0.095053
C100	C	-0.312914	-0.263250	0.345053
C101	C	-0.230840	-1.042969	-0.375262
C102	C	0.019160	-0.792969	-0.125262
C103	C	0.269160	-0.542969	0.124738
C104	C	0.519160	-0.292969	0.374738
C105	C	-0.114684	-1.053395	-0.364893
C106	C	0.135316	-0.803395	-0.114893
C107	C	0.385316	-0.553395	0.135107
C108	C	0.635316	-0.303395	0.385107
C109	C	-0.503435	-1.210456	-0.399617
C110	C	-0.253435	-0.960456	-0.149617
C111	C	-0.003435	-0.710456	0.100383
C112	C	0.246565	-0.460456	0.350383
C113	C	-0.503443	-1.292254	-0.399627
C114	C	-0.253443	-1.042254	-0.149627
C115	C	-0.003443	-0.792254	0.100373
C116	C	0.246557	-0.542254	0.350373
C117	C	-0.570343	-0.551329	-0.452566
C118	C	-0.320343	-0.301329	-0.202566
C119	C	-0.070343	-0.051329	0.047434
C120	C	0.179657	0.198671	0.297434
C121	C	-0.570346	-0.474470	-0.452575
C122	C	-0.320346	-0.224470	-0.202575
C123	C	-0.070346	0.025530	0.047425
C124	C	0.179654	0.275530	0.297425
C125	C	-0.436510	-0.486431	-0.346640
C126	C	-0.186510	-0.236431	-0.096640
C127	C	0.063490	0.013569	0.153360
C128	C	0.313490	0.263569	0.403360
C129	C	-0.436502	-0.563289	-0.346634
C130	C	-0.186502	-0.313289	-0.096634
C131	C	0.063498	-0.063289	0.153366
C132	C	0.313498	0.186711	0.403366
C133	C	-0.503424	-0.595736	-0.399597
C134	C	-0.253424	-0.345736	-0.149597
C135	C	-0.003424	-0.095736	0.100403
C136	C	0.246576	0.154264	0.350403
C137	C	-0.503435	-0.442019	-0.399612
C138	C	-0.253435	-0.192019	-0.149612
C139	C	-0.003435	0.057981	0.100388
C140	C	0.246565	0.307981	0.350388
C141	C	-0.503438	-0.358685	-0.399621
C142	C	-0.253438	-0.108685	-0.149621
C143	C	-0.003438	0.141315	0.100379
C144	C	0.246562	0.391315	0.350379
C145	C	-0.503420	-0.679075	-0.399588
C146	C	-0.253420	-0.429075	-0.149588
C147	C	-0.003420	-0.179075	0.100412
C148	C	0.246580	0.070925	0.350412
C149	C	-0.436417	-1.071668	-0.855565
C150	C	-0.186417	-0.821668	-0.605565
C151	C	0.063583	-0.571668	-0.355565
C152	C	0.313583	-0.321668	-0.105565
C153	C	-0.436386	-1.071680	-0.932421
C154	C	-0.186386	-0.821680	-0.682421
C155	C	0.063614	-0.571680	-0.432421
C156	C	0.313614	-0.321680	-0.182421
C157	C	-0.570049	-0.965554	-0.944331
C158	C	-0.320049	-0.715554	-0.694331
C159	C	-0.070049	-0.465554	-0.444331
C160	C	0.179951	-0.215554	-0.194331
C161	C	-0.570074	-0.965540	-0.867476
C162	C	-0.320074	-0.715540	-0.617476
C163	C	-0.070074	-0.465540	-0.367476
C164	C	0.179926	-0.215540	-0.117476
C165	C	-0.503259	-1.018601	-0.823095
C166	C	-0.253259	-0.768601	-0.573095
C167	C	-0.003259	-0.518601	-0.323095
C168	C	0.246741	-0.268601	-0.073095
C169	C	-0.503204	-1.018627	-0.976807
C170	C	-0.253204	-0.768627	-0.726807
C171	C	-0.003204	-0.518627	-0.476807
C172	C	0.246796	-0.268627	-0.226807
C173	C	-0.503172	-1.018639	-1.060137
C174	C	-0.253172	-0.768639	-0.810137
C175	C	-0.003172	-0.518639	-0.560137
C176	C	0.246828	-0.268639	-0.310137
C177	C	-0.503290	-1.018589	-0.739759
C178	C	-0.253290	-0.768589	-0.489759
C179	C	-0.003290	-0.518589	-0.239759
C180	C	0.246710	-0.268589	0.010241
C181	C	-0.503413	-1.018503	-0.208387
C182	C	-0.253413	-0.768503	0.041613
C183	C	-0.003413	-0.518503	0.291613
C184	C	0.246587	-0.268503	0.541613
C185	C	-0.503149	-1.018650	-0.126565
C186	C	-0.253149	-0.768650	0.123435
C187	C	-0.003149	-0.518650	0.373435
C188	C	0.246851	-0.268650	0.623435
H189	H	-0.898309	-1.066232	-0.351957
H190	H	-0.648309	-0.816232	-0.101957
H191	H	-0.398309	-0.566232	0.148043
H192	H	-0.148309	-0.316232	0.398043
H193	H	-0.381955	-1.114891	-0.958854
H194	H	-0.131955	-0.864891	-0.708854
H195	H	0.118045	-0.614891	-0.458854
H196	H	0.368045	-0.364891	-0.208854
Br197	Br	-1.137160	-0.942775	-0.475370
Br198	Br	-0.887160	-0.692775	-0.225370
Br199	Br	-0.637160	-0.442775	0.024630
Br200	Br	-0.387160	-0.192775	0.274630
H201	H	-1.070135	-1.095684	-0.322648
H202	H	-0.820135	-0.845684	-0.072648
H203	H	-0.570135	-0.595684	0.177352
H204	H	-0.320135	-0.345684	0.427352
H205	H	-0.382009	-1.114872	-0.819432
H206	H	-0.132009	-0.864872	-0.569432
H207	H	0.117991	-0.614872	-0.319432
H208	H	0.367991	-0.364872	-0.069432
H209	H	-0.624450	-0.922355	-0.980476
H210	H	-0.374450	-0.672355	-0.730476
H211	H	-0.124450	-0.422355	-0.480476
H212	H	0.125550	-0.172355	-0.230476
Br213	Br	-0.660786	-0.893509	-0.823404
Br214	Br	-0.410786	-0.643509	-0.573404
Br215	Br	-0.160786	-0.393509	-0.323404
Br216	Br	0.089214	-0.143509	-0.073404
Br217	Br	-0.965338	-0.913335	-0.504668
Br218	Br	-0.715338	-0.663335	-0.254668
Br219	Br	-0.465338	-0.413335	-0.004668
Br220	Br	-0.215338	-0.163335	0.245332
Br221	Br	-0.661163	-0.414207	-0.524468
Br222	Br	-0.411163	-0.164207	-0.274468
Br223	Br	-0.161163	0.085793	-0.024468
Br224	Br	0.088837	0.335793	0.225532
H225	H	-0.624833	-0.577745	-0.495693
H226	H	-0.374833	-0.327745	-0.245693
H227	H	-0.124833	-0.077745	0.004307
H228	H	0.125167	0.172255	0.254307
Br229	Br	-0.345667	-0.623561	-0.274748
Br230	Br	-0.095667	-0.373561	-0.024748
Br231	Br	0.154333	-0.123561	0.225252
Br232	Br	0.404333	0.126439	0.475252
Br233	Br	-0.345691	-0.442391	-0.274766
Br234	Br	-0.095691	-0.192391	-0.024766
Br235	Br	0.154309	0.057609	0.225234
Br236	Br	0.404309	0.307609	0.475234
