data_functionalizedCrystal
_audit_creation_method	'MofGen! by Chris Wilmer'
_symmetry_space_group_name_H-M	'P1'
_symmetry_Int_Tables_number	1
_symmetry_cell_setting	triclinic
loop_
_symmetry_equiv_pos_as_xyz
  x,y,z
_cell_length_a	18.215407
_cell_length_b	18.215405
_cell_length_c	18.215398
_cell_angle_alpha	89.976051
_cell_angle_beta	90.017408
_cell_angle_gamma	89.982358
loop_
_atom_site_label
_atom_site_type_symbol
_atom_site_fract_x
_atom_site_fract_y
_atom_site_fract_z
Zn1	Zn	-1.125084	-0.293096	-0.416083
Zn2	Zn	-1.124999	-0.416162	-0.293020
Zn3	Zn	-1.002017	-0.293104	-0.293035
Zn4	Zn	-1.001988	-0.416116	-0.416049
O5	O	-1.063522	-0.354620	-0.354547
O6	O	-1.228057	-0.309437	-0.399766
O7	O	-1.108662	-0.399861	-0.190038
O8	O	-1.018390	-0.190119	-0.309378
O9	O	-1.227995	-0.399853	-0.309352
O10	O	-1.108806	-0.190113	-0.399781
O11	O	-1.018308	-0.309451	-0.190049
O12	O	-0.899029	-0.309406	-0.309345
O13	O	-1.018341	-0.399775	-0.519038
O14	O	-0.899008	-0.399783	-0.399723
O15	O	-1.108778	-0.309392	-0.519063
O16	O	-1.108634	-0.519140	-0.309320
O17	O	-1.018259	-0.519106	-0.399709
C18	C	-0.872316	-0.354591	-0.354532
C19	C	-0.790517	-0.354596	-0.354544
C20	C	-0.602354	-0.307608	-0.401695
C21	C	-0.525496	-0.307612	-0.401697
C22	C	-0.525442	-0.401620	-0.307404
C23	C	-0.602299	-0.401612	-0.307399
C24	C	-0.640754	-0.354607	-0.354549
C25	C	-0.487037	-0.354619	-0.354556
C26	C	-0.403704	-0.354624	-0.354557
C27	C	-0.724093	-0.354601	-0.354546
C28	C	-1.063454	-0.545826	-0.354525
C29	C	-1.063492	-0.627625	-0.354540
C30	C	-1.063566	-0.354577	-0.546500
C31	C	-1.063584	-0.354559	-0.628299
C32	C	-0.255475	-0.354641	-0.354560
C33	C	-0.337274	-0.354630	-0.354561
C34	C	-1.110616	-0.892622	-0.401685
C35	C	-1.110591	-0.815763	-0.401674
C36	C	-1.016523	-0.815877	-0.307451
C37	C	-1.016551	-0.892734	-0.307459
C38	C	-1.063597	-0.931104	-0.354580
C39	C	-1.063543	-0.777388	-0.354561
C40	C	-1.063516	-0.694055	-0.354548
C41	C	-1.063625	-1.014443	-0.354592
C42	C	-1.063611	-0.162667	-0.354585
C43	C	-1.063648	-0.080868	-0.354601
C44	C	-1.110665	-0.401545	-0.893355
C45	C	-1.110654	-0.401570	-0.816496
C46	C	-1.016559	-0.307432	-0.816491
C47	C	-1.016567	-0.307411	-0.893348
C48	C	-1.063624	-0.354466	-0.931778
C49	C	-1.063605	-0.354513	-0.778062
C50	C	-1.063593	-0.354540	-0.694729
C51	C	-1.063636	-0.354440	-1.015117
C52	C	-1.063521	-0.354609	-0.163340
C53	C	-1.063645	-0.354419	-0.081542
H54	H	-0.633565	-0.439886	-0.269002
C55	C	-1.162368	-0.934830	-0.453509
H56	H	-1.155648	-0.986116	-0.446774
H57	H	-1.211816	-0.922206	-0.442784
H58	H	-1.151556	-0.922215	-0.502947
C59	C	-1.162309	-0.773431	-0.453489
H60	H	-1.155562	-0.722162	-0.446732
H61	H	-1.151511	-0.786007	-0.502927
H62	H	-1.211770	-0.786002	-0.442764
H63	H	-0.978257	-0.269072	-0.924633
H64	H	-0.978218	-0.784628	-0.269087
H65	H	-0.978262	-0.924067	-0.269097
C66	C	-1.162398	-0.453356	-0.774230
H67	H	-1.155650	-0.446637	-0.722952
H68	H	-1.211851	-0.442587	-0.786835
H69	H	-1.151604	-0.502800	-0.786821
H70	H	-1.148982	-0.439861	-0.924643
C71	C	-0.483260	-0.255916	-0.453562
H72	H	-0.517172	-0.227927	-0.481644
H73	H	-0.453274	-0.223815	-0.425471
H74	H	-0.453284	-0.284119	-0.485583
H75	H	-0.633662	-0.269331	-0.440086
C76	C	-0.964807	-0.255668	-0.774216
H77	H	-0.971545	-0.262417	-0.722939
H78	H	-0.915356	-0.266427	-0.786798
H79	H	-0.975606	-0.206217	-0.786823
H80	H	-0.494123	-0.439891	-0.269017
