data_functionalizedCrystal
_audit_creation_method	'MofGen! by Chris Wilmer'
_symmetry_space_group_name_H-M	'P1'
_symmetry_Int_Tables_number	1
_symmetry_cell_setting	triclinic
loop_
_symmetry_equiv_pos_as_xyz
  x,y,z
_cell_length_a	14.853567
_cell_length_b	10.268362
_cell_length_c	14.853569
_cell_angle_alpha	90.006454
_cell_angle_beta	83.635248
_cell_angle_gamma	90.001612
loop_
_atom_site_label
_atom_site_type_symbol
_atom_site_fract_x
_atom_site_fract_y
_atom_site_fract_z
O1	O	1.196365	0.108214	0.117705
O2	O	0.933906	0.108237	0.131726
O3	O	1.072146	0.108212	-0.006514
O4	O	1.058126	0.108238	0.255945
O5	O	1.072134	-0.108388	-0.006520
O6	O	0.933894	-0.108364	0.131720
O7	O	1.196353	-0.108387	0.117699
Cu8	Cu	1.065123	-0.128153	0.124709
Cu9	Cu	1.065137	0.128003	0.124716
O10	O	1.058114	-0.108362	0.255939
C11	C	0.900311	-0.000061	0.131088
C12	C	0.800228	-0.000053	0.129184
N13	N	1.065119	-0.308319	0.124704
C14	C	0.387693	-0.000091	0.039019
C15	C	0.366413	-0.000073	0.203251
C16	C	0.460447	-0.000069	0.205041
C17	C	0.518108	-0.000073	0.123819
C18	C	0.481736	-0.000082	0.040806
C19	C	0.496826	-0.000046	0.288053
C20	C	0.590866	-0.000041	0.289846
C21	C	0.648529	-0.000055	0.208622
C22	C	0.612151	-0.000065	0.125606
C23	C	0.669813	-0.000070	0.044384
C24	C	0.633437	-0.000090	-0.038633
C25	C	0.539399	-0.000096	-0.040417
C26	C	0.742566	-0.000048	0.210407
C27	C	0.763855	-0.000062	0.046172
C28	C	1.065132	-0.573989	0.124714
C29	C	1.065122	-0.426151	0.124711
C30	C	1.229948	-0.000086	0.118337
C31	C	1.330032	-0.000086	0.120241
C32	C	1.071504	-0.000088	-0.040106
C33	C	1.069600	-0.000090	-0.140189
N34	N	1.065147	0.308169	0.124714
C35	C	0.986589	-0.000085	-0.176566
C36	C	1.150822	-0.000085	-0.197855
C37	C	1.149035	-0.000079	-0.291890
C38	C	1.066024	-0.000074	-0.328266
C39	C	0.984800	-0.000075	-0.270608
C40	C	1.230258	-0.000065	-0.349554
C41	C	1.228475	-0.000058	-0.443594
C42	C	1.145463	-0.000062	-0.479972
C43	C	1.064235	-0.000064	-0.422309
C44	C	0.981224	-0.000060	-0.458685
C45	C	0.899996	-0.000071	-0.401023
C46	C	0.901788	-0.000079	-0.306987
C47	C	1.143670	-0.000054	-0.574009
C48	C	0.979435	-0.000050	-0.552728
C49	C	1.058755	-0.000059	0.289531
C50	C	1.060660	-0.000049	0.389615
H51	H	0.810798	-0.000071	-0.019971
H52	H	0.620474	-0.000024	0.357443
H53	H	0.772179	-0.000034	0.277998
Cl54	Cl	0.493663	-0.000113	-0.144771
H55	H	0.911837	-0.000058	-0.582338
Cl56	Cl	0.705936	-0.000086	-0.140737
Cl57	Cl	0.799682	-0.000082	-0.234493
Cl58	Cl	0.795643	-0.000049	-0.446765
H59	H	0.920455	-0.000099	-0.129613
Cl60	Cl	1.330589	-0.000052	-0.516075
Cl61	Cl	1.245777	-0.000026	-0.646493
H62	H	1.218405	-0.000115	-0.168231
Cl63	Cl	0.341966	-0.000122	-0.065340
H64	H	1.297841	-0.000149	-0.319929
H65	H	0.319460	-0.000058	0.269379
H66	H	0.449872	-0.000029	0.354179
