data_functionalizedCrystal
_audit_creation_method	'MofGen! by Chris Wilmer'
_symmetry_space_group_name_H-M	'P1'
_symmetry_Int_Tables_number	1
_symmetry_cell_setting	triclinic
loop_
_symmetry_equiv_pos_as_xyz
  x,y,z
_cell_length_a	16.625548
_cell_length_b	16.625546
_cell_length_c	16.625539
_cell_angle_alpha	90.030397
_cell_angle_beta	90.022345
_cell_angle_gamma	90.022327
loop_
_atom_site_label
_atom_site_type_symbol
_atom_site_fract_x
_atom_site_fract_y
_atom_site_fract_z
Zn1	Zn	-1.232680	0.321003	-0.455936
Zn2	Zn	-0.899347	0.654337	-0.122603
Zn3	Zn	-0.566014	0.987670	0.210731
Zn4	Zn	-1.232584	0.455846	-0.321098
Zn5	Zn	-0.899250	0.789180	0.012235
Zn6	Zn	-0.565917	1.122513	0.345569
Zn7	Zn	-1.097842	0.321031	-0.321112
Zn8	Zn	-0.764509	0.654364	0.012221
Zn9	Zn	-0.431176	0.987698	0.345554
Zn10	Zn	-1.097813	0.455797	-0.455884
Zn11	Zn	-0.764479	0.789131	-0.122550
Zn12	Zn	-0.431146	1.122464	0.210783
O13	O	-1.165230	0.388419	-0.388507
O14	O	-0.831896	0.721753	-0.055174
O15	O	-0.498563	1.055086	0.278159
O16	O	-1.345500	0.338899	-0.438065
O17	O	-1.012167	0.672233	-0.104732
O18	O	-0.678833	1.005566	0.228601
O19	O	-1.214682	0.437995	-0.208268
O20	O	-0.881348	0.771328	0.125066
O21	O	-0.548015	1.104662	0.458399
O22	O	-1.115782	0.208195	-0.339024
O23	O	-0.782448	0.541528	-0.005691
O24	O	-0.449115	0.874862	0.327642
O25	O	-1.345429	0.437968	-0.339001
O26	O	-1.012096	0.771301	-0.005667
O27	O	-0.678762	1.104635	0.327666
O28	O	-1.214847	0.208174	-0.438079
O29	O	-0.881513	0.541508	-0.104746
O30	O	-0.548180	0.874841	0.228588
O31	O	-1.115688	0.338947	-0.208278
O32	O	-0.782355	0.672280	0.125055
O33	O	-0.449021	1.005613	0.458389
O34	O	-0.985006	0.338899	-0.338974
O35	O	-0.651673	0.672233	-0.005641
O36	O	-0.318339	1.005566	0.327693
O37	O	-1.115731	0.437884	-0.568723
O38	O	-0.782398	0.771218	-0.235390
O39	O	-0.449065	1.104551	0.097943
O40	O	-0.984984	0.437911	-0.437990
O41	O	-0.651651	0.771245	-0.104657
O42	O	-0.318318	1.104578	0.228676
O43	O	-1.214818	0.338852	-0.568761
O44	O	-0.881485	0.672185	-0.235428
O45	O	-0.548151	1.005518	0.097905
O46	O	-1.214653	0.568672	-0.338950
O47	O	-0.881320	0.902006	-0.005617
O48	O	-0.547986	1.235339	0.327717
O49	O	-1.115637	0.568636	-0.437977
O50	O	-0.782304	0.901969	-0.104643
O51	O	-0.448971	1.235303	0.228690
C52	C	-0.955739	0.388404	-0.388478
C53	C	-0.622406	0.721737	-0.055145
C54	C	-0.289072	1.055070	0.278188
C55	C	-0.866118	0.388416	-0.388485
C56	C	-0.532784	0.721749	-0.055152
C57	C	-0.199451	1.055083	0.278181
C58	C	-1.165153	0.597910	-0.388474
C59	C	-0.831820	0.931244	-0.055140
C60	C	-0.498487	1.264577	0.278193
C61	C	-1.165195	0.687531	-0.388486
C62	C	-0.831861	1.020865	-0.055153
C63	C	-0.498528	1.354198	0.278180
C64	C	-0.537942	0.388414	-0.388509
C65	C	-0.204609	0.721748	-0.055176
C66	C	0.128724	1.055081	0.278157
C67	C	-0.629251	0.388413	-0.388500
C68	C	-0.295917	0.721746	-0.055167
C69	C	0.037416	1.055079	0.278167
C70	C	-0.702027	0.388416	-0.388497
C71	C	-0.368694	0.721749	-0.055163
C72	C	-0.035360	1.055082	0.278170
C73	C	-0.793341	0.388413	-0.388489
C74	C	-0.460008	0.721746	-0.055155
C75	C	-0.126675	1.055080	0.278178
C76	C	-1.165282	0.388359	-0.598816
C77	C	-0.831949	0.721693	-0.265483
C78	C	-0.498616	1.055026	0.067850
C79	C	-1.165305	0.388334	-0.688438
C80	C	-0.831971	0.721667	-0.355104
C81	C	-0.498638	1.055000	-0.021771
C82	C	-0.375539	0.388431	-0.388529
C83	C	-0.042205	0.721764	-0.055196
C84	C	0.291128	1.055097	0.278137
C85	C	-0.465160	0.388422	-0.388519
C86	C	-0.131826	0.721755	-0.055185
C87	C	0.201507	1.055089	0.278148
C88	C	-1.165328	0.178111	-0.388559
C89	C	-0.831995	0.511444	-0.055226
C90	C	-0.498662	0.844777	0.278108
C91	C	-1.165370	0.088489	-0.388581
C92	C	-0.832037	0.421823	-0.055248
C93	C	-0.498704	0.755156	0.278086
C94	C	-1.165335	1.015707	-0.388570
C95	C	-0.832002	1.349040	-0.055237
C96	C	-0.498669	1.682374	0.278096
C97	C	-1.165294	0.924399	-0.388549
C98	C	-0.831960	1.257732	-0.055216
C99	C	-0.498627	1.591065	0.278118
C100	C	-1.165264	0.851622	-0.388528
C101	C	-0.831931	1.184955	-0.055194
C102	C	-0.498598	1.518289	0.278139
C103	C	-1.165224	0.760308	-0.388508
C104	C	-0.831891	1.093641	-0.055174
C105	C	-0.498557	1.426975	0.278159
C106	C	-1.165342	0.388243	-1.016614
C107	C	-0.832008	0.721577	-0.683280
C108	C	-0.498675	1.054910	-0.349947
C109	C	-1.165329	0.388271	-0.925305
C110	C	-0.831996	0.721605	-0.591972
C111	C	-0.498662	1.054938	-0.258638
C112	C	-1.165324	0.388289	-0.852529
C113	C	-0.831990	0.721623	-0.519195
C114	C	-0.498657	1.054956	-0.185862
C115	C	-1.165310	0.388316	-0.761214
C116	C	-0.831977	0.721649	-0.427881
C117	C	-0.498643	1.054982	-0.094548
C118	C	-1.165224	0.388421	-0.179017
C119	C	-0.831891	0.721754	0.154317
C120	C	-0.498557	1.055088	0.487650
C121	C	-1.165358	0.388220	-0.089396
C122	C	-0.832025	0.721553	0.243937
C123	C	-0.498691	1.054886	0.577271
