data_functionalizedCrystal
_audit_creation_method	'MofGen! by Chris Wilmer'
_symmetry_space_group_name_H-M	'P1'
_symmetry_Int_Tables_number	1
_symmetry_cell_setting	triclinic
loop_
_symmetry_equiv_pos_as_xyz
  x,y,z
_cell_length_a	16.120484
_cell_length_b	12.759401
_cell_length_c	12.759393
_cell_angle_alpha	89.983263
_cell_angle_beta	92.862882
_cell_angle_gamma	92.927176
loop_
_atom_site_label
_atom_site_type_symbol
_atom_site_fract_x
_atom_site_fract_y
_atom_site_fract_z
Zn1	Zn	-0.331816	1.584974	-0.615095
Zn2	Zn	-0.471253	1.575926	-0.448308
Zn3	Zn	-0.331863	1.409273	-0.439443
Zn4	Zn	-0.471193	1.400326	-0.623951
O5	O	-0.401531	1.492625	-0.531699
O6	O	-0.350317	1.730795	-0.592974
O7	O	-0.452808	1.553776	-0.300114
O8	O	-0.215192	1.440112	-0.455327
O9	O	-0.452762	1.724147	-0.470436
O10	O	-0.215156	1.569198	-0.584377
O11	O	-0.350399	1.431338	-0.293600
O12	O	-0.350341	1.261066	-0.463914
O13	O	-0.452660	1.424862	-0.769794
O14	O	-0.452706	1.254492	-0.599472
O15	O	-0.350259	1.560523	-0.763288
O16	O	-0.587911	1.545101	-0.479024
O17	O	-0.587867	1.416088	-0.608068
C18	C	-0.618139	1.478670	-0.545492
C19	C	-0.710804	1.472796	-0.551428
C20	C	-0.401523	1.219658	-0.531693
C21	C	-0.401539	1.102880	-0.531716
C22	C	-0.401447	1.492704	-0.805727
C23	C	-0.401411	1.492737	-0.922502
C24	C	-0.880465	1.462078	-0.562287
C25	C	-0.921757	1.523359	-0.501129
C26	C	-1.016162	1.517396	-0.507171
C27	C	-0.786052	1.468041	-0.556246
C28	C	-0.184078	1.506662	-0.517875
C29	C	-0.091413	1.512644	-0.511984
C30	C	-0.401541	1.766657	-0.531706
C31	C	-0.401545	1.883434	-0.531709
C32	C	-0.454883	1.934836	-0.467916
C33	C	-0.454878	2.044560	-0.467917
C34	C	-0.348195	2.051470	-0.595511
C35	C	-0.348196	1.941748	-0.595505
C36	C	-0.508231	1.876521	-0.404121
C37	C	-0.561574	1.927924	-0.340324
C38	C	-0.561569	2.037648	-0.340324
C39	C	-0.508222	2.095970	-0.404121
C40	C	-0.348087	1.563385	-0.973977
C41	C	-0.348056	1.563412	-1.083699
C42	C	-0.454683	1.422140	-1.090461
C43	C	-0.454709	1.422109	-0.980741
C44	C	-0.294789	1.634014	-0.915738
C45	C	-0.241461	1.704668	-0.967213
C46	C	-0.241431	1.704695	-1.076935
C47	C	-0.294729	1.634068	-1.135182
C48	C	-0.401555	1.492610	-0.258733
C49	C	-0.401356	1.492795	-0.141944
H50	H	-0.916013	1.405140	-0.619178
H51	H	-0.886207	1.580301	-0.444232
H52	H	-0.294810	1.634002	-0.826396
H53	H	-0.198062	1.762164	-0.919781
O54	O	-0.294697	1.634082	-1.253527
H55	H	-0.311549	1.712239	-1.283539
O56	O	-0.183904	1.780893	-1.132445
H57	H	-0.141464	1.736620	-1.179724
O58	O	-0.508228	1.758177	-0.404114
H59	H	-0.554278	1.726261	-0.349030
O60	O	-0.619093	2.093096	-0.271512
H61	H	-0.656189	2.034109	-0.227156
O62	O	-0.619108	1.865029	-0.271510
H63	H	-0.610157	1.780096	-0.282231
H64	H	-0.508216	2.185315	-0.404108
O65	O	-0.290664	2.114367	-0.664327
H66	H	-0.299630	2.199299	-0.653621
H67	H	-0.498076	1.364638	-1.137895
H68	H	-0.498118	1.364565	-0.938828
O69	O	-0.290674	1.886294	-0.664313
H70	H	-0.253587	1.945275	-0.708688
