data_functionalizedCrystal
_audit_creation_method	'MofGen! by Chris Wilmer'
_symmetry_space_group_name_H-M	'P1'
_symmetry_Int_Tables_number	1
_symmetry_cell_setting	triclinic
loop_
_symmetry_equiv_pos_as_xyz
  x,y,z
_cell_length_a	10.654554
_cell_length_b	17.699103
_cell_length_c	9.730223
_cell_angle_alpha	89.993717
_cell_angle_beta	89.999030
_cell_angle_gamma	83.888951
loop_
_atom_site_label
_atom_site_type_symbol
_atom_site_fract_x
_atom_site_fract_y
_atom_site_fract_z
O1	O	1.665982	0.106315	-0.114331
O2	O	2.165982	0.606315	0.385669
O3	O	1.300328	0.116439	-0.114330
O4	O	1.800328	0.616439	0.385670
O5	O	1.493473	0.001255	-0.114304
O6	O	1.993473	0.501255	0.385696
O7	O	1.472837	0.221500	-0.114357
O8	O	1.972837	0.721500	0.385643
O9	O	1.493471	0.001258	0.114276
O10	O	1.993471	0.501258	0.614276
O11	O	1.300326	0.116442	0.114250
O12	O	1.800326	0.616442	0.614250
O13	O	1.665980	0.106318	0.114249
O14	O	2.165980	0.606318	0.614249
Zn15	Zn	1.483153	0.111381	0.150541
Zn16	Zn	1.983153	0.611381	0.650541
Zn17	Zn	1.483155	0.111377	-0.150623
Zn18	Zn	1.983155	0.611377	0.349377
O19	O	1.472835	0.221503	0.114223
O20	O	1.972835	0.721503	0.614223
C21	C	1.253542	0.115697	-0.000040
C22	C	1.753542	0.615697	0.499960
C23	C	1.114138	0.113470	-0.000038
C24	C	1.614138	0.613470	0.499962
C25	C	0.932828	0.041465	-0.000039
C26	C	1.432828	0.541465	0.499961
C27	C	1.063813	0.043557	-0.000025
C28	C	1.563813	0.543557	0.499975
C29	C	1.033470	0.181297	-0.000050
C30	C	1.533470	0.681297	0.499950
C31	C	0.902487	0.179205	-0.000054
C32	C	1.402487	0.679205	0.499946
C33	C	0.950348	-0.038058	-0.000030
C34	C	1.450348	0.461942	0.499970
C35	C	1.081333	-0.035967	-0.000017
C36	C	1.581333	0.464033	0.499983
C37	C	1.492728	-0.026945	-0.000011
C38	C	1.992728	0.473055	0.499989
C39	C	1.490497	-0.110977	0.000001
C40	C	1.990497	0.389023	0.500001
C41	C	1.476853	-0.626777	-0.124688
C42	C	1.976853	-0.126777	0.375312
C43	C	1.478947	-0.547820	-0.124676
C44	C	1.978947	-0.047820	0.375324
C45	C	1.479991	-0.508353	-0.000069
C46	C	1.979991	-0.008353	0.499931
C47	C	1.478952	-0.547848	0.124535
C48	C	1.978952	-0.047848	0.624535
C49	C	1.476867	-0.626804	0.124521
C50	C	1.976867	-0.126804	0.624521
C51	C	1.487364	-0.229428	0.124592
C52	C	1.987364	0.270572	0.624592
C53	C	1.489446	-0.150467	0.124596
C54	C	1.989446	0.349533	0.624596
C55	C	1.489445	-0.150444	-0.124605
C56	C	1.989445	0.349556	0.375395
C57	C	1.487359	-0.229400	-0.124618
C58	C	1.987359	0.270600	0.375382
C59	C	1.486328	-0.268889	-0.000016
C60	C	1.986328	0.231111	0.499984
C61	C	1.484059	-0.354502	-0.000031
C62	C	1.984059	0.145498	0.499969
C63	C	1.482250	-0.422740	-0.000053
C64	C	1.982250	0.077260	0.499947
C65	C	1.712766	0.107061	-0.000045
C66	C	2.212766	0.607061	0.499955
C67	C	1.852170	0.109287	-0.000055
C68	C	2.352170	0.609287	0.499945
C69	C	1.473580	0.249703	-0.000074
C70	C	1.973580	0.749703	0.499926
C71	C	1.475811	0.333734	-0.000094
C72	C	1.975811	0.833734	0.499906
N73	N	1.483160	0.111383	0.356078
N74	N	1.983160	0.611383	0.856078
N75	N	1.483158	0.111369	-0.356159
N76	N	1.983158	0.611369	0.143841
C77	C	1.568706	0.060397	0.428015
C78	C	2.068706	0.560397	0.928015
C79	C	1.568703	0.060387	0.571898
C80	C	2.068703	0.560387	1.071898
C81	C	1.397603	0.162357	0.571893
C82	C	1.897603	0.662357	1.071893
C83	C	1.397601	0.162362	0.428013
C84	C	1.897601	0.662362	0.928013
C85	C	1.667492	0.001527	0.428019
C86	C	2.167492	0.501527	0.928019
C87	C	1.667489	0.001518	0.571902
C88	C	2.167489	0.501518	1.071902
H89	H	0.915161	-0.063382	-0.098721
H90	H	1.415161	0.436618	0.401279
C91	C	1.490599	-0.107001	-0.261672
C92	C	1.990599	0.392999	0.238328
N93	N	1.491469	-0.074281	-0.364907
N94	N	1.991469	0.425719	0.135093
H95	H	1.327932	0.203873	0.369443
H96	H	1.827932	0.703873	0.869443
C97	C	1.486210	-0.272854	0.261658
C98	C	1.986210	0.227146	0.761658
N99	N	1.485334	-0.305565	0.364904
N100	N	1.985334	0.194435	0.864904
H101	H	1.647061	-0.056646	0.388979
H102	H	2.147061	0.443354	0.888979
C103	C	1.475716	-0.670242	0.261584
C104	C	1.975716	-0.170242	0.761584
N105	N	1.474853	-0.702958	0.364824
N106	N	1.974853	-0.202958	0.864824
H107	H	0.921525	-0.069159	0.095631
H108	H	1.421525	0.430841	0.595631
C109	C	1.143559	-0.068432	0.133323
C110	C	1.643559	0.431568	0.633323
N111	N	1.190429	-0.092883	0.233753
N112	N	1.690429	0.407117	0.733753
H113	H	1.123612	-0.065928	-0.095672
H114	H	1.623612	0.434072	0.404328
C115	C	1.475718	-0.670183	-0.261768
C116	C	1.975718	-0.170183	0.238232
N117	N	1.474873	-0.702876	-0.365021
N118	N	1.974873	-0.202876	0.134979
C119	C	1.480092	-0.504385	-0.261739
C120	C	1.980092	-0.004385	0.238261
N121	N	1.480956	-0.471671	-0.364981
N122	N	1.980956	0.028329	0.135019
C123	C	1.486262	-0.272812	-0.261696
C124	C	1.986262	0.227188	0.238304
N125	N	1.485460	-0.305512	-0.364945
N126	N	1.985460	0.194488	0.135055
C127	C	1.490603	-0.107056	0.261680
C128	C	1.990603	0.392944	0.761680
N129	N	1.491476	-0.074358	0.364927
N130	N	1.991476	0.425642	0.864927
C131	C	1.480094	-0.504432	0.261604
C132	C	1.980094	-0.004432	0.761604
N133	N	1.480946	-0.471730	0.364848
N134	N	1.980946	0.028270	0.864848
H135	H	1.327943	0.203863	0.630479
H136	H	1.827943	0.703863	1.130479
H137	H	1.758356	0.019961	0.383388
H138	H	2.258356	0.519961	0.883388
H139	H	1.637932	-0.053455	0.616531
H140	H	2.137932	0.446545	1.116531
C141	C	1.797533	0.019095	0.624659
C142	C	2.297533	0.519095	1.124659
N143	N	1.895466	0.032357	0.664395
N144	N	2.395466	0.532357	1.164395
H145	H	0.836819	0.234433	-0.000051
H146	H	1.336819	0.734433	0.499949
H147	H	1.074454	0.238223	-0.000048
H148	H	1.574454	0.738223	0.499952
