data_functionalizedCrystal
_audit_creation_method	'MofGen! by Chris Wilmer'
_symmetry_space_group_name_H-M	'P1'
_symmetry_Int_Tables_number	1
_symmetry_cell_setting	triclinic
loop_
_symmetry_equiv_pos_as_xyz
  x,y,z
_cell_length_a	18.050591
_cell_length_b	19.121063
_cell_length_c	18.050583
_cell_angle_alpha	92.401387
_cell_angle_beta	89.977979
_cell_angle_gamma	92.465257
loop_
_atom_site_label
_atom_site_type_symbol
_atom_site_fract_x
_atom_site_fract_y
_atom_site_fract_z
Zn1	Zn	1.122689	-0.279636	-0.432625
Zn2	Zn	1.456022	0.053697	-0.099292
Zn3	Zn	1.789356	0.387031	0.234041
Zn4	Zn	1.117299	-0.397107	-0.313726
Zn5	Zn	1.450633	-0.063774	0.019607
Zn6	Zn	1.783966	0.269560	0.352941
Zn7	Zn	0.998504	-0.279667	-0.308438
Zn8	Zn	1.331838	0.053666	0.024895
Zn9	Zn	1.665171	0.387000	0.358229
Zn10	Zn	0.993161	-0.397042	-0.437858
Zn11	Zn	1.326495	-0.063708	-0.104525
Zn12	Zn	1.659828	0.269625	0.228808
O13	O	1.057914	-0.338363	-0.373162
O14	O	1.391247	-0.005030	-0.039829
O15	O	1.724580	0.328304	0.293505
O16	O	1.225898	-0.295233	-0.416876
O17	O	1.559231	0.038100	-0.083543
O18	O	1.892565	0.371434	0.249791
O19	O	1.101522	-0.381568	-0.209102
O20	O	1.434855	-0.048235	0.124232
O21	O	1.768188	0.285098	0.457565
O22	O	1.019470	-0.181379	-0.320508
O23	O	1.352803	0.151954	0.012825
O24	O	1.686136	0.485288	0.346158
O25	O	1.221938	-0.381538	-0.329521
O26	O	1.555272	-0.048205	0.003812
O27	O	1.888605	0.285128	0.337146
O28	O	1.110707	-0.181356	-0.411749
O29	O	1.444041	0.151977	-0.078415
O30	O	1.777374	0.485310	0.254918
O31	O	1.014243	-0.295286	-0.205216
O32	O	1.347577	0.038048	0.128117
O33	O	1.680910	0.371381	0.461450
O34	O	0.893872	-0.295223	-0.325583
O35	O	1.227205	0.038111	0.007751
O36	O	1.560538	0.371444	0.341084
O37	O	1.010363	-0.381427	-0.541087
O38	O	1.343696	-0.048094	-0.207754
O39	O	1.677029	0.285239	0.125580
O40	O	0.889946	-0.381457	-0.420668
O41	O	1.223279	-0.048124	-0.087334
O42	O	1.556613	0.285209	0.245999
O43	O	1.105526	-0.295170	-0.537242
O44	O	1.438860	0.038163	-0.203909
O45	O	1.772193	0.371497	0.129424
O46	O	1.096340	-0.495382	-0.334595
O47	O	1.429674	-0.162049	-0.001262
O48	O	1.763007	0.171285	0.332071
O49	O	1.005137	-0.495334	-0.425795
O50	O	1.338470	-0.162001	-0.092462
O51	O	1.671803	0.171333	0.240872
C52	C	0.864963	-0.338337	-0.373120
C53	C	1.198296	-0.005003	-0.039786
C54	C	1.531629	0.328330	0.293547
C55	C	0.782417	-0.338342	-0.373120
C56	C	1.115750	-0.005009	-0.039787
C57	C	1.449083	0.328324	0.293547
C58	C	0.585082	-0.291394	-0.321525
C59	C	0.918415	0.041940	0.011809
C60	C	1.251748	0.375273	0.345142
C61	C	0.532772	-0.355457	-0.306134
C62	C	0.866106	-0.022124	0.027200
C63	C	1.199439	0.311210	0.360533
C64	C	0.631285	-0.338364	-0.373154
C65	C	0.964619	-0.005030	-0.039821
C66	C	1.297952	0.328303	0.293512
C67	C	0.536512	-0.274323	-0.388544
C68	C	0.869845	0.059011	-0.055211
C69	C	1.203178	0.392344	0.278122
C70	C	0.485299	-0.338379	-0.373186
C71	C	0.818633	-0.005045	-0.039853
C72	C	1.151966	0.328288	0.293481
C73	C	0.580062	-0.402461	-0.357730
C74	C	0.913395	-0.069127	-0.024396
C75	C	1.246728	0.264206	0.308937
C76	C	0.583807	-0.321283	-0.440170
C77	C	0.917141	0.012050	-0.106837
C78	C	1.250474	0.345383	0.226497
C79	C	0.531518	-0.385391	-0.424807
C80	C	0.864852	-0.052058	-0.091473
C81	C	1.198185	0.281276	0.241860
C82	C	0.715384	-0.338354	-0.373134
C83	C	1.048717	-0.005021	-0.039801
C84	C	1.382051	0.328312	0.293532
C85	C	0.401202	-0.338395	-0.373207
C86	C	0.734535	-0.005062	-0.039873
C87	C	1.067869	0.328271	0.293460
C88	C	1.049594	-0.520842	-0.381353
C89	C	1.382927	-0.187509	-0.048020
C90	C	1.716261	0.145825	0.285314
C91	C	1.046103	-0.598907	-0.384882
C92	C	1.379436	-0.265574	-0.051549
C93	C	1.712770	0.067759	0.281784
C94	C	1.091985	-0.635584	-0.339097
C95	C	1.425318	-0.302251	-0.005763
C96	C	1.758651	0.031083	0.327570
C97	C	1.088706	-0.708935	-0.342420
C98	C	1.422039	-0.375601	-0.009087
C99	C	1.755372	-0.042268	0.324246
C100	C	1.039541	-0.745607	-0.391526
C101	C	1.372874	-0.412274	-0.058193
C102	C	1.706207	-0.078940	0.275141
C103	C	0.993657	-0.708925	-0.437316
C104	C	1.326990	-0.375592	-0.103983
C105	C	1.660324	-0.042258	0.229350
C106	C	0.996940	-0.635576	-0.433996
C107	C	1.330274	-0.302242	-0.100663
C108	C	1.663607	0.031091	0.232671
C109	C	1.027253	-0.967075	-0.403928
C110	C	1.360586	-0.633741	-0.070595
C111	C	1.693920	-0.300408	0.262739
C112	C	1.023972	-1.040429	-0.407243
C113	C	1.357305	-0.707096	-0.073910
C114	C	1.690638	-0.373762	0.259424
C115	C	1.119022	-1.040434	-0.312347
C116	C	1.452355	-0.707100	0.020986
C117	C	1.785688	-0.373767	0.354319
C118	C	1.122297	-0.967083	-0.309028
C119	C	1.455631	-0.633749	0.024305
C120	C	1.788964	-0.300416	0.357638
C121	C	1.076417	-0.930407	-0.354822
C122	C	1.409750	-0.597074	-0.021488
C123	C	1.743083	-0.263741	0.311845
C124	C	1.036186	-0.820583	-0.394923
C125	C	1.369519	-0.487250	-0.061589
C126	C	1.702853	-0.153917	0.271744
C127	C	1.079775	-0.855432	-0.351428
C128	C	1.413109	-0.522099	-0.018095
C129	C	1.746442	-0.188766	0.315238
C130	C	1.251618	-0.338390	-0.373205
C131	C	1.584951	-0.005056	-0.039871
C132	C	1.918285	0.328277	0.293462
C133	C	1.334163	-0.338401	-0.373223
C134	C	1.667496	-0.005068	-0.039890
C135	C	2.000830	0.328266	0.293444
C136	C	1.057950	-0.338288	-0.566864
C137	C	1.391283	-0.004955	-0.233531
C138	C	1.724616	0.328379	0.099802
C139	C	1.057965	-0.338256	-0.649409
C140	C	1.391298	-0.004923	-0.316075
C141	C	1.724632	0.328411	0.017258
C142	C	1.066286	-0.155171	-0.364955
C143	C	1.399619	0.178162	-0.031622
C144	C	1.732952	0.511495	0.301712
C145	C	1.069853	-0.077106	-0.361458
C146	C	1.403187	0.256227	-0.028124
C147	C	1.736520	0.589561	0.305209
C148	C	1.109766	-0.291327	-0.846768
C149	C	1.443099	0.042007	-0.513434
C150	C	1.776432	0.375340	-0.180101
C151	C	1.042808	-0.274132	-0.895381
C152	C	1.376141	0.059201	-0.562048
C153	C	1.709474	0.392534	-0.228714
C154	C	1.057995	-0.338244	-0.800538
C155	C	1.391329	-0.004911	-0.467205
C156	C	1.724662	0.328423	-0.133872
C157	C	1.124983	-0.355393	-0.899005
C158	C	1.458316	-0.022060	-0.565672
C159	C	1.791650	0.311273	-0.232338
C160	C	1.058031	-0.338231	-0.946523
C161	C	1.391364	-0.004898	-0.613190
C162	C	1.724697	0.328436	-0.279856
C163	C	0.991003	-0.321017	-0.848063
C164	C	1.324336	0.012317	-0.514730
C165	C	1.657670	0.345650	-0.181396
C166	C	1.073222	-0.402308	-0.851684
C167	C	1.406556	-0.068974	-0.518351
C168	C	1.739889	0.264359	-0.185017
C169	C	1.006217	-0.385138	-0.900276
C170	C	1.339550	-0.051804	-0.566943
C171	C	1.672883	0.281529	-0.233610
C172	C	1.057976	-0.338250	-0.716440
C173	C	1.391310	-0.004916	-0.383107
C174	C	1.724643	0.328417	-0.049774
C175	C	1.058042	-0.338225	-1.030619
C176	C	1.391376	-0.004892	-0.697286
C177	C	1.724709	0.328441	-0.363953
C178	C	1.057922	-0.338387	-0.180211
C179	C	1.391256	-0.005054	0.153122
C180	C	1.724589	0.328280	0.486456
C181	C	1.058060	-0.338221	-0.097658
C182	C	1.391393	-0.004888	0.235675
C183	C	1.724727	0.328446	0.569009
H184	H	0.517247	-0.220165	-0.401523
H185	H	0.850580	0.113169	-0.068190
H186	H	1.183914	0.446502	0.265144
N187	N	0.616152	-0.238835	-0.263641
N188	N	0.949486	0.094498	0.069692
N189	N	1.282819	0.427831	0.403026
H190	H	0.574084	-0.215311	-0.237066
H191	H	0.907417	0.118022	0.096268
H192	H	1.240751	0.451356	0.429601
H193	H	0.646578	-0.263674	-0.226742
H194	H	0.979911	0.069660	0.106591
H195	H	1.313244	0.402993	0.439924
N196	N	0.977761	-0.927526	-0.453311
N197	N	1.311094	-0.594193	-0.119978
N198	N	1.644428	-0.260859	0.213356
H199	H	0.944727	-0.897141	-0.421719
H200	H	1.278060	-0.563807	-0.088385
H201	H	1.611393	-0.230474	0.244948
H202	H	1.009332	-0.897086	-0.486374
H203	H	1.342665	-0.563753	-0.153040
H204	H	1.675998	-0.230419	0.180293
N205	N	0.503110	-0.374615	-0.231086
N206	N	0.836444	-0.041282	0.102248
N207	N	1.169777	0.292052	0.435581
H208	H	0.522307	-0.338880	-0.192166
H209	H	0.855640	-0.005546	0.141167
H210	H	1.188973	0.327787	0.474501
H211	H	0.447138	-0.375330	-0.231990
H212	H	0.780472	-0.041997	0.101343
H213	H	1.113805	0.291336	0.434677
N214	N	0.940631	-0.748475	-0.490284
N215	N	1.273964	-0.415142	-0.156951
N216	N	1.607297	-0.081808	0.176383
H217	H	0.945509	-0.800507	-0.485439
H218	H	1.278843	-0.467174	-0.152105
H219	H	1.612176	-0.133841	0.181228
H220	H	0.888171	-0.735698	-0.478091
H221	H	1.221505	-0.402365	-0.144758
H222	H	1.554838	-0.069031	0.188575
N223	N	0.605398	-0.474231	-0.340418
N224	N	0.938732	-0.140898	-0.007084
N225	N	1.272065	0.192436	0.326249
H226	H	0.661370	-0.473777	-0.340490
H227	H	0.994704	-0.140444	-0.007157
H228	H	1.328037	0.192889	0.326176
H229	H	0.586318	-0.487201	-0.289990
H230	H	0.919651	-0.153868	0.043343
H231	H	1.252984	0.179465	0.376677
H232	H	1.086112	-0.456475	-0.832379
H233	H	1.419446	-0.123142	-0.499046
H234	H	1.752779	0.210191	-0.165713
N235	N	0.970942	-1.079981	-0.460213
N236	N	1.304275	-0.746648	-0.126879
N237	N	1.637608	-0.413315	0.206454
H238	H	0.999742	-1.110370	-0.496029
H239	H	1.333075	-0.777036	-0.162695
H240	H	1.666409	-0.443703	0.170638
H241	H	0.935192	-1.110418	-0.431319
H242	H	1.268525	-0.777085	-0.097986
H243	H	1.601858	-0.443752	0.235348
H244	H	0.959580	-0.605714	-0.471280
H245	H	1.292913	-0.272381	-0.137947
H246	H	1.626246	0.060953	0.195386
N247	N	0.500630	-0.438068	-0.482664
N248	N	0.833963	-0.104735	-0.149331
N249	N	1.167297	0.228598	0.184002
H250	H	0.516491	-0.486406	-0.470955
H251	H	0.849824	-0.153073	-0.137621
H252	H	1.183157	0.180261	0.195712
H253	H	0.444711	-0.437439	-0.482628
H254	H	0.778044	-0.104106	-0.149295
H255	H	1.111378	0.229228	0.184038
H256	H	1.029939	-0.219950	-0.914670
H257	H	1.363272	0.113384	-0.581337
H258	H	1.696606	0.446717	-0.248004
N259	N	0.948182	-0.437686	-0.931128
N260	N	1.281516	-0.104353	-0.597795
N261	N	1.614849	0.228980	-0.264462
H262	H	0.911225	-0.412902	-0.961533
H263	H	1.244558	-0.079568	-0.628199
H264	H	1.577892	0.253765	-0.294866
H265	H	0.972855	-0.474193	-0.963531
H266	H	1.306188	-0.140860	-0.630197
H267	H	1.639521	0.192474	-0.296864
H268	H	0.934354	-0.306443	-0.825801
H269	H	1.267687	0.026890	-0.492468
H270	H	1.601020	0.360223	-0.159135
N271	N	0.613491	-0.302114	-0.515201
N272	N	0.946824	0.031219	-0.181868
N273	N	1.280158	0.364553	0.151465
H274	H	0.597763	-0.253698	-0.526770
H275	H	0.931097	0.079635	-0.193437
H276	H	1.264430	0.412969	0.139896
H277	H	0.669407	-0.302745	-0.514716
H278	H	1.002741	0.030588	-0.181383
H279	H	1.336074	0.363922	0.151950
H280	H	1.162331	-0.937226	-0.269043
H281	H	1.495665	-0.603892	0.064291
H282	H	1.828998	-0.270559	0.397624
N283	N	1.145010	-0.596033	-0.286130
N284	N	1.478344	-0.262699	0.047204
N285	N	1.811677	0.070634	0.380537
H286	H	1.173580	-0.630401	-0.257631
H287	H	1.506913	-0.297067	0.075702
H288	H	1.840246	0.036266	0.409035
H289	H	1.180723	-0.565551	-0.315017
H290	H	1.514056	-0.232218	0.018317
H291	H	1.847390	0.101115	0.351650
N292	N	1.138192	-0.748494	-0.293038
N293	N	1.471525	-0.415161	0.040296
N294	N	1.804858	-0.081828	0.373629
H295	H	1.169832	-0.714132	-0.261422
H296	H	1.503165	-0.380799	0.071911
H297	H	1.836498	-0.047466	0.405245
H298	H	1.106617	-0.778977	-0.260021
H299	H	1.439950	-0.445644	0.073312
H300	H	1.773284	-0.112311	0.406646
H301	H	1.156376	-1.070303	-0.275066
H302	H	1.489710	-0.736969	0.058267
H303	H	1.823043	-0.403636	0.391600
N304	N	1.132799	-0.815877	-0.298467
N305	N	1.466133	-0.482544	0.034866
N306	N	1.799466	-0.149210	0.368200
H307	H	1.120724	-0.828689	-0.245972
H308	H	1.454057	-0.495355	0.087361
H309	H	1.787391	-0.162022	0.420694
H310	H	1.185266	-0.828607	-0.310690
H311	H	1.518599	-0.495274	0.022643
H312	H	1.851933	-0.161941	0.355976
N313	N	0.983154	-0.860142	-0.447877
N314	N	1.316487	-0.526809	-0.114544
N315	N	1.649821	-0.193476	0.218789
H316	H	0.930668	-0.847427	-0.435710
H317	H	1.264002	-0.514094	-0.102376
H318	H	1.597335	-0.180760	0.230957
H319	H	0.995286	-0.847315	-0.500353
H320	H	1.328619	-0.513981	-0.167019
H321	H	1.661952	-0.180648	0.166314
N322	N	1.199999	-0.374620	-0.928614
N323	N	1.533332	-0.041287	-0.595281
N324	N	1.866666	0.292047	-0.261947
H325	H	1.239049	-0.339150	-0.909089
H326	H	1.572382	-0.005816	-0.575756
H327	H	1.905716	0.327517	-0.242422
H328	H	1.211822	-0.422682	-0.912004
H329	H	1.545155	-0.089349	-0.578671
H330	H	1.878488	0.243984	-0.245337
H331	H	1.153479	-0.251625	-0.823337
H332	H	1.486812	0.081708	-0.490004
H333	H	1.820145	0.415042	-0.156670
