data_functionalizedCrystal
_audit_creation_method	'MofGen! by Chris Wilmer'
_symmetry_space_group_name_H-M	'P1'
_symmetry_Int_Tables_number	1
_symmetry_cell_setting	triclinic
loop_
_symmetry_equiv_pos_as_xyz
  x,y,z
_cell_length_a	14.044191
_cell_length_b	14.044190
_cell_length_c	10.268362
_cell_angle_alpha	89.989939
_cell_angle_beta	89.997935
_cell_angle_gamma	93.191777
loop_
_atom_site_label
_atom_site_type_symbol
_atom_site_fract_x
_atom_site_fract_y
_atom_site_fract_z
O1	O	1.277178	0.230201	-0.108264
O2	O	1.777178	0.730201	0.391736
O3	O	1.000506	0.221889	-0.108280
O4	O	1.500506	0.721889	0.391720
O5	O	1.134686	0.087709	-0.108247
O6	O	1.634686	0.587709	0.391753
O7	O	1.142998	0.364381	-0.108297
O8	O	1.642998	0.864381	0.391703
O9	O	1.134672	0.087702	0.108354
O10	O	1.634672	0.587702	0.608354
O11	O	1.000493	0.221882	0.108321
O12	O	1.500493	0.721882	0.608321
O13	O	1.277165	0.230194	0.108336
O14	O	1.777165	0.730194	0.608336
Cu15	Cu	1.138828	0.226037	0.128106
Cu16	Cu	1.638828	0.726037	0.628106
Cu17	Cu	1.138843	0.226046	-0.128049
Cu18	Cu	1.638843	0.726046	0.371951
O19	O	1.142985	0.364374	0.108303
O20	O	1.642985	0.864374	0.608303
C21	C	0.964877	0.218249	0.000019
C22	C	1.464877	0.718249	0.500019
C23	C	0.858734	0.207401	0.000014
C24	C	1.358734	0.707401	0.500014
C25	C	1.131043	0.052083	0.000057
C26	C	1.631043	0.552083	0.500057
C27	C	1.120195	-0.054060	0.000068
C28	C	1.620195	0.445940	0.500068
C29	C	0.613277	0.264502	0.000017
C30	C	1.113277	0.764502	0.500017
C31	C	0.664400	0.187585	0.000028
C32	C	1.164400	0.687585	0.500028
C33	C	0.772537	0.198614	0.000020
C34	C	1.272537	0.698614	0.500020
C35	C	0.505130	0.253475	0.000025
C36	C	1.005130	0.753475	0.500025
C37	C	1.177296	-0.299517	0.000020
C38	C	1.677296	0.200483	0.500020
C39	C	1.100379	-0.248394	0.000025
C40	C	1.600379	0.251606	0.500025
C41	C	1.111408	-0.140257	0.000049
C42	C	1.611408	0.359743	0.500049
C43	C	1.166269	-0.407664	-0.000004
C44	C	1.666269	0.092336	0.499996
C45	C	1.312794	0.233834	0.000035
C46	C	1.812794	0.733834	0.500035
C47	C	1.418937	0.244682	0.000031
C48	C	1.918937	0.744682	0.500031
C49	C	1.146628	0.400000	-0.000004
C50	C	1.646628	0.900000	0.499996
C51	C	1.157476	0.506143	-0.000023
C52	C	1.657476	1.006143	0.499977
N53	N	1.138824	0.226031	0.308272
N54	N	1.638824	0.726031	0.808272
N55	N	1.138854	0.226045	-0.308215
N56	N	1.638854	0.726045	0.191785
C57	C	1.138838	0.226043	0.573942
C58	C	1.638838	0.726043	1.073942
C59	C	1.138827	0.226039	0.426104
C60	C	1.638827	0.726039	0.926104
H61	H	0.626955	0.113453	-0.000050
H62	H	1.126955	0.613453	0.499950
C63	C	0.663855	0.364647	-0.000029
C64	C	1.163855	0.864647	0.499971
C65	C	0.773563	0.375675	-0.000054
C66	C	1.273563	0.875675	0.499946
C67	C	0.824155	0.475818	-0.000111
C68	C	1.324155	0.975818	0.499889
C69	C	0.765038	0.564933	-0.000142
C70	C	1.265038	1.064933	0.499858
C71	C	0.655323	0.553907	-0.000116
C72	C	1.155323	1.053907	0.499884
C73	C	0.604731	0.453764	-0.000060
C74	C	1.104731	0.953764	0.499940
H75	H	0.817331	0.309705	-0.000031
H76	H	1.317331	0.809705	0.499969
H77	H	0.905374	0.483980	-0.000130
H78	H	1.405374	0.983980	0.499870
H79	H	0.802489	0.639065	-0.000184
H80	H	1.302489	1.139065	0.499816
H81	H	0.611555	0.619878	-0.000139
H82	H	1.111555	1.119878	0.499861
H83	H	0.523512	0.445603	-0.000041
H84	H	1.023512	0.945603	0.499959
C85	C	1.277440	-0.248939	0.000051
C86	C	1.777440	0.251061	0.500051
C87	C	1.288469	-0.139230	0.000084
C88	C	1.788469	0.360770	0.500084
C89	C	1.388612	-0.088639	0.000121
C90	C	1.888612	0.411361	0.500121
C91	C	1.477727	-0.147756	0.000125
C92	C	1.977727	0.352244	0.500125
C93	C	1.466701	-0.257471	0.000091
C94	C	1.966701	0.242529	0.500091
C95	C	1.366558	-0.308063	0.000055
C96	C	1.866558	0.191937	0.500055
H97	H	1.222498	-0.095463	0.000082
H98	H	1.722498	0.404537	0.500082
H99	H	1.396774	-0.007420	0.000146
H100	H	1.896774	0.492580	0.500146
H101	H	1.551859	-0.110305	0.000152
H102	H	2.051859	0.389695	0.500152
H103	H	1.532672	-0.301239	0.000094
H104	H	2.032672	0.198761	0.500094
H105	H	1.358397	-0.389281	0.000030
H106	H	1.858397	0.110719	0.500030
H107	H	1.026247	-0.285839	0.000013
H108	H	1.526247	0.214161	0.500013
