data_functionalizedCrystal
_audit_creation_method	'MofGen! by Chris Wilmer'
_symmetry_space_group_name_H-M	'P1'
_symmetry_Int_Tables_number	1
_symmetry_cell_setting	triclinic
loop_
_symmetry_equiv_pos_as_xyz
  x,y,z
_cell_length_a	14.971486
_cell_length_b	17.699083
_cell_length_c	14.048226
_cell_angle_alpha	89.992674
_cell_angle_beta	89.998499
_cell_angle_gamma	83.448572
loop_
_atom_site_label
_atom_site_type_symbol
_atom_site_fract_x
_atom_site_fract_y
_atom_site_fract_z
O1	O	1.186608	0.098633	-0.079053
O2	O	0.926167	0.110445	-0.079079
O3	O	1.063746	-0.005632	-0.079057
O4	O	1.049030	0.214710	-0.079075
O5	O	1.063729	-0.005639	0.079264
O6	O	0.926151	0.110438	0.079242
O7	O	1.186591	0.098626	0.079268
Zn8	Zn	1.056368	0.104531	0.104392
Zn9	Zn	1.056390	0.104540	-0.104203
O10	O	1.049013	0.214703	0.079246
C11	C	0.892836	0.109913	0.000078
C12	C	0.793544	0.108330	0.000068
C13	C	0.736085	0.176522	0.000064
C14	C	0.642790	0.175030	0.000078
C15	C	0.606958	0.105346	0.000090
C16	C	0.664425	0.037148	0.000097
C17	C	0.757717	0.038641	0.000090
C18	C	0.469973	0.034042	0.000111
C19	C	0.376674	0.032549	0.000117
C20	C	0.355046	0.170431	0.000099
C21	C	0.448339	0.171924	0.000092
C22	C	0.505799	0.103726	0.000097
C23	C	1.063210	-0.033834	0.000104
C24	C	1.061628	-0.117856	0.000104
C25	C	1.142384	-0.166278	0.000113
C26	C	1.140892	-0.245225	0.000105
C27	C	1.058644	-0.275748	0.000094
C28	C	0.977882	-0.227320	0.000081
C29	C	0.979375	-0.148374	0.000083
C30	C	0.971860	-0.545698	0.000073
C31	C	0.970374	-0.624649	0.000074
C32	C	1.133378	-0.642548	0.000095
C33	C	1.134871	-0.563603	0.000096
C34	C	1.054109	-0.515181	0.000079
C35	C	1.055728	-0.429578	0.000087
C36	C	1.057024	-0.361350	0.000093
C37	C	1.219923	0.099158	0.000109
C38	C	1.319214	0.100741	0.000112
C39	C	1.049549	0.242905	0.000083
C40	C	1.051131	0.326927	0.000077
N41	N	1.056360	0.104524	0.246753
N42	N	1.056406	0.104541	-0.246564
C43	C	1.117299	0.053147	0.296581
C44	C	1.117305	0.053146	0.396238
C45	C	1.056376	0.104528	0.446066
C46	C	0.995431	0.155908	0.396231
C47	C	0.995421	0.155904	0.296576
C48	C	0.995456	0.155913	0.603946
C49	C	0.995467	0.155918	0.703608
C50	C	1.117340	0.053156	0.703608
C51	C	1.117331	0.053152	0.603953
C52	C	1.056386	0.104533	0.554125
H53	H	1.209360	-0.141433	0.000128
O54	O	0.525827	-0.032185	0.000282
C55	C	0.643754	-0.110510	0.082264
C56	C	0.580538	-0.035491	0.082207
H57	H	0.688018	-0.113200	0.148483
H58	H	0.602163	-0.160601	0.082330
H59	H	0.687926	-0.113243	0.015972
H60	H	0.536354	-0.032683	0.148488
H61	H	0.622183	0.014565	0.082091
H62	H	0.596010	0.230559	0.000074
O63	O	0.629575	-0.030525	-0.000059
C64	C	0.536754	-0.112206	-0.082039
C65	C	0.576175	-0.035547	-0.081987
H66	H	0.493556	-0.116285	-0.148261
H67	H	0.593813	-0.160721	-0.082097
H68	H	0.493656	-0.116343	-0.015749
H69	H	0.619262	-0.031336	-0.148266
H70	H	0.519073	0.012930	-0.081880
H71	H	0.945816	0.197741	0.436807
O72	O	0.936194	0.205887	0.248317
C73	C	0.815278	0.307784	0.258828
C74	C	0.882323	0.251232	0.313597
H75	H	0.771693	0.344449	0.311583
H76	H	0.853755	0.345699	0.212182
H77	H	0.770706	0.275025	0.212161
H78	H	0.926911	0.283929	0.360316
H79	H	0.843789	0.213317	0.360183
H80	H	0.308257	0.225960	0.000099
H81	H	0.906099	-0.506282	0.000059
O82	O	0.898063	-0.257093	0.000112
C83	C	0.823518	-0.370777	0.000050
C84	C	0.913977	-0.337163	0.000033
H85	H	0.836353	-0.435517	-0.000034
H86	H	0.783599	-0.350900	0.066318
H87	H	0.783628	-0.350790	-0.066196
H88	H	0.953940	-0.357135	0.066235
H89	H	0.953828	-0.357036	-0.066279
H90	H	0.347502	-0.024194	0.000127
H91	H	0.903394	-0.649498	0.000067
H92	H	0.913615	-0.108949	0.000075
O93	O	1.219399	-0.292182	-0.000008
C94	C	1.358260	-0.331651	-0.082033
C95	C	1.269389	-0.278419	-0.082011
H96	H	1.398693	-0.320554	-0.148335
H97	H	1.398794	-0.320540	-0.015812
H98	H	1.343052	-0.393314	-0.081994
H99	H	1.284515	-0.216737	-0.082083
H100	H	1.228881	-0.289596	-0.148227
O101	O	1.211915	-0.689479	0.000141
C102	C	1.373756	-0.698897	0.000105
C103	C	1.284884	-0.645666	0.000072
H104	H	1.432774	-0.663497	0.000029
H105	H	1.377189	-0.736301	0.066375
H106	H	1.377093	-0.736311	-0.066139
H107	H	1.281487	-0.608205	0.066272
H108	H	1.281488	-0.608315	-0.066242
O109	O	1.176521	0.003161	0.248330
C110	C	1.297435	-0.098737	0.258860
C111	C	1.230402	-0.042178	0.313618
H112	H	1.341028	-0.135398	0.311621
H113	H	1.258947	-0.136657	0.212244
H114	H	1.341999	-0.065985	0.212163
H115	H	1.185820	-0.074868	0.360366
H116	H	1.268946	-0.004260	0.360174
H117	H	1.201846	-0.538756	0.000110
H118	H	1.166963	0.011319	0.744184
H119	H	1.166925	0.011310	0.436808
O120	O	0.813501	-0.027621	-0.000079
C121	C	0.860498	-0.145028	-0.082062
C122	C	0.797288	-0.070006	-0.082005
H123	H	0.847400	-0.179324	-0.148282
H124	H	0.933349	-0.132035	-0.082129
H125	H	0.847498	-0.179288	-0.015770
H126	H	0.810207	-0.035708	-0.148286
H127	H	0.724459	-0.083051	-0.081889
H128	H	1.166948	0.011317	0.563383
H129	H	0.945826	0.197751	0.563379
O130	O	0.770740	0.244281	0.000094
C131	C	0.739430	0.380883	0.000026
C132	C	0.700068	0.304198	0.000011
H133	H	0.682312	0.429346	-0.000061
H134	H	0.782538	0.385079	0.066295
H135	H	0.782594	0.384991	-0.066220
H136	H	0.656865	0.300037	0.066212
H137	H	0.657012	0.300035	-0.066301
O138	O	0.936183	0.205847	0.751866
C139	C	0.815306	0.307778	0.741355
C140	C	0.882388	0.251268	0.686586
H141	H	0.771808	0.344527	0.688600
H142	H	0.770654	0.275062	0.787995
H143	H	0.853844	0.345618	0.788028
H144	H	0.843923	0.213415	0.639861
H145	H	0.927039	0.284032	0.640006
H146	H	0.477510	0.228667	0.000073
