data_functionalizedCrystal
_audit_creation_method	'MofGen! by Chris Wilmer'
_symmetry_space_group_name_H-M	'P1'
_symmetry_Int_Tables_number	1
_symmetry_cell_setting	triclinic
loop_
_symmetry_equiv_pos_as_xyz
  x,y,z
_cell_length_a	20.919309
_cell_length_b	19.377369
_cell_length_c	19.377574
_cell_angle_alpha	82.425876
_cell_angle_beta	104.467167
_cell_angle_gamma	45.771252
loop_
_atom_site_label
_atom_site_type_symbol
_atom_site_fract_x
_atom_site_fract_y
_atom_site_fract_z
Zr1	Zr	0.532191	0.733701	0.063963
O2	O	0.376238	0.895868	-0.026903
O3	O	0.593286	0.579762	0.073300
O4	O	0.537420	0.733248	-0.049706
O5	O	0.461058	0.739870	0.214197
O6	O	0.649449	0.723530	-0.046627
O7	O	0.432104	0.742382	0.096103
O8	O	0.749383	0.448973	0.173407
O9	O	0.361124	1.014427	-0.005837
O10	O	0.686896	0.632780	0.101953
O11	O	0.624898	0.638157	0.187788
O12	O	0.559123	0.818866	0.042965
O13	O	0.497124	0.824244	0.128800
Zr14	Zr	0.757043	0.714195	0.257220
Zr15	Zr	0.710865	0.718202	0.068873
Zr16	Zr	0.578369	0.729694	0.252310
Zr17	Zr	0.508086	0.922790	0.097561
Zr18	Zr	0.781148	0.525106	0.223623
O19	O	0.695948	0.868133	0.247884
O20	O	0.630289	0.873831	-0.019922
O21	O	0.441897	0.890171	0.240903
O22	O	0.912996	0.552028	0.348086
O23	O	0.847337	0.557725	0.080280
O24	O	0.658945	0.574065	0.341105
O25	O	0.828176	0.708026	0.106986
O26	O	0.751814	0.714648	0.370889
O27	O	0.639785	0.724366	0.367811
O28	O	0.857130	0.705514	0.225081
O29	O	0.503145	1.002108	-0.001934
O30	O	0.786089	0.445788	0.323118
O31	O	0.928110	0.433468	0.327020
O32	O	0.891405	0.436653	0.177309
O33	O	0.397829	1.011243	0.143874
O34	O	0.539851	0.998923	0.147776
O35	O	0.730111	0.629030	0.278218
O36	O	0.792110	0.623652	0.192383
O37	O	0.664337	0.809739	0.133395
O38	O	0.602338	0.815116	0.219230
C39	C	0.674769	0.487426	0.118566
C40	C	0.685003	0.407153	0.104303
C41	C	0.557263	0.156834	0.281679
C42	C	0.567008	0.081303	0.268342
C43	C	0.631729	0.075699	0.178737
C44	C	0.621994	0.151227	0.192069
C45	C	0.584759	0.191790	0.243540
C46	C	0.649490	0.186183	0.153930
C47	C	0.639751	0.261709	0.167258
C48	C	0.602515	0.302279	0.218724
C49	C	0.575019	0.267316	0.256868
C50	C	0.686718	0.145625	0.102455
C51	C	0.714215	0.180580	0.064316
C52	C	0.704482	0.256102	0.077648
C53	C	0.667246	0.296672	0.129114
C54	C	0.731977	0.291065	0.039504
C55	C	0.722238	0.366591	0.052832
C56	C	0.657506	0.372198	0.142442
C57	C	0.421124	0.743334	0.154450
C58	C	0.345272	0.749914	0.152366
C59	C	0.376329	0.655872	0.182174
C60	C	0.305055	0.662061	0.180214
C61	C	0.202722	0.762292	0.148442
C62	C	0.171665	0.856341	0.118634
C63	C	0.242940	0.850151	0.120599
C64	C	-0.015820	0.785841	0.140974
C65	C	-0.087095	0.792023	0.139009
C66	C	0.046300	0.597743	0.200591
C67	C	0.117570	0.591562	0.202549
C68	C	0.086508	0.685610	0.172745
C69	C	0.129865	0.768621	0.146436
C70	C	0.159365	0.679281	0.174756
C71	C	0.868110	0.704561	0.166733
C72	C	0.943962	0.697982	0.168817
C73	C	0.586856	0.728960	-0.075002
C74	C	0.567252	0.730661	-0.154960
C75	C	0.614465	0.960469	0.202617
C76	C	0.604231	1.040743	0.216880
C77	C	0.811345	0.709483	-0.409474
C78	C	0.792902	0.711085	-0.484608
C79	C	0.669474	0.721791	-0.487982
C80	C	0.687903	0.720195	-0.412848
C81	C	0.758840	0.714040	-0.373600
C82	C	0.635398	0.724752	-0.376973
C83	C	0.653830	0.723151	-0.301844
C84	C	0.724766	0.716993	-0.262590
C85	C	0.777272	0.712438	-0.298471
C86	C	0.564466	0.730900	-0.416221
C87	C	0.511962	0.735457	-0.380346
C88	C	0.530388	0.733864	-0.305218
C89	C	0.601324	0.727705	-0.265964
C90	C	0.477882	0.738418	-0.269337
C91	C	0.496314	0.736817	-0.194209
C92	C	0.619756	0.726104	-0.190835
C93	C	0.702379	0.718936	0.396185
C94	C	0.721982	0.717235	0.476143
C95	C	0.898263	0.468040	0.124707
C96	C	0.984348	0.381187	0.112529
C97	C	0.732531	0.482414	0.354160
C98	C	0.762368	0.400440	0.419855
C99	C	0.956024	0.463028	0.360301
C100	C	1.061713	0.374474	0.428081
C101	C	0.333210	0.984868	-0.039118
C102	C	0.227521	1.073422	-0.106897
C103	C	0.390971	0.979856	0.196476
C104	C	0.304886	1.066709	0.208654
C105	C	0.556703	0.965481	-0.032977
C106	C	0.526866	1.047456	-0.098672
C107	C	0.969852	0.345165	0.059598
C108	C	1.050725	0.263569	0.048139
C109	C	1.146096	0.217991	0.089615
C110	C	1.160590	0.254021	0.142549
C111	C	1.079715	0.335621	0.154003
C112	C	0.831302	0.357180	0.497918
C113	C	0.859335	0.280167	0.559655
C114	C	0.818437	0.246410	0.543326
C115	C	0.749494	0.289679	0.465256
C116	C	0.721458	0.366696	0.403522
C117	C	1.143715	0.330081	0.415106
C118	C	1.243025	0.246885	0.478787
C119	C	1.260330	0.208079	0.555441
C120	C	1.178318	0.252481	0.568415
C121	C	1.079010	0.335680	0.504736
C122	C	0.145518	1.117824	-0.093921
C123	C	0.046205	1.201043	-0.157598
C124	C	0.028899	1.239853	-0.234251
C125	C	0.110912	1.195447	-0.247226
C126	C	0.210222	1.112234	-0.183549
C127	C	0.319380	1.102739	0.261579
C128	C	0.238498	1.184357	0.273021
C129	C	0.143127	1.229937	0.231542
C130	C	0.128634	1.193903	0.178612
C131	C	0.209513	1.112292	0.167166
C132	C	0.567782	1.081187	-0.082319
C133	C	0.539766	1.158199	-0.144041
C134	C	0.470829	1.201484	-0.222114
C135	C	0.429913	1.167745	-0.238466
C136	C	0.457934	1.090729	-0.176746
H137	H	0.544611	0.052848	0.299401
H138	H	1.211941	0.151547	0.080282
H139	H	0.250318	1.213681	0.316124
H140	H	1.038905	0.234244	0.005036
H141	H	0.397031	1.065634	0.295363
H142	H	-0.051970	1.307610	-0.286094
Cl143	Cl	0.678534	0.024703	0.114030
Cl144	Cl	1.121985	0.378854	0.318748
H145	H	0.694640	0.084133	0.091600
Cl146	Cl	0.041461	1.332531	0.245942
Cl147	Cl	0.610704	0.423189	0.207155
Cl148	Cl	0.288012	0.553280	0.214705
H149	H	0.864612	0.384655	0.511228
Cl150	Cl	1.280493	0.196708	0.194689
H151	H	0.071580	0.521174	0.224856
H152	H	0.050972	1.231027	0.144843
H153	H	0.915474	0.244946	0.623217
H154	H	0.096808	1.227057	-0.309645
Cl155	Cl	0.191278	1.067000	0.100633
Cl156	Cl	0.761019	0.129584	-0.000391
Cl157	Cl	0.167247	1.069052	0.002437
H158	H	0.762285	0.258037	-0.002409
Cl159	Cl	0.853696	0.149585	0.620945
H160	H	0.665330	0.401909	0.339960
Cl161	Cl	0.343239	1.222182	-0.336619
Cl162	Cl	0.313305	1.056417	-0.199878
Cl163	Cl	-0.215751	0.918038	0.099055
H164	H	0.744627	0.395053	0.021775
H165	H	1.309791	0.210742	0.468208
H166	H	0.716201	0.262183	0.451972
H167	H	1.012247	0.371815	0.515311
Cl168	Cl	0.406476	1.048344	-0.197316
Cl169	Cl	-0.056879	1.256848	-0.141269
H170	H	0.046538	0.850229	0.120568
Cl171	Cl	0.580301	0.729526	-0.537326
H172	H	1.341198	0.140332	0.607286
Cl173	Cl	0.654451	1.026786	0.015823
H174	H	0.454207	0.740465	-0.412309
H175	H	0.088340	0.937951	0.092770
H176	H	0.677513	0.721103	-0.158881
H177	H	0.739776	0.715684	-0.201414
Cl178	Cl	0.504973	0.529861	0.222113
H179	H	0.573089	1.185660	-0.130711
Cl180	Cl	0.849964	0.402450	0.007443
Cl181	Cl	1.200091	0.203682	0.664786
H182	H	0.420133	0.743419	-0.301300
H183	H	0.448020	1.264195	-0.272364
H184	H	0.544699	0.300344	0.298781
Cl185	Cl	0.510460	0.207826	0.346392
Cl186	Cl	0.590264	0.397232	0.235476
H187	H	0.330352	0.585482	0.204488
H188	H	0.200888	0.509943	0.228404
H189	H	-0.041127	0.862422	0.116690
Cl190	Cl	0.866442	0.704716	-0.249132
Cl191	Cl	0.203894	0.968380	0.083129
H192	H	0.869102	0.704481	-0.377520
H193	H	0.835664	0.707372	-0.513813
Cl194	Cl	0.430309	0.742541	-0.149106
Cl195	Cl	1.097959	0.380889	0.220555
Cl196	Cl	0.541303	0.732906	-0.510667
