data_functionalizedCrystal
_audit_creation_method	'MofGen! by Chris Wilmer'
_symmetry_space_group_name_H-M	'P1'
_symmetry_Int_Tables_number	1
_symmetry_cell_setting	triclinic
loop_
_symmetry_equiv_pos_as_xyz
  x,y,z
_cell_length_a	17.699083
_cell_length_b	11.892095
_cell_length_c	17.699083
_cell_angle_alpha	86.119663
_cell_angle_beta	83.283015
_cell_angle_gamma	93.885077
loop_
_atom_site_label
_atom_site_type_symbol
_atom_site_fract_x
_atom_site_fract_y
_atom_site_fract_z
O1	O	1.008916	0.093846	0.090872
O2	O	0.788539	0.093884	0.103322
O3	O	0.904953	0.093854	-0.013092
O4	O	0.892502	0.093876	0.207286
O5	O	0.895247	-0.094151	-0.003400
O6	O	0.778833	-0.094121	0.113014
O7	O	0.999210	-0.094159	0.100563
Zn8	Zn	0.887480	-0.123990	0.108327
Zn9	Zn	0.900269	0.123715	0.095558
O10	O	0.882796	-0.094129	0.216977
C11	C	0.755490	-0.000114	0.107722
C12	C	0.671472	-0.000100	0.106382
N13	N	0.878758	-0.293042	0.117041
C14	C	0.622852	-0.000094	0.174715
C15	C	0.543907	-0.000109	0.173454
C16	C	0.513586	-0.000122	0.103858
C17	C	0.562213	-0.000132	0.035520
C18	C	0.641155	-0.000125	0.036783
C19	C	0.243848	-0.000160	0.030426
C20	C	0.164900	-0.000163	0.029168
C21	C	0.146601	-0.000144	0.167097
C22	C	0.225543	-0.000137	0.168360
C23	C	0.274162	-0.000153	0.100023
C24	C	0.359762	-0.000139	0.101391
C25	C	0.427988	-0.000128	0.102488
C26	C	0.969691	-0.529713	0.026159
C27	C	0.963600	-0.648053	0.032256
C28	C	0.860481	-0.648065	0.135327
C29	C	0.866572	-0.529725	0.129230
C30	C	0.921180	-0.470553	0.074645
C31	C	0.927274	-0.352210	0.068553
C32	C	0.824152	-0.352224	0.171620
C33	C	0.818061	-0.470565	0.177716
C34	C	1.032260	-0.000158	0.096164
C35	C	1.116277	-0.000165	0.097503
C36	C	0.899654	-0.000149	-0.036443
C37	C	0.898315	-0.000149	-0.120461
N38	N	0.908997	0.292767	0.086838
C39	C	0.966648	-0.000162	-0.169081
C40	C	0.965386	-0.000152	-0.248025
C41	C	0.895791	-0.000137	-0.278347
C42	C	0.827453	-0.000120	-0.229720
C43	C	0.828716	-0.000122	-0.150778
C44	C	0.822358	-0.000110	-0.548084
C45	C	0.821100	-0.000111	-0.627032
C46	C	0.959029	-0.000140	-0.645331
C47	C	0.960292	-0.000142	-0.566389
C48	C	0.891955	-0.000119	-0.517770
C49	C	0.893324	-0.000128	-0.432170
C50	C	0.894420	-0.000136	-0.363944
C51	C	0.888095	-0.000124	0.240328
C52	C	0.889434	-0.000116	0.324346
H53	H	0.647533	-0.000082	0.231388
Br54	Br	1.043809	-0.449405	-0.047908
H55	H	1.021030	-0.000165	-0.287609
Br56	Br	1.029435	-0.728340	-0.033553
Br57	Br	0.266690	-0.000109	0.262814
Br58	Br	0.477925	-0.000096	0.266196
H59	H	0.107005	-0.000137	0.222741
H60	H	1.016963	-0.000160	-0.541705
Br61	Br	0.733001	-0.000080	-0.270871
Br62	Br	1.051774	-0.000170	-0.711318
H63	H	0.537518	-0.000159	-0.021145
H64	H	0.766714	-0.000092	-0.508507
Br65	Br	0.786364	-0.728380	0.209392
Br66	Br	0.309822	-0.000184	-0.062318
Br67	Br	0.123750	-0.000178	-0.065290
Br68	Br	0.707141	-0.000144	-0.055958
Br69	Br	0.726642	-0.000092	-0.668182
Br70	Br	1.001387	-0.271907	-0.005522
H71	H	0.773072	-0.000111	-0.111192
H72	H	0.773598	-0.518756	0.222156
Br73	Br	1.061104	-0.000199	-0.127938
Br74	Br	0.758320	-0.271925	0.237432
