data_functionalizedCrystal
_audit_creation_method	'MofGen! by Chris Wilmer'
_symmetry_space_group_name_H-M	'P1'
_symmetry_Int_Tables_number	1
_symmetry_cell_setting	triclinic
loop_
_symmetry_equiv_pos_as_xyz
  x,y,z
_cell_length_a	18.215407
_cell_length_b	18.215405
_cell_length_c	18.215399
_cell_angle_alpha	89.968171
_cell_angle_beta	89.983176
_cell_angle_gamma	90.024268
loop_
_atom_site_label
_atom_site_type_symbol
_atom_site_fract_x
_atom_site_fract_y
_atom_site_fract_z
Zn1	Zn	1.125056	-0.292966	-0.416108
Zn2	Zn	1.625056	0.207034	0.083892
Zn3	Zn	1.124973	-0.416042	-0.293039
Zn4	Zn	1.624973	0.083958	0.206961
Zn5	Zn	1.001995	-0.292995	-0.293056
Zn6	Zn	1.501995	0.207005	0.206944
Zn7	Zn	1.001956	-0.415996	-0.416064
Zn8	Zn	1.501956	0.084004	0.083936
O9	O	1.063495	-0.354500	-0.354567
O10	O	1.563495	0.145500	0.145433
O11	O	1.228029	-0.309299	-0.399795
O12	O	1.728029	0.190701	0.100205
O13	O	1.108641	-0.399751	-0.190057
O14	O	1.608641	0.100249	0.309943
O15	O	1.018370	-0.190007	-0.309405
O16	O	1.518370	0.309993	0.190595
O17	O	1.227968	-0.399723	-0.309376
O18	O	1.727968	0.100277	0.190624
O19	O	1.108782	-0.189985	-0.399811
O20	O	1.608782	0.310015	0.100189
O21	O	1.018289	-0.309349	-0.190069
O22	O	1.518289	0.190651	0.309931
O23	O	0.899005	-0.309304	-0.309361
O24	O	1.399005	0.190696	0.190639
O25	O	1.018304	-0.399644	-0.519054
O26	O	1.518304	0.100356	-0.019054
O27	O	0.898977	-0.399672	-0.399735
O28	O	1.398977	0.100328	0.100265
O29	O	1.108745	-0.309254	-0.519087
O30	O	1.608745	0.190746	-0.019087
O31	O	1.108604	-0.519020	-0.309333
O32	O	1.608604	-0.019020	0.190667
O33	O	1.018224	-0.518986	-0.399719
O34	O	1.518224	-0.018986	0.100281
C35	C	0.872289	-0.354487	-0.354546
C36	C	1.372289	0.145513	0.145454
C37	C	0.790490	-0.354499	-0.354554
C38	C	1.290490	0.145501	0.145446
C39	C	0.602300	-0.401628	-0.401552
C40	C	1.102300	0.098372	0.098448
C41	C	0.525442	-0.401630	-0.401562
C42	C	1.025442	0.098370	0.098438
C43	C	0.525441	-0.307384	-0.307597
C44	C	1.025441	0.192616	0.192403
C45	C	0.602299	-0.307379	-0.307592
C46	C	1.102299	0.192621	0.192408
C47	C	0.640726	-0.354505	-0.354569
C48	C	1.140726	0.145495	0.145431
C49	C	0.487010	-0.354513	-0.354583
C50	C	0.987010	0.145487	0.145417
C51	C	0.403676	-0.354515	-0.354592
C52	C	0.903676	0.145485	0.145408
C53	C	0.724065	-0.354502	-0.354560
C54	C	1.224065	0.145498	0.145440
C55	C	1.063421	-0.545706	-0.354535
C56	C	1.563421	-0.045706	0.145465
C57	C	1.063456	-0.627505	-0.354546
C58	C	1.563456	-0.127505	0.145454
C59	C	1.110655	-0.892555	-0.307582
C60	C	1.610655	-0.392555	0.192418
C61	C	1.110624	-0.815697	-0.307565
C62	C	1.610624	-0.315697	0.192435
C63	C	1.016426	-0.815702	-0.401602
C64	C	1.516426	-0.315702	0.098398
C65	C	1.016453	-0.892560	-0.401614
C66	C	1.516453	-0.392560	0.098386
C67	C	1.063572	-0.930984	-0.354605
C68	C	1.563572	-0.430984	0.145395
C69	C	1.063514	-0.777268	-0.354576
C70	C	1.563514	-0.277268	0.145424
C71	C	1.063481	-0.693935	-0.354558
C72	C	1.563481	-0.193935	0.145442
C73	C	1.063604	-1.014323	-0.354622
C74	C	1.563604	-0.514323	0.145378
C75	C	1.255448	-0.354513	-0.354588
C76	C	1.755448	0.145487	0.145412
C77	C	1.337247	-0.354518	-0.354598
C78	C	1.837247	0.145482	0.145402
C79	C	1.063530	-0.354441	-0.546520
C80	C	1.563530	0.145559	-0.046520
C81	C	1.063544	-0.354416	-0.628319
C82	C	1.563544	0.145584	-0.128319
C83	C	1.063589	-0.162547	-0.354615
C84	C	1.563589	0.337453	0.145385
C85	C	1.063630	-0.080748	-0.354635
C86	C	1.563630	0.419252	0.145365
C87	C	1.016538	-0.307311	-0.816520
C88	C	1.516538	0.192689	-0.316520
C89	C	1.016551	-0.307297	-0.893379
C90	C	1.516551	0.192703	-0.393379
C91	C	1.110639	-0.401432	-0.893355
C92	C	1.610639	0.098568	-0.393355
C93	C	1.110622	-0.401450	-0.816498
C94	C	1.610622	0.098550	-0.316498
C95	C	1.063572	-0.354386	-0.778082
C96	C	1.563572	0.145614	-0.278082
C97	C	1.063602	-0.354353	-0.931798
C98	C	1.563602	0.145647	-0.431798
C99	C	1.063616	-0.354337	-1.015132
C100	C	1.563616	0.145663	-0.515132
C101	C	1.063557	-0.354402	-0.694743
C102	C	1.563557	0.145598	-0.194743
C103	C	1.063503	-0.354505	-0.163360
C104	C	1.563503	0.145495	0.336640
C105	C	1.063630	-0.354323	-0.081562
C106	C	1.563630	0.145677	0.418438
H107	H	0.633586	-0.439999	-0.439806
H108	H	1.133586	0.060001	0.060194
H109	H	0.978109	-0.923849	-0.439908
H110	H	1.478109	-0.423849	0.060092
Cl111	Cl	0.957388	-0.248148	-0.768229
Cl112	Cl	1.457388	0.251852	-0.268229
Cl113	Cl	0.650609	-0.248129	-0.248527
Cl114	Cl	1.150609	0.251871	0.251473
H115	H	0.978250	-0.268965	-0.924671
H116	H	1.478250	0.231035	-0.424671
Cl117	Cl	1.169785	-0.460594	-0.941654
Cl118	Cl	1.669785	0.039406	-0.441654
Cl119	Cl	1.169752	-0.460637	-0.768172
Cl120	Cl	1.669752	0.039363	-0.268172
H121	H	0.494159	-0.440002	-0.439822
H122	H	0.994159	0.059998	0.060178
Cl123	Cl	1.169886	-0.940858	-0.248482
Cl124	Cl	1.669886	-0.440858	0.251518
Cl125	Cl	0.477127	-0.248145	-0.248542
Cl126	Cl	0.977127	0.251855	0.251458
H127	H	0.978064	-0.784409	-0.439876
H128	H	1.478064	-0.284409	0.060124
H129	H	1.148963	-0.784410	-0.269273
H130	H	1.648963	-0.284410	0.230727
