data_functionalizedCrystal
_audit_creation_method	'MofGen! by Chris Wilmer'
_symmetry_space_group_name_H-M	'P1'
_symmetry_Int_Tables_number	1
_symmetry_cell_setting	triclinic
loop_
_symmetry_equiv_pos_as_xyz
  x,y,z
_cell_length_a	17.699077
_cell_length_b	10.654549
_cell_length_c	16.176319
_cell_angle_alpha	89.994326
_cell_angle_beta	89.993140
_cell_angle_gamma	83.883747
loop_
_atom_site_label
_atom_site_type_symbol
_atom_site_fract_x
_atom_site_fract_y
_atom_site_fract_z
O1	O	1.005093	0.158773	-0.068734
O2	O	0.784845	0.179442	-0.068737
O3	O	0.900031	-0.013720	-0.068732
O4	O	0.889907	0.351935	-0.068739
O5	O	0.900015	-0.013733	0.068761
O6	O	0.784829	0.179430	0.068756
O7	O	1.005077	0.158761	0.068760
Cu8	Cu	0.894951	0.169094	0.081312
Cu9	Cu	0.894970	0.169109	-0.081290
O10	O	0.889891	0.351923	0.068754
C11	C	0.756636	0.178697	0.000009
C12	C	0.672603	0.176479	0.000007
C13	C	0.633120	0.175427	0.074956
C14	C	0.554164	0.173323	0.074957
C15	C	0.514692	0.172279	0.000008
C16	C	0.554181	0.173327	-0.074946
C17	C	0.633136	0.175423	-0.074946
C18	C	0.235763	0.164876	-0.074947
C19	C	0.156802	0.162785	-0.074942
C20	C	0.156792	0.162776	0.074955
C21	C	0.235747	0.164872	0.074955
C22	C	0.275229	0.165913	0.000001
C23	C	0.360843	0.168192	0.000001
C24	C	0.429080	0.170009	0.000007
C25	C	0.899279	-0.060511	0.000013
C26	C	0.897053	-0.199915	0.000011
C27	C	1.030609	-0.492242	0.000017
C28	C	1.100525	-0.441932	0.000020
C29	C	1.102619	-0.310950	0.000019
C30	C	1.034790	-0.230275	0.000017
C31	C	0.964874	-0.280586	0.000015
C32	C	0.962787	-0.411572	0.000013
C33	C	0.827136	-0.250226	0.000008
C34	C	0.825040	-0.381207	0.000003
C35	C	0.759307	-0.169551	0.000006
C36	C	0.689390	-0.219861	-0.000003
C37	C	0.687298	-0.350851	-0.000003
C38	C	0.755124	-0.431518	-0.000000
C39	C	1.033286	0.159506	0.000012
C40	C	1.117319	0.161724	0.000008
C41	C	0.890643	0.398714	0.000007
C42	C	0.892869	0.538118	0.000004
N43	N	0.894944	0.169083	0.195677
N44	N	0.894984	0.169110	-0.195655
C45	C	0.945964	0.083586	0.238944
C46	C	0.945967	0.083584	0.325491
C47	C	0.894954	0.169087	0.368770
C48	C	0.843929	0.254589	0.325497
C49	C	0.843922	0.254583	0.238952
C50	C	0.843955	0.254612	0.674525
C51	C	0.843967	0.254614	0.761077
C52	C	0.946000	0.083614	0.761064
C53	C	0.945993	0.083608	0.674519
C54	C	0.894966	0.169104	0.631254
C55	C	0.894961	0.169103	0.537410
C56	C	0.894962	0.169096	0.462612
H57	H	0.665281	0.176281	-0.135977
H58	H	0.987535	0.013988	0.639284
H59	H	1.159551	-0.269989	0.000026
H60	H	0.761018	-0.062900	0.000010
C61	C	1.175133	-0.530669	0.000019
H62	H	1.217071	-0.481944	0.000027
H63	H	1.177187	-0.582391	-0.047927
H64	H	1.177174	-0.582400	0.047973
H65	H	0.987511	0.013965	0.360718
C66	C	0.787849	0.348663	0.808687
H67	H	0.795169	0.336428	0.866426
H68	H	0.737267	0.335126	0.794521
H69	H	0.796504	0.432466	0.794493
H70	H	0.987548	0.013994	0.796300
C71	C	0.610391	-0.406189	-0.000004
H72	H	0.618855	-0.495751	0.000001
H73	H	0.582441	-0.378474	-0.047950
H74	H	0.582434	-0.378491	0.047950
H75	H	0.802408	0.324229	0.639306
H76	H	1.036502	-0.123625	0.000027
C77	C	0.752827	-0.575594	0.000002
H78	H	0.803235	-0.616430	0.000010
H79	H	0.726924	-0.599621	-0.047944
H80	H	0.726916	-0.599621	0.047956
H81	H	0.987507	0.013965	0.203711
C82	C	0.113384	0.161632	-0.157389
H83	H	0.148207	0.162541	-0.202029
H84	H	0.077196	0.234020	-0.160507
H85	H	0.087973	0.087604	-0.160496
C86	C	0.787817	0.348643	0.373102
H87	H	0.795133	0.336412	0.430842
H88	H	0.737234	0.335113	0.358934
H89	H	0.796479	0.432440	0.358905
H90	H	0.802376	0.324202	0.203725
H91	H	0.665252	0.176287	0.135987
H92	H	0.522022	0.172445	0.135987
H93	H	0.522037	0.172469	-0.135970
C94	C	0.279163	0.166012	0.157398
H95	H	0.244341	0.165071	0.202036
H96	H	0.304577	0.240028	0.160516
H97	H	0.315351	0.093613	0.160509
H98	H	0.267901	0.165720	-0.135979
C99	C	0.113353	0.161725	0.157404
H100	H	0.060675	0.160347	0.146674
H101	H	0.120921	0.235304	0.188150
H102	H	0.131656	0.088888	0.188247
C103	C	0.614787	-0.131127	-0.000004
H104	H	0.572846	-0.179845	-0.000005
H105	H	0.612749	-0.079386	-0.047947
H106	H	0.612733	-0.079415	0.047953
C107	C	1.028308	-0.636318	0.000010
H108	H	1.078715	-0.677159	0.000014
H109	H	1.002404	-0.660332	-0.047938
H110	H	1.002396	-0.660353	0.047962
