data_functionalizedCrystal
_audit_creation_method	'MofGen! by Chris Wilmer'
_symmetry_space_group_name_H-M	'P1'
_symmetry_Int_Tables_number	1
_symmetry_cell_setting	triclinic
loop_
_symmetry_equiv_pos_as_xyz
  x,y,z
_cell_length_a	10.723024
_cell_length_b	9.616153
_cell_length_c	10.723023
_cell_angle_alpha	90.005515
_cell_angle_beta	84.467709
_cell_angle_gamma	90.001894
loop_
_atom_site_label
_atom_site_type_symbol
_atom_site_fract_x
_atom_site_fract_y
_atom_site_fract_z
O1	O	1.657183	0.115633	0.175031
O2	O	2.157183	0.615633	0.675031
O3	O	1.294031	0.115638	0.191784
O4	O	1.794031	0.615638	0.691784
O5	O	1.483984	0.115630	0.001831
O6	O	1.983984	0.615630	0.501831
O7	O	1.467230	0.115641	0.364984
O8	O	1.967230	0.615641	0.864984
O9	O	1.483977	-0.115662	0.001818
O10	O	1.983977	0.384338	0.501818
O11	O	1.294024	-0.115654	0.191771
O12	O	1.794024	0.384346	0.691771
O13	O	1.657176	-0.115658	0.175018
O14	O	2.157176	0.384342	0.675018
Zn15	Zn	1.475599	-0.152378	0.183392
Zn16	Zn	1.975599	0.347622	0.683392
Zn17	Zn	1.475608	0.152358	0.183410
Zn18	Zn	1.975608	0.652358	0.683410
O19	O	1.467223	-0.115650	0.364970
O20	O	1.967223	0.384350	0.864970
C21	C	1.247528	-0.000007	0.190558
C22	C	1.747528	0.499993	0.690558
C23	C	1.108973	-0.000006	0.186911
C24	C	1.608973	0.499994	0.686911
C25	C	1.033991	-0.000001	0.293198
C26	C	1.533991	0.499999	0.793198
C27	C	0.890787	0.000000	0.289431
C28	C	1.390787	0.500000	0.789431
N29	N	1.475601	-0.360353	0.183379
N30	N	1.975601	0.139647	0.683379
C31	C	1.577593	-0.580684	0.082118
C32	C	2.077593	-0.080684	0.582118
C33	C	1.577318	-0.419516	0.081731
C34	C	2.077318	0.080484	0.581731
C35	C	1.345163	-0.418883	0.153826
C36	C	1.845163	0.081117	0.653826
C37	C	1.345770	-0.580101	0.153116
C38	C	1.845770	-0.080101	0.653116
C39	C	1.502905	-0.580223	0.314550
C40	C	2.002905	-0.080223	0.814550
C41	C	1.505849	-0.418995	0.313691
C42	C	2.005849	0.081005	0.813691
C43	C	1.703679	-0.000010	0.176243
C44	C	2.203679	0.499990	0.676243
C45	C	1.842234	-0.000002	0.179891
C46	C	2.342234	0.499998	0.679891
C47	C	1.482762	-0.000014	-0.044675
C48	C	1.982762	0.499986	0.455325
C49	C	1.479114	-0.000010	-0.183229
C50	C	1.979114	0.499990	0.316771
N51	N	1.475616	0.360333	0.183413
N52	N	1.975616	0.860333	0.683413
C53	C	1.477492	0.119808	-0.244988
C54	C	1.977492	0.619808	0.255012
C55	C	1.473723	0.119815	-0.388191
C56	C	1.973723	0.619815	0.111809
C57	C	1.468445	-0.000003	0.411477
C58	C	1.968445	0.499997	0.911477
C59	C	1.472093	0.000002	0.550031
C60	C	1.972093	0.500002	1.050031
H61	H	1.674242	-0.379942	0.099495
H62	H	2.174242	0.120058	0.599495
Cl63	Cl	1.479686	0.278184	-0.162953
Cl64	Cl	1.979686	0.778184	0.337047
Cl65	Cl	0.791314	0.000017	0.429921
Cl66	Cl	1.291314	0.500017	0.929921
Cl67	Cl	0.941699	0.000003	0.039396
Cl68	Cl	1.441699	0.500003	0.539396
H69	H	1.075812	-0.000006	0.386984
H70	H	1.575812	0.499994	0.886984
H71	H	1.067152	0.000027	0.093125
H72	H	1.567152	0.500027	0.593125
H73	H	1.674841	-0.619445	0.099614
H74	H	2.174841	-0.119445	0.599614
H75	H	1.560292	-0.621217	-0.014624
H76	H	2.060292	-0.121217	0.485376
Cl77	Cl	1.471579	0.278200	-0.470185
Cl78	Cl	1.971579	0.778200	0.029815
H79	H	1.559765	-0.380966	-0.015567
H80	H	2.059765	0.119034	0.484433
H81	H	1.473494	-0.102584	-0.396867
H82	H	1.973494	0.397416	0.103133
Cl83	Cl	1.388114	-0.639123	0.430953
Cl84	Cl	1.888114	-0.139123	0.930953
Cl85	Cl	1.225001	-0.640351	0.262594
Cl86	Cl	1.725001	-0.140351	0.762594
Cl87	Cl	1.646721	-0.642963	0.357976
Cl88	Cl	2.146721	-0.142963	0.857976
Cl89	Cl	1.308901	-0.638190	0.005407
Cl90	Cl	1.808901	-0.138190	0.505407
H91	H	1.601809	-0.380741	0.336091
H92	H	2.101809	0.119259	0.836091
H93	H	1.267402	-0.380562	0.225589
H94	H	1.767402	0.119438	0.725589
Cl95	Cl	1.307424	-0.356578	0.007780
Cl96	Cl	1.807424	0.143422	0.507780
H97	H	1.436470	-0.378718	0.392682
H98	H	1.936470	0.121282	0.892682
H99	H	1.477704	-0.102585	-0.236372
H100	H	1.977704	0.397415	0.263628
