data_functionalizedCrystal
_audit_creation_method	'MofGen! by Chris Wilmer'
_symmetry_space_group_name_H-M	'P1'
_symmetry_Int_Tables_number	1
_symmetry_cell_setting	triclinic
loop_
_symmetry_equiv_pos_as_xyz
  x,y,z
_cell_length_a	19.121424
_cell_length_b	19.120786
_cell_length_c	10.686551
_cell_angle_alpha	96.651844
_cell_angle_beta	91.780155
_cell_angle_gamma	95.008527
loop_
_atom_site_label
_atom_site_type_symbol
_atom_site_fract_x
_atom_site_fract_y
_atom_site_fract_z
Zn1	Zn	1.091153	-0.206762	0.614281
Zn2	Zn	1.591153	0.293238	1.114281
Zn3	Zn	1.076234	-0.334259	0.394622
Zn4	Zn	1.576234	0.165741	0.894622
Zn5	Zn	0.964449	-0.220854	0.411885
Zn6	Zn	1.464449	0.279146	0.911885
Zn7	Zn	0.968432	-0.329428	0.614172
Zn8	Zn	1.468432	0.170572	1.114172
O9	O	1.025067	-0.272826	0.508740
O10	O	1.525067	0.227174	1.008740
O11	O	1.187315	-0.219799	0.577963
O12	O	1.687315	0.280201	1.077963
O13	O	1.053495	-0.327135	0.220326
O14	O	1.553495	0.172865	0.720326
O15	O	0.985833	-0.120188	0.446003
O16	O	1.485833	0.379812	0.946003
O17	O	1.176354	-0.313471	0.416580
O18	O	1.676354	0.186529	0.916580
O19	O	1.078922	-0.109835	0.594702
O20	O	1.578922	0.390165	1.094702
O21	O	0.971367	-0.243817	0.233009
O22	O	1.471367	0.256183	0.733009
O23	O	0.866836	-0.239133	0.445899
O24	O	1.366836	0.260867	0.945899
O25	O	0.992622	-0.305237	0.790773
O26	O	1.492622	0.194763	1.290773
O27	O	0.869762	-0.318902	0.594518
O28	O	1.369762	0.181098	1.094518
O29	O	1.082784	-0.215115	0.790852
O30	O	1.582784	0.284885	1.290852
O31	O	1.057357	-0.432415	0.416476
O32	O	1.557357	0.067585	0.916476
O33	O	0.978156	-0.428866	0.577779
O34	O	1.478156	0.071134	1.077779
C35	C	0.842852	-0.280023	0.522071
C36	C	1.342852	0.219977	1.022071
C37	C	0.764900	-0.283117	0.527802
C38	C	1.264900	0.216883	1.027802
C39	C	0.324103	-0.302678	0.564195
C40	C	0.824103	0.197322	1.064195
C41	C	0.397346	-0.299777	0.558786
C42	C	0.897346	0.200223	1.058786
C43	C	0.432430	-0.256717	0.478842
C44	C	0.932430	0.243283	0.978842
C45	C	0.394267	-0.216560	0.404294
C46	C	0.894267	0.283440	0.904294
C47	C	0.321025	-0.219465	0.409697
C48	C	0.821025	0.280535	0.909697
C49	C	0.653495	-0.245866	0.458657
C50	C	1.153495	0.254134	0.958657
C51	C	0.726743	-0.242962	0.453262
C52	C	1.226743	0.257038	0.953262
C53	C	0.729817	-0.326181	0.607753
C54	C	1.229817	0.173819	1.107753
C55	C	0.656574	-0.329079	0.613155
C56	C	1.156574	0.170921	1.113155
C57	C	0.618417	-0.288925	0.538602
C58	C	1.118417	0.211075	1.038602
C59	C	0.507296	-0.253748	0.473314
C60	C	1.007296	0.246252	0.973314
C61	C	0.543552	-0.291898	0.544124
C62	C	1.043552	0.208102	1.044124
C63	C	1.016590	-0.456256	0.495268
C64	C	1.516590	0.043744	0.995268
C65	C	1.013030	-0.534723	0.489542
C66	C	1.513030	-0.034723	0.989542
C67	C	1.059793	-0.566135	0.564340
C68	C	1.559793	-0.066135	1.064340
C69	C	1.056445	-0.639863	0.558962
C70	C	1.556445	-0.139863	1.058962
C71	C	1.006336	-0.682179	0.478780
C72	C	1.506336	-0.182179	0.978780
C73	C	0.959568	-0.650763	0.403979
C74	C	1.459568	-0.150763	0.903979
C75	C	0.962914	-0.577035	0.409364
C76	C	1.462914	-0.077035	0.909364
C77	C	0.993810	-0.905061	0.458650
C78	C	1.493810	-0.405061	0.958650
C79	C	0.990469	-0.978794	0.453267
C80	C	1.490469	-0.478794	0.953267
C81	C	1.087345	-0.967889	0.608253
C82	C	1.587345	-0.467889	1.108253
C83	C	1.090689	-0.894161	0.613625
C84	C	1.590689	-0.394161	1.113625
C85	C	1.043918	-0.862751	0.538830
C86	C	1.543918	-0.362751	1.038830
C87	C	1.002914	-0.757542	0.473278
C88	C	1.502914	-0.257542	0.973278
C89	C	1.047338	-0.787389	0.544339
C90	C	1.547338	-0.287389	1.044339
C91	C	1.207993	-0.265602	0.495358
C92	C	1.707993	0.234398	0.995358
C93	C	1.285946	-0.262523	0.489655
C94	C	1.785946	0.237477	0.989655
C95	C	1.039811	-0.258065	0.837879
C96	C	1.539811	0.241935	1.337879
C97	C	1.046095	-0.251775	0.978139
C98	C	1.546095	0.248225	1.478139
C99	C	1.033597	-0.088678	0.522291
C100	C	1.533597	0.411322	1.022291
C101	C	1.037232	-0.010205	0.528065
C102	C	1.537232	0.489795	1.028065
C103	C	1.010423	-0.287477	0.180882
C104	C	1.510423	0.212523	0.680882
C105	C	1.004284	-0.293563	0.040627
C106	C	1.504284	0.206437	0.540627
H107	H	0.428411	-0.332478	0.619482
H108	H	0.928411	0.167522	1.119482
Br109	Br	1.113781	-0.184125	1.067814
Br110	Br	1.613781	0.315875	1.567814
Br111	Br	0.601721	-0.191364	0.357489
Br112	Br	1.101721	0.308636	0.857489
H113	H	0.760892	-0.358872	0.668449
H114	H	1.260892	0.141128	1.168449
H115	H	0.535870	-0.218687	0.408226
H116	H	1.035870	0.281313	0.908226
H117	H	0.963684	-0.334154	0.986823
H118	H	1.463684	0.165846	1.486823
Br119	Br	1.150814	-1.010521	0.709759
Br120	Br	1.650814	-0.510521	1.209759
Br121	Br	0.891555	-0.708190	0.295175
Br122	Br	1.391555	-0.208190	0.795175
H123	H	0.628013	-0.364145	0.678251
H124	H	1.128013	0.135855	1.178251
H125	H	0.295544	-0.337739	0.629302
H126	H	0.795544	0.162261	1.129302
H127	H	1.100599	-0.531686	0.629627
H128	H	1.600599	-0.031686	1.129627
H129	H	0.422838	-0.181502	0.339196
H130	H	0.922838	0.318498	0.839196
Br131	Br	0.899444	-0.534404	0.307855
Br132	Br	1.399444	-0.034404	0.807855
Br133	Br	0.774356	-0.184520	0.344757
Br134	Br	1.274356	0.315480	0.844757
H135	H	1.094529	-0.665435	0.619860
H136	H	1.594529	-0.165435	1.119860
H137	H	1.088134	-0.752933	0.609629
H138	H	1.588134	-0.252933	1.109629
H139	H	1.131491	-0.859708	0.678916
H140	H	1.631491	-0.359708	1.178916
H141	H	0.289958	-0.186765	0.349002
H142	H	0.789958	0.313235	0.849002
Br143	Br	0.922464	-1.036223	0.344432
Br144	Br	1.422464	-0.536223	0.844432
H145	H	0.514983	-0.326960	0.609210
H146	H	1.014983	0.173040	1.109210
Br147	Br	0.930327	-0.862442	0.357157
Br148	Br	1.430327	-0.362442	0.857157
H149	H	0.962118	-0.792004	0.407989
H150	H	1.462118	-0.292004	0.907989
