data_functionalizedCrystal
_audit_creation_method	'MofGen! by Chris Wilmer'
_symmetry_space_group_name_H-M	'P1'
_symmetry_Int_Tables_number	1
_symmetry_cell_setting	triclinic
loop_
_symmetry_equiv_pos_as_xyz
  x,y,z
_cell_length_a	12.784905
_cell_length_b	12.811415
_cell_length_c	9.482900
_cell_angle_alpha	94.039455
_cell_angle_beta	81.701790
_cell_angle_gamma	78.600455
loop_
_atom_site_label
_atom_site_type_symbol
_atom_site_fract_x
_atom_site_fract_y
_atom_site_fract_z
O1	O	1.426632	-0.011149	-0.119434
O2	O	1.118168	0.032921	-0.125244
O3	O	1.277472	-0.139670	-0.102484
O4	O	1.267328	0.161443	-0.142195
O5	O	1.245116	-0.104484	0.134669
O6	O	1.085813	0.068107	0.111908
O7	O	1.394276	0.024037	0.117718
Cu8	Cu	1.237090	0.049285	0.136467
Cu9	Cu	1.275354	0.007673	-0.143993
O10	O	1.234972	0.196629	0.094958
C11	C	1.062455	0.053380	-0.007046
C12	C	0.944653	0.061908	-0.008170
C13	C	0.744364	-0.111842	0.014718
C14	C	0.633679	-0.103834	0.013662
C15	C	0.612598	0.085929	-0.011348
C16	C	0.723283	0.077921	-0.010292
C17	C	0.789162	-0.020968	0.002744
C18	C	0.899848	-0.028973	0.003810
C19	C	0.878766	0.160788	-0.021211
C20	C	0.768081	0.168796	-0.022267
C21	C	1.259734	-0.160354	0.021137
C22	C	1.255073	-0.274403	0.036169
C23	C	1.281572	-0.527065	-0.194158
C24	C	1.277193	-0.634226	-0.180041
C25	C	1.241928	-0.595886	0.078518
C26	C	1.246307	-0.488725	0.064401
C27	C	1.266131	-0.454319	-0.071941
C28	C	1.270518	-0.347158	-0.086057
C29	C	1.235245	-0.308819	0.172501
C30	C	1.230866	-0.415979	0.186618
C31	C	1.449989	0.003578	-0.000483
C32	C	1.567792	-0.004952	0.000632
C33	C	1.252711	0.217311	-0.028666
C34	C	1.257373	0.331359	-0.043708
N35	N	1.210185	0.078551	0.333728
N36	N	1.302267	-0.021602	-0.341252
C37	C	1.267411	0.016301	0.414136
C38	C	1.245033	0.040658	0.578342
H39	H	0.558944	0.166436	-0.021979
H40	H	1.222676	-0.249577	0.272020
C41	C	0.972314	-0.137753	0.018144
N42	N	1.026893	-0.219689	0.028935
H43	H	0.798003	-0.192360	0.025342
H44	H	1.144621	0.149874	0.386452
H45	H	0.597210	-0.177835	0.023411
C46	C	1.220100	-0.633747	0.228482
N47	N	1.203654	-0.662264	0.341437
C48	C	1.209057	-0.453838	0.336587
N49	N	1.192632	-0.482352	0.449547
H50	H	0.714429	0.249307	-0.032886
H51	H	1.332967	-0.055030	0.361415
C52	C	0.928053	0.260757	-0.034386
N53	N	0.965177	0.336052	-0.044307
H54	H	1.179465	0.111986	0.631060
H55	H	1.286662	-0.319149	-0.197073
H56	H	1.367827	-0.092936	0.606030
H57	H	1.297723	-0.499054	-0.305173
C58	C	1.294205	-0.714249	-0.314489
N59	N	1.307027	-0.774525	-0.415761
