data_functionalizedCrystal
_audit_creation_method	'MofGen! by Chris Wilmer'
_symmetry_space_group_name_H-M	'P1'
_symmetry_Int_Tables_number	1
_symmetry_cell_setting	triclinic
loop_
_symmetry_equiv_pos_as_xyz
  x,y,z
_cell_length_a	10.540510
_cell_length_b	27.731994
_cell_length_c	9.016244
_cell_angle_alpha	89.996954
_cell_angle_beta	90.003508
_cell_angle_gamma	83.566922
loop_
_atom_site_label
_atom_site_type_symbol
_atom_site_fract_x
_atom_site_fract_y
_atom_site_fract_z
O1	O	0.150703	0.641886	0.123122
O2	O	0.173739	0.501233	0.123170
O3	O	-0.022629	0.574776	0.123144
O4	O	0.347072	0.568343	0.123147
O5	O	-0.022640	0.574772	-0.123537
O6	O	0.173728	0.501229	-0.123511
O7	O	0.150692	0.641882	-0.123559
Cu8	Cu	0.162209	0.571555	-0.146059
Cu9	Cu	0.162222	0.571560	0.145670
O10	O	0.347060	0.568339	-0.123533
C11	C	0.173261	0.483220	-0.000164
C12	C	0.171837	0.429555	-0.000146
C13	C	0.162862	0.096778	-0.134669
C14	C	0.157448	-0.104914	-0.134686
O15	O	0.156688	-0.130993	-0.249043
N16	N	0.156782	-0.130130	-0.000220
C17	C	0.157461	-0.104921	0.134259
O18	O	0.156757	-0.130996	0.248630
C19	C	0.162865	0.096771	0.134275
C20	C	0.163544	0.121984	-0.000200
C21	C	0.163539	0.121992	-0.269132
C22	C	0.164899	0.172412	-0.269127
C23	C	0.165582	0.197618	-0.134658
C24	C	0.164904	0.172404	-0.000194
C25	C	0.163535	0.121980	0.268752
C26	C	0.164883	0.172406	0.268744
C27	C	0.165562	0.197620	0.134270
C28	C	0.166947	0.248030	0.134280
N29	N	0.167613	0.273246	-0.000185
C30	C	0.166931	0.248041	-0.134654
C31	C	0.154626	-0.210812	0.134242
C32	C	0.153277	-0.261234	0.134238
C33	C	0.153262	-0.261224	-0.134707
C34	C	0.154620	-0.210801	-0.134702
C35	C	0.155292	-0.185595	-0.000224
C36	C	0.169789	0.353925	-0.134632
C37	C	0.171154	0.404349	-0.134615
C38	C	0.171162	0.404335	0.134330
C39	C	0.169803	0.353915	0.134313
C40	C	0.169112	0.328712	-0.000180
O41	O	0.167693	0.274141	0.248578
O42	O	0.167607	0.274126	-0.249008
C43	C	0.161501	0.046359	-0.134674
C44	C	0.160824	0.021145	-0.000211
C45	C	0.161506	0.046351	0.134258
C46	C	0.159475	-0.029278	-0.000214
C47	C	0.158792	-0.054484	-0.134683
C48	C	0.159459	-0.029267	-0.269149
C49	C	0.160819	0.021153	-0.269143
C50	C	0.160840	0.021134	0.268724
C51	C	0.159481	-0.029285	0.268707
C52	C	0.158799	-0.054491	0.134238
C53	C	-0.069917	0.574294	-0.000193
C54	C	-0.210804	0.572860	-0.000184
C55	C	-0.430504	0.623950	-0.000766
C56	C	-0.283976	0.625480	-0.000203
C57	C	-0.254373	0.545926	0.140689
C58	C	-0.401083	0.544769	0.140800
C59	C	-0.400856	0.543669	-0.139722
C60	C	-0.254625	0.546164	-0.141577
C61	C	0.394348	0.568820	-0.000193
C62	C	0.535235	0.570255	-0.000193
C63	C	0.151171	0.659894	-0.000222
C64	C	0.152595	0.713560	-0.000231
N65	N	0.162199	0.571555	-0.351245
C66	C	0.057166	0.610917	-0.414183
C67	C	0.057446	0.611064	-0.586074
C68	C	0.294606	0.582820	-0.586718
C69	C	0.293976	0.583098	-0.414773
C70	C	0.136046	0.520822	-0.414617
C71	C	0.133044	0.521156	-0.586573
N72	N	0.162222	0.571564	0.350856
H73	H	0.171723	0.424866	0.243811
H74	H	-0.040977	0.604326	-0.628284
H75	H	0.155172	-0.190294	0.243756
H76	H	0.374633	0.554924	-0.627568
C77	C	-0.456504	0.569648	0.283032
N78	N	-0.498242	0.588390	0.390160
H79	H	0.318315	0.619407	-0.629783
H80	H	0.074110	0.648709	-0.627211
C81	C	-0.490476	0.651489	0.134929
N82	N	-0.535649	0.672229	0.237138
C83	C	-0.488415	0.651646	-0.137246
N84	N	-0.532043	0.672506	-0.240046
H85	H	0.158939	-0.049811	0.378221
H86	H	0.169271	0.333384	0.243813
H87	H	0.317099	0.620105	-0.374670
C88	C	0.152541	-0.288964	0.282171
N89	N	0.151976	-0.309848	0.393599
C90	C	0.008443	0.506290	-0.356059
N91	N	-0.087674	0.495350	-0.311954
C92	C	-0.429816	0.491602	0.149484
N93	N	-0.451452	0.451557	0.156038
H94	H	0.374271	0.555451	-0.373136
H95	H	0.073569	0.648347	-0.370957
C96	C	-0.076257	0.601953	-0.358350
N97	N	-0.176756	0.595200	-0.316289
C98	C	-0.186064	0.494263	-0.153049
N99	N	-0.134425	0.455169	-0.161678
C100	C	0.001491	0.509619	-0.641715
N101	N	-0.097592	0.500929	-0.683264
H102	H	-0.205282	0.507189	0.145941
C103	C	-0.459179	0.566137	-0.283972
N104	N	-0.503109	0.583066	-0.392615
C105	C	0.155355	-0.183070	-0.282633
N106	N	0.155903	-0.162185	-0.394061
C107	C	0.158705	-0.057003	-0.417065
N108	N	0.158128	-0.077896	-0.528469
H109	H	-0.224333	0.564634	0.245513
H110	H	-0.421270	0.504161	-0.140657
C111	C	0.162767	0.094257	0.416688
N112	N	0.162179	0.073378	0.528122
C113	C	0.171895	0.432081	-0.282553
N114	N	0.172449	0.452968	-0.393978
C115	C	0.169041	0.326209	-0.282581
N116	N	0.168489	0.305332	-0.394017
C117	C	0.229777	0.479706	-0.644533
N118	N	0.302654	0.448487	-0.688176
C119	C	0.165626	0.200129	0.416685
N120	N	0.166191	0.221009	0.528114
C121	C	-0.245587	0.653951	-0.136625
N122	N	-0.216681	0.675398	-0.239380
H123	H	0.165445	0.192937	-0.378630
C124	C	0.152501	-0.288959	-0.282624
N125	N	0.151917	-0.309851	-0.394029
H126	H	-0.256497	0.646680	0.100940
C127	C	0.239524	0.481244	-0.359616
N128	N	0.317466	0.451438	-0.318179
H129	H	0.162981	0.101475	-0.378639
H130	H	-0.226878	0.565763	-0.245793
H131	H	0.161372	0.041677	-0.378646
H132	H	0.161392	0.041652	0.378227
