data_functionalizedCrystal
_audit_creation_method	'MofGen! by Chris Wilmer'
_symmetry_space_group_name_H-M	'P1'
_symmetry_Int_Tables_number	1
_symmetry_cell_setting	triclinic
loop_
_symmetry_equiv_pos_as_xyz
  x,y,z
_cell_length_a	13.185407
_cell_length_b	10.723024
_cell_length_c	12.376457
_cell_angle_alpha	101.400942
_cell_angle_beta	97.389206
_cell_angle_gamma	111.779326
loop_
_atom_site_label
_atom_site_type_symbol
_atom_site_fract_x
_atom_site_fract_y
_atom_site_fract_z
O1	O	-0.131904	1.635317	0.093973
O2	O	-0.146506	1.267120	0.093982
O3	O	0.019070	1.514299	0.093971
O4	O	-0.297480	1.388137	0.093984
O5	O	-0.022266	1.452540	-0.094039
O6	O	-0.187842	1.205360	-0.094028
O7	O	-0.173241	1.573557	-0.094037
Zn8	Zn	-0.187105	1.379653	-0.123883
Zn9	Zn	-0.132642	1.461024	0.123828
O10	O	-0.338817	1.326378	-0.094026
C11	C	-0.166111	1.190108	-0.000022
C12	C	-0.162931	1.052654	-0.000019
C13	C	0.038935	1.496211	-0.000033
C14	C	0.159711	1.534308	-0.000031
C15	C	0.451690	1.170727	-0.000014
C16	C	0.338217	1.134932	-0.000005
C17	C	0.293584	1.234773	-0.000012
C18	C	0.362437	1.370415	-0.000027
C19	C	0.475923	1.406217	-0.000027
C20	C	0.317817	1.470263	-0.000025
C21	C	0.386670	1.605905	-0.000040
C22	C	0.500144	1.641701	-0.000041
C23	C	0.544776	1.541860	-0.000034
C24	C	0.204331	1.434461	-0.000025
C25	C	0.228564	1.669951	-0.000038
C26	C	0.342037	1.705746	-0.000047
C27	C	0.641318	1.344467	-0.000021
C28	C	0.520543	1.306370	-0.000021
C29	C	-0.153635	1.650570	-0.000031
C30	C	-0.156814	1.788026	-0.000027
N31	N	-0.224273	1.324129	-0.292939
C32	C	-0.064165	1.895031	-0.000029
C33	C	-0.067448	2.037101	-0.000025
C34	C	-0.310576	1.195234	-0.352117
C35	C	-0.336601	1.156387	-0.470455
C36	C	-0.276319	1.246427	-0.529626
C37	C	-0.190009	1.375321	-0.470448
C38	C	-0.163987	1.414176	-0.352098
C39	C	-0.129730	1.465369	-0.529607
C40	C	-0.043420	1.594263	-0.470429
C41	C	-0.017402	1.633111	-0.352091
C42	C	-0.077684	1.543071	-0.292920
C43	C	-0.155751	1.426514	-0.647957
C44	C	-0.009162	1.645456	-0.647938
C45	C	0.016863	1.684303	-0.529600
N46	N	-0.095465	1.516561	0.292883
H47	H	0.148282	1.324019	-0.000013
C48	C	-0.376879	1.096208	-0.287021
N49	N	-0.426822	1.021615	-0.237990
C50	C	0.500792	1.060917	-0.000013
N51	N	0.537776	0.978199	-0.000016
C52	C	-0.049026	1.585769	-0.162740
N53	N	-0.027431	1.617915	-0.064686
H54	H	0.192239	1.751269	0.000014
C55	C	0.077536	1.774902	-0.286998
N56	N	0.149046	1.881698	-0.237971
H57	H	0.017581	1.881458	-0.000051
C58	C	0.669603	1.581227	-0.000047
N59	N	0.763623	1.610875	-0.000056
C60	C	-0.270090	1.928581	-0.000017
N61	N	-0.350803	1.835119	-0.000018
H62	H	-0.226025	1.321569	-0.696130
H63	H	0.087138	1.789251	-0.481402
H64	H	-0.297512	1.214792	-0.625983
C65	C	0.057156	1.744506	-0.713021
N66	N	0.107100	1.819104	-0.762049
C67	C	-0.431533	1.014604	-0.535543
N68	N	-0.503038	0.907803	-0.584568
H69	H	0.201189	1.205619	-0.000006
H70	H	0.282166	1.024493	0.000011
H71	H	0.556204	1.752153	-0.000042
H72	H	0.398113	1.816189	-0.000059
H73	H	0.011868	2.128950	-0.000019
H74	H	-0.238566	1.801591	-0.000028
