data_functionalizedCrystal
_audit_creation_method	'MofGen! by Chris Wilmer'
_symmetry_space_group_name_H-M	'P1'
_symmetry_Int_Tables_number	1
_symmetry_cell_setting	triclinic
loop_
_symmetry_equiv_pos_as_xyz
  x,y,z
_cell_length_a	12.837939
_cell_length_b	9.565339
_cell_length_c	12.837942
_cell_angle_alpha	89.999206
_cell_angle_beta	85.171210
_cell_angle_gamma	89.996798
loop_
_atom_site_label
_atom_site_type_symbol
_atom_site_fract_x
_atom_site_fract_y
_atom_site_fract_z
O1	O	-1.402335	0.116245	0.272129
O2	O	-0.902335	0.616245	0.772129
O3	O	-1.099201	0.116251	0.258687
O4	O	-0.599201	0.616251	0.758687
O5	O	-1.244046	0.116240	0.113841
O6	O	-0.744046	0.616240	0.613841
O7	O	-1.257489	0.116257	0.416975
O8	O	-0.757489	0.616257	0.916975
O9	O	-1.244034	-0.116280	0.113850
O10	O	-0.744034	0.383720	0.613850
O11	O	-1.099189	-0.116269	0.258695
O12	O	-0.599189	0.383731	0.758695
O13	O	-1.402323	-0.116275	0.272138
O14	O	-0.902323	0.383725	0.772138
Zn15	Zn	-1.250754	-0.153189	0.265418
Zn16	Zn	-0.750754	0.346811	0.765418
Zn17	Zn	-1.250770	0.153166	0.265406
Zn18	Zn	-0.750770	0.653166	0.765406
O19	O	-1.257478	-0.116263	0.416983
O20	O	-0.757478	0.383737	0.916983
C21	C	-1.060126	-0.000008	0.254150
C22	C	-0.560126	0.499992	0.754150
C23	C	-0.943711	-0.000006	0.240606
C24	C	-0.443711	0.499994	0.740606
C25	C	-0.718837	-0.000019	0.403436
C26	C	-0.218837	0.499981	0.903436
C27	C	-0.609454	-0.000018	0.390714
C28	C	-0.109454	0.499982	0.890714
C29	C	-0.615562	-0.000014	0.202443
C30	C	-0.115562	0.499986	0.702443
C31	C	-0.724944	-0.000014	0.215164
C32	C	-0.224944	0.499986	0.715164
C33	C	-0.776578	-0.000015	0.315664
C34	C	-0.276578	0.499985	0.815664
C35	C	-0.885962	-0.000006	0.328384
C36	C	-0.385962	0.499994	0.828384
C37	C	-0.892067	-0.000011	0.140114
C38	C	-0.392067	0.499989	0.640114
C39	C	-0.782685	-0.000011	0.127393
C40	C	-0.282685	0.499989	0.627393
N41	N	-1.250751	-0.362269	0.265426
N42	N	-0.750751	0.137731	0.765426
C43	C	-1.183740	-0.453467	0.332385
C44	C	-0.683740	0.046533	0.832385
C45	C	-1.280344	-0.546646	0.362042
C46	C	-0.780344	-0.046646	0.862042
C47	C	-1.154189	-0.546645	0.235781
C48	C	-0.654189	-0.046645	0.735781
C49	C	-1.347408	-0.453396	0.295135
C50	C	-0.847408	0.046604	0.795135
C51	C	-1.221186	-0.453387	0.168826
C52	C	-0.721186	0.046613	0.668826
C53	C	-1.317854	-0.546524	0.198450
C54	C	-0.817854	-0.046524	0.698450
C55	C	-0.441398	-0.000014	0.276675
C56	C	0.058602	0.499986	0.776675
C57	C	-0.557813	-0.000013	0.290222
C58	C	-0.057813	0.499987	0.790222
C59	C	-1.239499	-0.000019	0.074776
C60	C	-0.739499	0.499981	0.574776
C61	C	-1.225954	-0.000017	-0.041639
C62	C	-0.725954	0.499983	0.458361
N63	N	-1.250780	0.362245	0.265391
N64	N	-0.750780	0.862245	0.765391
C65	C	-1.388784	0.000009	-0.266513
C66	C	-0.888784	0.500009	0.233487
C67	C	-1.376062	0.000012	-0.375896
C68	C	-0.876062	0.500012	0.124104
C69	C	-1.187791	0.000001	-0.369788
C70	C	-0.687791	0.500001	0.130212
C71	C	-1.200513	-0.000002	-0.260405
C72	C	-0.700513	0.499998	0.239595
C73	C	-1.301012	0.000000	-0.208772
C74	C	-0.801012	0.500000	0.291228
C75	C	-1.313733	-0.000012	-0.099388
C76	C	-0.813733	0.499988	0.400612
C77	C	-1.125462	-0.000013	-0.093282
C78	C	-0.625462	0.499987	0.406718
C79	C	-1.112741	-0.000011	-0.202664
C80	C	-0.612741	0.499989	0.297336
C81	C	-1.262025	-0.000001	0.456048
C82	C	-0.762025	0.499999	0.956048
C83	C	-1.275569	0.000006	0.572463
C84	C	-0.775569	0.500006	1.072463
H85	H	-0.939092	0.000001	0.068643
H86	H	-0.439092	0.500001	0.568643
H87	H	-1.127134	-0.412607	0.389074
H88	H	-0.627134	0.087393	0.889074
Cl89	Cl	-1.061460	0.000040	-0.434716
Cl90	Cl	-0.561460	0.500040	0.065284
H91	H	-1.305370	-0.587609	0.443720
H92	H	-0.805370	-0.087609	0.943720
Cl93	Cl	-1.405467	-0.609225	0.111007
Cl94	Cl	-0.905467	-0.109225	0.611007
H95	H	-1.196133	-0.412391	0.087171
H96	H	-0.696133	0.087609	0.587171
Cl97	Cl	-0.550633	-0.000031	0.076112
Cl98	Cl	-0.050633	0.499969	0.576112
Cl99	Cl	-0.986406	-0.000001	-0.267585
Cl100	Cl	-0.486406	0.499999	0.232415
H101	H	-1.053992	-0.000031	-0.046257
H102	H	-0.553992	0.499969	0.453743
Cl103	Cl	-1.028094	-0.609887	0.197092
Cl104	Cl	-0.528094	-0.109887	0.697092
H105	H	-1.470614	-0.000003	-0.224473
H106	H	-0.970614	0.499997	0.275527
Cl107	Cl	-1.440073	-0.000019	-0.034478
Cl108	Cl	-0.940073	0.499981	0.465522
H109	H	-0.740630	-0.000026	0.045569
H110	H	-0.240630	0.499974	0.545569
H111	H	-1.447536	0.000024	-0.422905
H112	H	-0.947536	0.500024	0.077095
Cl113	Cl	-0.950872	-0.000003	0.454724
Cl114	Cl	-0.450872	0.499997	0.954724
H115	H	-0.760878	-0.000017	0.485266
H116	H	-0.260878	0.499983	0.985266
Cl117	Cl	-0.536869	-0.000027	0.501061
Cl118	Cl	-0.036869	0.499973	1.001061
H119	H	-1.429108	-0.412609	0.320290
H120	H	-0.929108	0.087391	0.820290
