data_functionalizedCrystal
_audit_creation_method	'MofGen! by Chris Wilmer'
_symmetry_space_group_name_H-M	'P1'
_symmetry_Int_Tables_number	1
_symmetry_cell_setting	triclinic
loop_
_symmetry_equiv_pos_as_xyz
  x,y,z
_cell_length_a	16.120444
_cell_length_b	16.120542
_cell_length_c	11.169409
_cell_angle_alpha	87.078149
_cell_angle_beta	87.138527
_cell_angle_gamma	89.835691
loop_
_atom_site_label
_atom_site_type_symbol
_atom_site_fract_x
_atom_site_fract_y
_atom_site_fract_z
Zn1	Zn	-0.395619	-1.254504	0.798975
Zn2	Zn	0.104381	-0.754504	1.298975
Zn3	Zn	-0.534698	-1.247336	0.607898
Zn4	Zn	-0.034698	-0.747336	1.107898
Zn5	Zn	-0.388597	-1.115434	0.587641
Zn6	Zn	0.111403	-0.615434	1.087641
Zn7	Zn	-0.527562	-1.108353	0.797873
Zn8	Zn	-0.027562	-0.608353	1.297873
O9	O	-0.461619	-1.181407	0.698097
O10	O	0.038381	-0.681407	1.198097
O11	O	-0.419993	-1.369919	0.782566
O12	O	0.080007	-0.869919	1.282566
O13	O	-0.515365	-1.229802	0.437262
O14	O	-0.015365	-0.729802	0.937262
O15	O	-0.273166	-1.139845	0.607658
O16	O	0.226834	-0.639845	1.107658
O17	O	-0.522174	-1.364652	0.642183
O18	O	-0.022174	-0.864652	1.142183
O19	O	-0.278325	-1.242019	0.762924
O20	O	0.221675	-0.742019	1.262924
O21	O	-0.408025	-1.132894	0.422379
O22	O	0.091975	-0.632894	0.922379
O23	O	-0.401106	-0.998129	0.606591
O24	O	0.098894	-0.498129	1.106591
O25	O	-0.510011	-1.127777	0.965969
O26	O	-0.010011	-0.627777	1.465969
O27	O	-0.503203	-0.992927	0.761047
O28	O	-0.003203	-0.492927	1.261047
O29	O	-0.413073	-1.235153	0.966778
O30	O	0.086927	-0.735153	1.466778
O31	O	-0.650113	-1.222936	0.641116
O32	O	-0.150113	-0.722936	1.141116
O33	O	-0.644871	-1.120827	0.780690
O34	O	-0.144871	-0.620827	1.280690
C35	C	-0.450619	-0.965355	0.681502
C36	C	0.049381	-0.465355	1.181502
C37	C	-0.445933	-0.872927	0.674433
C38	C	0.054067	-0.372927	1.174433
C39	C	-0.677664	-1.170358	0.713009
C40	C	-0.177664	-0.670358	1.213009
C41	C	-0.770094	-1.165707	0.719435
C42	C	-0.270094	-0.665707	1.219435
C43	C	-0.485901	-0.659959	0.734701
C44	C	0.014099	-0.159959	1.234701
C45	C	-0.437385	-0.703703	0.661524
C46	C	0.062615	-0.203703	1.161524
C47	C	-0.442142	-0.797868	0.668709
C48	C	0.057858	-0.297868	1.168709
C49	C	-0.481145	-0.565786	0.727518
C50	C	0.018855	-0.065786	1.227518
C51	C	-0.983075	-1.205735	0.665038
C52	C	-0.483075	-0.705735	1.165038
C53	C	-0.939319	-1.157232	0.731180
C54	C	-0.439319	-0.657232	1.231180
C55	C	-0.845153	-1.161949	0.724643
C56	C	-0.345153	-0.661949	1.224643
C57	C	-1.077249	-1.201019	0.671574
C58	C	-0.577249	-0.701019	1.171574
C59	C	-0.244730	-1.192521	0.683155
C60	C	0.255270	-0.692521	1.183155
C61	C	-0.152306	-1.197257	0.676787
C62	C	0.347694	-0.697257	1.176787
C63	C	-0.461530	-1.181475	1.011138
C64	C	0.038470	-0.681475	1.511138
C65	C	-0.461492	-1.181504	1.144537
C66	C	0.038508	-0.681504	1.644537
C67	C	-0.472658	-0.398302	0.714740
C68	C	0.027342	0.101698	1.214740
C69	C	-0.477351	-0.490730	0.721789
C70	C	0.022649	0.009270	1.221789
C71	C	-0.461650	-1.181389	0.386273
C72	C	0.038350	-0.681389	0.886273
C73	C	-0.461462	-1.181533	0.252871
C74	C	0.038538	-0.681533	0.752871
H75	H	-0.392276	-0.670433	0.593480
H76	H	0.107724	-0.170433	1.093480
H77	H	-0.531007	-0.693227	0.802739
H78	H	-0.031007	-0.193227	1.302739
H79	H	-0.949820	-1.250799	0.603507
H80	H	-0.449820	-0.750799	1.103507
H81	H	-0.972578	-1.112164	0.792714
H82	H	-0.472578	-0.612164	1.292714
