data_functionalizedCrystal
_audit_creation_method	'MofGen! by Chris Wilmer'
_symmetry_space_group_name_H-M	'P1'
_symmetry_Int_Tables_number	1
_symmetry_cell_setting	triclinic
loop_
_symmetry_equiv_pos_as_xyz
  x,y,z
_cell_length_a	14.519709
_cell_length_b	11.295443
_cell_length_c	12.837942
_cell_angle_alpha	94.173332
_cell_angle_beta	90.745457
_cell_angle_gamma	85.414329
loop_
_atom_site_label
_atom_site_type_symbol
_atom_site_fract_x
_atom_site_fract_y
_atom_site_fract_z
O1	O	-1.241690	0.098854	0.142142
O2	O	-0.974599	0.098893	0.158150
O3	O	-1.102222	0.098867	-0.000768
O4	O	-1.114068	0.098880	0.301060
O5	O	-1.090030	-0.099184	-0.013262
O6	O	-0.962408	-0.099158	0.145655
O7	O	-1.229499	-0.099197	0.129648
Cu8	Cu	-1.094840	-0.117261	0.136511
Cu9	Cu	-1.109258	0.116957	0.151287
O10	O	-1.101876	-0.099171	0.288566
C11	C	-0.934079	-0.000127	0.151157
C12	C	-0.831506	-0.000112	0.148923
N13	N	-1.084706	-0.281998	0.126117
C14	C	-1.011765	-0.469021	0.051315
C15	C	-1.019415	-0.344357	0.059166
C16	C	-1.142353	-0.344312	0.185220
C17	C	-1.134703	-0.468976	0.177368
C18	C	-1.069406	-0.531326	0.110415
C19	C	-1.061751	-0.655993	0.102570
C20	C	-1.184693	-0.655945	0.228618
C21	C	-1.192344	-0.531281	0.236469
C22	C	-0.455896	-0.000163	0.140691
C23	C	-0.560402	-0.000148	0.142977
C24	C	-0.643698	-0.000136	0.144807
C25	C	-0.748210	-0.000124	0.147093
C26	C	-0.270019	-0.000171	0.136641
C27	C	-0.372594	-0.000170	0.138876
C28	C	-1.092125	-0.000157	-0.045643
C29	C	-1.080191	-0.000154	-0.160742
N30	N	-1.119398	0.281694	0.161672
C31	C	-1.223662	-0.000150	-0.401434
C32	C	-1.212453	-0.000146	-0.509581
C33	C	-1.046566	-0.000134	-0.485183
C34	C	-1.057775	-0.000138	-0.377036
C35	C	-1.146325	-0.000147	-0.335167
C36	C	-1.157533	-0.000160	-0.227019
C37	C	-0.991647	-0.000139	-0.202622
C38	C	-0.980438	-0.000135	-0.310769
C39	C	-1.111973	-0.000144	0.333441
C40	C	-1.123908	-0.000140	0.448541
H41	H	-1.008580	-0.706757	0.048057
C42	C	-1.263175	-0.463731	0.309323
C43	C	-1.245055	-0.494059	0.411824
C44	C	-1.310292	-0.431871	0.478967
H45	H	-1.259542	-0.380544	0.305674
H46	H	-1.323358	-0.484181	0.288996
H47	H	-1.184888	-0.473601	0.432145
H48	H	-1.248695	-0.577236	0.415506
H49	H	-1.370474	-0.452321	0.458641
H50	H	-1.306653	-0.348687	0.475309
H51	H	-1.298011	-0.452448	0.548520
C52	C	-1.253750	-0.000101	-0.181752
C53	C	-1.319079	-0.000065	-0.262938
C54	C	-1.407727	0.000011	-0.221281
H55	H	-1.257460	-0.069147	-0.144446
H56	H	-1.265863	0.068991	-0.135739
H57	H	-1.306970	-0.069151	-0.308933
H58	H	-1.315399	0.068975	-0.300251
H59	H	-1.419840	0.069103	-0.175268
H60	H	-1.411428	-0.069037	-0.183975
H61	H	-1.452064	0.000046	-0.276357
C62	C	-1.213188	-0.276750	0.258063
C63	C	-1.195081	-0.307061	0.360571
C64	C	-1.260322	-0.244856	0.427698
H65	H	-1.209550	-0.193565	0.254403
H66	H	-1.273370	-0.297199	0.237731
H67	H	-1.134915	-0.286604	0.380897
H68	H	-1.198727	-0.390235	0.364264
H69	H	-1.320504	-0.265304	0.407366
H70	H	-1.256679	-0.161674	0.424029
H71	H	-1.248051	-0.265421	0.497256
H72	H	-0.958590	-0.519788	-0.003192
C73	C	-1.296530	-0.000213	-0.581361
C74	C	-1.376471	-0.000250	-0.521542
C75	C	-1.453942	-0.000325	-0.587631
H76	H	-1.299982	0.068834	-0.619720
H77	H	-1.291408	-0.069305	-0.628404
H78	H	-1.381592	0.068835	-0.474518
H79	H	-1.373049	-0.069292	-0.483185
H80	H	-1.448820	-0.069417	-0.634674
H81	H	-1.457385	0.068723	-0.625987
H82	H	-1.508190	-0.000361	-0.547055
H83	H	-0.974473	-0.000114	-0.519292
C84	C	-1.247439	-0.723435	0.292731
C85	C	-1.339737	-0.693080	0.266294
C86	C	-1.397559	-0.755215	0.325346
H87	H	-1.233660	-0.806630	0.278530
H88	H	-1.237841	-0.702960	0.364929
H89	H	-1.349330	-0.713563	0.194112
H90	H	-1.353544	-0.609896	0.280499
H91	H	-1.387962	-0.734740	0.397544
H92	H	-1.383772	-0.838406	0.311140
H93	H	-1.460189	-0.734619	0.307424
C94	C	-0.956715	-0.276926	-0.005044
C95	C	-0.897881	-0.358218	-0.065337
C96	C	-0.840099	-0.296145	-0.124493
H97	H	-0.993199	-0.228292	-0.049689
H98	H	-0.920928	-0.228320	0.040379
H99	H	-0.933664	-0.406804	-0.110755
H100	H	-0.861377	-0.406855	-0.020719
H101	H	-0.804313	-0.247539	-0.079070
H102	H	-0.876591	-0.247513	-0.169131
H103	H	-0.800169	-0.351292	-0.165401
H104	H	-0.928674	-0.000147	-0.148655
H105	H	-0.908343	-0.000123	-0.344874
H106	H	-1.295762	-0.000169	-0.367344
