data_functionalizedCrystal
_audit_creation_method	'MofGen! by Chris Wilmer'
_symmetry_space_group_name_H-M	'P1'
_symmetry_Int_Tables_number	1
_symmetry_cell_setting	triclinic
loop_
_symmetry_equiv_pos_as_xyz
  x,y,z
_cell_length_a	19.077105
_cell_length_b	18.101397
_cell_length_c	19.076919
_cell_angle_alpha	92.268541
_cell_angle_beta	90.076224
_cell_angle_gamma	87.716700
loop_
_atom_site_label
_atom_site_type_symbol
_atom_site_fract_x
_atom_site_fract_y
_atom_site_fract_z
Zn1	Zn	1.058295	-0.358273	-0.440399
Zn2	Zn	1.391628	-0.024940	-0.107065
Zn3	Zn	1.724961	0.308394	0.226268
Zn4	Zn	1.062943	-0.477346	-0.322885
Zn5	Zn	1.396276	-0.144013	0.010448
Zn6	Zn	1.729610	0.189321	0.343781
Zn7	Zn	0.945512	-0.348352	-0.318192
Zn8	Zn	1.278845	-0.015019	0.015141
Zn9	Zn	1.612179	0.318314	0.348474
Zn10	Zn	0.940765	-0.476900	-0.435638
Zn11	Zn	1.274098	-0.143566	-0.102305
Zn12	Zn	1.607431	0.189767	0.231029
O13	O	1.001879	-0.415218	-0.379279
O14	O	1.335212	-0.081884	-0.045945
O15	O	1.668545	0.251449	0.287388
O16	O	1.157243	-0.378407	-0.428767
O17	O	1.490577	-0.045074	-0.095433
O18	O	1.823910	0.288260	0.237900
O19	O	1.051297	-0.456270	-0.223932
O20	O	1.384631	-0.122937	0.109402
O21	O	1.717964	0.210397	0.442735
O22	O	0.960514	-0.246038	-0.334432
O23	O	1.293848	0.087295	-0.001098
O24	O	1.627181	0.420628	0.332235
O25	O	1.160658	-0.465890	-0.342430
O26	O	1.493992	-0.132556	-0.009097
O27	O	1.827325	0.200777	0.324237
O28	O	1.043375	-0.253327	-0.424216
O29	O	1.376709	0.080006	-0.090883
O30	O	1.710042	0.413340	0.242451
O31	O	0.965021	-0.361499	-0.220484
O32	O	1.298355	-0.028165	0.112849
O33	O	1.631688	0.305168	0.446183
O34	O	0.846550	-0.361066	-0.329816
O35	O	1.179883	-0.027732	0.003518
O36	O	1.513217	0.305601	0.336851
O37	O	0.952423	-0.465128	-0.534601
O38	O	1.285756	-0.131795	-0.201267
O39	O	1.619090	0.201538	0.132066
O40	O	0.843062	-0.455509	-0.416102
O41	O	1.176396	-0.122175	-0.082769
O42	O	1.509729	0.211158	0.250564
O43	O	1.038772	-0.377974	-0.538098
O44	O	1.372105	-0.044641	-0.204765
O45	O	1.705439	0.288693	0.128569
O46	O	1.046694	-0.580917	-0.337814
O47	O	1.380027	-0.247583	-0.004481
O48	O	1.713361	0.085750	0.328853
O49	O	0.956930	-0.580589	-0.420653
O50	O	1.290263	-0.247255	-0.087320
O51	O	1.623597	0.086078	0.246014
C52	C	0.819310	-0.407163	-0.371934
C53	C	1.152643	-0.073829	-0.038600
C54	C	1.485976	0.259504	0.294733
C55	C	0.741205	-0.403735	-0.368808
C56	C	1.074539	-0.070402	-0.035475
C57	C	1.407872	0.262931	0.297859
C58	C	1.001820	-0.607624	-0.379242
C59	C	1.335153	-0.274291	-0.045909
C60	C	1.668486	0.059042	0.287425
C61	C	1.001858	-0.689940	-0.379253
C62	C	1.335191	-0.356607	-0.045919
C63	C	1.668525	-0.023274	0.287414
C64	C	0.702717	-0.451365	-0.412194
C65	C	1.036050	-0.118032	-0.078860
C66	C	1.369384	0.215302	0.254473
C67	C	0.629329	-0.448135	-0.409260
C68	C	0.962663	-0.114802	-0.075927
C69	C	1.295996	0.218532	0.257406
C70	C	0.594432	-0.397278	-0.362937
C71	C	0.927765	-0.063945	-0.029604
C72	C	1.261098	0.269389	0.303730
C73	C	0.632925	-0.349643	-0.319549
C74	C	0.966259	-0.016310	0.013784
C75	C	1.299592	0.317023	0.347117
C76	C	0.706311	-0.352870	-0.322487
C77	C	1.039645	-0.019537	0.010846
C78	C	1.372978	0.313796	0.344180
C79	C	0.375144	-0.382343	-0.349345
C80	C	0.708477	-0.049010	-0.016012
C81	C	1.041810	0.284323	0.317322
C82	C	0.301752	-0.379121	-0.346409
C83	C	0.635086	-0.045788	-0.013076
C84	C	0.968419	0.287545	0.320257
C85	C	0.298161	-0.477612	-0.436122
C86	C	0.631495	-0.144279	-0.102788
C87	C	0.964828	0.189054	0.230545
C88	C	0.371549	-0.480838	-0.439052
C89	C	0.704882	-0.147505	-0.105719
C90	C	1.038216	0.185829	0.227615
C91	C	0.410036	-0.433200	-0.395667
C92	C	0.743370	-0.099867	-0.062334
C93	C	1.076703	0.233466	0.271000
N94	N	0.519418	-0.393977	-0.359936
N95	N	0.852751	-0.060644	-0.026603
N96	N	1.186085	0.272690	0.306731
N97	N	0.485048	-0.436499	-0.398672
N98	N	0.818382	-0.103165	-0.065339
N99	N	1.151715	0.230168	0.267994
C100	C	1.001945	-0.989038	-0.379320
C101	C	1.335278	-0.655705	-0.045987
C102	C	1.668612	-0.322371	0.287346
C103	C	1.058277	-0.957876	-0.327049
C104	C	1.391610	-0.624542	0.006284
C105	C	1.724943	-0.291209	0.339618
C106	C	1.058458	-0.872271	-0.327197
C107	C	1.391792	-0.538938	0.006136
C108	C	1.725125	-0.205604	0.339469
C109	C	1.001902	-0.840652	-0.379286
C110	C	1.335235	-0.507319	-0.045953
C111	C	1.668569	-0.173985	0.287381
C112	C	1.018998	-0.875550	-0.454158
C113	C	1.352331	-0.542216	-0.120825
C114	C	1.685664	-0.208883	0.212509
C115	C	1.019429	-0.961201	-0.453878
C116	C	1.352762	-0.627868	-0.120545
C117	C	1.686095	-0.294534	0.212788
C118	C	0.928348	-0.953502	-0.357355
C119	C	1.261681	-0.620168	-0.024022
C120	C	1.595014	-0.286835	0.309311
C121	C	0.928782	-0.867801	-0.355717
C122	C	1.262115	-0.534468	-0.022383
C123	C	1.595448	-0.201135	0.310950
C124	C	1.001876	-0.756791	-0.379271
C125	C	1.335209	-0.423458	-0.045938
C126	C	1.668543	-0.090124	0.287395
C127	C	1.001972	-1.072899	-0.379340
C128	C	1.335306	-0.739566	-0.046007
C129	C	1.668639	-0.406233	0.287326
C130	C	1.185160	-0.423305	-0.386653
C131	C	1.518494	-0.089971	-0.053319
C132	C	1.851827	0.243362	0.280014
C133	C	1.263264	-0.426751	-0.389795
C134	C	1.596597	-0.093418	-0.056462
C135	C	1.929931	0.239916	0.276871
C136	C	0.994550	-0.422608	-0.562558
C137	C	1.327883	-0.089275	-0.229225
C138	C	1.661216	0.244059	0.104108
C139	C	0.991426	-0.425757	-0.640661
C140	C	1.324760	-0.092424	-0.307328
C141	C	1.658093	0.240909	0.026005
C142	C	1.001956	-0.222061	-0.379331
C143	C	1.335289	0.111272	-0.045998
C144	C	1.668623	0.444605	0.287335
C145	C	1.001989	-0.139750	-0.379354
C146	C	1.335322	0.193584	-0.046021
C147	C	1.668656	0.526917	0.287313
C148	C	1.034914	-0.381862	-0.679176
C149	C	1.368247	-0.048529	-0.345843
C150	C	1.701581	0.284804	-0.012510
C151	C	1.031971	-0.384818	-0.752562
C152	C	1.365304	-0.051485	-0.419229
C153	C	1.698638	0.281848	-0.085895
C154	C	0.985543	-0.431674	-0.787431
C155	C	1.318877	-0.098340	-0.454098
C156	C	1.652210	0.234993	-0.120765
C157	C	0.942051	-0.475570	-0.748911
C158	C	1.275384	-0.142237	-0.415578
C159	C	1.608717	0.191096	-0.082244
C160	C	0.944991	-0.472610	-0.675527
C161	C	1.278324	-0.139277	-0.342193
C162	C	1.611658	0.194057	-0.008860
C163	C	0.971926	-0.445389	-1.006712
C164	C	1.305260	-0.112056	-0.673378
C165	C	1.638593	0.221278	-0.340045
C166	C	0.968991	-0.448348	-1.080102
C167	C	1.302324	-0.115014	-0.746768
C168	C	1.635658	0.218319	-0.413435
C169	C	1.058911	-0.357594	-1.083747
C170	C	1.392244	-0.024261	-0.750414
C171	C	1.725577	0.309072	-0.417081
C172	C	1.061850	-0.354641	-1.010361
C173	C	1.395183	-0.021308	-0.677028
C174	C	1.728516	0.312025	-0.343695
C175	C	1.018355	-0.398535	-0.971847
C176	C	1.351688	-0.065202	-0.638514
C177	C	1.685021	0.268131	-0.305181
N178	N	0.982535	-0.434698	-0.862443
N179	N	1.315869	-0.101364	-0.529110
N180	N	1.649202	0.231969	-0.195777
N181	N	1.021359	-0.395507	-0.896837
N182	N	1.354693	-0.062173	-0.563503
N183	N	1.688026	0.271160	-0.230170
C184	C	1.009219	-0.407805	-0.196713
C185	C	1.342553	-0.074471	0.136620
C186	C	1.675886	0.258862	0.469953
C187	C	1.012479	-0.404453	-0.118616
C188	C	1.345812	-0.071119	0.214717
C189	C	1.679145	0.262214	0.548050
H190	H	0.731125	-0.492781	-0.449913
H191	H	1.064459	-0.159447	-0.116580
H192	H	1.397792	0.173886	0.216754
Br193	Br	0.952483	-0.841643	-0.521033
Br194	Br	1.285817	-0.508310	-0.187699
Br195	Br	1.619150	-0.174976	0.145634
Br196	Br	1.107481	-0.844757	-0.485008
Br197	Br	1.440815	-0.511423	-0.151675
Br198	Br	1.774148	-0.178090	0.181658
Br199	Br	0.879036	-0.539156	-0.796233
Br200	Br	1.212370	-0.205822	-0.462900
Br201	Br	1.545703	0.127511	-0.129566
H202	H	0.936520	-0.481142	-0.975363
H203	H	1.269853	-0.147808	-0.642029
H204	H	1.603186	0.185525	-0.308696
Br205	Br	0.905975	-0.511939	-1.127424
Br206	Br	1.239309	-0.178605	-0.794091
Br207	Br	1.572642	0.154728	-0.460758
Br208	Br	0.577098	-0.512777	-0.468146
Br209	Br	0.910431	-0.179443	-0.134812
Br210	Br	1.243764	0.153890	0.198521
Br211	Br	0.885965	-0.532179	-0.623255
Br212	Br	1.219298	-0.198846	-0.289922
Br213	Br	1.552632	0.134487	0.043412
H214	H	0.604506	-0.308232	-0.281835
H215	H	0.937839	0.025102	0.051498
H216	H	1.271172	0.358435	0.384832
H217	H	1.048084	-0.975737	-0.271467
H218	H	1.381418	-0.642403	0.061866
H219	H	1.714751	-0.309070	0.395199
H220	H	0.915837	-0.844664	-0.300602
H221	H	1.249170	-0.511330	0.032731
H222	H	1.582504	-0.177997	0.366064
H223	H	0.406471	-0.343559	-0.314013
H224	H	0.739804	-0.010225	0.019321
H225	H	1.073138	0.323108	0.352654
H226	H	0.737648	-0.314081	-0.287161
H227	H	1.070981	0.019252	0.046172
H228	H	1.404314	0.352585	0.379506
H229	H	0.399958	-0.522253	-0.476772
H230	H	0.733291	-0.188919	-0.143438
H231	H	1.066624	0.144414	0.189895
Br232	Br	0.245926	-0.542262	-0.494995
Br233	Br	0.579259	-0.208929	-0.161662
Br234	Br	0.912593	0.124404	0.171671
H235	H	1.048108	-0.848527	-0.271774
H236	H	1.381441	-0.515194	0.061559
H237	H	1.714775	-0.181861	0.394892
H238	H	0.886413	-0.973600	-0.395390
H239	H	1.219747	-0.640267	-0.062057
H240	H	1.553080	-0.306934	0.271276
Br241	Br	1.148753	-0.998514	-0.351401
Br242	Br	1.482086	-0.665181	-0.018068
Br243	Br	1.815419	-0.331847	0.315266
Br244	Br	1.117935	-0.298026	-1.136019
Br245	Br	1.451268	0.035307	-0.802686
Br246	Br	1.784602	0.368640	-0.469353
Br247	Br	0.855461	-0.831525	-0.414126
Br248	Br	1.188795	-0.498192	-0.080792
Br249	Br	1.522128	-0.164858	0.252541
Br250	Br	0.254392	-0.310104	-0.283530
Br251	Br	0.587725	0.023229	0.049803
Br252	Br	0.921058	0.356562	0.383136
H253	H	1.113036	-0.854663	-0.341966
H254	H	1.446369	-0.521330	-0.008633
H255	H	1.779702	-0.187997	0.324700
H256	H	1.073136	-0.984166	-0.472138
H257	H	1.406470	-0.650833	-0.138805
H258	H	1.739803	-0.317500	0.194529
H259	H	1.067385	-0.349076	-0.783918
H260	H	1.400718	-0.015743	-0.450584
H261	H	1.734052	0.317591	-0.117251
H262	H	0.980034	-0.981971	-0.494328
H263	H	1.313367	-0.648637	-0.160995
H264	H	1.646700	-0.315304	0.172338
Br265	Br	0.901464	-0.984674	-0.267677
Br266	Br	1.234798	-0.651341	0.065657
Br267	Br	1.568131	-0.318007	0.398990
Br268	Br	1.097932	-0.318276	-0.631861
Br269	Br	1.431265	0.015058	-0.298528
Br270	Br	1.764599	0.348391	0.034806
H271	H	1.099658	-0.316489	-0.981976
H272	H	1.432991	0.016844	-0.648643
H273	H	1.766325	0.350178	-0.315309
