data_functionalizedCrystal
_audit_creation_method	'MofGen! by Chris Wilmer'
_symmetry_space_group_name_H-M	'P1'
_symmetry_Int_Tables_number	1
_symmetry_cell_setting	triclinic
loop_
_symmetry_equiv_pos_as_xyz
  x,y,z
_cell_length_a	18.050589
_cell_length_b	13.032951
_cell_length_c	13.032268
_cell_angle_alpha	89.114265
_cell_angle_beta	97.149417
_cell_angle_gamma	97.169409
loop_
_atom_site_label
_atom_site_type_symbol
_atom_site_fract_x
_atom_site_fract_y
_atom_site_fract_z
Zn1	Zn	-0.501584	-1.498346	-0.780877
Zn2	Zn	-0.612231	-1.520060	-0.608897
Zn3	Zn	-0.470555	-1.348213	-0.587113
Zn4	Zn	-0.608208	-1.326309	-0.759017
O5	O	-0.548144	-1.423232	-0.683976
O6	O	-0.530930	-1.645142	-0.776328
O7	O	-0.582135	-1.515518	-0.462091
O8	O	-0.370756	-1.368207	-0.612848
O9	O	-0.612222	-1.661096	-0.649976
O10	O	-0.393553	-1.478509	-0.755205
O11	O	-0.478046	-1.389262	-0.446087
O12	O	-0.474146	-1.201391	-0.591652
O13	O	-0.605367	-1.330876	-0.905833
O14	O	-0.575280	-1.185299	-0.717949
O15	O	-0.527030	-1.457271	-0.921893
O16	O	-0.715612	-1.494279	-0.628779
O17	O	-0.712657	-1.351932	-0.739072
C18	C	-0.520910	-1.156029	-0.650065
C19	C	-0.509279	-1.041715	-0.635582
C20	C	-0.741083	-1.423110	-0.683943
C21	C	-0.823635	-1.423147	-0.683976
C22	C	-0.554197	-0.982827	-0.691521
C23	C	-0.542177	-0.864678	-0.676554
C24	C	-1.021510	-1.345809	-0.743937
C25	C	-1.061011	-1.332664	-0.646916
C26	C	-0.974776	-1.423247	-0.684002
C27	C	-1.082363	-1.436441	-0.781040
C28	C	-1.120773	-1.423340	-0.684035
C29	C	-1.013181	-1.410058	-0.586925
C30	C	-1.034538	-1.513871	-0.721118
C31	C	-1.074015	-1.500770	-0.624036
C32	C	-0.890671	-1.423190	-0.683984
C33	C	-1.204875	-1.423397	-0.684043
C34	C	-0.354457	-1.423379	-0.684035
C35	C	-0.271920	-1.423442	-0.684060
C36	C	-0.569211	-1.389208	-0.952222
C37	C	-0.578188	-1.374709	-1.066533
C38	C	-0.575477	-0.691479	-0.718013
C39	C	-0.587101	-0.805792	-0.732500
C40	C	-0.543431	-1.430783	-1.125442
C41	C	-0.552708	-1.415799	-1.243589
C42	C	-0.527112	-1.457182	-0.416781
C43	C	-0.517946	-1.471880	-0.302496
H44	H	-0.601550	-1.019881	-0.750496
H45	H	-0.506803	-1.489879	-1.088410
F46	F	-0.626057	-1.297455	-1.114931
H47	H	-0.461921	-1.004660	-0.576615
F48	F	-0.480272	-0.816256	-0.599472
F49	F	-0.600580	-1.338540	-1.291982
H50	H	-1.112420	-1.447566	-0.863092
H51	H	-1.022515	-1.590443	-0.752527
H52	H	-0.998494	-1.280248	-0.794529
F53	F	-0.648995	-0.854210	-0.809601
F54	F	-1.076705	-1.232546	-0.605893
H55	H	-0.481314	-1.530978	-1.265469
F56	F	-0.974000	-1.395404	-0.479632
F57	F	-1.103900	-1.586430	-0.557722
