data_functionalizedCrystal
_audit_creation_method	'MofGen! by Chris Wilmer'
_symmetry_space_group_name_H-M	'P1'
_symmetry_Int_Tables_number	1
_symmetry_cell_setting	triclinic
loop_
_symmetry_equiv_pos_as_xyz
  x,y,z
_cell_length_a	11.792241
_cell_length_b	10.654550
_cell_length_c	9.130313
_cell_angle_alpha	90.003780
_cell_angle_beta	89.998583
_cell_angle_gamma	95.660841
loop_
_atom_site_label
_atom_site_type_symbol
_atom_site_fract_x
_atom_site_fract_y
_atom_site_fract_z
O1	O	0.159415	-1.667383	-0.121920
O2	O	0.174603	-1.301862	-0.121897
O3	O	0.001859	-1.493493	-0.121899
O4	O	0.332159	-1.475752	-0.121918
O5	O	0.001864	-1.493490	0.121700
O6	O	0.174608	-1.301859	0.121702
O7	O	0.159419	-1.667381	0.121678
Cu8	Cu	0.167014	-1.484620	0.143933
Cu9	Cu	0.167008	-1.484623	-0.144151
O10	O	0.332164	-1.475750	0.121680
C11	C	-0.040432	-1.492377	-0.000100
C12	C	-0.166454	-1.489042	-0.000101
C13	C	0.173490	-1.255066	-0.000095
C14	C	0.170154	-1.115632	-0.000085
C15	C	0.160532	-1.714177	-0.000127
C16	C	0.163869	-1.853611	-0.000146
C17	C	-0.397180	-1.482908	-0.000125
C18	C	-0.268787	-1.486316	-0.000112
C19	C	0.374455	-1.476865	-0.000122
C20	C	0.500476	-1.480201	-0.000130
N21	N	0.167017	-1.484627	0.346555
C22	C	0.271863	-1.035858	-0.000113
C23	C	0.268721	-0.904847	-0.000138
C24	C	0.062152	-0.933394	-0.000114
C25	C	0.065295	-1.064404	-0.000079
C26	C	0.391124	-1.019376	-0.000133
C27	C	0.387982	-0.888364	-0.000158
N28	N	0.166996	-1.484625	-0.346774
C29	C	0.090552	-1.569503	0.423206
C30	C	0.090539	-1.569500	0.576543
C31	C	0.243465	-1.399740	0.576564
C32	C	0.243472	-1.399739	0.423230
C33	C	0.002265	-1.667516	0.423195
C34	C	0.002251	-1.667513	0.576532
H35	H	-0.023221	-0.891668	-0.000132
C36	C	0.127680	-1.784265	0.717935
C37	C	0.028503	-1.797719	0.632716
H38	H	0.143880	-1.864646	0.752625
H39	H	0.189559	-1.748362	0.660143
H40	H	0.116850	-1.730676	0.798848
H41	H	0.039336	-1.851301	0.551797
H42	H	-0.033391	-1.833640	0.690511
C43	C	0.472857	-0.965281	-0.235379
C44	C	0.442393	-1.067378	-0.142103
H45	H	0.504511	-0.994919	-0.323022
H46	H	0.407169	-0.924177	-0.258199
H47	H	0.527568	-0.907515	-0.188179
H48	H	0.387675	-1.125139	-0.189299
H49	H	0.508089	-1.108501	-0.119285
H50	H	0.437769	-1.048574	0.101816
C51	C	0.308269	-1.182782	0.623799
C52	C	0.327500	-1.306436	0.660855
H53	H	0.360146	-1.125181	0.675844
H54	H	0.319226	-1.170644	0.521522
H55	H	0.232393	-1.168655	0.648926
H56	H	0.403374	-1.320565	0.635718
H57	H	0.316552	-1.318579	0.763155
C58	C	0.372850	-0.875984	0.261583
C59	C	0.436636	-0.826571	0.141814
H60	H	0.402889	-0.837843	0.349231
H61	H	0.295734	-0.859094	0.250351
H62	H	0.376686	-0.964528	0.266406
H63	H	0.432793	-0.738029	0.136985
H64	H	0.513772	-0.843452	0.153050
C65	C	-0.139202	-1.079456	-0.000040
C66	C	-0.046506	-1.152092	-0.000033
H67	H	-0.208225	-1.133595	-0.000019
H68	H	-0.136121	-1.027743	0.084887
H69	H	-0.136134	-1.027785	-0.085011
H70	H	-0.049570	-1.203757	0.084943
H71	H	-0.049590	-1.203828	-0.084969
C72	C	0.439344	-1.327297	0.376044
C73	C	0.327520	-1.306434	0.338977
H74	H	0.491233	-1.269696	0.324022
H75	H	0.450270	-1.315150	0.478326
H76	H	0.452372	-1.411194	0.350896
H77	H	0.314490	-1.222540	0.364134
H78	H	0.316590	-1.318571	0.236672
C79	C	-0.182145	-1.599877	0.526524
C80	C	-0.109058	-1.626693	0.640744
H81	H	-0.250866	-1.574696	0.566171
H82	H	-0.146366	-1.533690	0.468001
H83	H	-0.198783	-1.673069	0.467950
H84	H	-0.092412	-1.553497	0.699311
H85	H	-0.144844	-1.692885	0.699291
C86	C	0.150201	-1.806367	0.406412
C87	C	0.039593	-1.790508	0.359002
H88	H	0.173248	-1.882302	0.366796
H89	H	0.200920	-1.737048	0.374275
H90	H	0.151440	-1.810528	0.510321
H91	H	0.038355	-1.786338	0.255092
H92	H	-0.011139	-1.859845	0.391131
H93	H	0.432916	-0.846505	-0.102114
H94	H	-0.084976	-1.646320	0.381582
