data_functionalizedCrystal
_audit_creation_method	'MofGen! by Chris Wilmer'
_symmetry_space_group_name_H-M	'P1'
_symmetry_Int_Tables_number	1
_symmetry_cell_setting	triclinic
loop_
_symmetry_equiv_pos_as_xyz
  x,y,z
_cell_length_a	16.109301
_cell_length_b	12.837942
_cell_length_c	14.586319
_cell_angle_alpha	89.996741
_cell_angle_beta	89.999213
_cell_angle_gamma	89.145211
loop_
_atom_site_label
_atom_site_type_symbol
_atom_site_fract_x
_atom_site_fract_y
_atom_site_fract_z
O1	O	1.113716	0.133240	-0.076181
O2	O	0.872971	0.149822	-0.076196
O3	O	0.988005	-0.009370	-0.076183
O4	O	0.998682	0.292432	-0.076194
O5	O	0.987996	-0.009372	0.076298
O6	O	0.872962	0.149819	0.076285
O7	O	1.113707	0.133238	0.076299
Cu8	Cu	0.993333	0.141528	0.090215
Cu9	Cu	0.993344	0.141531	-0.090111
O10	O	0.998673	0.292430	0.076287
C11	C	0.841938	0.149149	0.000043
C12	C	0.749483	0.147135	0.000037
C13	C	0.534343	0.236914	0.000045
C14	C	0.447471	0.235014	0.000051
C15	C	0.452341	0.046138	0.000054
C16	C	0.539211	0.048040	0.000054
C17	C	0.580209	0.143431	0.000045
C18	C	0.406468	0.139629	0.000050
C19	C	0.312278	0.137568	0.000057
C20	C	0.674405	0.145492	0.000040
C21	C	0.984394	-0.047991	0.000056
C22	C	0.973637	-0.163064	0.000054
C23	C	1.102954	-0.404066	0.000043
C24	C	1.092851	-0.512188	0.000041
C25	C	0.943328	-0.487433	0.000041
C26	C	0.953431	-0.379311	0.000043
C27	C	1.033247	-0.337632	0.000046
C28	C	1.043349	-0.229507	0.000054
C29	C	0.893827	-0.204754	0.000048
C30	C	0.883724	-0.312876	0.000046
C31	C	1.144739	0.133911	0.000059
C32	C	1.237195	0.135924	0.000058
C33	C	1.002284	0.331050	0.000045
C34	C	1.013041	0.446124	0.000041
N35	N	0.993332	0.141526	0.217047
N36	N	0.993352	0.141526	-0.216943
C37	C	1.044290	0.071059	0.452059
C38	C	1.044292	0.071057	0.548040
C39	C	0.942388	0.211995	0.548038
C40	C	0.942382	0.211992	0.452059
C41	C	0.993338	0.141525	0.404071
C42	C	0.993346	0.141526	0.596032
C43	C	0.993348	0.141524	0.700099
C44	C	0.993335	0.141526	0.299998
H45	H	0.418949	-0.031526	0.000066
C46	C	0.556931	0.398498	-0.078337
C47	C	0.579406	0.341768	0.000044
H48	H	0.584746	0.463234	-0.078330
H49	H	0.572175	0.360015	-0.131501
H50	H	0.498628	0.410732	-0.078326
H51	H	0.637709	0.329527	0.000030
H52	H	0.564168	0.380259	0.053223
C53	C	1.141448	-0.122262	-0.078329
C54	C	1.131078	-0.183685	0.000053
H55	H	1.195608	-0.093971	-0.078328
H56	H	1.134400	-0.163923	-0.131493
H57	H	1.101374	-0.067223	-0.078315
H58	H	1.171149	-0.238728	0.000035
H59	H	1.138134	-0.142021	0.053230
H60	H	1.167943	-0.370130	0.000054
H61	H	0.576557	-0.028091	0.000057
H62	H	1.085780	0.013676	0.587108
C63	C	0.796544	-0.452117	0.000019
C64	C	0.855600	-0.533259	0.000022
H65	H	0.742385	-0.480410	-0.000002
H66	H	0.803581	-0.410475	0.053196
H67	H	0.803607	-0.410445	-0.053151
H68	H	0.848541	-0.574927	0.053195
H69	H	0.848560	-0.574919	-0.053161
H70	H	1.149614	-0.566277	0.000036
H71	H	0.818741	-0.346827	0.000041
C72	C	0.842917	-0.028019	0.000046
C73	C	0.817198	-0.131725	0.000045
H74	H	0.795610	0.017063	0.000040
H75	H	0.875281	-0.015396	0.053218
H76	H	0.875293	-0.015390	-0.053129
H77	H	0.784828	-0.144357	0.053224
H78	H	0.784820	-0.144354	-0.053133
C79	C	1.145009	-0.068260	0.461704
C80	C	1.100290	-0.006406	0.399310
H81	H	1.179576	-0.116091	0.429139
H82	H	1.178335	-0.025101	0.499130
H83	H	1.107439	-0.105552	0.499149
H84	H	1.137860	0.030891	0.361870
H85	H	1.066961	-0.049571	0.361868
H86	H	0.900887	0.269375	0.412985
C87	C	0.346954	0.342446	-0.078337
C88	C	0.397053	0.337773	0.000044
H89	H	0.315826	0.405886	-0.078336
H90	H	0.380944	0.339265	-0.131501
H91	H	0.310105	0.285362	-0.078322
H92	H	0.433907	0.394853	0.000026
H93	H	0.363060	0.340965	0.053222
C94	C	0.897157	0.274589	0.695168
C95	C	0.886389	0.289460	0.600789
H96	H	0.862589	0.322421	0.727731
H97	H	0.882645	0.205414	0.710902
H98	H	0.953540	0.285866	0.710880
H99	H	0.830007	0.278176	0.585077
H100	H	0.900895	0.358652	0.585050
