data_functionalizedCrystal
_audit_creation_method	'MofGen! by Chris Wilmer'
_symmetry_space_group_name_H-M	'P1'
_symmetry_Int_Tables_number	1
_symmetry_cell_setting	triclinic
loop_
_symmetry_equiv_pos_as_xyz
  x,y,z
_cell_length_a	10.489716
_cell_length_b	10.489716
_cell_length_c	17.766277
_cell_angle_alpha	90.003761
_cell_angle_beta	89.998641
_cell_angle_gamma	84.529136
loop_
_atom_site_label
_atom_site_type_symbol
_atom_site_fract_x
_atom_site_fract_y
_atom_site_fract_z
O1	O	1.694045	0.179827	0.062581
O2	O	1.322844	0.196753	0.062583
O3	O	1.516908	0.002690	0.062584
O4	O	1.499982	0.373891	0.062579
O5	O	1.516912	0.002670	-0.062604
O6	O	1.322849	0.196734	-0.062606
O7	O	1.694050	0.179808	-0.062608
Cu8	Cu	1.508450	0.188269	-0.074037
Cu9	Cu	1.508444	0.188292	0.074013
O10	O	1.499986	0.373871	-0.062609
C11	C	1.275314	0.195472	-0.000011
C12	C	1.133684	0.191667	-0.000010
C13	C	1.035999	0.310673	-0.000010
C14	C	0.958661	0.247778	-0.061737
C15	C	0.958663	0.247769	0.061689
C16	C	1.058211	0.128822	-0.061788
C17	C	1.058218	0.128830	0.061694
C18	C	0.980929	0.065848	-0.000048
C19	C	1.515638	-0.044852	-0.000007
C20	C	1.511833	-0.186483	-0.000001
C21	C	1.630839	-0.284167	-0.000008
C22	C	1.567952	-0.361513	0.061715
C23	C	1.567928	-0.361496	-0.061711
C24	C	1.448995	-0.261963	0.061773
C25	C	1.448990	-0.261941	-0.061708
C26	C	1.386015	-0.339237	0.000030
C27	C	1.741580	0.181089	-0.000012
C28	C	1.883210	0.184894	-0.000008
C29	C	1.501256	0.421413	-0.000016
C30	C	1.505061	0.563044	-0.000018
N31	N	1.508441	0.188299	0.178143
N32	N	1.508463	0.188252	-0.178168
C33	C	1.594529	0.102539	0.217530
C34	C	1.594540	0.102537	0.296332
C35	C	1.508441	0.188282	0.335743
C36	C	1.422347	0.274059	0.296346
C37	C	1.422347	0.274067	0.217546
C38	C	1.392415	0.203657	0.460589
C39	C	1.392414	0.203640	0.539388
C40	C	1.508441	0.188264	0.578790
C41	C	1.624476	0.172879	0.539383
C42	C	1.624476	0.172887	0.460583
C43	C	1.508432	0.188284	0.421189
C44	C	1.594548	0.102497	0.703623
C45	C	1.594561	0.102504	0.782427
C46	C	1.422357	0.274020	0.782439
C47	C	1.422355	0.274019	0.703637
C48	C	1.508449	0.188251	0.664234
H49	H	1.060659	0.414190	-0.000069
O50	O	1.737107	0.158135	0.422220
C51	C	1.748172	0.266580	0.376662
H52	H	1.648801	0.316384	0.364868
H53	H	1.796345	0.235491	0.321244
H54	H	1.808317	0.335555	0.407034
H55	H	0.915173	0.298039	0.113867
H56	H	1.282422	-0.363659	0.000064
O57	O	0.951570	-0.057663	-0.000040
C58	C	0.817401	-0.059968	0.000560
H59	H	0.770928	0.033982	0.024597
H60	H	0.790960	-0.143031	0.036922
H61	H	0.781824	-0.072718	-0.059353
H62	H	1.101717	0.078640	0.113883
O63	O	1.754330	-0.254742	0.000211
C64	C	1.816621	-0.305687	0.065413
H65	H	1.742406	-0.320532	0.110658
H66	H	1.885562	-0.236311	0.086974
H67	H	1.872265	-0.401408	0.051331
H68	H	1.618193	-0.404981	-0.113892
O69	O	1.627971	-0.413203	0.123990
C70	C	1.674664	-0.315118	0.167350
H71	H	1.687418	-0.229097	0.129829
H72	H	1.770806	-0.351487	0.193162
H73	H	1.603526	-0.285458	0.214118
O74	O	1.389321	-0.210270	0.124160
C75	C	1.476764	-0.146115	0.166879
H76	H	1.578662	-0.186813	0.152882
H77	H	1.457781	-0.160087	0.229377
H78	H	1.464558	-0.039571	0.152923
H79	H	1.398799	-0.218426	-0.113893
H80	H	1.664635	0.032705	0.185451
H81	H	1.664646	0.032699	0.328408
H82	H	1.718957	0.160368	0.571462
H83	H	1.352243	0.343905	0.185476
H84	H	1.664656	0.032663	0.671540
H85	H	1.297925	0.216184	0.428514
O86	O	1.110047	0.068807	-0.124033
C87	C	1.197568	-0.034844	-0.102003
H88	H	1.232634	-0.017854	-0.042435
H89	H	1.282567	-0.043403	-0.142274
H90	H	1.148278	-0.127088	-0.103488
H91	H	1.352246	0.343876	0.328439
O92	O	1.678240	0.019070	0.820574
C93	C	1.754243	-0.056602	0.768894
H94	H	1.701943	-0.058642	0.712724
H95	H	1.772962	-0.158271	0.791656
H96	H	1.849281	-0.014086	0.760512
O97	O	1.338898	0.357376	0.820794
C98	C	1.407765	0.436897	0.866362
H99	H	1.507192	0.387231	0.878164
H100	H	1.354682	0.456471	0.921776
H101	H	1.417110	0.531292	0.835995
O102	O	1.338541	0.357189	0.665406
C103	C	1.212151	0.335005	0.684677
H104	H	1.210798	0.232844	0.706331
H105	H	1.148251	0.348945	0.632857
H106	H	1.175200	0.405285	0.730423
O107	O	0.906809	0.307902	-0.123938
C108	C	0.934370	0.436856	-0.123731
H109	H	0.954487	0.467496	-0.063664
H110	H	0.848883	0.499861	-0.147050
H111	H	1.022022	0.447486	-0.160310
O112	O	1.279592	0.218654	0.577547
C113	C	1.177182	0.232214	0.525875
H114	H	1.212707	0.267682	0.469707
H115	H	1.098347	0.304267	0.548651
H116	H	1.137681	0.135662	0.517485
