data_functionalizedCrystal
_audit_creation_method	'MofGen! by Chris Wilmer'
_symmetry_space_group_name_H-M	'P1'
_symmetry_Int_Tables_number	1
_symmetry_cell_setting	triclinic
loop_
_symmetry_equiv_pos_as_xyz
  x,y,z
_cell_length_a	25.639242
_cell_length_b	21.295417
_cell_length_c	21.295420
_cell_angle_alpha	90.006945
_cell_angle_beta	90.025729
_cell_angle_gamma	90.026033
loop_
_atom_site_label
_atom_site_type_symbol
_atom_site_fract_x
_atom_site_fract_y
_atom_site_fract_z
Zn1	Zn	0.799273	-0.250847	0.356058
Zn2	Zn	1.132606	0.082486	0.689391
Zn3	Zn	1.465940	0.415819	1.022725
Zn4	Zn	0.799204	-0.356072	0.250784
Zn5	Zn	1.132537	-0.022739	0.584117
Zn6	Zn	1.465870	0.310594	0.917450
Zn7	Zn	0.711844	-0.250813	0.250787
Zn8	Zn	1.045177	0.082521	0.584120
Zn9	Zn	1.378511	0.415854	0.917454
Zn10	Zn	0.711807	-0.356074	0.355999
Zn11	Zn	1.045140	-0.022741	0.689332
Zn12	Zn	1.378474	0.310592	1.022666
O13	O	0.755532	-0.303452	0.303407
O14	O	1.088865	0.029882	0.636740
O15	O	1.422199	0.363215	0.970074
O16	O	0.872429	-0.264819	0.342116
O17	O	1.205762	0.068514	0.675450
O18	O	1.539096	0.401847	1.008783
O19	O	0.787602	-0.342094	0.162695
O20	O	1.120935	-0.008760	0.496028
O21	O	1.454268	0.324573	0.829361
O22	O	0.723486	-0.162728	0.264778
O23	O	1.056820	0.170605	0.598111
O24	O	1.390153	0.503939	0.931444
O25	O	0.872378	-0.342128	0.264772
O26	O	1.205711	-0.008794	0.598105
O27	O	1.539045	0.324539	0.931438
O28	O	0.787720	-0.162753	0.342120
O29	O	1.121053	0.170580	0.675453
O30	O	1.454387	0.503913	1.008787
O31	O	0.723419	-0.264760	0.162697
O32	O	1.056752	0.068573	0.496031
O33	O	1.390086	0.401907	0.829364
O34	O	0.638674	-0.264762	0.264721
O35	O	0.972007	0.068571	0.598054
O36	O	1.305341	0.401904	0.931387
O37	O	0.723423	-0.342131	0.444096
O38	O	1.056757	-0.008798	0.777430
O39	O	1.390090	0.324535	1.110763
O40	O	0.638647	-0.342098	0.342019
O41	O	0.971980	-0.008764	0.675353
O42	O	1.305313	0.324569	1.008686
O43	O	0.787684	-0.264821	0.444140
O44	O	1.121017	0.068512	0.777473
O45	O	1.454351	0.401845	1.110806
O46	O	0.787566	-0.444162	0.264714
O47	O	1.120899	-0.110829	0.598048
O48	O	1.454232	0.222505	0.931381
O49	O	0.723356	-0.444164	0.342016
O50	O	1.056689	-0.110830	0.675349
O51	O	1.390022	0.222503	1.008683
C52	C	0.755463	-0.467003	0.303372
C53	C	1.088797	-0.133670	0.636705
C54	C	1.422130	0.199663	0.970039
C55	C	0.755482	-0.536971	0.303378
C56	C	1.088815	-0.203638	0.636712
C57	C	1.422149	0.129695	0.970045
C58	C	0.619689	-0.303427	0.303364
C59	C	0.953023	0.029907	0.636698
C60	C	1.286356	0.363240	0.970031
C61	C	0.561575	-0.303431	0.303361
C62	C	0.894909	0.029902	0.636694
C63	C	1.228242	0.363235	0.970028
C64	C	0.788946	-0.569816	0.263169
C65	C	1.122279	-0.236483	0.596502
C66	C	1.455612	0.096850	0.929835
C67	C	0.788970	-0.635559	0.263183
C68	C	1.122304	-0.302225	0.596516
C69	C	1.455637	0.031108	0.929849
C70	C	0.755522	-0.668454	0.303400
C71	C	1.088855	-0.335121	0.636733
C72	C	1.422188	-0.001787	0.970067
C73	C	0.722055	-0.635601	0.343617
C74	C	1.055389	-0.302268	0.676951
C75	C	1.388722	0.031066	1.010284
C76	C	0.722036	-0.569860	0.343607
C77	C	1.055369	-0.236526	0.676940
C78	C	1.388702	0.096807	1.010273
N79	N	0.709784	-0.771717	0.308185
N80	N	1.043117	-0.438384	0.641518
N81	N	1.376450	-0.105051	0.974851
N82	N	0.709804	-0.834169	0.308191
N83	N	1.043137	-0.500836	0.641524
N84	N	1.376471	-0.167502	0.974858
C85	C	0.755580	-0.866529	0.303436
C86	C	1.088914	-0.533195	0.636769
C87	C	1.422247	-0.199862	0.970103
N88	N	0.801336	-0.834078	0.298662
N89	N	1.134670	-0.500744	0.631995
N90	N	1.468003	-0.167411	0.965328
N91	N	0.801315	-0.771620	0.298652
N92	N	1.134649	-0.438287	0.631985
N93	N	1.467982	-0.104954	0.965319
C94	C	0.755540	-0.739739	0.303416
C95	C	1.088873	-0.406406	0.636750
C96	C	1.422206	-0.073073	0.970083
C97	C	0.789073	-0.970659	0.263240
C98	C	1.122407	-0.637326	0.596573
C99	C	1.455740	-0.303992	0.929906
C100	C	0.789099	-1.036403	0.263258
C101	C	1.122432	-0.703069	0.596592
C102	C	1.455765	-0.369736	0.929925
C103	C	0.722179	-1.036444	0.343690
C104	C	1.055513	-0.703110	0.677023
C105	C	1.388846	-0.369777	1.010356
C106	C	0.722159	-0.970701	0.343674
C107	C	1.055492	-0.637368	0.677008
C108	C	1.388825	-0.304035	1.010341
C109	C	0.755605	-0.937813	0.303446
C110	C	1.088938	-0.604480	0.636779
C111	C	1.422272	-0.271146	0.970113
C112	C	0.201207	-0.343787	0.343618
C113	C	0.534540	-0.010454	0.676952
C114	C	0.867874	0.322879	1.010285
C115	C	0.146603	-0.343791	0.343628
C116	C	0.479936	-0.010458	0.676962
C117	C	0.813269	0.322875	1.010295
O118	O	0.118361	-0.378073	0.377820
O119	O	0.451695	-0.044739	0.711154
O120	O	0.785028	0.288594	1.044487
N121	N	0.119293	-0.303469	0.303448
N122	N	0.452626	0.029864	0.636781
N123	N	0.785960	0.363198	0.970115
C124	C	0.146590	-0.263136	0.263260
C125	C	0.479924	0.070198	0.596593
C126	C	0.813257	0.403531	0.929926
O127	O	0.118347	-0.228838	0.229085
O128	O	0.451680	0.104495	0.562418
O129	O	0.785014	0.437828	0.895751
C130	C	0.201194	-0.263129	0.263254
C131	C	0.534527	0.070204	0.596587
C132	C	0.867860	0.403538	0.929920
C133	C	0.228501	-0.303459	0.303432
C134	C	0.561834	0.029875	0.636765
C135	C	0.895167	0.363208	0.970099
C136	C	0.228514	-0.384113	0.383794
C137	C	0.561847	-0.050780	0.717127
C138	C	0.895181	0.282554	1.050461
C139	C	0.283115	-0.384110	0.383783
C140	C	0.616448	-0.050777	0.717116
C141	C	0.949781	0.282557	1.050450
C142	C	0.310408	-0.343781	0.343596
C143	C	0.643741	-0.010448	0.676930
C144	C	0.977075	0.322886	1.010263
C145	C	0.283101	-0.303455	0.303421
C146	C	0.616434	0.029878	0.636754
C147	C	0.949768	0.363211	0.970088
C148	C	0.228490	-0.222793	0.223069
C149	C	0.561823	0.110540	0.556402
C150	C	0.895156	0.443874	0.889736
C151	C	0.283097	-0.222790	0.223066
C152	C	0.616430	0.110544	0.556400
C153	C	0.949764	0.443877	0.889733
C154	C	0.310404	-0.263119	0.263245
C155	C	0.643737	0.070214	0.596578
C156	C	0.977071	0.403547	0.929911
C157	C	0.364995	-0.263123	0.263224
C158	C	0.698328	0.070210	0.596557
C159	C	1.031662	0.403543	0.929890
N160	N	0.392305	-0.303446	0.303404
N161	N	0.725638	0.029888	0.636737
N162	N	1.058972	0.363221	0.970070
C163	C	0.365011	-0.343775	0.343590
C164	C	0.698345	-0.010441	0.676924
C165	C	1.031678	0.322892	1.010257
C166	C	0.031920	-0.263152	0.263277
C167	C	0.365253	0.070182	0.596610
C168	C	0.698586	0.403515	0.929944
C169	C	-0.022683	-0.263161	0.263279
C170	C	0.310651	0.070172	0.596613
C171	C	0.643984	0.403506	0.929946
C172	C	-0.022666	-0.343816	0.343649
C173	C	0.310667	-0.010483	0.676982
C174	C	0.644000	0.322851	1.010316
C175	C	0.031937	-0.343809	0.343643
C176	C	0.365270	-0.010476	0.676976
C177	C	0.698604	0.322857	1.010309
C178	C	0.059229	-0.303474	0.303457
C179	C	0.392563	0.029859	0.636790
C180	C	0.725896	0.363193	0.970124
C181	C	0.479677	-0.343765	0.343564
C182	C	0.813010	-0.010432	0.676897
C183	C	1.146343	0.322901	1.010230
C184	C	0.534282	-0.343760	0.343547
C185	C	0.867615	-0.010427	0.676881
C186	C	1.200949	0.322906	1.010214
C187	C	0.534261	-0.263103	0.263181
C188	C	0.867594	0.070230	0.596514
C189	C	1.200927	0.403563	0.929847
C190	C	0.479660	-0.263110	0.263194
C191	C	0.812994	0.070223	0.596528
C192	C	1.146327	0.403556	0.929861
C193	C	0.452369	-0.303443	0.303391
C194	C	0.785703	0.029890	0.636724
C195	C	1.119036	0.363223	0.970058
O196	O	0.393271	-0.228858	0.229051
O197	O	0.726604	0.104476	0.562384
O198	O	1.059938	0.437809	0.895717
O199	O	0.393261	-0.378060	0.377765
O200	O	0.726595	-0.044727	0.711099
O201	O	1.059928	0.288606	1.044432
C202	C	0.891905	-0.303477	0.303450
C203	C	1.225238	0.029856	0.636784
C204	C	1.558572	0.363190	0.970117
C205	C	0.950019	-0.303488	0.303469
C206	C	1.283352	0.029845	0.636802
C207	C	1.616686	0.363179	0.970135
C208	C	0.755557	-0.303480	0.467597
C209	C	1.088891	0.029853	0.800931
C210	C	1.422224	0.363186	1.134264
C211	C	0.755568	-0.303493	0.537565
C212	C	1.088901	0.029841	0.870899
C213	C	1.422235	0.363174	1.204232
C214	C	0.755615	-0.139261	0.303456
C215	C	1.088948	0.194072	0.636789
C216	C	1.422282	0.527405	0.970122
C217	C	0.755650	-0.069293	0.303477
C218	C	1.088984	0.264040	0.636810
C219	C	1.422317	0.597373	0.970143
C220	C	0.789024	-0.263244	0.570456
C221	C	1.122357	0.070089	0.903789
C222	C	1.455690	0.403422	1.237122
C223	C	0.789016	-0.263234	0.636198
C224	C	1.122349	0.070100	0.969531
C225	C	1.455682	0.403433	1.302865
C226	C	0.755558	-0.303483	0.669048
C227	C	1.088891	0.029850	1.002381
C228	C	1.422224	0.363183	1.335715
C229	C	0.722096	-0.343735	0.636150
C230	C	1.055429	-0.010401	0.969483
C231	C	1.388762	0.322932	1.302816
C232	C	0.722101	-0.343739	0.570408
C233	C	1.055434	-0.010406	0.903742
C234	C	1.388767	0.322927	1.237075
N235	N	0.751512	-0.358577	0.772262
N236	N	1.084846	-0.025244	1.105596
N237	N	1.418179	0.308090	1.438929
N238	N	0.751511	-0.358571	0.834714
N239	N	1.084844	-0.025237	1.168047
N240	N	1.418177	0.308096	1.501381
C241	C	0.755539	-0.303470	0.867123
C242	C	1.088873	0.029863	1.200456
C243	C	1.422206	0.363196	1.533789
N244	N	0.759580	-0.248375	0.834721
N245	N	1.092913	0.084958	1.168054
N246	N	1.426247	0.418292	1.501387
N247	N	0.759585	-0.248382	0.772263
N248	N	1.092918	0.084951	1.105597
N249	N	1.426251	0.418285	1.438930
C250	C	0.755548	-0.303482	0.740333
C251	C	1.088881	0.029851	1.073667
C252	C	1.422215	0.363184	1.407000
C253	C	0.788988	-0.263207	0.971298
C254	C	1.122321	0.070126	1.304632
C255	C	1.455655	0.403460	1.637965
C256	C	0.788976	-0.263195	1.037042
C257	C	1.122310	0.070138	1.370375
C258	C	1.455643	0.403471	1.703709
C259	C	0.722059	-0.343702	1.036992
C260	C	1.055392	-0.010369	1.370326
C261	C	1.388726	0.322965	1.703659
C262	C	0.722068	-0.343708	0.971250
C263	C	1.055401	-0.010374	1.304583
C264	C	1.388734	0.322959	1.637917
C265	C	0.755535	-0.303461	0.938407
C266	C	1.088868	0.029872	1.271740
C267	C	1.422202	0.363206	1.605074
C268	C	0.755509	-0.303442	1.139855
C269	C	1.088843	0.029891	1.473189
C270	C	1.422176	0.363225	1.806522
C271	C	0.755517	-0.303444	1.069887
C272	C	1.088851	0.029889	1.403221
C273	C	1.422184	0.363222	1.736554
H274	H	0.816222	-0.662306	0.230439
H275	H	1.149556	-0.328973	0.563773
H276	H	1.482889	0.004360	0.897106
C277	C	0.825780	-0.218920	1.073222
C278	C	1.159113	0.114413	1.406555
C279	C	1.492447	0.447747	1.739888
H280	H	0.845714	-0.194958	1.044243
H281	H	1.179048	0.138376	1.377577
H282	H	1.512381	0.471709	1.710910
H283	H	0.805794	-0.191483	1.098855
H284	H	1.139128	0.141850	1.432188
H285	H	1.472461	0.475183	1.765521
H286	H	0.848546	-0.243009	1.098881
H287	H	1.181879	0.090324	1.432215
H288	H	1.515212	0.423657	1.765548
C289	C	0.685270	-0.387987	0.935069
C290	C	1.018603	-0.054653	1.268402
C291	C	1.351937	0.278680	1.601736
H292	H	0.665344	-0.411960	0.964047
H293	H	0.998678	-0.078627	1.297380
H294	H	1.332011	0.254707	1.630714
H295	H	0.662504	-0.363904	0.909409
H296	H	0.995837	-0.030571	1.242742
H297	H	1.329171	0.302762	1.576075
H298	H	0.705262	-0.415423	0.909436
H299	H	1.038595	-0.082089	1.242770
H300	H	1.371928	0.251244	1.576103
H301	H	0.694907	-0.943957	0.376414
H302	H	1.028240	-0.610624	0.709747
H303	H	1.361574	-0.277290	1.043081
C304	C	-0.052694	-0.388175	0.387858
C305	C	0.280639	-0.054842	0.721192
C306	C	0.613973	0.278491	1.054525
H307	H	-0.028613	-0.412196	0.411786
H308	H	0.304720	-0.078863	0.745120
H309	H	0.638053	0.254471	1.078453
H310	H	-0.073974	-0.364141	0.415330
H311	H	0.259359	-0.030808	0.748663
H312	H	0.592692	0.302525	1.081997
H313	H	-0.074014	-0.415564	0.363726
H314	H	0.259319	-0.082231	0.697059
H315	H	0.592652	0.251102	1.030393
H316	H	0.694785	-0.543117	0.376351
H317	H	1.028118	-0.209784	0.709684
H318	H	1.361452	0.123550	1.043017
H319	H	0.054167	-0.376648	0.376360
H320	H	0.387500	-0.043315	0.709694
H321	H	0.720833	0.290018	1.043027
C322	C	-0.052715	-0.218803	0.219079
C323	C	0.280619	0.114531	0.552413
C324	C	0.613952	0.447864	0.885746
H325	H	-0.028634	-0.194783	0.195150
H326	H	0.304699	0.138550	0.528483
H327	H	0.638032	0.471884	0.861816
H328	H	-0.074038	-0.242833	0.191609
H329	H	0.259295	0.090501	0.524943
H330	H	0.592628	0.423834	0.858276
H331	H	-0.073992	-0.191413	0.243217
H332	H	0.259341	0.141920	0.576550
H333	H	0.592675	0.475253	0.909884
C334	C	0.564317	-0.388121	0.387748
C335	C	0.897650	-0.054788	0.721082
C336	C	1.230983	0.278545	1.054415
H337	H	0.540238	-0.412134	0.411687
H338	H	0.873571	-0.078801	0.745021
H339	H	1.206905	0.254532	1.078354
H340	H	0.585597	-0.415508	0.363617
H341	H	0.918930	-0.082175	0.696950
H342	H	1.252264	0.251159	1.030284
H343	H	0.585638	-0.364083	0.415219
H344	H	0.918971	-0.030750	0.748553
H345	H	1.252304	0.302584	1.081886
H346	H	0.457463	-0.376607	0.376297
H347	H	0.790796	-0.043273	0.709631
H348	H	1.124129	0.290060	1.042964
C349	C	0.198464	-0.178425	0.178877
C350	C	0.531797	0.154908	0.512210
C351	C	0.865131	0.488242	0.845544
H352	H	0.222547	-0.154403	0.154953
H353	H	0.555880	0.178930	0.488286
H354	H	0.889213	0.512263	0.821619
H355	H	0.177140	-0.202448	0.151401
H356	H	0.510473	0.130885	0.484735
H357	H	0.843807	0.464218	0.818068
H358	H	0.177187	-0.151037	0.203018
H359	H	0.510520	0.182296	0.536351
H360	H	0.843854	0.515629	0.869684
H361	H	0.816236	-0.230432	0.944556
H362	H	1.149570	0.102901	1.277889
H363	H	1.482903	0.436234	1.611223
H364	H	0.694852	-0.376504	0.662900
H365	H	1.028185	-0.043171	0.996234
H366	H	1.361519	0.290163	1.329567
C367	C	0.061937	-0.218788	0.219062
C368	C	0.395270	0.114546	0.552396
C369	C	0.728603	0.447879	0.885729
H370	H	0.037848	-0.194781	0.195132
H371	H	0.371181	0.138553	0.528466
H372	H	0.704515	0.471886	0.861799
H373	H	0.083258	-0.191396	0.243185
H374	H	0.416591	0.141938	0.576518
H375	H	0.749925	0.475271	0.909851
H376	H	0.083216	-0.242821	0.191583
H377	H	0.416549	0.090512	0.524916
H378	H	0.749882	0.423845	0.858250
H379	H	0.457426	-0.230272	0.230477
H380	H	0.790759	0.103061	0.563810
H381	H	1.124092	0.436395	0.897143
C382	C	0.825832	-0.218970	0.534332
C383	C	1.159165	0.114364	0.867665
C384	C	1.492499	0.447697	1.200998
H385	H	0.845753	-0.194994	0.563339
H386	H	1.179086	0.138340	0.896673
H387	H	1.512420	0.471673	1.230006
H388	H	0.848602	-0.243054	0.508698
H389	H	1.181935	0.090279	0.842031
H390	H	1.515269	0.423612	1.175364
H391	H	0.805845	-0.191536	0.508677
H392	H	1.139178	0.141797	0.842010
H393	H	1.472511	0.475131	1.175343
C394	C	0.313116	-0.178419	0.178861
C395	C	0.646449	0.154914	0.512195
C396	C	0.979782	0.488247	0.845528
H397	H	0.289029	-0.154407	0.154934
H398	H	0.622362	0.178926	0.488268
H399	H	0.955695	0.512260	0.821601
H400	H	0.334437	-0.151033	0.202989
H401	H	0.667771	0.182301	0.536323
H402	H	1.001104	0.515634	0.869656
H403	H	0.334394	-0.202450	0.151379
H404	H	0.667728	0.130883	0.484713
H405	H	1.001061	0.464216	0.818046
H406	H	0.206298	-0.416954	0.416522
H407	H	0.539631	-0.083621	0.749855
H408	H	0.872964	0.249713	1.083189
C409	C	0.564291	-0.218742	0.218982
C410	C	0.897624	0.114591	0.552315
C411	C	1.230957	0.447925	0.885649
H412	H	0.600720	-0.224514	0.224739
H413	H	0.934054	0.108819	0.558072
H414	H	1.267387	0.442153	0.891406
H415	H	0.555323	-0.227874	0.176669
H416	H	0.888656	0.105459	0.510002
H417	H	1.221989	0.438792	0.843335
H418	H	0.555361	-0.176462	0.228284
H419	H	0.888694	0.156871	0.561617
H420	H	1.222028	0.490205	0.894950
H421	H	0.816258	-0.230455	0.662982
H422	H	1.149592	0.102878	0.996316
H423	H	1.482925	0.436212	1.329649
H424	H	0.694855	-0.376514	0.543630
H425	H	1.028188	-0.043181	0.876963
H426	H	1.361521	0.290153	1.210296
H427	H	0.694822	-0.662388	0.376364
H428	H	1.028156	-0.329055	0.709697
H429	H	1.361489	0.004278	1.043030
H430	H	0.816352	-1.063144	0.230516
H431	H	1.149686	-0.729811	0.563849
H432	H	1.483019	-0.396477	0.897183
H433	H	0.694811	-0.376467	1.063738
H434	H	1.028145	-0.043134	1.397071
H435	H	1.361478	0.290199	1.730405
C436	C	0.313148	-0.428482	0.427968
C437	C	0.646481	-0.095149	0.761301
C438	C	0.979815	0.238185	1.094634
H439	H	0.349578	-0.422717	0.422206
H440	H	0.682911	-0.089383	0.755539
H441	H	1.016245	0.243950	1.088872
H442	H	0.304225	-0.419355	0.470284
H443	H	0.637558	-0.086022	0.803618
H444	H	0.970891	0.247311	1.136951
H445	H	0.304172	-0.470758	0.418660
H446	H	0.637506	-0.137425	0.751993
H447	H	0.970839	0.195908	1.085327
C448	C	0.825723	-0.533640	0.218908
C449	C	1.159057	-0.200306	0.552241
C450	C	1.492390	0.133027	0.885574
H451	H	0.820913	-0.489782	0.224650
H452	H	1.154246	-0.156448	0.557983
H453	H	1.487580	0.176885	0.891317
H454	H	0.860856	-0.544369	0.228148
H455	H	1.194189	-0.211035	0.561482
H456	H	1.527523	0.122298	0.894815
H457	H	0.818078	-0.544442	0.176608
H458	H	1.151411	-0.211109	0.509942
H459	H	1.484744	0.122224	0.843275
C460	C	0.825867	-0.934479	0.218998
C461	C	1.159201	-0.601146	0.552332
C462	C	1.492534	-0.267812	0.885665
H463	H	0.845807	-0.963459	0.195059
H464	H	1.179141	-0.630126	0.528392
H465	H	1.512474	-0.296792	0.861726
H466	H	0.805875	-0.908862	0.191539
H467	H	1.139208	-0.575529	0.524872
H468	H	1.472542	-0.242195	0.858205
H469	H	0.848628	-0.908804	0.243109
H470	H	1.181962	-0.575470	0.576442
H471	H	1.515295	-0.242137	0.909775
H472	H	0.694947	-1.063226	0.376438
H473	H	1.028280	-0.729893	0.709771
H474	H	1.361614	-0.396560	1.043105
