data_functionalizedCrystal
_audit_creation_method	'MofGen! by Chris Wilmer'
_symmetry_space_group_name_H-M	'P1'
_symmetry_Int_Tables_number	1
_symmetry_cell_setting	triclinic
loop_
_symmetry_equiv_pos_as_xyz
  x,y,z
_cell_length_a	17.699083
_cell_length_b	27.732048
_cell_length_c	16.176319
_cell_angle_alpha	89.988239
_cell_angle_beta	89.998611
_cell_angle_gamma	82.962835
loop_
_atom_site_label
_atom_site_type_symbol
_atom_site_fract_x
_atom_site_fract_y
_atom_site_fract_z
O1	O	1.003540	0.061127	-0.068640
O2	O	1.503540	0.561127	0.431360
O3	O	0.783091	0.069080	-0.068668
O4	O	1.283091	0.569080	0.431332
O5	O	0.900162	-0.005269	-0.068637
O6	O	1.400162	0.494731	0.431363
O7	O	0.886469	0.135475	-0.068670
O8	O	1.386469	0.635475	0.431330
O9	O	0.900146	-0.005273	0.068856
O10	O	1.400146	0.494727	0.568856
O11	O	0.783075	0.069075	0.068825
O12	O	1.283075	0.569075	0.568825
O13	O	1.003524	0.061122	0.068853
O14	O	1.503524	0.561122	0.568853
Cu15	Cu	0.893298	0.065098	0.081394
Cu16	Cu	1.393298	0.565098	0.581394
Cu17	Cu	0.893317	0.065104	-0.081208
Cu18	Cu	1.393317	0.565104	0.418792
O19	O	0.886453	0.135471	0.068823
O20	O	1.386453	0.635471	0.568823
C21	C	0.754889	0.068792	0.000075
C22	C	1.254889	0.568792	0.500075
C23	C	0.670878	0.067938	0.000065
C24	C	1.170878	0.567938	0.500065
C25	C	0.621873	0.111579	0.000055
C26	C	1.121873	0.611579	0.500055
C27	C	0.542936	0.110772	0.000066
C28	C	1.042936	0.610772	0.500066
C29	C	0.513007	0.066325	0.000081
C30	C	1.013007	0.566325	0.500081
C31	C	0.562019	0.022680	0.000094
C32	C	1.062019	0.522680	0.500094
C33	C	0.640954	0.023487	0.000089
C34	C	1.140954	0.523487	0.500089
C35	C	0.243685	0.019426	0.000115
C36	C	0.743685	0.519426	0.500115
C37	C	0.164744	0.018623	0.000117
C38	C	0.664744	0.518623	0.500117
C39	C	0.145667	0.106712	0.000092
C40	C	0.645667	0.606712	0.500092
C41	C	0.224602	0.107518	0.000087
C42	C	0.724602	0.607518	0.500087
C43	C	0.273607	0.063874	0.000104
C44	C	0.773607	0.563874	0.500104
C45	C	0.359199	0.064749	0.000094
C46	C	0.859199	0.564749	0.500094
C47	C	0.427418	0.065450	0.000085
C48	C	0.927418	0.565450	0.500085
C49	C	0.899867	-0.023279	0.000112
C50	C	1.399867	0.476721	0.500112
C51	C	0.899001	-0.076937	0.000118
C52	C	1.399001	0.423063	0.500118
C53	C	0.962734	-0.415523	0.000084
C54	C	1.462734	0.084477	0.500084
C55	C	0.959522	-0.617194	0.000072
C56	C	1.459522	-0.117194	0.500072
O57	O	1.017801	-0.648240	0.000043
O58	O	1.517801	-0.148240	0.500043
N59	N	0.890104	-0.636567	0.000064
N60	N	1.390104	-0.136567	0.500064
C61	C	0.821484	-0.605520	0.000053
C62	C	1.321484	-0.105520	0.500053
O63	O	0.762366	-0.626625	0.000038
O64	O	1.262366	-0.126625	0.500038
C65	C	0.824696	-0.403849	0.000059
C66	C	1.324696	0.096151	0.500059
C67	C	0.894119	-0.384479	0.000076
C68	C	1.394119	0.115521	0.500076
C69	C	1.032151	-0.396152	0.000100
C70	C	1.532151	0.103848	0.500100
C71	C	1.032953	-0.345737	0.000107
C72	C	1.532953	0.154263	0.500107
C73	C	0.964338	-0.314693	0.000099
C74	C	1.464338	0.185307	0.500099
C75	C	0.894921	-0.334064	0.000083
C76	C	1.394921	0.165936	0.500083
C77	C	0.756076	-0.372802	0.000043
C78	C	1.256076	0.127198	0.500043
C79	C	0.756886	-0.322382	0.000042
C80	C	1.256886	0.177618	0.500042
C81	C	0.826308	-0.303012	0.000059
C82	C	1.326308	0.196988	0.500059
C83	C	0.827108	-0.252605	0.000083
C84	C	1.327108	0.247395	0.500083
N85	N	0.896526	-0.233232	0.000091
N86	N	1.396526	0.266768	0.500091
C87	C	0.965141	-0.264276	0.000099
C88	C	1.465141	0.235724	0.500099
C89	C	0.819802	-0.711400	0.000052
C90	C	1.319802	-0.211400	0.500052
C91	C	0.818999	-0.761817	0.000052
C92	C	1.318999	-0.261817	0.500052
C93	C	0.957038	-0.773488	0.000069
C94	C	1.457038	-0.273488	0.500069
C95	C	0.957840	-0.723070	0.000075
C96	C	1.457840	-0.223070	0.500075
C97	C	0.889220	-0.692026	0.000060
C98	C	1.389220	-0.192026	0.500060
C99	C	0.966820	-0.158401	0.000115
C100	C	1.466820	0.341599	0.500115
C101	C	0.967616	-0.107981	0.000126
C102	C	1.467616	0.392019	0.500126
C103	C	0.829578	-0.096314	0.000105
C104	C	1.329578	0.403686	0.500105
C105	C	0.828781	-0.146730	0.000098
C106	C	1.328781	0.353270	0.500098
C107	C	0.897409	-0.177772	0.000101
C108	C	1.397409	0.322228	0.500101
O109	O	0.768860	-0.221531	0.000102
O110	O	1.268860	0.278469	0.500102
O111	O	1.024251	-0.243161	0.000096
O112	O	1.524251	0.256839	0.500096
C113	C	0.961931	-0.465938	0.000077
C114	C	1.461931	0.034062	0.500077
C115	C	0.892514	-0.485309	0.000061
C116	C	1.392514	0.014691	0.500061
C117	C	0.823899	-0.454265	0.000053
C118	C	1.323899	0.045735	0.500053
C119	C	0.891711	-0.535726	0.000061
C120	C	1.391711	-0.035726	0.500061
C121	C	0.960326	-0.566770	0.000069
C122	C	1.460326	-0.066770	0.500069
C123	C	1.029744	-0.547397	0.000077
C124	C	1.529744	-0.047397	0.500077
C125	C	1.030546	-0.496982	0.000085
C126	C	1.530546	0.003018	0.500085
C127	C	0.754481	-0.473638	0.000045
C128	C	1.254481	0.026362	0.500045
C129	C	0.753685	-0.524053	0.000038
C130	C	1.253685	-0.024053	0.500038
C131	C	0.822300	-0.555097	0.000046
C132	C	1.322300	-0.055097	0.500046
C133	C	1.031726	0.061410	0.000108
C134	C	1.531726	0.561410	0.500108
C135	C	1.115737	0.062264	0.000113
C136	C	1.615737	0.562264	0.500113
C137	C	0.886748	0.153481	0.000072
C138	C	1.386748	0.653481	0.500072
C139	C	0.887614	0.207139	0.000060
C140	C	1.387614	0.707139	0.500060
N141	N	0.893290	0.065094	0.195759
N142	N	1.393290	0.565094	0.695759
N143	N	0.893331	0.065104	-0.195573
N144	N	1.393331	0.565104	0.304427
C145	C	0.945145	0.032186	0.239037
C146	C	1.445145	0.532186	0.739037
C147	C	0.945149	0.032185	0.325584
C148	C	1.445149	0.532185	0.825584
C149	C	0.893301	0.065096	0.368851
C150	C	1.393301	0.565096	0.868851
C151	C	0.841441	0.098005	0.325568
C152	C	1.341441	0.598005	0.825568
C153	C	0.841434	0.098003	0.239022
C154	C	1.341434	0.598003	0.739022
C155	C	0.841467	0.098014	0.674596
C156	C	1.341467	0.598014	1.174596
C157	C	0.841479	0.098015	0.761147
C158	C	1.341479	0.598015	1.261147
C159	C	0.945181	0.032197	0.761157
C160	C	1.445181	0.532197	1.261157
C161	C	0.945174	0.032194	0.674612
C162	C	1.445174	0.532194	1.174612
C163	C	0.893312	0.065102	0.631336
C164	C	1.393312	0.565102	1.131336
C165	C	0.893308	0.065102	0.537491
C166	C	1.393308	0.565102	1.037491
C167	C	0.893309	0.065099	0.462694
C168	C	1.393309	0.565099	0.962694
H169	H	0.248965	0.143712	0.000071
H170	H	0.748965	0.643712	0.500071
H171	H	0.105758	0.142249	0.000083
H172	H	0.605758	0.642249	0.500083
O173	O	0.791149	0.129956	0.367723
O174	O	1.291149	0.629956	0.867723
C175	C	0.802262	0.122896	0.453391
C176	C	1.302262	0.622896	0.953391
H177	H	0.862647	0.104782	0.465212
H178	H	1.362647	0.604782	0.965212
H179	H	0.793414	0.159510	0.486267
H180	H	1.293414	0.659510	0.986267
H181	H	0.759713	0.098687	0.477970
H182	H	1.259713	0.598687	0.977970
O183	O	1.035038	-0.089142	0.000285
O184	O	1.535038	0.410858	0.500285
C185	C	1.039622	-0.060330	0.071487
C186	C	1.539622	0.439670	0.571487
H187	H	1.000208	-0.072217	0.121252
H188	H	1.500208	0.427783	0.621252
H189	H	1.100672	-0.064926	0.095395
H190	H	1.600672	0.435074	0.595395
H191	H	1.021693	-0.020548	0.055390
H192	H	1.521693	0.479452	0.555390
O193	O	0.533075	-0.020539	0.000142
O194	O	1.033075	0.479461	0.500142
C195	C	0.593259	-0.058885	0.000129
C196	C	1.093259	0.441115	0.500129
H197	H	0.646728	-0.045399	0.026157
H198	H	1.146728	0.454601	0.526157
H199	H	0.577125	-0.089925	0.040052
H200	H	1.077125	0.410075	0.540052
H201	H	0.604588	-0.072338	-0.065831
H202	H	1.104588	0.427662	0.434169
H203	H	1.087078	-0.481215	0.000098
H204	H	1.587078	0.018785	0.500098
H205	H	0.772252	-0.162502	0.000108
H206	H	1.272252	0.337498	0.500108
O207	O	0.291248	-0.022982	-0.000021
O208	O	0.791248	0.477018	0.499979
C209	C	0.277745	-0.049975	-0.071212
C210	C	0.777745	0.450025	0.428788
H211	H	0.250469	-0.024422	-0.120990
H212	H	0.750469	0.475578	0.379010
H213	H	0.333980	-0.069428	-0.095110
H214	H	0.833980	0.430572	0.404890
H215	H	0.237868	-0.077903	-0.055105
H216	H	0.737868	0.422097	0.444895
H217	H	0.680855	-0.012050	0.000096
H218	H	1.180855	0.487950	0.500096
H219	H	0.987368	0.005389	0.203814
H220	H	1.487368	0.505389	0.703814
H221	H	0.773714	-0.071029	0.000101
H222	H	1.273714	0.428971	0.500101
O223	O	0.791139	0.130038	0.197016
O224	O	1.291139	0.630038	0.697016
C225	C	0.802866	0.177879	0.218155
C226	C	1.302866	0.677879	0.718155
H227	H	0.863459	0.178069	0.241938
H228	H	1.363459	0.678069	0.741938
H229	H	0.793869	0.202143	0.161229
H230	H	1.293869	0.702143	0.661229
H231	H	0.760753	0.192112	0.268390
H232	H	1.260753	0.692112	0.768390
O233	O	0.650816	0.154798	0.000076
O234	O	1.150816	0.654798	0.500076
C235	C	0.590631	0.193143	0.000050
C236	C	1.090631	0.693143	0.500050
H237	H	0.537163	0.179654	0.026087
H238	H	1.037163	0.679654	0.526087
H239	H	0.606765	0.224180	0.039959
H240	H	1.106765	0.724180	0.539959
H241	H	0.579299	0.206603	-0.065915
H242	H	1.079299	0.706603	0.434085
O243	O	0.135634	-0.024544	-0.000009
O244	O	0.635634	0.475456	0.499991
C245	C	0.090531	-0.027641	-0.071206
C246	C	0.590531	0.472359	0.428794
H247	H	0.108909	-0.002406	-0.120988
H248	H	0.608909	0.497594	0.379012
H249	H	0.098070	-0.066606	-0.095092
H250	H	0.598070	0.433394	0.404908
H251	H	0.028145	-0.016415	-0.055111
H252	H	0.528145	0.483585	0.444889
O253	O	1.033553	-0.188482	0.000158
O254	O	1.533553	0.311518	0.500158
C255	C	1.094986	-0.160564	0.000153
C256	C	1.594986	0.339436	0.500153
H257	H	1.075310	-0.122919	0.026182
H258	H	1.575310	0.377081	0.526182
H259	H	1.143023	-0.179214	0.040079
H260	H	1.643023	0.320786	0.540079
H261	H	1.116303	-0.156985	-0.065805
H262	H	1.616303	0.343015	0.434195
H263	H	0.987408	0.005400	0.796402
H264	H	1.487408	0.505400	1.296402
H265	H	1.089484	-0.329971	0.000117
H266	H	1.589484	0.170029	0.500117
O267	O	1.096378	-0.577577	-0.000064
O268	O	1.596378	-0.077577	0.499936
C269	C	1.100031	-0.607086	-0.071266
C270	C	1.600031	-0.107086	0.428734
H271	H	1.061114	-0.588568	-0.121037
H272	H	1.561114	-0.088568	0.378963
H273	H	1.161066	-0.612823	-0.095165
H274	H	1.661066	-0.112823	0.404835
H275	H	1.080870	-0.643728	-0.055174
H276	H	1.580870	-0.143728	0.444826
H277	H	0.699545	-0.388565	0.000024
H278	H	1.199545	0.111435	0.500024
O279	O	1.098878	-0.426235	0.000147
O280	O	1.598878	0.073765	0.500147
C281	C	1.160310	-0.398316	0.000139
C282	C	1.660310	0.101684	0.500139
H283	H	1.140630	-0.360669	0.026161
H284	H	1.640630	0.139331	0.526161
H285	H	1.208346	-0.416962	0.040070
H286	H	1.708346	0.083038	0.540070
H287	H	1.181628	-0.394741	-0.065819
H288	H	1.681628	0.105259	0.434181
H289	H	0.698605	-0.448366	0.000036
H290	H	1.198605	0.051634	0.500036
O291	O	1.025296	-0.704278	-0.000064
O292	O	1.525296	-0.204278	0.499936
C293	C	1.067099	-0.720156	-0.071256
C294	C	1.567099	-0.220156	0.428744
H295	H	1.026498	-0.730594	-0.121030
H296	H	1.526498	-0.230594	0.378970
H297	H	1.098942	-0.689648	-0.095158
H298	H	1.598942	-0.189648	0.404842
H299	H	1.109662	-0.753064	-0.055149
H300	H	1.609662	-0.253064	0.444851
O301	O	0.495259	0.153135	-0.000062
O302	O	0.995259	0.653135	0.499938
C303	C	0.449041	0.155309	-0.071280
C304	C	0.949041	0.655309	0.428720
H305	H	0.445493	0.116946	-0.095000
H306	H	0.945493	0.616946	0.405000
H307	H	0.389498	0.173387	-0.055270
H308	H	0.889498	0.673387	0.444730
H309	H	0.474756	0.177351	-0.121156
H310	H	0.974756	0.677351	0.378844
O311	O	1.023622	-0.803718	0.000033
O312	O	1.523622	-0.303718	0.500033
C313	C	1.008018	-0.852369	0.000049
C314	C	1.508018	-0.352369	0.500049
H315	H	0.948590	-0.854228	-0.025978
H316	H	1.448590	-0.354228	0.474022
H317	H	1.051784	-0.875255	-0.039875
H318	H	1.551784	-0.375255	0.460125
H319	H	1.011062	-0.866964	0.066009
H320	H	1.511062	-0.366964	0.566009
O321	O	0.995464	0.000124	0.632688
O322	O	1.495464	0.500124	1.132688
C323	C	0.983664	-0.047689	0.653972
C324	C	1.483664	0.452311	1.153972
H325	H	0.923051	-0.047827	0.677730
H326	H	1.423051	0.452173	1.177730
H327	H	0.992664	-0.072005	0.597126
H328	H	1.492664	0.427995	1.097126
H329	H	1.025734	-0.061897	0.704270
H330	H	1.525734	0.438103	1.204270
H331	H	0.762468	-0.777584	0.000053
H332	H	1.262468	-0.277584	0.500053
O333	O	0.753071	-0.681316	0.000081
O334	O	1.253071	-0.181316	0.500081
C335	C	0.691637	-0.709233	0.000056
C336	C	1.191637	-0.209233	0.500056
H337	H	0.711307	-0.746886	0.026086
H338	H	1.211307	-0.246886	0.526086
H339	H	0.643592	-0.690594	0.039973
H340	H	1.143592	-0.190594	0.539973
H341	H	0.670334	-0.712794	-0.065907
H342	H	1.170334	-0.212794	0.434093
H343	H	0.701006	-0.297108	0.000029
H344	H	1.201006	0.202892	0.500029
O345	O	0.686175	-0.542786	-0.000013
O346	O	1.186175	-0.042786	0.499987
C347	C	0.625792	-0.504569	-0.000000
C348	C	1.125792	-0.004569	0.500000
H349	H	0.646610	-0.470338	-0.026016
H350	H	1.146610	0.029662	0.473984
H351	H	0.577295	-0.515042	-0.039934
H352	H	1.077295	-0.015042	0.460066
H353	H	0.604642	-0.497423	0.065958
H354	H	1.104642	0.002577	0.565958
H355	H	0.987372	0.005389	0.360820
H356	H	1.487372	0.505389	0.860820
H357	H	0.799256	0.124815	0.796374
H358	H	1.299256	0.624815	1.296374
O359	O	0.791065	0.130029	0.632693
O360	O	1.291065	0.630029	1.132693
C361	C	0.745297	0.159068	0.689443
C362	C	1.245297	0.659068	1.189443
H363	H	0.776330	0.159590	0.751129
H364	H	1.276330	0.659590	1.251129
H365	H	0.733292	0.197680	0.664425
H366	H	1.233292	0.697680	1.164425
H367	H	0.689262	0.143418	0.698666
H368	H	1.189262	0.643418	1.198666
