data_functionalizedCrystal
_audit_creation_method	'MofGen! by Chris Wilmer'
_symmetry_space_group_name_H-M	'P1'
_symmetry_Int_Tables_number	1
_symmetry_cell_setting	triclinic
loop_
_symmetry_equiv_pos_as_xyz
  x,y,z
_cell_length_a	19.288864
_cell_length_b	10.540539
_cell_length_c	18.366186
_cell_angle_alpha	89.995944
_cell_angle_beta	89.977106
_cell_angle_gamma	83.830869
loop_
_atom_site_label
_atom_site_type_symbol
_atom_site_fract_x
_atom_site_fract_y
_atom_site_fract_z
O1	O	0.922409	0.158345	-0.060780
O2	O	0.720291	0.179705	-0.060730
O3	O	0.825961	-0.015784	-0.060755
O4	O	0.816739	0.353834	-0.060755
O5	O	0.825943	-0.015794	0.060344
O6	O	0.720273	0.179696	0.060370
O7	O	0.922391	0.158335	0.060319
Zn8	Zn	0.821329	0.169014	0.079572
Zn9	Zn	0.821353	0.169027	-0.079982
O10	O	0.816721	0.353825	0.060345
C11	C	0.694401	0.179013	-0.000174
C12	C	0.617284	0.176950	-0.000155
C13	C	0.573353	0.291654	-0.000166
C14	C	0.500893	0.289716	-0.000174
C15	C	0.472367	0.173067	-0.000185
C16	C	0.516308	0.058347	-0.000170
C17	C	0.588766	0.060289	-0.000155
C18	C	0.363499	0.081371	-0.042637
C19	C	0.291042	0.079434	-0.042656
C20	C	0.248881	0.167074	-0.000230
C21	C	0.279186	0.256671	0.042208
C22	C	0.351644	0.258613	0.042223
C23	C	0.393799	0.170949	-0.000202
C24	C	0.126381	0.279684	-0.000249
C25	C	0.053919	0.277741	-0.000252
C26	C	0.069336	0.046369	-0.000255
C27	C	0.141795	0.048315	-0.000244
C28	C	0.170313	0.164976	-0.000245
C29	C	0.825261	-0.063076	-0.000207
C30	C	0.823192	-0.203978	-0.000210
C31	C	0.743903	-0.385638	-0.000462
C32	C	0.746000	-0.239067	-0.000190
C33	C	0.860329	-0.266469	0.068934
C34	C	0.857695	-0.412955	0.068993
C35	C	0.859285	-0.413498	-0.068720
C36	C	0.859996	-0.266531	-0.069634
C37	C	0.948281	0.159027	-0.000238
C38	C	1.025399	0.161091	-0.000262
C39	C	0.817422	0.401117	-0.000206
C40	C	0.819491	0.542019	-0.000207
N41	N	0.821318	0.169005	0.188463
N42	N	0.821370	0.169026	-0.188873
C43	C	0.868124	0.082484	0.226552
C44	C	0.868129	0.082479	0.302780
C45	C	0.821333	0.169015	0.340915
C46	C	0.774518	0.255542	0.302817
C47	C	0.774510	0.255537	0.226591
C48	C	0.812807	0.284670	0.461677
C49	C	0.812820	0.284677	0.537902
C50	C	0.821353	0.169031	0.576023
C51	C	0.829889	0.053374	0.537909
C52	C	0.829881	0.053368	0.461683
C53	C	0.821336	0.169030	0.423570
C54	C	0.868167	0.082497	0.696767
C55	C	0.868167	0.082490	0.772996
C56	C	0.774559	0.255565	0.773032
C57	C	0.774556	0.255561	0.696804
C58	C	0.821364	0.169029	0.658676
H59	H	0.624535	-0.033120	-0.000146
C60	C	0.723030	0.350724	0.184687
H61	H	0.729727	0.338326	0.133829
H62	H	0.730993	0.435403	0.197174
H63	H	0.676606	0.337151	0.197200
C64	C	0.190121	-0.077861	-0.000243
H65	H	0.162757	-0.147613	-0.000257
H66	H	0.218686	-0.081920	0.041991
H67	H	0.218729	-0.081904	-0.042474
H68	H	0.917016	-0.245379	0.071492
C69	C	0.232822	0.353081	0.088883
H70	H	0.261247	0.406721	0.114153
H71	H	0.207462	0.308438	0.122993
H72	H	0.201157	0.403581	0.058287
H73	H	0.716778	-0.195808	-0.049755
H74	H	0.836830	-0.040804	0.430654
H75	H	0.149601	0.374676	-0.000238
H76	H	0.913209	-0.462161	0.072117
C77	C	0.919652	-0.012690	0.814898
H78	H	0.912948	-0.000308	0.865757
H79	H	0.966072	0.000882	0.802384
H80	H	0.911688	-0.097376	0.802412
H81	H	0.906245	0.012021	0.333798
C82	C	0.702712	-0.423361	-0.067437
H83	H	0.731240	-0.483574	-0.095844
H84	H	0.689114	-0.349641	-0.095913
H85	H	0.662371	-0.460176	-0.051871
H86	H	0.736415	0.326000	0.333871
H87	H	0.046111	-0.048609	-0.000310
C88	C	0.604719	0.419976	-0.000153
H89	H	0.568173	0.488013	-0.000153
H90	H	0.632692	0.425554	-0.042374
H91	H	0.632636	0.425534	0.042092
C92	C	0.706230	-0.181762	0.066897
H93	H	0.707370	-0.091881	0.067289
H94	H	0.727583	-0.217484	0.109910
H95	H	0.659191	-0.200551	0.064874
H96	H	0.397822	0.010002	-0.077190
H97	H	0.465117	0.383125	-0.000181
H98	H	0.713527	-0.415173	0.048859
H99	H	0.830233	-0.440547	0.120694
C100	C	0.839281	-0.073847	0.579828
H101	H	0.844370	-0.142723	0.546212
H102	H	0.799566	-0.080714	0.609586
H103	H	0.879718	-0.076594	0.609542
C104	C	0.825454	-0.208173	0.138465
H105	H	0.788267	-0.145766	0.125505
H106	H	0.858813	-0.169345	0.166438
H107	H	0.807750	-0.273451	0.166342
H108	H	0.834310	-0.444490	-0.121128
C109	C	0.823344	-0.210406	-0.138739
H110	H	0.785770	-0.149101	-0.125346
H111	H	0.805958	-0.276857	-0.165888
H112	H	0.855692	-0.170602	-0.167610
H113	H	0.906279	0.012034	0.665722
H114	H	0.916275	-0.243564	-0.073824
C115	C	0.934602	-0.478982	-0.069375
H116	H	0.941789	-0.533176	-0.028122
H117	H	0.966294	-0.416003	-0.067866
H118	H	0.942180	-0.528196	-0.112536
C119	C	0.484936	-0.069966	-0.000184
H120	H	0.521480	-0.138005	-0.000170
H121	H	0.457015	-0.075532	-0.042420
H122	H	0.456966	-0.075533	0.042045
C123	C	0.919603	-0.012710	0.184615
H124	H	0.947476	-0.064248	0.218222
H125	H	0.948737	0.032809	0.154857
H126	H	0.894350	-0.065443	0.154901
H127	H	0.376315	0.331563	0.076779
H128	H	0.736455	0.326019	0.804082
H129	H	0.736445	0.326019	0.665790
H130	H	0.018151	0.371151	-0.000257
C131	C	0.803436	0.411892	0.579820
H132	H	0.798340	0.480765	0.546201
H133	H	0.843159	0.418758	0.609532
H134	H	0.763006	0.414646	0.609579
C135	C	0.803424	0.411888	0.419752
H136	H	0.798354	0.480767	0.453366
H137	H	0.762994	0.414653	0.390034
H138	H	0.843149	0.418735	0.389998
H139	H	0.266374	0.006484	-0.077214
