data_functionalizedCrystal
_audit_creation_method	'MofGen! by Chris Wilmer'
_symmetry_space_group_name_H-M	'P1'
_symmetry_Int_Tables_number	1
_symmetry_cell_setting	triclinic
loop_
_symmetry_equiv_pos_as_xyz
  x,y,z
_cell_length_a	23.532407
_cell_length_b	14.586319
_cell_length_c	23.532407
_cell_angle_alpha	90.020857
_cell_angle_beta	97.151291
_cell_angle_gamma	89.998126
loop_
_atom_site_label
_atom_site_type_symbol
_atom_site_fract_x
_atom_site_fract_y
_atom_site_fract_z
O1	O	-0.755262	0.076120	0.069141
O2	O	-0.255262	0.576120	0.569141
O3	O	-0.589399	0.076154	0.079144
O4	O	-0.089399	0.576154	0.579144
O5	O	-0.677332	0.076110	-0.008789
O6	O	-0.177332	0.576110	0.491211
O7	O	-0.667329	0.076164	0.157074
O8	O	-0.167329	0.576164	0.657074
O9	O	-0.677320	-0.076371	-0.008804
O10	O	-0.177320	0.423629	0.491196
O11	O	-0.589386	-0.076327	0.079129
O12	O	-0.089386	0.423673	0.579129
O13	O	-0.755250	-0.076361	0.069126
O14	O	-0.255250	0.423639	0.569126
Cu15	Cu	-0.672317	-0.090267	0.074126
Cu16	Cu	-0.172317	0.409733	0.574126
Cu17	Cu	-0.672331	0.090060	0.074144
Cu18	Cu	-0.172331	0.590060	0.574144
O19	O	-0.667316	-0.076317	0.157059
O20	O	-0.167316	0.423683	0.657059
C21	C	-0.568176	-0.000082	0.078882
C22	C	-0.068176	0.499918	0.578882
C23	C	-0.504959	-0.000070	0.078116
C24	C	-0.004959	0.499930	0.578116
N25	N	-0.672311	-0.217098	0.074114
N26	N	-0.172311	0.282902	0.574114
C27	C	-0.637984	-0.548132	0.039772
C28	C	-0.137984	-0.048132	0.539772
C29	C	-0.637980	-0.452150	0.039764
C30	C	-0.137980	0.047850	0.539764
C31	C	-0.706672	-0.452082	0.108495
C32	C	-0.206672	0.047918	0.608495
C33	C	-0.706680	-0.548062	0.108499
C34	C	-0.206680	-0.048062	0.608499
C35	C	-0.672332	-0.596084	0.074139
C36	C	-0.172332	-0.096084	0.574139
C37	C	-0.672321	-0.404123	0.074127
C38	C	-0.172321	0.095877	0.574127
C39	C	-0.672316	-0.300056	0.074118
C40	C	-0.172316	0.199944	0.574118
C41	C	-0.672337	-0.700158	0.074146
C42	C	-0.172337	-0.200158	0.574146
C43	C	-0.105856	-0.000085	0.125350
C44	C	0.394144	0.499915	0.625350
C45	C	-0.046456	-0.000089	0.124638
C46	C	0.453544	0.499911	0.624638
O47	O	-0.009711	-0.000107	0.168424
O48	O	0.490289	0.499893	0.668424
N49	N	-0.023830	-0.000103	0.072362
N50	N	0.476170	0.499897	0.572362
C51	C	-0.060607	-0.000123	0.020794
C52	C	0.439393	0.499877	0.520794
O53	O	-0.035908	-0.000137	-0.023737
O54	O	0.464092	0.499863	0.476263
C55	C	-0.120006	-0.000126	0.021506
C56	C	0.379994	0.499874	0.521506
C57	C	-0.142629	-0.000102	0.073785
C58	C	0.357371	0.499898	0.573785
C59	C	-0.128480	-0.000062	0.177625
C60	C	0.371520	0.499938	0.677625
C61	C	-0.187876	-0.000056	0.178336
C62	C	0.312124	0.499944	0.678336
C63	C	-0.224649	-0.000073	0.126772
C64	C	0.275351	0.499927	0.626772
C65	C	-0.202025	-0.000096	0.074496
C66	C	0.297975	0.499904	0.574496
C67	C	-0.156783	-0.000152	-0.030062
C68	C	0.343217	0.499848	0.469938
C69	C	-0.216185	-0.000155	-0.029345
C70	C	0.283815	0.499845	0.470655
C71	C	-0.238808	-0.000131	0.022934
C72	C	0.261192	0.499869	0.522934
C73	C	-0.298194	-0.000107	0.023643
C74	C	0.201806	0.499893	0.523643
N75	N	-0.320821	-0.000093	0.075920
N76	N	0.179179	0.499907	0.575920
C77	C	-0.284048	-0.000076	0.127484
C78	C	0.215952	0.499924	0.627484
C79	C	0.064135	-0.000120	0.019302
C80	C	0.564135	0.499880	0.519302
C81	C	0.123533	-0.000110	0.018589
C82	C	0.623533	0.499890	0.518589
C83	C	0.137680	-0.000078	0.122434
C84	C	0.637680	0.499922	0.622434
C85	C	0.078281	-0.000080	0.123146
C86	C	0.578281	0.499920	0.623146
C87	C	0.041509	-0.000105	0.071578
C88	C	0.541509	0.499895	0.571578
C89	C	-0.408784	-0.000063	0.128974
C90	C	0.091216	0.499937	0.628974
C91	C	-0.468186	-0.000053	0.129680
C92	C	0.031814	0.499947	0.629680
C93	C	-0.482329	-0.000091	0.025836
C94	C	0.017671	0.499909	0.525836
C95	C	-0.422932	-0.000096	0.025129
C96	C	0.077068	0.499904	0.525129
C97	C	-0.386160	-0.000085	0.076702
C98	C	0.113840	0.499915	0.576702
O99	O	-0.334974	-0.000093	-0.020119
O100	O	0.165026	0.499907	0.479881
O101	O	-0.308756	-0.000074	0.172007
O102	O	0.191244	0.499926	0.672007
C103	C	0.223528	-0.000115	0.069388
C104	C	0.723528	0.499885	0.569388
C105	C	0.160311	-0.000098	0.070154
C106	C	0.660311	0.499902	0.570154
C107	C	-0.677071	-0.000135	-0.030013
C108	C	-0.177071	0.499865	0.469987
C109	C	-0.676305	-0.000149	-0.093230
C110	C	-0.176305	0.499851	0.406770
N111	N	-0.672342	0.216891	0.074152
N112	N	-0.172342	0.716891	0.574152
C113	C	-0.621110	-0.000080	-0.359397
C114	C	-0.121110	0.499920	0.140603
C115	C	-0.621821	-0.000087	-0.299997
C116	C	-0.121821	0.499913	0.200003
O117	O	-0.578035	-0.000049	-0.263252
O118	O	-0.078035	0.499951	0.236748
N119	N	-0.674097	-0.000109	-0.277371
N120	N	-0.174097	0.499891	0.222629
C121	C	-0.725666	-0.000113	-0.314148
C122	C	-0.225666	0.499887	0.185852
O123	O	-0.770196	-0.000131	-0.289449
O124	O	-0.270196	0.499869	0.210551
C125	C	-0.724954	-0.000100	-0.373547
C126	C	-0.224954	0.499900	0.126453
C127	C	-0.672674	-0.000088	-0.396170
C128	C	-0.172674	0.499912	0.103830
C129	C	-0.568834	-0.000067	-0.382020
C130	C	-0.068834	0.499933	0.117980
C131	C	-0.568123	-0.000061	-0.441417
C132	C	-0.068123	0.499939	0.058583
C133	C	-0.619687	-0.000069	-0.478190
C134	C	-0.119687	0.499931	0.021810
C135	C	-0.671963	-0.000082	-0.455566
C136	C	-0.171963	0.499918	0.044434
C137	C	-0.776521	-0.000098	-0.410324
C138	C	-0.276521	0.499902	0.089676
C139	C	-0.775805	-0.000083	-0.469726
C140	C	-0.275805	0.499917	0.030274
C141	C	-0.723525	-0.000071	-0.492349
C142	C	-0.223525	0.499929	0.007651
C143	C	-0.722816	-0.000084	-0.551735
C144	C	-0.222816	0.499916	-0.051735
N145	N	-0.670539	-0.000063	-0.574361
N146	N	-0.170539	0.499937	-0.074361
C147	C	-0.618975	-0.000055	-0.537589
C148	C	-0.118975	0.499945	-0.037589
C149	C	-0.727157	-0.000141	-0.189406
C150	C	-0.227157	0.499859	0.310594
C151	C	-0.727870	-0.000161	-0.130008
C152	C	-0.227870	0.499839	0.369992
C153	C	-0.624025	-0.000133	-0.115861
C154	C	-0.124025	0.499867	0.384139
C155	C	-0.623313	-0.000119	-0.175260
C156	C	-0.123313	0.499881	0.324740
C157	C	-0.674881	-0.000119	-0.212032
C158	C	-0.174881	0.499881	0.287968
C159	C	-0.617486	-0.000045	-0.662325
C160	C	-0.117486	0.499955	-0.162325
C161	C	-0.616779	-0.000043	-0.721727
C162	C	-0.116779	0.499957	-0.221727
C163	C	-0.720623	-0.000066	-0.735869
C164	C	-0.220623	0.499934	-0.235869
C165	C	-0.721330	-0.000072	-0.676473
C166	C	-0.221330	0.499928	-0.176473
C167	C	-0.669757	-0.000059	-0.639701
C168	C	-0.169757	0.499941	-0.139701
O169	O	-0.766579	-0.000119	-0.588514
O170	O	-0.266579	0.499881	-0.088514
O171	O	-0.574452	-0.000025	-0.562297
O172	O	-0.074452	0.499975	-0.062297
C173	C	-0.667577	-0.000070	0.178283
C174	C	-0.167577	0.499930	0.678283
C175	C	-0.668343	-0.000050	0.241500
C176	C	-0.168343	0.499950	0.741500
H177	H	-0.610017	-0.587228	0.011793
H178	H	-0.110017	-0.087228	0.511793
H179	H	-0.734653	-0.587106	0.136485
H180	H	-0.234653	-0.087106	0.636485
H181	H	-0.378852	-0.000057	0.170970
H182	H	0.121148	0.499943	0.670970
H183	H	-0.098544	-0.000051	0.219617
H184	H	0.401456	0.499949	0.719617
F185	F	-0.492259	-0.000025	0.185326
F186	F	0.007741	0.499975	0.685326
F187	F	-0.601420	-0.401120	0.003189
F188	F	-0.101420	0.098880	0.503189
F189	F	-0.512479	-0.000040	-0.465485
F190	F	-0.012479	0.499960	0.034515
H191	H	-0.734636	-0.412971	0.136470
H192	H	-0.234636	0.087029	0.636470
H193	H	0.167632	-0.000068	0.164421
H194	H	0.667632	0.499932	0.664421
H195	H	-0.404512	-0.000102	-0.017441
H196	H	0.095488	0.499898	0.482559
F197	F	-0.211945	-0.000035	0.233980
F198	F	0.288055	0.499965	0.733980
F199	F	0.054210	-0.000057	0.178789
F200	F	0.554210	0.499943	0.678789
F201	F	0.147603	-0.000115	-0.037054
F202	F	0.647603	0.499885	0.462946
F203	F	-0.561133	-0.000032	-0.745800
F204	F	-0.061133	0.499968	-0.245800
F205	F	0.025003	-0.000137	-0.035587
F206	F	0.525003	0.499863	0.464413
H207	H	-0.762606	-0.000076	-0.765820
H208	H	-0.262606	0.499924	-0.265820
H209	H	-0.138374	-0.000172	-0.072634
H210	H	0.361626	0.499828	0.427366
F211	F	-0.255318	-0.000184	-0.084233
F212	F	0.244682	0.499816	0.415767
F213	F	-0.513947	-0.000056	-0.342892
F214	F	-0.013947	0.499944	0.157108
H215	H	-0.512280	-0.000101	-0.016146
H216	H	-0.012280	0.499899	0.483854
F217	F	-0.562595	-0.000031	-0.623199
F218	F	-0.062595	0.499969	-0.123199
F219	F	-0.567670	-0.000105	-0.199331
F220	F	-0.067670	0.499895	0.300669
F221	F	-0.569145	-0.000124	-0.076714
F222	F	-0.069145	0.499876	0.423286
H223	H	-0.770441	-0.000185	-0.111594
H224	H	-0.270441	0.499815	0.388406
H225	H	-0.817799	-0.000079	-0.499664
H226	H	-0.317799	0.499921	0.000336
H227	H	-0.769152	-0.000147	-0.219343
H228	H	-0.269152	0.499853	0.280657
H229	H	-0.819093	-0.000107	-0.391915
H230	H	-0.319093	0.499893	0.108085
H231	H	-0.763901	-0.000095	-0.658053
H232	H	-0.263901	0.499905	-0.158053
