data_functionalizedCrystal
_audit_creation_method	'MofGen! by Chris Wilmer'
_symmetry_space_group_name_H-M	'P1'
_symmetry_Int_Tables_number	1
_symmetry_cell_setting	triclinic
loop_
_symmetry_equiv_pos_as_xyz
  x,y,z
_cell_length_a	19.077236
_cell_length_b	12.759394
_cell_length_c	19.077174
_cell_angle_alpha	92.276241
_cell_angle_beta	85.294282
_cell_angle_gamma	92.306804
loop_
_atom_site_label
_atom_site_type_symbol
_atom_site_fract_x
_atom_site_fract_y
_atom_site_fract_z
Zn1	Zn	1.093786	-0.379333	-0.441992
Zn2	Zn	1.088993	-0.548246	-0.324112
Zn3	Zn	0.971168	-0.379349	-0.319375
Zn4	Zn	0.975885	-0.561739	-0.437217
O5	O	1.032458	-0.467167	-0.380674
O6	O	1.191803	-0.396085	-0.430336
O7	O	1.069383	-0.520201	-0.224833
O8	O	0.987465	-0.232324	-0.335656
O9	O	1.188281	-0.520185	-0.343730
O10	O	1.077553	-0.232313	-0.425742
O11	O	0.982817	-0.396113	-0.221353
O12	O	0.873141	-0.409197	-0.331026
O13	O	0.995505	-0.543183	-0.536501
O14	O	0.876607	-0.543199	-0.417604
O15	O	1.082127	-0.409170	-0.540009
O16	O	1.073957	-0.697058	-0.339100
O17	O	0.990857	-0.706972	-0.422198
C18	C	0.849295	-0.477664	-0.373283
C19	C	0.770937	-0.482182	-0.370138
C20	C	0.735962	-0.419802	-0.413821
C21	C	0.662337	-0.424041	-0.410860
C22	C	0.623688	-0.490666	-0.364219
C23	C	0.658668	-0.553048	-0.320532
C24	C	0.732292	-0.548803	-0.323490
C25	C	0.403299	-0.510274	-0.350527
C26	C	0.329670	-0.514517	-0.347573
C27	C	0.333343	-0.385509	-0.437900
C28	C	0.406969	-0.381274	-0.440857
C29	C	0.441942	-0.443652	-0.397167
N30	N	0.548431	-0.495003	-0.361193
N31	N	0.517198	-0.439308	-0.400191
C32	C	1.032418	-0.740136	-0.380661
C33	C	1.032467	-0.856911	-0.380681
C34	C	1.126210	-0.856748	-0.474553
C35	C	1.173104	-0.911526	-0.521495
C36	C	1.173147	-1.021247	-0.521512
C37	C	1.126289	-1.076191	-0.474583
C38	C	1.079395	-1.021412	-0.427641
C39	C	1.079359	-0.911690	-0.427628
C40	C	0.985649	-1.021575	-0.333774
C41	C	0.985609	-0.911855	-0.333753
C42	C	0.938791	-1.076520	-0.286845
C43	C	0.891899	-1.021741	-0.239899
C44	C	0.891859	-0.912014	-0.239883
C45	C	0.938715	-0.857077	-0.286811
C46	C	1.216337	-0.456629	-0.388094
C47	C	1.294695	-0.452138	-0.391256
C48	C	1.039877	-0.477680	-0.564549
C49	C	1.043039	-0.482160	-0.642906
C50	C	1.032518	-0.193131	-0.380703
C51	C	1.032543	-0.076354	-0.380716
C52	C	0.999456	-0.419660	-0.677905
C53	C	1.002424	-0.423878	-0.751530
C54	C	1.048978	-0.490592	-0.790153
C55	C	1.092563	-0.553099	-0.755149
C56	C	1.089591	-0.548885	-0.681525
C57	C	1.062696	-0.510126	-1.010537
C58	C	1.065666	-0.514333	-1.084165
C59	C	0.975526	-0.385113	-1.080541
C60	C	0.972561	-0.380900	-1.006917
C61	C	1.016143	-0.443412	-0.971919
N62	N	1.052015	-0.494903	-0.865409
N63	N	1.013102	-0.439105	-0.896664
C64	C	1.025109	-0.456616	-0.197516
C65	C	1.022084	-0.451833	-0.119165
H66	H	0.767425	-0.365552	-0.451802
F67	F	1.142106	-0.624107	-0.796256
H68	H	1.125086	-0.599771	-0.653030
F69	F	0.842030	-1.080222	-0.189965
F70	F	0.625117	-0.357651	-0.457354
H71	H	1.211254	-0.866781	-0.559705
F72	F	1.223054	-1.079548	-0.571474
F73	F	0.956011	-0.357397	-0.788775
F74	F	0.949909	-0.348648	-0.636806
F75	F	0.938910	-1.193285	-0.286792
F76	F	0.448096	-0.310368	-0.490502
H77	H	1.126322	-1.165531	-0.474607
F78	F	0.841944	-0.853723	-0.189923
H79	H	0.938690	-0.767736	-0.286800
F80	F	1.109084	-0.576651	-0.973299
H81	H	0.934649	-0.326578	-0.975475
F82	F	0.288539	-0.585452	-0.297943
F83	F	0.929145	-0.318591	-1.117795
H84	H	1.103580	-0.568660	-1.115611
H85	H	0.304860	-0.334723	-0.473469
H86	H	0.431766	-0.561068	-0.314952
H87	H	1.126187	-0.767407	-0.474538
H88	H	0.760768	-0.599598	-0.287919
F89	F	0.617534	-0.623949	-0.270890
