data_functionalizedCrystal
_audit_creation_method	'MofGen! by Chris Wilmer'
_symmetry_space_group_name_H-M	'P1'
_symmetry_Int_Tables_number	1
_symmetry_cell_setting	triclinic
loop_
_symmetry_equiv_pos_as_xyz
  x,y,z
_cell_length_a	17.038272
_cell_length_b	15.995350
_cell_length_c	16.098538
_cell_angle_alpha	92.725104
_cell_angle_beta	87.069734
_cell_angle_gamma	87.301965
loop_
_atom_site_label
_atom_site_type_symbol
_atom_site_fract_x
_atom_site_fract_y
_atom_site_fract_z
O1	O	-1.040907	-0.178336	0.069145
O2	O	-0.813276	-0.175448	0.069170
O3	O	-0.933314	-0.055448	0.069156
O4	O	-0.920869	-0.298337	0.069159
O5	O	-0.926302	-0.062428	-0.069356
O6	O	-0.806264	-0.182428	-0.069342
O7	O	-1.033895	-0.185317	-0.069367
Zn8	Zn	-0.918966	-0.184981	-0.091347
Zn9	Zn	-0.928205	-0.175784	0.091149
O10	O	-0.913857	-0.305317	-0.069353
C11	C	-0.780642	-0.176312	-0.000083
C12	C	-0.693847	-0.168477	-0.000074
C13	C	-1.066529	-0.184453	-0.000112
C14	C	-1.153324	-0.192287	-0.000116
C15	C	-0.643751	-0.240406	-0.000074
C16	C	-0.562198	-0.233040	-0.000085
C17	C	-0.530743	-0.153745	-0.000091
C18	C	-0.580846	-0.081811	-0.000094
C19	C	-0.662397	-0.089178	-0.000088
C20	C	-0.284978	-0.127720	-0.000113
C21	C	-0.203421	-0.120359	-0.000117
C22	C	-0.184778	-0.271589	-0.000110
C23	C	-0.266331	-0.278948	-0.000099
C24	C	-0.316427	-0.207014	-0.000106
C25	C	-0.447383	-0.146214	-0.000100
C26	C	-0.399785	-0.214546	-0.000103
C27	C	-0.929293	-0.027707	-0.000099
C28	C	-0.927751	0.065354	-0.000094
C29	C	-0.917878	-0.333058	-0.000097
C30	C	-0.919420	-0.426118	-0.000096
N31	N	-0.912667	-0.191258	-0.215895
C32	C	-0.922212	0.403496	-0.000096
C33	C	-0.836739	0.362167	0.000224
C34	C	-0.838266	0.265352	-0.000088
C35	C	-0.924960	0.235740	-0.000094
C36	C	-0.963121	0.269827	-0.079195
C37	C	-0.960970	0.366613	-0.079261
C38	C	-0.970710	0.374783	0.078253
C39	C	-0.970743	0.277892	0.079299
C40	C	-0.926517	0.140931	-0.000096
C41	C	-0.920657	0.498304	-0.000100
C42	C	-0.963634	-0.140345	-0.259486
C43	C	-0.959235	-0.144745	-0.346674
C44	C	-0.903871	-0.200061	-0.390270
C45	C	-0.852898	-0.250975	-0.346673
C46	C	-0.857295	-0.246571	-0.259486
C47	C	-0.887934	-0.216011	-0.653519
C48	C	-0.883543	-0.220413	-0.740712
C49	C	-0.989879	-0.114181	-0.740706
C50	C	-0.994274	-0.109786	-0.653518
C51	C	-0.943298	-0.160697	-0.609929
C52	C	-0.899374	-0.204561	-0.479391
C53	C	-0.947791	-0.156192	-0.520810
N54	N	-0.934510	-0.169501	0.215698
H55	H	-0.669354	-0.304977	-0.000068
H56	H	-1.008720	-0.095305	-0.223996
H57	H	-0.802023	0.237002	-0.056880
H58	H	-0.815791	-0.288028	-0.223996
H59	H	-0.143982	-0.330153	-0.000106
H60	H	-0.945795	0.400335	0.138206
C61	C	-0.434388	-0.301769	-0.000096
N62	N	-0.460458	-0.367465	-0.000088
H63	H	-0.325756	-0.069146	-0.000120
H64	H	-1.026664	0.251016	-0.082140
H65	H	-0.846429	-0.257467	-0.618035
C66	C	-0.791990	-0.311815	-0.394632
N67	N	-0.746113	-0.357641	-0.430754
H68	H	-0.291936	-0.343518	-0.000085
C69	C	-1.056482	0.251386	0.085742
N70	N	-1.121064	0.231425	0.090588
H71	H	-0.703186	-0.030606	-0.000088
C72	C	-0.919527	0.230304	-0.158713
N73	N	-0.886687	0.200537	-0.218604
H74	H	-1.039355	-0.064743	-0.618024
C75	C	-1.055896	0.411666	0.078970
N76	N	-1.120054	0.439451	0.079504
H77	H	-1.031380	-0.072731	-0.776205
H78	H	-0.927230	0.384125	-0.138385
H79	H	-0.942876	0.255788	0.137815
C80	C	-1.045514	0.403895	-0.084128
N81	N	-1.109191	0.431973	-0.087799
H82	H	-0.555229	-0.017248	-0.000110
C83	C	-0.168823	-0.033124	-0.000122
N84	N	-0.142765	0.032578	-0.000124
C85	C	-0.412775	-0.058991	-0.000101
N86	N	-0.386706	0.006706	-0.000102
H87	H	-1.000736	-0.103287	-0.382166
H88	H	-0.807991	0.242148	0.056614
H89	H	-0.805442	0.385992	0.056949
C90	C	-1.008683	-0.095338	-0.472851
N91	N	-1.054547	-0.049503	-0.436722
C92	C	-0.786932	0.388044	-0.075989
N93	N	-0.749423	0.407526	-0.133400
C94	C	-0.822634	-0.281266	-0.788665
N95	N	-0.776760	-0.327097	-0.824784
H96	H	-0.854297	-0.249602	-0.514894
H97	H	-0.521412	-0.291612	-0.000084
