data_functionalizedCrystal
_audit_creation_method	'MofGen! by Chris Wilmer'
_symmetry_space_group_name_H-M	'P1'
_symmetry_Int_Tables_number	1
_symmetry_cell_setting	triclinic
loop_
_symmetry_equiv_pos_as_xyz
  x,y,z
_cell_length_a	14.908520
_cell_length_b	14.908780
_cell_length_c	14.908694
_cell_angle_alpha	96.797826
_cell_angle_beta	96.744522
_cell_angle_gamma	83.210051
loop_
_atom_site_label
_atom_site_type_symbol
_atom_site_fract_x
_atom_site_fract_y
_atom_site_fract_z
Zn1	Zn	-0.313858	-1.396257	-0.608918
Zn2	Zn	0.186142	-0.896257	-0.108918
Zn3	Zn	-0.457411	-1.379587	-0.465375
Zn4	Zn	0.042589	-0.879587	0.034625
Zn5	Zn	-0.313877	-1.236152	-0.448820
Zn6	Zn	0.186123	-0.736152	0.051180
Zn7	Zn	-0.473894	-1.236113	-0.608841
Zn8	Zn	0.026106	-0.736113	-0.108841
O9	O	-0.389760	-1.312027	-0.532988
O10	O	0.110240	-0.812027	-0.032988
O11	O	-0.325994	-1.521094	-0.596837
O12	O	0.174006	-1.021094	-0.096837
O13	O	-0.431481	-1.353599	-0.336136
O14	O	0.068519	-0.853599	0.163864
O15	O	-0.186829	-1.264383	-0.463161
O16	O	0.313171	-0.764383	0.036839
O17	O	-0.431462	-1.508847	-0.491377
O18	O	0.068538	-1.008847	0.008623
O19	O	-0.186815	-1.382011	-0.580784
O20	O	0.313185	-0.882011	-0.080784
O21	O	-0.326027	-1.248219	-0.323973
O22	O	0.173973	-0.748219	0.176027
O23	O	-0.342010	-1.109098	-0.463086
O24	O	0.157990	-0.609098	0.036914
O25	O	-0.459555	-1.264317	-0.735894
O26	O	0.040445	-0.764317	-0.235894
O27	O	-0.459574	-1.109070	-0.580653
O28	O	0.040426	-0.609070	-0.080653
O29	O	-0.341977	-1.381974	-0.735950
O30	O	0.158023	-0.881974	-0.235950
O31	O	-0.586643	-1.353562	-0.491302
O32	O	-0.086643	-0.853562	0.008698
O33	O	-0.598753	-1.248153	-0.596706
O34	O	-0.098753	-0.748153	-0.096706
C35	C	-0.402583	-1.076142	-0.520066
C36	C	0.097417	-0.576142	-0.020066
C37	C	-0.408092	-0.975229	-0.514560
C38	C	0.091908	-0.475229	-0.014560
C39	C	-0.308789	-0.798355	-0.614216
C40	C	0.191211	-0.298355	-0.114216
C41	C	-0.313962	-0.703539	-0.609045
C42	C	0.186038	-0.203539	-0.109045
C43	C	-0.423606	-0.690778	-0.499044
C44	C	0.076394	-0.190778	0.000956
C45	C	-0.418433	-0.785594	-0.504215
C46	C	0.081567	-0.285594	-0.004215
C47	C	-0.361024	-0.839380	-0.561803
C48	C	0.138976	-0.339380	-0.061803
C49	C	-0.355856	-0.934198	-0.566978
C50	C	0.144144	-0.434198	-0.066978
C51	C	-0.465495	-0.921435	-0.456973
C52	C	0.034505	-0.421435	0.043027
C53	C	-0.470668	-0.826619	-0.451802
C54	C	0.029332	-0.326619	0.048198
C55	C	-0.625639	-1.299070	-0.545814
C56	C	-0.125639	-0.799070	-0.045814
C57	C	-0.726546	-1.293611	-0.551335
C58	C	-0.226546	-0.793611	-0.051335
C59	C	-0.903489	-1.393241	-0.452054
C60	C	-0.403489	-0.893241	0.047946
C61	C	-0.998300	-1.388116	-0.457239
C62	C	-0.498300	-0.888116	0.042761
C63	C	-1.010981	-1.278239	-0.566895
C64	C	-0.510981	-0.778239	-0.066895
C65	C	-0.916170	-1.283365	-0.561710
C66	C	-0.416170	-0.783365	-0.061710
C67	C	-0.862427	-1.340867	-0.504286
C68	C	-0.362427	-0.840867	-0.004286
C69	C	-0.767615	-1.345987	-0.499097
C70	C	-0.267615	-0.845987	0.000903
C71	C	-0.780297	-1.236116	-0.608757
C72	C	-0.280297	-0.736116	-0.108757
C73	C	-0.875108	-1.230991	-0.613942
C74	C	-0.375108	-0.730991	-0.113942
C75	C	-0.152960	-1.325061	-0.520134
C76	C	0.347040	-0.825061	-0.020134
C77	C	-0.052049	-1.330615	-0.514657
C78	C	0.447951	-0.830615	-0.014657
C79	C	-0.402602	-1.325001	-0.769784
C80	C	0.097398	-0.825001	-0.269784
C81	C	-0.408075	-1.330529	-0.870692
C82	C	0.091925	-0.830529	-0.370692
C83	C	-0.376879	-0.548834	-0.545955
C84	C	0.123121	-0.048834	-0.045955
C85	C	-0.371370	-0.649747	-0.551463
C86	C	0.128630	-0.149747	-0.051463
C87	C	-0.308553	-1.231163	-1.047644
C88	C	0.191447	-0.731163	-0.547644
C89	C	-0.313692	-1.236355	-1.142456
C90	C	0.186308	-0.736355	-0.642456
C91	C	-0.423497	-1.346098	-1.155129
C92	C	0.076503	-0.846098	-0.655129
C93	C	-0.418358	-1.340907	-1.060317
C94	C	0.081642	-0.840907	-0.560317
C95	C	-0.360883	-1.283438	-1.006578
C96	C	0.139117	-0.783438	-0.506578
C97	C	-0.355739	-1.278252	-0.911764
C98	C	0.144261	-0.778252	-0.411764
C99	C	-0.465548	-1.387990	-0.924439
C100	C	0.034452	-0.887990	-0.424439
C101	C	-0.470688	-1.393182	-1.019251
C102	C	0.029312	-0.893182	-0.519251
C103	C	-0.376899	-1.299160	-0.297113
C104	C	0.123101	-0.799160	0.202887
C105	C	-0.371161	-1.293821	-0.196202
C106	C	0.128839	-0.793821	0.303798
H107	H	-0.470336	-0.646970	-0.452148
H108	H	0.029664	-0.146970	0.047852
C109	C	-1.070114	-1.214990	-0.630054
C110	C	-0.570114	-0.714990	-0.130054
N111	N	-1.114654	-1.167348	-0.677624
N112	N	-0.614654	-0.667348	-0.177624
H113	H	-1.031729	-1.430766	-0.414708
H114	H	-0.531729	-0.930766	0.085292
C115	C	-0.292701	-0.993360	-0.630323
C116	C	0.207299	-0.493360	-0.130323
N117	N	-0.245128	-1.037919	-0.678033
N118	N	0.254872	-0.537919	-0.178033
H119	H	-0.746854	-1.193467	-0.651286
H120	H	-0.246854	-0.693467	-0.151286
C121	C	-0.533816	-0.767445	-0.388459
C122	C	-0.033816	-0.267445	0.111541
N123	N	-0.581383	-0.722875	-0.340750
N124	N	-0.081383	-0.222875	0.159250
H125	H	-0.271425	-0.670140	-0.651723
H126	H	0.228575	-0.170140	-0.151723
H127	H	-0.261746	-1.184379	-1.003889
H128	H	0.238254	-0.684379	-0.503889
H129	H	-0.918878	-1.184177	-0.660697
H130	H	-0.418878	-0.684177	-0.160697
H131	H	-0.308937	-1.231462	-0.868011
H132	H	0.191063	-0.731462	-0.368011
H133	H	-0.271080	-1.193787	-1.175888
H134	H	0.228920	-0.693787	-0.675888
C135	C	-0.522959	-0.966570	-0.399317
C136	C	-0.022959	-0.466570	0.100683
N137	N	-0.566241	-1.000566	-0.355894
N138	N	-0.066241	-0.500566	0.144106
H139	H	-0.470303	-1.392873	-1.198900
H140	H	0.029697	-0.892873	-0.698900
H141	H	-0.517485	-1.439968	-1.063018
H142	H	-0.017485	-0.939968	-0.563018
H143	H	-0.723858	-1.392806	-0.452337
H144	H	-0.223858	-0.892806	0.047663
C145	C	-0.523115	-1.445497	-0.879259
C146	C	-0.023115	-0.945497	-0.379259
N147	N	-0.566472	-1.488811	-0.845229
N148	N	-0.066472	-0.988811	-0.345229
H149	H	-0.262048	-0.842148	-0.661111
H150	H	0.237952	-0.342148	-0.161111
H151	H	-0.859731	-1.440055	-0.405291
H152	H	-0.359731	-0.940055	0.094709
