data_functionalizedCrystal
_audit_creation_method	'MofGen! by Chris Wilmer'
_symmetry_space_group_name_H-M	'P1'
_symmetry_Int_Tables_number	1
_symmetry_cell_setting	triclinic
loop_
_symmetry_equiv_pos_as_xyz
  x,y,z
_cell_length_a	13.262522
_cell_length_b	23.532357
_cell_length_c	12.376457
_cell_angle_alpha	101.196651
_cell_angle_beta	63.170097
_cell_angle_gamma	83.659636
loop_
_atom_site_label
_atom_site_type_symbol
_atom_site_fract_x
_atom_site_fract_y
_atom_site_fract_z
O1	O	1.512227	0.012083	-0.558917
O2	O	1.184880	0.032060	-0.458285
O3	O	1.358449	-0.061161	-0.511619
O4	O	1.338658	0.105304	-0.505582
O5	O	1.315072	-0.037886	-0.310279
O6	O	1.141503	0.055335	-0.256944
O7	O	1.468851	0.035358	-0.357576
Zn8	Zn	1.298290	0.049042	-0.275293
Zn9	Zn	1.355440	0.018376	-0.540568
O10	O	1.295282	0.128579	-0.304241
C11	C	1.121320	0.044718	-0.344742
C12	C	0.996556	0.047753	-0.306387
C13	C	0.914303	0.061868	-0.178610
C14	C	0.797081	0.064716	-0.142564
C15	C	0.762099	0.053453	-0.234291
C16	C	0.844351	0.039342	-0.362070
C17	C	0.961586	0.036490	-0.398120
C18	C	0.809382	0.028075	-0.453801
C19	C	0.891634	0.013964	-0.581580
C20	C	1.008857	0.011113	-0.617624
C21	C	1.043839	0.022375	-0.525897
C22	C	0.692147	0.030927	-0.417751
C23	C	0.739430	0.005549	-0.637261
C24	C	0.856652	0.002701	-0.673307
C25	C	1.336264	-0.070724	-0.410793
C26	C	1.334773	-0.133896	-0.410324
C27	C	1.349083	-0.538318	-0.517266
C28	C	1.347669	-0.597675	-0.516838
O29	O	1.367008	-0.639157	-0.609940
N30	N	1.323323	-0.614678	-0.406873
C31	C	1.300378	-0.572318	-0.297325
O32	O	1.279538	-0.592231	-0.203752
C33	C	1.301784	-0.512962	-0.297752
C34	C	1.326143	-0.495964	-0.407728
C35	C	1.373439	-0.521319	-0.627233
C36	C	1.374855	-0.461966	-0.627661
C37	C	1.351915	-0.419612	-0.518123
C38	C	1.327559	-0.436611	-0.408157
C39	C	1.278831	-0.470603	-0.188203
C40	C	1.280238	-0.411243	-0.188640
C41	C	1.304598	-0.394245	-0.298615
C42	C	1.306035	-0.334904	-0.299047
N43	N	1.330381	-0.317901	-0.409012
C44	C	1.353321	-0.360255	-0.518550
C45	C	1.297424	-0.696972	-0.296436
C46	C	1.296026	-0.756328	-0.296010
C47	C	1.343315	-0.781680	-0.515523
C48	C	1.344722	-0.722324	-0.515950
C49	C	1.321771	-0.679969	-0.406401
C50	C	1.356294	-0.235609	-0.519442
C51	C	1.357713	-0.176250	-0.519862
C52	C	1.310417	-0.150903	-0.300348
C53	C	1.309005	-0.210257	-0.299929
C54	C	1.331941	-0.252609	-0.409485
O55	O	1.286703	-0.293389	-0.205991
O56	O	1.374142	-0.340332	-0.612104
C57	C	1.532411	0.022700	-0.471121
C58	C	1.657177	0.019663	-0.509484
C59	C	1.317467	0.138142	-0.405070
C60	C	1.318960	0.201313	-0.405547
N61	N	1.259294	0.069970	-0.094252
N62	N	1.394445	-0.002556	-0.721612
C63	C	1.484966	-0.051148	0.191389
C64	C	1.512253	-0.065795	0.064664
C65	C	1.449015	-0.031855	0.024929
C66	C	1.358487	0.016735	0.111931
C67	C	1.331203	0.031386	0.238666
C68	C	1.295253	0.050679	0.072206
C69	C	1.204724	0.099269	0.159208
C70	C	1.177445	0.113918	0.285930
C71	C	1.240682	0.079978	0.325666
C72	C	1.322536	0.036027	-0.054529
C73	C	1.168773	0.118561	-0.007252
C74	C	1.141487	0.133209	0.119472
H75	H	0.666649	0.055773	-0.204934
H76	H	0.730121	0.076197	-0.038527
H77	H	0.625186	0.042421	-0.313712
H78	H	1.218463	0.091902	0.428855
O79	O	1.368187	-0.705732	-0.622654
C80	C	1.299746	-0.643781	-0.720612
C81	C	1.273050	-0.662500	-0.599671
H82	H	1.222835	-0.608835	-0.702080
H83	H	1.380205	-0.624417	-0.750523
H84	H	1.315939	-0.684273	-0.798803
H85	H	1.256802	-0.622038	-0.521399
H86	H	1.192621	-0.681886	-0.569868
O87	O	0.948450	0.072716	-0.089642
C88	C	1.066625	0.034455	-0.006995
C89	C	1.028073	0.022096	-0.107847
H90	H	1.130987	-0.006467	-0.021662
H91	H	1.109668	0.073913	-0.015108
H92	H	0.987682	0.045060	0.090515
H93	H	1.106955	0.011465	-0.205403
H94	H	0.984989	-0.017345	-0.099623
H95	H	1.536452	-0.078775	0.223750
O96	O	1.395597	-0.562388	-0.733680
C97	C	1.338182	-0.592527	-0.891212
C98	C	1.312959	-0.545968	-0.770665
H99	H	1.271370	-0.579274	-0.921136
H100	H	1.428755	-0.594929	-0.969657
H101	H	1.333051	-0.637875	-0.872030
H102	H	1.318027	-0.500595	-0.789724
H103	H	1.222399	-0.543618	-0.692259
O104	O	1.088832	-0.002698	-0.741739
C105	C	1.261967	-0.070373	-0.913881
C106	C	1.171463	-0.054810	-0.773315
H107	H	1.328811	-0.112500	-0.939448
H108	H	1.216907	-0.077976	-0.973320
H109	H	1.307230	-0.032133	-0.932917
H110	H	1.126171	-0.093030	-0.754159
H111	H	1.216588	-0.047185	-0.713949
H112	H	1.361991	-0.816176	-0.604714
O113	O	1.475723	-0.046096	-0.098233
C114	C	1.621440	-0.059030	-0.312880
C115	C	1.591355	-0.042899	-0.173446
H116	H	1.714920	-0.056438	-0.373727
H117	H	1.610989	-0.106111	-0.341835
H118	H	1.560641	-0.026438	-0.326292
H119	H	1.652129	-0.075450	-0.159929
H120	H	1.601771	0.004196	-0.144557
O121	O	0.705378	-0.005284	-0.726320
C122	C	0.587107	0.032946	-0.808893
C123	C	0.625603	0.045298	-0.707993
H124	H	0.522585	0.073828	-0.794094
H125	H	0.665982	0.022399	-0.906441
H126	H	0.544197	-0.006558	-0.800790
H127	H	0.668491	0.084808	-0.715979
H128	H	0.546688	0.055810	-0.610487
H129	H	1.291745	-0.116408	-0.211167
O130	O	1.274952	-0.655789	-0.189989
C131	C	1.151753	-0.564342	-0.033159
C132	C	1.177058	-0.610941	-0.153691
H133	H	1.072620	-0.528064	-0.003791
H134	H	1.134031	-0.586657	0.045571
H135	H	1.229940	-0.543788	-0.052081
H136	H	1.098910	-0.631511	-0.134892
H137	H	1.194826	-0.588595	-0.232383
H138	H	0.923638	-0.008788	-0.777347
H139	H	1.261532	-0.376757	-0.099424
O140	O	1.381344	-0.159835	-0.626789
C141	C	1.428167	-0.191263	-0.844490
C142	C	1.401399	-0.209929	-0.723481
H143	H	1.444412	-0.231756	-0.922704
H144	H	1.351341	-0.156292	-0.826076
H145	H	1.508651	-0.171923	-0.874295
H146	H	1.320950	-0.229295	-0.693611
H147	H	1.478288	-0.244875	-0.741963
O148	O	1.600183	-0.113028	-0.019668
C149	C	1.749859	-0.193322	-0.053193
C150	C	1.650285	-0.139851	0.042453
H151	H	1.790410	-0.215017	-0.003010
H152	H	1.714488	-0.227077	-0.097675
H153	H	1.818452	-0.177429	-0.129733
H154	H	1.581656	-0.155689	0.119065
H155	H	1.685742	-0.106108	0.086837
O156	O	1.053411	0.180351	0.203986
C157	C	0.849247	0.224688	0.302948
C158	C	0.948880	0.171258	0.207221
H159	H	0.764715	0.217361	0.305576
H160	H	0.840515	0.229330	0.400389
H161	H	0.868777	0.266953	0.273680
H162	H	0.929424	0.128963	0.236372
H163	H	0.957588	0.166669	0.109803
H164	H	1.103740	0.153486	0.356766
H165	H	1.117282	0.146199	-0.039603
H166	H	1.139289	0.020059	-0.555240
H167	H	1.374966	-0.270086	-0.608651
H168	H	1.276207	-0.770163	-0.206462
O169	O	1.398383	-0.445347	-0.734350
C170	C	1.421087	-0.365112	-0.832196
C171	C	1.394555	-0.383859	-0.711319
H172	H	1.417977	-0.315395	-0.813611
H173	H	1.511127	-0.390806	-0.910575
H174	H	1.353711	-0.375253	-0.861873
H175	H	1.461856	-0.373718	-0.681529
H176	H	1.304482	-0.358167	-0.633016
O177	O	1.255089	-0.486999	-0.081246
C178	C	1.208369	-0.455566	0.136422
C179	C	1.235219	-0.436917	0.015378
H180	H	1.192321	-0.415088	0.214566
H181	H	1.127817	-0.474853	0.166383
H182	H	1.285184	-0.490579	0.117892
H183	H	1.158476	-0.401888	0.033810
H184	H	1.315812	-0.417665	-0.014548
O185	O	1.285281	-0.226668	-0.192982
C186	C	1.238589	-0.195257	0.024679
C187	C	1.265427	-0.176595	-0.096349
H188	H	1.222554	-0.154786	0.102831
H189	H	1.158032	-0.214540	0.054643
H190	H	1.315404	-0.230276	0.006129
H191	H	1.188683	-0.141560	-0.077896
H192	H	1.346024	-0.157347	-0.126277
H193	H	1.396245	-0.003535	-0.125356
