data_functionalizedCrystal
_audit_creation_method	'MofGen! by Chris Wilmer'
_symmetry_space_group_name_H-M	'P1'
_symmetry_Int_Tables_number	1
_symmetry_cell_setting	triclinic
loop_
_symmetry_equiv_pos_as_xyz
  x,y,z
_cell_length_a	16.992694
_cell_length_b	10.489741
_cell_length_c	16.053802
_cell_angle_alpha	92.592148
_cell_angle_beta	87.249047
_cell_angle_gamma	87.603699
loop_
_atom_site_label
_atom_site_type_symbol
_atom_site_fract_x
_atom_site_fract_y
_atom_site_fract_z
O1	O	1.045194	0.265584	-0.069324
O2	O	1.545194	0.765584	0.430676
O3	O	0.816893	0.262613	-0.069348
O4	O	1.316893	0.762613	0.430652
O5	O	0.936238	0.078953	-0.069330
O6	O	1.436238	0.578953	0.430670
O7	O	0.925849	0.449244	-0.069341
O8	O	1.425849	0.949244	0.430659
O9	O	0.929669	0.089018	0.069528
O10	O	1.429669	0.589018	0.569528
O11	O	0.810324	0.272678	0.069510
O12	O	1.310324	0.772678	0.569510
O13	O	1.038624	0.275649	0.069534
O14	O	1.538624	0.775649	0.569534
Zn15	Zn	0.923431	0.275761	0.091569
Zn16	Zn	1.423431	0.775761	0.591569
Zn17	Zn	0.932086	0.262501	-0.091383
Zn18	Zn	1.432086	0.762501	0.408617
O19	O	0.919279	0.459309	0.069516
O20	O	1.419279	0.959309	0.569516
C21	C	0.784374	0.263826	0.000078
C22	C	1.284374	0.763826	0.500078
C23	C	0.697266	0.252430	0.000068
C24	C	1.197266	0.752430	0.500068
C25	C	0.647647	0.362379	0.000066
C26	C	1.147647	0.862379	0.500066
C27	C	0.565799	0.351666	0.000078
C28	C	1.065799	0.851666	0.500078
C29	C	0.533573	0.231001	0.000086
C30	C	1.033573	0.731001	0.500086
C31	C	0.583199	0.121044	0.000091
C32	C	1.083199	0.621044	0.500091
C33	C	0.665044	0.131759	0.000085
C34	C	1.165044	0.631759	0.500085
C35	C	0.289723	0.186590	0.000110
C36	C	0.789723	0.686590	0.500110
C37	C	0.207871	0.175882	0.000113
C38	C	0.707871	0.675882	0.500113
C39	C	0.190477	0.406505	0.000101
C40	C	0.690477	0.906505	0.500101
C41	C	0.272325	0.417210	0.000090
C42	C	0.772325	0.917210	0.500090
C43	C	0.321944	0.307253	0.000100
C44	C	0.821944	0.807253	0.500100
N45	N	0.449912	0.220047	0.000096
N46	N	0.949912	0.720047	0.500096
N47	N	0.405603	0.318209	0.000096
N48	N	0.905603	0.818209	0.500096
C49	C	0.932169	0.036385	0.000098
C50	C	1.432169	0.536385	0.500098
C51	C	0.929821	-0.105448	0.000096
C52	C	1.429821	0.394552	0.500096
C53	C	0.853885	-0.180196	0.000082
C54	C	1.353885	0.319804	0.500082
C55	C	0.886518	-0.264235	0.068550
C56	C	1.386518	0.235765	0.568550
C57	C	0.893013	-0.274131	-0.068353
C58	C	1.393013	0.225869	0.431647
C59	C	0.962482	-0.187615	0.068621
C60	C	1.462482	0.312385	0.568621
C61	C	0.968969	-0.197507	-0.068344
C62	C	1.468969	0.302493	0.431656
C63	C	1.001656	-0.281513	0.000141
C64	C	1.501656	0.218487	0.500141
C65	C	1.071143	0.274436	0.000107
C66	C	1.571143	0.774436	0.500107
C67	C	1.158252	0.285831	0.000110
C68	C	1.658252	0.785831	0.500110
C69	C	0.923349	0.501876	0.000086
C70	C	1.423349	1.001876	0.500086
C71	C	0.925697	0.643710	0.000083
C72	C	1.425697	1.143710	0.500083
N73	N	0.917530	0.284811	0.216428
N74	N	1.417530	0.784811	0.716428
N75	N	0.937994	0.253441	-0.216242
N76	N	1.437994	0.753441	0.283758
C77	C	0.968330	0.206695	0.260130
C78	C	1.468330	0.706695	0.760130
C79	C	0.964209	0.213038	0.347536
C80	C	1.464209	0.713038	0.847536
C81	C	0.909292	0.297505	0.391239
C82	C	1.409292	0.797505	0.891239
C83	C	0.858486	0.375625	0.347531
C84	C	1.358486	0.875625	0.847531
C85	C	0.862603	0.369274	0.260127
C86	C	1.362603	0.869274	0.760127
C87	C	0.891306	0.325210	0.652646
C88	C	1.391306	0.825210	1.152646
C89	C	0.887193	0.331557	0.740056
C90	C	1.387193	0.831557	1.240056
C91	C	0.992917	0.168969	0.740055
C92	C	1.492917	0.668969	1.240055
C93	C	0.997032	0.162631	0.652649
C94	C	1.497032	0.662631	1.152649
C95	C	0.946224	0.240745	0.608949
C96	C	1.446224	0.740745	1.108949
N97	N	0.905080	0.303994	0.480582
N98	N	1.405080	0.803994	0.980582
N99	N	0.950432	0.234249	0.519607
N100	N	1.450432	0.734249	1.019607
H101	H	0.150069	0.496026	0.000095
H102	H	0.650069	0.996026	0.500095
F103	F	1.046985	0.085836	0.786569
F104	F	1.546985	0.585836	1.286569
F105	F	0.828740	0.421467	0.786563
F106	F	1.328740	0.921467	1.286563
H107	H	1.013053	0.137919	0.224552
H108	H	1.513053	0.637919	0.724552
F109	F	1.055482	0.072734	0.606138
F110	F	1.555482	0.572734	1.106138
H111	H	0.673878	0.460637	0.000058
H112	H	1.173878	0.960637	0.500058
F113	F	1.000862	-0.138180	0.144364
F114	F	1.500862	0.361820	0.644364
H115	H	1.064144	-0.325497	0.000186
H116	H	1.564144	0.174503	0.500186
H117	H	0.849937	0.388816	0.617072
H118	H	1.349937	0.888816	1.117072
H119	H	0.813766	0.444395	0.383119
H120	H	1.313766	0.944395	0.883119
H121	H	0.181636	0.077618	0.000119
H122	H	0.681636	0.577618	0.500119
F123	F	1.018276	0.129897	0.394046
F124	F	1.518276	0.629897	0.894046
H125	H	0.330113	0.097054	0.000118
H126	H	0.830113	0.597054	0.500118
F127	F	0.808532	0.452413	0.213617
F128	F	1.308532	0.952413	0.713617
H129	H	0.556953	0.022797	0.000110
H130	H	1.056953	0.522797	0.500110
H131	H	0.525402	0.441198	0.000074
H132	H	1.025402	0.941198	0.500074
F133	F	1.014511	-0.158760	-0.143999
F134	F	1.514511	0.341240	0.356001
H135	H	0.298558	0.515467	0.000074
H136	H	0.798558	1.015467	0.500074
H137	H	0.705444	0.042226	0.000087
H138	H	1.205444	0.542226	0.500087
H139	H	0.791448	-0.135972	0.000144
H140	H	1.291448	0.364028	0.500144
H141	H	0.863611	-0.312087	-0.126243
H142	H	1.363611	0.187913	0.373757
F143	F	0.840944	-0.302940	0.144202
F144	F	1.340944	0.197060	0.644202
