data_functionalizedCrystal
_audit_creation_method	'MofGen! by Chris Wilmer'
_symmetry_space_group_name_H-M	'P1'
_symmetry_Int_Tables_number	1
_symmetry_cell_setting	triclinic
loop_
_symmetry_equiv_pos_as_xyz
  x,y,z
_cell_length_a	18.101398
_cell_length_b	18.101397
_cell_length_c	18.101380
_cell_angle_alpha	90.087478
_cell_angle_beta	89.934607
_cell_angle_gamma	89.981008
loop_
_atom_site_label
_atom_site_type_symbol
_atom_site_fract_x
_atom_site_fract_y
_atom_site_fract_z
Zn1	Zn	1.132459	0.294522	-0.418821
Zn2	Zn	1.632459	0.794522	0.081179
Zn3	Zn	1.132282	0.418489	-0.294971
Zn4	Zn	1.632282	0.918489	0.205029
Zn5	Zn	1.008529	0.294656	-0.294982
Zn6	Zn	1.508529	0.794656	0.205018
Zn7	Zn	1.008585	0.418316	-0.418760
Zn8	Zn	1.508585	0.918316	0.081240
O9	O	1.070464	0.356496	-0.356884
O10	O	1.570464	0.856496	0.143116
O11	O	1.236069	0.310983	-0.402413
O12	O	1.736069	0.810983	0.097587
O13	O	1.115769	0.402191	-0.191340
O14	O	1.615769	0.902191	0.308660
O15	O	1.025020	0.191005	-0.311439
O16	O	1.525020	0.691005	0.188561
O17	O	1.235939	0.402061	-0.311421
O18	O	1.735939	0.902061	0.188579
O19	O	1.116071	0.190907	-0.402423
O20	O	1.616071	0.690907	0.097577
O21	O	1.024848	0.311211	-0.191347
O22	O	1.524848	0.811211	0.308653
O23	O	0.904904	0.311043	-0.311380
O24	O	1.404904	0.811043	0.188620
O25	O	1.025114	0.401766	-0.522402
O26	O	1.525114	0.901766	-0.022402
O27	O	0.904945	0.401896	-0.402320
O28	O	1.404945	0.901896	0.097680
O29	O	1.116124	0.310815	-0.522446
O30	O	1.616124	0.810815	-0.022446
O31	O	1.115823	0.522099	-0.311362
O32	O	1.615823	1.022099	0.188638
O33	O	1.024943	0.521972	-0.402310
O34	O	1.524943	1.021972	0.097690
C35	C	1.070390	0.548907	-0.356844
C36	C	1.570390	1.048907	0.143156
C37	C	1.070426	0.631221	-0.356852
C38	C	1.570426	1.131221	0.143148
C39	C	0.878053	0.356466	-0.356845
C40	C	1.378053	0.856466	0.143155
C41	C	0.795739	0.356471	-0.356846
C42	C	1.295739	0.856471	0.143154
C43	C	1.070460	0.781929	-0.356868
C44	C	1.570460	1.281929	0.143132
C45	C	1.127694	0.813332	-0.299700
C46	C	1.627694	1.313332	0.200300
C47	C	1.127545	0.898950	-0.299484
C48	C	1.627545	1.398950	0.200516
C49	C	1.070495	0.930312	-0.356883
C50	C	1.570495	1.430312	0.143117
C51	C	0.992381	0.899309	-0.335871
C52	C	1.492381	1.399309	0.164129
C53	C	0.992691	0.813665	-0.335447
C54	C	1.492691	1.313665	0.164553
C55	C	1.090666	0.813349	-0.435195
C56	C	1.590666	1.313349	0.064805
C57	C	1.092408	0.898999	-0.434787
C58	C	1.592408	1.398999	0.065213
C59	C	1.070511	1.014171	-0.356893
C60	C	1.570511	1.514171	0.143107
C61	C	1.070440	0.698070	-0.356856
C62	C	1.570440	1.198070	0.143144
C63	C	0.496648	0.356517	-0.356908
C64	C	0.996648	0.856517	0.143092
C65	C	0.527923	0.299069	-0.299971
C66	C	1.027923	0.799069	0.200029
C67	C	0.613541	0.299223	-0.299728
C68	C	1.113541	0.799223	0.200272
C69	C	0.645031	0.356494	-0.356877
C70	C	1.145031	0.856494	0.143123
C71	C	0.613908	0.434526	-0.335548
C72	C	1.113908	0.934526	0.164452
C73	C	0.528262	0.434207	-0.335152
C74	C	1.028262	0.934207	0.164848
C75	C	0.528317	0.336611	-0.435309
C76	C	1.028317	0.836611	0.064691
C77	C	0.613967	0.334874	-0.434881
C78	C	1.113967	0.834874	0.065119
C79	C	0.728890	0.356485	-0.356861
C80	C	1.228890	0.856485	0.143139
C81	C	0.412789	0.356531	-0.356923
C82	C	0.912789	0.856531	0.143077
C83	C	1.263626	0.356527	-0.356923
C84	C	1.763626	0.856527	0.143077
C85	C	1.345940	0.356540	-0.356940
C86	C	1.845940	0.856540	0.143060
C87	C	1.070645	0.356257	-0.550046
C88	C	1.570645	0.856257	-0.050046
C89	C	1.070723	0.356155	-0.632360
C90	C	1.570723	0.856155	-0.132360
C91	C	1.070541	1.163334	-0.356923
C92	C	1.570541	1.663334	0.143077
C93	C	1.070530	1.081020	-0.356899
C94	C	1.570530	1.581020	0.143101
C95	C	1.070326	0.356681	-0.164473
C96	C	1.570326	0.856681	0.335527
C97	C	1.070392	0.356574	-0.082159
C98	C	1.570392	0.856574	0.417841
C99	C	1.070612	0.356295	0.216931
C100	C	1.570612	0.856295	0.716931
C101	C	1.012779	0.299697	0.185559
C102	C	1.512779	0.799697	0.685559
C103	C	1.012882	0.299551	0.099940
C104	C	1.512882	0.799551	0.599940
C105	C	1.070502	0.356434	0.068549
C106	C	1.570502	0.856434	0.568549
C107	C	1.148414	0.334659	0.099430
C108	C	1.648414	0.834659	0.599430
C109	C	1.148142	0.334167	0.185075
C110	C	1.648142	0.834167	0.685075
C111	C	1.051195	0.434835	0.185602
C112	C	1.551195	0.934835	0.685602
C113	C	1.049405	0.434514	0.099954
C114	C	1.549405	0.934514	0.599954
C115	C	1.070445	0.356513	-0.015310
C116	C	1.570445	0.856513	0.484690
C117	C	1.070675	0.356214	0.300791
C118	C	1.570675	0.856214	0.800791
H119	H	1.185461	0.919911	-0.312610
H120	H	1.685461	1.419911	0.187390
H121	H	1.192615	0.374622	0.079093
H122	H	1.692615	0.874622	0.579093
F123	F	0.499693	0.316071	-0.224481
F124	F	0.999693	0.816071	0.275519
H125	H	1.192680	0.373556	0.205822
H126	H	1.692680	0.873556	0.705822
F127	F	0.641989	0.385574	-0.493304
F128	F	1.141989	0.885574	0.006696
F129	F	0.501887	0.391301	-0.490761
F130	F	1.001887	0.891301	0.009239
F131	F	1.170354	0.260468	0.071165
F132	F	1.670354	0.760468	0.571165
H133	H	0.955094	0.313248	0.079068
H134	H	1.455094	0.813248	0.579068
F135	F	1.110400	0.785342	-0.224272
F136	F	1.610400	1.285342	0.275728
F137	F	1.029316	0.224086	0.213458
F138	F	1.529316	0.724086	0.713458
H139	H	0.633955	0.312389	-0.241634
H140	H	1.133955	0.812389	0.258366
F141	F	0.974470	0.455963	0.073593
F142	F	1.474470	0.955963	0.573593
F143	F	1.110049	0.925875	-0.223632
F144	F	1.610049	1.425875	0.276368
H145	H	0.954838	0.313202	0.206298
H146	H	1.454838	0.813202	0.706298
F147	F	1.167544	0.925482	-0.455507
F148	F	1.667544	1.425482	0.044493
F149	F	1.163848	0.785040	-0.460224
F150	F	1.663848	1.285040	0.039776
F151	F	1.203619	0.786341	-0.316656
F152	F	1.703619	1.286341	0.183344
F153	F	1.029754	0.223597	0.072931
F154	F	1.529754	0.723597	0.572931
H155	H	0.507574	0.478463	-0.374814
H156	H	1.007574	0.978463	0.125186
H157	H	0.948582	0.919621	-0.376233
H158	H	1.448582	1.419621	0.123767
H159	H	0.975600	0.793797	-0.278197
H160	H	1.475600	1.293797	0.221803
F161	F	1.100460	0.492702	0.072042
F162	F	1.600460	0.992702	0.572042
F163	F	0.641845	0.456961	-0.261441
F164	F	1.141845	0.956961	0.238559
F165	F	1.169726	0.259108	0.210955
F166	F	1.669726	0.759108	0.710955
H167	H	1.053794	0.920338	-0.479652
H168	H	1.553794	1.420338	0.020348
F169	F	0.969666	0.927483	-0.261867
F170	F	1.469666	1.427483	0.238133
F171	F	0.978293	0.460536	0.214040
F172	F	1.478293	0.960536	0.714040
H173	H	1.093323	0.477014	0.205896
H174	H	1.593323	0.977014	0.705896
F175	F	0.935036	0.786510	-0.387515
F176	F	1.435036	1.286510	0.112485
H177	H	0.634315	0.277451	-0.450964
H178	H	1.134315	0.777451	0.049036
H179	H	1.048986	0.793031	-0.477788
H180	H	1.548986	1.293031	0.022212
H181	H	0.508211	0.451079	-0.277837
H182	H	1.008211	0.951079	0.222163
H183	H	0.634584	0.241361	-0.313098
H184	H	1.134584	0.741361	0.186902
H185	H	0.507355	0.241030	-0.313194
H186	H	1.007355	0.741030	0.186806
F187	F	0.640562	0.491977	-0.388060
F188	F	1.140562	0.991977	0.111940
F189	F	0.500132	0.263525	-0.460655
F190	F	1.000132	0.763525	0.039345
