data_functionalizedCrystal
_audit_creation_method	'MofGen! by Chris Wilmer'
_symmetry_space_group_name_H-M	'P1'
_symmetry_Int_Tables_number	1
_symmetry_cell_setting	triclinic
loop_
_symmetry_equiv_pos_as_xyz
  x,y,z
_cell_length_a	19.288864
_cell_length_b	17.038272
_cell_length_c	17.766277
_cell_angle_alpha	89.993732
_cell_angle_beta	89.976791
_cell_angle_gamma	87.123901
loop_
_atom_site_label
_atom_site_type_symbol
_atom_site_fract_x
_atom_site_fract_y
_atom_site_fract_z
O1	O	0.927386	0.097514	-0.062838
O2	O	1.427386	0.597514	0.437162
O3	O	0.725940	0.110668	-0.062787
O4	O	1.225940	0.610668	0.437213
O5	O	0.825466	-0.009720	-0.062806
O6	O	1.325466	0.490280	0.437194
O7	O	0.827860	0.217903	-0.062819
O8	O	1.327860	0.717903	0.437181
O9	O	0.825447	-0.009726	0.062382
O10	O	1.325447	0.490274	0.562382
O11	O	0.725920	0.110662	0.062402
O12	O	1.225920	0.610662	0.562402
O13	O	0.927367	0.097508	0.062351
O14	O	1.427367	0.597508	0.562351
Cu15	Cu	0.826642	0.104085	0.073807
Cu16	Cu	1.326642	0.604085	0.573807
Cu17	Cu	0.826665	0.104092	-0.074243
Cu18	Cu	1.326665	0.604092	0.425757
O19	O	0.827841	0.217897	0.062370
O20	O	1.327841	0.717897	0.562370
C21	C	0.700027	0.110242	-0.000186
C22	C	1.200027	0.610242	0.499814
C23	C	0.622845	0.108972	-0.000166
C24	C	1.122845	0.608972	0.499834
C25	C	0.582519	0.179610	-0.000182
C26	C	1.082519	0.679610	0.499818
C27	C	0.509998	0.178417	-0.000190
C28	C	1.009998	0.678417	0.499810
C29	C	0.477806	0.106580	-0.000198
C30	C	0.977806	0.606580	0.499802
C31	C	0.518141	0.035932	-0.000178
C32	C	1.018141	0.535932	0.499822
C33	C	0.590661	0.037128	-0.000162
C34	C	1.090661	0.537128	0.499838
C35	C	0.366057	0.050111	-0.044079
C36	C	0.866057	0.550111	0.455921
C37	C	0.293539	0.048918	-0.044100
C38	C	0.793539	0.548918	0.455900
C39	C	0.254132	0.102889	-0.000243
C40	C	0.754132	0.602889	0.499757
C41	C	0.287252	0.158066	0.043624
C42	C	0.787252	0.658066	0.543624
C43	C	0.359772	0.159262	0.043640
C44	C	0.859772	0.659262	0.543640
C45	C	0.399172	0.105276	-0.000214
C46	C	0.899172	0.605276	0.499786
C47	C	0.135171	0.172238	-0.000267
C48	C	0.635171	0.672238	0.499733
C49	C	0.062649	0.171042	-0.000270
C50	C	0.562649	0.671042	0.499730
C51	C	0.070793	0.028556	-0.000266
C52	C	0.570793	0.528556	0.499734
C53	C	0.143314	0.029754	-0.000254
C54	C	0.643314	0.529754	0.499746
C55	C	0.175498	0.101598	-0.000259
C56	C	0.675498	0.601598	0.499741
C57	C	0.823278	-0.038845	-0.000211
C58	C	1.323278	0.461155	0.499789
C59	C	0.816781	-0.125616	-0.000210
C60	C	1.316781	0.374384	0.499790
C61	C	0.876437	-0.175923	-0.000224
C62	C	1.376437	0.324077	0.499776
C63	C	0.870327	-0.257454	-0.000230
C64	C	1.370327	0.242546	0.499770
C65	C	0.804561	-0.288677	-0.000216
C66	C	1.304561	0.211323	0.499784
C67	C	0.744901	-0.238363	-0.000204
C68	C	1.244901	0.261637	0.499796
C69	C	0.751011	-0.156834	-0.000203
C70	C	1.251011	0.343166	0.499797
C71	C	0.782976	-0.534365	-0.000221
C72	C	1.282976	-0.034365	0.499779
C73	C	0.776870	-0.615900	-0.000219
C74	C	1.276870	-0.115900	0.499781
C75	C	0.902297	-0.634985	-0.000246
C76	C	1.402297	-0.134985	0.499754
C77	C	0.908402	-0.553454	-0.000241
C78	C	1.408402	-0.053454	0.499759
C79	C	0.848741	-0.503148	-0.000233
C80	C	1.348741	-0.003148	0.499767
C81	C	0.798315	-0.372014	-0.000219
C82	C	1.298315	0.127986	0.499781
C83	C	0.854988	-0.419812	-0.000235
C84	C	1.354988	0.080188	0.499765
C85	C	0.953279	0.097934	-0.000252
C86	C	1.453279	0.597934	0.499748
C87	C	1.030462	0.099205	-0.000277
C88	C	1.530462	0.599205	0.499723
C89	C	0.830029	0.247021	-0.000227
C90	C	1.330029	0.747021	0.499773
C91	C	0.836526	0.333793	-0.000233
C92	C	1.336526	0.833793	0.499767
N93	N	0.826631	0.104079	0.177937
N94	N	1.326631	0.604079	0.677937
N95	N	0.826681	0.104091	-0.178373
N96	N	1.326681	0.604091	0.321627
C97	C	0.870718	0.050797	0.217315
C98	C	1.370718	0.550797	0.717315
C99	C	0.870722	0.050793	0.296117
C100	C	1.370722	0.550793	0.796117
C101	C	0.826646	0.104085	0.335538
C102	C	1.326646	0.604085	0.835538
C103	C	0.782551	0.157371	0.296150
C104	C	1.282551	0.657371	0.796150
C105	C	0.782543	0.157368	0.217350
C106	C	1.282543	0.657368	0.717350
C107	C	0.821754	0.175309	0.460373
C108	C	1.321754	0.675309	0.960373
C109	C	0.821767	0.175313	0.539172
C110	C	1.321767	0.675313	1.039172
C111	C	0.826665	0.104095	0.578584
C112	C	1.326665	0.604095	1.078584
C113	C	0.831566	0.032869	0.539188
C114	C	1.331566	0.532869	1.039188
C115	C	0.831559	0.032866	0.460387
C116	C	1.331559	0.532866	0.960387
C117	C	0.826649	0.104094	0.420983
C118	C	1.326649	0.604094	0.920983
C119	C	0.870759	0.050804	0.703408
C120	C	1.370759	0.550804	1.203408
C121	C	0.870758	0.050800	0.782212
C122	C	1.370758	0.550800	1.282212
C123	C	0.782590	0.157384	0.782243
C124	C	1.282590	0.657384	1.282243
C125	C	0.782587	0.157382	0.703441
C126	C	1.282587	0.657382	1.203441
C127	C	0.826676	0.104093	0.664028
C128	C	1.326676	0.604093	1.164028
H129	H	0.255169	0.202014	0.079337
H130	H	0.755169	0.702014	0.579337
H131	H	0.691353	-0.263791	-0.000197
H132	H	1.191353	0.236209	0.499803
C133	C	0.626419	-0.146154	-0.000170
C134	C	1.126419	0.353846	0.499830
C135	C	0.685435	-0.101534	-0.000186
C136	C	1.185435	0.398466	0.499814
H137	H	0.585935	-0.112012	-0.000158
H138	H	1.085935	0.387988	0.499842
H139	H	0.626653	-0.178344	-0.043823
H140	H	1.126653	0.321656	0.456177
H141	H	0.626641	-0.178356	0.043489
H142	H	1.126641	0.321644	0.543489
H143	H	0.685216	-0.069335	-0.043848
H144	H	1.185216	0.430665	0.456152
H145	H	0.685201	-0.069330	0.043472
H146	H	1.185201	0.430670	0.543472
C147	C	0.978356	-0.446865	-0.000267
C148	C	1.478356	0.053135	0.499733
C149	C	0.927278	-0.385495	-0.000255
C150	C	1.427278	0.114505	0.499745
H151	H	1.022984	-0.425672	-0.000283
H152	H	1.522984	0.074328	0.499717
H153	H	0.973360	-0.478269	0.043388
H154	H	1.473360	0.021731	0.543388
H155	H	0.973370	-0.478266	-0.043924
H156	H	1.473370	0.021734	0.456076
H157	H	0.932260	-0.354098	0.043405
H158	H	1.432260	0.145902	0.543405
H159	H	0.932276	-0.354078	-0.043915
H160	H	1.432276	0.145922	0.456085
C161	C	0.999800	-0.202985	-0.000265
C162	C	1.499800	0.297015	0.499735
C163	C	0.948730	-0.141608	-0.000245
C164	C	1.448730	0.358392	0.499755
H165	H	1.044431	-0.181800	-0.000285
H166	H	1.544431	0.318200	0.499715
H167	H	0.994805	-0.234390	0.043390
H168	H	1.494805	0.265610	0.543390
H169	H	0.994806	-0.234384	-0.043922
H170	H	1.494806	0.265616	0.456078
H171	H	0.953721	-0.110212	0.043415
H172	H	1.453721	0.389788	0.543415
H173	H	0.953727	-0.110190	-0.043905
H174	H	1.453727	0.389810	0.456095
H175	H	0.608719	0.238111	-0.000187
H176	H	1.108719	0.738111	0.499813
H177	H	0.906624	0.007403	0.328185
H178	H	1.406624	0.507403	0.828185
H179	H	0.744768	-0.397444	-0.000206
H180	H	1.244768	0.102556	0.499794
H181	H	0.950869	-0.675953	-0.000254
H182	H	1.450869	-0.175953	0.499746
H183	H	0.817780	0.233309	0.571243
H184	H	1.317780	0.733309	1.071243
H185	H	0.817753	0.233307	0.428290
H186	H	1.317753	0.733307	0.928290
H187	H	0.623494	-0.020396	-0.000150
H188	H	1.123494	0.479604	0.499850
C189	C	0.957867	-0.054558	0.225206
C190	C	1.457867	0.445442	0.725206
C191	C	0.919172	-0.007786	0.173995
C192	C	1.419172	0.492214	0.673995
H193	H	0.987775	-0.090728	0.198459
H194	H	1.487775	0.409272	0.698459
H195	H	0.984770	-0.022088	0.255917
H196	H	1.484770	0.477912	0.755917
H197	H	0.927296	-0.082588	0.255966
H198	H	1.427296	0.417412	0.755966
H199	H	0.949743	0.020248	0.143238
H200	H	1.449743	0.520248	0.643238
H201	H	0.892267	-0.040260	0.143271
H202	H	1.392267	0.459740	0.643271
H203	H	0.029816	0.228567	-0.000279
H204	H	0.529816	0.728567	0.499721
H205	H	0.161377	0.230738	-0.000259
H206	H	0.661377	0.730738	0.499741
C207	C	0.695448	0.262740	0.711389
C208	C	1.195448	0.762740	1.211389
C209	C	0.734133	0.215961	0.660151
C210	C	1.234133	0.715961	1.160151
H211	H	0.665535	0.298907	0.684662
H212	H	1.165535	0.798907	1.184662
H213	H	0.668550	0.230274	0.742141
H214	H	1.168550	0.730274	1.242141
H215	H	0.726024	0.290773	0.742106
H216	H	1.226024	0.790773	1.242106
H217	H	0.703556	0.187923	0.629438
H218	H	1.203556	0.687923	1.129438
H219	H	0.761033	0.248431	0.629387
H220	H	1.261033	0.748431	1.129387
C221	C	0.364986	-0.057883	-0.130815
C222	C	0.864986	0.442117	0.369185
C223	C	0.409368	-0.009212	-0.092299
C224	C	0.909368	0.490788	0.407701
H225	H	0.391725	-0.094500	-0.160587
H226	H	0.891725	0.405500	0.339413
H227	H	0.338231	-0.085382	-0.095558
H228	H	0.838231	0.414618	0.404442
H229	H	0.334909	-0.026773	-0.162432
H230	H	0.834909	0.473227	0.337568
H231	H	0.439442	-0.040322	-0.060678
H232	H	0.939442	0.459678	0.439322
H233	H	0.436135	0.018288	-0.127561
H234	H	0.936135	0.518288	0.372439
C235	C	0.841235	-0.107935	0.468308
C236	C	1.341235	0.392065	0.968308
C237	C	0.836935	-0.045420	0.417082
C238	C	1.336935	0.454580	0.917082
H239	H	0.844547	-0.156265	0.441571
H240	H	1.344547	0.343735	0.941571
H241	H	0.881172	-0.103715	0.499016
H242	H	1.381172	0.396285	0.999016
H243	H	0.800894	-0.106228	0.499069
H244	H	1.300894	0.393772	0.999069
H245	H	0.877279	-0.047125	0.386325
H246	H	1.377279	0.452875	0.886325
H247	H	0.796994	-0.049642	0.386361
H248	H	1.296994	0.450358	0.886361
H249	H	0.491926	-0.022557	-0.000194
H250	H	0.991926	0.477443	0.499806
H251	H	0.835555	-0.025124	0.571275
H252	H	1.335555	0.474876	1.071275
C253	C	0.689062	0.174608	0.384824
C254	C	1.189062	0.674608	0.884824
C255	C	0.734103	0.215951	0.339480
C256	C	1.234103	0.715951	0.839480
H257	H	0.659154	0.210774	0.411577
H258	H	1.159154	0.710774	0.911577
H259	H	0.662160	0.142147	0.354104
H260	H	1.162160	0.642147	0.854104
H261	H	0.715330	0.142876	0.419552
H262	H	1.215330	0.642876	0.919552
H263	H	0.707836	0.247679	0.304748
H264	H	1.207836	0.747679	0.804748
H265	H	0.761008	0.248426	0.370203
H266	H	1.261008	0.748426	0.870203
H267	H	0.746641	0.200758	0.185287
H268	H	1.246641	0.700758	0.685287
H269	H	0.477159	0.235941	-0.000201
H270	H	0.977159	0.735941	0.499799
C271	C	0.903569	-0.084640	0.806464
C272	C	1.403569	0.415360	1.306464
C273	C	0.919225	-0.007773	0.825497
C274	C	1.419225	0.492227	1.325497
H275	H	0.933495	-0.120799	0.833184
H276	H	1.433495	0.379201	1.333184
H277	H	0.856730	-0.093000	0.819409
H278	H	1.356730	0.407000	1.319409
H279	H	0.909875	-0.092254	0.753890
H280	H	1.409875	0.407746	1.253890
H281	H	0.912913	-0.000157	0.878070
H282	H	1.412913	0.499843	1.378070
H283	H	0.966074	0.000590	0.812557
H284	H	1.466074	0.500590	1.312557
C285	C	0.346283	0.267023	0.130360
C286	C	0.846283	0.767023	0.630360
C287	C	0.396178	0.219901	0.091864
C288	C	0.896178	0.719901	0.591864
H289	H	0.368761	0.304454	0.160136
H290	H	0.868761	0.804454	0.660136
H291	H	0.316477	0.293587	0.095090
H292	H	0.816477	0.793587	0.595090
H293	H	0.319781	0.234985	0.161970
H294	H	0.819781	0.734985	0.661970
H295	H	0.422678	0.251939	0.060250
H296	H	0.922678	0.751939	0.560250
H297	H	0.425997	0.193336	0.127139
H298	H	0.925997	0.693336	0.627139
H299	H	0.044583	-0.029935	-0.000318
H300	H	0.544583	0.470065	0.499682
C301	C	0.717074	-0.431612	0.064145
C302	C	1.217074	0.068388	0.564145
C303	C	0.717401	-0.479070	-0.000207
C304	C	1.217401	0.020930	0.499793
H305	H	0.676591	-0.397469	0.064149
H306	H	1.176591	0.102531	0.564149
H307	H	0.717287	-0.463818	0.107793
H308	H	1.217287	0.036182	0.607793
H309	H	0.757120	-0.401354	0.064126
H310	H	1.257120	0.098646	0.564126
H311	H	0.677358	-0.509332	-0.000185
H312	H	1.177358	-0.009332	0.499815
H313	H	0.717182	-0.446861	-0.043867
H314	H	1.217182	0.053139	0.456133
C315	C	0.144077	-0.111202	-0.000260
C316	C	0.644077	0.388798	0.499740
C317	C	0.187645	-0.047895	-0.000249
C318	C	0.687645	0.452105	0.499751
H319	H	0.171447	-0.159141	-0.000260
H320	H	0.671447	0.340859	0.499740
H321	H	0.115601	-0.108710	0.043388
H322	H	0.615601	0.391290	0.543388
H323	H	0.115644	-0.108696	-0.043925
H324	H	0.615644	0.391304	0.456075
H325	H	0.216075	-0.050398	0.043419
H326	H	0.716075	0.449602	0.543419
H327	H	0.216133	-0.050389	-0.043901
H328	H	0.716133	0.449611	0.456099
H329	H	0.918906	-0.298411	-0.000240
H330	H	1.418906	0.201589	0.499760
H331	H	0.266578	0.003993	-0.079822
H332	H	0.766578	0.503993	0.420178
C333	C	0.964313	0.033635	0.614813
C334	C	1.464313	0.533635	1.114813
C335	C	0.919265	-0.007747	0.660111
C336	C	1.419265	0.492253	1.160111
H337	H	0.994276	-0.002505	0.588098
H338	H	1.494276	0.497495	1.088098
H339	H	0.938060	0.065336	0.580059
H340	H	1.438060	0.565336	1.080059
H341	H	0.991165	0.066131	0.645566
H342	H	1.491165	0.566131	1.145566
H343	H	0.892410	-0.040239	0.629357
H344	H	1.392410	0.459761	1.129357
H345	H	0.945521	-0.039462	0.694869
H346	H	1.445521	0.460538	1.194869
H347	H	0.961955	-0.528039	-0.000253
H348	H	1.461955	-0.028039	0.499747
H349	H	0.723313	-0.641318	-0.000195
H350	H	1.223313	-0.141318	0.499805
H351	H	0.746700	0.200773	0.814338
H352	H	1.246700	0.700773	1.314338
