data_functionalizedCrystal
_audit_creation_method	'MofGen! by Chris Wilmer'
_symmetry_space_group_name_H-M	'P1'
_symmetry_Int_Tables_number	1
_symmetry_cell_setting	triclinic
loop_
_symmetry_equiv_pos_as_xyz
  x,y,z
_cell_length_a	17.019372
_cell_length_b	17.699083
_cell_length_c	16.176319
_cell_angle_alpha	90.007696
_cell_angle_beta	93.869003
_cell_angle_gamma	96.662360
loop_
_atom_site_label
_atom_site_type_symbol
_atom_site_fract_x
_atom_site_fract_y
_atom_site_fract_z
O1	O	1.046481	-0.096398	0.005686
O2	O	1.546481	0.403602	0.505686
O3	O	0.816796	-0.108700	-0.010653
O4	O	1.316796	0.391300	0.489347
O5	O	0.938128	0.007636	-0.002014
O6	O	1.438128	0.507636	0.497986
O7	O	0.925149	-0.212734	-0.002952
O8	O	1.425149	0.287266	0.497048
O9	O	0.938111	0.007643	0.135478
O10	O	1.438111	0.507643	0.635478
O11	O	0.816779	-0.108693	0.126839
O12	O	1.316779	0.391307	0.626839
O13	O	1.046464	-0.096391	0.143178
O14	O	1.546464	0.403609	0.643178
Cu15	Cu	0.931620	-0.102541	0.147563
Cu16	Cu	1.431620	0.397459	0.647563
Cu17	Cu	0.931640	-0.102550	-0.015037
Cu18	Cu	1.431640	0.397450	0.484963
O19	O	0.925133	-0.212727	0.134540
O20	O	1.425133	0.287273	0.634540
C21	C	0.787400	-0.108231	0.056003
C22	C	1.287400	0.391769	0.556003
C23	C	0.699834	-0.106835	0.049774
C24	C	1.199834	0.393165	0.549774
N25	N	0.931612	-0.102534	0.261927
N26	N	1.431612	0.397466	0.761927
C27	C	0.937654	0.035837	0.066699
C28	C	1.437654	0.535837	0.566699
C29	C	0.936259	0.119856	0.066600
C30	C	1.436259	0.619856	0.566600
C31	C	0.204581	-0.098915	0.010729
C32	C	0.704581	0.401085	0.510729
C33	C	0.286859	-0.100227	0.016593
C34	C	0.786859	0.399773	0.516593
C35	C	0.327980	-0.100884	0.094473
C36	C	0.827980	0.399116	0.594473
C37	C	0.286820	-0.100222	0.166493
C38	C	0.786820	0.399778	0.666493
C39	C	0.204545	-0.098905	0.160628
C40	C	0.704545	0.401095	0.660628
C41	C	0.576399	-0.104856	0.115930
C42	C	1.076399	0.395144	0.615930
C43	C	0.658679	-0.106175	0.121789
C44	C	1.158679	0.393825	0.621789
C45	C	0.658713	-0.106179	-0.028112
C46	C	1.158713	0.393821	0.471888
C47	C	0.576435	-0.104866	-0.033970
C48	C	1.076435	0.395134	0.466030
C49	C	0.535283	-0.104200	0.038051
C50	C	1.035283	0.395800	0.538051
C51	C	0.412081	-0.102227	0.100468
C52	C	0.912081	0.397773	0.600468
C53	C	0.451185	-0.102852	0.032054
C54	C	0.951185	0.397148	0.532054
C55	C	1.075861	-0.096860	0.076521
C56	C	1.575861	0.403140	0.576521
C57	C	1.163427	-0.098256	0.082744
C58	C	1.663427	0.401744	0.582744
C59	C	0.925606	-0.240928	0.065825
C60	C	1.425606	0.259072	0.565825
C61	C	0.927001	-0.324947	0.065918
C62	C	1.427001	0.175053	0.565918
C63	C	1.007478	0.168430	0.071667
C64	C	1.507478	0.668430	0.571667
C65	C	1.006163	0.247374	0.071566
C66	C	1.506163	0.747374	0.571566
C67	C	0.933627	0.277743	0.066404
C68	C	1.433627	0.777743	0.566404
C69	C	0.862403	0.229162	0.061333
C70	C	1.362403	0.729162	0.561333
C71	C	0.863719	0.150220	0.061429
C72	C	1.363719	0.650220	0.561429
C73	C	0.857092	0.547529	0.060949
C74	C	1.357092	1.047529	0.560949
C75	C	0.855781	0.626478	0.060857
C76	C	1.355781	1.126478	0.560857
C77	C	0.999536	0.644684	0.071087
C78	C	1.499536	1.144684	0.571087
C79	C	1.000852	0.565741	0.071182
C80	C	1.500852	1.065741	0.571182
C81	C	0.929628	0.517167	0.066107
C82	C	1.429628	1.017167	0.566107
C83	C	0.931056	0.431567	0.066215
C84	C	1.431056	0.931567	0.566215
C85	C	0.932199	0.363341	0.066302
C86	C	1.432199	0.863341	0.566302
N87	N	0.931655	-0.102550	-0.129402
N88	N	1.431655	0.397450	0.370598
C89	C	0.985354	-0.051042	0.309018
C90	C	1.485354	0.448958	0.809018
C91	C	0.985358	-0.051041	0.395565
C92	C	1.485358	0.448959	0.895565
C93	C	0.931624	-0.102537	0.435021
C94	C	1.431624	0.397463	0.935021
C95	C	0.877876	-0.154032	0.387924
C96	C	1.377876	0.345968	0.887924
C97	C	0.877869	-0.154029	0.301378
C98	C	1.377869	0.345971	0.801378
C99	C	0.877903	-0.154046	0.736954
C100	C	1.377903	0.345954	1.236954
C101	C	0.877916	-0.154047	0.823507
C102	C	1.377916	0.345953	1.323507
C103	C	0.985392	-0.051059	0.831141
C104	C	1.485392	0.448941	1.331141
C105	C	0.985385	-0.051055	0.744595
C106	C	1.485385	0.448945	1.244595
C107	C	0.931635	-0.102547	0.697506
C108	C	1.431635	0.397453	1.197506
C109	C	0.931631	-0.102546	0.603661
C110	C	1.431631	0.397454	1.103661
C111	C	0.931631	-0.102542	0.528864
C112	C	1.431631	0.397458	1.028864
H113	H	0.171106	-0.098385	-0.052689
H114	H	0.671106	0.401615	0.447311
H115	H	0.799097	0.507989	0.056817
H116	H	1.299097	1.007989	0.556817
C117	C	0.703988	-0.106902	-0.107329
C118	C	1.203988	0.393098	0.392671
N119	N	0.738090	-0.107442	-0.166998
N120	N	1.238090	0.392558	0.333002
C121	C	0.332126	-0.100942	-0.062629
C122	C	0.832126	0.399058	0.437371
N123	N	0.366222	-0.101477	-0.122304
N124	N	0.866222	0.398523	0.377696
C125	C	0.531210	-0.104131	-0.119643
C126	C	1.031210	0.395869	0.380357
N127	N	0.497146	-0.103575	-0.184174
N128	N	0.997146	0.396425	0.315826
H129	H	0.692157	-0.106716	0.185211
H130	H	1.192157	0.393284	0.685211
H131	H	0.803343	0.253894	0.057125
H132	H	1.303343	0.753894	0.557125
C133	C	1.044512	0.005591	0.882947
C134	C	1.544512	0.505591	1.382947
N135	N	1.089040	0.048258	0.921966
N136	N	1.589040	0.548258	1.421966
H137	H	0.834156	-0.195983	0.855629
H138	H	1.334156	0.304017	1.355629
C139	C	0.531139	-0.104146	0.195155
C140	C	1.031139	0.395854	0.695155
N141	N	0.497045	-0.103620	0.254831
N142	N	0.997045	0.396380	0.754831
H143	H	0.320308	-0.100753	0.229904
H144	H	0.820308	0.399247	0.729904
H145	H	1.059918	0.541020	0.075390
H146	H	1.559918	1.041020	0.575390
H147	H	1.064157	0.286921	0.075694
H148	H	1.564157	0.786921	0.575694
C149	C	1.077885	0.698122	0.076660
C150	C	1.577885	1.198122	0.576660
N151	N	1.136896	0.738370	0.080859
N152	N	1.636896	1.238370	0.580859
C153	C	1.044460	0.005623	0.447360
C154	C	1.544460	0.505623	0.947360
N155	N	1.088970	0.048312	0.486370
N156	N	1.588970	0.548312	0.986370
C157	C	1.087275	0.135033	0.077346
C158	C	1.587275	0.635033	0.577346
N159	N	1.147379	0.109881	0.081621
N160	N	1.647379	0.609881	0.581621
H161	H	0.417701	-0.102313	-0.031355
H162	H	0.917701	0.397687	0.468645
H163	H	0.834139	-0.195974	0.698621
H164	H	1.334139	0.304026	1.198621
H165	H	0.171037	-0.098376	0.219271
H166	H	0.671037	0.401624	0.719271
H167	H	1.029143	-0.009125	0.712474
H168	H	1.529143	0.490875	1.212474
H169	H	0.834120	-0.195958	0.420053
H170	H	1.334120	0.304042	0.920053
C171	C	0.775983	0.659880	0.055171
C172	C	1.275983	1.159880	0.555171
N173	N	0.715882	0.685039	0.050887
N174	N	1.215882	1.185039	0.550887
H175	H	0.834106	-0.195958	0.263037
H176	H	1.334106	0.304042	0.763037
C177	C	0.785372	0.096787	0.055856
C178	C	1.285372	0.596787	0.555856
N179	N	0.726359	0.056543	0.051656
N180	N	1.226359	0.556543	0.551656
C181	C	1.044467	0.005609	0.265625
C182	C	1.544467	0.505609	0.765625
N183	N	1.088991	0.048283	0.232944
N184	N	1.588991	0.548283	0.732944
H185	H	0.445570	-0.102764	0.163878
H186	H	0.945570	0.397236	0.663878
