data_functionalizedCrystal
_audit_creation_method	'MofGen! by Chris Wilmer'
_symmetry_space_group_name_H-M	'P1'
_symmetry_Int_Tables_number	1
_symmetry_cell_setting	triclinic
loop_
_symmetry_equiv_pos_as_xyz
  x,y,z
_cell_length_a	15.944499
_cell_length_b	15.944493
_cell_length_c	14.421503
_cell_angle_alpha	90.010165
_cell_angle_beta	89.989779
_cell_angle_gamma	83.476327
loop_
_atom_site_label
_atom_site_type_symbol
_atom_site_fract_x
_atom_site_fract_y
_atom_site_fract_z
O1	O	1.114534	0.108117	-0.077155
O2	O	0.869975	0.121519	-0.077143
O3	O	0.998958	-0.007462	-0.077157
O4	O	0.985551	0.237097	-0.077141
O5	O	0.998937	-0.007443	0.077066
O6	O	0.869954	0.121538	0.077080
O7	O	1.114512	0.108136	0.077068
Cu8	Cu	0.992231	0.114839	0.091156
Cu9	Cu	0.992257	0.114816	-0.091231
O10	O	0.985530	0.237116	0.077082
C11	C	0.838670	0.120979	-0.000030
C12	C	0.745422	0.119334	-0.000026
C13	C	0.453871	0.194269	-0.000035
C14	C	0.514918	0.155307	-0.076080
C15	C	0.409787	0.113358	-0.000048
C16	C	0.514883	0.155304	0.075973
C17	C	0.574695	0.116299	-0.000036
C18	C	0.469607	0.074373	-0.076155
C19	C	0.469565	0.074382	0.075965
C20	C	0.530595	0.035361	-0.000098
C21	C	0.314787	0.111666	-0.000056
C22	C	0.669694	0.117984	-0.000035
C23	C	0.998400	-0.038747	-0.000049
C24	C	0.996757	-0.131995	-0.000061
C25	C	1.072679	-0.367769	-0.000047
C26	C	1.031748	-0.418339	-0.076085
C27	C	0.993713	-0.302716	-0.000050
C28	C	1.031708	-0.418296	0.075967
C29	C	0.990778	-0.467625	-0.000034
C30	C	0.952802	-0.352057	-0.076150
C31	C	0.952775	-0.352011	0.075971
C32	C	0.911785	-0.402548	-0.000086
C33	C	0.995405	-0.207716	-0.000059
C34	C	0.989079	-0.562622	-0.000031
C35	C	1.145818	0.108675	-0.000047
C36	C	1.239066	0.110320	-0.000057
C37	C	0.986088	0.268401	-0.000027
C38	C	0.987731	0.361650	-0.000022
N39	N	0.992220	0.114854	0.219437
N40	N	0.992275	0.114794	-0.219512
C41	C	0.932567	0.174468	0.469098
C42	C	1.008466	0.190761	0.530898
C43	C	0.992240	0.114834	0.408599
C44	C	0.916361	0.098560	0.530892
C45	C	0.992253	0.114816	0.591320
C46	C	1.068177	0.131165	0.469038
C47	C	0.976022	0.038931	0.469027
C48	C	1.051976	0.055192	0.530800
C49	C	0.992231	0.114846	0.303338
C50	C	0.992270	0.114804	0.696579
H51	H	0.420527	0.261416	-0.000104
O52	O	1.144676	0.147753	0.436614
C53	C	1.143731	0.147606	0.338854
H54	H	1.075859	0.160763	0.313298
H55	H	1.182087	0.198606	0.311880
H56	H	1.172484	0.083334	0.312334
H57	H	0.449644	0.040175	-0.140517
H58	H	0.563787	-0.031847	-0.000143
H59	H	0.919482	-0.323239	-0.140503
O60	O	0.830565	-0.420950	-0.000290
C61	C	0.789256	-0.386881	-0.080553
H62	H	0.838040	-0.377681	-0.136340
H63	H	0.744110	-0.431992	-0.107088
H64	H	0.752216	-0.323424	-0.063136
O65	O	1.024964	0.267324	0.563222
C66	C	1.104396	0.284938	0.530378
H67	H	1.121147	0.246726	0.464804
H68	H	1.101934	0.355133	0.514073
H69	H	1.154338	0.267198	0.585698
O70	O	1.071375	-0.452887	0.152687
C71	C	1.013983	-0.493960	0.205748
H72	H	0.960657	-0.511088	0.159277
H73	H	1.048134	-0.553865	0.237428
H74	H	0.986752	-0.450143	0.263444
O75	O	1.112309	-0.004996	0.562771
C76	C	1.154861	-0.046590	0.487112
H77	H	1.147997	-0.003906	0.423519
H78	H	1.224601	-0.061938	0.504782
H79	H	1.126394	-0.107560	0.471855
H80	H	0.919446	-0.323036	0.140261
H81	H	0.962269	-0.025230	0.441830
H82	H	0.882156	0.224938	0.442005
H83	H	0.449446	0.040196	0.140252
H84	H	1.065105	-0.447299	-0.140373
O85	O	0.839733	0.082241	0.563193
C86	C	0.777013	0.145291	0.531772
H87	H	0.800197	0.176063	0.466690
H88	H	0.716980	0.115677	0.515117
H89	H	0.763144	0.195115	0.588101
H90	H	0.535018	0.189523	-0.140361
H91	H	1.140699	-0.352153	-0.000127
O92	O	0.538701	0.196263	0.152643
C93	C	0.499259	0.280015	0.152345
H94	H	0.439864	0.284026	0.107829
H95	H	0.481530	0.300156	0.226297
H96	H	0.544488	0.323586	0.122670
