data_functionalizedCrystal
_audit_creation_method	'MofGen! by Chris Wilmer'
_symmetry_space_group_name_H-M	'P1'
_symmetry_Int_Tables_number	1
_symmetry_cell_setting	triclinic
loop_
_symmetry_equiv_pos_as_xyz
  x,y,z
_cell_length_a	15.297475
_cell_length_b	17.637651
_cell_length_c	15.299447
_cell_angle_alpha	71.438950
_cell_angle_beta	69.207769
_cell_angle_gamma	89.678268
loop_
_atom_site_label
_atom_site_type_symbol
_atom_site_fract_x
_atom_site_fract_y
_atom_site_fract_z
Zn1	Zn	1.393581	-0.427507	-0.652138
Zn2	Zn	1.324229	-0.579217	-0.454246
Zn3	Zn	1.211140	-0.427489	-0.469771
Zn4	Zn	1.206603	-0.540135	-0.593771
O5	O	1.283888	-0.493587	-0.542482
O6	O	1.509960	-0.463995	-0.643817
O7	O	1.282102	-0.575439	-0.321593
O8	O	1.266264	-0.316857	-0.524886
O9	O	1.459008	-0.575456	-0.498427
O10	O	1.400302	-0.316870	-0.658871
O11	O	1.199016	-0.463965	-0.332999
O12	O	1.084959	-0.426068	-0.468290
O13	O	1.258531	-0.508846	-0.736226
O14	O	1.081625	-0.508829	-0.559392
O15	O	1.395903	-0.426098	-0.779109
O16	O	1.277703	-0.684667	-0.441831
O17	O	1.191283	-0.655953	-0.544339
C18	C	1.050731	-0.463206	-0.509192
C19	C	0.950984	-0.450225	-0.494969
C20	C	1.226504	-0.698997	-0.485091
C21	C	1.202043	-0.786879	-0.460583
C22	C	0.662807	-0.586368	-0.644142
C23	C	0.756521	-0.598570	-0.657501
C24	C	0.805142	-0.561485	-0.616870
C25	C	0.760038	-0.512195	-0.562875
C26	C	0.666312	-0.499997	-0.549508
C27	C	0.808647	-0.475114	-0.522236
C28	C	0.763544	-0.425825	-0.468242
C29	C	0.669827	-0.413628	-0.454877
C30	C	0.621207	-0.450713	-0.495509
C31	C	0.902373	-0.487312	-0.535603
C32	C	0.905879	-0.400942	-0.440970
C33	C	0.812164	-0.388740	-0.427610
C34	C	1.470357	-1.075582	-0.729054
C35	C	1.447341	-1.158158	-0.706004
C36	C	1.307819	-1.158277	-0.566378
C37	C	1.330826	-1.075699	-0.589413
C38	C	1.412096	-1.034358	-0.670753
C39	C	1.272565	-1.034475	-0.531112
C40	C	1.295568	-0.951904	-0.554149
C41	C	1.376832	-0.910556	-0.635487
C42	C	1.435099	-0.951787	-0.693790
C43	C	1.191292	-1.075817	-0.449777
C44	C	1.133031	-1.034593	-0.391476
C45	C	1.156037	-0.952021	-0.414509
C46	C	1.237301	-0.910674	-0.495846
C47	C	1.097770	-0.910791	-0.356206
C48	C	1.120773	-0.828220	-0.379243
C49	C	1.260304	-0.828102	-0.518883
C50	C	1.517956	-0.524087	-0.575901
C51	C	1.617701	-0.537084	-0.590143
C52	C	1.334447	-0.463115	-0.793574
C53	C	1.355992	-0.450129	-0.900574
C54	C	1.341525	-0.287376	-0.600121
C55	C	1.366087	-0.199501	-0.624684
C56	C	1.130636	-0.585856	-1.112884
C57	C	1.110386	-0.598052	-1.012352
C58	C	1.171786	-0.561072	-0.984402
C59	C	1.253439	-0.511895	-1.056995
C60	C	1.273688	-0.499694	-1.157538
C61	C	1.314837	-0.474910	-1.029056
C62	C	1.396491	-0.425732	-1.101649
C63	C	1.416736	-0.413534	-1.202181
C64	C	1.355336	-0.450513	-1.230131
C65	C	1.294589	-0.487111	-0.928513
C66	C	1.437640	-0.400948	-0.973167
C67	C	1.457890	-0.388753	-1.073699
C68	C	1.233593	-0.523890	-0.292390
C69	C	1.212284	-0.536676	-0.185477
H70	H	0.939088	-0.527444	-0.579567
Br71	Br	1.022733	-1.090703	-0.281099
H72	H	1.524373	-0.348712	-1.132818
Br73	Br	1.520976	-0.350762	-0.935245
H74	H	0.544897	-0.440779	-0.484637
H75	H	0.633102	-0.373503	-0.410899
H76	H	0.775427	-0.348608	-0.383647
H77	H	0.793237	-0.638703	-0.701461
H78	H	1.043909	-0.638099	-0.953252
Br79	Br	1.580664	-1.019472	-0.839432
H80	H	0.623209	-0.616562	-0.677211
Br81	Br	0.971852	-0.350616	-0.385814
H82	H	1.371822	-0.440589	-1.311990
Br83	Br	1.041705	-0.772268	-0.300119
H84	H	1.031596	-0.944462	-0.289985
Br85	Br	1.526423	-1.214105	-0.785132
H86	H	1.080651	-0.615956	-1.135652
Br87	Br	1.527562	-0.346808	-1.300698
H88	H	0.881448	-0.571422	-0.627751
Br89	Br	1.160189	-1.187918	-0.418375
H90	H	1.326488	-0.794443	-0.585113
Br91	Br	1.183776	-0.553848	-0.830007
H92	H	1.395560	-0.843322	-0.654242
H93	H	1.155293	-0.571006	-0.902543
Br94	Br	1.545406	-0.895676	-0.804168
H95	H	1.241647	-1.191947	-0.500153
