data_functionalizedCrystal
_audit_creation_method	'MofGen! by Chris Wilmer'
_symmetry_space_group_name_H-M	'P1'
_symmetry_Int_Tables_number	1
_symmetry_cell_setting	triclinic
loop_
_symmetry_equiv_pos_as_xyz
  x,y,z
_cell_length_a	16.109295
_cell_length_b	14.185569
_cell_length_c	16.109301
_cell_angle_alpha	76.847584
_cell_angle_beta	83.460334
_cell_angle_gamma	103.153123
loop_
_atom_site_label
_atom_site_type_symbol
_atom_site_fract_x
_atom_site_fract_y
_atom_site_fract_z
O1	O	-1.084284	0.083355	-0.125686
O2	O	-0.842218	0.083372	-0.138994
O3	O	-0.969903	0.083353	-0.011307
O4	O	-0.956599	0.083374	-0.253374
O5	O	-1.007623	-0.083487	0.026409
O6	O	-0.879937	-0.083468	-0.101278
O7	O	-1.122004	-0.083485	-0.087970
Cu8	Cu	-1.004414	-0.098710	-0.091181
Cu9	Cu	-0.959807	0.098598	-0.135784
O10	O	-0.994318	-0.083466	-0.215658
C11	C	-0.830102	-0.000046	-0.119599
C12	C	-0.737805	-0.000039	-0.117987
C13	C	-0.515533	-0.000044	-0.189998
C14	C	-0.428814	-0.000050	-0.188474
C15	C	-0.448690	-0.000059	-0.036983
C16	C	-0.535409	-0.000060	-0.038506
C17	C	-0.568827	-0.000047	-0.115017
C18	C	-0.395389	-0.000052	-0.111970
C19	C	-0.301364	-0.000059	-0.110318
C20	C	-0.662858	-0.000042	-0.116670
N21	N	-1.035795	-0.237486	-0.059808
C22	C	-0.836237	-0.605106	-0.259285
C23	C	-0.860013	-0.710131	-0.235527
C24	C	-0.973101	-0.710109	-0.122501
C25	C	-0.949332	-0.605082	-0.146248
C26	C	-0.880900	-0.552589	-0.214641
C27	C	-0.993995	-0.552565	-0.101603
C28	C	-0.970230	-0.447546	-0.125351
C29	C	-0.901802	-0.395046	-0.193743
C30	C	-0.857135	-0.447570	-0.238388
C31	C	-1.062430	-0.605060	-0.033214
C32	C	-1.107093	-0.552543	0.011430
C33	C	-1.083325	-0.447523	-0.012313
C34	C	-1.014897	-0.395022	-0.080705
C35	C	-1.127992	-0.394998	0.032332
C36	C	-1.104227	-0.289980	0.008585
C37	C	-0.991132	-0.290004	-0.104453
C38	C	-0.134118	-0.000064	-0.107372
C39	C	-0.226411	-0.000060	-0.109001
C40	C	-0.988224	-0.000068	0.038526
C41	C	-0.986609	-0.000069	0.130822
N42	N	-0.928433	0.237373	-0.167150
C43	C	-0.975997	-0.000043	-0.265491
C44	C	-0.977610	-0.000035	-0.357788
C45	C	-1.058615	-0.000058	0.353093
C46	C	-1.057089	-0.000050	0.439812
C47	C	-0.905598	-0.000043	0.419933
C48	C	-0.907123	-0.000044	0.333214
C49	C	-0.983635	-0.000057	0.299798
C50	C	-0.980584	-0.000047	0.473235
C51	C	-0.978929	-0.000038	0.567259
C52	C	-0.985290	-0.000064	0.205768
H53	H	-0.385425	-0.000049	-0.249531
H54	H	-0.421472	-0.000076	0.025311
H55	H	-1.118144	-0.000049	0.483201
H56	H	-0.578805	-0.000066	0.022557
C57	C	-1.279239	-0.427298	0.088425
C58	C	-1.203211	-0.452703	0.107509
H59	H	-1.325675	-0.462926	0.134837
H60	H	-1.271471	-0.357245	0.080677
H61	H	-1.292140	-0.444510	0.036825
H62	H	-1.190306	-0.435484	0.159107
H63	H	-1.210979	-0.522772	0.115268
C64	C	-0.842196	-0.000032	0.191450
C65	C	-0.824699	-0.000038	0.274623
H66	H	-0.791310	-0.000019	0.155277
H67	H	-0.886714	-0.058213	0.194481
H68	H	-0.860416	0.058150	0.168178
H69	H	-0.806484	-0.058224	0.297897
H70	H	-0.780166	0.058148	0.271594
H71	H	-0.542740	-0.000041	-0.252297
C72	C	-0.835997	-0.000051	0.544043
C73	C	-0.821502	-0.000044	0.456671
H74	H	-0.784080	-0.000060	0.566722
H75	H	-0.853706	0.058127	0.549179
H76	H	-0.880028	-0.058236	0.575485
H77	H	-0.777475	0.058145	0.425227
H78	H	-0.803782	-0.058227	0.451528
H79	H	-0.935402	-0.247261	-0.160139
H80	H	-0.882456	-0.309533	-0.213080
H81	H	-1.120915	-0.000066	0.325889
H82	H	-0.801405	-0.404828	-0.294075
H83	H	-0.780507	-0.562364	-0.314972
H84	H	-0.823637	-0.752886	-0.271889
H85	H	-1.081780	-0.690572	-0.013884
H86	H	-1.162814	-0.595295	0.067115
H87	H	-1.140598	-0.247220	0.044939
C88	C	-1.029262	-0.742436	0.028728
C89	C	-1.048312	-0.767818	-0.047318
H90	H	-1.075696	-0.778059	0.075144
H91	H	-0.977681	-0.759661	0.041652
H92	H	-1.021505	-0.672373	0.020965
H93	H	-1.056063	-0.837880	-0.039557
H94	H	-1.099909	-0.750600	-0.060243
