data_functionalizedCrystal
_audit_creation_method	'MofGen! by Chris Wilmer'
_symmetry_space_group_name_H-M	'P1'
_symmetry_Int_Tables_number	1
_symmetry_cell_setting	triclinic
loop_
_symmetry_equiv_pos_as_xyz
  x,y,z
_cell_length_a	14.853567
_cell_length_b	14.853559
_cell_length_c	16.776229
_cell_angle_alpha	89.995543
_cell_angle_beta	89.995834
_cell_angle_gamma	83.633192
loop_
_atom_site_label
_atom_site_type_symbol
_atom_site_fract_x
_atom_site_fract_y
_atom_site_fract_z
O1	O	1.196364	0.117707	-0.066229
O2	O	0.933904	0.131728	-0.066242
O3	O	1.072149	-0.006513	-0.066235
O4	O	1.058120	0.255948	-0.066237
O5	O	1.072131	-0.006521	0.066342
O6	O	0.933886	0.131720	0.066334
O7	O	1.196346	0.117698	0.066347
Zn8	Zn	1.065113	0.124708	0.087390
Zn9	Zn	1.065137	0.124719	-0.087285
O10	O	1.058101	0.255939	0.066339
C11	C	0.900307	0.131089	0.000044
C12	C	0.800223	0.129185	0.000039
C13	C	0.387692	0.039019	0.000058
C14	C	0.366406	0.203252	0.000055
C15	C	0.460440	0.205042	0.000053
C16	C	0.518104	0.123819	0.000051
C17	C	0.481735	0.040806	0.000053
C18	C	0.496816	0.288054	0.000043
C19	C	0.590855	0.289847	0.000040
C20	C	0.648521	0.208623	0.000044
C21	C	0.612147	0.125607	0.000046
C22	C	0.669811	0.044384	0.000045
C23	C	0.633438	-0.038633	0.000053
C24	C	0.539401	-0.040418	0.000057
C25	C	0.742559	0.210408	0.000040
C26	C	0.763854	0.046172	0.000040
C27	C	1.071506	-0.040106	0.000052
C28	C	1.069605	-0.140190	0.000048
C29	C	1.061551	-0.563360	-0.072220
C30	C	1.061531	-0.563364	0.072320
C31	C	1.063324	-0.469331	0.072320
C32	C	1.064230	-0.422308	0.000050
C33	C	1.063342	-0.469318	-0.072222
C34	C	1.064203	-0.422313	0.144591
C35	C	1.065996	-0.328274	0.144594
C36	C	1.066908	-0.281250	0.072323
C37	C	1.066021	-0.328266	0.000048
C38	C	1.066926	-0.281242	-0.072223
C39	C	1.066046	-0.328258	-0.144498
C40	C	1.064254	-0.422294	-0.144494
C41	C	1.068699	-0.187213	0.072318
C42	C	1.068717	-0.187200	-0.072224
C43	C	1.229944	0.118338	0.000059
C44	C	1.330027	0.120242	0.000059
C45	C	1.058745	0.289532	0.000051
C46	C	1.060646	0.389616	0.000050
N47	N	1.065103	0.124699	0.206601
N48	N	1.065154	0.124720	-0.206496
C49	C	1.126337	0.063511	0.248322
C50	C	1.126342	0.063511	0.331774
C51	C	1.065117	0.124703	0.373504
C52	C	1.003877	0.185894	0.331778
C53	C	1.003868	0.185889	0.248327
C54	C	1.003909	0.185912	0.668325
C55	C	1.003925	0.185913	0.751781
C56	C	1.126383	0.063533	0.751772
C57	C	1.126374	0.063528	0.668321
C58	C	1.065132	0.124716	0.626602
C59	C	1.065126	0.124715	0.536114
C60	C	1.065126	0.124709	0.463991
H61	H	0.810799	-0.019971	0.000042
H62	H	0.954005	0.235714	0.214359
H63	H	1.066716	-0.290002	0.203445
F64	F	0.938734	0.251033	0.623931
H65	H	0.319450	0.269380	0.000050
F66	F	0.435442	0.374490	0.000033
F67	F	0.348982	-0.049330	0.000070
H68	H	0.680401	-0.104765	0.000046
F69	F	1.069687	-0.137163	-0.149146
F70	F	1.191540	-0.001597	0.623912
H71	H	0.509777	-0.108006	0.000082
H72	H	0.620461	0.357445	0.000034
H73	H	0.772169	0.277999	0.000035
H74	H	1.066776	-0.289958	-0.203341
F75	F	1.063320	-0.472337	-0.221407
F76	F	1.060554	-0.613410	0.149230
F77	F	1.060622	-0.613398	-0.149137
F78	F	1.063222	-0.472360	0.221500
H79	H	1.069396	-0.148935	0.131164
H80	H	1.176197	0.013686	0.214351
F81	F	0.938757	0.251044	0.796192
H82	H	1.176202	0.013686	0.365742
H83	H	1.176247	0.013708	0.785748
F84	F	0.938711	0.251016	0.376191
