data_functionalizedCrystal
_audit_creation_method	'MofGen! by Chris Wilmer'
_symmetry_space_group_name_H-M	'P1'
_symmetry_Int_Tables_number	1
_symmetry_cell_setting	triclinic
loop_
_symmetry_equiv_pos_as_xyz
  x,y,z
_cell_length_a	16.956995
_cell_length_b	16.992695
_cell_length_c	16.776229
_cell_angle_alpha	89.993259
_cell_angle_beta	89.989553
_cell_angle_gamma	83.361347
loop_
_atom_site_label
_atom_site_type_symbol
_atom_site_fract_x
_atom_site_fract_y
_atom_site_fract_z
O1	O	1.060102	0.032365	-0.066343
O2	O	0.829692	0.059779	-0.066333
O3	O	0.943973	-0.068011	-0.066332
O4	O	0.945821	0.160155	-0.066345
O5	O	0.943957	-0.068017	0.066245
O6	O	0.829675	0.059772	0.066243
O7	O	1.060086	0.032359	0.066233
Zn8	Zn	0.944878	0.046065	0.087288
Zn9	Zn	0.944900	0.046073	-0.087388
O10	O	0.945804	0.160148	0.066232
C11	C	0.800065	0.061179	-0.000044
C12	C	0.711811	0.065352	-0.000040
C13	C	0.214500	0.096570	-0.000071
C14	C	0.297425	0.092643	-0.000070
C15	C	0.343815	0.018931	-0.000060
C16	C	0.307278	-0.050860	-0.000059
C17	C	0.224354	-0.046932	-0.000065
C18	C	0.592349	-0.000510	-0.000045
C19	C	0.675278	-0.004433	-0.000036
C20	C	0.665419	0.139071	-0.000049
C21	C	0.582495	0.142992	-0.000051
C22	C	0.545964	0.073202	-0.000054
N23	N	0.428578	0.014915	-0.000057
N24	N	0.461203	0.077218	-0.000063
C25	C	0.941589	-0.097073	-0.000044
C26	C	0.934498	-0.183657	-0.000044
C27	C	1.002913	-0.238332	-0.000046
C28	C	0.996246	-0.319686	-0.000053
C29	C	0.921163	-0.346365	-0.000052
C30	C	0.852743	-0.291683	-0.000053
C31	C	0.859411	-0.210331	-0.000051
C32	C	0.893527	-0.588171	-0.000062
C33	C	0.886865	-0.669531	-0.000061
C34	C	1.030368	-0.697528	-0.000063
C35	C	1.037029	-0.616172	-0.000057
C36	C	0.968609	-0.561498	-0.000061
N37	N	0.914346	-0.429522	-0.000057
N38	N	0.975427	-0.478343	-0.000062
C39	C	1.089713	0.030958	-0.000058
C40	C	1.177967	0.026785	-0.000067
C41	C	0.948189	0.189210	-0.000058
C42	C	0.955280	0.275795	-0.000064
N43	N	0.944869	0.046058	0.206499
N44	N	0.944915	0.046073	-0.206599
C45	C	0.995490	-0.010507	0.248216
C46	C	0.995495	-0.010507	0.331669
C47	C	0.944881	0.046060	0.373402
C48	C	0.894254	0.102628	0.331678
C49	C	0.894246	0.102624	0.248227
C50	C	0.894283	0.102641	0.668225
C51	C	0.894297	0.102641	0.751682
C52	C	0.995532	-0.010491	0.751667
C53	C	0.995524	-0.010494	0.668216
C54	C	0.944894	0.046070	0.626500
C55	C	0.944889	0.046070	0.536011
C56	C	0.944889	0.046065	0.463888
H57	H	0.695172	0.195890	-0.000048
C58	C	0.839209	0.164082	0.376842
C59	C	0.794858	0.213604	0.322442
C60	C	0.744134	0.270220	0.364015
H61	H	0.869756	0.194839	0.409386
H62	H	0.804327	0.138135	0.409392
H63	H	0.829736	0.239550	0.289906
H64	H	0.764295	0.182871	0.289896
H65	H	0.709252	0.244272	0.396566
H66	H	0.774687	0.300970	0.396558
H67	H	0.714030	0.303822	0.327112
C68	C	0.785065	-0.151054	-0.000172
C69	C	0.740157	-0.162403	-0.068370
C70	C	0.671658	-0.107820	-0.068508
H71	H	0.799678	-0.098749	-0.000215
H72	H	0.754438	-0.158645	0.046036
H73	H	0.770778	-0.154806	-0.114566
H74	H	0.725524	-0.214697	-0.068341
H75	H	0.641032	-0.115411	-0.022299
H76	H	0.686279	-0.055519	-0.068548
H77	H	0.641176	-0.115518	-0.114775
H78	H	1.036742	-0.056554	0.634239
C79	C	1.050628	-0.071835	0.796916
C80	C	1.129467	-0.064169	0.776609
C81	C	1.180243	-0.120657	0.818281
H82	H	1.038789	-0.123437	0.783279
H83	H	1.043439	-0.063739	0.852601
H84	H	1.136653	-0.072271	0.720936
H85	H	1.141331	-0.012579	0.790248
H86	H	1.173054	-0.112561	0.873967
H87	H	1.168396	-0.172255	0.804641
H88	H	1.233741	-0.115459	0.804515
H89	H	0.345056	-0.110878	-0.000055
H90	H	1.086071	-0.742052	-0.000061
H91	H	0.825720	-0.691248	-0.000048
C92	C	0.839416	0.164070	0.202828
C93	C	0.884753	0.209140	0.154882
C94	C	0.834266	0.265743	0.113042
H95	H	0.809255	0.197839	0.239541
H96	H	0.804581	0.138119	0.170244
H97	H	0.919574	0.235090	0.187464
H98	H	0.914911	0.175393	0.118154
H99	H	0.799431	0.239792	0.080457
H100	H	0.804109	0.299507	0.149761
H101	H	0.865019	0.296326	0.080500
H102	H	0.562616	-0.057338	-0.000045
H103	H	0.194611	-0.103758	-0.000064
H104	H	0.791609	-0.313411	-0.000057
C105	C	0.164273	0.176680	-0.000124
C106	C	0.214020	0.236953	-0.000150
C107	C	0.167783	0.310761	-0.000213
H108	H	0.131697	0.181311	0.046092
H109	H	0.131747	0.181234	-0.046378
H110	H	0.246533	0.232400	0.046100
H111	H	0.246597	0.232347	-0.046363
H112	H	0.135256	0.315316	-0.046467
H113	H	0.135208	0.315384	0.046004
H114	H	0.201529	0.351665	-0.000238
H115	H	0.853078	0.148707	0.785660
H116	H	1.064053	-0.216618	-0.000041
H117	H	1.036714	-0.056567	0.365635
C118	C	1.070595	-0.378956	-0.000175
C119	C	1.115528	-0.367586	-0.068369
C120	C	1.184033	-0.422162	-0.068504
H121	H	1.055989	-0.431263	-0.000220
H122	H	1.101202	-0.371371	0.046036
H123	H	1.084928	-0.375177	-0.114568
H124	H	1.130155	-0.315290	-0.068339
H125	H	1.214640	-0.414577	-0.022293
H126	H	1.169419	-0.474466	-0.068547
H127	H	1.214532	-0.414450	-0.114769
C128	C	0.337120	0.168392	-0.000257
C129	C	0.384424	0.170335	-0.068483
C130	C	0.420988	0.240114	-0.068698
H131	H	0.369319	0.169936	0.045916
H132	H	0.297629	0.212869	-0.000309
H133	H	0.423909	0.125870	-0.068423
H134	H	0.352243	0.168804	-0.114666
H135	H	0.381497	0.284591	-0.068750
H136	H	0.453184	0.241652	-0.022523
H137	H	0.453082	0.241444	-0.114992
H138	H	0.713048	-0.064462	-0.000032
C139	C	0.819150	-0.528943	-0.000014
C140	C	0.751972	-0.569723	0.000013
C141	C	0.683439	-0.515183	0.000072
H142	H	0.818656	-0.496592	-0.046232
H143	H	0.818720	-0.496640	0.046239
H144	H	0.752402	-0.602011	-0.046234
H145	H	0.752441	-0.602069	0.046228
H146	H	0.683009	-0.482881	0.046324
H147	H	0.682953	-0.482836	-0.046147
H148	H	0.637851	-0.542845	0.000098
C149	C	1.050474	-0.072015	0.203054
C150	C	1.094791	-0.121565	0.257455
C151	C	1.145442	-0.178245	0.215884
H152	H	1.085387	-0.046146	0.170483
H153	H	1.019852	-0.102732	0.170531
H154	H	1.125410	-0.090851	0.289964
H155	H	1.059899	-0.147452	0.290028
H156	H	1.114820	-0.208962	0.183361
H157	H	1.180349	-0.152369	0.183313
H158	H	1.175511	-0.211876	0.252788
C159	C	0.839290	0.164146	0.623085
C160	C	0.794987	0.213699	0.677497
C161	C	0.744325	0.270376	0.635939
H162	H	0.804370	0.138276	0.590543
H163	H	0.869904	0.194862	0.590533
H164	H	0.764376	0.182987	0.710035
H165	H	0.829887	0.239588	0.710040
H166	H	0.774938	0.301092	0.603387
H167	H	0.709410	0.244499	0.603399
H168	H	0.714264	0.304009	0.672852
H169	H	1.098170	-0.594458	-0.000057
H170	H	0.544728	0.203017	-0.000061
