data_functionalizedCrystal
_audit_creation_method	'MofGen! by Chris Wilmer'
_symmetry_space_group_name_H-M	'P1'
_symmetry_Int_Tables_number	1
_symmetry_cell_setting	triclinic
loop_
_symmetry_equiv_pos_as_xyz
  x,y,z
_cell_length_a	14.628931
_cell_length_b	20.875859
_cell_length_c	20.875641
_cell_angle_alpha	60.668769
_cell_angle_beta	90.001412
_cell_angle_gamma	58.328082
loop_
_atom_site_label
_atom_site_type_symbol
_atom_site_fract_x
_atom_site_fract_y
_atom_site_fract_z
Zr1	Zr	0.832972	0.731292	-0.117774
O2	O	0.682739	0.864250	-0.223221
O3	O	0.885943	0.593053	-0.080573
O4	O	0.883420	0.723675	-0.216190
O5	O	0.679384	0.741477	0.013825
O6	O	1.033852	0.723675	-0.216190
O7	O	0.685262	0.733627	-0.087605
O8	O	1.038365	0.490015	0.026403
O9	O	0.674871	0.975137	-0.228767
O10	O	1.012443	0.651868	-0.070598
O11	O	0.895791	0.657727	0.005098
O12	O	0.892820	0.811518	-0.154573
O13	O	0.776168	0.817377	-0.078877
Zr14	Zr	1.063519	0.743811	0.043996
Zr15	Zr	1.072894	0.731292	-0.117774
Zr16	Zr	0.823597	0.743812	0.043995
Zr17	Zr	0.820423	0.908145	-0.126620
Zr18	Zr	1.076068	0.566959	0.052841
O19	O	1.010547	0.882051	0.006795
O20	O	1.023877	0.864249	-0.223221
O21	O	0.669409	0.882052	0.006794
O22	O	1.213751	0.610854	0.149442
O23	O	1.227081	0.593052	-0.080573
O24	O	0.872613	0.610854	0.149442
O25	O	1.217106	0.733626	-0.087604
O26	O	1.013070	0.751428	0.142411
O27	O	0.862638	0.751429	0.142411
O28	O	1.211228	0.741476	0.013826
O29	O	0.865577	0.975137	-0.228767
O30	O	1.030913	0.499966	0.154989
O31	O	1.221619	0.499966	0.154989
O32	O	1.229071	0.490014	0.026404
O33	O	0.667419	0.985089	-0.100182
O34	O	0.858125	0.985089	-0.100182
O35	O	1.003670	0.663585	0.080794
O36	O	1.120322	0.657727	0.005098
O37	O	1.000699	0.817377	-0.078877
O38	O	0.884047	0.823235	-0.003180
C39	C	0.648139	0.737552	-0.036890
C40	C	0.546286	0.737553	-0.036890
C41	C	0.963942	0.516336	-0.025825
C42	C	0.969269	0.441257	-0.022070
C43	C	1.008657	0.012390	0.005454
C44	C	1.003589	0.082963	0.001912
C45	C	0.917078	0.174991	-0.058791
C46	C	0.835638	0.196447	-0.115959
C47	C	0.840712	0.125874	-0.112420
C48	C	0.892903	0.392141	-0.075699
C49	C	0.887833	0.462714	-0.079233
C50	C	1.055786	0.349224	0.038638
C51	C	1.060849	0.278656	0.042175
C52	C	0.979412	0.300117	-0.014996
N53	N	0.911893	0.247129	-0.062411
N54	N	0.984602	0.227980	-0.011378
C55	C	0.560218	0.658355	0.004767
C56	C	0.454949	0.658354	0.004768
C57	C	1.248351	0.737551	-0.036889
C58	C	1.350204	0.737551	-0.036889
C59	C	0.959972	0.721891	-0.239238
C60	C	0.963952	0.716576	-0.307914
C61	C	0.932548	0.958768	-0.047954
C62	C	0.927221	1.033846	-0.051709
C63	C	0.903382	0.797413	-0.384012
C64	C	0.907136	0.792413	-0.448537
C65	C	0.971455	0.706576	-0.436962
C66	C	1.032032	0.625734	-0.360857
C67	C	1.028284	0.630734	-0.296333
C68	C	0.989367	0.682685	-0.625236
C69	C	0.993109	0.677691	-0.689767
C70	C	0.868214	0.844371	-0.777443
C71	C	0.864465	0.849364	-0.712914
C72	C	0.925048	0.768521	-0.636815
N73	N	0.975291	0.701464	-0.502916
N74	N	0.921217	0.773635	-0.570862
C75	C	0.936518	0.753212	0.165460
C76	C	0.932538	0.758527	0.234135
C77	C	1.264048	0.516335	-0.025824
C78	C	1.371228	0.441257	-0.022069
C79	C	0.952215	0.531996	0.176524
C80	C	0.953563	0.462233	0.248955
C81	C	1.252321	0.531996	0.176525
C82	C	1.355522	0.462232	0.248955
C83	C	0.644169	0.943108	-0.250303
C84	C	0.540969	1.012872	-0.322734
C85	C	0.632443	0.958768	-0.047954
C86	C	0.525262	1.033847	-0.051710
C87	C	0.944275	0.943107	-0.250303
C88	C	0.942928	1.012871	-0.322734
C89	C	1.365250	0.402940	-0.059825
C90	C	1.465949	0.332404	-0.056312
C91	C	1.572624	0.300181	-0.015038
C92	C	1.578600	0.338505	0.022719
C93	C	1.477902	0.409044	0.019201
C94	C	1.010507	0.432530	0.322489
C95	C	1.011767	0.366990	0.390551
C96	C	0.956090	0.331149	0.385078
C97	C	0.899139	0.360859	0.311536
C98	C	0.897872	0.426403	0.243475
C99	C	1.464887	0.426412	0.243457
C100	C	1.561864	0.360871	0.311507
C101	C	1.549473	0.331146	0.385054
C102	C	1.440096	0.366973	0.390551
C103	C	1.343121	0.432518	0.322502
C104	C	0.431603	1.048700	-0.317236
C105	C	0.334624	1.114263	-0.385287
C106	C	0.347015	1.143992	-0.458835
C107	C	0.456393	1.108160	-0.464331
C108	C	0.553368	1.042603	-0.396281
C109	C	0.531240	1.072170	-0.013961
C110	C	0.430541	1.142724	-0.017492
C111	C	0.323866	1.174949	-0.058769
C112	C	0.317890	1.136623	-0.096522
C113	C	0.418588	1.066075	-0.092995
C114	C	0.998616	1.048691	-0.317235
C115	C	0.997372	1.114232	-0.385285
C116	C	0.940432	1.143957	-0.458832
C117	C	0.884742	1.108130	-0.464329
C118	C	0.885994	1.042585	-0.396280
H119	H	1.079099	-0.062541	0.054888
O120	O	0.469747	1.140230	-0.543661
H121	H	0.520792	1.080509	-0.547269
H122	H	1.628445	0.277775	0.440458
H123	H	0.338442	0.805358	-0.072558
O124	O	0.957489	0.260440	0.458494
H125	H	0.916941	0.290151	0.491217
H126	H	1.654610	0.242743	-0.012179
H127	H	0.642417	1.013432	-0.400767
O128	O	0.839113	0.322176	0.305655
H129	H	0.746649	0.378946	0.271372
O130	O	1.484356	0.450356	0.059939
H131	H	1.575454	0.416085	0.089236
O132	O	1.070557	0.471183	0.328401
H133	H	1.110349	0.439517	0.390973
O134	O	0.646286	1.037439	0.030549
H135	H	0.654782	1.010017	0.092885
O136	O	0.679243	0.568536	0.052014
H137	H	0.693303	0.525315	0.031266
H138	H	0.268042	1.197373	-0.514239
H139	H	0.817360	0.537652	-0.128652
O140	O	1.679811	0.322268	0.305545
H141	H	1.723640	0.337969	0.332348
O142	O	1.057441	1.152866	-0.379346
H143	H	1.019461	1.187438	-0.349630
O144	O	0.470536	0.568532	0.052014
H145	H	0.385408	0.582626	0.044604
O146	O	1.093605	0.543548	-0.214252
H147	H	1.138950	0.483019	-0.217042
O148	O	1.693660	0.303739	0.067243
H149	H	1.762667	0.248244	0.063349
H150	H	1.430023	0.342761	0.450442
H151	H	0.765203	0.271383	-0.165388
H152	H	1.058148	0.342808	0.450425
H153	H	0.851506	0.450578	0.183604
H154	H	1.254074	0.461674	0.326990
O155	O	1.054692	0.595496	-0.543163
H156	H	1.100031	0.534971	-0.545958
H157	H	1.069906	0.065484	0.048459
H158	H	1.474998	0.450604	0.183577
O159	O	0.427259	0.827369	-0.084140
H160	H	0.378279	0.834533	-0.044429
H161	H	0.421492	1.024499	-0.257356
O162	O	0.825927	1.003952	-0.402214
H163	H	0.758598	1.019618	-0.375385
H164	H	0.435429	1.173918	0.013255
O165	O	1.060043	1.016637	-0.237916
H166	H	1.051561	0.965045	-0.191512
H167	H	0.245574	1.143426	-0.380796
O168	O	1.154177	0.179396	0.107633
H169	H	1.209967	0.176331	0.146781
O170	O	0.215258	1.251016	-0.062545
H171	H	0.237349	1.272232	-0.029344
H172	H	0.231021	1.162872	-0.130129
H173	H	0.413705	1.034874	-0.123733
O174	O	0.939071	1.214666	-0.532225
H175	H	1.028258	1.187595	-0.530819
H176	H	0.850999	0.867311	-0.393445
O177	O	0.823327	1.140180	-0.543650
H178	H	0.754844	1.215575	-0.578829
O179	O	1.143632	0.326085	0.100285
H180	H	1.099823	0.357794	0.131039
O181	O	0.805066	0.415288	-0.137354
H182	H	0.744052	0.491138	-0.180152
H183	H	0.774399	0.143351	-0.158970
H184	H	0.857816	0.858239	-0.510497
H185	H	0.812094	0.919261	-0.722347
O186	O	0.802896	0.931563	-0.859519
H187	H	0.816317	0.913670	-0.902444
H188	H	1.045484	0.607788	-0.680334
H189	H	1.084408	0.555844	-0.351437
H190	H	1.278399	0.429174	-0.093444
H191	H	1.461061	0.301210	-0.087059
