data_functionalizedCrystal
_audit_creation_method	'MofGen! by Chris Wilmer'
_symmetry_space_group_name_H-M	'P1'
_symmetry_Int_Tables_number	1
_symmetry_cell_setting	triclinic
loop_
_symmetry_equiv_pos_as_xyz
  x,y,z
_cell_length_a	16.704494
_cell_length_b	14.560438
_cell_length_c	14.560438
_cell_angle_alpha	60.000069
_cell_angle_beta	90.000007
_cell_angle_gamma	56.631965
loop_
_atom_site_label
_atom_site_type_symbol
_atom_site_fract_x
_atom_site_fract_y
_atom_site_fract_z
Zr1	Zr	0.815200	0.909256	-0.072490
O2	O	0.680083	1.116775	-0.227094
O3	O	0.856621	0.712776	-0.025099
O4	O	0.856621	0.904380	-0.216699
O5	O	0.680083	0.925168	0.115647
O6	O	0.995877	0.887978	-0.208497
O7	O	0.680082	0.925171	-0.035493
O8	O	0.995877	0.545233	0.134242
O9	O	0.680083	1.267913	-0.227091
O10	O	0.978212	0.777262	0.001238
O11	O	0.874286	0.789501	0.107911
O12	O	0.874286	1.015090	-0.117674
O13	O	0.770361	1.027329	-0.011001
Zr14	Zr	1.037299	0.883092	0.181644
Zr15	Zr	1.037298	0.883096	-0.059408
Zr16	Zr	0.815200	0.909252	0.168562
Zr17	Zr	0.815200	1.150304	-0.072486
Zr18	Zr	1.037298	0.642044	0.181639
O19	O	0.995878	1.079572	0.134252
O20	O	0.995878	1.079578	-0.208493
O21	O	0.680083	1.116769	0.115651
O22	O	1.172416	0.675573	0.336248
O23	O	1.172416	0.675579	-0.006498
O24	O	0.856621	0.712770	0.317647
O25	O	1.172416	0.867180	-0.006494
O26	O	0.995878	0.887968	0.325853
O27	O	0.856621	0.904371	0.317650
O28	O	1.172416	0.867177	0.144647
O29	O	0.856621	1.247119	-0.216693
O30	O	0.995877	0.545229	0.325846
O31	O	1.172416	0.524435	0.336245
O32	O	1.172416	0.524439	0.144640
O33	O	0.680083	1.267909	-0.035487
O34	O	0.856621	1.247115	-0.025089
O35	O	0.978212	0.777258	0.226827
O36	O	1.082138	0.765019	0.120154
O37	O	0.978212	1.002847	0.001242
O38	O	0.874287	1.015086	0.107915
C39	C	0.926249	0.594660	0.054571
C40	C	0.926249	0.492329	0.054569
C41	C	0.980494	0.437865	-0.001114
C42	C	0.980499	0.341705	-0.001103
C43	C	0.872002	0.354488	0.110274
C44	C	0.872005	0.450638	0.110270
C45	C	0.648438	0.928897	0.038213
C46	C	0.554152	0.940003	0.032659
C47	C	0.485484	0.712557	0.146395
C48	C	0.396896	0.722985	0.141180
C49	C	0.288387	0.971287	0.017021
C50	C	0.376975	0.960858	0.022236
C51	C	0.475522	0.831489	0.086924
C52	C	0.564111	0.821062	0.092132
C53	C	0.455602	1.069362	-0.032019
C54	C	0.367014	1.079790	-0.037234
C55	C	1.204060	0.863451	0.070940
C56	C	1.298347	0.852346	0.076494
C57	C	0.926249	0.896180	-0.246943
C58	C	0.926249	0.896181	-0.349276
C59	C	0.926250	1.197688	0.054582
C60	C	0.926250	1.300019	0.054584
C61	C	1.002966	0.887146	-0.392833
C62	C	1.002969	0.887134	-0.488979
C63	C	0.849528	0.905199	-0.498005
C64	C	0.849530	0.905201	-0.401856
C65	C	0.926250	0.896169	0.356096
C66	C	0.926250	0.896167	0.458429
C67	C	1.204060	0.561938	0.070935
C68	C	1.298346	0.448501	0.076486
C69	C	0.926249	0.594655	0.356091
C70	C	0.926249	0.492322	0.458422
C71	C	1.204060	0.561932	0.372454
C72	C	1.298347	0.448494	0.480339
C73	C	0.648438	1.230416	-0.263301
C74	C	0.554152	1.343855	-0.371186
C75	C	0.648439	1.230411	0.038219
C76	C	0.554152	1.343847	0.032667
C77	C	0.926249	1.197693	-0.246937
C78	C	0.926249	1.300026	-0.349268
C79	C	1.288376	0.401621	0.017010
C80	C	1.376959	0.295049	0.022204
C81	C	1.475512	0.235353	0.086880
C82	C	1.485480	0.282243	0.146358
C83	C	1.396898	0.388819	0.141157
C84	C	1.396882	0.388832	0.475321
C85	C	1.485483	0.282257	0.576681
C86	C	1.475546	0.235339	0.683059
C87	C	1.377000	0.295011	0.688074
C88	C	1.288402	0.401591	0.586715
C89	C	0.455617	1.403528	-0.366168
C90	C	0.367016	1.510133	-0.467528
C91	C	0.376953	1.557056	-0.573905
C92	C	0.475499	1.497378	-0.578920
C93	C	0.564097	1.390781	-0.477561
C94	C	0.564123	1.390738	0.092133
C95	C	0.475539	1.497336	0.086913
C96	C	0.376986	1.557035	0.022233
C97	C	0.367018	1.510141	-0.037240
C98	C	0.455601	1.403551	-0.032026
C99	C	0.980496	0.437853	0.568570
C100	C	0.980484	0.341711	0.664716
C101	C	0.871977	0.354512	0.540552
C102	C	0.871983	0.450659	0.444408
H103	H	0.827831	0.494983	0.155618
N104	N	1.039008	0.282958	-0.061158
H105	H	1.073369	0.323962	-0.096442
H106	H	0.989195	0.305553	-0.123278
H107	H	0.644350	0.715722	0.144811
H108	H	1.024656	0.297368	0.754401
N109	N	1.039005	0.482824	-0.061177
H110	H	0.989250	0.585201	-0.123361
H111	H	1.073369	0.433633	-0.096376
N112	N	0.766773	0.914950	-0.554724
H113	H	0.770125	0.834475	-0.497753
H114	H	0.778453	0.913628	-0.622253
H115	H	1.547697	0.148553	0.765583
N116	N	1.182131	0.465907	0.592149
H117	H	1.142963	0.453772	0.552586
H118	H	1.143018	0.567017	0.552603
H119	H	0.565724	0.607219	0.199073
N120	N	0.813465	0.309557	0.525439
H121	H	0.737575	0.391853	0.478496
H122	H	0.821777	0.240349	0.603101
H123	H	0.286765	1.558764	-0.089901
H124	H	0.827803	0.495013	0.354714
N125	N	0.444884	1.352927	-0.251441
H126	H	0.369012	1.406921	-0.263660
H127	H	0.479284	1.365598	-0.206951
N128	N	0.182094	1.110807	-0.052749
H129	H	0.189221	1.184575	-0.089638
H130	H	0.142975	1.120545	-0.000990
N131	N	0.813499	0.309521	0.170349
H132	H	0.821726	0.240347	0.161901
H133	H	0.737635	0.391890	0.134969
H134	H	1.368925	0.256795	0.774700
H135	H	0.405015	0.626138	0.189608
H136	H	1.065440	0.879774	-0.524439
H137	H	0.286785	1.558707	-0.463422
H138	H	0.286767	1.185119	-0.089897
N139	N	1.407666	0.439370	0.205314
H140	H	1.373337	0.539931	0.149302
H141	H	1.483563	0.385276	0.247066
H142	H	1.404992	0.427016	0.388713
N143	N	0.281393	1.672021	-0.683228
H144	H	0.238756	1.756821	-0.685771
H145	H	0.238838	1.643449	-0.685706
N146	N	1.591762	0.217907	0.571257
H147	H	1.584604	0.263798	0.488485
H148	H	1.630888	0.116777	0.610892
N149	N	0.766789	0.914930	-0.354860
H150	H	0.718185	0.920651	-0.402761
H151	H	0.726552	0.999748	-0.357373
N152	N	1.182087	0.465992	-0.052750
H153	H	1.189228	0.420112	-0.089637
H154	H	1.142967	0.567121	-0.114240
N155	N	1.085732	0.877380	-0.336116
H156	H	1.126043	0.792547	-0.253811
H157	H	1.052206	0.961457	-0.338312
H158	H	1.368823	0.256885	-0.026231
H159	H	1.547633	0.148572	0.091106
H160	H	0.483676	1.535499	0.135348
H161	H	1.565734	0.233623	0.199016
N162	N	0.486204	1.547986	-0.693661
H163	H	0.562069	1.494014	-0.681473
H164	H	0.451808	1.648558	-0.738139
H165	H	0.447496	1.166206	-0.080448
H166	H	0.644326	1.342195	-0.481660
H167	H	0.644362	1.342138	0.144810
H168	H	0.304865	1.643826	0.017997
H169	H	0.447468	1.365377	-0.080448
N170	N	1.039023	0.482792	0.583679
H171	H	1.073386	0.433694	0.668050
H172	H	0.989218	0.585179	0.543419
