data_functionalizedCrystal
_audit_creation_method	'MofGen! by Chris Wilmer'
_symmetry_space_group_name_H-M	'P1'
_symmetry_Int_Tables_number	1
_symmetry_cell_setting	triclinic
loop_
_symmetry_equiv_pos_as_xyz
  x,y,z
_cell_length_a	19.188930
_cell_length_b	23.532357
_cell_length_c	18.266242
_cell_angle_alpha	89.988103
_cell_angle_beta	89.977082
_cell_angle_gamma	82.986534
loop_
_atom_site_label
_atom_site_type_symbol
_atom_site_fract_x
_atom_site_fract_y
_atom_site_fract_z
O1	O	0.925907	0.071104	-0.061125
O2	O	1.259240	0.404437	0.272208
O3	O	1.592573	0.737770	0.605542
O4	O	0.722563	0.080675	-0.061076
O5	O	1.055896	0.414009	0.272257
O6	O	1.389229	0.747342	0.605591
O7	O	0.830385	-0.007031	-0.061087
O8	O	1.163718	0.326302	0.272246
O9	O	1.497051	0.659635	0.605580
O10	O	0.818085	0.158810	-0.061114
O11	O	1.151418	0.492143	0.272219
O12	O	1.484751	0.825477	0.605553
O13	O	0.830367	-0.007036	0.060675
O14	O	1.163700	0.326298	0.394008
O15	O	1.497033	0.659631	0.727342
O16	O	0.722545	0.080671	0.060686
O17	O	1.055878	0.414004	0.394019
O18	O	1.389211	0.747337	0.727353
O19	O	0.925889	0.071099	0.060637
O20	O	1.259222	0.404433	0.393970
O21	O	1.592555	0.737766	0.727304
Zn22	Zn	0.824214	0.075884	0.079994
Zn23	Zn	1.157547	0.409218	0.413327
Zn24	Zn	1.490880	0.742551	0.746660
Zn25	Zn	0.824238	0.075890	-0.080433
Zn26	Zn	1.157571	0.409224	0.252900
Zn27	Zn	1.490904	0.742557	0.586234
O28	O	0.818067	0.158806	0.060648
O29	O	1.151400	0.492139	0.393981
O30	O	1.484733	0.825472	0.727315
C31	C	0.696544	0.080363	-0.000189
C32	C	1.029877	0.413696	0.333145
C33	C	1.363210	0.747030	0.666478
C34	C	0.619042	0.079433	-0.000169
C35	C	0.952376	0.412766	0.333164
C36	C	1.285709	0.746099	0.666497
C37	C	0.830068	-0.028251	-0.000204
C38	C	1.163401	0.305083	0.333130
C39	C	1.496735	0.638416	0.666463
C40	C	0.829143	-0.091471	-0.000197
C41	C	1.162476	0.241862	0.333137
C42	C	1.495810	0.575195	0.666470
C43	C	0.573943	0.130896	-0.000189
C44	C	0.907276	0.464229	0.333144
C45	C	1.240610	0.797563	0.666478
C46	C	0.501122	0.130022	-0.000197
C47	C	0.834455	0.463355	0.333136
C48	C	1.167789	0.796688	0.666470
C49	C	0.473404	0.077681	-0.000200
C50	C	0.806737	0.411015	0.333134
C51	C	1.140071	0.744348	0.666467
C52	C	0.518513	0.026211	-0.000176
C53	C	0.851847	0.359545	0.333158
C54	C	1.185180	0.692878	0.666491
C55	C	0.591333	0.027087	-0.000160
C56	C	0.924666	0.360420	0.333173
C57	C	1.257999	0.693754	0.666506
N58	N	0.365567	0.037675	-0.041664
N59	N	0.698900	0.371009	0.291670
N60	N	1.032233	0.704342	0.625003
N61	N	0.296391	0.036847	-0.041680
N62	N	0.629724	0.370180	0.291654
N63	N	0.963057	0.703514	0.624987
C64	C	0.254004	0.075040	-0.000244
C65	C	0.587338	0.408373	0.333089
C66	C	0.920671	0.741707	0.666423
N67	N	0.283406	0.114101	0.041199
N68	N	0.616739	0.447435	0.374532
N69	N	0.950072	0.780768	0.707866
N70	N	0.352588	0.114931	0.041212
N71	N	0.685921	0.448265	0.374545
N72	N	1.019254	0.781598	0.707878
C73	C	0.394445	0.076726	-0.000216
C74	C	0.727778	0.410059	0.333118
C75	C	1.061111	0.743393	0.666451
C76	C	0.129944	0.125559	-0.000271
C77	C	0.463277	0.458892	0.333062
C78	C	0.796610	0.792226	0.666395
C79	C	0.057122	0.124683	-0.000275
C80	C	0.390455	0.458016	0.333058
C81	C	0.723789	0.791349	0.666392
C82	C	0.074515	0.020871	-0.000261
C83	C	0.407848	0.354204	0.333072
C84	C	0.741182	0.687537	0.666406
C85	C	0.147335	0.021749	-0.000250
C86	C	0.480668	0.355082	0.333083
C87	C	0.814002	0.688415	0.666417
C88	C	0.175045	0.074094	-0.000259
C89	C	0.508378	0.407428	0.333074
C90	C	0.841712	0.740761	0.666408
C91	C	0.823346	-0.483492	-0.066607
C92	C	1.156679	-0.150159	0.266726
C93	C	1.490013	0.183174	0.600060
C94	C	0.822467	-0.542894	-0.066611
C95	C	1.155800	-0.209560	0.266722
C96	C	1.489133	0.123773	0.600056
O97	O	0.821997	-0.573609	-0.123058
O98	O	1.155330	-0.240276	0.210275
O99	O	1.488663	0.093058	0.543609
N100	N	0.822021	-0.572608	-0.000239
N101	N	1.155354	-0.239275	0.333094
N102	N	1.488687	0.094058	0.666427
C103	C	0.822447	-0.542918	0.066141
C104	C	1.155780	-0.209584	0.399474
C105	C	1.489114	0.123749	0.732807
O106	O	0.821986	-0.573647	0.122594
O107	O	1.155320	-0.240313	0.455928
O108	O	1.488653	0.093020	0.789261
C109	C	0.823321	-0.483517	0.066144
C110	C	1.156655	-0.150184	0.399477
C111	C	1.489988	0.183150	0.732810
C112	C	0.823774	-0.453806	-0.000232
C113	C	1.157108	-0.120473	0.333101
C114	C	1.490441	0.212861	0.666434
C115	C	0.823798	-0.453782	-0.132978
C116	C	1.157131	-0.120448	0.200356
C117	C	1.490465	0.212885	0.533689
C118	C	0.824679	-0.394384	-0.132973
C119	C	1.158012	-0.061051	0.200360
C120	C	1.491345	0.272282	0.533693
C121	C	0.825107	-0.364698	-0.066599
C122	C	1.158440	-0.031365	0.266735
C123	C	1.491774	0.301968	0.600068
C124	C	0.824655	-0.394409	-0.000228
C125	C	1.157988	-0.061076	0.333105
C126	C	1.491321	0.272258	0.666439
C127	C	0.823742	-0.453827	0.132523
C128	C	1.157076	-0.120493	0.465856
C129	C	1.490409	0.212840	0.799190
C130	C	0.824616	-0.394422	0.132520
C131	C	1.157950	-0.061089	0.465854
C132	C	1.491283	0.272245	0.799187
C133	C	0.825069	-0.364711	0.066144
C134	C	1.158403	-0.031378	0.399478
C135	C	1.491736	0.301955	0.732811
C136	C	0.825964	-0.305326	0.066151
C137	C	1.159297	0.028008	0.399484
C138	C	1.492630	0.361341	0.732818
N139	N	0.826410	-0.275611	-0.000221
N140	N	1.159743	0.057722	0.333113
N141	N	1.493076	0.391055	0.666446
C142	C	0.825981	-0.305297	-0.066595
C143	C	1.159315	0.028036	0.266738
C144	C	1.492648	0.361369	0.600071
C145	C	0.820610	-0.667663	0.066129
C146	C	1.153943	-0.334330	0.399462
C147	C	1.487276	-0.000996	0.732795
C148	C	0.819740	-0.727063	0.066126
C149	C	1.153074	-0.393730	0.399460
C150	C	1.486407	-0.060397	0.732793
C151	C	0.819759	-0.727035	-0.066626
C152	C	1.153092	-0.393702	0.266708
C153	C	1.486425	-0.060368	0.600041
C154	C	0.820633	-0.667634	-0.066622
C155	C	1.153966	-0.334301	0.266711
C156	C	1.487300	-0.000968	0.600044
C157	C	0.821056	-0.637949	-0.000243
C158	C	1.154389	-0.304615	0.333090
C159	C	1.487722	0.028718	0.666424
C160	C	0.827831	-0.180559	-0.066581
C161	C	1.161164	0.152774	0.266752
C162	C	1.494498	0.486107	0.600085
C163	C	0.828715	-0.121157	-0.066571
C164	C	1.162048	0.212176	0.266762
C165	C	1.495381	0.545509	0.600095
C166	C	0.828693	-0.121190	0.066180
C167	C	1.162026	0.212143	0.399513
C168	C	1.495359	0.545476	0.732847
C169	C	0.827813	-0.180588	0.066170
C170	C	1.161146	0.152746	0.399504
C171	C	1.494479	0.486079	0.732837
C172	C	0.827380	-0.210270	-0.000216
C173	C	1.160713	0.123063	0.333117
C174	C	1.494046	0.456396	0.666450
O175	O	0.826431	-0.274572	0.122569
O176	O	1.159765	0.058761	0.455903
O177	O	1.493098	0.392094	0.789236
O178	O	0.826433	-0.274560	-0.123040
O179	O	1.159766	0.058773	0.210294
O180	O	1.493100	0.392106	0.543627
C181	C	0.951908	0.071411	-0.000252
C182	C	1.285241	0.404745	0.333081
C183	C	1.618574	0.738078	0.666415
C184	C	1.029409	0.072342	-0.000276
C185	C	1.362742	0.405675	0.333057
C186	C	1.696076	0.739009	0.666390
C187	C	0.818383	0.180025	-0.000237
C188	C	1.151717	0.513358	0.333096
C189	C	1.485050	0.846692	0.666430
C190	C	0.819308	0.243246	-0.000249
C191	C	1.152642	0.576579	0.333084
C192	C	1.485975	0.909912	0.666418
N193	N	0.824203	0.075880	0.189481
N194	N	1.157536	0.409213	0.522814
N195	N	1.490869	0.742547	0.856147
N196	N	0.824254	0.075890	-0.189920
N197	N	1.157588	0.409223	0.143414
N198	N	1.490921	0.742557	0.476747
C199	C	0.871962	0.037062	0.227785
C200	C	1.205295	0.370396	0.561118
C201	C	1.538628	0.703729	0.894451
C202	C	0.871966	0.037060	0.304430
C203	C	1.205299	0.370393	0.637763
C204	C	1.538633	0.703726	0.971096
C205	C	0.824218	0.075884	0.342768
C206	C	1.157551	0.409218	0.676101
C207	C	1.490885	0.742551	1.009434
C208	C	0.776450	0.114705	0.304454
C209	C	1.109783	0.448038	0.637788
C210	C	1.443117	0.781371	0.971121
C211	C	0.776442	0.114703	0.227811
C212	C	1.109776	0.448036	0.561144
C213	C	1.443109	0.781369	0.894478
N214	N	0.814970	0.126301	0.463093
N215	N	1.148304	0.459634	0.796426
N216	N	1.481637	0.792968	1.129760
N217	N	0.814982	0.126301	0.535901
N218	N	1.148315	0.459635	0.869235
N219	N	1.481649	0.792968	1.202568
C220	C	0.824238	0.075893	0.573690
C221	C	1.157571	0.409226	0.907023
C222	C	1.490904	0.742559	1.240357
N223	N	0.833495	0.025482	0.535920
N224	N	1.166828	0.358815	0.869254
N225	N	1.500162	0.692149	1.202587
N226	N	0.833487	0.025482	0.463105
N227	N	1.166820	0.358816	0.796439
N228	N	1.500154	0.692149	1.129772
C229	C	0.824221	0.075891	0.425875
C230	C	1.157554	0.409224	0.759208
C231	C	1.490888	0.742558	1.092541
C232	C	0.872004	0.037069	0.695101
C233	C	1.205337	0.370402	1.028435
C234	C	1.538671	0.703736	1.361768
C235	C	0.872004	0.037066	0.771748
C236	C	1.205337	0.370399	1.105081
C237	C	1.538670	0.703732	1.438414
C238	C	0.776491	0.114716	0.771771
C239	C	1.109824	0.448049	1.105104
C240	C	1.443158	0.781382	1.438437
C241	C	0.776488	0.114714	0.695126
C242	C	1.109821	0.448047	1.028459
C243	C	1.443155	0.781381	1.361793
C244	C	0.824248	0.075891	0.656796
C245	C	1.157582	0.409225	0.990129
C246	C	1.490915	0.742558	1.323462
H247	H	0.464395	0.171931	-0.000211
H248	H	0.797728	0.505264	0.333122
H249	H	1.131062	0.838597	0.666456
N250	N	0.829121	-0.090849	0.133970
N251	N	1.162454	0.242484	0.467303
N252	N	1.495788	0.575818	0.800636
N253	N	0.780382	-0.052327	0.148776
N254	N	1.113716	0.281006	0.482110
N255	N	1.447049	0.614339	0.815443
H256	H	0.780680	-0.030895	0.196653
H257	H	1.114013	0.302438	0.529986
H258	H	1.447346	0.635771	0.863319
H259	H	0.737601	0.146325	0.663937
H260	H	1.070934	0.479659	0.997270
H261	H	1.404268	0.812992	1.330603
N262	N	0.490192	-0.027248	-0.000171
N263	N	0.823526	0.306085	0.333162
N264	N	1.156859	0.639418	0.666496
N265	N	0.425175	-0.028024	-0.000185
N266	N	0.758508	0.305310	0.333149
N267	N	1.091841	0.638643	0.666482
H268	H	0.405172	-0.065781	-0.000178
H269	H	0.738506	0.267552	0.333156
H270	H	1.071839	0.600886	0.666489
N271	N	0.827388	-0.210883	-0.134385
N272	N	1.160721	0.122450	0.198948
N273	N	1.494055	0.455783	0.532281
N274	N	0.777680	-0.238650	-0.149197
N275	N	1.111013	0.094683	0.184137
N276	N	1.444347	0.428017	0.517470
H277	H	0.777371	-0.260068	-0.197082
H278	H	1.110704	0.073265	0.136251
H279	H	1.444037	0.406599	0.469584
N280	N	0.011054	0.177256	-0.000276
N281	N	0.344388	0.510589	0.333057
N282	N	0.677721	0.843923	0.666391
N283	N	0.013344	0.212105	0.051046
N284	N	0.346677	0.545438	0.384379
N285	N	0.680011	0.878772	0.717713
H286	H	-0.019191	0.249237	0.051047
H287	H	0.314142	0.582570	0.384381
H288	H	0.647475	0.915904	0.717714
N289	N	0.829183	-0.090819	-0.134383
N290	N	1.162516	0.242514	0.198951
N291	N	1.495849	0.575848	0.532284
N292	N	0.828800	-0.117336	-0.193639
N293	N	1.162133	0.215997	0.139694
N294	N	1.495467	0.549331	0.473027
H295	H	0.829130	-0.095912	-0.241531
H296	H	1.162464	0.237421	0.091803
H297	H	1.495797	0.570755	0.425136
H298	H	0.184056	-0.020159	-0.000238
H299	H	0.517390	0.313175	0.333095
H300	H	0.850723	0.646508	0.666429
N301	N	0.819292	-0.757419	0.133921
N302	N	1.152625	-0.424086	0.467254
N303	N	1.485958	-0.090752	0.800588
N304	N	0.868021	-0.795945	0.148721
N305	N	1.201354	-0.462612	0.482054
N306	N	1.534687	-0.129279	0.815387
H307	H	0.867701	-0.817383	0.196602
H308	H	1.201034	-0.484050	0.529936
H309	H	1.534367	-0.150717	0.863269
N310	N	0.602235	0.184369	-0.000200
N311	N	0.935568	0.517702	0.333133
N312	N	1.268902	0.851035	0.666466
N313	N	0.561953	0.230315	-0.000219
N314	N	0.895287	0.563649	0.333114
N315	N	1.228620	0.896982	0.666448
H316	H	0.581935	0.268082	-0.000227
H317	H	0.915268	0.601415	0.333106
H318	H	1.248602	0.934748	0.666440
H319	H	0.825045	-0.370199	-0.187024
H320	H	1.158378	-0.036866	0.146310
H321	H	1.491712	0.296468	0.479643
N322	N	0.637395	-0.025489	-0.000136
N323	N	0.970728	0.307844	0.333197
N324	N	1.304062	0.641177	0.666530
N325	N	0.612642	-0.072220	-0.000132
N326	N	0.945976	0.261114	0.333202
N327	N	1.279309	0.594447	0.666535
H328	H	0.645174	-0.109353	-0.000115
H329	H	0.978508	0.223980	0.333218
H330	H	1.311841	0.557314	0.666552
H331	H	0.823447	-0.477945	-0.187031
H332	H	1.156780	-0.144612	0.146302
H333	H	1.490113	0.188721	0.479636
N334	N	0.158243	0.179031	-0.000276
N335	N	0.491576	0.512364	0.333057
N336	N	0.824909	0.845697	0.666391
N337	N	0.117963	0.224978	-0.000285
N338	N	0.451296	0.558312	0.333049
N339	N	0.784629	0.891645	0.666382
H340	H	0.137946	0.262744	-0.000287
H341	H	0.471280	0.596077	0.333047
H342	H	0.804613	0.929411	0.666380
H343	H	0.051948	-0.021746	-0.000308
H344	H	0.385281	0.311588	0.333025
H345	H	0.718614	0.644921	0.666358
N346	N	0.821099	-0.637297	-0.134430
N347	N	1.154432	-0.303964	0.198904
N348	N	1.487765	0.029369	0.532237
N349	N	0.820721	-0.663818	-0.193685
N350	N	1.154055	-0.330485	0.139649
N351	N	1.487388	0.002849	0.472982
H352	H	0.821050	-0.642396	-0.241577
H353	H	1.154383	-0.309062	0.091756
H354	H	1.487717	0.024271	0.425089
N355	N	0.825043	-0.364089	0.200321
N356	N	1.158377	-0.030756	0.533654
N357	N	1.491710	0.302577	0.866987
N358	N	0.776308	-0.325569	0.215141
N359	N	1.109641	0.007765	0.548475
N360	N	1.442975	0.341098	0.881808
H361	H	0.776610	-0.304146	0.263024
H362	H	1.109943	0.029187	0.596358
H363	H	1.443277	0.362521	0.929691
N364	N	0.819331	-0.757375	-0.134422
N365	N	1.152664	-0.424042	0.198912
N366	N	1.485998	-0.090708	0.532245
N367	N	0.818554	-0.810411	-0.134407
N368	N	1.151887	-0.477078	0.198926
N369	N	1.485220	-0.143745	0.532259
H370	H	0.818256	-0.831842	-0.182285
H371	H	1.151589	-0.498508	0.151049
H372	H	1.484922	-0.165175	0.484382
H373	H	0.737550	0.146313	0.196623
H374	H	1.070884	0.479646	0.529956
H375	H	1.404217	0.812980	0.863290
H376	H	0.910891	0.005456	0.663891
H377	H	1.244225	0.338789	0.997225
H378	H	1.577558	0.672122	1.330558
N379	N	0.821044	-0.637351	0.133945
N380	N	1.154377	-0.304018	0.467279
N381	N	1.487711	0.029315	0.800612
N382	N	0.820645	-0.663894	0.193196
N383	N	1.153978	-0.330561	0.526529
N384	N	1.487311	0.002772	0.859863
H385	H	0.820950	-0.642490	0.241092
H386	H	1.154283	-0.309156	0.574425
H387	H	1.487617	0.024177	0.907759
N388	N	0.823259	-0.484161	0.200327
N389	N	1.156592	-0.150828	0.533661
N390	N	1.489925	0.182506	0.866994
N391	N	0.773537	-0.511925	0.215149
N392	N	1.106870	-0.178592	0.548482
N393	N	1.440204	0.154742	0.881815
H394	H	0.773192	-0.533347	0.263040
H395	H	1.106525	-0.200014	0.596374
H396	H	1.439859	0.133320	0.929707
H397	H	0.910893	0.005453	0.802935
H398	H	1.244226	0.338786	1.136269
H399	H	1.577559	0.672119	1.469602
H400	H	0.910858	0.005449	0.335623
H401	H	1.244192	0.338782	0.668956
H402	H	1.577525	0.672115	1.002289
N403	N	0.827356	-0.210932	0.133976
N404	N	1.160690	0.122402	0.467310
N405	N	1.494023	0.455735	0.800643
N406	N	0.827739	-0.184416	0.193234
N407	N	1.161073	0.148917	0.526568
N408	N	1.494406	0.482251	0.859901
H409	H	0.827409	-0.205842	0.241125
H410	H	1.160743	0.127492	0.574458
H411	H	1.494076	0.460825	0.907791
H412	H	0.737572	0.146316	0.335673
H413	H	1.070905	0.479649	0.669006
H414	H	1.404238	0.812982	1.002340
N415	N	0.920809	-0.002549	0.188644
N416	N	1.254142	0.330785	0.521977
N417	N	1.587475	0.664118	0.855311
N418	N	0.963487	-0.037173	0.222860
N419	N	1.296820	0.296160	0.556193
N420	N	1.630154	0.629493	0.889526
H421	H	0.998008	-0.065132	0.195216
H422	H	1.331341	0.268202	0.528549
H423	H	1.664674	0.601535	0.861883
H424	H	0.737611	0.146325	0.802985
H425	H	1.070944	0.479659	1.136318
H426	H	1.404278	0.812992	1.469652
