data_functionalizedCrystal
_audit_creation_method	'MofGen! by Chris Wilmer'
_symmetry_space_group_name_H-M	'P1'
_symmetry_Int_Tables_number	1
_symmetry_cell_setting	triclinic
loop_
_symmetry_equiv_pos_as_xyz
  x,y,z
_cell_length_a	27.731993
_cell_length_b	26.809956
_cell_length_c	8.559649
_cell_angle_alpha	90.005302
_cell_angle_beta	103.800472
_cell_angle_gamma	89.997216
loop_
_atom_site_label
_atom_site_type_symbol
_atom_site_fract_x
_atom_site_fract_y
_atom_site_fract_z
O1	O	0.634329	0.041345	-0.189864
O2	O	0.492520	0.041375	-0.218890
O3	O	0.575918	0.041357	0.028542
O4	O	0.550931	0.041363	-0.437295
O5	O	0.575902	-0.041603	0.028504
O6	O	0.492504	-0.041584	-0.218928
O7	O	0.634313	-0.041614	-0.189901
Zn8	Zn	0.563406	-0.054771	-0.204421
Zn9	Zn	0.563427	0.054531	-0.204371
O10	O	0.550915	-0.041596	-0.437333
C11	C	0.474525	-0.000101	-0.218313
C12	C	0.420931	-0.000089	-0.216519
C13	C	0.038233	0.045108	-0.203494
C14	C	0.239652	0.045121	-0.210333
O15	O	0.265704	0.083581	-0.211135
N16	N	0.264834	-0.000099	-0.211209
C17	C	0.239659	-0.045326	-0.210365
O18	O	0.265701	-0.083788	-0.211251
C19	C	0.038242	-0.045339	-0.203514
C20	C	0.013061	-0.000116	-0.202654
C21	C	0.013052	0.090327	-0.202632
C22	C	-0.037300	0.090323	-0.200931
C23	C	-0.062472	0.045100	-0.200092
C24	C	-0.037291	-0.000119	-0.200954
C25	C	0.013069	-0.090565	-0.202659
C26	C	-0.037288	-0.090564	-0.200942
C27	C	-0.062469	-0.045341	-0.200082
C28	C	-0.112815	-0.045347	-0.198414
N29	N	-0.137997	-0.000126	-0.197537
C30	C	-0.112826	0.045097	-0.198376
C31	C	0.345406	-0.045315	-0.213965
C32	C	0.395760	-0.045312	-0.215680
C33	C	0.395749	0.045135	-0.215645
C34	C	0.345394	0.045131	-0.213941
C35	C	0.320224	-0.000095	-0.213088
C36	C	-0.218569	0.045085	-0.194806
C37	C	-0.268927	0.045077	-0.193112
C38	C	-0.268911	-0.045369	-0.193138
C39	C	-0.218559	-0.045362	-0.194841
C40	C	-0.193389	-0.000130	-0.195669
O41	O	-0.138897	-0.083786	-0.197592
O42	O	-0.138873	0.083553	-0.197455
C43	C	0.088585	0.045111	-0.205195
C44	C	0.113766	-0.000108	-0.206056
C45	C	0.088594	-0.045331	-0.205217
C46	C	0.164120	-0.000105	-0.207772
C47	C	0.189292	0.045118	-0.208611
C48	C	0.164110	0.090338	-0.207735
C49	C	0.113757	0.090335	-0.206034
C50	C	0.113776	-0.090551	-0.206093
C51	C	0.164129	-0.090544	-0.207796
C52	C	0.189300	-0.045320	-0.208635
N53	N	0.563396	-0.129367	-0.204454
C54	C	0.600350	-0.474001	-0.094835
C55	C	0.600362	-0.682879	-0.094810
O56	O	0.631762	-0.709889	-0.001619
N57	N	0.563431	-0.708994	-0.204336
C58	C	0.526491	-0.682887	-0.313868
O59	O	0.495075	-0.709892	-0.407014
C60	C	0.526477	-0.474010	-0.313884
C61	C	0.563414	-0.447897	-0.204362
C62	C	0.637284	-0.447888	0.014679
C63	C	0.637282	-0.395672	0.014666
C64	C	0.600346	-0.369568	-0.094861
C65	C	0.563412	-0.395681	-0.204375
C66	C	0.489536	-0.447903	-0.423407
C67	C	0.489535	-0.395681	-0.423398
C68	C	0.526472	-0.369568	-0.313877
C69	C	0.526475	-0.317361	-0.313915
N70	N	0.563407	-0.291246	-0.204390
C71	C	0.600342	-0.317349	-0.094863
C72	C	0.526501	-0.792550	-0.313854
C73	C	0.526505	-0.844769	-0.313852
C74	C	0.600376	-0.844757	-0.094792
C75	C	0.600374	-0.792537	-0.094803
C76	C	0.563433	-0.766435	-0.204329
C77	C	0.600336	-0.207691	-0.094899
C78	C	0.600332	-0.155471	-0.094927
C79	C	0.526460	-0.155487	-0.313980
C80	C	0.526465	-0.207703	-0.313959
C81	C	0.563405	-0.233804	-0.204406
O82	O	0.495088	-0.290318	-0.407046
O83	O	0.631747	-0.290335	-0.001707
C84	C	0.600352	-0.526217	-0.094822
C85	C	0.563418	-0.552330	-0.204336
C86	C	0.526482	-0.526226	-0.313863
C87	C	0.563422	-0.604549	-0.204334
C88	C	0.600358	-0.630653	-0.094807
C89	C	0.637290	-0.604537	0.014718
C90	C	0.637288	-0.552321	0.014705
C91	C	0.489550	-0.552341	-0.423388
C92	C	0.489556	-0.604558	-0.423367
C93	C	0.526491	-0.630661	-0.313840
C94	C	0.652308	-0.000138	-0.190478
C95	C	0.705901	-0.000146	-0.192272
C96	C	0.577804	-0.000122	0.088101
C97	C	0.583440	-0.000121	0.265623
N98	N	0.563441	0.129127	-0.204325
C99	C	0.549029	-0.000116	-0.496892
C100	C	0.543393	-0.000114	-0.674415
H101	H	0.033563	-0.127390	-0.203354
C102	C	0.491247	-0.000100	0.211464
N103	N	0.451970	-0.000088	0.125498
H104	H	0.093260	0.127160	-0.205333
C105	C	0.677912	-0.366955	0.135166
N106	N	0.708514	-0.345329	0.225941
H107	H	0.630452	-0.866020	-0.005613
H108	H	-0.289427	0.081905	-0.192416
C109	C	-0.190890	0.094842	-0.195727
N110	N	-0.170044	0.132319	-0.196432
C111	C	0.640973	-0.236395	0.025611
N112	N	0.671583	-0.258015	0.116373
C113	C	0.635589	-0.000135	0.379752
N114	N	0.674867	-0.000144	0.465714
C115	C	0.191822	-0.140296	-0.208741
N116	N	0.212680	-0.177769	-0.209437
C117	C	0.191809	0.140084	-0.208652
N118	N	0.212675	0.177550	-0.209331
H119	H	-0.057780	-0.127394	-0.200262
C120	C	-0.190860	-0.095109	-0.195800
N121	N	-0.170000	-0.132580	-0.196505
H122	H	-0.057797	0.127148	-0.200224
H123	H	0.093287	-0.127378	-0.205402
C124	C	0.485893	-0.763843	-0.434469
N125	N	0.455319	-0.742224	-0.525364
H126	H	0.630412	-0.134211	-0.005741
C127	C	0.317701	0.094879	-0.212977
N128	N	0.296846	0.132352	-0.212245
C129	C	0.423449	0.094881	-0.216555
N130	N	0.444315	0.132347	-0.217227
C131	C	0.040734	0.140081	-0.203552
N132	N	0.061579	0.177558	-0.204255
C133	C	0.677917	-0.476594	0.135190
N134	N	0.708525	-0.498212	0.225964
C135	C	0.485875	-0.873487	-0.434345
N136	N	0.455268	-0.895115	-0.525098
C137	C	0.448898	-0.476616	-0.543879
N138	N	0.418286	-0.498241	-0.634621
H139	H	0.416255	-0.082137	-0.216406
H140	H	0.630451	-0.771280	-0.005620
H141	H	0.459452	-0.374430	-0.512586
H142	H	-0.289416	-0.082189	-0.192462
C143	C	0.317723	-0.095071	-0.213061
N144	N	0.296873	-0.132548	-0.212397
H145	H	0.496388	-0.134225	-0.403160
C146	C	0.485835	-0.236428	-0.434447
N147	N	0.455229	-0.258059	-0.525191
H148	H	0.667365	-0.531064	0.103888
C149	C	0.448918	-0.633276	-0.543857
N150	N	0.418308	-0.654904	-0.634596
H151	H	0.667366	-0.625800	0.103894
H152	H	0.459472	-0.531092	-0.512576
