data_functionalizedCrystal
_audit_creation_method	'MofGen! by Chris Wilmer'
_symmetry_space_group_name_H-M	'P1'
_symmetry_Int_Tables_number	1
_symmetry_cell_setting	triclinic
loop_
_symmetry_equiv_pos_as_xyz
  x,y,z
_cell_length_a	14.908783
_cell_length_b	14.909383
_cell_length_c	14.908694
_cell_angle_alpha	96.367538
_cell_angle_beta	83.203601
_cell_angle_gamma	90.207064
loop_
_atom_site_label
_atom_site_type_symbol
_atom_site_fract_x
_atom_site_fract_y
_atom_site_fract_z
Zn1	Zn	1.432479	-0.311812	-0.610894
Zn2	Zn	1.932479	0.188188	-0.110894
Zn3	Zn	1.432379	-0.454450	-0.468273
Zn4	Zn	1.932379	0.045550	0.031727
Zn5	Zn	1.272377	-0.311836	-0.450800
Zn6	Zn	1.772377	0.188164	0.049200
Zn7	Zn	1.290808	-0.470832	-0.611849
Zn8	Zn	1.790808	0.029168	-0.111849
O9	O	1.357011	-0.387232	-0.535454
O10	O	1.857011	0.112768	-0.035454
O11	O	1.558717	-0.323866	-0.598887
O12	O	2.058717	0.176134	-0.098887
O13	O	1.403398	-0.428686	-0.338869
O14	O	1.903398	0.071314	0.161131
O15	O	1.285943	-0.185598	-0.464324
O16	O	1.785943	0.314402	0.035676
O17	O	1.558643	-0.428662	-0.494105
O18	O	2.058643	0.071338	0.005895
O19	O	1.403570	-0.185580	-0.581944
O20	O	1.903570	0.314420	-0.081944
O21	O	1.285846	-0.323908	-0.326031
O22	O	1.785846	0.176092	0.173969
O23	O	1.148571	-0.339793	-0.465251
O24	O	1.648571	0.160207	0.034749
O25	O	1.317357	-0.456584	-0.738809
O26	O	1.817357	0.043416	-0.238809
O27	O	1.162112	-0.456607	-0.583573
O28	O	1.662112	0.043393	-0.083573
O29	O	1.421442	-0.339752	-0.738107
O30	O	1.921442	0.160248	-0.238107
O31	O	1.421270	-0.582858	-0.495031
O32	O	1.921270	-0.082858	0.004969
O33	O	1.317259	-0.594894	-0.600516
O34	O	1.817259	-0.094894	-0.100516
C35	C	1.122606	-0.399981	-0.522620
C36	C	1.622606	0.100019	-0.022620
C37	C	1.022329	-0.405458	-0.517153
C38	C	1.522329	0.094542	-0.017153
C39	C	0.833994	-0.306794	-0.616176
C40	C	1.333994	0.193206	-0.116176
C41	C	0.739775	-0.311937	-0.611042
C42	C	1.239775	0.188063	-0.111042
C43	C	0.739670	-0.420882	-0.501745
C44	C	1.239670	0.079118	-0.001745
C45	C	0.833889	-0.415739	-0.506880
C46	C	1.333889	0.084261	-0.006880
C47	C	0.881048	-0.358694	-0.564098
C48	C	1.381048	0.141306	-0.064098
C49	C	0.975269	-0.353556	-0.569237
C50	C	1.475269	0.146444	-0.069237
C51	C	0.975162	-0.462496	-0.459936
C52	C	1.475162	0.037504	0.040064
C53	C	0.880943	-0.467640	-0.454801
C54	C	1.380943	0.032360	0.045199
C55	C	1.371280	-0.621607	-0.549794
C56	C	1.871280	-0.121607	-0.049794
C57	C	1.377468	-0.721871	-0.555964
C58	C	1.877468	-0.221871	-0.055964
C59	C	1.266712	-0.910438	-0.444979
C60	C	1.766712	-0.410438	0.055021
C61	C	1.272524	-1.004645	-0.450773
C62	C	1.772524	-0.504645	0.049227
C63	C	1.394907	-1.004492	-0.573341
C64	C	1.894907	-0.504492	-0.073341
C65	C	1.389096	-0.910286	-0.567547
C66	C	1.889096	-0.410286	-0.067547
C67	C	1.324995	-0.863262	-0.503365
C68	C	1.824995	-0.363262	-0.003365
C69	C	1.319180	-0.769054	-0.497576
C70	C	1.819180	-0.269054	0.002424
C71	C	1.441567	-0.768903	-0.620139
C72	C	1.941567	-0.268903	-0.120139
C73	C	1.447378	-0.863110	-0.625933
C74	C	1.947378	-0.363110	-0.125933
C75	C	1.592331	-0.374434	-0.548338
C76	C	2.092331	0.125566	-0.048338
C77	C	1.692610	-0.368980	-0.553829
C78	C	2.192610	0.131020	-0.053829
C79	C	1.371466	-0.399992	-0.772332
C80	C	1.871466	0.100008	-0.272332
C81	C	1.377627	-0.405430	-0.873275
C82	C	1.877627	0.094570	-0.373275
C83	C	1.342712	-0.151942	-0.521079
C84	C	1.842712	0.348058	-0.021079
C85	C	1.336618	-0.051675	-0.514953
C86	C	1.836618	0.448325	-0.014953
C87	C	1.266774	-0.306546	-1.049590
C88	C	1.766774	0.193454	-0.549590
C89	C	1.272559	-0.311652	-1.144435
C90	C	1.772559	0.188348	-0.644435
C91	C	1.394976	-0.420753	-1.157810
C92	C	1.894976	0.079247	-0.657810
C93	C	1.389191	-0.415647	-1.062966
C94	C	1.889191	0.084353	-0.562966
C95	C	1.325089	-0.358540	-1.008859
C96	C	1.825089	0.141460	-0.508859
C97	C	1.319309	-0.353430	-0.914012
C98	C	1.819309	0.146570	-0.414012
C99	C	1.441721	-0.462535	-0.927389
C100	C	1.941721	0.037465	-0.427389
C101	C	1.447506	-0.467641	-1.022234
C102	C	1.947506	0.032359	-0.522234
C103	C	1.342659	-0.374454	-0.299497
C104	C	1.842659	0.125546	0.200503
C105	C	1.336658	-0.368753	-0.198548
C106	C	1.836658	0.131247	0.301452
H107	H	0.872392	-0.260350	-0.662770
H108	H	1.372392	0.239650	-0.162770
H109	H	1.214587	-0.260039	-1.005536
H110	H	1.714587	0.239961	-0.505536
H111	H	1.225072	-0.269313	-1.177595
H112	H	1.725072	0.230687	-0.677595
Br113	Br	0.675918	-0.241494	-0.681717
Br114	Br	1.175918	0.258506	-0.181717
H115	H	1.013484	-0.504765	-0.417537
H116	H	1.513484	-0.004765	0.082463
Br117	Br	1.481949	-0.498265	-1.231256
Br118	Br	1.981949	0.001735	-0.731256
H119	H	1.489209	-0.504869	-0.894216
H120	H	1.989209	-0.004869	-0.394216
H121	H	1.499693	-0.514139	-1.066301
H122	H	1.999693	-0.014139	-0.566301
H123	H	1.447101	-1.042795	-0.625589
H124	H	1.947101	-0.542795	-0.125589
Br125	Br	0.675652	-0.498280	-0.424083
Br126	Br	1.175652	0.001720	0.075917
Br127	Br	0.816933	-0.545049	-0.377147
Br128	Br	1.316933	-0.045049	0.122853
H129	H	1.267117	-0.306927	-0.869960
H130	H	1.767117	0.193073	-0.369960
H131	H	1.013665	-0.307108	-0.615828
H132	H	1.513665	0.192892	-0.115828
H133	H	1.266983	-0.730768	-0.445318
H134	H	1.766983	-0.230768	0.054682
Br135	Br	1.534371	-0.926935	-0.713029
Br136	Br	2.034371	-0.426935	-0.213029
H137	H	1.214513	-0.872151	-0.392726
H138	H	1.714513	-0.372151	0.107274
H139	H	1.225065	-1.043052	-0.403229
H140	H	1.725065	-0.543052	0.096771
Br141	Br	1.520668	-0.704874	-0.699383
Br142	Br	2.020668	-0.204874	-0.199383
