data_functionalizedCrystal
_audit_creation_method	'MofGen! by Chris Wilmer'
_symmetry_space_group_name_H-M	'P1'
_symmetry_Int_Tables_number	1
_symmetry_cell_setting	triclinic
loop_
_symmetry_equiv_pos_as_xyz
  x,y,z
_cell_length_a	16.120484
_cell_length_b	13.897449
_cell_length_c	13.897441
_cell_angle_alpha	90.020733
_cell_angle_beta	92.865635
_cell_angle_gamma	87.073220
loop_
_atom_site_label
_atom_site_type_symbol
_atom_site_fract_x
_atom_site_fract_y
_atom_site_fract_z
Zn1	Zn	-0.331852	-1.455182	-0.564824
Zn2	Zn	0.001482	-1.121849	-0.231490
Zn3	Zn	0.334815	-0.788515	0.101843
Zn4	Zn	-0.471283	-1.446874	-0.411694
Zn5	Zn	-0.137950	-1.113541	-0.078361
Zn6	Zn	0.195383	-0.780208	0.254973
Zn7	Zn	-0.331892	-1.293869	-0.403544
Zn8	Zn	0.001442	-0.960536	-0.070211
Zn9	Zn	0.334775	-0.627202	0.263122
Zn10	Zn	-0.471229	-1.285654	-0.572943
Zn11	Zn	-0.137895	-0.952321	-0.239610
Zn12	Zn	0.195438	-0.618988	0.093723
O13	O	-0.401564	-1.370395	-0.488251
O14	O	-0.068230	-1.037062	-0.154918
O15	O	0.265103	-0.703728	0.178415
O16	O	-0.350354	-1.589061	-0.544523
O17	O	-0.017021	-1.255728	-0.211190
O18	O	0.316313	-0.922395	0.122144
O19	O	-0.452832	-1.426539	-0.275633
O20	O	-0.119499	-1.093205	0.057700
O21	O	0.213834	-0.759872	0.391033
O22	O	-0.215221	-1.322182	-0.418130
O23	O	0.118113	-0.988849	-0.084796
O24	O	0.451446	-0.655515	0.248537
O25	O	-0.452794	-1.582958	-0.432019
O26	O	-0.119460	-1.249624	-0.098686
O27	O	0.213873	-0.916291	0.234647
O28	O	-0.215191	-1.440698	-0.536621
O29	O	0.118142	-1.107365	-0.203287
O30	O	0.451475	-0.774032	0.130046
O31	O	-0.350422	-1.314126	-0.269646
O32	O	-0.017088	-0.980793	0.063687
O33	O	0.316245	-0.647460	0.397021
O34	O	-0.350369	-1.157798	-0.426003
O35	O	-0.017035	-0.824465	-0.092670
O36	O	0.316298	-0.491131	0.240664
O37	O	-0.452700	-1.308182	-0.706846
O38	O	-0.119367	-0.974848	-0.373512
O39	O	0.213966	-0.641515	-0.040179
O40	O	-0.452739	-1.151763	-0.550460
O41	O	-0.119406	-0.818430	-0.217126
O42	O	0.213928	-0.485096	0.116207
O43	O	-0.350301	-1.432733	-0.700880
O44	O	-0.016968	-1.099400	-0.367547
O45	O	0.316366	-0.766066	-0.034213
O46	O	-0.587942	-1.418574	-0.439893
O47	O	-0.254608	-1.085240	-0.106559
O48	O	0.078725	-0.751907	0.226774
O49	O	-0.587901	-1.300126	-0.558362
O50	O	-0.254568	-0.966793	-0.225029
O51	O	0.078765	-0.633459	0.108305
C52	C	-0.401553	-1.119781	-0.488229
C53	C	-0.068219	-0.786448	-0.154895
C54	C	0.265114	-0.453115	0.178438
C55	C	-0.401568	-1.012566	-0.488243
C56	C	-0.068235	-0.679233	-0.154910
C57	C	0.265099	-0.345900	0.178424
C58	C	-0.618172	-1.357583	-0.500914
C59	C	-0.284838	-1.024250	-0.167581
C60	C	0.048495	-0.690916	0.165753
C61	C	-0.710837	-1.352190	-0.506363
C62	C	-0.377504	-1.018857	-0.173030
C63	C	-0.044171	-0.685524	0.160303
C64	C	-0.401490	-1.370468	-0.739840
C65	C	-0.068157	-1.037134	-0.406507
C66	C	0.265177	-0.703801	-0.073173
C67	C	-0.401459	-1.370499	-0.847052
C68	C	-0.068125	-1.037165	-0.513719
C69	C	0.265208	-0.703832	-0.180386
C70	C	-0.880499	-1.342350	-0.516332
C71	C	-0.547165	-1.009017	-0.182999
C72	C	-0.213832	-0.675684	0.150334
C73	C	-0.921788	-1.398613	-0.460186
C74	C	-0.588455	-1.065279	-0.126853
C75	C	-0.255122	-0.731946	0.206480
C76	C	-1.016194	-1.393137	-0.465733
C77	C	-0.682860	-1.059804	-0.132400
C78	C	-0.349527	-0.726471	0.200934
C79	C	-0.786085	-1.347824	-0.510787
C80	C	-0.452751	-1.014491	-0.177453
C81	C	-0.119418	-0.681157	0.155880
C82	C	-0.184110	-1.383283	-0.475560
C83	C	0.149223	-1.049950	-0.142227
C84	C	0.482557	-0.716616	0.191106
C85	C	-0.091444	-1.388775	-0.470152
C86	C	0.241889	-1.055442	-0.136819
C87	C	0.575222	-0.722109	0.196514
C88	C	-0.401576	-1.621987	-0.488275
C89	C	-0.068242	-1.288654	-0.154941
C90	C	0.265091	-0.955321	0.178392
C91	C	-0.401581	-1.729201	-0.488285
C92	C	-0.068247	-1.395867	-0.154951
C93	C	0.265086	-1.062534	0.178382
C94	C	-0.401571	-0.816271	-0.488268
C95	C	-0.068238	-0.482938	-0.154935
C96	C	0.265096	-0.149604	0.178398
C97	C	-0.401567	-0.925504	-0.488251
C98	C	-0.068233	-0.592171	-0.154918
C99	C	0.265100	-0.258837	0.178415
C100	C	-0.401402	-1.370528	-1.043344
C101	C	-0.068069	-1.037195	-0.710011
C102	C	0.265264	-0.703862	-0.376678
C103	C	-0.401436	-1.370509	-0.934114
C104	C	-0.068103	-1.037175	-0.600780
C105	C	0.265231	-0.703842	-0.267447
C106	C	-0.401577	-1.370382	-0.237638
C107	C	-0.068244	-1.037048	0.095696
C108	C	0.265090	-0.703715	0.429029
C109	C	-0.401374	-1.370551	-0.130412
C110	C	-0.068040	-1.037218	0.202921
C111	C	0.265293	-0.703885	0.536254
H112	H	-0.886236	-1.450891	-0.407952
H113	H	-0.552903	-1.117558	-0.074618
H114	H	-0.219570	-0.784225	0.258715
N115	N	-0.925103	-1.276776	-0.581853
N116	N	-0.591769	-0.943443	-0.248520
N117	N	-0.258436	-0.610109	0.084814
N118	N	-1.002841	-1.272370	-0.586317
N119	N	-0.669508	-0.939037	-0.252984
N120	N	-0.336174	-0.605703	0.080350
H121	H	-1.034352	-1.226058	-0.632589
H122	H	-0.701019	-0.892724	-0.299255
H123	H	-0.367686	-0.559391	0.034078
