data_functionalizedCrystal
_audit_creation_method	'MofGen! by Chris Wilmer'
_symmetry_space_group_name_H-M	'P1'
_symmetry_Int_Tables_number	1
_symmetry_cell_setting	triclinic
loop_
_symmetry_equiv_pos_as_xyz
  x,y,z
_cell_length_a	10.654550
_cell_length_b	10.868271
_cell_length_c	10.654550
_cell_angle_alpha	89.998743
_cell_angle_beta	95.515069
_cell_angle_gamma	90.001123
loop_
_atom_site_label
_atom_site_type_symbol
_atom_site_fract_x
_atom_site_fract_y
_atom_site_fract_z
O1	O	1.667842	0.102230	-0.176393
O2	O	1.302363	0.102253	-0.193199
O3	O	1.493505	0.102233	-0.002057
O4	O	1.476699	0.102250	-0.367535
O5	O	1.493488	-0.102412	-0.002063
O6	O	1.302346	-0.102392	-0.193205
O7	O	1.667824	-0.102415	-0.176399
Zn8	Zn	1.485082	-0.134895	-0.184803
Zn9	Zn	1.485105	0.134733	-0.184795
O10	O	1.476682	-0.102395	-0.367541
C11	C	1.255556	-0.000067	-0.191968
C12	C	1.116113	-0.000058	-0.188276
C13	C	1.036628	-0.000057	-0.300818
C14	C	0.905607	-0.000078	-0.297341
C15	C	0.933570	-0.000098	-0.068772
C16	C	1.064588	-0.000085	-0.072250
N17	N	1.485076	-0.318909	-0.184808
C18	C	1.485085	-0.430247	-0.184808
C19	C	1.485102	-0.569924	-0.184797
C20	C	1.714631	-0.000092	-0.177630
C21	C	1.854074	-0.000093	-0.181322
C22	C	1.492263	-0.000089	0.044738
C23	C	1.488571	-0.000086	0.184181
N24	N	1.485121	0.318747	-0.184780
C25	C	1.477925	-0.000071	-0.414336
C26	C	1.481616	-0.000065	-0.553779
C27	C	1.601112	-0.000093	0.263667
C28	C	1.597636	-0.000078	0.394688
C29	C	1.369066	-0.000055	0.366725
C30	C	1.372544	-0.000061	0.235706
H31	H	0.891602	-0.000127	0.025693
F32	F	1.091460	-0.000033	-0.424303
H33	H	1.280893	-0.000052	0.170985
F34	F	0.821017	-0.000079	-0.417124
H35	H	1.274601	-0.000036	0.408693
H36	H	1.129309	-0.000090	0.019401
F37	F	1.717418	-0.000082	0.479278
F38	F	1.724598	-0.000118	0.208835
