data_functionalizedCrystal
_audit_creation_method	'MofGen! by Chris Wilmer'
_symmetry_space_group_name_H-M	'P1'
_symmetry_Int_Tables_number	1
_symmetry_cell_setting	triclinic
loop_
_symmetry_equiv_pos_as_xyz
  x,y,z
_cell_length_a	13.339070
_cell_length_b	27.732048
_cell_length_c	12.376457
_cell_angle_alpha	101.176348
_cell_angle_beta	75.589755
_cell_angle_gamma	99.135974
loop_
_atom_site_label
_atom_site_type_symbol
_atom_site_fract_x
_atom_site_fract_y
_atom_site_fract_z
O1	O	1.358025	0.235161	-0.094094
O2	O	1.063992	0.203422	-0.094081
O3	O	1.220136	0.150154	-0.094066
O4	O	1.201881	0.288430	-0.094108
O5	O	1.181114	0.163448	0.093942
O6	O	1.024970	0.216716	0.093928
O7	O	1.319003	0.248455	0.093915
Zn8	Zn	1.165791	0.234696	0.123772
Zn9	Zn	1.217204	0.217181	-0.123938
O10	O	1.162859	0.301723	0.093900
C11	C	1.006875	0.204708	-0.000074
C12	C	0.894822	0.188727	-0.000068
C13	C	0.528098	0.312985	-0.000124
C14	C	0.633378	0.328001	-0.000133
C15	C	0.698744	0.293184	-0.000117
C16	C	0.658820	0.243348	-0.000092
C17	C	0.553531	0.228330	-0.000092
C18	C	0.724177	0.208529	-0.000084
C19	C	0.684253	0.158693	-0.000059
C20	C	0.578975	0.143677	-0.000058
C21	C	0.513609	0.178494	-0.000075
C22	C	0.829466	0.223547	-0.000084
C23	C	0.854899	0.138891	-0.000052
C24	C	0.749619	0.123875	-0.000042
C25	C	1.200241	0.138741	-0.000059
C26	C	1.199085	0.084928	-0.000049
C27	C	1.284103	-0.242187	-0.000111
C28	C	1.279823	-0.444437	-0.000127
O29	O	1.357565	-0.464994	-0.000180
N30	N	1.187233	-0.476309	-0.000122
C31	C	1.095708	-0.457617	-0.000120
O32	O	1.016858	-0.489367	-0.000127
C33	C	1.099990	-0.255368	-0.000112
C34	C	1.192584	-0.223497	-0.000106
C35	C	1.376689	-0.210317	-0.000106
C36	C	1.377757	-0.159757	-0.000096
C37	C	1.286238	-0.141067	-0.000091
C38	C	1.193652	-0.172937	-0.000096
C39	C	1.008468	-0.236676	-0.000119
C40	C	1.009548	-0.186111	-0.000120
C41	C	1.102141	-0.154240	-0.000114
C42	C	1.103201	-0.103687	-0.000081
N43	N	1.195791	-0.071815	-0.000086
C44	C	1.287310	-0.090505	-0.000091
C45	C	1.093465	-0.563800	-0.000122
C46	C	1.092394	-0.614362	-0.000121
C47	C	1.276510	-0.601179	-0.000130
C48	C	1.277578	-0.550616	-0.000122
C49	C	1.186055	-0.531928	-0.000127
C50	C	1.289545	0.015674	-0.000069
C51	C	1.290603	0.066238	-0.000054
C52	C	1.106489	0.053051	-0.000051
C53	C	1.105429	0.002491	-0.000060
C54	C	1.196966	-0.016195	-0.000073
O55	O	1.025503	-0.083098	-0.000041
O56	O	1.366153	-0.058748	-0.000109
C57	C	1.283035	-0.292747	-0.000121
C58	C	1.190449	-0.324617	-0.000126
C59	C	1.098930	-0.305927	-0.000121
C60	C	1.189377	-0.375179	-0.000126
C61	C	1.280896	-0.393869	-0.000131
C62	C	1.373486	-0.361997	-0.000136
C63	C	1.374554	-0.311437	-0.000126
C64	C	1.006340	-0.337799	-0.000116
C65	C	1.005279	-0.388358	-0.000125
C66	C	1.096798	-0.407048	-0.000130
C67	C	1.376121	0.247169	-0.000094
C68	C	1.488175	0.263150	-0.000107
C69	C	1.182754	0.313136	-0.000110
C70	C	1.183912	0.366948	-0.000126
N71	N	1.130710	0.246650	0.292827
N72	N	1.252293	0.205224	-0.292993
C73	C	1.333726	0.177465	0.647831
C74	C	1.358274	0.169097	0.529493
C75	C	1.301385	0.188485	0.470321
C76	C	1.219945	0.216241	0.529497
C77	C	1.195400	0.224613	0.647847
C78	C	1.163058	0.235633	0.470337
C79	C	1.081618	0.263390	0.529513
C80	C	1.057077	0.271760	0.647851
C81	C	1.113967	0.252372	0.707023
C82	C	1.187603	0.227261	0.351987
C83	C	1.049277	0.274410	0.352003
C84	C	1.024729	0.282777	0.470341
H85	H	0.665878	0.368577	-0.000163
C86	C	1.446338	0.138784	0.465044
C87	C	1.455520	0.135518	0.348742
C88	C	1.536490	0.107506	0.289335
H89	H	1.431547	0.106507	0.484535
H90	H	1.509835	0.154282	0.484136
H91	H	1.392036	0.120019	0.329658
H92	H	1.470326	0.167787	0.329217
H93	H	1.599988	0.123003	0.308427
H94	H	1.521692	0.075230	0.308836
H95	H	1.542737	0.105290	0.210419
C96	C	0.813104	0.309442	-0.000352
C97	C	0.874952	0.284515	-0.097079
C98	C	0.980308	0.299487	-0.097337
H99	H	0.828151	0.301848	0.065143
H100	H	0.827574	0.344104	-0.000429
H101	H	0.860488	0.249861	-0.096992
H102	H	0.859937	0.292106	-0.162590
H103	H	0.994778	0.334149	-0.097414
H104	H	0.995344	0.291892	-0.031838
H105	H	1.022284	0.282580	-0.162970
C106	C	0.904833	-0.423034	-0.000078
C107	C	0.923466	-0.471316	-0.000065
C108	C	0.830963	-0.503270	-0.000020
H109	H	0.880723	-0.422143	-0.065624
H110	H	0.853556	-0.412853	0.065510
H111	H	0.974725	-0.481494	-0.065646
H112	H	0.947561	-0.472223	0.065476
H113	H	0.779686	-0.493089	0.065568
H114	H	0.806860	-0.502374	-0.065567
H115	H	0.843590	-0.536032	-0.000001
H116	H	1.380043	0.161685	0.696016
C117	C	0.907844	-0.271195	-0.000190
C118	C	0.827946	-0.243997	-0.000222
C119	C	0.735235	-0.275779	-0.000305
H120	H	0.889835	-0.286578	0.065351
H121	H	0.917158	-0.295818	-0.065783
H122	H	0.818632	-0.219383	0.065364
H123	H	0.845921	-0.228615	-0.065758
H124	H	0.744549	-0.300403	-0.065898
H125	H	0.717236	-0.291161	0.065237
H126	H	0.681016	-0.257331	-0.000337
H127	H	1.352976	-0.524669	-0.000118
C128	C	0.457216	0.350848	0.000026
C129	C	0.455085	0.386886	0.096725
C130	C	0.389812	0.421780	0.096891
H131	H	0.388751	0.334834	0.000084
H132	H	0.482866	0.366093	-0.065511
H133	H	0.429431	0.371642	0.162246
H134	H	0.523534	0.402912	0.096688
H135	H	0.415461	0.437025	0.031354
H136	H	0.321351	0.405762	0.096946
H137	H	0.388364	0.446238	0.162494
H138	H	1.253912	0.204662	0.303816
C139	C	1.004878	-0.032119	0.000175
C140	C	0.978790	-0.054696	0.096904
C141	C	0.886163	-0.086573	0.097156
H142	H	1.014125	-0.056786	-0.065318
H143	H	0.950486	-0.013755	0.000245
H144	H	1.033169	-0.073059	0.096824
H145	H	0.969522	-0.030041	0.162414
H146	H	0.831770	-0.068209	0.097226
H147	H	0.895419	-0.111237	0.031658
H148	H	0.868445	-0.101892	0.162790
H149	H	1.093978	0.259183	0.803384
C150	C	0.910255	-0.165810	-0.000354
C151	C	0.925557	-0.144010	-0.097090
C152	C	0.834109	-0.125310	-0.097349
H153	H	0.893149	-0.141703	0.065135
H154	H	0.854946	-0.192026	-0.000419
H155	H	0.980849	-0.117797	-0.097014
H156	H	0.942649	-0.168107	-0.162594
H157	H	0.778800	-0.151526	-0.097414
H158	H	0.817011	-0.101205	-0.031856
H159	H	0.844477	-0.110521	-0.162988
H160	H	0.717100	0.083297	-0.000031
C161	C	0.535813	0.089551	0.000019
C162	C	0.615580	0.062274	0.000064
C163	C	0.575857	0.012413	0.000151
H164	H	0.508893	0.077230	-0.065524
H165	H	0.481684	0.086550	0.065610
H166	H	0.669690	0.065272	-0.065520
H167	H	0.642507	0.074579	0.065603
H168	H	0.521728	0.009413	0.065742
H169	H	0.548938	0.000098	-0.065393
H170	H	0.629969	-0.006099	0.000192
H171	H	0.427880	0.166270	-0.000067
H172	H	0.908122	0.110540	-0.000043
H173	H	1.366007	0.092186	-0.000046
C174	C	1.478408	-0.125243	-0.000158
C175	C	1.558322	-0.152445	-0.000196
C176	C	1.651065	-0.120672	-0.000271
H177	H	1.469204	-0.100602	0.065387
H178	H	1.496325	-0.109885	-0.065747
H179	H	1.540409	-0.167794	0.065387
H180	H	1.567559	-0.177084	-0.065736
H181	H	1.668982	-0.105314	-0.065861
H182	H	1.641850	-0.096032	0.065274
H183	H	1.705300	-0.139124	-0.000308
H184	H	0.990772	0.294366	0.696033
H185	H	0.861960	0.264124	-0.000100
C186	C	0.936241	0.312905	0.534393
C187	C	0.891649	0.328083	0.457255
C188	C	0.810121	0.355831	0.516218
H189	H	0.962542	0.341159	0.580550
H190	H	0.884870	0.293172	0.580548
H191	H	0.943010	0.347816	0.411119
H192	H	0.865326	0.299840	0.411096
H193	H	0.758751	0.336098	0.562373
H194	H	0.836432	0.384083	0.562373
H195	H	0.779850	0.366129	0.463889
C196	C	1.007093	0.073270	-0.000231
C197	C	0.971367	0.050156	-0.096949
C198	C	0.879801	0.068765	-0.097156
H199	H	1.020870	0.107940	-0.000288
H200	H	0.955426	0.066893	0.065294
H201	H	1.023022	0.056537	-0.162456
H202	H	0.957567	0.015487	-0.096912
H203	H	0.828135	0.062389	-0.031632
H204	H	0.893588	0.103435	-0.097211
H205	H	0.855545	0.053082	-0.162773
C206	C	1.472756	-0.382394	-0.000203
C207	C	1.451994	-0.433498	-0.000242
C208	C	1.543414	-0.452308	-0.000327
H209	H	1.497234	-0.366827	0.065338
H210	H	1.524375	-0.376062	-0.065796
H211	H	1.400392	-0.439826	0.065344
H212	H	1.427529	-0.449077	-0.065779
H213	H	1.595033	-0.445976	-0.065919
H214	H	1.567885	-0.436738	0.065216
H215	H	1.529342	-0.486985	-0.000363
H216	H	1.364084	0.000466	-0.000084
C217	C	1.476080	-0.230646	-0.000342
C218	C	1.500956	-0.266112	-0.097080
C219	C	1.592521	-0.284839	-0.097334
H220	H	1.466001	-0.245500	0.065146
H221	H	1.531407	-0.204434	-0.000401
H222	H	1.445643	-0.292319	-0.097010
H223	H	1.511056	-0.251269	-0.162583
H224	H	1.647847	-0.258627	-0.097393
H225	H	1.582433	-0.299690	-0.031842
H226	H	1.609416	-0.308901	-0.162974
C227	C	1.328125	0.179499	0.341839
C228	C	1.355931	0.224949	0.302658
C229	C	1.380586	0.216688	0.184303
H230	H	1.269321	0.162355	0.314943
H231	H	1.384810	0.160214	0.315026
H232	H	1.299251	0.244227	0.329460
H233	H	1.414740	0.242100	0.329523
H234	H	1.437271	0.197403	0.157490
H235	H	1.321778	0.199543	0.157419
H236	H	1.399464	0.247524	0.157704
C237	C	0.987695	0.295497	0.287630
C238	C	1.055103	0.327434	0.219642
C239	C	0.998422	0.346864	0.160308
H240	H	0.935681	0.313264	0.339692
H241	H	0.955545	0.269244	0.241416
H242	H	1.087236	0.353682	0.265852
H243	H	1.107117	0.309678	0.167559
H244	H	0.966273	0.320611	0.114094
H245	H	0.946411	0.364628	0.212379
H246	H	1.044152	0.368531	0.114164
H247	H	1.351028	-0.616405	-0.000134
H248	H	1.016991	-0.640306	-0.000107
H249	H	1.449953	-0.285492	-0.000122
H250	H	1.018931	-0.548590	-0.000125
H251	H	0.931813	-0.322588	-0.000114
