data_functionalizedCrystal
_audit_creation_method	'MofGen! by Chris Wilmer'
_symmetry_space_group_name_H-M	'P1'
_symmetry_Int_Tables_number	1
_symmetry_cell_setting	triclinic
loop_
_symmetry_equiv_pos_as_xyz
  x,y,z
_cell_length_a	14.908571
_cell_length_b	18.050589
_cell_length_c	14.908308
_cell_angle_alpha	93.269302
_cell_angle_beta	90.175053
_cell_angle_gamma	86.724558
loop_
_atom_site_label
_atom_site_type_symbol
_atom_site_fract_x
_atom_site_fract_y
_atom_site_fract_z
Zn1	Zn	1.345230	-0.387558	-0.587600
Zn2	Zn	1.353791	-0.505024	-0.437245
Zn3	Zn	1.203548	-0.373294	-0.428597
Zn4	Zn	1.194819	-0.504142	-0.578897
O5	O	1.274347	-0.442504	-0.508085
O6	O	1.472191	-0.409479	-0.574916
O7	O	1.341097	-0.481949	-0.310273
O8	O	1.222413	-0.271266	-0.449712
O9	O	1.478480	-0.495781	-0.464452
O10	O	1.326506	-0.281746	-0.566530
O11	O	1.230714	-0.385168	-0.303919
O12	O	1.076565	-0.384312	-0.441273
O13	O	1.207536	-0.494277	-0.705876
O14	O	1.070152	-0.480446	-0.551698
O15	O	1.318042	-0.408624	-0.712270
O16	O	1.332633	-0.608827	-0.456013
O17	O	1.215836	-0.608179	-0.560084
C18	C	1.040734	-0.430736	-0.494603
C19	C	0.940791	-0.425720	-0.488857
C20	C	0.746369	-0.516539	-0.592890
C21	C	0.652464	-0.511829	-0.587494
C22	C	0.659075	-0.411586	-0.472674
C23	C	0.752980	-0.416296	-0.478070
C24	C	0.796623	-0.468775	-0.538179
C25	C	0.890530	-0.473489	-0.543570
C26	C	0.897139	-0.373243	-0.428755
C27	C	0.803235	-0.368533	-0.423359
C28	C	1.274239	-0.635451	-0.508063
C29	C	1.274274	-0.717999	-0.508089
C30	C	1.210820	-0.917126	-0.564665
C31	C	1.193639	-0.961795	-0.481356
C32	C	1.274362	-0.869134	-0.508106
C33	C	1.291586	-0.971550	-0.591427
C34	C	1.274444	-1.015125	-0.508129
C35	C	1.257140	-0.912712	-0.424750
C36	C	1.355122	-0.922467	-0.534880
C37	C	1.337975	-0.967112	-0.451515
C38	C	1.274312	-0.785033	-0.508094
C39	C	1.274495	-1.099224	-0.508132
C40	C	1.508873	-0.454320	-0.521619
C41	C	1.608814	-0.459355	-0.527387
C42	C	1.260860	-0.452943	-0.742610
C43	C	1.255113	-0.457391	-0.842551
C44	C	1.274479	-0.248807	-0.508127
C45	C	1.274535	-0.166265	-0.508145
C46	C	1.359381	-0.376542	-1.037010
C47	C	1.353984	-0.380719	-1.130914
C48	C	1.238917	-0.469919	-1.124263
C49	C	1.244314	-0.465741	-1.030360
C50	C	1.304549	-0.419052	-0.986737
C51	C	1.309951	-0.414880	-0.892832
C52	C	1.194880	-0.504075	-0.886183
C53	C	1.189483	-0.508252	-0.980086
C54	C	1.287833	-0.432055	-0.274474
C55	C	1.293755	-0.427407	-0.174544
H56	H	0.781904	-0.559273	-0.641828
F57	F	1.104418	-0.984593	-0.451761
H58	H	0.623524	-0.368856	-0.423742
H59	H	1.423362	-0.905010	-0.557544
F60	F	0.756776	-0.312681	-0.359394
H61	H	0.611550	-0.550721	-0.632047
H62	H	1.358998	-0.376864	-0.857315
H63	H	1.306123	-0.997236	-0.661882
H64	H	0.926063	-0.516221	-0.592512
H65	H	1.140439	-0.546263	-1.015617
F66	F	0.950631	-0.322411	-0.370518
H67	H	1.157015	-0.895182	-0.612419
F68	F	1.238039	-0.879252	-0.332629
H69	H	1.391749	-0.988912	-0.403636
H70	H	1.408431	-0.338530	-1.001492
F71	F	1.412342	-0.335473	-1.184416
H72	H	1.150234	-0.538692	-0.845240
F73	F	1.174810	-0.519599	-1.170705
