data_functionalizedCrystal
_audit_creation_method	'MofGen! by Chris Wilmer'
_symmetry_space_group_name_H-M	'P1'
_symmetry_Int_Tables_number	1
_symmetry_cell_setting	triclinic
loop_
_symmetry_equiv_pos_as_xyz
  x,y,z
_cell_length_a	26.374263
_cell_length_b	26.373608
_cell_length_c	26.370205
_cell_angle_alpha	60.005297
_cell_angle_beta	60.010839
_cell_angle_gamma	59.993700
loop_
_atom_site_label
_atom_site_type_symbol
_atom_site_fract_x
_atom_site_fract_y
_atom_site_fract_z
O1	O	0.070152	-0.740800	0.619517
O2	O	0.026377	-0.576764	0.499159
O3	O	0.130245	-0.680560	0.499088
O4	O	-0.033715	-0.637003	0.619589
O5	O	0.164701	-0.646107	0.533470
O6	O	0.060833	-0.542310	0.533541
O7	O	0.104608	-0.706346	0.653899
Cu8	Cu	0.085867	-0.621182	0.596859
Cu9	Cu	0.045119	-0.661927	0.556199
O10	O	0.000741	-0.602549	0.653971
N11	N	0.114528	-0.592529	0.625461
N12	N	0.016463	-0.690587	0.527598
C13	C	0.181428	-0.355400	0.692330
C14	C	0.181530	-0.525690	0.862573
C15	C	0.181440	-0.525667	0.692313
C16	C	0.351736	-0.525673	0.692271
C17	C	0.200174	-0.411588	0.711047
C18	C	0.200232	-0.506954	0.806384
C19	C	0.295546	-0.506943	0.711016
C20	C	0.200182	-0.506940	0.711037
C21	C	0.157567	-0.283881	0.668507
C22	C	0.157587	-0.549500	0.668479
C23	C	0.224035	-0.483107	0.734871
C24	C	0.455739	-0.507754	0.637520
C25	C	0.520749	-0.529425	0.615835
C26	C	0.520768	-0.634611	0.655947
C27	C	0.455759	-0.612939	0.677633
C28	C	0.173240	-0.251367	0.604595
C29	C	0.151546	-0.186351	0.582941
C30	C	0.098512	-0.186369	0.689113
C31	C	0.120206	-0.251385	0.710768
C32	C	0.093669	-0.533798	0.684205
C33	C	0.071992	-0.555464	0.662532
C34	C	0.178144	-0.608536	0.609422
C35	C	0.199825	-0.586869	0.631088
C36	C	0.093821	-0.533842	0.966616
C37	C	0.072187	-0.555526	1.031630
C38	C	0.178370	-0.608608	1.031591
C39	C	0.200004	-0.586926	0.966576
C40	C	0.157728	-0.549541	0.934090
C41	C	0.423247	-0.549509	0.668416
C42	C	-0.097522	-0.709158	0.508557
C43	C	-0.002050	-0.709295	0.413344
C44	C	-0.002241	-0.804604	0.508735
C45	C	-0.002225	-0.709288	0.508793
C46	C	-0.026009	-0.733087	0.484858
N47	N	0.552340	-0.592538	0.625346
O48	O	0.750867	-0.598274	0.477076
O49	O	0.751048	-0.718989	0.640960
O50	O	0.750981	-0.718715	0.537020
O51	O	0.750934	-0.598547	0.581017
O52	O	0.647701	-0.684348	0.571512
O53	O	0.647768	-0.684622	0.675452
O54	O	0.647587	-0.563907	0.511569
Cu55	Cu	0.638247	-0.621127	0.596660
Cu56	Cu	0.760388	-0.661769	0.555869
O57	O	0.647654	-0.564181	0.615509
N58	N	0.846295	-0.690358	0.527176
N59	N	0.114503	-0.154778	0.625499
O60	O	-0.033701	0.043855	0.619632
O61	O	0.130190	0.043858	0.498933
O62	O	0.026233	0.043841	0.499224
O63	O	0.070257	0.043872	0.619341
O64	O	0.060690	-0.059448	0.533654
O65	O	0.164647	-0.059431	0.533363
O66	O	0.000756	-0.059434	0.654062
Cu67	Cu	0.085848	-0.068863	0.596857
Cu68	Cu	0.045099	0.053287	0.556138
O69	O	0.104714	-0.059417	0.653771
N70	N	0.016435	0.139202	0.527497
N71	N	0.114760	-0.592585	1.063190
O72	O	0.108896	-0.740779	1.261808
O73	O	-0.011787	-0.576838	1.261822
O74	O	-0.011509	-0.680779	1.261780
O75	O	0.108618	-0.636838	1.261850
O76	O	0.022916	-0.646341	1.158496
O77	O	0.022638	-0.542399	1.158538
O78	O	0.143321	-0.706341	1.158524
Cu79	Cu	0.086123	-0.621225	1.149100
Cu80	Cu	0.045411	-0.661953	1.271246
O81	O	0.143044	-0.602399	1.158566
N82	N	0.016774	-0.690600	1.357156
C83	C	0.039504	-0.538867	0.499769
C84	C	0.168130	-0.667407	0.499680
C85	C	0.091482	-0.744243	0.653289
C86	C	-0.037145	-0.615703	0.653378
C87	C	0.699429	-0.718429	0.678853
C88	C	0.699348	-0.718091	0.550135
C89	C	0.699202	-0.564465	0.473677
C90	C	0.699287	-0.564805	0.602393
C91	C	0.168023	-0.007659	0.499484
C92	C	0.039327	-0.007807	0.499887
C93	C	-0.037119	-0.007789	0.653468
C94	C	0.091620	-0.007770	0.653109
C95	C	-0.011194	-0.538964	1.210181
C96	C	-0.010843	-0.667676	1.210109
C97	C	0.142729	-0.744214	1.210165
C98	C	0.142386	-0.615494	1.210214
H99	H	0.020147	-0.542732	1.058106
C100	C	-0.061171	-0.680065	1.209926
C101	C	-0.077694	-0.637733	1.156773
C102	C	-0.124060	-0.649122	1.156589
H103	H	-0.046060	-0.721157	1.209872
H104	H	-0.096533	-0.675402	1.245909
H105	H	-0.042338	-0.642402	1.120800
H106	H	-0.092816	-0.596638	1.156816
H107	H	-0.159422	-0.644458	1.192572
H108	H	-0.108944	-0.690214	1.156537
H109	H	-0.135280	-0.620398	1.120528
C110	C	0.103823	-0.807076	0.703720
C111	C	0.061475	-0.834406	0.720291
C112	C	0.072819	-0.892284	0.766751
H113	H	0.144906	-0.833160	0.688676
H114	H	0.099151	-0.801711	0.739046
H115	H	0.066152	-0.839774	0.684972
H116	H	0.020388	-0.808339	0.735346
H117	H	0.068147	-0.886919	0.802078
H118	H	0.113903	-0.918362	0.751703
H119	H	0.044084	-0.910831	0.778005
H120	H	0.180620	-0.791296	1.210154
H121	H	-0.084239	-0.606419	0.691217
H122	H	0.030155	-0.491745	0.461969
C123	C	0.192800	-0.603017	1.210134
C124	C	0.244773	-0.609904	1.157006
C125	C	0.291230	-0.598423	1.156916
H126	H	0.177714	-0.561900	1.210111
H127	H	0.204153	-0.631686	1.246134
H128	H	0.233421	-0.581236	1.121016
H129	H	0.259877	-0.651018	1.157019
H130	H	0.302583	-0.627092	1.192915
H131	H	0.276138	-0.557305	1.156893
H132	H	0.326501	-0.603100	1.120872
C133	C	0.047820	-0.493282	0.931461
C134	C	-0.012777	-0.484187	0.973864
C135	C	-0.055168	-0.446836	0.941502
H136	H	0.053969	-0.454278	0.906102
H137	H	0.054015	-0.513127	0.906111
H138	H	-0.018970	-0.464341	0.999203
H139	H	-0.018946	-0.523179	0.999225
H140	H	-0.048973	-0.466681	0.916151
H141	H	-0.049014	-0.407836	0.916143
H142	H	-0.096288	-0.440665	0.970266
C143	C	-0.061698	-0.476153	1.210055
C144	C	-0.078196	-0.448893	1.156898
C145	C	-0.124711	-0.391028	1.156756
H146	H	-0.097039	-0.481504	1.246022
H147	H	-0.046711	-0.450033	1.210037
H148	H	-0.093184	-0.475007	1.156921
H149	H	-0.042869	-0.443526	1.120922
H150	H	-0.109724	-0.364908	1.156739
H151	H	-0.160048	-0.396385	1.192726
H152	H	-0.135907	-0.372522	1.120687
C153	C	-0.099826	-0.007912	0.704059
C154	C	-0.091625	-0.061052	0.755992
C155	C	-0.149378	-0.061190	0.802603
H156	H	-0.118456	0.028070	0.715414
H157	H	-0.125934	-0.007952	0.689096
H158	H	-0.065526	-0.061007	0.770954
H159	H	-0.073004	-0.097043	0.744657
H160	H	-0.175486	-0.061229	0.787639
H161	H	-0.168003	-0.025205	0.813952
H162	H	-0.143821	-0.097247	0.837842
C163	C	0.224369	-0.649214	1.066749
C164	C	0.284967	-0.658335	1.024349
C165	C	0.327356	-0.695751	1.056714
H166	H	0.218219	-0.629425	1.092120
H167	H	0.218172	-0.688206	1.092088
H168	H	0.291161	-0.619350	0.999021
H169	H	0.291137	-0.678131	0.998977
H170	H	0.321159	-0.734743	1.082053
H171	H	0.321200	-0.675958	1.082084
H172	H	0.368476	-0.701949	1.027951
H173	H	0.252044	-0.599714	0.940097
C174	C	0.104258	-0.007898	0.703453
C175	C	0.154202	-0.061045	0.717580
C176	C	0.165855	-0.061192	0.763963
H177	H	0.114150	0.028079	0.689172
H178	H	0.068391	-0.007934	0.739623
H179	H	0.190061	-0.061004	0.681418
H180	H	0.144323	-0.097031	0.731871
H181	H	0.129988	-0.061228	0.800132
H182	H	0.175744	-0.025212	0.749677
H183	H	0.199739	-0.097254	0.773557
H184	H	0.059274	-0.503369	0.714648
C185	C	0.230971	-0.679892	0.449309
C186	C	0.269247	-0.740496	0.471667
C187	C	0.327143	-0.752017	0.425286
H188	H	0.225637	-0.675272	0.413993
H189	H	0.249621	-0.651221	0.438003
H190	H	0.250602	-0.769159	0.482965
H191	H	0.274600	-0.745131	0.506977
H192	H	0.345793	-0.723345	0.413980
H193	H	0.321802	-0.747393	0.389974
H194	H	0.353122	-0.793134	0.440452
C195	C	0.699365	-0.514558	0.614996
C196	C	0.752518	-0.535839	0.629487
C197	C	0.752607	-0.489572	0.641108
H198	H	0.699352	-0.478379	0.579145
H199	H	0.663385	-0.504923	0.648912
H200	H	0.788489	-0.545465	0.595573
H201	H	0.752542	-0.572011	0.665341
H202	H	0.716626	-0.479937	0.675025
H203	H	0.752592	-0.453396	0.605255
H204	H	0.788667	-0.504006	0.650947
H205	H	0.699142	-0.526565	0.426612
C206	C	0.002571	-0.538383	0.679701
C207	C	-0.029781	-0.501041	0.717106
C208	C	-0.093731	-0.485304	0.732942
H209	H	-0.008200	-0.516285	0.643001
H210	H	-0.008094	-0.575142	0.701783
H211	H	-0.019121	-0.464289	0.695024
H212	H	-0.019028	-0.523127	0.753814
H213	H	-0.104396	-0.522062	0.755024
H214	H	-0.104496	-0.463207	0.696239
H215	H	-0.115690	-0.459970	0.758328
H216	H	0.699474	-0.756325	0.725922
H217	H	0.214995	-0.007372	0.461496
C218	C	0.026664	-0.007871	0.449665
C219	C	-0.033956	-0.007901	0.472196
C220	C	-0.045636	-0.007978	0.425956
H221	H	0.031231	0.028129	0.414309
H222	H	0.055291	-0.043913	0.438379
H223	H	-0.062575	0.028138	0.483473
H224	H	-0.038537	-0.043898	0.507547
H225	H	-0.017009	-0.044021	0.414670
H226	H	-0.041066	0.028023	0.390602
H227	H	-0.086765	-0.008004	0.441238
C228	C	0.699272	-0.768454	0.537704
C229	C	0.646181	-0.785052	0.580033
C230	C	0.646094	-0.831450	0.568606
H231	H	0.699204	-0.753343	0.496616
H232	H	0.735294	-0.803786	0.542338
H233	H	0.610168	-0.749727	0.575394
H234	H	0.646237	-0.800174	0.621125
H235	H	0.682116	-0.866783	0.573240
H236	H	0.646028	-0.816335	0.527517
H237	H	0.610075	-0.842722	0.597328
H238	H	0.251872	-0.599651	0.618278
C239	C	0.224040	-0.649003	0.568724
C240	C	0.261298	-0.616339	0.514591
C241	C	0.303578	-0.653591	0.477081
H242	H	0.249480	-0.685777	0.590689
H243	H	0.202002	-0.659648	0.558024
H244	H	0.283334	-0.605703	0.525292
H245	H	0.235876	-0.579568	0.492610
H246	H	0.281540	-0.664236	0.466380
H247	H	0.329013	-0.690363	0.499051
H248	H	0.328858	-0.631432	0.440345
C249	C	0.420596	-0.658371	0.711136
C250	C	0.462990	-0.718554	0.714546
C251	C	0.430621	-0.760423	0.745397
H252	H	0.395250	-0.656796	0.751892
H253	H	0.395234	-0.647528	0.688987
H254	H	0.488342	-0.729394	0.736696
H255	H	0.488338	-0.720149	0.673800
H256	H	0.405259	-0.749580	0.723248
H257	H	0.405276	-0.758843	0.786150
H258	H	0.459380	-0.801261	0.747710
H259	H	0.547206	-0.495421	0.590679
C260	C	0.420516	-0.438857	0.627389
C261	C	0.436317	-0.405598	0.563634
C262	C	0.403891	-0.342129	0.554276
H263	H	0.377135	-0.431837	0.644670
H264	H	0.431195	-0.425380	0.647001
H265	H	0.425634	-0.419069	0.544030
H266	H	0.479692	-0.412598	0.546340
H267	H	0.414569	-0.328652	0.573888
H268	H	0.360511	-0.335116	0.571560
H269	H	0.414611	-0.319554	0.511019
C270	C	0.213768	-0.286535	0.558613
C271	C	0.222831	-0.244142	0.498004
C272	C	0.260156	-0.276519	0.455631
H273	H	0.252779	-0.311897	0.564761
H274	H	0.193920	-0.311885	0.564828
H275	H	0.242680	-0.218802	0.491791
H276	H	0.183832	-0.218778	0.491836
H277	H	0.240308	-0.301869	0.461846
H278	H	0.299164	-0.301880	0.461784
H279	H	0.266305	-0.247760	0.414503
H280	H	0.547237	-0.686258	0.663446
H281	H	0.164306	-0.159876	0.530897
H282	H	0.107441	-0.277854	0.762810
C283	C	0.057935	-0.151196	0.735094
C284	C	0.048849	-0.193589	0.795702
C285	C	0.011465	-0.161213	0.838076
H286	H	0.077732	-0.125829	0.728922
H287	H	0.018934	-0.125851	0.728902
H288	H	0.087842	-0.218924	0.801892
H289	H	0.029045	-0.218958	0.801893
H290	H	-0.027536	-0.135867	0.831884
H291	H	0.031266	-0.135847	0.831899
H292	H	0.005290	-0.189971	0.879203
