data_functionalizedCrystal
_audit_creation_method	'MofGen! by Chris Wilmer'
_symmetry_space_group_name_H-M	'P1'
_symmetry_Int_Tables_number	1
_symmetry_cell_setting	triclinic
loop_
_symmetry_equiv_pos_as_xyz
  x,y,z
_cell_length_a	15.995343
_cell_length_b	15.995350
_cell_length_c	13.101039
_cell_angle_alpha	93.364563
_cell_angle_beta	86.646735
_cell_angle_gamma	83.490779
loop_
_atom_site_label
_atom_site_type_symbol
_atom_site_fract_x
_atom_site_fract_y
_atom_site_fract_z
O1	O	1.115590	0.103280	-0.085106
O2	O	0.871815	0.116613	-0.085130
O3	O	1.000366	-0.011941	-0.085117
O4	O	0.987039	0.231834	-0.085120
O5	O	0.991143	-0.002702	0.085312
O6	O	0.862592	0.125852	0.085298
O7	O	1.106367	0.112519	0.085322
Zn8	Zn	0.983015	0.120652	0.112370
Zn9	Zn	0.995167	0.108480	-0.112178
O10	O	0.977815	0.241073	0.085309
C11	C	0.836009	0.120682	0.000081
C12	C	0.743058	0.119032	0.000072
C13	C	0.572871	0.116040	0.000085
C14	C	0.549526	0.023243	0.000086
C15	C	0.452826	0.021518	0.000479
C16	C	0.405311	0.113092	0.000098
C17	C	0.429146	0.165017	0.097227
C18	C	0.525934	0.166121	0.097302
C19	C	0.536334	0.156974	-0.096514
C20	C	0.439908	0.153479	-0.097785
C21	C	0.310612	0.111431	0.000108
C22	C	0.667569	0.117704	0.000082
C23	C	0.995204	-0.038517	0.000096
C24	C	0.993552	-0.131467	0.000090
C25	C	0.987620	-0.469215	0.000093
C26	C	0.896089	-0.421799	-0.000299
C27	C	0.897720	-0.325088	0.000086
C28	C	0.990562	-0.301654	0.000091
C29	C	1.030452	-0.337457	0.097416
C30	C	1.028148	-0.434088	0.097498
C31	C	1.040528	-0.444953	-0.096312
C32	C	1.040576	-0.348077	-0.097598
C33	C	0.992230	-0.206957	0.000093
C34	C	0.985954	-0.563912	0.000097
C35	C	1.142173	0.108449	0.000109
C36	C	1.235124	0.110099	0.000111
C37	C	0.982978	0.267648	0.000094
C38	C	0.984630	0.360599	0.000093
N39	N	0.974727	0.128959	0.265617
N40	N	1.003461	0.100166	-0.265425
C41	C	0.963452	0.140269	0.474659
C42	C	1.014734	0.088859	0.525540
C43	C	1.008460	0.095152	0.641858
C44	C	0.969725	0.133977	0.358330
H45	H	0.548776	0.138136	0.170185
H46	H	0.540283	0.234397	0.101455
Cl47	Cl	0.888399	0.215518	0.542272
H48	H	0.855903	-0.437630	0.069100
Cl49	Cl	1.131551	-0.483513	0.104336
Cl50	Cl	0.429275	-0.040700	-0.106997
H51	H	0.405127	0.136936	0.169786
Cl52	Cl	0.588459	-0.025569	0.107466
Cl53	Cl	0.996038	-0.311543	-0.208778
Cl54	Cl	0.598586	-0.038125	-0.107435
H55	H	0.430599	-0.011039	0.070513
H56	H	1.014587	-0.469490	-0.170079
H57	H	0.866000	-0.300447	-0.069682
Cl58	Cl	0.379701	0.269374	0.102387
H59	H	0.568589	0.123704	-0.170158
H60	H	1.063350	0.040120	0.481743
H61	H	0.425239	0.115604	-0.169642
H62	H	1.098465	-0.323137	0.101039
Cl63	Cl	0.389549	0.256154	-0.107302
H64	H	0.550398	0.225227	-0.097451
H65	H	0.858203	-0.293434	0.069965
Cl66	Cl	0.845419	-0.456248	-0.108057
Cl67	Cl	0.975978	-0.287580	0.209235
Cl68	Cl	1.145598	-0.324852	-0.106673
Cl69	Cl	0.971226	-0.456258	0.209812
Cl70	Cl	1.144797	-0.494048	-0.097320
