data_functionalizedCrystal
_audit_creation_method	'MofGen! by Chris Wilmer'
_symmetry_space_group_name_H-M	'P1'
_symmetry_Int_Tables_number	1
_symmetry_cell_setting	triclinic
loop_
_symmetry_equiv_pos_as_xyz
  x,y,z
_cell_length_a	10.654550
_cell_length_b	9.730223
_cell_length_c	10.654550
_cell_angle_alpha	90.002824
_cell_angle_beta	84.484931
_cell_angle_gamma	90.000242
loop_
_atom_site_label
_atom_site_type_symbol
_atom_site_fract_x
_atom_site_fract_y
_atom_site_fract_z
O1	O	1.667840	0.114187	0.176396
O2	O	1.302361	0.114212	0.193202
O3	O	1.493503	0.114190	0.002060
O4	O	1.476697	0.114209	0.367538
O5	O	1.493490	-0.114390	0.002060
O6	O	1.302348	-0.114368	0.193202
O7	O	1.667826	-0.114393	0.176396
Zn8	Zn	1.485085	-0.150672	0.184799
Zn9	Zn	1.485103	0.150492	0.184799
O10	O	1.476684	-0.114371	0.367538
C11	C	1.255556	-0.000075	0.191968
C12	C	1.116113	-0.000065	0.188276
N13	N	1.485082	-0.356209	0.184798
C14	C	1.036628	-0.000064	0.300818
C15	C	0.905607	-0.000088	0.297341
C16	C	0.933570	-0.000109	0.068772
C17	C	1.064588	-0.000095	0.072250
C18	C	1.561913	-0.428131	0.261680
C19	C	1.561934	-0.572014	0.261673
C20	C	1.408281	-0.572040	0.107899
C21	C	1.408268	-0.428159	0.107900
C22	C	1.714631	-0.000103	0.177630
C23	C	1.854074	-0.000104	0.181322
C24	C	1.492263	-0.000099	-0.044738
C25	C	1.488571	-0.000096	-0.184181
N26	N	1.485116	0.356028	0.184790
C27	C	1.601112	-0.000104	-0.263667
C28	C	1.597636	-0.000087	-0.394688
C29	C	1.369066	-0.000061	-0.366725
C30	C	1.372544	-0.000068	-0.235706
C31	C	1.477925	-0.000079	0.414336
C32	C	1.481616	-0.000072	0.553779
H33	H	1.078574	-0.000049	0.395294
O34	O	0.828575	-0.000020	0.406782
C35	C	0.902154	-0.000028	0.509928
H36	H	0.999642	0.043258	0.478899
H37	H	0.854514	0.066339	0.588849
H38	H	0.911803	-0.109683	0.545444
O39	O	1.256334	0.000200	-0.416722
C40	C	1.187656	0.118573	-0.376169
H41	H	1.255487	0.201308	-0.348326
H42	H	1.133536	0.158318	-0.455989
H43	H	1.118412	0.091812	-0.291404
H44	H	1.624460	-0.369553	0.324296
O45	O	1.636599	-0.641666	0.336477
C46	C	1.704415	-0.547301	0.404319
H47	H	1.652475	-0.444747	0.411164
H48	H	1.713059	-0.588868	0.503152
H49	H	1.802545	-0.531985	0.353501
O50	O	1.141757	0.000149	-0.037115
C51	C	1.118222	0.118506	-0.107510
H52	H	1.074016	0.201253	-0.041603
H53	H	1.210726	0.158245	-0.157058
H54	H	1.050895	0.091727	-0.180790
H55	H	0.891602	-0.000142	-0.025693
H56	H	1.345701	-0.369598	0.045287
H57	H	1.345740	-0.630639	0.045293
H58	H	1.695588	-0.000124	-0.221720
H59	H	1.689279	-0.000090	-0.459401
O60	O	1.263332	-0.000000	-0.158305
C61	C	1.291286	-0.000040	-0.031618
H62	H	1.389983	0.043221	-0.025743
H63	H	1.219632	0.066333	0.027113
H64	H	1.286844	-0.109701	0.006221
