data_functionalizedCrystal
_audit_creation_method	'MofGen! by Chris Wilmer'
_symmetry_space_group_name_H-M	'P1'
_symmetry_Int_Tables_number	1
_symmetry_cell_setting	triclinic
loop_
_symmetry_equiv_pos_as_xyz
  x,y,z
_cell_length_a	9.065215
_cell_length_b	14.185328
_cell_length_c	9.065215
_cell_angle_alpha	104.596226
_cell_angle_beta	85.014697
_cell_angle_gamma	104.597377
loop_
_atom_site_label
_atom_site_type_symbol
_atom_site_fract_x
_atom_site_fract_y
_atom_site_fract_z
O1	O	1.990658	0.083408	0.246590
O2	O	1.561374	0.083412	0.264343
O3	O	1.784890	0.083405	0.040822
O4	O	1.767142	0.083414	0.470111
O5	O	1.724348	-0.083438	-0.019702
O6	O	1.500832	-0.083431	0.203818
O7	O	1.930116	-0.083436	0.186066
Cu8	Cu	1.709946	-0.098667	0.189416
Cu9	Cu	1.781544	0.098644	0.260993
O10	O	1.706600	-0.083429	0.409586
C11	C	1.476116	-0.000009	0.232376
C12	C	1.312274	-0.000007	0.227278
N13	N	1.659599	-0.237446	0.139071
C14	C	1.979704	-0.605050	0.459278
C15	C	1.941601	-0.710077	0.421121
C16	C	1.760259	-0.710064	0.239651
C17	C	1.798341	-0.605035	0.277799
C18	C	1.908066	-0.552536	0.387612
C19	C	1.726704	-0.552521	0.206133
C20	C	1.764789	-0.447501	0.244272
C21	C	1.874513	-0.394995	0.354077
C22	C	1.946152	-0.447516	0.425751
C23	C	1.616987	-0.605021	0.096312
C24	C	1.545349	-0.552508	0.024646
C25	C	1.583427	-0.447486	0.062792
C26	C	1.693151	-0.394980	0.172598
C27	C	1.511788	-0.394964	-0.008882
C28	C	1.549874	-0.289944	0.029258
C29	C	1.731237	-0.289960	0.210737
C30	C	2.015374	-0.000012	0.218034
C31	C	2.179219	-0.000007	0.223133
C32	C	1.752914	-0.000015	-0.044426
C33	C	1.747817	-0.000012	-0.208268
N34	N	1.831903	0.237422	0.311326
C35	C	1.738576	-0.000006	0.494836
C36	C	1.743676	-0.000003	0.658680
H37	H	1.820569	-0.247212	0.300174
H38	H	1.422460	-0.437725	-0.098303
H39	H	1.999945	-0.752830	0.479490
H40	H	1.585990	-0.690535	0.065253
O41	O	1.427022	-0.609140	-0.093806
H42	H	1.383618	-0.554977	-0.137242
H43	H	1.491536	-0.247187	-0.029098
O44	O	2.064497	-0.390878	0.544197
H45	H	2.107922	-0.445035	0.587627
O46	O	1.915615	-0.281722	0.395347
H47	H	1.960566	-0.253930	0.292333
H48	H	2.069037	-0.562302	0.548715
H49	H	1.670924	-0.752823	0.150236
