data_functionalizedCrystal
_audit_creation_method	'MofGen! by Chris Wilmer'
_symmetry_space_group_name_H-M	'P1'
_symmetry_Int_Tables_number	1
_symmetry_cell_setting	triclinic
loop_
_symmetry_equiv_pos_as_xyz
  x,y,z
_cell_length_a	12.837943
_cell_length_b	14.044220
_cell_length_c	11.295483
_cell_angle_alpha	94.468632
_cell_angle_beta	85.461227
_cell_angle_gamma	94.008909
loop_
_atom_site_label
_atom_site_type_symbol
_atom_site_fract_x
_atom_site_fract_y
_atom_site_fract_z
O1	O	1.404877	0.242691	-0.099010
O2	O	1.101936	0.230415	-0.099017
O3	O	1.248859	0.098158	-0.099002
O4	O	1.257954	0.374947	-0.099025
O5	O	1.235952	0.109755	0.099047
O6	O	1.089030	0.242012	0.099032
O7	O	1.391970	0.254287	0.099039
Cu8	Cu	1.239322	0.249208	0.117119
Cu9	Cu	1.254585	0.235494	-0.117097
O10	O	1.245048	0.386544	0.099024
C11	C	1.056479	0.232067	0.000007
C12	C	0.940259	0.219699	0.000005
C13	C	0.713048	0.368378	0.000009
C14	C	0.603848	0.356763	0.000008
C15	C	0.612656	0.184853	0.000010
C16	C	0.721856	0.196469	0.000011
C17	C	0.772048	0.288234	0.000009
C18	C	0.881251	0.299849	0.000002
C19	C	0.890056	0.127940	0.000012
C20	C	0.780856	0.116324	0.000011
C21	C	1.238424	0.068282	0.000023
C22	C	1.226550	-0.038016	0.000024
C23	C	1.204843	-0.232639	0.000007
C24	C	1.289060	-0.282665	0.000005
C25	C	1.276982	-0.390961	-0.000005
C26	C	1.216919	-0.124334	0.000016
C27	C	1.437428	0.252635	0.000012
C28	C	1.553649	0.265002	0.000007
C29	C	1.255482	0.416420	-0.000004
C30	C	1.267357	0.522717	-0.000013
N31	N	1.228594	0.258854	0.281854
N32	N	1.265320	0.225841	-0.281832
C33	C	1.342540	0.156351	0.531156
C34	C	1.334441	0.163648	0.655818
C35	C	1.204292	0.280740	0.655845
C36	C	1.212391	0.273443	0.531182
C37	C	1.281518	0.211247	0.468842
C38	C	1.289622	0.203956	0.344177
C39	C	1.159469	0.321042	0.344206
C40	C	1.151370	0.328339	0.468869
H41	H	0.739974	0.041612	0.000026
C42	C	0.953976	0.040847	0.000198
C43	C	0.923419	-0.007890	0.102074
C44	C	0.982269	-0.088129	0.102272
H45	H	1.026219	0.060777	0.000256
H46	H	0.942364	-0.000465	-0.068831
H47	H	0.935039	0.033414	0.171085
H48	H	0.851185	-0.027844	0.102037
H49	H	0.970657	-0.129440	0.033243
H50	H	1.054509	-0.068189	0.102326
H51	H	0.961538	-0.121211	0.171387
C52	C	1.397339	-0.231400	-0.000220
C53	C	1.458137	-0.263232	-0.102121
C54	C	1.557880	-0.216015	-0.102370
H55	H	1.429864	-0.244795	0.068768
H56	H	1.391230	-0.164376	-0.000275
H57	H	1.464250	-0.330241	-0.102054
H58	H	1.425645	-0.249837	-0.171125
H59	H	1.551771	-0.148992	-0.102425
H60	H	1.590395	-0.229413	-0.033378
H61	H	1.599141	-0.237600	-0.171513
H62	H	0.571765	0.110147	0.000110
C63	C	1.364526	0.136248	0.276584
C64	C	1.336865	0.042566	0.306933
C65	C	1.405831	-0.019846	0.244696
H66	H	1.433962	0.154021	0.296957
H67	H	1.360620	0.139675	0.193396
H68	H	1.340782	0.039143	0.390102
H69	H	1.267441	0.024764	0.286557
H70	H	1.401925	-0.016419	0.161509
H71	H	1.475263	-0.002065	0.265074
H72	H	1.387067	-0.083417	0.265271
H73	H	1.123677	-0.271140	0.000002
C74	C	1.129305	0.348399	0.723381
C75	C	1.156883	0.442097	0.693040
C76	C	1.087814	0.504446	0.755215
H77	H	1.133148	0.345008	0.806570
H78	H	1.059895	0.330534	0.702931
H79	H	1.226274	0.459958	0.713499
H80	H	1.153033	0.445519	0.609863
H81	H	1.018405	0.486580	0.734764
H82	H	1.091663	0.501046	0.838400
H83	H	1.106510	0.568025	0.734629
H84	H	1.398833	0.105716	0.480397
H85	H	1.384129	0.118944	0.706551
C86	C	0.935551	0.399559	0.000063
C87	C	0.860500	0.467260	0.000098
C88	C	0.910477	0.559126	0.000174
H89	H	0.982462	0.403763	-0.068982
H90	H	0.973439	0.411753	0.069155
H91	H	0.822628	0.455070	-0.068988
H92	H	0.813585	0.463087	0.069137
H93	H	0.948365	0.571320	0.069267
H94	H	0.957387	0.563320	-0.068872
H95	H	0.859562	0.605073	0.000209
C96	C	1.076393	0.396010	0.536402
C97	C	1.103988	0.489702	0.506048
C98	C	1.034933	0.552066	0.568219
H99	H	1.080239	0.392624	0.619591
H100	H	1.006980	0.378154	0.515957
H101	H	1.173383	0.507553	0.526501
H102	H	1.100135	0.493119	0.422870
H103	H	0.965521	0.534210	0.547774
H104	H	1.038785	0.548671	0.651405
H105	H	1.053641	0.615641	0.547624
C106	C	0.539978	0.443892	-0.000058
C107	C	0.607313	0.526736	-0.000089
C108	C	0.548514	0.607020	-0.000165
H109	H	0.492684	0.447109	0.068986
H110	H	0.501719	0.438945	-0.069152
H111	H	0.645554	0.531683	0.068998
H112	H	0.654607	0.523551	-0.069128
H113	H	0.510256	0.602073	-0.069259
H114	H	0.501223	0.610228	0.068880
H115	H	0.594193	0.663238	-0.000197
C116	C	1.093033	0.380596	0.276697
C117	C	0.986903	0.357566	0.307059
C118	C	0.925680	0.412418	0.244904
H119	H	1.107621	0.367399	0.193506
H120	H	1.108897	0.446632	0.297151
H121	H	0.971045	0.291545	0.286598
H122	H	0.972283	0.370767	0.390240
H123	H	0.941544	0.478454	0.265358
H124	H	0.940276	0.399217	0.161717
H125	H	0.853664	0.396806	0.265504
H126	H	0.753915	0.443098	0.000006
