data_functionalizedCrystal
_audit_creation_method	'MofGen! by Chris Wilmer'
_symmetry_space_group_name_H-M	'P1'
_symmetry_Int_Tables_number	1
_symmetry_cell_setting	triclinic
loop_
_symmetry_equiv_pos_as_xyz
  x,y,z
_cell_length_a	16.109301
_cell_length_b	16.109301
_cell_length_c	7.540329
_cell_angle_alpha	89.996399
_cell_angle_beta	89.999760
_cell_angle_gamma	83.461532
loop_
_atom_site_label
_atom_site_type_symbol
_atom_site_fract_x
_atom_site_fract_y
_atom_site_fract_z
O1	O	1.103130	0.106866	-0.147370
O2	O	0.861068	0.120165	-0.147399
O3	O	0.988749	-0.007515	-0.147372
O4	O	0.975450	0.234547	-0.147397
O5	O	0.988741	-0.007517	0.147593
O6	O	0.861061	0.120164	0.147567
O7	O	1.103123	0.106864	0.147595
Cu8	Cu	0.982091	0.113514	0.174513
Cu9	Cu	0.982100	0.113516	-0.174317
O10	O	0.975442	0.234545	0.147568
C11	C	0.830090	0.119626	0.000080
C12	C	0.737794	0.118011	0.000070
C13	C	0.515522	0.190018	0.000083
C14	C	0.428802	0.188494	0.000095
C15	C	0.448676	0.037006	0.000103
C16	C	0.535395	0.038530	0.000104
C17	C	0.568815	0.115039	0.000085
C18	C	0.395376	0.111990	0.000096
C19	C	0.301350	0.110337	0.000108
C20	C	0.662847	0.116693	0.000076
C21	C	0.988206	-0.038491	0.000110
C22	C	0.986591	-0.130786	0.000107
C23	C	1.057074	-0.439785	0.000085
C24	C	1.058600	-0.353064	0.000095
C25	C	0.907111	-0.333191	0.000101
C26	C	0.905586	-0.419910	0.000103
C27	C	0.980571	-0.473205	0.000086
C28	C	0.983620	-0.299766	0.000094
C29	C	0.985274	-0.205740	0.000106
C30	C	0.978917	-0.567237	0.000078
C31	C	1.134101	0.107404	0.000112
C32	C	1.226397	0.109019	0.000111
C33	C	0.975985	0.265521	0.000083
C34	C	0.977600	0.357816	0.000073
N35	N	0.982091	0.113512	0.419862
N36	N	0.982107	0.113511	-0.419666
H37	H	0.421454	-0.025285	0.000129
F38	F	0.592117	-0.041277	0.000118
F39	F	0.827312	-0.276464	0.000109
F40	F	0.372086	0.268297	0.000095
H41	H	1.118131	-0.483175	0.000071
H42	H	1.120896	-0.325859	0.000097
H43	H	0.542730	0.252317	0.000081
F44	F	0.824156	-0.455480	0.000114
