data_functionalizedCrystal
_audit_creation_method	'MofGen! by Chris Wilmer'
_symmetry_space_group_name_H-M	'P1'
_symmetry_Int_Tables_number	1
_symmetry_cell_setting	triclinic
loop_
_symmetry_equiv_pos_as_xyz
  x,y,z
_cell_length_a	16.625548
_cell_length_b	11.169416
_cell_length_c	11.169409
_cell_angle_alpha	89.969126
_cell_angle_beta	89.976847
_cell_angle_gamma	90.011408
loop_
_atom_site_label
_atom_site_type_symbol
_atom_site_fract_x
_atom_site_fract_y
_atom_site_fract_z
Zn1	Zn	1.232769	-0.477676	-0.678662
Zn2	Zn	1.566102	-0.144342	-0.345328
Zn3	Zn	1.899436	0.188991	-0.011995
Zn4	Zn	1.232695	-0.678416	-0.477984
Zn5	Zn	1.566028	-0.345083	-0.144650
Zn6	Zn	1.899361	-0.011750	0.188683
Zn7	Zn	1.097925	-0.477750	-0.477984
Zn8	Zn	1.431258	-0.144416	-0.144651
Zn9	Zn	1.764591	0.188917	0.188682
Zn10	Zn	1.097930	-0.678319	-0.678617
Zn11	Zn	1.431263	-0.344986	-0.345283
Zn12	Zn	1.764596	-0.011653	-0.011950
O13	O	1.165330	-0.578040	-0.578312
O14	O	1.498663	-0.244707	-0.244978
O15	O	1.831996	0.088627	0.088355
O16	O	1.345592	-0.504314	-0.652060
O17	O	1.678925	-0.170981	-0.318726
O18	O	2.012258	0.162353	0.014607
O19	O	1.214784	-0.651869	-0.310034
O20	O	1.548117	-0.318536	0.023300
O21	O	1.881451	0.014798	0.356633
O22	O	1.115841	-0.309790	-0.504624
O23	O	1.449174	0.023543	-0.171290
O24	O	1.782508	0.356877	0.162043
O25	O	1.345537	-0.651797	-0.504622
O26	O	1.678870	-0.318464	-0.171289
O27	O	2.012204	0.014869	0.162044
O28	O	1.214911	-0.309736	-0.652060
O29	O	1.548244	0.023598	-0.318727
O30	O	1.881577	0.356931	0.014606
O31	O	1.115769	-0.504440	-0.310034
O32	O	1.449102	-0.171107	0.023299
O33	O	1.782436	0.162227	0.356632
O34	O	0.985093	-0.504346	-0.504580
O35	O	1.318426	-0.171012	-0.171247
O36	O	1.651760	0.162321	0.162087
O37	O	1.115850	-0.651632	-0.846573
O38	O	1.449183	-0.318299	-0.513239
O39	O	1.782516	0.015035	-0.179906
O40	O	0.985097	-0.651703	-0.651984
O41	O	1.318430	-0.318370	-0.318651
O42	O	1.651763	0.014963	0.014683
O43	O	1.214915	-0.504220	-0.846605
O44	O	1.548249	-0.170887	-0.513272
O45	O	1.881582	0.162447	-0.179939
O46	O	1.214789	-0.846353	-0.504579
O47	O	1.548122	-0.513020	-0.171246
O48	O	1.881455	-0.179686	0.162088
O49	O	1.115778	-0.846282	-0.651983
O50	O	1.449111	-0.512948	-0.318650
O51	O	1.782444	-0.179615	0.014683
C52	C	1.165298	-0.889865	-0.578302
C53	C	1.498631	-0.556532	-0.244969
C54	C	1.831964	-0.223198	0.088364
C55	C	1.165358	-1.023265	-0.578339
C56	C	1.498691	-0.689931	-0.245005
C57	C	1.832024	-0.356598	0.088328
C58	C	0.955839	-0.578023	-0.578278
C59	C	1.289172	-0.244690	-0.244945
C60	C	1.622505	0.088644	0.088389
C61	C	0.866218	-0.578045	-0.578292
C62	C	1.199551	-0.244711	-0.244959
C63	C	1.532884	0.088622	0.088375
C64	C	0.538042	-0.578052	-0.578343
C65	C	0.871375	-0.244719	-0.245010
C66	C	1.204709	0.088614	0.088323
C67	C	0.629350	-0.578047	-0.578325
C68	C	0.962684	-0.244714	-0.244992
C69	C	1.296017	0.088620	0.088341
C70	C	0.702127	-0.578049	-0.578317
C71	C	1.035460	-0.244716	-0.244983
C72	C	1.368794	0.088618	0.088350
C73	C	0.793441	-0.578042	-0.578301
C74	C	1.126774	-0.244709	-0.244967
C75	C	1.460108	0.088624	0.088366
C76	C	1.375638	-0.578058	-0.578346
C77	C	1.708972	-0.244725	-0.245013
C78	C	2.042305	0.088608	0.088321
C79	C	1.465260	-0.578066	-0.578361
C80	C	1.798593	-0.244733	-0.245027
C81	C	2.131926	0.088601	0.088306
C82	C	1.165391	-0.577907	-0.891354
C83	C	1.498725	-0.244574	-0.558021
C84	C	1.832058	0.088760	-0.224687
C85	C	1.165418	-0.577850	-1.024754
C86	C	1.498751	-0.244517	-0.691421
C87	C	1.832084	0.088817	-0.358088
C88	C	1.165384	-0.264998	-0.578347
C89	C	1.498717	0.068336	-0.245014
C90	C	1.832050	0.401669	0.088320
C91	C	1.165407	-0.131598	-0.578362
C92	C	1.498740	0.201736	-0.245029
C93	C	1.832073	0.535069	0.088305
C94	C	1.165314	-0.578086	-0.266487
C95	C	1.498648	-0.244753	0.066847
C96	C	1.831981	0.088580	0.400180
C97	C	1.165444	-0.577805	-0.133087
C98	C	1.498777	-0.244472	0.200246
C99	C	1.832111	0.088862	0.533579
