data_functionalizedCrystal
_audit_creation_method	'MofGen! by Chris Wilmer'
_symmetry_space_group_name_H-M	'P1'
_symmetry_Int_Tables_number	1
_symmetry_cell_setting	triclinic
loop_
_symmetry_equiv_pos_as_xyz
  x,y,z
_cell_length_a	12.759401
_cell_length_b	16.625545
_cell_length_c	12.759393
_cell_angle_alpha	89.966096
_cell_angle_beta	89.980903
_cell_angle_gamma	90.025541
loop_
_atom_site_label
_atom_site_type_symbol
_atom_site_fract_x
_atom_site_fract_y
_atom_site_fract_z
Zn1	Zn	1.606176	-0.320954	-0.593981
Zn2	Zn	1.606037	-0.455811	-0.418294
Zn3	Zn	1.430478	-0.320996	-0.418319
Zn4	Zn	1.430433	-0.455749	-0.593934
O5	O	1.518281	-0.388378	-0.506132
O6	O	1.753179	-0.338852	-0.570685
O7	O	1.582709	-0.437971	-0.271276
O8	O	1.453862	-0.208158	-0.441651
O9	O	1.753077	-0.437931	-0.441609
O10	O	1.582946	-0.208128	-0.570709
O11	O	1.453727	-0.338923	-0.271294
O12	O	1.283451	-0.338863	-0.441605
O13	O	1.453786	-0.437824	-0.740961
O14	O	1.283418	-0.437865	-0.570628
O15	O	1.582903	-0.338792	-0.740996
O16	O	1.582666	-0.568635	-0.441563
O17	O	1.453651	-0.568589	-0.570605
C18	C	1.245314	-0.388362	-0.506115
C19	C	1.128537	-0.388375	-0.506132
C20	C	1.518167	-0.597869	-0.506099
C21	C	1.518214	-0.687490	-0.506120
C22	C	0.963999	-0.336888	-0.573455
C23	C	1.073723	-0.336877	-0.573446
C24	C	1.073622	-0.439893	-0.438831
C25	C	0.963900	-0.439908	-0.438847
C26	C	0.909190	-0.285381	-0.640766
C27	C	0.964097	-0.233864	-0.708068
C28	C	1.073821	-0.233853	-0.708059
C29	C	1.128638	-0.285359	-0.640747
C30	C	1.518255	-0.760272	-0.506141
C31	C	1.518316	-0.851580	-0.506164
C32	C	1.518371	-0.924357	-0.506177
C33	C	1.518431	-1.015671	-0.506199
C34	C	1.792314	-0.388394	-0.506150
C35	C	1.909091	-0.388401	-0.506157
C36	C	1.518355	-0.388296	-0.780165
C37	C	1.518386	-0.388262	-0.896942
C38	C	1.518424	-0.178069	-0.506188
C39	C	1.518485	-0.088448	-0.506212
C40	C	1.585627	-0.336690	-0.951824
C41	C	1.585652	-0.336661	-1.061548
C42	C	1.451192	-0.439782	-1.061499
C43	C	1.451163	-0.439806	-0.951777
C44	C	1.652850	-0.285146	-0.896989
C45	C	1.720097	-0.233571	-0.951871
C46	C	1.720122	-0.233542	-1.061595
C47	C	1.652900	-0.285088	-1.116438
C48	C	1.518268	-0.388401	-0.233164
C49	C	1.518441	-0.388208	-0.116388
H50	H	0.819847	-0.285381	-0.640776
O51	O	0.910691	-0.183862	-0.773356
C52	C	0.802073	-0.194930	-0.758955
H53	H	0.787041	-0.221266	-0.677816
H54	H	0.760401	-0.134544	-0.766224
H55	H	0.770946	-0.237927	-0.821177
O56	O	1.127322	-0.183891	-0.773403
C57	C	1.235920	-0.194907	-0.758944
H58	H	1.250868	-0.257101	-0.724396
H59	H	1.277655	-0.189500	-0.837649
H60	H	1.267051	-0.147029	-0.703099
O61	O	1.235224	-0.285347	-0.640548
C62	C	1.271848	-0.264525	-0.539908
H63	H	1.208588	-0.278253	-0.479365
H64	H	1.345232	-0.300868	-0.521143
H65	H	1.291341	-0.197618	-0.537834
H66	H	1.774870	-0.191541	-1.106277
H67	H	1.118262	-0.481827	-0.384029
O68	O	0.910718	-0.489972	-0.373375
C69	C	0.982620	-0.535440	-0.313975
H70	H	1.060844	-0.502402	-0.310393
H71	H	0.950869	-0.543976	-0.231186
H72	H	0.994287	-0.596708	-0.352312
O73	O	1.652963	-0.285311	-0.790405
C74	C	1.679870	-0.362612	-0.753762
H75	H	1.725618	-0.395927	-0.817025
H76	H	1.730284	-0.356877	-0.680396
H77	H	1.605468	-0.397541	-0.734234
H78	H	1.774820	-0.191600	-0.907212
H79	H	1.396463	-0.481747	-1.106160
O80	O	1.653090	-0.284984	-1.223024
C81	C	1.726832	-0.228396	-1.259709
H82	H	1.788204	-0.217121	-1.196486
H83	H	1.766703	-0.252713	-1.333106
H84	H	1.685219	-0.169596	-1.279200
O85	O	1.385835	-0.489994	-0.898620
C86	C	1.326508	-0.535483	-0.970544
H87	H	1.369547	-0.538244	-1.048767
H88	H	1.315280	-0.599022	-0.938821
H89	H	1.246724	-0.505967	-0.982201
