data_functionalizedCrystal
_audit_creation_method	'MofGen! by Chris Wilmer'
_symmetry_space_group_name_H-M	'P1'
_symmetry_Int_Tables_number	1
_symmetry_cell_setting	triclinic
loop_
_symmetry_equiv_pos_as_xyz
  x,y,z
_cell_length_a	16.109301
_cell_length_b	9.065218
_cell_length_c	8.140239
_cell_angle_alpha	89.997198
_cell_angle_beta	90.004940
_cell_angle_gamma	95.761317
loop_
_atom_site_label
_atom_site_type_symbol
_atom_site_fract_x
_atom_site_fract_y
_atom_site_fract_z
O1	O	0.121905	-1.957448	0.136624
O2	O	0.131904	-1.527922	0.136627
O3	O	0.005964	-1.754484	0.136608
O4	O	0.247845	-1.730885	0.136642
O5	O	0.005963	-1.754472	-0.136619
O6	O	0.131903	-1.527909	-0.136600
O7	O	0.121904	-1.957436	-0.136603
Zn8	Zn	0.126903	-1.742671	-0.179982
Zn9	Zn	0.126905	-1.742687	0.180006
O10	O	0.247843	-1.730873	-0.136585
C11	C	-0.025019	-1.753522	-0.000006
C12	C	-0.117336	-1.750656	-0.000008
C13	C	0.130943	-1.472952	0.000013
C14	C	0.128069	-1.309179	0.000014
C15	C	0.122865	-2.012405	0.000014
C16	C	0.125739	-2.176179	0.000024
C17	C	-0.338627	-1.878430	0.000017
C18	C	-0.425368	-1.875726	0.000031
C19	C	-0.407559	-1.606917	0.000026
C20	C	-0.320819	-1.609623	0.000024
C21	C	-0.286356	-1.745384	0.000011
C22	C	-0.459836	-1.739974	0.000027
C23	C	-0.553885	-1.737040	0.000041
C24	C	-0.192301	-1.748318	-0.000000
C25	C	0.278826	-1.731835	0.000033
C26	C	0.371144	-1.734701	0.000046
N27	N	0.126901	-1.742670	-0.425665
N28	N	0.126900	-1.742699	0.425689
H29	H	-0.467924	-1.984066	0.000039
H30	H	-0.435630	-1.496385	0.000033
O31	O	-0.270157	-1.480237	-0.000055
C32	C	-0.319173	-1.359830	-0.000016
H33	H	-0.383617	-1.397294	-0.051746
H34	H	-0.287883	-1.266612	-0.079340
H35	H	-0.325654	-1.318221	0.131064
H36	H	-0.310570	-1.988976	0.000010
