data_functionalizedCrystal
_audit_creation_method	'MofGen! by Chris Wilmer'
_symmetry_space_group_name_H-M	'P1'
_symmetry_Int_Tables_number	1
_symmetry_cell_setting	triclinic
loop_
_symmetry_equiv_pos_as_xyz
  x,y,z
_cell_length_a	25.639242
_cell_length_b	25.639239
_cell_length_c	18.215399
_cell_angle_alpha	90.030035
_cell_angle_beta	90.020639
_cell_angle_gamma	90.030990
loop_
_atom_site_label
_atom_site_type_symbol
_atom_site_fract_x
_atom_site_fract_y
_atom_site_fract_z
Zn1	Zn	0.799257	-0.208264	0.416121
Zn2	Zn	0.799171	-0.295700	0.293050
Zn3	Zn	0.711824	-0.208268	0.293067
Zn4	Zn	0.711779	-0.295658	0.416073
O5	O	0.755508	-0.251972	0.354578
O6	O	0.872411	-0.219878	0.399808
O7	O	0.787567	-0.284121	0.190068
O8	O	0.723477	-0.135102	0.309417
O9	O	0.872348	-0.284116	0.309389
O10	O	0.787714	-0.135099	0.399824
O11	O	0.723394	-0.219885	0.190080
O12	O	0.638653	-0.219845	0.309371
O13	O	0.723400	-0.284046	0.519064
O14	O	0.638620	-0.284050	0.399743
O15	O	0.787670	-0.219837	0.519099
O16	O	0.787524	-0.368859	0.309343
O17	O	0.723317	-0.368829	0.399727
C18	C	0.619665	-0.251944	0.354554
C19	C	0.561551	-0.251945	0.354561
C20	C	0.310399	-0.218583	0.401745
C21	C	0.365003	-0.218577	0.401741
O22	O	0.393275	-0.190189	0.441853
N23	N	0.392277	-0.251966	0.354586
C24	C	0.364945	-0.285366	0.307438
O25	O	0.393157	-0.313766	0.267329
C26	C	0.310341	-0.285374	0.307446
C27	C	0.283070	-0.251979	0.354599
C28	C	0.283127	-0.185191	0.448894
C29	C	0.228527	-0.185195	0.448897
C30	C	0.201198	-0.218592	0.401751
C31	C	0.228469	-0.251983	0.354602
C32	C	0.283009	-0.318776	0.260302
C33	C	0.228402	-0.318781	0.260315
C34	C	0.201131	-0.285386	0.307468
C35	C	0.146540	-0.285384	0.307459
N36	N	0.119265	-0.251995	0.354613
C37	C	0.146595	-0.218599	0.401760
C38	C	0.479615	-0.285349	0.307425
C39	C	0.534218	-0.285339	0.307412
C40	C	0.534272	-0.218551	0.401716
C41	C	0.479669	-0.218558	0.401725
C42	C	0.452341	-0.251960	0.354579
C43	C	0.031929	-0.218611	0.401762
C44	C	-0.022676	-0.218617	0.401759
C45	C	-0.022726	-0.285407	0.307458
C46	C	0.031875	-0.285399	0.307458
C47	C	0.059201	-0.252000	0.354616
O48	O	0.118234	-0.313760	0.267369
O49	O	0.118375	-0.190209	0.441868
C50	C	0.755420	-0.387815	0.354544
C51	C	0.755430	-0.445929	0.354554
C52	C	0.789028	-0.806295	0.307595
C53	C	0.789048	-0.860900	0.307605
O54	O	0.817523	-0.889139	0.267641
N55	N	0.755600	-0.888211	0.354627
C56	C	0.722133	-0.860916	0.401647
O57	O	0.693685	-0.889161	0.441644
C58	C	0.722116	-0.806313	0.401640
C59	C	0.755562	-0.779004	0.354610
C60	C	0.822472	-0.778986	0.260569
C61	C	0.822451	-0.724386	0.260558
C62	C	0.788986	-0.697094	0.307573
C63	C	0.755541	-0.724403	0.354599
C64	C	0.688652	-0.779018	0.448664
C65	C	0.688638	-0.724411	0.448654
C66	C	0.722085	-0.697102	0.401623
C67	C	0.722055	-0.642511	0.401604
N68	N	0.755503	-0.615199	0.354582
C69	C	0.788968	-0.642491	0.307567
C70	C	0.722172	-0.975587	0.401658
C71	C	0.722187	-1.030189	0.401662
C72	C	0.789102	-1.030169	0.307620
C73	C	0.789085	-0.975565	0.307613
C74	C	0.755621	-0.948275	0.354636
C75	C	0.788921	-0.527826	0.307548
C76	C	0.788896	-0.473220	0.307539
C77	C	0.721982	-0.473245	0.401583
C78	C	0.722005	-0.527846	0.401589
C79	C	0.755479	-0.555135	0.354569
O80	O	0.693596	-0.614237	0.441549
O81	O	0.817416	-0.614239	0.267583
C82	C	0.891881	-0.252001	0.354602
C83	C	0.949995	-0.252013	0.354612
C84	C	0.755540	-0.251936	0.546531
C85	C	0.755553	-0.251921	0.628330
C86	C	0.755610	-0.115599	0.354628
C87	C	0.755654	-0.057485	0.354649
C88	C	0.755506	-0.251970	0.163372
C89	C	0.755594	-0.251839	0.081573
C90	C	0.789031	-0.218456	0.816543
C91	C	0.789037	-0.218441	0.893402
C92	C	0.722113	-0.285305	0.893354
C93	C	0.722104	-0.285317	0.816497
C94	C	0.755566	-0.251893	0.778093
C95	C	0.755581	-0.251866	0.931809
C96	C	0.755588	-0.251850	1.015143
C97	C	0.755559	-0.251909	0.694754
H98	H	0.054172	-0.191413	0.440162
H99	H	0.556534	-0.191358	0.440106
C100	C	0.685358	-0.945572	0.453394
N101	N	0.657633	-0.922967	0.492365
H102	H	0.694850	-0.312545	0.785190
C103	C	0.198345	-0.355524	0.208447
N104	N	0.175707	-0.383198	0.169378
C105	C	0.651859	-0.809046	0.500404
N106	N	0.624145	-0.831662	0.539379
H107	H	0.849726	-0.801201	0.222283
H108	H	0.816320	-0.953334	0.269318
H109	H	0.661388	-0.702194	0.486948
H110	H	0.694772	-0.550082	0.439887
H111	H	0.305204	-0.345970	0.221905
C112	C	0.825852	-0.181659	0.935693
N113	N	0.853583	-0.153953	0.967547
H114	H	0.816276	-0.191239	0.785277
H115	H	0.054080	-0.312587	0.269056
C116	C	0.825688	-0.443184	0.255796
N117	N	0.853400	-0.420562	0.216824
H118	H	-0.044878	-0.191420	0.440156
H119	H	0.816354	-1.052399	0.269340
C120	C	0.685306	-0.322067	0.935605
N121	N	0.657582	-0.349758	0.967428
H122	H	0.206327	-0.158004	0.487297
C123	C	0.685174	-0.443214	0.453300
N124	N	0.657453	-0.420593	0.492259
C125	C	0.449676	-0.181825	0.453600
N126	N	0.427087	-0.154158	0.492678
C127	C	0.313181	-0.148446	0.500759
N128	N	0.335813	-0.120763	0.539822
C129	C	0.449559	-0.322088	0.255547
N130	N	0.426924	-0.349759	0.216471
C131	C	0.564210	-0.322071	0.255534
N132	N	0.586798	-0.349741	0.216460
C133	C	0.825741	-0.557836	0.255819
N134	N	0.853471	-0.580439	0.216852
C135	C	-0.052798	-0.322142	0.255600
N136	N	-0.075451	-0.349814	0.216545
H137	H	0.849687	-0.702154	0.222264
H138	H	0.694946	-1.052419	0.439952
