data_functionalizedCrystal
_audit_creation_method	'MofGen! by Chris Wilmer'
_symmetry_space_group_name_H-M	'P1'
_symmetry_Int_Tables_number	1
_symmetry_cell_setting	triclinic
loop_
_symmetry_equiv_pos_as_xyz
  x,y,z
_cell_length_a	10.654550
_cell_length_b	27.732048
_cell_length_c	9.730223
_cell_angle_alpha	89.993758
_cell_angle_beta	89.996251
_cell_angle_gamma	83.563778
loop_
_atom_site_label
_atom_site_type_symbol
_atom_site_fract_x
_atom_site_fract_y
_atom_site_fract_z
O1	O	1.664980	0.067884	-0.114419
O2	O	1.299230	0.074351	-0.114399
O3	O	1.493465	0.000792	-0.114384
O4	O	1.470746	0.141444	-0.114435
O5	O	1.493462	0.000793	0.114196
O6	O	1.299228	0.074353	0.114181
O7	O	1.664978	0.067886	0.114161
Zn8	Zn	1.482102	0.071120	0.150463
Zn9	Zn	1.482105	0.071117	-0.150701
O10	O	1.470743	0.141445	0.114145
C11	C	1.252451	0.073878	-0.000106
C12	C	1.113067	0.072457	-0.000097
C13	C	1.031761	0.115768	-0.000133
C14	C	0.900796	0.114430	-0.000156
C15	C	0.932457	0.026466	-0.000114
C16	C	1.063419	0.027805	-0.000080
C17	C	1.081409	0.160420	-0.000149
C18	C	1.000101	0.203734	-0.000187
C19	C	0.869136	0.202396	-0.000210
C20	C	0.819479	0.157744	-0.000196
C21	C	1.492987	-0.017217	-0.000090
C22	C	1.491551	-0.070881	-0.000078
C23	C	1.597290	-0.409038	-0.000155
C24	C	1.591962	-0.610731	-0.000174
O25	O	1.688653	-0.641384	-0.000239
N26	N	1.476789	-0.630572	-0.000166
C27	C	1.362940	-0.599986	-0.000163
O28	O	1.264856	-0.621490	-0.000171
C29	C	1.368269	-0.398294	-0.000154
C30	C	1.483449	-0.378456	-0.000147
C31	C	1.712461	-0.389199	-0.000150
C32	C	1.713792	-0.338779	-0.000138
C33	C	1.599951	-0.308197	-0.000131
C34	C	1.484780	-0.328036	-0.000135
C35	C	1.254421	-0.367709	-0.000160
C36	C	1.255764	-0.317284	-0.000161
C37	C	1.370944	-0.297446	-0.000155
C38	C	1.372271	-0.247034	-0.000115
N39	N	1.487444	-0.227193	-0.000123
C40	C	1.601284	-0.257775	-0.000131
C41	C	1.360150	-0.705877	-0.000165
C42	C	1.358817	-0.756300	-0.000164
C43	C	1.587840	-0.767041	-0.000178
C44	C	1.589171	-0.716618	-0.000169
C45	C	1.475323	-0.686036	-0.000172
C46	C	1.604070	-0.151888	-0.000104
C47	C	1.605391	-0.101463	-0.000086
C48	C	1.376369	-0.090726	-0.000080
C49	C	1.375047	-0.141147	-0.000090
C50	C	1.488908	-0.171727	-0.000107
O51	O	1.275631	-0.216352	-0.000065
O52	O	1.699354	-0.236261	-0.000153
C53	C	1.595959	-0.459458	-0.000167
C54	C	1.480788	-0.479296	-0.000172
C55	C	1.366948	-0.448715	-0.000164
C56	C	1.479455	-0.529719	-0.000172
C57	C	1.593296	-0.560301	-0.000179
C58	C	1.708469	-0.540460	-0.000187
C59	C	1.709800	-0.490040	-0.000175
C60	C	1.251774	-0.468556	-0.000157
C61	C	1.250453	-0.518976	-0.000167
C62	C	1.364293	-0.549558	-0.000175
C63	C	1.711757	0.068360	-0.000135
C64	C	1.851141	0.069780	-0.000153
C65	C	1.471221	0.159454	-0.000152
C66	C	1.472657	0.213118	-0.000172
N67	N	1.482110	0.071121	0.355999
N68	N	1.482108	0.071112	-0.356238
C69	C	1.568138	0.038560	0.427932
C70	C	1.568135	0.038554	0.571815
C71	C	1.396071	0.103675	0.571820
C72	C	1.396069	0.103678	0.427939
C73	C	1.654179	0.006003	0.355992
C74	C	1.740215	-0.026560	0.427925
C75	C	1.740212	-0.026566	0.571808
C76	C	1.654173	0.005991	0.643758
H77	H	1.188045	0.161514	-0.000137
H78	H	0.802938	0.237665	-0.000226
C79	C	1.739775	-0.051004	0.117427
C80	C	1.732007	-0.079658	-0.000084
H81	H	1.817944	-0.037547	0.117427
H82	H	1.672180	-0.025574	0.117427
H83	H	1.734492	-0.070461	0.197124
H84	H	1.737281	-0.060200	-0.079782
H85	H	1.799621	-0.105092	-0.000096
H86	H	1.654169	0.005981	0.760917
H87	H	1.680533	-0.791950	-0.000184
H88	H	1.326015	0.130192	0.369371
C89	C	1.081571	-0.059278	-0.000073
C90	C	1.152802	-0.019803	-0.000059
H91	H	1.136755	-0.088669	-0.000067
H92	H	1.029818	-0.057973	0.079621
H93	H	1.029847	-0.057967	-0.079801
H94	H	1.204519	-0.021112	0.079675
H95	H	1.204577	-0.021109	-0.079762
H96	H	0.712838	0.156658	-0.000193
C97	C	1.830585	-0.157427	-0.000097
C98	C	1.729227	-0.185497	-0.000110
H99	H	1.907848	-0.178176	-0.000086
H100	H	1.826339	-0.137534	-0.079801
H101	H	1.826314	-0.137539	0.079621
H102	H	1.733492	-0.205382	-0.079835
H103	H	1.733474	-0.205398	0.079602
H104	H	1.326022	0.130182	0.630411
C105	C	1.940029	-0.354476	-0.000167
C106	C	1.840403	-0.316978	-0.000150
H107	H	2.018196	-0.341019	-0.000185
H108	H	1.934742	-0.373921	0.079540
H109	H	1.934723	-0.373916	-0.079882
H110	H	1.845704	-0.297540	0.079572
H111	H	1.845693	-0.297525	-0.079865
H112	H	0.892016	-0.009888	-0.000125
C113	C	0.955650	0.290547	-0.000219
C114	C	1.054677	0.252814	-0.000193
H115	H	0.989344	0.320848	-0.000213
H116	H	0.905250	0.288195	-0.079934
H117	H	0.905209	0.288193	0.079488
H118	H	1.105112	0.255167	-0.079906
H119	H	1.105098	0.255168	0.079530
H120	H	1.805169	-0.414094	-0.000162
C121	C	1.844176	-0.439567	-0.117681
C122	C	1.836409	-0.468237	-0.000181
H123	H	1.922341	-0.426108	-0.117680
H124	H	1.838892	-0.459011	-0.197377
H125	H	1.776571	-0.414134	-0.117659
H126	H	1.904009	-0.493672	-0.000208
H127	H	1.841706	-0.448792	0.079536
H128	H	1.163052	-0.292386	-0.000166
H129	H	1.159070	-0.443660	-0.000153
H130	H	1.682961	-0.700469	-0.000165
H131	H	1.265026	-0.772447	-0.000146
C132	C	1.228744	-0.642944	-0.117667
C133	C	1.234993	-0.672267	-0.000162
H134	H	1.151472	-0.622199	-0.117662
H135	H	1.297505	-0.623907	-0.117663
H136	H	1.232994	-0.662840	-0.197368
H137	H	1.230751	-0.652371	0.079540
H138	H	1.166212	-0.691306	-0.000154
C139	C	1.240694	-0.191613	-0.117599
C140	C	1.248446	-0.162959	-0.000084
H141	H	1.162538	-0.205079	-0.117598
H142	H	1.245968	-0.172158	-0.197286
H143	H	1.308312	-0.217042	-0.117597
H144	H	1.180834	-0.137529	-0.000092
H145	H	1.243160	-0.182416	0.079623
C146	C	1.276745	-0.008659	-0.000081
C147	C	1.251239	-0.057104	-0.000080
H148	H	1.199493	0.012098	-0.000097
H149	H	1.323997	-0.002610	0.079630
H150	H	1.324028	-0.002608	-0.079793
H151	H	1.203964	-0.063156	0.079638
H152	H	1.203968	-0.063155	-0.079799
C153	C	1.808095	-0.622527	-0.000221
C154	C	1.833605	-0.574082	-0.000205
H155	H	1.885346	-0.643285	-0.000247
H156	H	1.760839	-0.628584	0.079490
H157	H	1.760816	-0.628569	-0.079933
H158	H	1.880876	-0.568040	0.079512
H159	H	1.880881	-0.568023	-0.079924
C160	C	1.054842	-0.525327	-0.117686
C161	C	1.123835	-0.540779	-0.000178
H162	H	0.976681	-0.538788	-0.117704
H163	H	1.039357	-0.490924	-0.117662
H164	H	1.101696	-0.535796	-0.197386
H165	H	1.076985	-0.530307	0.079522
H166	H	1.139316	-0.575189	-0.000190
H167	H	1.160629	-0.383852	-0.000173
H168	H	1.654192	0.006006	0.238835
H169	H	1.810259	-0.053070	0.369336
H170	H	1.810258	-0.053084	0.630374
