data_functionalizedCrystal
_audit_creation_method	'MofGen! by Chris Wilmer'
_symmetry_space_group_name_H-M	'P1'
_symmetry_Int_Tables_number	1
_symmetry_cell_setting	triclinic
loop_
_symmetry_equiv_pos_as_xyz
  x,y,z
_cell_length_a	16.109301
_cell_length_b	16.109301
_cell_length_c	14.586319
_cell_angle_alpha	89.994786
_cell_angle_beta	89.999213
_cell_angle_gamma	83.461481
loop_
_atom_site_label
_atom_site_type_symbol
_atom_site_fract_x
_atom_site_fract_y
_atom_site_fract_z
O1	O	1.103131	0.106866	-0.076185
O2	O	0.861069	0.120165	-0.076200
O3	O	0.988749	-0.007515	-0.076183
O4	O	0.975450	0.234547	-0.076203
O5	O	0.988741	-0.007517	0.076298
O6	O	0.861060	0.120164	0.076281
O7	O	1.103122	0.106864	0.076295
Cu8	Cu	0.982090	0.113514	0.090211
Cu9	Cu	0.982101	0.113516	-0.090115
O10	O	0.975441	0.234545	0.076278
C11	C	0.830090	0.119626	0.000038
C12	C	0.737794	0.118011	0.000033
C13	C	0.515522	0.190018	0.000038
C14	C	0.428801	0.188494	0.000044
C15	C	0.448676	0.037006	0.000052
C16	C	0.535394	0.038530	0.000053
C17	C	0.568815	0.115039	0.000041
C18	C	0.395376	0.111990	0.000046
C19	C	0.301350	0.110337	0.000053
C20	C	0.662847	0.116693	0.000036
C21	C	0.988206	-0.038491	0.000058
C22	C	0.986591	-0.130786	0.000059
C23	C	1.058599	-0.353059	0.000049
C24	C	1.057075	-0.439779	0.000041
C25	C	0.905586	-0.419905	0.000036
C26	C	0.907111	-0.333186	0.000037
C27	C	0.983620	-0.299766	0.000048
C28	C	0.980571	-0.473205	0.000039
C29	C	0.978918	-0.567231	0.000031
C30	C	0.985273	-0.205734	0.000055
C31	C	1.134101	0.107404	0.000055
C32	C	1.226397	0.109019	0.000054
C33	C	0.975984	0.265521	0.000035
C34	C	0.977600	0.357816	0.000028
N35	N	0.982089	0.113512	0.217042
N36	N	0.982109	0.113511	-0.216947
C37	C	1.038644	0.056994	0.452057
C38	C	1.038647	0.056992	0.548038
C39	C	0.925547	0.170032	0.548032
C40	C	0.925541	0.170030	0.452052
C41	C	0.982095	0.113511	0.404067
C42	C	0.982103	0.113512	0.596028
C43	C	0.982105	0.113510	0.700095
C44	C	0.982092	0.113512	0.299993
H45	H	0.421454	-0.025285	0.000067
C46	C	0.821431	-0.456673	0.000032
C47	C	0.759150	-0.436559	0.079208
C48	C	0.674994	-0.473326	0.079207
C49	C	0.653119	-0.530208	0.000030
C50	C	0.715402	-0.550325	-0.079153
C51	C	0.799558	-0.513558	-0.079152
H52	H	0.775342	-0.394449	0.137826
H53	H	0.628889	-0.458434	0.137824
H54	H	0.590822	-0.557426	0.000029
H55	H	0.699210	-0.592435	-0.137770
H56	H	0.845663	-0.528450	-0.137768
C57	C	0.863346	0.232207	0.600816
C58	C	0.863393	0.232263	0.706390
C59	C	0.801192	0.294442	0.759171
C60	C	0.738944	0.356565	0.706378
C61	C	0.738895	0.356512	0.600798
C62	C	0.801096	0.294333	0.548018
H63	H	0.909475	0.186273	0.745476
H64	H	0.801229	0.294481	0.837328
H65	H	0.692900	0.402593	0.745450
H66	H	0.692813	0.402501	0.561713
H67	H	0.801059	0.294294	0.469860
H68	H	1.120897	-0.325851	0.000056
C69	C	0.824629	-0.274556	0.000039
C70	C	0.740472	-0.311313	0.000039
C71	C	0.657994	-0.252683	0.000038
C72	C	0.659673	-0.157297	0.000036
C73	C	0.743833	-0.120534	0.000035
C74	C	0.826311	-0.179164	0.000037
H75	H	0.739226	-0.381929	0.000040
H76	H	0.595693	-0.279898	0.000038
H77	H	0.598618	-0.113895	0.000035
H78	H	0.745079	-0.049919	0.000034
H79	H	0.888612	-0.151950	0.000036
C80	C	1.100845	-0.005181	0.399272
C81	C	1.163045	-0.067353	0.452065
C82	C	1.225246	-0.129532	0.399284
C83	C	1.225247	-0.129539	0.293710
C84	C	1.163045	-0.067365	0.240912
C85	C	1.100844	-0.005186	0.293693
H86	H	1.163046	-0.067349	0.530222
H87	H	1.271292	-0.175557	0.438370
H88	H	1.271292	-0.175568	0.254639
H89	H	1.163043	-0.067369	0.162754
H90	H	1.054798	0.040839	0.254607
H91	H	0.879487	0.216053	0.412977
C92	C	1.139554	-0.498401	0.000046
C93	C	1.202245	-0.494684	0.079231
C94	C	1.284728	-0.553306	0.079234
C95	C	1.304520	-0.615644	0.000051
C96	C	1.241828	-0.619363	-0.079140
C97	C	1.159344	-0.560742	-0.079143
H98	H	1.187595	-0.448536	0.137852
H99	H	1.331137	-0.550553	0.137857
H100	H	1.365579	-0.659040	0.000053
H101	H	1.256478	-0.665512	-0.137761
H102	H	1.112935	-0.563495	-0.137766
H103	H	1.084694	0.010969	0.587108
H104	H	0.542730	0.252317	0.000035
H105	H	0.385413	0.249550	0.000043
H106	H	0.578788	-0.022530	0.000058
