data_functionalizedCrystal
_audit_creation_method	'MofGen! by Chris Wilmer'
_symmetry_space_group_name_H-M	'P1'
_symmetry_Int_Tables_number	1
_symmetry_cell_setting	triclinic
loop_
_symmetry_equiv_pos_as_xyz
  x,y,z
_cell_length_a	9.065215
_cell_length_b	15.995292
_cell_length_c	8.140239
_cell_angle_alpha	89.999675
_cell_angle_beta	89.997810
_cell_angle_gamma	84.241657
loop_
_atom_site_label
_atom_site_type_symbol
_atom_site_fract_x
_atom_site_fract_y
_atom_site_fract_z
O1	O	1.957465	0.122762	-0.136581
O2	O	1.527938	0.132835	-0.136588
O3	O	1.754488	0.005996	-0.136587
O4	O	1.730915	0.249600	-0.136582
O5	O	1.754475	0.005995	0.136640
O6	O	1.527926	0.132833	0.136640
O7	O	1.957452	0.122760	0.136646
Zn8	Zn	1.742687	0.127796	0.180023
Zn9	Zn	1.742703	0.127798	-0.179965
O10	O	1.730903	0.249598	0.136645
C11	C	1.472969	0.131866	0.000025
C12	C	1.309195	0.128973	0.000022
C13	C	1.753522	-0.025207	0.000023
C14	C	1.750646	-0.118182	0.000010
C15	C	1.740072	-0.456001	0.000025
C16	C	1.903589	-0.431449	0.000638
C17	C	1.906697	-0.334750	0.000016
C18	C	1.745319	-0.288405	0.000019
C19	C	1.663575	-0.318124	-0.156003
C20	C	1.661606	-0.414930	-0.156128
C21	C	1.658253	-0.414814	0.154582
C22	C	1.664313	-0.318276	0.156638
C23	C	1.748275	-0.193686	0.000010
C24	C	1.737110	-0.550719	0.000023
C25	C	2.012422	0.123728	0.000030
C26	C	2.176196	0.126621	0.000022
C27	C	1.731869	0.280802	0.000032
C28	C	1.734745	0.373777	0.000034
N29	N	1.742687	0.127795	0.425706
N30	N	1.742716	0.127794	-0.425648
H31	H	1.970717	-0.315240	0.111857
C32	C	1.744703	-0.292580	0.312571
H33	H	1.827286	-0.263764	0.282370
H34	H	1.778045	-0.341394	0.373839
H35	H	1.678373	-0.256711	0.377691
C36	C	1.993710	-0.309217	-0.151323
H37	H	1.995926	-0.249963	-0.152210
H38	H	1.946726	-0.326167	-0.248384
H39	H	2.092185	-0.335760	-0.146726
C40	C	1.727435	-0.452457	0.314345
H41	H	1.676451	-0.426747	0.406110
H42	H	1.828963	-0.442626	0.319136
H43	H	1.719557	-0.511226	0.316356
C44	C	1.499655	-0.435823	-0.165710
H45	H	1.497356	-0.495073	-0.165841
H46	H	1.455441	-0.412904	-0.263740
H47	H	1.446263	-0.412390	-0.073439
C48	C	1.505182	-0.274953	0.169380
H49	H	1.458947	-0.294171	0.265056
H50	H	1.450339	-0.288114	0.075032
H51	H	1.508090	-0.215842	0.175933
H52	H	1.966271	-0.459991	-0.110623
H53	H	1.718229	-0.441317	-0.272759
H54	H	1.544822	-0.287157	-0.161802
C55	C	1.740140	-0.290344	-0.312865
H56	H	1.821925	-0.260655	-0.283607
H57	H	1.671486	-0.254797	-0.375835
H58	H	1.774236	-0.338417	-0.375912
C59	C	1.495660	-0.434946	0.156024
H60	H	1.446794	-0.409886	0.249687
H61	H	1.492532	-0.494094	0.160035
H62	H	1.447340	-0.413262	0.059232
C63	C	1.988731	-0.468617	0.151797
H64	H	1.925328	-0.499448	0.215884
H65	H	2.021258	-0.424402	0.216027
H66	H	2.072125	-0.504947	0.116734
