data_functionalizedCrystal
_audit_creation_method	'MofGen! by Chris Wilmer'
_symmetry_space_group_name_H-M	'P1'
_symmetry_Int_Tables_number	1
_symmetry_cell_setting	triclinic
loop_
_symmetry_equiv_pos_as_xyz
  x,y,z
_cell_length_a	16.992694
_cell_length_b	11.792241
_cell_length_c	16.053802
_cell_angle_alpha	92.583059
_cell_angle_beta	87.249047
_cell_angle_gamma	87.430819
loop_
_atom_site_label
_atom_site_type_symbol
_atom_site_fract_x
_atom_site_fract_y
_atom_site_fract_z
O1	O	1.044699	0.236280	-0.069325
O2	O	0.816403	0.233637	-0.069350
O3	O	0.936091	0.070242	-0.069331
O4	O	0.925011	0.399675	-0.069344
O5	O	0.929503	0.079196	0.069527
O6	O	0.809815	0.242591	0.069508
O7	O	1.038111	0.245234	0.069533
Zn8	Zn	0.922917	0.245334	0.091567
Zn9	Zn	0.931597	0.233537	-0.091384
O10	O	0.918423	0.408630	0.069514
C11	C	0.783882	0.234716	0.000076
C12	C	0.696796	0.224578	0.000067
C13	C	0.646971	0.322395	0.000064
C14	C	0.565143	0.312864	0.000076
C15	C	0.533142	0.205513	0.000085
C16	C	0.582973	0.107688	0.000091
C17	C	0.664799	0.117221	0.000085
C18	C	0.289375	0.166002	0.000109
C19	C	0.207543	0.156476	0.000112
C20	C	0.189719	0.361652	0.000099
C21	C	0.271548	0.371176	0.000088
C22	C	0.321371	0.273351	0.000098
N23	N	0.449501	0.195767	0.000094
N24	N	0.405010	0.283098	0.000095
C25	C	0.932101	0.032371	0.000098
C26	C	0.930018	-0.093813	0.000097
C27	C	0.926188	-0.324840	0.000082
C28	C	0.928316	-0.196280	0.000090
C29	C	1.070632	0.244155	0.000105
C30	C	1.157719	0.254293	0.000109
C31	C	0.922413	0.446500	0.000084
C32	C	0.924497	0.572684	0.000079
N33	N	0.916999	0.253386	0.216427
N34	N	0.937521	0.225477	-0.216243
C35	C	0.967945	0.183889	0.260129
C36	C	0.963812	0.189532	0.347535
C37	C	0.908737	0.264679	0.391237
C38	C	0.857785	0.334179	0.347529
C39	C	0.861915	0.328529	0.260125
C40	C	0.890699	0.289327	0.652644
C41	C	0.886575	0.294974	0.740055
C42	C	0.992602	0.150325	0.740054
C43	C	0.996729	0.144687	0.652648
C44	C	0.945775	0.214182	0.608948
N45	N	0.904513	0.270452	0.480580
N46	N	0.949996	0.208403	0.519606
H47	H	0.297597	0.458591	0.000071
H48	H	0.524579	0.392517	0.000072
H49	H	0.149145	0.441295	0.000092
H50	H	0.841724	0.356172	0.775633
O51	O	1.021365	0.110708	0.217736
C52	C	1.007120	-0.001455	0.239154
H53	H	0.943177	-0.006174	0.263176
H54	H	1.048041	-0.027530	0.289905
C55	C	1.101192	-0.076580	0.132037
C56	C	1.022655	-0.082379	0.161535
H57	H	1.110778	-0.126500	0.084160
H58	H	1.110792	-0.001014	0.117609
H59	H	1.135284	-0.098307	0.174337
H60	H	0.988565	-0.060638	0.119239
H61	H	1.013050	-0.157943	0.175954
H62	H	0.329932	0.086345	0.000118
H63	H	1.005296	0.132942	0.383116
H64	H	0.849212	0.345915	0.617070
O65	O	0.804354	0.407150	0.390109
C66	C	0.811621	0.397219	0.476626
H67	H	0.873239	0.361263	0.488560
H68	H	0.765813	0.337812	0.501445
C69	C	0.722523	0.559351	0.506827
C70	C	0.798205	0.515199	0.521486
H71	H	0.714244	0.632125	0.534500
H72	H	0.717624	0.566040	0.448539
H73	H	0.684359	0.509834	0.527510
H74	H	0.836368	0.564708	0.500794
H75	H	0.803110	0.508521	0.579772
H76	H	0.181491	0.069053	0.000119
O77	O	0.551761	0.003491	0.000064
C78	C	0.468854	0.016051	0.000087
H79	H	0.451261	0.101216	-0.026206
H80	H	0.442904	0.012781	0.066706
C81	C	0.458720	-0.185460	-0.022067
C82	C	0.437112	-0.080862	-0.054368
H83	H	0.439138	-0.245243	-0.055654
H84	H	0.514576	-0.193923	-0.022079
H85	H	0.437094	-0.188169	0.033448
H86	H	0.458746	-0.078149	-0.109877
H87	H	0.381259	-0.072401	-0.054366
O88	O	0.713176	0.022159	-0.000064
C89	C	0.701993	-0.047233	-0.071965
H90	H	0.676660	0.006927	-0.122232
H91	H	0.659288	-0.115684	-0.055700
C92	C	0.812802	-0.170246	-0.042837
C93	C	0.781694	-0.103724	-0.104578
H94	H	0.861964	-0.205097	-0.062953
H95	H	0.820335	-0.123499	0.005606
H96	H	0.777207	-0.227280	-0.029288
H97	H	0.817284	-0.046683	-0.118118
H98	H	0.774169	-0.150463	-0.153024
H99	H	1.041576	0.083496	0.617067
O100	O	0.812393	0.396157	0.217799
C101	C	0.762883	0.463677	0.275113
H102	H	0.792104	0.471933	0.337413
H103	H	0.704022	0.422075	0.284422
C104	C	0.712953	0.572335	0.164467
C105	C	0.748846	0.582484	0.240984
H106	H	0.704290	0.645620	0.143414
H107	H	0.746306	0.526843	0.125853
H108	H	0.663906	0.537663	0.172236
H109	H	0.797896	0.617143	0.233212
H110	H	0.715500	0.627985	0.279595
H111	H	1.034085	0.093744	0.775643
O112	O	0.677922	0.426767	0.000091
C113	C	0.616396	0.511056	0.000071
H114	H	0.559438	0.475880	0.026366
H115	H	0.608101	0.537288	-0.066547
C116	C	0.707287	0.658415	0.022224
C117	C	0.637333	0.615214	0.054526
H118	H	0.720203	0.722668	0.055811
H119	H	0.748740	0.601629	0.022235
H120	H	0.700366	0.680267	-0.033290
H121	H	0.644257	0.593350	0.110035
H122	H	0.595882	0.671999	0.054527
