data_functionalizedCrystal
_audit_creation_method	'MofGen! by Chris Wilmer'
_symmetry_space_group_name_H-M	'P1'
_symmetry_Int_Tables_number	1
_symmetry_cell_setting	triclinic
loop_
_symmetry_equiv_pos_as_xyz
  x,y,z
_cell_length_a	23.532407
_cell_length_b	23.532407
_cell_length_c	22.610064
_cell_angle_alpha	89.999397
_cell_angle_beta	89.997161
_cell_angle_gamma	82.848678
loop_
_atom_site_label
_atom_site_type_symbol
_atom_site_fract_x
_atom_site_fract_y
_atom_site_fract_z
O1	O	0.755263	0.069127	-0.049117
O2	O	1.088597	0.402460	0.284217
O3	O	1.421930	0.735794	0.617550
O4	O	0.589400	0.079130	-0.049135
O5	O	0.922733	0.412464	0.284198
O6	O	1.256067	0.745797	0.617532
O7	O	0.677333	-0.008803	-0.049114
O8	O	1.010667	0.324530	0.284219
O9	O	1.344000	0.657864	0.617552
O10	O	0.667330	0.157060	-0.049137
O11	O	1.000664	0.490394	0.284196
O12	O	1.333997	0.823727	0.617529
O13	O	0.677318	-0.008790	0.049255
O14	O	1.010651	0.324543	0.382588
O15	O	1.343985	0.657876	0.715921
O16	O	0.589385	0.079143	0.049234
O17	O	0.922718	0.412476	0.382568
O18	O	1.256051	0.745810	0.715901
O19	O	0.755248	0.069140	0.049252
O20	O	1.088581	0.402473	0.382586
O21	O	1.421915	0.735807	0.715919
Zn22	Zn	0.672314	0.074144	0.064862
Zn23	Zn	1.005647	0.407477	0.398195
Zn24	Zn	1.338980	0.740810	0.731528
Zn25	Zn	0.672334	0.074127	-0.064744
Zn26	Zn	1.005668	0.407460	0.268589
Zn27	Zn	1.339001	0.740793	0.601923
O28	O	0.667315	0.157073	0.049232
O29	O	1.000648	0.490407	0.382565
O30	O	1.333981	0.823740	0.715899
C31	C	0.568176	0.078882	0.000048
C32	C	0.901510	0.412215	0.333381
C33	C	1.234843	0.745549	0.666714
C34	C	0.504959	0.078116	0.000041
C35	C	0.838293	0.411449	0.333374
C36	C	1.171626	0.744783	0.666708
C37	C	0.105856	0.125350	0.000061
C38	C	0.439190	0.458683	0.333395
C39	C	0.772523	0.792016	0.666728
C40	C	0.046456	0.124638	0.000065
C41	C	0.379789	0.457971	0.333398
C42	C	0.713123	0.791305	0.666732
O43	O	0.009711	0.168424	0.000081
O44	O	0.343045	0.501757	0.333414
O45	O	0.676378	0.835091	0.666747
N46	N	0.023830	0.072362	0.000071
N47	N	0.357163	0.405695	0.333405
N48	N	0.690496	0.739028	0.666738
C49	C	0.060607	0.020794	0.000080
C50	C	0.393941	0.354127	0.333413
C51	C	0.727274	0.687460	0.666746
O52	O	0.035908	-0.023737	0.000086
O53	O	0.369241	0.309596	0.333419
O54	O	0.702574	0.642930	0.666753
C55	C	0.120006	0.021506	0.000080
C56	C	0.453340	0.354839	0.333414
C57	C	0.786673	0.688172	0.666747
C58	C	0.142629	0.073785	0.000068
C59	C	0.475962	0.407119	0.333401
C60	C	0.809296	0.740452	0.666735
C61	C	0.128479	0.177625	0.000050
C62	C	0.461813	0.510958	0.333383
C63	C	0.795146	0.844292	0.666716
C64	C	0.187876	0.178336	0.000045
C65	C	0.521209	0.511670	0.333378
C66	C	0.854542	0.845003	0.666712
C67	C	0.224649	0.126772	0.000052
C68	C	0.557982	0.460105	0.333385
C69	C	0.891315	0.793439	0.666718
C70	C	0.202025	0.074497	0.000063
C71	C	0.535359	0.407830	0.333397
C72	C	0.868692	0.741163	0.666730
C73	C	0.156783	-0.030062	0.000093
C74	C	0.490116	0.303271	0.333426
C75	C	0.823450	0.636605	0.666760
C76	C	0.216185	-0.029345	0.000094
C77	C	0.549519	0.303988	0.333427
C78	C	0.882852	0.637321	0.666761
C79	C	0.238808	0.022934	0.000082
C80	C	0.572141	0.356268	0.333415
C81	C	0.905475	0.689601	0.666748
C82	C	0.298194	0.023643	0.000065
C83	C	0.631528	0.356977	0.333398
C84	C	0.964861	0.690310	0.666732
N85	N	0.320820	0.075920	0.000059
N86	N	0.654154	0.409253	0.333392
N87	N	0.987487	0.742586	0.666726
C88	C	0.284048	0.127484	0.000052
C89	C	0.617381	0.460817	0.333386
C90	C	0.950714	0.794151	0.666719
C91	C	-0.064135	0.019302	0.000080
C92	C	0.269198	0.352635	0.333413
C93	C	0.602532	0.685969	0.666746
C94	C	-0.123533	0.018589	0.000075
C95	C	0.209800	0.351923	0.333408
C96	C	0.543134	0.685256	0.666742
C97	C	-0.137680	0.122434	0.000061
C98	C	0.195653	0.455768	0.333395
C99	C	0.528986	0.789101	0.666728
C100	C	-0.078281	0.123146	0.000062
C101	C	0.255052	0.456480	0.333395
C102	C	0.588385	0.789813	0.666729
C103	C	-0.041509	0.071578	0.000074
C104	C	0.291824	0.404912	0.333407
C105	C	0.625158	0.738245	0.666740
C106	C	0.408784	0.128974	0.000042
C107	C	0.742118	0.462307	0.333375
C108	C	1.075451	0.795640	0.666708
C109	C	0.468186	0.129680	0.000034
C110	C	0.801520	0.463014	0.333368
C111	C	1.134853	0.796347	0.666701
C112	C	0.482329	0.025836	0.000051
C113	C	0.815662	0.359169	0.333384
C114	C	1.148995	0.692503	0.666718
C115	C	0.422932	0.025129	0.000055
C116	C	0.756265	0.358462	0.333389
C117	C	1.089598	0.691796	0.666722
C118	C	0.386160	0.076702	0.000052
C119	C	0.719494	0.410036	0.333386
C120	C	1.052827	0.743369	0.666719
O121	O	0.334974	-0.020119	0.000052
O122	O	0.668307	0.313214	0.333385
O123	O	1.001640	0.646547	0.666719
O124	O	0.308755	0.172007	0.000054
O125	O	0.642089	0.505340	0.333387
O126	O	0.975422	0.838674	0.666721
C127	C	0.677071	-0.030013	0.000072
C128	C	1.010404	0.303321	0.333405
C129	C	1.343738	0.636654	0.666738
C130	C	0.676305	-0.093230	0.000076
C131	C	1.009638	0.240104	0.333409
C132	C	1.342972	0.573437	0.666743
C133	C	0.723539	-0.492333	0.000049
C134	C	1.056872	-0.158999	0.333382
C135	C	1.390205	0.174334	0.666716
C136	C	0.722827	-0.551733	0.000044
C137	C	1.056160	-0.218400	0.333378
C138	C	1.389494	0.114934	0.666711
O139	O	0.766613	-0.588478	0.000027
O140	O	1.099946	-0.255144	0.333361
O141	O	1.433280	0.078189	0.666694
N142	N	0.670551	-0.574359	0.000039
N143	N	1.003884	-0.241026	0.333372
N144	N	1.337217	0.092307	0.666706
C145	C	0.618983	-0.537582	0.000032
C146	C	0.952316	-0.204248	0.333366
C147	C	1.285649	0.129085	0.666699
O148	O	0.574452	-0.562281	0.000027
O149	O	0.907785	-0.228948	0.333360
O150	O	1.241119	0.104385	0.666693
C151	C	0.619695	-0.478182	0.000033
C152	C	0.953028	-0.144849	0.333366
C153	C	1.286361	0.188484	0.666699
C154	C	0.671974	-0.455560	0.000044
C155	C	1.005308	-0.122227	0.333377
C156	C	1.338641	0.211107	0.666711
C157	C	0.775814	-0.469710	0.000060
C158	C	1.109147	-0.136376	0.333393
C159	C	1.442481	0.196957	0.666726
C160	C	0.776525	-0.410313	0.000065
C161	C	1.109859	-0.076980	0.333399
C162	C	1.443192	0.256353	0.666732
C163	C	0.724961	-0.373540	0.000060
C164	C	1.058294	-0.040207	0.333394
C165	C	1.391628	0.293126	0.666727
C166	C	0.672685	-0.396164	0.000050
C167	C	1.006019	-0.062830	0.333383
C168	C	1.339352	0.270503	0.666716
C169	C	0.568127	-0.441406	0.000022
C170	C	0.901460	-0.108073	0.333355
C171	C	1.234794	0.225261	0.666688
C172	C	0.568844	-0.382004	0.000021
C173	C	0.902177	-0.048670	0.333355
C174	C	1.235510	0.284663	0.666688
C175	C	0.621123	-0.359381	0.000033
C176	C	0.954457	-0.026048	0.333366
C177	C	1.287790	0.307286	0.666699
C178	C	0.621832	-0.299995	0.000050
C179	C	0.955166	0.033339	0.333384
C180	C	1.288499	0.366672	0.666717
N181	N	0.674109	-0.277368	0.000056
N182	N	1.007442	0.055965	0.333389
N183	N	1.340775	0.389298	0.666722
C184	C	0.725673	-0.314141	0.000061
C185	C	1.059006	0.019192	0.333394
C186	C	1.392340	0.352525	0.666727
C187	C	0.617491	-0.662324	0.000031
C188	C	0.950824	-0.328991	0.333364
C189	C	1.284158	0.004343	0.666697
C190	C	0.616778	-0.721722	0.000034
C191	C	0.950112	-0.388389	0.333368
C192	C	1.283445	-0.055055	0.666701
C193	C	0.720623	-0.735869	0.000045
C194	C	1.053957	-0.402536	0.333379
C195	C	1.387290	-0.069203	0.666712
C196	C	0.721335	-0.676470	0.000046
C197	C	1.054669	-0.343137	0.333379
C198	C	1.388002	-0.009804	0.666712
C199	C	0.669767	-0.639698	0.000036
C200	C	1.003101	-0.306365	0.333369
C201	C	1.336434	0.026969	0.666702
C202	C	0.727163	-0.189405	0.000073
C203	C	1.060496	0.143929	0.333406
C204	C	1.393829	0.477262	0.666740
C205	C	0.727869	-0.130003	0.000081
C206	C	1.061203	0.203331	0.333414
C207	C	1.394536	0.536664	0.666748
C208	C	0.624025	-0.115860	0.000067
C209	C	0.957358	0.217473	0.333400
C210	C	1.290692	0.550806	0.666734
C211	C	0.623318	-0.175257	0.000062
C212	C	0.956651	0.158076	0.333395
C213	C	1.289985	0.491409	0.666729
C214	C	0.674891	-0.212029	0.000063
C215	C	1.008225	0.121305	0.333396
C216	C	1.341558	0.454638	0.666730
O217	O	0.578070	-0.263215	0.000065
O218	O	0.911403	0.070118	0.333398
O219	O	1.244736	0.403451	0.666732
O220	O	0.770196	-0.289433	0.000058
O221	O	1.103529	0.043900	0.333392
O222	O	1.436863	0.377233	0.666725
C223	C	0.776472	0.069388	0.000069
C224	C	1.109805	0.402722	0.333402
C225	C	1.443138	0.736055	0.666735
C226	C	0.839689	0.070154	0.000071
C227	C	1.173022	0.403487	0.333405
C228	C	1.506355	0.736821	0.666738
C229	C	0.667577	0.178283	0.000045
C230	C	1.000910	0.511616	0.333378
C231	C	1.334244	0.844949	0.666711
C232	C	0.668343	0.241500	0.000036
C233	C	1.001676	0.574833	0.333370
C234	C	1.335010	0.908167	0.666703
N235	N	0.672304	0.074155	0.153314
N236	N	1.005637	0.407488	0.486647
N237	N	1.338971	0.740821	0.819981
N238	N	0.672349	0.074111	-0.153196
N239	N	1.005682	0.407444	0.180137
N240	N	1.339015	0.740778	0.513470
C241	C	0.711273	0.035196	0.561965
C242	C	1.044606	0.368529	0.895298
C243	C	1.377940	0.701862	1.228631
C244	C	0.711276	0.035192	0.623884
C245	C	1.044609	0.368525	0.957218
C246	C	1.377942	0.701858	1.290551
O247	O	0.744384	0.002076	0.655911
O248	O	1.077718	0.335409	0.989244
O249	O	1.411051	0.668742	1.322578
N250	N	0.672334	0.074115	0.654851
N251	N	1.005667	0.407448	0.988185
N252	N	1.339001	0.740781	1.321518
C253	C	0.633383	0.113041	0.623895
C254	C	0.966716	0.446374	0.957228
C255	C	1.300049	0.779708	1.290562
O256	O	0.600259	0.146147	0.655920
O257	O	0.933593	0.479481	0.989254
O258	O	1.266926	0.812814	1.322587
C259	C	0.633377	0.113042	0.561976
C260	C	0.966711	0.446375	0.895309
C261	C	1.300044	0.779709	1.228643
C262	C	0.672326	0.074120	0.531013
C263	C	1.005659	0.407453	0.864346
C264	C	1.338992	0.740787	1.197679
C265	C	0.750218	-0.003724	0.531001
C266	C	1.083551	0.329610	0.864334
C267	C	1.416884	0.662943	1.197668
C268	C	0.750215	-0.003719	0.469085
C269	C	1.083549	0.329615	0.802419
C270	C	1.416882	0.662948	1.135752
C271	C	0.711268	0.035206	0.438133
C272	C	1.044601	0.368539	0.771467
C273	C	1.377935	0.701872	1.104800
C274	C	0.672323	0.074125	0.469097
C275	C	1.005657	0.407458	0.802430
C276	C	1.338990	0.740792	1.135764
C277	C	0.594424	0.151965	0.531021
C278	C	0.927757	0.485298	0.864354
C279	C	1.261091	0.818631	1.197688
C280	C	0.594422	0.151962	0.469098
C281	C	0.927755	0.485295	0.802431
C282	C	1.261089	0.818629	1.135765
C283	C	0.633370	0.113040	0.438134
C284	C	0.966704	0.446374	0.771468
C285	C	1.300037	0.779707	1.104801
C286	C	0.633374	0.113054	0.376229
C287	C	0.966707	0.446387	0.709563
C288	C	1.300041	0.779721	1.042896
N289	N	0.672316	0.074131	0.345262
N290	N	1.005649	0.407464	0.678596
N291	N	1.338983	0.740798	1.011929
C292	C	0.711263	0.035207	0.376214
C293	C	1.044596	0.368540	0.709548
C294	C	1.377930	0.701873	1.042881
C295	C	0.633396	0.113035	0.753928
C296	C	0.966729	0.446369	1.087262
C297	C	1.300063	0.779702	1.420595
C298	C	0.633403	0.113037	0.815846
C299	C	0.966737	0.446371	1.149179
C300	C	1.300070	0.779704	1.482513
C301	C	0.711296	0.035187	0.815831
C302	C	1.044629	0.368521	1.149165
C303	C	1.377962	0.701854	1.482498
C304	C	0.711291	0.035188	0.753913
C305	C	1.044624	0.368521	1.087246
C306	C	1.377957	0.701855	1.420579
C307	C	0.672338	0.074112	0.722962
C308	C	1.005671	0.407445	1.056295
C309	C	1.339004	0.740779	1.389628
C310	C	0.711255	0.035220	0.246187
C311	C	1.044589	0.368554	0.579520
C312	C	1.377922	0.701887	0.912854
C313	C	0.711251	0.035230	0.184266
C314	C	1.044584	0.368564	0.517599
C315	C	1.377918	0.701897	0.850933
C316	C	0.633357	0.113078	0.184286
C317	C	0.966690	0.446412	0.517619
C318	C	1.300023	0.779745	0.850953
C319	C	0.633363	0.113071	0.246202
C320	C	0.966696	0.446404	0.579535
C321	C	1.300029	0.779737	0.912869
C322	C	0.672314	0.074137	0.277151
C323	C	1.005648	0.407470	0.610484
C324	C	1.338981	0.740804	0.943818
O325	O	0.600281	0.146152	0.344163
O326	O	0.933614	0.479485	0.677497
O327	O	1.266948	0.812818	1.010830
O328	O	0.744376	0.002101	0.344182
O329	O	1.077709	0.335434	0.677515
O330	O	1.411042	0.668767	1.010848
H331	H	-0.167632	0.164421	0.000059
H332	H	0.165701	0.497754	0.333392
H333	H	0.499035	0.831087	0.666725
H334	H	0.575496	-0.632386	0.000028
H335	H	0.908829	-0.299053	0.333361
H336	H	1.242162	0.034280	0.666694
Cl337	Cl	0.502400	-0.469831	0.000003
Cl338	Cl	0.835733	-0.136497	0.333337
Cl339	Cl	1.169066	0.196836	0.666670
Cl340	Cl	0.793597	-0.101567	0.000094
Cl341	Cl	1.126931	0.231766	0.333427
Cl342	Cl	1.460264	0.565100	0.666761
H343	H	0.763906	-0.658056	0.000054
H344	H	1.097239	-0.324722	0.333388
H345	H	1.430573	0.008611	0.666721
H346	H	0.769159	-0.219337	0.000071
H347	H	1.102492	0.113996	0.333405
H348	H	1.435826	0.447329	0.666738
H349	H	0.582043	-0.085909	0.000065
H350	H	0.915376	0.247424	0.333398
H351	H	1.248709	0.580757	0.666732
H352	H	-0.034198	-0.022693	0.000084
H353	H	0.299136	0.310640	0.333417
H354	H	0.632469	0.643973	0.666751
H355	H	0.562700	0.183658	0.443901
H356	H	0.896033	0.516991	0.777234
H357	H	1.229367	0.850325	1.110567
H358	H	0.819097	-0.391900	0.000072
H359	H	1.152430	-0.058567	0.333405
H360	H	1.485763	0.274767	0.666739
H361	H	0.512280	-0.016146	0.000054
H362	H	0.845613	0.317187	0.333388
H363	H	1.178946	0.650520	0.666721
H364	H	0.601653	0.144770	0.271413
H365	H	0.934986	0.478103	0.604746
H366	H	1.268320	0.811437	0.938080
Cl367	Cl	0.785447	-0.782109	0.000047
Cl368	Cl	1.118781	-0.448776	0.333381
Cl369	Cl	1.452114	-0.115443	0.666714
Cl370	Cl	0.760219	-0.013703	0.145344
Cl371	Cl	1.093552	0.319631	0.478677
Cl372	Cl	1.426886	0.652964	0.812010
Cl373	Cl	0.760225	-0.013725	0.285084
Cl374	Cl	1.093558	0.319608	0.618418
Cl375	Cl	1.426891	0.652942	0.951751
H376	H	0.601648	0.144772	0.159075
H377	H	0.934981	0.478105	0.492409
H378	H	1.268315	0.811438	0.825742
H379	H	0.486602	0.172255	0.000024
H380	H	0.819935	0.505588	0.333357
H381	H	1.153269	0.838921	0.666691
Cl382	Cl	0.557594	-0.203698	0.000059
Cl383	Cl	0.890928	0.129635	0.333392
Cl384	Cl	1.224261	0.462969	0.666726
Cl385	Cl	0.362567	0.193810	0.000037
Cl386	Cl	0.695900	0.527143	0.333371
Cl387	Cl	1.029233	0.860477	0.666704
H388	H	0.574207	-0.740136	0.000035
H389	H	0.907540	-0.406802	0.333369
H390	H	1.240874	-0.073469	0.666702
H391	H	0.098544	0.219617	0.000046
H392	H	0.431877	0.552951	0.333380
H393	H	0.765211	0.886284	0.666713
Cl394	Cl	0.799177	-0.052655	0.430166
Cl395	Cl	1.132510	0.280679	0.763500
Cl396	Cl	1.465843	0.614012	1.096833
H397	H	0.138375	-0.072634	0.000103
H398	H	0.471708	0.260700	0.333437
H399	H	0.805041	0.594033	0.666770
Cl400	Cl	0.262410	-0.094178	0.000110
Cl401	Cl	0.595744	0.239155	0.333443
Cl402	Cl	0.929077	0.572489	0.666776
H403	H	0.781933	-0.035423	0.556197
H404	H	1.115266	0.297910	0.889530
H405	H	1.448600	0.631244	1.222863
Cl406	Cl	0.504011	-0.335779	0.000008
Cl407	Cl	0.837344	-0.002445	0.333342
Cl408	Cl	1.170678	0.330888	0.666675
H409	H	0.817806	-0.499645	0.000061
H410	H	1.151140	-0.166312	0.333395
H411	H	1.484473	0.167022	0.666728
Cl412	Cl	0.216306	0.244063	0.000034
Cl413	Cl	0.549639	0.577396	0.333367
Cl414	Cl	0.882973	0.910730	0.666701
H415	H	-0.059867	0.165717	0.000055
H416	H	0.273467	0.499050	0.333389
H417	H	0.606800	0.832384	0.666722
Cl418	Cl	0.584445	0.161977	0.854765
Cl419	Cl	0.917779	0.495311	1.188098
Cl420	Cl	1.251112	0.828644	1.521431
Cl421	Cl	0.760255	-0.013745	0.714994
Cl422	Cl	1.093588	0.319588	1.048327
Cl423	Cl	1.426921	0.652921	1.381660
H424	H	0.743008	0.003492	0.841044
H425	H	1.076341	0.336825	1.174377
H426	H	1.409675	0.670159	1.507710
H427	H	0.562709	0.183658	0.556223
H428	H	0.896042	0.516992	0.889556
H429	H	1.229375	0.850325	1.222889
Cl430	Cl	-0.151965	-0.047136	0.000075
Cl431	Cl	0.181368	0.286197	0.333409
Cl432	Cl	0.514701	0.619530	0.666742
Cl433	Cl	0.394491	-0.040595	0.000073
Cl434	Cl	0.727824	0.292739	0.333407
Cl435	Cl	1.061158	0.626072	0.666740
H436	H	0.601677	0.144736	0.728731
H437	H	0.935010	0.478070	1.062065
H438	H	1.268344	0.811403	1.395398
