data_functionalizedCrystal
_audit_creation_method	'MofGen! by Chris Wilmer'
_symmetry_space_group_name_H-M	'P1'
_symmetry_Int_Tables_number	1
_symmetry_cell_setting	triclinic
loop_
_symmetry_equiv_pos_as_xyz
  x,y,z
_cell_length_a	16.959455
_cell_length_b	14.908932
_cell_length_c	14.910749
_cell_angle_alpha	89.767961
_cell_angle_beta	93.222740
_cell_angle_gamma	93.296731
loop_
_atom_site_label
_atom_site_type_symbol
_atom_site_fract_x
_atom_site_fract_y
_atom_site_fract_z
Zn1	Zn	1.164690	-0.387146	-0.487661
Zn2	Zn	1.664690	0.112854	0.012339
Zn3	Zn	1.165376	-0.528917	-0.328684
Zn4	Zn	1.665376	-0.028917	0.171316
Zn5	Zn	1.040415	-0.378565	-0.337353
Zn6	Zn	1.540415	0.121435	0.162647
Zn7	Zn	1.025354	-0.537457	-0.478967
Zn8	Zn	1.525354	-0.037457	0.021033
O9	O	1.098959	-0.458021	-0.408166
O10	O	1.598959	0.041979	0.091834
O11	O	1.275391	-0.405969	-0.466583
O12	O	1.775391	0.094031	0.033417
O13	O	1.155389	-0.501808	-0.204036
O14	O	1.655389	-0.001808	0.295964
O15	O	1.062917	-0.253875	-0.364558
O16	O	1.562917	0.246125	0.135442
O17	O	1.275894	-0.510128	-0.349783
O18	O	1.775894	-0.010128	0.150217
O19	O	1.154221	-0.260179	-0.474989
O20	O	1.654221	0.239821	0.025011
O21	O	1.063581	-0.391345	-0.210405
O22	O	1.563581	0.108655	0.289595
O23	O	0.927807	-0.399626	-0.356128
O24	O	1.427807	0.100374	0.143872
O25	O	1.037247	-0.524683	-0.605918
O26	O	1.537247	-0.024683	-0.105918
O27	O	0.916742	-0.516363	-0.460171
O28	O	1.416742	-0.016363	0.039829
O29	O	1.139617	-0.414250	-0.612306
O30	O	1.639617	0.085750	-0.112306
O31	O	1.140785	-0.655879	-0.341352
O32	O	1.640785	-0.155879	0.158648
O33	O	1.037912	-0.662153	-0.451764
O34	O	1.537912	-0.162153	0.048236
C35	C	0.893595	-0.457990	-0.408147
C36	C	1.393595	0.042010	0.091853
C37	C	0.805737	-0.458000	-0.408159
C38	C	1.305737	0.042000	0.091841
C39	C	1.087809	-0.691643	-0.394694
C40	C	1.587809	-0.191643	0.105306
C41	C	1.083110	-0.791589	-0.388960
C42	C	1.583110	-0.291589	0.111040
C43	C	1.086675	-0.471376	-0.642642
C44	C	1.586675	0.028624	-0.142642
C45	C	1.081441	-0.477067	-0.742562
C46	C	1.581441	0.022933	-0.242562
C47	C	0.439993	-0.397196	-0.354114
C48	C	0.939993	0.102804	0.145886
C49	C	0.428521	-0.518924	-0.462265
C50	C	0.928521	-0.018924	0.037735
C51	C	0.511067	-0.518910	-0.462261
C52	C	1.011067	-0.018910	0.037739
C53	C	0.558081	-0.458040	-0.408181
C54	C	1.058081	0.041960	0.091819
C55	C	0.522548	-0.397183	-0.354105
C56	C	1.022548	0.102817	0.145895
C57	C	0.546607	-0.579772	-0.516328
C58	C	1.046607	-0.079772	-0.016328
C59	C	0.629158	-0.579762	-0.516325
C60	C	1.129158	-0.079762	-0.016325
C61	C	0.676174	-0.518887	-0.462249
C62	C	1.176174	-0.018887	0.037751
C63	C	0.640636	-0.458027	-0.408172
C64	C	1.140636	0.041973	0.091828
C65	C	0.687649	-0.397156	-0.354092
C66	C	1.187649	0.102844	0.145908
C67	C	0.652113	-0.336291	-0.300019
C68	C	1.152113	0.163709	0.199981
C69	C	0.569563	-0.336307	-0.300029
C70	C	1.069563	0.163693	0.199971
C71	C	0.758723	-0.518871	-0.462239
C72	C	1.258723	-0.018871	0.037761
C73	C	0.770204	-0.397143	-0.354084
C74	C	1.270204	0.102857	0.145916
C75	C	1.305124	-0.458053	-0.408185
C76	C	1.805124	0.041947	0.091815
C77	C	1.392980	-0.458066	-0.408194
C78	C	1.892980	0.041934	0.091806
C79	C	1.110172	-0.223489	-0.421710
C80	C	1.610172	0.276511	0.078290
C81	C	1.114951	-0.123545	-0.427482
C82	C	1.614951	0.376455	0.072518
C83	C	1.028837	0.070827	-0.323339
C84	C	1.528837	0.570827	0.176661
C85	C	1.033324	0.164733	-0.328760
C86	C	1.533324	0.664733	0.171240
C87	C	1.128409	0.158176	-0.443747
C88	C	1.628409	0.658176	0.056253
C89	C	1.123921	0.064270	-0.438327
C90	C	1.623921	0.564270	0.061673
C91	C	1.074135	0.020598	-0.378120
C92	C	1.574135	0.520598	0.121880
C93	C	1.069652	-0.073309	-0.372696
C94	C	1.569652	0.426691	0.127304
C95	C	1.164732	-0.079865	-0.487687
C96	C	1.664732	0.420135	0.012313
C97	C	1.169219	0.014041	-0.493107
C98	C	1.669219	0.514041	0.006893
C99	C	1.111243	-0.444653	-0.174606
C100	C	1.611243	0.055347	0.325394
C101	C	1.116642	-0.438709	-0.074701
C102	C	1.616642	0.061291	0.425299
C103	C	1.020895	-0.543334	0.120223
C104	C	1.520895	-0.043334	0.620223
C105	C	1.025965	-0.537752	0.214092
C106	C	1.525965	-0.037752	0.714092
C107	C	1.131849	-0.421958	0.206908
C108	C	1.631849	0.078042	0.706908
C109	C	1.126778	-0.427541	0.113039
C110	C	1.626778	0.072459	0.613039
C111	C	1.071300	-0.488232	0.069700
C112	C	1.571300	0.011768	0.569700
C113	C	1.066234	-0.493818	-0.024171
C114	C	1.566234	0.006182	0.475829
C115	C	1.172114	-0.378020	-0.031354
C116	C	1.672114	0.121980	0.468646
C117	C	1.177184	-0.372438	0.062516
C118	C	1.677184	0.127562	0.562516
H119	H	0.690402	-0.286734	-0.255983
H120	H	1.190402	0.213266	0.244017
H121	H	1.213159	-0.333153	-0.072500
H122	H	1.713159	0.166847	0.427500
H123	H	0.390237	-0.568486	-0.506289
H124	H	0.890237	-0.068486	-0.006289
H125	H	0.411056	-0.347639	-0.310092
H126	H	0.911056	0.152361	0.189908
H127	H	0.540622	-0.286755	-0.256005
H128	H	1.040622	0.213245	0.243995
C129	C	1.193907	-0.117442	-0.638245
C130	C	1.693907	0.382558	-0.138245
C131	C	1.214535	-0.135072	-0.547905
C132	C	1.714535	0.364928	-0.047905
H133	H	1.224661	-0.151520	-0.675415
H134	H	1.724661	0.348480	-0.175415
H135	H	1.139385	-0.133589	-0.650511
H136	H	1.639385	0.366411	-0.150511
H137	H	1.203701	-0.055261	-0.650077
H138	H	1.703701	0.444739	-0.150077
H139	H	1.204736	-0.197252	-0.536071
H140	H	1.704736	0.302748	-0.036071
H141	H	1.269070	-0.118931	-0.535634
H142	H	1.769070	0.381069	-0.035634
C143	C	0.953671	-0.513430	-0.128720
C144	C	1.453671	-0.013430	0.371280
C145	C	1.005256	-0.560526	-0.071816
C146	C	1.505256	-0.060526	0.428184
H147	H	0.916028	-0.554615	-0.158136
H148	H	1.416028	-0.054615	0.341864
H149	H	0.927028	-0.472330	-0.094384
H150	H	1.427028	0.027670	0.405616
H151	H	0.982975	-0.481416	-0.172242
H152	H	1.482975	0.018584	0.327758
H153	H	0.975952	-0.592535	-0.028290
H154	H	1.475952	-0.092535	0.471710
H155	H	1.031901	-0.601642	-0.106155
H156	H	1.531901	-0.101642	0.393845
C157	C	1.231978	-0.312473	0.203222
C158	C	1.731978	0.187527	0.703222
C159	C	1.238169	-0.305736	0.110160
C160	C	1.738169	0.194264	0.610160
H161	H	1.269635	-0.271299	0.232633
H162	H	1.769635	0.228701	0.732633
H163	H	1.180240	-0.298812	0.217943
H164	H	1.680240	0.201188	0.717943
H165	H	1.241875	-0.371877	0.222206
H166	H	1.741875	0.128123	0.722206
H167	H	1.228266	-0.246334	0.091175
H168	H	1.728266	0.253666	0.591175
H169	H	1.289919	-0.319392	0.095433
H170	H	1.789919	0.180608	0.595433
H171	H	0.808478	-0.347569	-0.310050
H172	H	1.308478	0.152431	0.189950
H173	H	0.508323	-0.629336	-0.560351
H174	H	1.008323	-0.129336	-0.060351
H175	H	0.658085	-0.629322	-0.560355
H176	H	1.158085	-0.129322	-0.060355
C177	C	0.997981	0.311594	-0.286014
C178	C	1.497981	0.811594	0.213986
C179	C	0.983533	0.219946	-0.268543
C180	C	1.483533	0.719946	0.231457
H181	H	0.967235	0.345678	-0.248841
H182	H	1.467235	0.845678	0.251159
H183	H	1.052506	0.327722	-0.273744
H184	H	1.552506	0.827722	0.226256
H185	H	0.983987	0.323537	-0.347305
H186	H	1.483987	0.823537	0.152695
H187	H	0.997532	0.208002	-0.207253
H188	H	1.497532	0.708002	0.292747
H189	H	0.928995	0.203812	-0.280807
H190	H	1.428995	0.703812	0.219193
C191	C	0.739087	-0.639196	-0.569139
C192	C	1.239087	-0.139196	-0.069139
C193	C	0.797785	-0.585764	-0.521673
C194	C	1.297785	-0.085764	-0.021673
H195	H	0.763204	-0.680490	-0.605838
H196	H	1.263204	-0.180490	-0.105838
H197	H	0.707310	-0.671301	-0.527937
H198	H	1.207310	-0.171301	-0.027937
H199	H	0.706948	-0.602033	-0.605847
H200	H	1.206948	-0.102033	-0.105847
H201	H	0.829922	-0.622927	-0.484960
H202	H	1.329922	-0.122927	0.015040
H203	H	0.829576	-0.553657	-0.562880
H204	H	1.329576	-0.053657	-0.062880
C205	C	0.916748	-0.657237	0.136749
C206	C	1.416748	-0.157237	0.636749
C207	C	0.959919	-0.610046	0.072578
C208	C	1.459919	-0.110046	0.572578
H209	H	0.879100	-0.698419	0.107334
H210	H	1.379100	-0.198419	0.607334
H211	H	0.951752	-0.689172	0.175343
H212	H	1.451752	-0.189172	0.675343
H213	H	0.890101	-0.616123	0.171080
H214	H	1.390101	-0.116123	0.671080
H215	H	0.986570	-0.651160	0.038252
H216	H	1.486570	-0.151160	0.538252
H217	H	0.924909	-0.578109	0.033968
H218	H	1.424909	-0.078109	0.533968
H219	H	0.984915	-0.582617	0.255225
H220	H	1.484915	-0.082617	0.755225
C221	C	0.976108	-0.057393	-0.259591
C222	C	1.476108	0.442607	0.240409
C223	C	1.014923	-0.121316	-0.306523
C224	C	1.514923	0.378684	0.193477
H225	H	0.942315	-0.087031	-0.218744
H226	H	1.442315	0.412969	0.281256
H227	H	1.014094	-0.018816	-0.227318
H228	H	1.514094	0.481184	0.272682
H229	H	0.945579	-0.022990	-0.300884
H230	H	1.445579	0.477010	0.199116
H231	H	1.045457	-0.155714	-0.265229
H232	H	1.545457	0.344286	0.234771
H233	H	0.976932	-0.159909	-0.338797
H234	H	1.476932	0.340091	0.161203
H235	H	0.988303	0.035269	-0.274312
H236	H	1.488303	0.535269	0.225688
H237	H	1.168938	0.193745	-0.492772
H238	H	1.668938	0.693745	0.007228
H239	H	1.177012	-0.372542	0.242211
H240	H	1.677012	0.127458	0.742211
C241	C	1.218322	0.155083	-0.552470
C242	C	1.718322	0.655083	-0.052470
C243	C	1.223947	0.062050	-0.559280
C244	C	1.723947	0.562050	-0.059280
H245	H	1.252115	0.184718	-0.593318
H246	H	1.752115	0.684718	-0.093318
H247	H	1.165267	0.169724	-0.566520
H248	H	1.665267	0.669724	-0.066520
H249	H	1.233782	0.173901	-0.492953
H250	H	1.733782	0.673901	0.007047
H251	H	1.208480	0.043231	-0.618795
H252	H	1.708480	0.543231	-0.118795
H253	H	1.277013	0.047403	-0.545235
H254	H	1.777013	0.547403	-0.045235
