data_functionalizedCrystal
_audit_creation_method	'MofGen! by Chris Wilmer'
_symmetry_space_group_name_H-M	'P1'
_symmetry_Int_Tables_number	1
_symmetry_cell_setting	triclinic
loop_
_symmetry_equiv_pos_as_xyz
  x,y,z
_cell_length_a	14.908618
_cell_length_b	11.169417
_cell_length_c	11.169409
_cell_angle_alpha	89.980176
_cell_angle_beta	86.730959
_cell_angle_gamma	93.294137
loop_
_atom_site_label
_atom_site_type_symbol
_atom_site_fract_x
_atom_site_fract_y
_atom_site_fract_z
Zn1	Zn	0.359054	1.862604	-0.706151
Zn2	Zn	0.692388	2.195938	-0.372818
Zn3	Zn	1.025721	2.529271	-0.039485
Zn4	Zn	0.509943	1.874110	-0.517070
Zn5	Zn	0.843276	2.207443	-0.183737
Zn6	Zn	1.176609	2.540777	0.149596
Zn7	Zn	0.359109	1.661894	-0.505490
Zn8	Zn	0.692443	1.995228	-0.172157
Zn9	Zn	1.025776	2.328561	0.161177
Zn10	Zn	0.509869	1.673508	-0.717710
Zn11	Zn	0.843203	2.006842	-0.384376
Zn12	Zn	1.176536	2.340175	-0.051043
O13	O	0.434494	1.768029	-0.611605
O14	O	0.767827	2.101363	-0.278272
O15	O	1.101161	2.434696	0.055061
O16	O	0.379078	2.032081	-0.681079
O17	O	0.712411	2.365414	-0.347745
O18	O	1.045744	2.698747	-0.014412
O19	O	0.489988	1.845914	-0.347588
O20	O	0.823321	2.179247	-0.014255
O21	O	1.156655	2.512580	0.319078
O22	O	0.232861	1.678843	-0.522424
O23	O	0.566194	2.012177	-0.189091
O24	O	0.899528	2.345510	0.144242
O25	O	0.489935	2.040534	-0.542162
O26	O	0.823268	2.373867	-0.208828
O27	O	1.156601	2.707201	0.124505
O28	O	0.232820	1.826304	-0.669849
O29	O	0.566154	2.159637	-0.336516
O30	O	0.899487	2.492971	-0.003183
O31	O	0.379171	1.690000	-0.339080
O32	O	0.712505	2.023333	-0.005747
O33	O	1.045838	2.356667	0.327586
O34	O	0.379100	1.495485	-0.533632
O35	O	0.712433	1.828818	-0.200299
O36	O	1.045767	2.162151	0.133035
O37	O	0.489810	1.698638	-0.884122
O38	O	0.823143	2.031971	-0.550789
O39	O	1.156476	2.365304	-0.217455
O40	O	0.489863	1.504017	-0.689549
O41	O	0.823196	1.837351	-0.356216
O42	O	1.156530	2.170684	-0.022882
O43	O	0.379006	1.837566	-0.875630
O44	O	0.712340	2.170899	-0.542297
O45	O	1.045673	2.504232	-0.208964
O46	O	0.636174	1.857175	-0.553369
O47	O	0.969507	2.190509	-0.220036
O48	O	1.302841	2.523842	0.113297
O49	O	0.636120	1.709794	-0.700778
O50	O	0.969453	2.043127	-0.367445
O51	O	1.302787	2.376461	-0.034111
C52	C	0.434480	1.456203	-0.611589
C53	C	0.767814	1.789537	-0.278255
C54	C	1.101147	2.122870	0.055078
C55	C	0.434496	1.322805	-0.611612
C56	C	0.767829	1.656138	-0.278279
C57	C	1.101163	1.989471	0.055055
C58	C	0.199193	1.749995	-0.593556
C59	C	0.532526	2.083328	-0.260222
C60	C	0.865859	2.416662	0.073111
C61	C	0.098921	1.742310	-0.585864
C62	C	0.432254	2.075643	-0.252531
C63	C	0.765588	2.408976	0.080802
C64	C	-0.042387	1.654714	-0.498274
C65	C	0.290946	1.988047	-0.164940
C66	C	0.624280	2.321381	0.168393
C67	C	0.051827	1.661929	-0.505496
C68	C	0.385160	1.995262	-0.172162
C69	C	0.718494	2.328595	0.161171
C70	C	0.051795	1.815484	-0.659013
C71	C	0.385128	2.148817	-0.325680
C72	C	0.718461	2.482151	0.007653
C73	C	-0.042419	1.808269	-0.651791
C74	C	0.290914	2.141603	-0.318458
C75	C	0.624248	2.474936	0.014876
C76	C	-0.089507	1.727880	-0.571420
C77	C	0.243827	2.061214	-0.238087
C78	C	0.577160	2.394547	0.095247
C79	C	-0.183722	1.720660	-0.564204
C80	C	0.149611	2.053994	-0.230871
C81	C	0.482944	2.387327	0.102462
C82	C	-0.183753	1.874221	-0.717715
C83	C	0.149581	2.207555	-0.384382
C84	C	0.482914	2.540888	-0.051048
C85	C	-0.089539	1.881436	-0.724937
C86	C	0.243795	2.214769	-0.391604
C87	C	0.577128	2.548103	-0.058271
C88	C	0.668880	1.786026	-0.629611
C89	C	1.002213	2.119359	-0.296277
C90	C	1.335547	2.452693	0.037056
C91	C	0.769151	1.793835	-0.637354
C92	C	1.102485	2.127168	-0.304020
C93	C	1.435818	2.460502	0.029313
C94	C	0.434394	1.768114	-0.924640
C95	C	0.767727	2.101447	-0.591307
C96	C	1.101060	2.434780	-0.257973
C97	C	0.434351	1.768150	-1.058037
C98	C	0.767684	2.101483	-0.724704
C99	C	1.101018	2.434816	-0.391370
C100	C	0.434508	2.081073	-0.611623
C101	C	0.767842	2.414406	-0.278289
C102	C	1.101175	2.747739	0.055044
C103	C	0.434514	2.214473	-0.611630
C104	C	0.767848	2.547806	-0.278297
C105	C	1.101181	2.881140	0.055037
C106	C	0.434529	1.768009	-0.299783
C107	C	0.767862	2.101342	0.033550
C108	C	1.101195	2.434676	0.366883
C109	C	0.434317	1.768186	-0.166368
C110	C	0.767650	2.101519	0.166966
C111	C	1.100984	2.434853	0.500299
H112	H	-0.222060	1.655201	-0.498765
H113	H	0.111273	1.988534	-0.165432
H114	H	0.444606	2.321867	0.167901
H115	H	0.090150	1.880942	-0.724439
H116	H	0.423483	2.214275	-0.391105
H117	H	0.756817	2.547608	-0.057772
H118	H	-0.080726	1.589250	-0.432840
H119	H	0.252607	1.922583	-0.099507
H120	H	0.585940	2.255916	0.233826
H121	H	-0.222128	1.933795	-0.777279
H122	H	0.111205	2.267128	-0.443946
H123	H	0.444538	2.600462	-0.110613
H124	H	0.090188	1.602349	-0.445932
H125	H	0.423522	1.935683	-0.112598
H126	H	0.756855	2.269016	0.220735
Cl127	Cl	-0.030334	1.982492	-0.825968
Cl128	Cl	0.302999	2.315826	-0.492635
Cl129	Cl	0.636332	2.649159	-0.159301
