data_functionalizedCrystal
_audit_creation_method	'MofGen! by Chris Wilmer'
_symmetry_space_group_name_H-M	'P1'
_symmetry_Int_Tables_number	1
_symmetry_cell_setting	triclinic
loop_
_symmetry_equiv_pos_as_xyz
  x,y,z
_cell_length_a	19.077241
_cell_length_b	19.077356
_cell_length_c	19.076919
_cell_angle_alpha	90.107245
_cell_angle_beta	89.886096
_cell_angle_gamma	85.504765
loop_
_atom_site_label
_atom_site_type_symbol
_atom_site_fract_x
_atom_site_fract_y
_atom_site_fract_z
Zn1	Zn	-1.048557	-0.255470	0.429956
Zn2	Zn	-1.048900	-0.368246	0.307767
Zn3	Zn	-0.935786	-0.255099	0.307749
Zn4	Zn	-0.926361	-0.377633	0.420112
O5	O	-0.989901	-0.314112	0.366396
O6	O	-1.147079	-0.266657	0.417875
O7	O	-1.037983	-0.349154	0.209603
O8	O	-0.954546	-0.156670	0.328073
O9	O	-1.147332	-0.349513	0.328103
O10	O	-1.037398	-0.156943	0.417858
O11	O	-0.954879	-0.266025	0.209591
O12	O	-0.836059	-0.275127	0.318528
O13	O	-0.938483	-0.365511	0.519579
O14	O	-0.829134	-0.365151	0.401080
O15	O	-1.028259	-0.275759	0.526812
O16	O	-1.028844	-0.467969	0.318557
O17	O	-0.938815	-0.474866	0.401097
C18	C	-0.807062	-0.321118	0.358734
C19	C	-0.728842	-0.324133	0.355472
C20	C	-0.691958	-0.282484	0.400745
C21	C	-0.618461	-0.285313	0.397674
C22	C	-0.581851	-0.329795	0.349334
C23	C	-0.618740	-0.371445	0.304056
C24	C	-0.692235	-0.368611	0.307124
C25	C	-0.362059	-0.342883	0.335136
C26	C	-0.288559	-0.345714	0.332073
C27	C	-0.288285	-0.259582	0.425690
C28	C	-0.361781	-0.256756	0.428757
C29	C	-0.398664	-0.298403	0.383477
N30	N	-0.506726	-0.332689	0.346195
N31	N	-0.473788	-0.295504	0.386613
C32	C	-0.982863	-0.496952	0.358777
C33	C	-0.979915	-0.575170	0.355543
C34	C	-0.982281	-0.321723	0.549359
C35	C	-0.979034	-0.324967	0.627327
C36	C	-0.173454	-0.307075	0.374083
C37	C	-0.251674	-0.304066	0.377345
C38	C	-0.996985	-0.130558	0.374062
C39	C	-1.000004	-0.052339	0.377328
C40	C	-0.958289	-0.015448	0.332118
C41	C	-0.961124	0.058047	0.335194
C42	C	-1.005679	0.094651	0.383478
C43	C	-1.047396	0.057755	0.428692
C44	C	-1.044557	-0.015739	0.425619
C45	C	-1.018793	0.314440	0.397685
C46	C	-1.021630	0.387939	0.400753
C47	C	-0.935357	0.388227	0.307256
C48	C	-0.932525	0.314731	0.304184
C49	C	-0.974239	0.277841	0.349401
N50	N	-1.008580	0.169775	0.386622
N51	N	-0.971334	0.202718	0.346260
C52	C	-0.997533	-0.306478	0.184149
C53	C	-1.000924	-0.303031	0.106195
C54	C	-1.024248	-0.279763	0.667723
C55	C	-1.021189	-0.282808	0.740982
C56	C	-0.972919	-0.331061	0.773844
C57	C	-0.927700	-0.376266	0.733442
C58	C	-0.930756	-0.373217	0.660185
C59	C	-0.958762	-0.345188	0.992536
C60	C	-0.955710	-0.348235	1.065799
C61	C	-1.049199	-0.254776	1.073334
C62	C	-1.052254	-0.251734	1.000075
C63	C	-1.007033	-0.296936	0.959680
N64	N	-0.969792	-0.334176	0.848726
N65	N	-1.010157	-0.293817	0.884799
H66	H	-0.722266	-0.402525	0.270258
C67	C	-0.247712	-0.213768	0.475487
H68	H	-0.198698	-0.221820	0.466735
H69	H	-0.257405	-0.225632	0.522673
H70	H	-0.261997	-0.165579	0.467764
H71	H	-0.588433	-0.251400	0.434541
C72	C	-0.402048	-0.207819	0.481925
H73	H	-0.369555	-0.183414	0.508444
H74	H	-0.428421	-0.234947	0.512519
H75	H	-0.433005	-0.174895	0.457609
H76	H	-1.057915	0.417739	0.440074
H77	H	-0.922010	-0.045245	0.292798
H78	H	-0.258752	-0.381940	0.292707
C79	C	-0.883505	0.274468	0.251084
H80	H	-0.887791	0.225414	0.255727
H81	H	-0.836262	0.284279	0.259878
H82	H	-0.896230	0.288866	0.204882
H83	H	-1.058008	-0.246001	0.773870
C84	C	-0.915237	0.098628	0.285467
H85	H	-0.923300	0.147640	0.294217
H86	H	-0.927032	0.088944	0.238263
H87	H	-0.867059	0.084341	0.293252
C88	C	-1.090443	-0.056322	0.475348
H89	H	-1.082366	-0.105335	0.466608
H90	H	-1.138619	-0.042042	0.467570
H91	H	-1.078639	-0.046634	0.522552
C92	C	-1.064682	0.273870	0.447417
H93	H	-1.091628	0.306199	0.476606
H94	H	-1.035384	0.242897	0.475656
H95	H	-1.095357	0.247492	0.420667
H96	H	-0.721761	-0.246265	0.440111
H97	H	-0.392080	-0.376795	0.298266
C98	C	-1.096406	0.098017	0.481802
H99	H	-1.092129	0.147072	0.477153
H100	H	-1.083681	0.083617	0.527998
H101	H	-1.143653	0.088208	0.473008
C102	C	-0.578470	-0.420374	0.250883
H103	H	-0.529416	-0.416103	0.255544
H104	H	-0.592865	-0.407580	0.204703
H105	H	-0.588279	-0.467634	0.259610
H106	H	-0.901395	0.418269	0.270443
C107	C	-1.077343	-0.226682	0.631582
H108	H	-1.103827	-0.200192	0.666135
H109	H	-1.108160	-0.251232	0.603165
H110	H	-1.052791	-0.195860	0.603158
C111	C	-1.105352	-0.198656	0.963932
H112	H	-1.131839	-0.172167	0.998483
H113	H	-1.136165	-0.223215	0.935517
H114	H	-1.080806	-0.167832	0.935505
C115	C	-1.098932	-0.205052	1.117769
H116	H	-1.090197	-0.213773	1.166105
H117	H	-1.146319	-0.213037	1.107318
H118	H	-1.090952	-0.157662	1.107305
H119	H	-0.916401	-0.387529	1.092553
C120	C	-0.909007	-0.394895	0.948111
H121	H	-0.879823	-0.424067	0.978177
H122	H	-0.880581	-0.367945	0.919382
H123	H	-0.935920	-0.423347	0.919372
C124	C	-0.874604	-0.429344	0.769588
H125	H	-0.879264	-0.424691	0.819004
H126	H	-0.828219	-0.420358	0.756029
H127	H	-0.883585	-0.475734	0.756038
C128	C	-0.881038	-0.422957	0.615749
H129	H	-0.851861	-0.452141	0.645811
H130	H	-0.852602	-0.396037	0.587000
H131	H	-0.907985	-0.451396	0.587030
