data_functionalizedCrystal
_audit_creation_method	'MofGen! by Chris Wilmer'
_symmetry_space_group_name_H-M	'P1'
_symmetry_Int_Tables_number	1
_symmetry_cell_setting	triclinic
loop_
_symmetry_equiv_pos_as_xyz
  x,y,z
_cell_length_a	16.120490
_cell_length_b	16.120444
_cell_length_c	15.298259
_cell_angle_alpha	82.663646
_cell_angle_beta	96.301063
_cell_angle_gamma	90.165174
loop_
_atom_site_label
_atom_site_type_symbol
_atom_site_fract_x
_atom_site_fract_y
_atom_site_fract_z
Zn1	Zn	1.165128	-0.296701	-0.590199
Zn2	Zn	1.498461	0.036633	-0.256865
Zn3	Zn	1.831795	0.369966	0.076468
Zn4	Zn	1.179337	-0.459433	-0.449037
Zn5	Zn	1.512670	-0.126100	-0.115703
Zn6	Zn	1.846003	0.207233	0.217630
Zn7	Zn	1.049700	-0.315841	-0.434078
Zn8	Zn	1.383033	0.017492	-0.100745
Zn9	Zn	1.716367	0.350825	0.232589
Zn10	Zn	1.019100	-0.428781	-0.589392
Zn11	Zn	1.352433	-0.095448	-0.256059
Zn12	Zn	1.685766	0.237885	0.077274
O13	O	1.103316	-0.375189	-0.515676
O14	O	1.436649	-0.041856	-0.182343
O15	O	1.769983	0.291478	0.150990
O16	O	1.282380	-0.323105	-0.578071
O17	O	1.615713	0.010228	-0.244738
O18	O	1.949046	0.343562	0.088596
O19	O	1.180893	-0.461224	-0.322976
O20	O	1.514226	-0.127891	0.010357
O21	O	1.847560	0.205443	0.343691
O22	O	1.071872	-0.197932	-0.448865
O23	O	1.405205	0.135401	-0.115532
O24	O	1.738538	0.468734	0.217802
O25	O	1.292819	-0.442664	-0.474360
O26	O	1.626152	-0.109331	-0.141026
O27	O	1.959485	0.224003	0.192307
O28	O	1.156676	-0.183870	-0.563566
O29	O	1.490010	0.149464	-0.230233
O30	O	1.823343	0.482797	0.103101
O31	O	1.085649	-0.355728	-0.311986
O32	O	1.418983	-0.022394	0.021347
O33	O	1.752316	0.310939	0.354681
O34	O	0.930274	-0.326006	-0.448083
O35	O	1.263607	0.007328	-0.114750
O36	O	1.596941	0.340661	0.218583
O37	O	1.019718	-0.390422	-0.713576
O38	O	1.353051	-0.057089	-0.380242
O39	O	1.686385	0.276245	-0.046909
O40	O	0.907792	-0.408982	-0.562192
O41	O	1.241125	-0.075649	-0.228859
O42	O	1.574459	0.257685	0.104475
O43	O	1.127004	-0.293383	-0.714168
O44	O	1.460338	0.039951	-0.380835
O45	O	1.793671	0.373284	-0.047501
O46	O	1.151221	-0.570737	-0.473578
O47	O	1.484554	-0.237404	-0.140245
O48	O	1.817888	0.095929	0.193089
O49	O	1.033496	-0.548217	-0.576697
O50	O	1.366829	-0.214884	-0.243363
O51	O	1.700162	0.118449	0.089970
C52	C	0.889120	-0.366245	-0.503427
C53	C	1.222453	-0.032912	-0.170094
C54	C	1.555786	0.300421	0.163239
C55	C	0.797481	-0.362435	-0.498209
C56	C	1.130814	-0.029102	-0.164876
C57	C	1.464148	0.304231	0.168457
C58	C	1.090599	-0.589389	-0.526694
C59	C	1.423932	-0.256056	-0.193360
C60	C	1.757266	0.077278	0.139973
C61	C	1.085230	-0.681023	-0.531441
C62	C	1.418563	-0.347689	-0.198108
C63	C	1.751896	-0.014356	0.135226
C64	C	0.577769	-0.394945	-0.542745
C65	C	0.911102	-0.061612	-0.209411
C66	C	1.244436	0.271722	0.123922
C67	C	0.629700	-0.355487	-0.488682
C68	C	0.963033	-0.022154	-0.155348
C69	C	1.296367	0.311179	0.177985
C70	C	0.723062	-0.359354	-0.493984
C71	C	1.056395	-0.026021	-0.160651
C72	C	1.389728	0.307312	0.172682
C73	C	0.484398	-0.391079	-0.537443
C74	C	0.817732	-0.057746	-0.204110
C75	C	1.151065	0.275588	0.129223
C76	C	1.131343	-0.900738	-0.491252
C77	C	1.464677	-0.567405	-0.157919
C78	C	1.798010	-0.234071	0.175414
C79	C	1.075440	-0.848794	-0.540118
C80	C	1.408773	-0.515460	-0.206785
C81	C	1.742107	-0.182127	0.126548
C82	C	1.080889	-0.755438	-0.535289
C83	C	1.414222	-0.422104	-0.201955
C84	C	1.747555	-0.088771	0.131378
C85	C	1.125896	-0.994103	-0.496081
C86	C	1.459230	-0.660770	-0.162748
C87	C	1.792563	-0.327436	0.170586
C88	C	1.318349	-0.384168	-0.527974
C89	C	1.651682	-0.050835	-0.194640
C90	C	1.985016	0.282498	0.138693
C91	C	1.409983	-0.387995	-0.533214
C92	C	1.743317	-0.054662	-0.199881
C93	C	2.076650	0.278672	0.133452
C94	C	1.068363	-0.336348	-0.746943
C95	C	1.401696	-0.003015	-0.413610
C96	C	1.735029	0.330319	-0.080276
C97	C	1.053468	-0.319796	-0.845495
C98	C	1.386801	0.013537	-0.512162
C99	C	1.720134	0.346870	-0.178828
C100	C	1.116102	-0.160150	-0.504637
C101	C	1.449436	0.173183	-0.171304
C102	C	1.782769	0.506516	0.162030
C103	C	1.121551	-0.068514	-0.499932
C104	C	1.454884	0.264820	-0.166599
C105	C	1.788218	0.598153	0.166734
C106	C	1.209837	-0.492853	-1.146178
C107	C	1.543171	-0.159520	-0.812844
C108	C	1.876504	0.173814	-0.479511
C109	C	1.223827	-0.508409	-1.053583
C110	C	1.557161	-0.175076	-0.720250
C111	C	1.890494	0.158257	-0.386917
C112	C	1.181239	-0.461257	-1.001557
C113	C	1.514572	-0.127924	-0.668223
C114	C	1.847906	0.205409	-0.334890
C115	C	1.124658	-0.398547	-1.042134
C116	C	1.457991	-0.065213	-0.708800
C117	C	1.791324	0.268120	-0.375467
C118	C	1.110661	-0.382993	-1.134737
C119	C	1.443995	-0.049660	-0.801404
C120	C	1.777328	0.283673	-0.468071
C121	C	1.082063	-0.351397	-0.990116
C122	C	1.415396	-0.018064	-0.656783
C123	C	1.748730	0.315269	-0.323450
C124	C	1.025482	-0.288687	-1.030693
C125	C	1.358815	0.044647	-0.697360
C126	C	1.692148	0.377980	-0.364027
C127	C	1.011488	-0.273136	-1.123288
C128	C	1.344822	0.060198	-0.789955
C129	C	1.678155	0.393531	-0.456621
C130	C	1.054077	-0.320288	-1.175314
C131	C	1.387410	0.013046	-0.841981
C132	C	1.720743	0.346379	-0.508648
C133	C	1.096059	-0.366951	-0.897513
C134	C	1.429393	-0.033617	-0.564179
C135	C	1.762726	0.299716	-0.230846
C136	C	0.996883	-0.257091	-0.886072
C137	C	1.330216	0.076242	-0.552739
C138	C	1.663550	0.409576	-0.219406
C139	C	0.982893	-0.241535	-0.978667
C140	C	1.316226	0.091799	-0.645333
C141	C	1.649560	0.425132	-0.312000
C142	C	1.138184	-0.413822	-0.285309
C143	C	1.471518	-0.080488	0.048024
C144	C	1.804851	0.252845	0.381357
C145	C	1.153253	-0.430148	-0.186755
C146	C	1.486586	-0.096814	0.146579
C147	C	1.819919	0.236519	0.479912
H148	H	0.604042	-0.318802	-0.438414
H149	H	0.937376	0.014531	-0.105081
H150	H	1.270709	0.347865	0.228253
Cl151	Cl	0.617381	-0.451592	-0.620340
Cl152	Cl	0.950714	-0.118259	-0.287007
Cl153	Cl	1.284048	0.215074	0.046327
Cl154	Cl	0.995226	-0.888380	-0.610306
Cl155	Cl	1.328559	-0.555046	-0.276972
Cl156	Cl	1.661893	-0.221713	0.056361
Cl157	Cl	1.211547	-0.861151	-0.421063
Cl158	Cl	1.544881	-0.527818	-0.087730
Cl159	Cl	1.878214	-0.194485	0.245603
H160	H	1.142134	-0.418006	-0.864484
H161	H	1.475467	-0.084673	-0.531151
H162	H	1.808800	0.248661	-0.197817
Cl163	Cl	1.036494	-0.300732	-1.291724
Cl164	Cl	1.369827	0.032601	-0.958391
Cl165	Cl	1.703160	0.365935	-0.625058
Cl166	Cl	1.198832	-0.480811	-0.885151
Cl167	Cl	1.532165	-0.147478	-0.551817
Cl168	Cl	1.865499	0.185855	-0.218484
H169	H	1.269888	-0.559476	-1.020552
H170	H	1.603221	-0.226143	-0.687219
H171	H	1.936554	0.107191	-0.353885
H172	H	0.962203	-0.218696	-0.843712
H173	H	1.295537	0.114637	-0.510379
H174	H	1.628870	0.447970	-0.177045
H175	H	0.936824	-0.190475	-1.011718
H176	H	1.270157	0.142858	-0.678384
H177	H	1.603490	0.476192	-0.345051
Cl178	Cl	0.940322	-0.194331	-1.174297
Cl179	Cl	1.273655	0.139002	-0.840963
Cl180	Cl	1.606989	0.472336	-0.507630
H181	H	1.244500	-0.531243	-1.188546
H182	H	1.577834	-0.197910	-0.855212
H183	H	1.911167	0.135423	-0.521879
