data_functionalizedCrystal
_audit_creation_method	'MofGen! by Chris Wilmer'
_symmetry_space_group_name_H-M	'P1'
_symmetry_Int_Tables_number	1
_symmetry_cell_setting	triclinic
loop_
_symmetry_equiv_pos_as_xyz
  x,y,z
_cell_length_a	15.995292
_cell_length_b	15.995350
_cell_length_c	16.176319
_cell_angle_alpha	89.995430
_cell_angle_beta	89.991411
_cell_angle_gamma	83.480495
loop_
_atom_site_label
_atom_site_type_symbol
_atom_site_fract_x
_atom_site_fract_y
_atom_site_fract_z
O1	O	1.111019	0.107697	-0.068765
O2	O	1.611019	0.607697	0.431235
O3	O	0.867237	0.121075	-0.068761
O4	O	1.367237	0.621075	0.431239
O5	O	0.995792	-0.007503	-0.068762
O6	O	1.495792	0.492497	0.431238
O7	O	0.982464	0.236275	-0.068764
O8	O	1.482464	0.736275	0.431236
O9	O	0.995774	-0.007511	0.068731
O10	O	1.495774	0.492489	0.568731
O11	O	0.867220	0.121067	0.068732
O12	O	1.367220	0.621067	0.568732
O13	O	1.111001	0.107689	0.068728
O14	O	1.611001	0.607689	0.568728
Cu15	Cu	0.989109	0.114377	0.081285
Cu16	Cu	1.489109	0.614377	0.581285
Cu17	Cu	0.989130	0.114387	-0.081317
Cu18	Cu	1.489130	0.614387	0.418683
O19	O	0.982447	0.236267	0.068730
O20	O	1.482447	0.736267	0.568730
C21	C	0.836033	0.120527	-0.000014
C22	C	1.336033	0.620527	0.499986
C23	C	0.743080	0.118894	-0.000013
C24	C	1.243080	0.618894	0.499987
C25	C	0.405341	0.112893	-0.000022
C26	C	0.905341	0.612893	0.499978
C27	C	0.428654	0.205697	-0.000329
C28	C	0.928654	0.705697	0.499671
C29	C	0.525329	0.207461	-0.000016
C30	C	1.025329	0.707461	0.499984
C31	C	0.572897	0.115871	-0.000018
C32	C	1.072897	0.615871	0.499982
C33	C	0.543785	0.069468	0.078495
C34	C	1.043785	0.569468	0.578495
C35	C	0.446995	0.068351	0.078557
C36	C	0.946995	0.568351	0.578557
C37	C	0.447160	0.066465	-0.077798
C38	C	0.947160	0.566465	0.422202
C39	C	0.543652	0.069905	-0.078832
C40	C	1.043652	0.569905	0.421168
C41	C	0.667593	0.117549	-0.000013
C42	C	1.167593	0.617549	0.499987
C43	C	0.310646	0.111212	-0.000022
C44	C	0.810646	0.611212	0.499978
C45	C	0.995232	-0.038702	-0.000017
C46	C	1.495232	0.461298	0.499983
C47	C	0.993580	-0.131652	-0.000022
C48	C	1.493580	0.368348	0.499978
C49	C	0.987648	-0.469398	-0.000019
C50	C	1.487648	0.030602	0.499981
C51	C	0.896094	-0.421945	-0.000326
C52	C	1.396094	0.078055	0.499674
C53	C	0.897746	-0.325255	-0.000016
C54	C	1.397746	0.174745	0.499984
C55	C	0.990591	-0.301838	-0.000021
C56	C	1.490591	0.198162	0.499979
C57	C	1.035738	-0.342930	0.078492
C58	C	1.535738	0.157070	0.578492
C59	C	1.033439	-0.439565	0.078558
C60	C	1.533439	0.060435	0.578558
C61	C	1.035350	-0.439914	-0.077797
C62	C	1.535350	0.060086	0.422203
C63	C	1.035328	-0.342969	-0.078835
C64	C	1.535328	0.157031	0.421165
C65	C	0.992259	-0.207141	-0.000019
C66	C	1.492259	0.292859	0.499981
C67	C	0.985983	-0.564095	-0.000015
C68	C	1.485983	-0.064095	0.499985
C69	C	1.142206	0.108237	-0.000020
C70	C	1.642206	0.608237	0.499980
C71	C	1.235159	0.109870	-0.000027
C72	C	1.735159	0.609870	0.499973
C73	C	0.983006	0.267466	-0.000017
C74	C	1.483006	0.767466	0.499983
C75	C	0.984658	0.360416	-0.000018
C76	C	1.484658	0.860416	0.499982
N77	N	0.989100	0.114370	0.195650
N78	N	1.489100	0.614370	0.695650
N79	N	0.989145	0.114388	-0.195682
N80	N	1.489145	0.614388	0.304318
C81	C	1.046042	0.057459	0.238913
C82	C	1.546042	0.557459	0.738913
C83	C	1.046046	0.057458	0.325460
C84	C	1.546046	0.557458	0.825460
C85	C	0.989112	0.114373	0.368742
C86	C	1.489112	0.614373	0.868742
C87	C	0.932165	0.171287	0.325473
C88	C	1.432165	0.671287	0.825473
C89	C	0.932157	0.171283	0.238927
C90	C	1.432157	0.671283	0.738927
C91	C	0.932193	0.171302	0.674501
C92	C	1.432193	0.671302	1.174501
C93	C	0.932207	0.171303	0.761052
C94	C	1.432207	0.671303	1.261052
C95	C	1.046082	0.057477	0.761034
C96	C	1.546082	0.557477	1.261034
C97	C	1.046074	0.057473	0.674489
C98	C	1.546074	0.557473	1.174489
C99	C	0.989125	0.114384	0.631227
C100	C	1.489125	0.614384	1.131227
C101	C	0.989120	0.114383	0.537382
C102	C	1.489120	0.614383	1.037382
C103	C	0.989120	0.114378	0.462585
C104	C	1.489120	0.614378	0.962585
H105	H	0.418840	0.095476	-0.137307
H106	H	0.918840	0.595476	0.362693
C107	C	1.127882	-0.323850	0.082446
C108	C	1.627882	0.176150	0.582446
N109	N	1.197283	-0.309471	0.085426
N110	N	1.697283	0.190529	0.585426
C111	C	1.126802	-0.322241	-0.085242
C112	C	1.626802	0.177759	0.414758
N113	N	1.195704	-0.306633	-0.090060
N114	N	1.695704	0.193367	0.409940
H115	H	0.562229	0.103691	-0.136916
H116	H	1.062229	0.603691	0.363084
C117	C	0.869567	0.233912	0.808661
C118	C	1.369567	0.733912	1.308661
N119	N	0.822389	0.281065	0.844519
N120	N	1.322389	0.781065	1.344519
H121	H	0.576623	0.003053	-0.083576
H122	H	1.076623	0.503053	0.416424
H123	H	0.544363	0.243797	-0.056299
H124	H	1.044363	0.743797	0.443701
H125	H	0.862003	-0.297386	0.056362
H126	H	1.362003	0.202614	0.556362
H127	H	0.885824	0.217642	0.639284
H128	H	1.385824	0.717642	1.139284
C129	C	1.108722	-0.005133	0.808630
C130	C	1.608722	0.494867	1.308630
N131	N	1.155901	-0.052290	0.844478
N132	N	1.655901	0.447710	1.344478
H133	H	0.859507	-0.440466	-0.056629
H134	H	1.359507	0.059534	0.443371
C135	C	0.410752	0.111773	0.157838
C136	C	0.910752	0.611773	0.657838
N137	N	0.383457	0.144486	0.217551
N138	N	0.883457	0.644486	0.717551
H139	H	0.432444	0.000307	0.082123
H140	H	0.932444	0.500307	0.582123
C141	C	0.988933	-0.464286	0.157845
C142	C	1.488933	0.035714	0.657845
N143	N	0.955407	-0.482900	0.217564
N144	N	1.455407	0.017100	0.717564
C145	C	0.869524	0.233896	0.191338
C146	C	1.369524	0.733896	0.691338
N147	N	0.822347	0.281059	0.155494
N148	N	1.322347	0.781059	0.655494
C149	C	0.390838	0.254032	-0.076394
C150	C	0.890838	0.754032	0.423606
N151	N	0.362349	0.290438	-0.133688
N152	N	0.862349	0.790438	0.366312
C153	C	0.389447	0.253751	0.075311
C154	C	0.889447	0.753751	0.575311
N155	N	0.359916	0.289942	0.132285
N156	N	0.859916	0.789942	0.632285
C157	C	1.124244	-0.483152	0.083379
C158	C	1.624244	0.016848	0.583379
N159	N	1.192638	-0.515978	0.087015
N160	N	1.692638	-0.015978	0.587015
C161	C	0.993353	-0.304591	0.157430
C162	C	1.493353	0.195409	0.657430
N163	N	0.961422	-0.275716	0.216885
N164	N	1.461422	0.224284	0.716885
C165	C	0.428253	-0.025817	-0.078519
C166	C	0.928253	0.474183	0.421481
N167	N	0.414007	-0.095322	-0.079057
N168	N	0.914007	0.404678	0.420943
C169	C	0.570863	0.112997	0.157433
C170	C	1.070863	0.612997	0.657433
N171	N	0.591254	0.145789	0.216888
N172	N	1.091254	0.645789	0.716888
C173	C	0.550187	0.256830	0.076155
C174	C	1.050187	0.756830	0.576155
N175	N	0.568909	0.294013	0.133533
N176	N	1.068909	0.794013	0.633533
C177	C	0.586865	-0.021573	0.082460
C178	C	1.086865	0.478427	0.582460
N179	N	0.619324	-0.090141	0.085451
N180	N	1.119324	0.409859	0.585451
H181	H	1.092411	0.011116	0.360685
H182	H	1.592411	0.511116	0.860685
H183	H	0.862256	-0.296822	-0.056297
H184	H	1.362256	0.203178	0.443703
H185	H	0.885804	0.217625	0.360718
H186	H	1.385804	0.717625	0.860718
C187	C	0.846876	-0.448383	0.075332
C188	C	1.346876	0.051617	0.575332
N189	N	0.809810	-0.468289	0.132325
N190	N	1.309810	0.031711	0.632325
C191	C	0.994918	-0.467645	-0.158191
C192	C	1.494918	0.032355	0.341809
N193	N	0.964456	-0.488530	-0.218740
N194	N	1.464456	0.011470	0.281260
H195	H	1.002320	-0.315710	-0.136917
H196	H	1.502320	0.184290	0.363083
H197	H	1.102853	-0.471689	-0.078329
H198	H	1.602853	0.028311	0.421671
C199	C	1.108674	-0.005154	0.191311
C200	C	1.608674	0.494846	0.691311
N201	N	1.155848	-0.052318	0.155460
N202	N	1.655848	0.447682	0.655460
H203	H	1.092438	0.011131	0.639251
H204	H	1.592438	0.511131	1.139251
