data_functionalizedCrystal
_audit_creation_method	'MofGen! by Chris Wilmer'
_symmetry_space_group_name_H-M	'P1'
_symmetry_Int_Tables_number	1
_symmetry_cell_setting	triclinic
loop_
_symmetry_equiv_pos_as_xyz
  x,y,z
_cell_length_a	11.792241
_cell_length_b	10.268362
_cell_length_c	11.792253
_cell_angle_alpha	89.993099
_cell_angle_beta	95.803993
_cell_angle_gamma	90.000426
loop_
_atom_site_label
_atom_site_type_symbol
_atom_site_fract_x
_atom_site_fract_y
_atom_site_fract_z
O1	O	1.506917	0.108191	-0.155561
O2	O	1.840250	0.441525	0.177772
O3	O	2.173583	0.774858	0.511105
O4	O	1.176576	0.108223	-0.171594
O5	O	1.509910	0.441557	0.161739
O6	O	1.843243	0.774890	0.495073
O7	O	1.349755	0.108179	0.001592
O8	O	1.683089	0.441513	0.334925
O9	O	2.016422	0.774846	0.668259
O10	O	1.333737	0.108235	-0.328747
O11	O	1.667071	0.441568	0.004586
O12	O	2.000404	0.774902	0.337919
O13	O	1.349739	-0.108421	0.001586
O14	O	1.683072	0.224912	0.334919
O15	O	2.016405	0.558245	0.668253
O16	O	1.176560	-0.108377	-0.171600
O17	O	1.509893	0.224956	0.161733
O18	O	1.843226	0.558289	0.495067
O19	O	1.506900	-0.108409	-0.155567
O20	O	1.840233	0.224924	0.177766
O21	O	2.173567	0.558257	0.511100
Cu22	Cu	1.341728	-0.128171	-0.163584
Cu23	Cu	1.675062	0.205163	0.169749
Cu24	Cu	2.008395	0.538496	0.503083
Cu25	Cu	1.341748	0.127985	-0.163577
Cu26	Cu	1.675081	0.461318	0.169756
Cu27	Cu	2.008415	0.794651	0.503090
O28	O	1.333721	-0.108366	-0.328753
O29	O	1.667054	0.224968	0.004580
O30	O	2.000387	0.558301	0.337914
C31	C	1.134277	-0.000073	-0.170590
C32	C	1.467610	0.333260	0.162743
C33	C	1.800944	0.666593	0.496077
C34	C	1.008263	-0.000062	-0.167576
C35	C	1.341596	0.333271	0.165758
C36	C	1.674930	0.666604	0.499091
C37	C	0.777551	-0.000101	-0.162033
C38	C	1.110884	0.333233	0.171301
C39	C	1.444217	0.666566	0.504634
C40	C	0.905936	-0.000080	-0.165112
C41	C	1.239269	0.333254	0.168221
C42	C	1.572603	0.666587	0.501554
N43	N	1.341723	-0.308337	-0.163588
N44	N	1.675056	0.024997	0.169745
N45	N	2.008389	0.358330	0.503078
C46	C	1.341731	-0.426179	-0.163589
C47	C	1.675064	-0.092846	0.169744
C48	C	2.008398	0.240488	0.503078
C49	C	1.341745	-0.574017	-0.163579
C50	C	1.675079	-0.240684	0.169755
C51	C	2.008412	0.092650	0.503088
C52	C	1.549199	-0.000110	-0.156571
C53	C	1.882533	0.333223	0.176762
C54	C	2.215866	0.666557	0.510095
C55	C	1.675213	-0.000112	-0.159586
C56	C	2.008546	0.333221	0.173748
C57	C	2.341880	0.666554	0.507081
C58	C	1.348738	-0.000125	0.043880
C59	C	1.682071	0.333208	0.377213
C60	C	2.015405	0.666542	0.710546
C61	C	1.345718	-0.000137	0.169893
C62	C	1.679051	0.333196	0.503226
C63	C	2.012385	0.666530	0.836559
N64	N	1.341762	0.308150	-0.163564
N65	N	1.675096	0.641484	0.169769
N66	N	2.008429	0.974817	0.503103
C67	C	1.343264	-0.000143	0.272229
C68	C	1.676597	0.333190	0.605563
C69	C	2.009931	0.666523	0.938896
C70	C	1.340196	-0.000145	0.400616
C71	C	1.673529	0.333189	0.733949
C72	C	2.006862	0.666522	1.067283
C73	C	1.334738	-0.000085	0.628959
C74	C	1.668071	0.333248	0.962292
C75	C	2.001405	0.666581	1.295626
C76	C	1.337758	-0.000146	0.502946
C77	C	1.671092	0.333188	0.836279
C78	C	2.004425	0.666521	1.169613
