data_functionalizedCrystal
_audit_creation_method	'MofGen! by Chris Wilmer'
_symmetry_space_group_name_H-M	'P1'
_symmetry_Int_Tables_number	1
_symmetry_cell_setting	triclinic
loop_
_symmetry_equiv_pos_as_xyz
  x,y,z
_cell_length_a	19.077068
_cell_length_b	21.395364
_cell_length_c	19.077314
_cell_angle_alpha	87.719544
_cell_angle_beta	89.878373
_cell_angle_gamma	87.675407
loop_
_atom_site_label
_atom_site_type_symbol
_atom_site_fract_x
_atom_site_fract_y
_atom_site_fract_z
Zn1	Zn	-0.263857	-0.933785	-0.408560
Zn2	Zn	0.236143	-0.433785	0.091440
Zn3	Zn	-0.386085	-0.933368	-0.295767
Zn4	Zn	0.113915	-0.433368	0.204233
Zn5	Zn	-0.268590	-0.833045	-0.291065
Zn6	Zn	0.231410	-0.333045	0.208935
Zn7	Zn	-0.381326	-0.824607	-0.413230
Zn8	Zn	0.118674	-0.324607	0.086770
O9	O	-0.324964	-0.881201	-0.352155
O10	O	0.175036	-0.381201	0.147845
O11	O	-0.280082	-1.021407	-0.393611
O12	O	0.219918	-0.521407	0.106389
O13	O	-0.374472	-0.923416	-0.196812
O14	O	0.125528	-0.423416	0.303188
O15	O	-0.169628	-0.850114	-0.302728
O16	O	0.330372	-0.350114	0.197272
O17	O	-0.369883	-1.021100	-0.310742
O18	O	0.130117	-0.521100	0.189258
O19	O	-0.166151	-0.924128	-0.389051
O20	O	0.333849	-0.424128	0.110949
O21	O	-0.288148	-0.849709	-0.193357
O22	O	0.211852	-0.349709	0.306643
O23	O	-0.283533	-0.744248	-0.307257
O24	O	0.216467	-0.244248	0.192743
O25	O	-0.361770	-0.835733	-0.510942
O26	O	0.138230	-0.335733	-0.010942
O27	O	-0.366360	-0.738049	-0.397012
O28	O	0.133640	-0.238049	0.102988
O29	O	-0.275466	-0.915946	-0.507511
O30	O	0.224534	-0.415946	-0.007511
O31	O	-0.483788	-0.915234	-0.315271
O32	O	0.016212	-0.415234	0.184729
O33	O	-0.480290	-0.835328	-0.401571
O34	O	0.019710	-0.335328	0.098429
C35	C	-0.324944	-0.718415	-0.352131
C36	C	0.175056	-0.218415	0.147869
C37	C	-0.324951	-0.648773	-0.352139
C38	C	0.175049	-0.148773	0.147861
C39	C	-0.368165	-0.143764	-0.398837
C40	C	0.131835	0.356236	0.101163
C41	C	-0.368166	-0.209200	-0.398831
C42	C	0.131834	0.290800	0.101169
C43	C	-0.324969	-0.245133	-0.352167
C44	C	0.175031	0.254867	0.147833
C45	C	-0.281780	-0.215627	-0.305493
C46	C	0.218220	0.284373	0.194507
C47	C	-0.281785	-0.150192	-0.305496
C48	C	0.218215	0.349808	0.194504
C49	C	-0.261863	-0.351362	-0.344186
C50	C	0.238137	0.148638	0.155814
C51	C	-0.261857	-0.416795	-0.344188
C52	C	0.238143	0.083205	0.155812
C53	C	-0.324954	-0.446955	-0.352154
C54	C	0.175046	0.053045	0.147846
C55	C	-0.388059	-0.411673	-0.360133
C56	C	0.111941	0.088327	0.139867
C57	C	-0.388064	-0.346239	-0.360136
C58	C	0.111936	0.153761	0.139864
C59	C	-0.324959	-0.316086	-0.352158
C60	C	0.175041	0.183914	0.147842
C61	C	-0.368145	-0.547407	-0.398815
C62	C	0.131855	-0.047407	0.101185
C63	C	-0.368148	-0.612844	-0.398804
C64	C	0.131852	-0.112844	0.101196
C65	C	-0.281756	-0.619270	-0.305469
C66	C	0.218244	-0.119270	0.194531
C67	C	-0.281759	-0.553834	-0.305477
C68	C	0.218241	-0.053834	0.194523
C69	C	-0.324953	-0.517907	-0.352154
C70	C	0.175047	-0.017907	0.147846
C71	C	-0.507535	-0.874337	-0.359453
C72	C	-0.007535	-0.374337	0.140547
C73	C	-0.585639	-0.871457	-0.362599
C74	C	-0.085639	-0.371457	0.137401
C75	C	-0.624128	-0.911736	-0.319182
C76	C	-0.124128	-0.411736	0.180818
C77	C	-0.697514	-0.909031	-0.322145
C78	C	-0.197514	-0.409031	0.177855
C79	C	-0.732410	-0.866043	-0.368521
C80	C	-0.232410	-0.366043	0.131479
C81	C	-0.693916	-0.825762	-0.411943
C82	C	-0.193916	-0.325762	0.088057
C83	C	-0.620531	-0.828470	-0.408983
C84	C	-0.120531	-0.328470	0.091017
C85	C	-0.951696	-0.853480	-0.382191
C86	C	-0.451696	-0.353480	0.117809
C87	C	-1.025086	-0.850773	-0.385145
C88	C	-0.525086	-0.350773	0.114855
C89	C	-1.028679	-0.934044	-0.295348
C90	C	-0.528679	-0.434044	0.204652
C91	C	-0.955293	-0.936746	-0.292389
C92	C	-0.455293	-0.436746	0.207611
C93	C	-0.916805	-0.896467	-0.335814
C94	C	-0.416805	-0.396467	0.164186
N95	N	-0.807423	-0.863275	-0.371549
N96	N	-0.307423	-0.363275	0.128451
N97	N	-0.841793	-0.899238	-0.332789
N98	N	-0.341793	-0.399238	0.167211
C99	C	-0.141680	-0.888109	-0.344844
C100	C	0.358320	-0.388109	0.155156
C101	C	-0.063575	-0.891052	-0.341729
C102	C	0.436425	-0.391052	0.158271
C103	C	-0.317560	-0.874945	-0.535435
C104	C	0.182440	-0.374945	-0.035435
C105	C	-0.314404	-0.872279	-0.613538
C106	C	0.185596	-0.372279	-0.113538
C107	C	-0.324981	-0.044623	-0.352175
C108	C	0.175019	0.455377	0.147825
C109	C	-0.324979	-0.114265	-0.352172
C110	C	0.175021	0.385735	0.147828
C111	C	-0.357863	-0.909399	-0.652033
C112	C	0.142137	-0.409399	-0.152033
C113	C	-0.354890	-0.906894	-0.725418
C114	C	0.145110	-0.406894	-0.225418
C115	C	-0.308460	-0.867266	-0.760309
C116	C	0.191540	-0.367266	-0.260309
C117	C	-0.264996	-0.830145	-0.721809
C118	C	0.235004	-0.330145	-0.221809
C119	C	-0.267967	-0.832654	-0.648425
C120	C	0.232033	-0.332654	-0.148425
C121	C	-0.294754	-0.855653	-0.979592
C122	C	0.205246	-0.355653	-0.479592
C123	C	-0.291788	-0.853146	-1.052981
C124	C	0.208212	-0.353146	-0.552981
C125	C	-0.381681	-0.929896	-1.056586
C126	C	0.118319	-0.429896	-0.556586
C127	C	-0.384650	-0.932398	-0.983200
C128	C	0.115350	-0.432398	-0.483200
C129	C	-0.341184	-0.895280	-0.944706
C130	C	0.158816	-0.395280	-0.444706
N131	N	-0.305421	-0.864704	-0.835321
N132	N	0.194579	-0.364704	-0.335321
N133	N	-0.344220	-0.897846	-0.869696
N134	N	0.155780	-0.397846	-0.369696
C135	C	-0.332290	-0.887471	-0.169586
C136	C	0.167710	-0.387471	0.330414
C137	C	-0.335247	-0.890265	-0.091476
C138	C	0.164753	-0.390265	0.408524
H139	H	-0.403333	-0.233223	-0.436834
H140	H	0.096667	0.266777	0.063166
H141	H	-0.926882	-0.971750	-0.254626
H142	H	-0.426882	-0.471750	0.245374
Cl143	Cl	-0.206624	-0.780330	-0.765671
Cl144	Cl	0.293376	-0.280330	-0.265671
H145	H	-0.390279	-0.937121	-0.756757
H146	H	0.109721	-0.437121	-0.256757
H147	H	-0.210479	-0.326812	-0.337688
H148	H	0.289521	0.173188	0.162312
H149	H	-0.595721	-0.946739	-0.281414
H150	H	-0.095721	-0.446739	0.218586
Cl151	Cl	-1.077068	-0.984681	-0.240766
Cl152	Cl	-0.577068	-0.484681	0.259234
Cl153	Cl	-1.068955	-0.796719	-0.443443
Cl154	Cl	-0.568955	-0.296719	0.056557
H155	H	-0.403339	-0.114516	-0.436843
H156	H	0.096661	0.385484	0.063157
Cl157	Cl	-0.903320	-0.802842	-0.436780
Cl158	Cl	-0.403320	-0.302842	0.063220
H159	H	-0.253974	-0.820877	-1.081387
H160	H	0.246026	-0.320877	-0.581387
H161	H	-0.589193	-0.795671	-0.444339
H162	H	-0.089193	-0.295671	0.055661
H163	H	-0.728849	-0.941831	-0.286790
H164	H	-0.228849	-0.441831	0.213210
H165	H	-0.417068	-0.960117	-1.087935
H166	H	0.082932	-0.460117	-0.587935
Cl167	Cl	-0.443020	-0.982220	-0.939343
Cl168	Cl	0.056980	-0.482220	-0.439343
Cl169	Cl	-0.182525	-0.461142	-0.334169
Cl170	Cl	0.317475	0.038858	0.165831
H171	H	-0.246586	-0.648527	-0.267472
H172	H	0.253414	-0.148527	0.232528
Cl173	Cl	-0.416239	-0.959216	-0.608178
Cl174	Cl	0.083761	-0.459216	-0.108178
Cl175	Cl	-0.240112	-0.808986	-0.931210
Cl176	Cl	0.259888	-0.308986	-0.431210
H177	H	-0.232575	-0.802428	-0.617083
H178	H	0.267425	-0.302428	-0.117083
H179	H	-0.439447	-0.317515	-0.366630
H180	H	0.060553	0.182485	0.133370
Cl181	Cl	-0.227459	-0.516747	-0.246814
Cl182	Cl	0.272541	-0.016747	0.253186
H183	H	-0.439439	-0.436228	-0.366625
H184	H	0.060561	0.063772	0.133375
H185	H	-0.403317	-0.518153	-0.436821
H186	H	0.096683	-0.018153	0.063179
H187	H	-0.403320	-0.636861	-0.436803
H188	H	0.096680	-0.136861	0.063197
Cl189	Cl	-0.227478	-0.260799	-0.246827
Cl190	Cl	0.272522	0.239201	0.253173
H191	H	-0.246616	-0.126174	-0.267495
H192	H	0.253384	0.373826	0.232505
H193	H	-0.722334	-0.790762	-0.449707
H194	H	-0.222334	-0.290762	0.050293
