data_functionalizedCrystal
_audit_creation_method	'MofGen! by Chris Wilmer'
_symmetry_space_group_name_H-M	'P1'
_symmetry_Int_Tables_number	1
_symmetry_cell_setting	triclinic
loop_
_symmetry_equiv_pos_as_xyz
  x,y,z
_cell_length_a	10.723024
_cell_length_b	14.519709
_cell_length_c	9.798715
_cell_angle_alpha	90.004331
_cell_angle_beta	89.996846
_cell_angle_gamma	95.925993
loop_
_atom_site_label
_atom_site_type_symbol
_atom_site_fract_x
_atom_site_fract_y
_atom_site_fract_z
O1	O	-1.655977	0.129348	0.113485
O2	O	-1.155977	0.629348	0.613485
O3	O	-1.292709	0.141729	0.113490
O4	O	-0.792709	0.641729	0.613490
O5	O	-1.483975	0.001349	0.113475
O6	O	-0.983975	0.501349	0.613475
O7	O	-1.464712	0.269728	0.113500
O8	O	-0.964712	0.769728	0.613500
O9	O	-1.483961	0.001348	-0.113507
O10	O	-0.983961	0.501348	0.386493
O11	O	-1.292696	0.141728	-0.113492
O12	O	-0.792696	0.641728	0.386508
O13	O	-1.655964	0.129347	-0.113497
O14	O	-1.155964	0.629347	0.386503
Zn15	Zn	-1.474328	0.135537	-0.149533
Zn16	Zn	-0.974328	0.635537	0.350467
Zn17	Zn	-1.474345	0.135538	0.149526
Zn18	Zn	-0.974345	0.635538	0.649526
O19	O	-1.464698	0.269726	-0.113482
O20	O	-0.964698	0.769726	0.386518
C21	C	-1.483070	-0.033016	-0.000016
C22	C	-0.983070	0.466984	0.499984
C23	C	-1.480380	-0.135411	-0.000017
C24	C	-0.980380	0.364589	0.499983
C25	C	-1.246211	0.140827	-0.000000
C26	C	-0.746211	0.640827	0.500000
C27	C	-1.107682	0.138132	0.000001
C28	C	-0.607682	0.638132	0.500001
N29	N	-1.474325	0.135536	-0.353632
N30	N	-0.974325	0.635536	0.146368
C31	C	-1.702462	0.130248	-0.000003
C32	C	-1.202462	0.630248	0.499997
C33	C	-1.840991	0.132944	0.000004
C34	C	-1.340991	0.632944	0.500004
C35	C	-1.031965	0.216681	0.000009
C36	C	-0.531965	0.716681	0.500009
C37	C	-0.888788	0.213896	0.000011
C38	C	-0.388788	0.713896	0.500011
C39	C	-1.470476	-0.510357	0.000019
C40	C	-0.970476	-0.010357	0.500019
C41	C	-1.473227	-0.406035	0.000009
C42	C	-0.973227	0.093965	0.500009
C43	C	-1.475428	-0.322887	-0.000000
C44	C	-0.975428	0.177113	0.500000
C45	C	-1.478179	-0.218559	-0.000008
C46	C	-0.978179	0.281441	0.499992
C47	C	-1.465603	0.304091	0.000012
C48	C	-0.965603	0.804091	0.500012
C49	C	-1.468293	0.406486	0.000022
C50	C	-0.968293	0.906486	0.500022
C51	C	-1.554831	0.076466	-0.578570
C52	C	-1.054831	0.576466	-0.078570
C53	C	-1.554814	0.076467	-0.421408
C54	C	-1.054814	0.576467	0.078592
N55	N	-1.474358	0.135533	0.353626
N56	N	-0.974358	0.635533	0.853626
H57	H	-1.073139	0.285991	0.000008
H58	H	-0.573139	0.785991	0.500008
H59	H	-0.823726	0.281141	0.000024
H60	H	-0.323726	0.781141	0.500024
Cl61	Cl	-1.661234	-0.001610	-0.668570
Cl62	Cl	-1.161234	0.498390	-0.168570
H63	H	-1.405421	0.186104	-0.411932
H64	H	-0.905421	0.686104	0.088068
Cl65	Cl	-1.661183	-0.001616	-0.331390
Cl66	Cl	-1.161183	0.498384	0.168610
H67	H	-0.906045	0.065696	0.000006
H68	H	-0.406045	0.565696	0.500006
H69	H	-1.066508	0.068822	0.000030
H70	H	-0.566508	0.568822	0.500030
Cl71	Cl	-1.367969	0.213617	-0.556371
Cl72	Cl	-0.867969	0.713617	-0.056371
