data_functionalizedCrystal
_audit_creation_method	'MofGen! by Chris Wilmer'
_symmetry_space_group_name_H-M	'P1'
_symmetry_Int_Tables_number	1
_symmetry_cell_setting	triclinic
loop_
_symmetry_equiv_pos_as_xyz
  x,y,z
_cell_length_a	18.266242
_cell_length_b	15.995350
_cell_length_c	15.995292
_cell_angle_alpha	96.519505
_cell_angle_beta	90.003154
_cell_angle_gamma	89.994611
loop_
_atom_site_label
_atom_site_type_symbol
_atom_site_fract_x
_atom_site_fract_y
_atom_site_fract_z
O1	O	0.060814	-1.110968	0.107931
O2	O	0.394147	-0.777635	0.441264
O3	O	0.727480	-0.444302	0.774598
O4	O	0.060828	-0.867190	0.121259
O5	O	0.394161	-0.533857	0.454592
O6	O	0.727495	-0.200524	0.787925
O7	O	0.060822	-0.995769	-0.007296
O8	O	0.394155	-0.662435	0.326037
O9	O	0.727488	-0.329102	0.659371
O10	O	0.060820	-0.982390	0.236486
O11	O	0.394153	-0.649057	0.569819
O12	O	0.727487	-0.315723	0.903152
O13	O	-0.060940	-0.995747	-0.007303
O14	O	0.272393	-0.662413	0.326031
O15	O	0.605726	-0.329080	0.659364
O16	O	-0.060934	-0.867169	0.121252
O17	O	0.272399	-0.533835	0.454585
O18	O	0.605733	-0.200502	0.787919
O19	O	-0.060948	-1.110947	0.107924
O20	O	0.272385	-0.777613	0.441258
O21	O	0.605718	-0.444280	0.774591
Zn22	Zn	-0.080273	-0.989054	0.114587
Zn23	Zn	0.253060	-0.655721	0.447920
Zn24	Zn	0.586393	-0.322387	0.781254
Zn25	Zn	0.080153	-0.989083	0.114596
Zn26	Zn	0.413487	-0.655749	0.447929
Zn27	Zn	0.746820	-0.322416	0.781263
O28	O	-0.060942	-0.982368	0.236479
O29	O	0.272392	-0.649035	0.569812
O30	O	0.605725	-0.315702	0.903146
C31	C	-0.000051	-0.835985	0.120704
C32	C	0.333282	-0.502651	0.454038
C33	C	0.666616	-0.169318	0.787371
C34	C	-0.000045	-0.743035	0.119053
C35	C	0.333288	-0.409701	0.452386
C36	C	0.666621	-0.076368	0.785719
N37	N	-0.189760	-0.989041	0.114581
N38	N	0.143573	-0.655707	0.447914
N39	N	0.476906	-0.322374	0.781247
C40	C	-0.000058	-0.995213	-0.038495
C41	C	0.333276	-0.661880	0.294838
C42	C	0.666609	-0.328546	0.628172
C43	C	-0.000052	-0.993581	-0.131448
C44	C	0.333281	-0.660247	0.201885
C45	C	0.666615	-0.326914	0.535219
C46	C	-0.228072	-1.045994	0.057684
C47	C	0.105261	-0.712660	0.391018
C48	C	0.438595	-0.379327	0.724351
C49	C	-0.304717	-1.045999	0.057681
C50	C	0.028616	-0.712666	0.391014
C51	C	0.361950	-0.379332	0.724347
C52	C	-0.343047	-0.989059	0.114587
C53	C	-0.009714	-0.655726	0.447921
C54	C	0.323619	-0.322393	0.781254
C55	C	-0.304726	-0.932095	0.171488
C56	C	0.028607	-0.598762	0.504821
C57	C	0.361940	-0.265429	0.838154
C58	C	-0.228083	-0.932086	0.171484
C59	C	0.105250	-0.598753	0.504818
C60	C	0.438584	-0.265419	0.838151
N61	N	-0.463380	-0.978386	0.188678
N62	N	-0.130046	-0.645053	0.522011
N63	N	0.203287	-0.311720	0.855345
N64	N	-0.536188	-0.978400	0.188678
N65	N	-0.202854	-0.645067	0.522012
N66	N	0.130479	-0.311734	0.855345
C67	C	-0.573970	-0.989083	0.114599
C68	C	-0.240636	-0.655749	0.447933
C69	C	0.092697	-0.322416	0.781266
N70	N	-0.536193	-0.999767	0.040518
N71	N	-0.202860	-0.666434	0.373851
N72	N	0.130474	-0.333101	0.707184
N73	N	-0.463378	-0.999758	0.040518
N74	N	-0.130045	-0.666424	0.373851
N75	N	0.203288	-0.333091	0.707184
C76	C	-0.426154	-0.989063	0.114597
C77	C	-0.092821	-0.655729	0.447930
C78	C	0.240512	-0.322396	0.781264
C79	C	-0.695389	-1.046045	0.057694
C80	C	-0.362055	-0.712711	0.391028
C81	C	-0.028722	-0.379378	0.724361
C82	C	-0.772035	-1.046044	0.057689
C83	C	-0.438702	-0.712711	0.391023
C84	C	-0.105368	-0.379378	0.724356
C85	C	-0.772043	-0.932145	0.171504
C86	C	-0.438709	-0.598811	0.504837
C87	C	-0.105376	-0.265478	0.838171
C88	C	-0.695398	-0.932141	0.171502
C89	C	-0.362064	-0.598808	0.504835
C90	C	-0.028731	-0.265474	0.838168
C91	C	-0.657075	-0.989096	0.114598
C92	C	-0.323742	-0.655762	0.447931
C93	C	0.009591	-0.322429	0.781264
N94	N	0.189640	-0.989103	0.114596
N95	N	0.522973	-0.655770	0.447929
N96	N	0.856307	-0.322436	0.781262
C97	C	-0.000068	-1.142152	0.108479
C98	C	0.333266	-0.808819	0.441812
C99	C	0.666599	-0.475485	0.775145
C100	C	-0.000069	-1.235102	0.110130
C101	C	0.333265	-0.901769	0.443464
C102	C	0.666598	-0.568435	0.776797
C103	C	-0.000060	-0.405288	0.113120
C104	C	0.333273	-0.071955	0.446454
C105	C	0.666606	0.261378	0.779787
C106	C	-0.000332	-0.452742	0.021566
C107	C	0.333002	-0.119408	0.354899
C108	C	0.666335	0.213925	0.688232
C109	C	-0.000052	-0.549431	0.023218
C110	C	0.333281	-0.216098	0.356551
C111	C	0.666615	0.117235	0.689885
C112	C	-0.000053	-0.572848	0.116063
C113	C	0.333280	-0.239515	0.449396
C114	C	0.666613	0.093818	0.782729
C115	C	0.069476	-0.531764	0.161224
C116	C	0.402809	-0.198431	0.494558
C117	C	0.736142	0.134902	0.827891
C118	C	0.069529	-0.435129	0.158924
C119	C	0.402862	-0.101796	0.492258
C120	C	0.736195	0.231538	0.825591
C121	C	-0.068938	-0.434765	0.160808
C122	C	0.264396	-0.101432	0.494142
C123	C	0.597729	0.231902	0.827475
C124	C	-0.069851	-0.531710	0.160787
C125	C	0.263482	-0.198377	0.494120
C126	C	0.596815	0.134956	0.827453
C127	C	-0.000047	-0.667546	0.117731
C128	C	0.333286	-0.334212	0.451064
C129	C	0.666620	-0.000879	0.784397
C130	C	-0.000062	-0.310591	0.111455
C131	C	0.333271	0.022742	0.444788
C132	C	0.666605	0.356076	0.778122
C133	C	-0.000058	-0.987580	-0.469186
C134	C	0.333275	-0.654246	-0.135853
C135	C	0.666608	-0.320913	0.197480
C136	C	-0.000336	-1.080384	-0.445874
C137	C	0.332998	-0.747050	-0.112541
C138	C	0.666331	-0.413717	0.220793
C139	C	-0.000059	-1.082148	-0.349199
C140	C	0.333275	-0.748814	-0.015865
C141	C	0.666608	-0.415481	0.317468
C142	C	-0.000056	-0.990557	-0.301631
C143	C	0.333278	-0.657224	0.031703
C144	C	0.666611	-0.323891	0.365036
C145	C	0.069477	-0.944172	-0.330728
C146	C	0.402810	-0.610839	0.002606
C147	C	0.736144	-0.277505	0.335939
C148	C	0.069533	-0.943055	-0.427518
C149	C	0.402866	-0.609722	-0.094185
C150	C	0.736199	-0.276388	0.239148
C151	C	-0.068933	-0.941135	-0.427383
C152	C	0.264400	-0.607802	-0.094050
C153	C	0.597733	-0.274468	0.239284
C154	C	-0.069850	-0.944574	-0.330890
C155	C	0.263483	-0.611241	0.002443
C156	C	0.596817	-0.277907	0.335776
C157	C	-0.000052	-0.992235	-0.206934
C158	C	0.333282	-0.658902	0.126399
C159	C	0.666615	-0.325569	0.459732
C160	C	-0.000057	-0.985899	-0.563882
C161	C	0.333276	-0.652565	-0.230549
C162	C	0.666609	-0.319232	0.102784
C163	C	-0.000061	-0.982924	0.267678
C164	C	0.333272	-0.649590	0.601011
C165	C	0.666606	-0.316257	0.934345
C166	C	-0.000062	-0.984556	0.360631
C167	C	0.333271	-0.651223	0.693964
C168	C	0.666605	-0.317889	1.027298
H169	H	-0.196872	-1.092367	0.011348
H170	H	0.136461	-0.759034	0.344681
H171	H	0.469794	-0.425701	0.678015
Br172	Br	0.082311	-0.420107	-0.039155
Br173	Br	0.415644	-0.086773	0.294179
Br174	Br	0.748977	0.246560	0.627512
H175	H	-0.664185	-1.092418	0.011357
H176	H	-0.330852	-0.759085	0.344691
H177	H	0.002481	-0.425752	0.678024
Br178	Br	0.073804	-0.555308	0.274906
Br179	Br	0.407137	-0.221974	0.608239
Br180	Br	0.740470	0.111359	0.941572
Br181	Br	-0.155584	-0.577118	0.105744
Br182	Br	0.177749	-0.243785	0.439078
Br183	Br	0.511082	0.089548	0.772411
H184	H	0.121221	-0.560154	0.129863
H185	H	0.454555	-0.226821	0.463196
H186	H	0.787888	0.106512	0.796529
Br187	Br	0.155722	-0.997888	-0.297294
Br188	Br	0.489056	-0.664554	0.036040
Br189	Br	0.822389	-0.331221	0.369373
Br190	Br	-0.156778	-0.400538	0.110914
Br191	Br	0.176556	-0.067204	0.444248
Br192	Br	0.509889	0.266129	0.777581
H193	H	-0.803229	-1.092420	0.011353
H194	H	-0.469896	-0.759087	0.344686
H195	H	-0.136562	-0.425753	0.678020
Br196	Br	0.083311	-0.595863	-0.036074
Br197	Br	0.416645	-0.262530	0.297259
Br198	Br	0.749978	0.070804	0.630592
Br199	Br	-0.643397	-0.854847	0.248724
Br200	Br	-0.310064	-0.521513	0.582057
Br201	Br	0.023269	-0.188180	0.915391
H202	H	-0.074047	-0.877721	-0.297921
H203	H	0.259287	-0.544388	0.035412
H204	H	0.592620	-0.211055	0.368745
Br205	Br	-0.076854	-0.557287	0.273638
Br206	Br	0.256480	-0.223954	0.606971
Br207	Br	0.589813	0.109379	0.940305
H208	H	-0.069409	-0.402989	0.228311
H209	H	0.263925	-0.069656	0.561644
H210	H	0.597258	0.263677	0.894977
Br211	Br	-0.824056	-0.854860	0.248726
Br212	Br	-0.490723	-0.521526	0.582060
Br213	Br	-0.157389	-0.188193	0.915393
Br214	Br	-0.083124	-0.596817	-0.035950
Br215	Br	0.250209	-0.263484	0.297383
Br216	Br	0.583543	0.069849	0.630716
Br217	Br	-0.083147	-1.142673	-0.317485
Br218	Br	0.250186	-0.809340	0.015848
Br219	Br	0.583520	-0.476006	0.349182
Br220	Br	-0.083440	-0.421865	-0.039438
Br221	Br	0.249894	-0.088531	0.293896
Br222	Br	0.583227	0.244802	0.627229
H223	H	0.121504	-0.416837	0.125996
H224	H	0.454837	-0.083503	0.459329
H225	H	0.788171	0.249830	0.792663
H226	H	0.072683	-0.402867	0.226142
H227	H	0.406016	-0.069534	0.559476
H228	H	0.739350	0.263800	0.892809
H229	H	-0.050201	-1.116146	-0.473874
H230	H	0.283133	-0.782813	-0.140541
H231	H	0.616466	-0.449479	0.192793
H232	H	-0.335939	-0.885733	0.217821
H233	H	-0.002605	-0.552399	0.551154
H234	H	0.330728	-0.219066	0.884487
H235	H	0.049245	-1.115965	-0.474889
H236	H	0.382579	-0.782632	-0.141556
H237	H	0.715912	-0.449298	0.191778
Br238	Br	0.083157	-1.143083	-0.318510
Br239	Br	0.416490	-0.809750	0.014823
Br240	Br	0.749824	-0.476416	0.348156
Br241	Br	-0.356721	-1.123298	-0.019543
Br242	Br	-0.023388	-0.789965	0.313790
Br243	Br	0.309946	-0.456631	0.647123
H244	H	-0.196889	-0.885707	0.217817
H245	H	0.136445	-0.552374	0.551150
H246	H	0.469778	-0.219040	0.884484
Br247	Br	0.156157	-0.996632	-0.472215
Br248	Br	0.489490	-0.663299	-0.138882
Br249	Br	0.822824	-0.329966	0.194452
H250	H	0.072685	-0.875011	-0.442068
H251	H	0.406019	-0.541677	-0.108735
H252	H	0.739352	-0.208344	0.224598
Br253	Br	0.073797	-0.831837	-0.277612
Br254	Br	0.407131	-0.498504	0.055721
Br255	Br	0.740464	-0.165171	0.389054
H256	H	-0.121639	-0.970352	-0.455474
H257	H	0.211695	-0.637018	-0.122141
H258	H	0.545028	-0.303685	0.211192
H259	H	-0.121289	-0.978349	-0.312328
H260	H	0.212044	-0.645016	0.021005
H261	H	0.545377	-0.311683	0.354339
Br262	Br	-0.069712	-0.827279	-0.450700
Br263	Br	0.263622	-0.493946	-0.117367
Br264	Br	0.596955	-0.160613	0.215966
