data_functionalizedCrystal
_audit_creation_method	'MofGen! by Chris Wilmer'
_symmetry_space_group_name_H-M	'P1'
_symmetry_Int_Tables_number	1
_symmetry_cell_setting	triclinic
loop_
_symmetry_equiv_pos_as_xyz
  x,y,z
_cell_length_a	10.540539
_cell_length_b	10.540510
_cell_length_c	9.482900
_cell_angle_alpha	99.430215
_cell_angle_beta	80.617679
_cell_angle_gamma	84.519401
loop_
_atom_site_label
_atom_site_type_symbol
_atom_site_fract_x
_atom_site_fract_y
_atom_site_fract_z
O1	O	1.705463	0.159218	-0.120818
O2	O	1.336051	0.176071	-0.120835
O3	O	1.529205	-0.017064	-0.120826
O4	O	1.512310	0.352353	-0.120827
O5	O	1.489972	0.022325	0.120965
O6	O	1.296819	0.215460	0.120955
O7	O	1.666231	0.198607	0.120973
Cu8	Cu	1.477943	0.210630	0.143041
Cu9	Cu	1.524340	0.164048	-0.142904
O10	O	1.473077	0.391742	0.120963
C11	C	1.269133	0.194501	0.000058
C12	C	1.128186	0.190718	0.000051
C13	C	0.944683	0.045891	0.000616
C14	C	1.091392	0.049634	0.000056
C15	C	1.088909	0.236122	-0.138018
C16	C	0.942381	0.231290	-0.138119
C17	C	0.897278	0.278953	0.136842
C18	C	1.043966	0.280548	0.138652
C19	C	1.508330	-0.044674	0.000067
C20	C	1.504565	-0.185625	0.000058
C21	C	1.638658	-0.402990	0.000618
C22	C	1.642766	-0.256484	0.000065
C23	C	1.456222	-0.252877	-0.138017
C24	C	1.453201	-0.399656	-0.138125
C25	C	1.405708	-0.354671	0.136836
C26	C	1.411968	-0.208034	0.138653
C27	C	1.733150	0.180176	0.000076
C28	C	1.874098	0.183958	0.000074
C29	C	1.493953	0.419351	0.000068
C30	C	1.497720	0.560301	0.000067
N31	N	1.445319	0.243393	0.344160
N32	N	1.556973	0.131275	-0.344022
C33	C	1.514708	0.173705	0.416363
C34	C	1.487574	0.200974	0.583779
H35	H	1.117952	0.012334	0.099031
H36	H	1.112084	0.338894	-0.143156
H37	H	1.714528	-0.244229	-0.099077
C38	C	1.380168	0.308851	0.667698
N39	N	1.299271	0.390103	0.730908
H40	H	0.900037	0.006285	0.099634
C41	C	1.541158	-0.476702	-0.277543
N42	N	1.607416	-0.534728	-0.382551
H43	H	1.066829	0.384766	0.146988
C44	C	1.169534	-0.044863	-0.133889
N45	N	1.228391	-0.116040	-0.234784
H46	H	0.849889	0.381010	0.137775
H47	H	1.068360	0.247587	0.240796
H48	H	0.930923	0.164296	-0.241326
H49	H	1.148175	0.172218	-0.240772
H50	H	1.309718	-0.157610	0.146986
C51	C	1.622083	0.065806	0.332438
N52	N	1.702954	-0.015472	0.269228
H53	H	1.682060	-0.211016	0.099041
H54	H	0.930459	-0.025650	-0.097849
C55	C	1.337918	0.351265	0.428085
N56	N	1.257021	0.432517	0.491295
H57	H	1.676433	-0.428814	0.099638
H58	H	1.636469	0.051415	0.593857
H59	H	0.895418	0.331736	-0.144386
C60	C	1.732562	-0.483426	-0.132394
N61	N	1.803287	-0.544013	-0.232580
H62	H	0.848755	0.250344	0.241498
C63	C	1.545126	-0.233819	-0.276831
N64	N	1.612097	-0.219470	-0.381382
C65	C	1.314940	-0.432110	-0.146625
N66	N	1.210806	-0.456551	-0.153041
C67	C	1.265330	-0.384409	0.138102
N68	N	1.159604	-0.406821	0.139049
H69	H	1.355314	-0.206325	-0.143156
H70	H	1.446872	-0.162782	0.240800
C71	C	1.441785	-0.388969	0.278222
N72	N	1.468975	-0.414802	0.384707
