data_functionalizedCrystal
_audit_creation_method	'MofGen! by Chris Wilmer'
_symmetry_space_group_name_H-M	'P1'
_symmetry_Int_Tables_number	1
_symmetry_cell_setting	triclinic
loop_
_symmetry_equiv_pos_as_xyz
  x,y,z
_cell_length_a	23.532355
_cell_length_b	27.731996
_cell_length_c	22.610064
_cell_angle_alpha	89.998076
_cell_angle_beta	89.997644
_cell_angle_gamma	82.724443
loop_
_atom_site_label
_atom_site_type_symbol
_atom_site_fract_x
_atom_site_fract_y
_atom_site_fract_z
O1	O	0.755145	0.058554	-0.049112
O2	O	1.088478	0.391887	0.284222
O3	O	1.421811	0.725221	0.617555
O4	O	0.589257	0.067071	-0.049132
O5	O	0.922590	0.400404	0.284202
O6	O	1.255924	0.733738	0.617535
O7	O	0.677368	-0.007579	-0.049108
O8	O	1.010702	0.325754	0.284225
O9	O	1.344035	0.659088	0.617558
O10	O	0.667033	0.133204	-0.049135
O11	O	1.000367	0.466537	0.284198
O12	O	1.333700	0.799871	0.617532
O13	O	0.677353	-0.007568	0.049261
O14	O	1.010686	0.325765	0.382594
O15	O	1.344020	0.659099	0.715928
O16	O	0.589242	0.067082	0.049238
O17	O	0.922575	0.400415	0.382571
O18	O	1.255908	0.733748	0.715904
O19	O	0.755129	0.058565	0.049257
O20	O	1.088463	0.391898	0.382591
O21	O	1.421796	0.725232	0.715924
Zn22	Zn	0.672183	0.062825	0.064866
Zn23	Zn	1.005516	0.396158	0.398199
Zn24	Zn	1.338850	0.729492	0.731532
Zn25	Zn	0.672203	0.062811	-0.064740
Zn26	Zn	1.005537	0.396144	0.268593
Zn27	Zn	1.338870	0.729477	0.601927
O28	O	0.667018	0.133215	0.049234
O29	O	1.000351	0.466548	0.382567
O30	O	1.333684	0.799881	0.715901
C31	C	0.568033	0.066863	0.000051
C32	C	0.901367	0.400197	0.333384
C33	C	1.234700	0.733530	0.666717
C34	C	0.504816	0.066223	0.000044
C35	C	0.838149	0.399557	0.333377
C36	C	1.171483	0.732890	0.666710
C37	C	0.112803	0.062208	0.053690
C38	C	0.446137	0.395541	0.387024
C39	C	0.779470	0.728874	0.720357
C40	C	0.053405	0.061599	0.053693
C41	C	0.386739	0.394932	0.387026
C42	C	0.720072	0.728265	0.720359
O43	O	0.022680	0.061272	0.099295
O44	O	0.356014	0.394606	0.432628
O45	O	0.689347	0.727939	0.765961
N46	N	0.023706	0.061291	0.000072
N47	N	0.357039	0.394624	0.333405
N48	N	0.690373	0.727958	0.666738
C49	C	0.053409	0.061587	-0.053555
C50	C	0.386742	0.394920	0.279778
C51	C	0.720075	0.728254	0.613112
O52	O	0.022693	0.061269	-0.099163
O53	O	0.356026	0.394602	0.234170
O54	O	0.689360	0.727935	0.567503
C55	C	0.112806	0.062193	-0.053557
C56	C	0.446139	0.395526	0.279777
C57	C	0.779473	0.728859	0.613110
C58	C	0.142501	0.062505	0.000068
C59	C	0.475835	0.395839	0.333401
C60	C	0.809168	0.729172	0.666734
C61	C	0.142499	0.062520	0.107310
C62	C	0.475832	0.395853	0.440643
C63	C	0.809165	0.729187	0.773977
C64	C	0.201893	0.063130	0.107307
C65	C	0.535226	0.396463	0.440641
C66	C	0.868559	0.729796	0.773974
C67	C	0.231591	0.063427	0.053685
C68	C	0.564924	0.396761	0.387018
C69	C	0.898257	0.730094	0.720352
C70	C	0.201895	0.063115	0.000065
C71	C	0.535229	0.396448	0.333398
C72	C	0.868562	0.729782	0.666732
C73	C	0.142508	0.062485	-0.107183
C74	C	0.475841	0.395819	0.226151
C75	C	0.809175	0.729152	0.559484
C76	C	0.201910	0.063090	-0.107180
C77	C	0.535243	0.396424	0.226153
C78	C	0.868576	0.729757	0.559487
C79	C	0.231605	0.063403	-0.053556
C80	C	0.564938	0.396736	0.279778
C81	C	0.898272	0.730070	0.613111
C82	C	0.290987	0.064023	-0.053560
C83	C	0.624320	0.397356	0.279773
C84	C	0.957654	0.730689	0.613106
N85	N	0.320686	0.064330	0.000061
N86	N	0.654020	0.397664	0.333394
N87	N	0.987353	0.730997	0.666727
C88	C	0.290988	0.064033	0.053683
C89	C	0.624322	0.397366	0.387016
C90	C	0.957655	0.730700	0.720350
C91	C	-0.071330	0.060315	-0.053547
C92	C	0.262003	0.393648	0.279786
C93	C	0.595337	0.726981	0.613120
C94	C	-0.130727	0.059713	-0.053546
C95	C	0.202606	0.393046	0.279787
C96	C	0.535940	0.726379	0.613121
C97	C	-0.130726	0.059724	0.053702
C98	C	0.202607	0.393057	0.387035
C99	C	0.535941	0.726390	0.720368
C100	C	-0.071328	0.060329	0.053700
C101	C	0.262005	0.393662	0.387033
C102	C	0.595338	0.726996	0.720367
C103	C	-0.041631	0.060623	0.000074
C104	C	0.291703	0.393956	0.333407
C105	C	0.625036	0.727289	0.666740
C106	C	0.415719	0.065314	0.053674
C107	C	0.749053	0.398647	0.387007
C108	C	1.082386	0.731981	0.720340
C109	C	0.475118	0.065926	0.053666
C110	C	0.808451	0.399259	0.387000
C111	C	1.141785	0.732593	0.720333
C112	C	0.475112	0.065912	-0.053581
C113	C	0.808446	0.399246	0.279752
C114	C	1.141779	0.732579	0.613086
C115	C	0.415718	0.065303	-0.053574
C116	C	0.749052	0.398636	0.279759
C117	C	1.082385	0.731970	0.613093
C118	C	0.386024	0.065002	0.000058
C119	C	0.719357	0.398336	0.333391
C120	C	1.052690	0.731669	0.666725
O121	O	0.321750	0.064347	-0.099139
O122	O	0.655084	0.397681	0.234194
O123	O	0.988417	0.731014	0.567528
O124	O	0.321712	0.064345	0.099284
O125	O	0.655045	0.397678	0.432617
O126	O	0.988379	0.731011	0.765951
C127	C	0.677148	-0.025581	0.000078
C128	C	1.010482	0.307752	0.333412
C129	C	1.343815	0.641086	0.666745
C130	C	0.676509	-0.079238	0.000084
C131	C	1.009842	0.254095	0.333418
C132	C	1.343176	0.587428	0.666751
C133	C	0.672494	-0.411966	-0.053566
C134	C	1.005827	-0.078633	0.279767
C135	C	1.339161	0.254701	0.613101
C136	C	0.670066	-0.613628	-0.053577
C137	C	1.003399	-0.280294	0.279756
C138	C	1.336732	0.053039	0.613090
O139	O	0.669735	-0.639704	-0.099180
O140	O	1.003068	-0.306370	0.234153
O141	O	1.336401	0.026963	0.567487
N142	N	0.669756	-0.638839	0.000044
N143	N	1.003089	-0.305506	0.333377
N144	N	1.336422	0.027827	0.666710
C145	C	0.670049	-0.613632	0.053671
C146	C	1.003382	-0.280299	0.387004
C147	C	1.336716	0.053035	0.720337
O148	O	0.669724	-0.639703	0.099278
O149	O	1.003057	-0.306369	0.432611
O150	O	1.336390	0.026964	0.765945
C151	C	0.672473	-0.411971	0.053681
C152	C	1.005807	-0.078637	0.387014
C153	C	1.339140	0.254696	0.720347
C154	C	0.672789	-0.386762	0.000057
C155	C	1.006122	-0.053429	0.333390
C156	C	1.339456	0.279904	0.666723
C157	C	0.672809	-0.386758	-0.107186
C158	C	1.006143	-0.053424	0.226148
C159	C	1.339476	0.279909	0.559481
C160	C	0.673419	-0.336346	-0.107183
C161	C	1.006753	-0.003012	0.226151
C162	C	1.340086	0.330321	0.559484
C163	C	0.673714	-0.311142	-0.053560
C164	C	1.007048	0.022191	0.279774
C165	C	1.340381	0.355525	0.613107
C166	C	0.673399	-0.336350	0.000060
C167	C	1.006733	-0.003017	0.333393
C168	C	1.340066	0.330316	0.666727
C169	C	0.672762	-0.386764	0.107307
C170	C	1.006096	-0.053431	0.440640
C171	C	1.339429	0.279903	0.773974
C172	C	0.673367	-0.336345	0.107305
C173	C	1.006700	-0.003012	0.440638
C174	C	1.340034	0.330321	0.773972
C175	C	0.673683	-0.311137	0.053681
C176	C	1.007016	0.022196	0.387014
C177	C	1.340350	0.355530	0.720348
C178	C	0.674304	-0.260735	0.053686
C179	C	1.007638	0.072598	0.387019
C180	C	1.340971	0.405932	0.720353
N181	N	0.674614	-0.235523	0.000066
N182	N	1.007948	0.097810	0.333399
N183	N	1.341281	0.431143	0.666732
C184	C	0.674319	-0.260727	-0.053557
C185	C	1.007653	0.072606	0.279776
C186	C	1.340986	0.405940	0.613109
C187	C	0.668777	-0.719507	0.053662
C188	C	1.002111	-0.386174	0.386995
C189	C	1.335444	-0.052840	0.720328
C190	C	0.668172	-0.769922	0.053659
C191	C	1.001506	-0.436589	0.386993
C192	C	1.334839	-0.103256	0.720326
C193	C	0.668188	-0.769914	-0.053589
C194	C	1.001521	-0.436581	0.279745
C195	C	1.334855	-0.103248	0.613078
C196	C	0.668797	-0.719499	-0.053586
C197	C	1.002131	-0.386165	0.279748
C198	C	1.335464	-0.052832	0.613081
C199	C	0.669087	-0.694295	0.000041
C200	C	1.002421	-0.360962	0.333374
C201	C	1.335754	-0.027629	0.666708
C202	C	0.675601	-0.154858	-0.053547
C203	C	1.008935	0.178475	0.279787
C204	C	1.342268	0.511809	0.613120
C205	C	0.676214	-0.104442	-0.053539
C206	C	1.009547	0.228891	0.279795
C207	C	1.342881	0.562225	0.613128
C208	C	0.676195	-0.104454	0.053709
C209	C	1.009528	0.228880	0.387042
C210	C	1.342862	0.562213	0.720375
C211	C	0.675586	-0.154866	0.053701
C212	C	1.008919	0.178467	0.387035
C213	C	1.342252	0.511801	0.720368
C214	C	0.675287	-0.180067	0.000069
C215	C	1.008620	0.153267	0.333402
C216	C	1.341953	0.486600	0.666735
O217	O	0.674630	-0.234627	0.099265
O218	O	1.007963	0.098706	0.432598
O219	O	1.341296	0.432040	0.765932
O220	O	0.674632	-0.234646	-0.099158
O221	O	1.007966	0.098687	0.234176
O222	O	1.341299	0.432021	0.567509
C223	C	0.671884	-0.462378	-0.053569
C224	C	1.005217	-0.129045	0.279764
C225	C	1.338551	0.204289	0.613097
C226	C	0.671569	-0.487587	0.000050
C227	C	1.004902	-0.154253	0.333384
C228	C	1.338235	0.179080	0.666717
C229	C	0.671864	-0.462383	0.053673
C230	C	1.005197	-0.129050	0.387006
C231	C	1.338530	0.204284	0.720340
C232	C	0.670964	-0.538002	0.000048
C233	C	1.004297	-0.204668	0.333381
C234	C	1.337630	0.128665	0.666715
C235	C	0.670669	-0.563205	-0.053575
C236	C	1.004002	-0.229872	0.279758
C237	C	1.337335	0.103461	0.613092
C238	C	0.670979	-0.537994	-0.107195
C239	C	1.004312	-0.204660	0.226138
C240	C	1.337645	0.128673	0.559471
C241	C	0.671589	-0.487582	-0.107192
C242	C	1.004922	-0.154248	0.226141
C243	C	1.338256	0.179085	0.559474
C244	C	0.671554	-0.487595	0.107294
C245	C	1.004887	-0.154261	0.440627
C246	C	1.338220	0.179072	0.773960
C247	C	0.670944	-0.538007	0.107286
C248	C	1.004277	-0.204673	0.440619
C249	C	1.337611	0.128660	0.773953
C250	C	0.670649	-0.563210	0.053663
C251	C	1.003982	-0.229877	0.386997
C252	C	1.337316	0.103456	0.720330
C253	C	0.776353	0.058772	0.000074
C254	C	1.109686	0.392106	0.333407
C255	C	1.443020	0.725439	0.666741
C256	C	0.839570	0.059412	0.000077
C257	C	1.172904	0.392746	0.333410
C258	C	1.506237	0.726079	0.666744
C259	C	0.667238	0.151217	0.000046
C260	C	1.000571	0.484550	0.333380
C261	C	1.333905	0.817884	0.666713
C262	C	0.667877	0.204874	0.000036
C263	C	1.001211	0.538208	0.333370
C264	C	1.334544	0.871541	0.666703
N265	N	0.672173	0.062835	0.153318
N266	N	1.005506	0.396168	0.486651
N267	N	1.338840	0.729501	0.819985
N268	N	0.672218	0.062797	-0.153192
N269	N	1.005551	0.396131	0.180141
N270	N	1.338884	0.729464	0.513474
C271	C	0.711221	0.029761	0.561970
C272	C	1.044554	0.363094	0.895303
C273	C	1.377887	0.696428	1.228637
C274	C	0.711224	0.029757	0.623890
C275	C	1.044557	0.363091	0.957223
C276	C	1.377890	0.696424	1.290557
O277	O	0.744399	0.001644	0.655917
O278	O	1.077733	0.334977	0.989251
O279	O	1.411066	0.668311	1.322584
N280	N	0.672203	0.062801	0.654855
N281	N	1.005536	0.396134	0.988189
N282	N	1.338870	0.729467	1.321522
C283	C	0.633173	0.095847	0.623898
C284	C	0.966506	0.429180	0.957231
C285	C	1.299840	0.762513	1.290564
O286	O	0.599983	0.123952	0.655922
O287	O	0.933316	0.457285	0.989255
O288	O	1.266649	0.790619	1.322589
C289	C	0.633168	0.095847	0.561979
C290	C	0.966501	0.429181	0.895312
C291	C	1.299834	0.762514	1.228646
C292	C	0.672195	0.062805	0.531017
C293	C	1.005528	0.396138	0.864350
C294	C	1.338862	0.729472	1.197683
C295	C	0.750244	-0.003279	0.531008
C296	C	1.083578	0.330054	0.864341
C297	C	1.416911	0.663388	1.197674
C298	C	0.750242	-0.003275	0.469092
C299	C	1.083575	0.330059	0.802425
C300	C	1.416909	0.663392	1.135759
C301	C	0.711216	0.029769	0.438139
C302	C	1.044549	0.363103	0.771472
C303	C	1.377883	0.696436	1.104805
C304	C	0.672193	0.062809	0.469101
C305	C	1.005526	0.396143	0.802434
C306	C	1.338859	0.729476	1.135768
C307	C	0.594135	0.128890	0.531022
C308	C	0.927469	0.462224	0.864356
C309	C	1.260802	0.795557	1.197689
C310	C	0.594133	0.128888	0.469099
C311	C	0.927467	0.462222	0.802433
C312	C	1.260800	0.795555	1.135766
C313	C	0.633160	0.095846	0.438137
C314	C	0.966494	0.429179	0.771470
C315	C	1.299827	0.762513	1.104804
C316	C	0.633164	0.095858	0.376232
C317	C	0.966498	0.429191	0.709565
C318	C	1.299831	0.762524	1.042899
N319	N	0.672185	0.062814	0.345267
N320	N	1.005518	0.396148	0.678600
N321	N	1.338852	0.729481	1.011933
C322	C	0.711211	0.029770	0.376220
C323	C	1.044544	0.363104	0.709553
C324	C	1.377878	0.696437	1.042887
C325	C	0.633186	0.095842	0.753931
C326	C	0.966519	0.429175	1.087265
C327	C	1.299853	0.762508	1.420598
C328	C	0.633194	0.095844	0.815849
C329	C	0.966527	0.429177	1.149182
C330	C	1.299860	0.762510	1.482516
C331	C	0.711244	0.029754	0.815837
C332	C	1.044577	0.363087	1.149170
C333	C	1.377910	0.696420	1.482504
C334	C	0.711239	0.029754	0.753918
C335	C	1.044572	0.363088	1.087251
C336	C	1.377905	0.696421	1.420585
C337	C	0.672207	0.062798	0.722966
C338	C	1.005540	0.396132	1.056299
C339	C	1.338874	0.729465	1.389633
C340	C	0.711203	0.029782	0.246193
C341	C	1.044537	0.363115	0.579526
C342	C	1.377870	0.696449	0.912859
C343	C	0.711199	0.029790	0.184271
C344	C	1.044532	0.363124	0.517605
C345	C	1.377866	0.696457	0.850938
C346	C	0.633147	0.095878	0.184289
C347	C	0.966480	0.429212	0.517622
C348	C	1.299814	0.762545	0.850956
C349	C	0.633153	0.095872	0.246205
C350	C	0.966486	0.429205	0.579538
C351	C	1.299820	0.762538	0.912871
C352	C	0.672183	0.062820	0.277155
C353	C	1.005517	0.396153	0.610488
C354	C	1.338850	0.729486	0.943822
O355	O	0.600004	0.123955	0.344165
O356	O	0.933337	0.457289	0.677499
O357	O	1.266671	0.790622	1.010832
O358	O	0.744391	0.001665	0.344188
O359	O	1.077724	0.334999	0.677521
O360	O	1.411057	0.668332	1.010855
H361	H	0.676472	-0.083920	-0.097208
H362	H	1.009806	0.249414	0.236126
H363	H	1.343139	0.582747	0.569459
O364	O	-0.162753	0.059367	-0.111383
O365	O	0.170581	0.392700	0.221951
O366	O	0.503914	0.726034	0.555284
H367	H	-0.132115	0.059668	-0.148667
H368	H	0.201218	0.393002	0.184666
H369	H	0.534551	0.726335	0.518000
O370	O	0.753306	-0.005864	0.279564
O371	O	1.086640	0.327469	0.612898
O372	O	1.419973	0.660802	0.946231
H373	H	0.729557	-0.029263	0.307773
H374	H	1.062890	0.304071	0.641106
H375	H	1.396224	0.637404	0.974440
H376	H	-0.047154	0.060558	-0.097219
H377	H	0.286179	0.393892	0.236115
H378	H	0.619512	0.727225	0.569448
O379	O	0.792328	-0.038920	0.435700
O380	O	1.125661	0.294413	0.769033
O381	O	1.458994	0.627747	1.102366
H382	H	0.819456	-0.061899	0.467634
H383	H	1.152790	0.271434	0.800968
H384	H	1.486123	0.604767	1.134301
O385	O	0.507147	0.066233	-0.111417
O386	O	0.840481	0.399566	0.221916
O387	O	1.173814	0.732899	0.555250
H388	H	0.501121	0.033161	-0.137120
H389	H	0.834454	0.366494	0.196213
H390	H	1.167788	0.699828	0.529547
O391	O	0.792348	-0.038916	0.564389
O392	O	1.125681	0.294417	0.897722
O393	O	1.459014	0.627751	1.231055
H394	H	0.819482	-0.061883	0.532446
H395	H	1.152816	0.271451	0.865780
H396	H	1.486149	0.604784	1.199113
O397	O	0.233935	0.063406	-0.165025
O398	O	0.567268	0.396739	0.168308
O399	O	0.900602	0.730072	0.501641
H400	H	0.266369	0.030728	-0.167586
H401	H	0.599703	0.364061	0.165747
H402	H	0.933036	0.697394	0.499080
O403	O	0.675281	-0.182035	-0.111392
O404	O	1.008614	0.151298	0.221942
O405	O	1.341948	0.484632	0.555275
H406	H	0.636168	-0.200494	-0.113969
H407	H	0.969501	0.132839	0.219364
H408	H	1.302834	0.466173	0.552697
O409	O	0.675253	-0.182065	0.111533
O410	O	1.008586	0.151268	0.444866
O411	O	1.341920	0.484602	0.778200
H412	H	0.636532	-0.167888	0.137241
H413	H	0.969865	0.165446	0.470575
H414	H	1.303199	0.498779	0.803908
O415	O	0.233909	0.063476	0.165150
O416	O	0.567243	0.396809	0.498483
O417	O	0.900576	0.730142	0.831816
H418	H	0.227886	0.030412	0.190873
H419	H	0.561219	0.363745	0.524206
H420	H	0.894553	0.697079	0.857539
O421	O	0.753326	-0.005888	0.720523
O422	O	1.086659	0.327445	1.053857
O423	O	1.419992	0.660779	1.387190
H424	H	0.780459	-0.028866	0.752456
H425	H	1.113792	0.304468	1.085789
H426	H	1.447125	0.637801	1.419123
H427	H	0.391538	0.065056	-0.097239
H428	H	0.724871	0.398390	0.236094
H429	H	1.058204	0.731723	0.569427
O430	O	0.753339	-0.005886	0.849232
O431	O	1.086672	0.327448	1.182565
O432	O	1.420005	0.660781	1.515899
H433	H	0.780480	-0.028861	0.817303
H434	H	1.113814	0.304472	1.150637
H435	H	1.447147	0.637806	1.483970
O436	O	0.507141	0.066268	0.111510
O437	O	0.840474	0.399601	0.444843
O438	O	1.173807	0.732934	0.778176
H439	H	0.539586	0.033598	0.114087
H440	H	0.872919	0.366931	0.447421
H441	H	1.206252	0.700265	0.780754
O442	O	0.591119	0.131497	0.849242
O443	O	0.924452	0.464831	1.182576
O444	O	1.257786	0.798164	1.515909
H445	H	0.563987	0.154476	0.817310
H446	H	0.897320	0.487809	1.150643
H447	H	1.230653	0.821143	1.483977
O448	O	0.591086	0.131483	0.720546
O449	O	0.924419	0.464817	1.053879
O450	O	1.257752	0.798150	1.387213
H451	H	0.614839	0.154871	0.692326
H452	H	0.948172	0.488204	1.025660
H453	H	1.281506	0.821537	1.358993
H454	H	0.601379	0.122782	0.271415
H455	H	0.934712	0.456116	0.604748
H456	H	1.268046	0.789449	0.938081
H457	H	0.562356	0.155796	0.556223
H458	H	0.895689	0.489129	0.889557
H459	H	1.229023	0.822463	1.222890
O460	O	0.552037	0.164532	0.435714
O461	O	0.885371	0.497865	0.769047
O462	O	1.218704	0.831198	1.102381
H463	H	0.524907	0.187508	0.467651
H464	H	0.858240	0.520841	0.800984
H465	H	1.191573	0.854174	1.134317
O466	O	0.672485	-0.413930	-0.165032
O467	O	1.005819	-0.080596	0.168302
O468	O	1.339152	0.252737	0.501635
H469	H	0.711040	-0.441404	-0.167603
H470	H	1.044373	-0.108071	0.165730
H471	H	1.377707	0.225262	0.499063
O472	O	0.673745	-0.309157	-0.165020
O473	O	1.007078	0.024176	0.168314
O474	O	1.340412	0.357510	0.501647
H475	H	0.673429	-0.335158	-0.202302
H476	H	1.006762	-0.001825	0.131031
H477	H	1.340095	0.331508	0.464364
H478	H	0.391548	0.065073	0.097346
H479	H	0.724881	0.398407	0.430679
H480	H	1.058215	0.731740	0.764013
H481	H	0.667948	-0.790444	-0.097250
H482	H	1.001282	-0.457110	0.236083
H483	H	1.334615	-0.123777	0.569416
O484	O	0.110470	0.062204	0.165150
O485	O	0.443804	0.395538	0.498484
O486	O	0.777137	0.728871	0.831817
H487	H	0.141107	0.062528	0.202429
H488	H	0.474440	0.395861	0.535762
H489	H	0.807774	0.729194	0.869096
O490	O	-0.039301	0.060669	0.111536
O491	O	0.294033	0.394002	0.444870
O492	O	0.627366	0.727336	0.778203
H493	H	-0.069937	0.060360	0.148820
H494	H	0.263397	0.393694	0.482154
H495	H	0.596730	0.727027	0.815487
H496	H	0.601374	0.122784	0.159077
H497	H	0.934707	0.456117	0.492411
H498	H	1.268041	0.789451	0.825744
O499	O	0.673686	-0.309166	0.165149
O500	O	1.007020	0.024168	0.498482
O501	O	1.340353	0.357501	0.831816
H502	H	0.635129	-0.281694	0.167716
H503	H	0.968462	0.051640	0.501050
H504	H	1.301795	0.384973	0.834383
H505	H	0.669054	-0.698977	-0.097251
H506	H	1.002387	-0.365644	0.236082
H507	H	1.335720	-0.032311	0.569416
H508	H	-0.154917	0.059480	0.097364
H509	H	0.178417	0.392814	0.430698
H510	H	0.511750	0.726147	0.764031
H511	H	0.118340	0.062230	-0.150850
H512	H	0.451674	0.395563	0.182484
H513	H	0.785007	0.728897	0.515817
O514	O	0.667837	-0.797111	0.111496
O515	O	1.001170	-0.463777	0.444829
O516	O	1.334503	-0.130444	0.778162
H517	H	0.668137	-0.771109	0.148780
H518	H	1.001471	-0.437776	0.482114
H519	H	1.334804	-0.104443	0.815447
H520	H	0.669016	-0.698992	0.097333
H521	H	1.002350	-0.365658	0.430667
H522	H	1.335683	-0.032325	0.764000
H523	H	0.671846	-0.467061	-0.150858
H524	H	1.005179	-0.133728	0.182475
H525	H	1.338513	0.199605	0.515808
H526	H	0.670741	-0.558524	-0.150857
H527	H	1.004075	-0.225190	0.182476
H528	H	1.337408	0.108143	0.515810
O529	O	0.670602	-0.565194	0.165127
O530	O	1.003935	-0.231861	0.498460
O531	O	1.337269	0.101473	0.831794
H532	H	0.670903	-0.539193	0.202411
H533	H	1.004237	-0.205860	0.535745
H534	H	1.337570	0.127474	0.869078
O535	O	0.672416	-0.413945	0.165145
O536	O	1.005749	-0.080612	0.498478
O537	O	1.339083	0.252721	0.831812
H538	H	0.672714	-0.387941	0.202426
H539	H	1.006048	-0.054608	0.535760
H540	H	1.339381	0.278726	0.869093
O541	O	0.676512	-0.077266	0.111544
O542	O	1.009846	0.256067	0.444877
O543	O	1.343179	0.589401	0.778211
H544	H	0.676983	-0.037974	0.102532
H545	H	1.010316	0.295359	0.435865
H546	H	1.343650	0.628692	0.769199
H547	H	0.671795	-0.467079	0.150961
H548	H	1.005128	-0.133746	0.484294
H549	H	1.338461	0.199588	0.817627
H550	H	0.742982	0.002883	0.159064
H551	H	1.076315	0.336217	0.492397
H552	H	1.409648	0.669550	0.825730
