data_functionalizedCrystal
_audit_creation_method	'MofGen! by Chris Wilmer'
_symmetry_space_group_name_H-M	'P1'
_symmetry_Int_Tables_number	1
_symmetry_cell_setting	triclinic
loop_
_symmetry_equiv_pos_as_xyz
  x,y,z
_cell_length_a	16.992694
_cell_length_b	10.654551
_cell_length_c	15.455313
_cell_angle_alpha	92.692775
_cell_angle_beta	87.142206
_cell_angle_gamma	87.576826
loop_
_atom_site_label
_atom_site_type_symbol
_atom_site_fract_x
_atom_site_fract_y
_atom_site_fract_z
O1	O	1.045244	0.261289	-0.072016
O2	O	1.545244	0.761289	0.427984
O3	O	0.816944	0.258364	-0.072042
O4	O	1.316944	0.758364	0.427958
O5	O	0.936343	0.077541	-0.072027
O6	O	1.436343	0.577541	0.427973
O7	O	0.925846	0.442112	-0.072032
O8	O	1.425846	0.942112	0.427968
O9	O	0.929515	0.087836	0.072235
O10	O	1.429515	0.587836	0.572235
O11	O	0.810116	0.268659	0.072219
O12	O	1.310116	0.768659	0.572219
O13	O	1.038416	0.271584	0.072245
O14	O	1.538416	0.771584	0.572245
Cu15	Cu	0.923643	0.271061	0.085404
Cu16	Cu	1.423643	0.771061	0.585404
Cu17	Cu	0.931718	0.258886	-0.085201
Cu18	Cu	1.431718	0.758886	0.414799
O19	O	0.919018	0.452407	0.072230
O20	O	1.419018	0.952407	0.572230
C21	C	0.784297	0.259751	0.000085
C22	C	1.284297	0.759751	0.500085
C23	C	0.697193	0.248531	0.000075
C24	C	1.197193	0.748531	0.500075
C25	C	0.647541	0.356782	0.000075
C26	C	1.147541	0.856782	0.500075
C27	C	0.565697	0.346233	0.000087
C28	C	1.065697	0.846233	0.500087
C29	C	0.533505	0.227433	0.000093
C30	C	1.033505	0.727433	0.500093
C31	C	0.583163	0.119174	0.000097
C32	C	1.083163	0.619174	0.500097
C33	C	0.665006	0.129724	0.000091
C34	C	1.165006	0.629724	0.500091
C35	C	0.289669	0.183707	0.000117
C36	C	0.789669	0.683707	0.500117
C37	C	0.207820	0.173165	0.000121
C38	C	0.707820	0.673165	0.500121
C39	C	0.190359	0.400226	0.000112
C40	C	0.690359	0.900226	0.500112
C41	C	0.272204	0.410765	0.000101
C42	C	0.772204	0.910765	0.500101
C43	C	0.321854	0.302507	0.000109
C44	C	0.821854	0.802507	0.500109
N45	N	0.449847	0.216648	0.000103
N46	N	0.949847	0.716648	0.500103
N47	N	0.405510	0.313293	0.000105
N48	N	0.905510	0.813293	0.500105
C49	C	0.932158	0.035824	0.000102
C50	C	1.432158	0.535824	0.500102
C51	C	0.929851	-0.103819	0.000098
C52	C	1.429851	0.396181	0.500098
C53	C	0.932491	-0.175028	-0.078540
C54	C	1.432491	0.324972	0.421460
C55	C	0.930317	-0.306237	-0.078541
C56	C	1.430317	0.193763	0.421459
C57	C	0.922868	-0.295015	0.078741
C58	C	1.422868	0.204985	0.578741
C59	C	0.925036	-0.163808	0.078741
C60	C	1.425036	0.336192	0.578741
C61	C	0.885946	-0.487272	-0.173024
C62	C	1.385946	0.012728	0.326976
C63	C	0.888599	-0.558488	-0.251666
C64	C	1.388599	-0.058488	0.248334
C65	C	0.938480	-0.525875	-0.321090
C66	C	1.438480	-0.025875	0.178910
C67	C	0.985728	-0.422051	-0.311876
C68	C	1.485728	0.077949	0.188124
C69	C	0.983082	-0.350843	-0.233233
C70	C	1.483082	0.149157	0.266767
C71	C	0.933182	-0.383452	-0.163811
C72	C	1.433182	0.116548	0.336189
C73	C	0.969414	0.017228	0.173218
C74	C	1.469414	0.517228	0.673218
C75	C	0.966773	0.088438	0.251863
C76	C	1.466773	0.588438	0.751863
C77	C	0.916896	0.055828	0.321295
C78	C	1.416896	0.555828	0.821295
C79	C	0.869660	-0.048000	0.312089
C80	C	1.369660	0.452000	0.812089
C81	C	0.872301	-0.119210	0.233445
C82	C	1.372301	0.380790	0.733445
C83	C	0.922176	-0.086591	0.164013
C84	C	1.422176	0.413409	0.664013
C85	C	1.071063	0.270196	0.000116
C86	C	1.571063	0.770196	0.500116
C87	C	1.158168	0.281416	0.000120
C88	C	1.658168	0.781416	0.500120
C89	C	0.923203	0.494124	0.000098
C90	C	1.423203	0.994124	0.500098
C91	C	0.925509	0.633766	0.000097
C92	C	1.425509	1.133766	0.500097
N93	N	0.917969	0.279624	0.205399
N94	N	1.417969	0.779624	0.705399
N95	N	0.937398	0.250314	-0.205196
N96	N	1.437398	0.750314	0.294804
C97	C	0.968712	0.202836	0.250800
C98	C	1.468712	0.702836	0.750800
C99	C	0.964428	0.209324	0.341607
C100	C	1.464428	0.709324	0.841607
C101	C	0.909405	0.292607	0.387012
C102	C	1.409405	0.792607	0.887012
C103	C	0.858657	0.369399	0.341605
C104	C	1.358657	0.869399	0.841605
C105	C	0.862938	0.362903	0.250799
C106	C	1.362938	0.862903	0.750799
C107	C	0.890930	0.320610	0.658591
C108	C	1.390930	0.820610	1.158591
C109	C	0.886655	0.327102	0.749403
C110	C	1.386655	0.827102	1.249403
C111	C	0.992425	0.167025	0.749399
C112	C	1.492425	0.667025	1.249399
C113	C	0.996704	0.160543	0.658591
C114	C	1.496704	0.660543	1.158591
C115	C	0.945953	0.237329	0.613192
C116	C	1.445953	0.737329	1.113192
N117	N	0.905027	0.299244	0.479832
N118	N	1.405027	0.799244	0.979832
N119	N	0.950328	0.230685	0.520374
N120	N	1.450328	0.730685	1.020374
H121	H	0.149925	0.488363	0.000107
H122	H	0.649925	0.988363	0.500107
H123	H	0.813852	0.437205	0.378579
H124	H	1.313852	0.937205	0.878579
H125	H	1.005746	0.146796	0.378572
H126	H	1.505746	0.646796	0.878572
H127	H	0.914757	0.113812	0.385333
H128	H	1.414757	0.613812	0.885333
Cl129	Cl	0.167352	0.023806	0.000149
Cl130	Cl	0.667352	0.523806	0.500149
H131	H	0.841846	0.394926	0.786368
H132	H	1.341846	0.894926	1.286368
Cl133	Cl	1.065877	0.055844	0.601511
Cl134	Cl	1.565877	0.555844	1.101511
H135	H	1.033743	0.104508	0.786371
H136	H	1.533743	0.604508	1.286371
H137	H	0.673745	0.453522	0.000069
H138	H	1.173745	0.953522	0.500069
Cl139	Cl	0.503281	0.482327	0.000080
Cl140	Cl	1.003281	0.982327	0.500080
Cl141	Cl	0.312667	0.560120	0.000087
Cl142	Cl	0.812667	1.060120	0.500087
H143	H	0.330085	0.095555	0.000124
H144	H	0.830085	0.595555	0.500124
H145	H	0.849608	0.383135	0.621634
H146	H	1.349608	0.883135	1.121634
Cl147	Cl	0.799141	0.459437	0.193725
Cl148	Cl	1.299141	0.959437	0.693725
H149	H	1.013520	0.135024	0.213837
H150	H	1.513520	0.635024	0.713837
H151	H	0.705432	0.041574	0.000091
H152	H	1.205432	0.541574	0.500091
Cl153	Cl	0.938540	-0.099617	-0.177405
Cl154	Cl	1.438540	0.400383	0.322595
Cl155	Cl	0.542694	-0.030176	0.000111
Cl156	Cl	1.042694	0.469824	0.500111
H157	H	1.010024	0.043800	0.116680
H158	H	1.510024	0.543800	0.616680
Cl159	Cl	1.048449	-0.381072	-0.399155
Cl160	Cl	1.548449	0.118928	0.100845
H161	H	1.021551	-0.266313	-0.225730
H162	H	1.521551	0.233687	0.274270
H163	H	0.940639	-0.583868	-0.385122
H164	H	1.440639	-0.083868	0.114878
H165	H	0.845317	-0.513826	-0.116501
H166	H	1.345317	-0.013826	0.383499
H167	H	0.918948	-0.343875	0.142769
H168	H	1.418948	0.156125	0.642769
Cl169	Cl	0.812919	-0.249743	0.221873
Cl170	Cl	1.312919	0.250257	0.721873
Cl171	Cl	0.829201	-0.689001	-0.263249
Cl172	Cl	1.329201	-0.189001	0.236751
Cl173	Cl	0.806959	-0.089009	0.399379
Cl174	Cl	1.306959	0.410991	0.899379
Cl175	Cl	1.026166	0.218957	0.263439
Cl176	Cl	1.526166	0.718957	0.763439
