data_functionalizedCrystal
_audit_creation_method	'MofGen! by Chris Wilmer'
_symmetry_space_group_name_H-M	'P1'
_symmetry_Int_Tables_number	1
_symmetry_cell_setting	triclinic
loop_
_symmetry_equiv_pos_as_xyz
  x,y,z
_cell_length_a	19.077105
_cell_length_b	21.295417
_cell_length_c	19.076919
_cell_angle_alpha	92.266620
_cell_angle_beta	90.076224
_cell_angle_gamma	87.726672
loop_
_atom_site_label
_atom_site_type_symbol
_atom_site_fract_x
_atom_site_fract_y
_atom_site_fract_z
Zn1	Zn	1.058236	-0.304534	-0.440387
Zn2	Zn	1.308236	-0.054534	-0.190387
Zn3	Zn	1.558236	0.195466	0.059613
Zn4	Zn	1.808236	0.445466	0.309613
Zn5	Zn	1.062864	-0.405747	-0.322870
Zn6	Zn	1.312864	-0.155747	-0.072870
Zn7	Zn	1.562864	0.094253	0.177130
Zn8	Zn	1.812864	0.344253	0.427130
Zn9	Zn	0.945454	-0.296102	-0.318181
Zn10	Zn	1.195454	-0.046102	-0.068181
Zn11	Zn	1.445454	0.203898	0.181819
Zn12	Zn	1.695454	0.453898	0.431819
Zn13	Zn	0.940686	-0.405368	-0.435623
Zn14	Zn	1.190686	-0.155368	-0.185623
Zn15	Zn	1.440686	0.094632	0.064377
Zn16	Zn	1.690686	0.344632	0.314377
O17	O	1.001810	-0.352938	-0.379265
O18	O	1.251810	-0.102938	-0.129265
O19	O	1.501810	0.147062	0.120735
O20	O	1.751810	0.397062	0.370735
O21	O	1.157181	-0.321649	-0.428754
O22	O	1.407181	-0.071649	-0.178754
O23	O	1.657181	0.178351	0.071246
O24	O	1.907181	0.428351	0.321246
O25	O	1.051222	-0.387832	-0.223917
O26	O	1.301222	-0.137832	0.026083
O27	O	1.551222	0.112168	0.276083
O28	O	1.801222	0.362168	0.526083
O29	O	0.960474	-0.209134	-0.334424
O30	O	1.210474	0.040866	-0.084424
O31	O	1.460474	0.290866	0.165576
O32	O	1.710474	0.540866	0.415576
O33	O	1.160581	-0.396009	-0.342415
O34	O	1.410581	-0.146009	-0.092415
O35	O	1.660581	0.103991	0.157585
O36	O	1.910581	0.353991	0.407585
O37	O	1.043334	-0.215330	-0.424208
O38	O	1.293334	0.034670	-0.174208
O39	O	1.543334	0.284670	0.075792
O40	O	1.793334	0.534670	0.325792
O41	O	0.964962	-0.307276	-0.220472
O42	O	1.214962	-0.057276	0.029528
O43	O	1.464962	0.192724	0.279528
O44	O	1.714962	0.442724	0.529528
O45	O	0.846490	-0.306908	-0.329804
O46	O	1.096490	-0.056908	-0.079804
O47	O	1.346490	0.193092	0.170196
O48	O	1.596490	0.443092	0.420196
O49	O	0.952346	-0.395362	-0.534586
O50	O	1.202346	-0.145362	-0.284586
O51	O	1.452346	0.104638	-0.034586
O52	O	1.702346	0.354638	0.215414
O53	O	0.842987	-0.387185	-0.416088
O54	O	1.092987	-0.137185	-0.166088
O55	O	1.342987	0.112815	0.083912
O56	O	1.592987	0.362815	0.333912
O57	O	1.038710	-0.321280	-0.538086
O58	O	1.288710	-0.071280	-0.288086
O59	O	1.538710	0.178720	-0.038086
O60	O	1.788710	0.428720	0.211914
O61	O	1.046598	-0.493783	-0.337795
O62	O	1.296598	-0.243783	-0.087795
O63	O	1.546598	0.006217	0.162205
O64	O	1.796598	0.256217	0.412205
O65	O	0.956834	-0.493504	-0.420634
O66	O	1.206834	-0.243504	-0.170634
O67	O	1.456834	0.006496	0.079366
O68	O	1.706834	0.256496	0.329366
C69	C	0.819242	-0.346091	-0.371921
C70	C	1.069242	-0.096091	-0.121921
C71	C	1.319242	0.153909	0.128079
C72	C	1.569242	0.403909	0.378079
C73	C	0.741139	-0.343178	-0.368795
C74	C	0.991139	-0.093178	-0.118795
C75	C	1.241139	0.156822	0.131205
C76	C	1.491139	0.406822	0.381205
C77	C	0.702642	-0.383663	-0.412179
C78	C	0.952642	-0.133663	-0.162179
C79	C	1.202642	0.116337	0.087821
C80	C	1.452642	0.366337	0.337821
C81	C	0.629255	-0.380918	-0.409246
C82	C	0.879255	-0.130918	-0.159246
C83	C	1.129255	0.119082	0.090754
C84	C	1.379255	0.369082	0.340754
C85	C	0.594366	-0.337689	-0.362924
C86	C	0.844366	-0.087689	-0.112924
C87	C	1.094366	0.162311	0.137076
C88	C	1.344366	0.412311	0.387076
C89	C	0.632868	-0.297199	-0.319538
C90	C	0.882868	-0.047199	-0.069538
C91	C	1.132868	0.202801	0.180462
C92	C	1.382868	0.452801	0.430462
C93	C	0.706253	-0.299942	-0.322476
C94	C	0.956253	-0.049942	-0.072476
C95	C	1.206253	0.200058	0.177524
C96	C	1.456253	0.450058	0.427524
C97	C	0.375080	-0.324994	-0.349333
C98	C	0.625080	-0.074994	-0.099333
C99	C	0.875080	0.175006	0.150667
C100	C	1.125080	0.425006	0.400667
C101	C	0.301690	-0.322256	-0.346397
C102	C	0.551690	-0.072256	-0.096397
C103	C	0.801690	0.177744	0.153603
C104	C	1.051690	0.427744	0.403603
C105	C	0.298082	-0.405974	-0.436106
C106	C	0.548082	-0.155974	-0.186106
C107	C	0.798082	0.094026	0.063894
C108	C	1.048082	0.344026	0.313894
C109	C	0.371470	-0.408715	-0.439037
C110	C	0.621470	-0.158715	-0.189037
C111	C	0.871470	0.091285	0.060963
C112	C	1.121470	0.341285	0.310963
C113	C	0.409965	-0.368223	-0.395653
C114	C	0.659965	-0.118223	-0.145653
C115	C	0.909965	0.131777	0.104347
C116	C	1.159965	0.381777	0.354347
N117	N	0.519353	-0.334883	-0.359923
N118	N	0.769353	-0.084883	-0.109923
N119	N	1.019353	0.165117	0.140077
N120	N	1.269353	0.415117	0.390077
N121	N	0.484976	-0.371027	-0.398658
N122	N	0.734976	-0.121027	-0.148658
N123	N	0.984976	0.128973	0.101342
N124	N	1.234976	0.378973	0.351342
C125	C	1.001719	-0.516485	-0.379223
C126	C	1.251719	-0.266485	-0.129223
C127	C	1.501719	-0.016485	0.120777
C128	C	1.751719	0.233515	0.370777
C129	C	1.001744	-0.586454	-0.379231
C130	C	1.251744	-0.336454	-0.129231
C131	C	1.501744	-0.086454	0.120769
C132	C	1.751744	0.163546	0.370769
C133	C	1.048522	-0.619448	-0.336144
C134	C	1.298522	-0.369448	-0.086144
C135	C	1.548522	-0.119448	0.163856
C136	C	1.798522	0.130552	0.413856
C137	C	1.048554	-0.685192	-0.336161
C138	C	1.298554	-0.435192	-0.086161
C139	C	1.548554	-0.185192	0.163839
C140	C	1.798554	0.064808	0.413839
C141	C	1.001796	-0.717939	-0.379257
C142	C	1.251796	-0.467939	-0.129257
C143	C	1.501796	-0.217939	0.120743
C144	C	1.751796	0.032061	0.370743
C145	C	0.955015	-0.684937	-0.422352
C146	C	1.205015	-0.434937	-0.172352
C147	C	1.455015	-0.184937	0.077648
C148	C	1.705015	0.065063	0.327648
C149	C	0.954989	-0.619195	-0.422339
C150	C	1.204989	-0.369195	-0.172339
C151	C	1.454989	-0.119195	0.077661
C152	C	1.704989	0.130805	0.327661
N153	N	0.940111	-0.819089	-0.382141
N154	N	1.190111	-0.569089	-0.132141
N155	N	1.440111	-0.319089	0.117859
N156	N	1.690111	-0.069089	0.367859
N157	N	0.940138	-0.881541	-0.382149
N158	N	1.190138	-0.631541	-0.132149
N159	N	1.440138	-0.381541	0.117851
N160	N	1.690138	-0.131541	0.367851
C161	C	1.001873	-0.916018	-0.379300
C162	C	1.251873	-0.666018	-0.129300
C163	C	1.501873	-0.416018	0.120700
C164	C	1.751873	-0.166018	0.370700
N165	N	1.063583	-0.885683	-0.376429
N166	N	1.313583	-0.635683	-0.126429
N167	N	1.563583	-0.385683	0.123571
N168	N	1.813583	-0.135683	0.373571
N169	N	1.063555	-0.823224	-0.376417
N170	N	1.313555	-0.573224	-0.126417
N171	N	1.563555	-0.323224	0.123583
N172	N	1.813555	-0.073224	0.373583
C173	C	1.001820	-0.789226	-0.379276
C174	C	1.251820	-0.539226	-0.129276
C175	C	1.501820	-0.289226	0.120724
C176	C	1.751820	-0.039226	0.370724
C177	C	1.048690	-1.020300	-0.336230
C178	C	1.298690	-0.770300	-0.086230
C179	C	1.548690	-0.520300	0.163770
C180	C	1.798690	-0.270300	0.413770
C181	C	1.048724	-1.086046	-0.336252
C182	C	1.298724	-0.836046	-0.086252
C183	C	1.548724	-0.586046	0.163748
C184	C	1.798724	-0.336046	0.413748
C185	C	0.955178	-1.085789	-0.422439
C186	C	1.205178	-0.835789	-0.172439
C187	C	1.455178	-0.585789	0.077561
C188	C	1.705178	-0.335789	0.327561
C189	C	0.955151	-1.020045	-0.422421
C190	C	1.205151	-0.770045	-0.172421
C191	C	1.455151	-0.520045	0.077579
C192	C	1.705151	-0.270045	0.327579
C193	C	1.001906	-0.987304	-0.379313
C194	C	1.251906	-0.737304	-0.129313
C195	C	1.501906	-0.487304	0.120687
C196	C	1.751906	-0.237304	0.370687
C197	C	1.185090	-0.359812	-0.386639
C198	C	1.435090	-0.109812	-0.136639
C199	C	1.685090	0.140188	0.113361
C200	C	1.935090	0.390188	0.363361
C201	C	1.263193	-0.362741	-0.389782
C202	C	1.513193	-0.112741	-0.139782
C203	C	1.763193	0.137259	0.110218
C204	C	2.013193	0.387259	0.360218
C205	C	0.994480	-0.359220	-0.562545
C206	C	1.244480	-0.109220	-0.312545
C207	C	1.494480	0.140780	-0.062545
C208	C	1.744480	0.390780	0.187455
C209	C	0.991356	-0.361897	-0.640648
C210	C	1.241356	-0.111897	-0.390648
C211	C	1.491356	0.138103	-0.140648
C212	C	1.741356	0.388103	0.109352
C213	C	1.001919	-0.188754	-0.379324
C214	C	1.251919	0.061246	-0.129324
C215	C	1.501919	0.311246	0.120676
C216	C	1.751919	0.561246	0.370676
C217	C	1.001966	-0.118788	-0.379349
C218	C	1.251966	0.131212	-0.129349
C219	C	1.501966	0.381212	0.120651
C220	C	1.751966	0.631212	0.370651
C221	C	1.034851	-0.324586	-0.679164
C222	C	1.284851	-0.074586	-0.429164
C223	C	1.534851	0.175414	-0.179164
C224	C	1.784851	0.425414	0.070836
C225	C	1.031907	-0.327098	-0.752550
C226	C	1.281907	-0.077098	-0.502550
C227	C	1.531907	0.172902	-0.252550
C228	C	1.781907	0.422902	-0.002550
C229	C	0.985472	-0.366925	-0.787418
C230	C	1.235472	-0.116925	-0.537418
C231	C	1.485472	0.133075	-0.287418
C232	C	1.735472	0.383075	-0.037418
C233	C	0.941972	-0.404238	-0.748896
C234	C	1.191972	-0.154238	-0.498896
C235	C	1.441972	0.095762	-0.248896
C236	C	1.691972	0.345762	0.001104
C237	C	0.944913	-0.401722	-0.675512
C238	C	1.194913	-0.151722	-0.425512
C239	C	1.444913	0.098278	-0.175512
C240	C	1.694913	0.348278	0.074488
C241	C	0.971853	-0.378584	-1.006698
C242	C	1.221853	-0.128584	-0.756698
C243	C	1.471853	0.121416	-0.506698
C244	C	1.721853	0.371416	-0.256698
C245	C	0.968917	-0.381099	-1.080087
C246	C	1.218917	-0.131099	-0.830087
C247	C	1.468917	0.118901	-0.580087
C248	C	1.718917	0.368901	-0.330087
C249	C	1.058852	-0.303958	-1.083736
C250	C	1.308852	-0.053958	-0.833736
C251	C	1.558852	0.196042	-0.583736
C252	C	1.808852	0.446042	-0.333736
C253	C	1.061791	-0.301448	-1.010350
C254	C	1.311791	-0.051448	-0.760350
C255	C	1.561791	0.198552	-0.510350
C256	C	1.811791	0.448552	-0.260350
C257	C	1.018289	-0.338758	-0.971835
C258	C	1.268289	-0.088758	-0.721835
C259	C	1.518289	0.161242	-0.471835
C260	C	1.768289	0.411242	-0.221835
N261	N	0.982464	-0.369496	-0.862429
N262	N	1.232464	-0.119496	-0.612429
N263	N	1.482464	0.130504	-0.362429
N264	N	1.732464	0.380504	-0.112429
N265	N	1.021294	-0.336183	-0.896824
N266	N	1.271294	-0.086183	-0.646824
N267	N	1.521294	0.163817	-0.396824
N268	N	1.771294	0.413817	-0.146824
C269	C	1.009152	-0.346637	-0.196700
C270	C	1.259152	-0.096637	0.053300
C271	C	1.509152	0.153363	0.303300
C272	C	1.759152	0.403363	0.553300
C273	C	1.012412	-0.343787	-0.118604
C274	C	1.262412	-0.093787	0.131396
C275	C	1.512412	0.156213	0.381396
C276	C	1.762412	0.406213	0.631396
H277	H	0.731044	-0.418867	-0.449897
H278	H	0.981044	-0.168867	-0.199897
H279	H	1.231044	0.081133	0.050103
H280	H	1.481044	0.331133	0.300103
H281	H	1.086649	-0.712061	-0.301075
H282	H	1.336649	-0.462061	-0.051075
H283	H	1.586649	-0.212061	0.198925
H284	H	1.836649	0.037939	0.448925
H285	H	0.936440	-0.408974	-0.975347
H286	H	1.186440	-0.158974	-0.725347
H287	H	1.436440	0.091026	-0.475347
H288	H	1.686440	0.341026	-0.225347
H289	H	0.737596	-0.266971	-0.287151
H290	H	0.987596	-0.016971	-0.037151
H291	H	1.237596	0.233029	0.212849
H292	H	1.487596	0.483029	0.462849
H293	H	0.399871	-0.443918	-0.476755
H294	H	0.649871	-0.193918	-0.226755
H295	H	0.899871	0.056082	0.023245
H296	H	1.149871	0.306082	0.273245
H297	H	1.086595	-0.592792	-0.301045
H298	H	1.336595	-0.342792	-0.051045
H299	H	1.586595	-0.092792	0.198955
H300	H	1.836595	0.157208	0.448955
O301	O	0.904740	-1.121098	-0.468920
O302	O	1.154740	-0.871098	-0.218920
O303	O	1.404740	-0.621098	0.031080
O304	O	1.654740	-0.371098	0.281080
H305	H	0.912613	-1.172357	-0.461688
H306	H	1.162613	-0.922357	-0.211688
H307	H	1.412613	-0.672357	0.038312
H308	H	1.662613	-0.422357	0.288312
O309	O	0.904680	-0.984450	-0.468874
O310	O	1.154680	-0.734450	-0.218874
O311	O	1.404680	-0.484450	0.031126
O312	O	1.654680	-0.234450	0.281126
H313	H	0.872162	-1.018264	-0.498837
H314	H	1.122162	-0.768264	-0.248837
H315	H	1.372162	-0.518264	0.001163
H316	H	1.622162	-0.268264	0.251163
H317	H	0.904161	-0.436664	-0.777291
H318	H	1.154161	-0.186664	-0.527291
H319	H	1.404161	0.063336	-0.277291
H320	H	1.654161	0.313336	-0.027291
H321	H	0.909487	-0.432098	-0.644152
H322	H	1.159487	-0.182098	-0.394152
H323	H	1.409487	0.067902	-0.144152
H324	H	1.659487	0.317902	0.105848
O325	O	1.084935	-0.281629	-0.641557
O326	O	1.334935	-0.031629	-0.391557
O327	O	1.584935	0.218371	-0.141557
O328	O	1.834935	0.468371	0.108443
H329	H	1.114680	-0.256102	-0.680672
H330	H	1.364680	-0.006102	-0.430672
H331	H	1.614680	0.243898	-0.180672
H332	H	1.864680	0.493898	0.069328
O333	O	1.099186	-1.121638	-0.289785
O334	O	1.349186	-0.871638	-0.039785
O335	O	1.599186	-0.621638	0.210215
O336	O	1.849186	-0.371638	0.460215
H337	H	1.069208	-1.149237	-0.252759
H338	H	1.319208	-0.899237	-0.002759
H339	H	1.569208	-0.649237	0.247241
H340	H	1.819208	-0.399237	0.497241
O341	O	1.078823	-0.286860	-0.794095
O342	O	1.328823	-0.036860	-0.544095
O343	O	1.578823	0.213140	-0.294095
O344	O	1.828823	0.463140	-0.044095
H345	H	1.111614	-0.258750	-0.757521
H346	H	1.361614	-0.008750	-0.507521
H347	H	1.611614	0.241250	-0.257521
H348	H	1.861614	0.491250	-0.007521
H349	H	0.931101	-0.413532	-1.108474
H350	H	1.181101	-0.163532	-0.858474
H351	H	1.431101	0.086468	-0.608474
H352	H	1.681101	0.336468	-0.358474
O353	O	0.904573	-0.720251	-0.468828
O354	O	1.154573	-0.470251	-0.218828
O355	O	1.404573	-0.220251	0.031172
O356	O	1.654573	0.029749	0.281172
H357	H	0.912443	-0.771509	-0.461591
H358	H	1.162443	-0.521509	-0.211591
H359	H	1.412443	-0.271509	0.038409
H360	H	1.662443	-0.021509	0.288409
H361	H	0.597915	-0.413886	-0.444573
H362	H	0.847915	-0.163886	-0.194573
H363	H	1.097915	0.086114	0.055427
H364	H	1.347915	0.336114	0.305427
H365	H	1.099606	-0.269018	-0.981966
H366	H	1.349606	-0.019018	-0.731966
H367	H	1.599606	0.230982	-0.481966
H368	H	1.849606	0.480982	-0.231966
O369	O	0.904521	-0.583601	-0.468799
O370	O	1.154521	-0.333601	-0.218799
O371	O	1.404521	-0.083601	0.031201
O372	O	1.654521	0.166399	0.281201
H373	H	0.872006	-0.617414	-0.498765
H374	H	1.122006	-0.367414	-0.248765
H375	H	1.372006	-0.117414	0.001235
H376	H	1.622006	0.132586	0.251235
O377	O	1.105767	-0.263710	-1.125270
O378	O	1.355767	-0.013710	-0.875270
O379	O	1.605767	0.236290	-0.625270
O380	O	1.855767	0.486290	-0.375270
H381	H	1.094311	-0.213375	-1.110705
H382	H	1.344311	0.036625	-0.860705
H383	H	1.594311	0.286625	-0.610705
H384	H	1.844311	0.536625	-0.360705
H385	H	0.266732	-0.438939	-0.471428
H386	H	0.516732	-0.188939	-0.221428
H387	H	0.766732	0.061061	0.028572
H388	H	1.016732	0.311061	0.278572
H389	H	0.604455	-0.261999	-0.281825
H390	H	0.854455	-0.011999	-0.031825
H391	H	1.104455	0.238001	0.218175
H392	H	1.354455	0.488001	0.468175
O393	O	1.099127	-0.984975	-0.289756
O394	O	1.349127	-0.734975	-0.039756
O395	O	1.599127	-0.484975	0.210244
O396	O	1.849127	-0.234975	0.460244
H397	H	1.089347	-0.995284	-0.234113
H398	H	1.339347	-0.745284	0.015887
H399	H	1.589347	-0.495284	0.265887
H400	H	1.839347	-0.245284	0.515887
O401	O	0.264054	-0.275624	-0.296439
O402	O	0.514054	-0.025624	-0.046439
O403	O	0.764054	0.224376	0.203561
O404	O	1.014054	0.474376	0.453561
H405	H	0.303150	-0.247923	-0.266770
H406	H	0.553150	0.002077	-0.016770
H407	H	0.803150	0.252077	0.233230
H408	H	1.053150	0.502077	0.483230
O409	O	0.416597	-0.281342	-0.302521
O410	O	0.666597	-0.031342	-0.052521
O411	O	0.916597	0.218658	0.197479
O412	O	1.166597	0.468658	0.447479
H413	H	0.380006	-0.250834	-0.269807
H414	H	0.630006	-0.000834	-0.019807
H415	H	0.880006	0.249166	0.230193
H416	H	1.130006	0.499166	0.480193
