data_functionalizedCrystal
_audit_creation_method	'MofGen! by Chris Wilmer'
_symmetry_space_group_name_H-M	'P1'
_symmetry_Int_Tables_number	1
_symmetry_cell_setting	triclinic
loop_
_symmetry_equiv_pos_as_xyz
  x,y,z
_cell_length_a	18.101395
_cell_length_b	16.625547
_cell_length_c	16.625539
_cell_angle_alpha	90.027058
_cell_angle_beta	89.972352
_cell_angle_gamma	89.969710
loop_
_atom_site_label
_atom_site_type_symbol
_atom_site_fract_x
_atom_site_fract_y
_atom_site_fract_z
Zn1	Zn	-0.294844	-1.232632	-0.456053
Zn2	Zn	-0.418693	-1.232515	-0.321221
Zn3	Zn	-0.294868	-1.097794	-0.321218
Zn4	Zn	-0.418647	-1.097744	-0.455996
O5	O	-0.356763	-1.165171	-0.388622
O6	O	-0.311283	-1.345449	-0.438192
O7	O	-0.402297	-1.214616	-0.208388
O8	O	-0.191232	-1.115750	-0.339126
O9	O	-0.402274	-1.345363	-0.339132
O10	O	-0.191215	-1.214815	-0.438189
O11	O	-0.311324	-1.115637	-0.208386
O12	O	-0.311279	-0.984955	-0.339071
O13	O	-0.402195	-1.115665	-0.568836
O14	O	-0.402218	-0.984918	-0.438092
O15	O	-0.311237	-1.214767	-0.568878
O16	O	-0.522320	-1.214567	-0.339077
O17	O	-0.522286	-1.115552	-0.438096
C18	C	-0.356746	-0.955680	-0.388576
C19	C	-0.356757	-0.866059	-0.388575
C20	C	-0.356757	-0.793277	-0.388582
C21	C	-0.356760	-0.701968	-0.388599
C22	C	-0.356766	-0.629192	-0.388616
C23	C	-0.356770	-0.537878	-0.388632
C24	C	-0.549174	-1.165063	-0.388598
C25	C	-0.631488	-1.165091	-0.388615
C26	C	-0.930579	-1.165268	-0.388659
C27	C	-0.899263	-1.103114	-0.451113
C28	C	-0.813645	-1.102819	-0.450917
C29	C	-0.782196	-1.165180	-0.388638
C30	C	-0.813348	-1.142173	-0.303657
C31	C	-0.898993	-1.141772	-0.304031
C32	C	-0.898923	-1.250565	-0.410437
C33	C	-0.813272	-1.250063	-0.412300
C34	C	-0.698337	-1.165132	-0.388621
C35	C	-1.014438	-1.165314	-0.388670
C36	C	-0.163601	-1.165302	-0.388663
C37	C	-0.081287	-1.165357	-0.388681
C38	C	-0.356708	-1.165224	-0.598931
C39	C	-0.356685	-1.165246	-0.688552
C40	C	-0.356778	-0.375480	-0.388659
C41	C	-0.356776	-0.465101	-0.388650
C42	C	-0.356602	-1.165283	-1.016728
C43	C	-0.356627	-1.165271	-0.925419
C44	C	-0.356644	-1.165265	-0.852643
C45	C	-0.356668	-1.165252	-0.761329
C46	C	-0.356765	-1.165165	-0.179131
C47	C	-0.356580	-1.165299	-0.089510
H48	H	-0.792581	-1.117214	-0.513929
Cl49	Cl	-0.932605	-1.006097	-0.429138
H50	H	-0.791861	-1.298821	-0.370128
H51	H	-0.791962	-1.080482	-0.284879
Cl52	Cl	-0.782106	-1.005205	-0.428647
Cl53	Cl	-0.929940	-1.045507	-0.275551
Cl54	Cl	-0.930989	-1.125112	-0.548717
H55	H	-0.919174	-1.296871	-0.364949
Cl56	Cl	-0.930984	-1.208623	-0.229731
Cl57	Cl	-0.932190	-1.282949	-0.504482
H58	H	-0.792909	-1.267413	-0.474841
Cl59	Cl	-0.781901	-1.209864	-0.229850
