data_functionalizedCrystal
_audit_creation_method	'MofGen! by Chris Wilmer'
_symmetry_space_group_name_H-M	'P1'
_symmetry_Int_Tables_number	1
_symmetry_cell_setting	triclinic
loop_
_symmetry_equiv_pos_as_xyz
  x,y,z
_cell_length_a	8.597187
_cell_length_b	8.634740
_cell_length_c	7.681481
_cell_angle_alpha	96.633200
_cell_angle_beta	91.833072
_cell_angle_gamma	92.880146
loop_
_atom_site_label
_atom_site_type_symbol
_atom_site_fract_x
_atom_site_fract_y
_atom_site_fract_z
O1	O	2.077453	0.276122	0.461593
O2	O	1.629067	0.287121	0.393571
O3	O	1.832036	0.056504	0.424358
O4	O	1.874485	0.506739	0.430806
O5	O	1.857008	0.028053	0.135288
O6	O	1.654040	0.258670	0.104501
O7	O	2.102425	0.247670	0.172523
Zn8	Zn	1.882197	0.248653	0.092616
Zn9	Zn	1.849295	0.286139	0.473478
O10	O	1.899457	0.478288	0.141737
C11	C	1.583554	0.270129	0.240238
C12	C	1.410732	0.261866	0.214020
C13	C	1.834905	-0.015462	0.278367
C14	C	1.806232	-0.187511	0.274025
C15	C	2.147938	0.264663	0.325861
C16	C	2.320760	0.272927	0.352090
C17	C	1.896587	0.550254	0.287731
C18	C	1.925260	0.722304	0.292085
N19	N	1.904663	0.223069	-0.167310
N20	N	1.826840	0.311711	0.733407
H21	H	1.355545	0.246092	0.075765
H22	H	2.049095	-0.223279	0.310932
N23	N	1.393856	0.293815	0.535240
H24	H	1.309264	0.300021	0.623651
H25	H	1.462366	0.393283	0.552497
N26	N	1.721605	0.431561	-0.182964
H27	H	1.724148	0.428647	-0.051842
H28	H	1.611492	0.407332	-0.231823
H29	H	1.682381	-0.241928	0.255248
H30	H	1.984124	0.132598	-0.230463
