data_functionalizedCrystal
_audit_creation_method	'MofGen! by Chris Wilmer'
_symmetry_space_group_name_H-M	'P1'
_symmetry_Int_Tables_number	1
_symmetry_cell_setting	triclinic
loop_
_symmetry_equiv_pos_as_xyz
  x,y,z
_cell_length_a	16.625548
_cell_length_b	21.295417
_cell_length_c	21.295411
_cell_angle_alpha	89.978356
_cell_angle_beta	89.975478
_cell_angle_gamma	90.031575
loop_
_atom_site_label
_atom_site_type_symbol
_atom_site_fract_x
_atom_site_fract_y
_atom_site_fract_z
Zn1	Zn	1.232667	-0.250663	-0.355911
Zn2	Zn	1.566000	0.082670	-0.022577
Zn3	Zn	1.899333	0.416004	0.310756
Zn4	Zn	1.232542	-0.355915	-0.250636
Zn5	Zn	1.565875	-0.022581	0.082697
Zn6	Zn	1.899208	0.310752	0.416031
Zn7	Zn	1.097819	-0.250665	-0.250656
Zn8	Zn	1.431153	0.082668	0.082677
Zn9	Zn	1.764486	0.416001	0.416011
Zn10	Zn	1.097780	-0.355900	-0.355868
Zn11	Zn	1.431113	-0.022567	-0.022535
Zn12	Zn	1.764447	0.310766	0.310799
O13	O	1.165202	-0.303286	-0.303268
O14	O	1.498535	0.030047	0.030066
O15	O	1.831869	0.363381	0.363399
O16	O	1.345483	-0.264630	-0.341956
O17	O	1.678816	0.068703	-0.008622
O18	O	2.012149	0.402037	0.324711
O19	O	1.214635	-0.341960	-0.162549
O20	O	1.547968	-0.008627	0.170784
O21	O	1.881301	0.324706	0.504117
O22	O	1.115776	-0.162576	-0.264644
O23	O	1.449109	0.170758	0.068689
O24	O	1.782443	0.504091	0.402022
O25	O	1.345391	-0.341958	-0.264611
O26	O	1.678724	-0.008625	0.068723
O27	O	2.012057	0.324709	0.402056
O28	O	1.214848	-0.162574	-0.341975
O29	O	1.548181	0.170759	-0.008641
O30	O	1.881514	0.504093	0.324692
O31	O	1.115655	-0.264634	-0.162564
O32	O	1.448988	0.068699	0.170769
O33	O	1.782321	0.402033	0.504103
O34	O	0.984982	-0.264620	-0.264603
O35	O	1.318315	0.068713	0.068731
O36	O	1.651648	0.402047	0.402064
O37	O	1.115709	-0.341933	-0.443963
O38	O	1.449042	-0.008600	-0.110630
O39	O	1.782376	0.324734	0.222704
O40	O	0.984953	-0.341936	-0.341902
O41	O	1.318286	-0.008602	-0.008568
O42	O	1.651620	0.324731	0.324765
O43	O	1.214810	-0.264616	-0.443995
O44	O	1.548143	0.068718	-0.110661
O45	O	1.881476	0.402051	0.222672
O46	O	1.214597	-0.444002	-0.264569
O47	O	1.547930	-0.110669	0.068764
O48	O	1.881263	0.222664	0.402097
O49	O	1.115588	-0.443992	-0.341883
O50	O	1.448921	-0.110658	-0.008549
O51	O	1.782255	0.222675	0.324784
C52	C	0.955711	-0.303277	-0.303250
C53	C	1.289045	0.030056	0.030083
C54	C	1.622378	0.363390	0.363417
C55	C	0.866090	-0.303288	-0.303257
C56	C	1.199423	0.030045	0.030076
C57	C	1.532757	0.363378	0.363409
C58	C	0.537914	-0.303292	-0.303284
C59	C	0.871248	0.030041	0.030049
C60	C	1.204581	0.363374	0.363382
C61	C	0.629223	-0.303289	-0.303275
C62	C	0.962556	0.030044	0.030058
C63	C	1.295890	0.363377	0.363392
C64	C	0.701999	-0.303291	-0.303270
C65	C	1.035333	0.030043	0.030063
C66	C	1.368666	0.363376	0.363396
C67	C	0.793314	-0.303287	-0.303262
C68	C	1.126647	0.030046	0.030071
C69	C	1.459980	0.363380	0.363405
C70	C	1.165096	-0.466838	-0.303233
C71	C	1.498430	-0.133504	0.030100
C72	C	1.831763	0.199829	0.363434
C73	C	1.165125	-0.536806	-0.303239
C74	C	1.498458	-0.203472	0.030094
C75	C	1.831792	0.129861	0.363428
C76	C	1.216725	-0.569657	-0.263023
C77	C	1.550058	-0.236324	0.070310
C78	C	1.883391	0.097010	0.403644
C79	C	1.216762	-0.635399	-0.263037
C80	C	1.550096	-0.302066	0.070296
C81	C	1.883429	0.031267	0.403629
C82	C	1.165186	-0.668288	-0.303261
C83	C	1.498519	-0.334955	0.030073
C84	C	1.831853	-0.001621	0.363406
C85	C	1.113583	-0.635429	-0.343484
C86	C	1.446916	-0.302095	-0.010151
C87	C	1.780249	0.031238	0.323182
C88	C	1.113552	-0.569688	-0.343473
C89	C	1.446885	-0.236354	-0.010140
C90	C	1.780219	0.096979	0.323193
N91	N	1.094652	-0.771556	-0.308054
N92	N	1.427985	-0.438222	0.025280
N93	N	1.761318	-0.104889	0.358613
N94	N	1.094683	-0.834007	-0.308060
N95	N	1.428016	-0.500674	0.025273
N96	N	1.761350	-0.167341	0.358606
C97	C	1.165276	-0.866363	-0.303297
C98	C	1.498610	-0.533029	0.030037
C99	C	1.831943	-0.199696	0.363370
N100	N	1.235839	-0.833908	-0.298514
N101	N	1.569172	-0.500574	0.034819
N102	N	1.902506	-0.167241	0.368153
N103	N	1.235807	-0.771451	-0.298504
N104	N	1.569140	-0.438117	0.034829
N105	N	1.902473	-0.104784	0.368163
C106	C	1.165214	-0.739573	-0.303277
C107	C	1.498547	-0.406240	0.030056
C108	C	1.831881	-0.072907	0.363389
C109	C	1.216921	-0.970500	-0.263094
C110	C	1.550255	-0.637166	0.070239
C111	C	1.883588	-0.303833	0.403572
C112	C	1.216961	-1.036243	-0.263113
C113	C	1.550294	-0.702910	0.070221
C114	C	1.883627	-0.369577	0.403554
C115	C	1.113774	-1.036271	-0.343556
C116	C	1.447107	-0.702938	-0.010223
C117	C	1.780440	-0.369605	0.323110
C118	C	1.113742	-0.970529	-0.343541
C119	C	1.447075	-0.637196	-0.010208
C120	C	1.780408	-0.303862	0.323126
C121	C	1.165315	-0.937647	-0.303307
C122	C	1.498648	-0.604314	0.030027
C123	C	1.831981	-0.270980	0.363360
C124	C	1.375511	-0.303295	-0.303286
C125	C	1.708844	0.030038	0.030048
C126	C	2.042178	0.363371	0.363381
C127	C	1.465132	-0.303299	-0.303293
C128	C	1.798465	0.030034	0.030040
C129	C	2.131799	0.363367	0.363373
C130	C	1.165269	-0.303273	-0.467458
C131	C	1.498602	0.030061	-0.134125
C132	C	1.831936	0.363394	0.199209
C133	C	1.165297	-0.303267	-0.537426
C134	C	1.498631	0.030066	-0.204093
C135	C	1.831964	0.363400	0.129241
C136	C	1.165330	-0.139096	-0.303316
C137	C	1.498663	0.194238	0.030017
C138	C	1.831997	0.527571	0.363350
C139	C	1.165385	-0.069127	-0.303337
C140	C	1.498718	0.264206	0.029996
C141	C	1.832051	0.597539	0.363329
C142	C	1.216897	-0.263006	-0.570310
C143	C	1.550230	0.070327	-0.236977
C144	C	1.883564	0.403661	0.096356
C145	C	1.216896	-0.262979	-0.636053
C146	C	1.550229	0.070355	-0.302719
C147	C	1.883563	0.403688	0.030614
C148	C	1.165304	-0.303224	-0.668909
C149	C	1.498637	0.030110	-0.335575
C150	C	1.831970	0.363443	-0.002242
C151	C	1.113694	-0.343487	-0.636017
C152	C	1.447028	-0.010154	-0.302683
C153	C	1.780361	0.323179	0.030650
C154	C	1.113691	-0.343509	-0.570275
C155	C	1.447024	-0.010176	-0.236942
C156	C	1.780358	0.323158	0.096391
N157	N	1.159083	-0.358291	-0.772124
N158	N	1.492416	-0.024958	-0.438791
N159	N	1.825750	0.308375	-0.105457
N160	N	1.159091	-0.358269	-0.834576
N161	N	1.492424	-0.024936	-0.501242
N162	N	1.825757	0.308398	-0.167909
C163	C	1.165309	-0.303160	-0.866984
C164	C	1.498642	0.030174	-0.533650
C165	C	1.831975	0.363507	-0.200317
N166	N	1.171535	-0.248072	-0.834581
N167	N	1.504868	0.085261	-0.501247
N168	N	1.838202	0.418594	-0.167914
N169	N	1.171531	-0.248096	-0.772124
N170	N	1.504865	0.085238	-0.438790
N171	N	1.838198	0.418571	-0.105457
C172	C	1.165301	-0.303204	-0.740194
C173	C	1.498634	0.030129	-0.406861
C174	C	1.831968	0.363462	-0.073527
C175	C	1.216910	-0.262866	-0.971153
C176	C	1.550243	0.070468	-0.637820
C177	C	1.883577	0.403801	-0.304487
C178	C	1.216903	-0.262837	-1.036897
C179	C	1.550236	0.070496	-0.703564
C180	C	1.883570	0.403829	-0.370230
C181	C	1.113706	-0.343352	-1.036860
C182	C	1.447039	-0.010018	-0.703526
C183	C	1.780372	0.323315	-0.370193
C184	C	1.113708	-0.343374	-0.971117
C185	C	1.447042	-0.010041	-0.637784
C186	C	1.780375	0.323292	-0.304451
C187	C	1.165315	-0.303132	-0.938268
C188	C	1.498648	0.030201	-0.604935
C189	C	1.831981	0.363534	-0.271601
C190	C	1.165182	-0.303254	-0.139716
C191	C	1.498515	0.030080	0.193617
C192	C	1.831848	0.363413	0.526951
C193	C	1.165310	-0.303082	-0.069748
C194	C	1.498643	0.030251	0.263585
C195	C	1.831976	0.363585	0.596918
H196	H	1.258720	-0.542886	-0.230263
H197	H	1.592053	-0.209553	0.103070
H198	H	1.925387	0.123780	0.436403
Br199	Br	1.286909	-0.208319	-0.680691
Br200	Br	1.620242	0.125014	-0.347358
Br201	Br	1.953575	0.458347	-0.014025
H202	H	1.258926	-0.230095	-0.944406
H203	H	1.592260	0.103239	-0.611073
H204	H	1.925593	0.436572	-0.277739
Br205	Br	1.043592	-0.680061	-0.398079
Br206	Br	1.376925	-0.346728	-0.064745
Br207	Br	1.710259	-0.013395	0.268588
Br208	Br	1.043676	-0.397963	-1.081443
Br209	Br	1.377009	-0.064630	-0.748109
Br210	Br	1.710343	0.268704	-0.414776
Br211	Br	1.286930	-0.208390	-0.525732
Br212	Br	1.620264	0.124944	-0.192398
Br213	Br	1.953597	0.458277	0.140935
H214	H	1.258920	-0.230048	-1.063670
H215	H	1.592254	0.103285	-0.730337
H216	H	1.925587	0.436618	-0.397003
Br217	Br	1.286908	-0.925870	-0.208490
Br218	Br	1.620242	-0.592537	0.124844
Br219	Br	1.953575	-0.259204	0.458177
H220	H	1.258784	-0.662152	-0.230289
H221	H	1.592117	-0.328819	0.103044
H222	H	1.925451	0.004514	0.436378
Br223	Br	1.043519	-0.525100	-0.398057
Br224	Br	1.376853	-0.191767	-0.064724
Br225	Br	1.710186	0.141566	0.268609
Br226	Br	1.043678	-0.398019	-0.926485
Br227	Br	1.377011	-0.064685	-0.593152
Br228	Br	1.710344	0.268648	-0.259819
Br229	Br	1.043670	-0.398102	-0.680605
Br230	Br	1.377003	-0.064768	-0.347272
Br231	Br	1.710337	0.268565	-0.013938
H232	H	1.071783	-1.063049	-0.376310
H233	H	1.405116	-0.729715	-0.042977
H234	H	1.738450	-0.396382	0.290357
Br235	Br	1.287004	-1.080829	-0.208536
Br236	Br	1.620337	-0.747496	0.124798
Br237	Br	1.953670	-0.414162	0.458131
H238	H	1.071721	-0.943780	-0.376286
H239	H	1.405054	-0.610446	-0.042953
H240	H	1.738388	-0.277113	0.290381
H241	H	1.071669	-0.376293	-0.543502
H242	H	1.405002	-0.042960	-0.210168
H243	H	1.738336	0.290373	0.123165
