data_functionalizedCrystal
_audit_creation_method	'MofGen! by Chris Wilmer'
_symmetry_space_group_name_H-M	'P1'
_symmetry_Int_Tables_number	1
_symmetry_cell_setting	triclinic
loop_
_symmetry_equiv_pos_as_xyz
  x,y,z
_cell_length_a	16.625548
_cell_length_b	19.805405
_cell_length_c	19.805399
_cell_angle_alpha	90.029301
_cell_angle_beta	90.020385
_cell_angle_gamma	90.026269
loop_
_atom_site_label
_atom_site_type_symbol
_atom_site_fract_x
_atom_site_fract_y
_atom_site_fract_z
Zn1	Zn	-1.232643	0.269481	-0.382726
Zn2	Zn	-0.732643	0.769481	0.117274
Zn3	Zn	-1.232541	0.382670	-0.269535
Zn4	Zn	-0.732541	0.882670	0.230465
Zn5	Zn	-1.097809	0.269500	-0.269549
Zn6	Zn	-0.597809	0.769500	0.230451
Zn7	Zn	-1.097766	0.382634	-0.382680
Zn8	Zn	-0.597766	0.882634	0.117320
O9	O	-1.165190	0.326071	-0.326122
O10	O	-0.665190	0.826071	0.173878
O11	O	-1.345462	0.284504	-0.367724
O12	O	-0.845462	0.784504	0.132276
O13	O	-1.214645	0.367680	-0.174820
O14	O	-0.714645	0.867680	0.325180
O15	O	-1.115756	0.174781	-0.284588
O16	O	-0.615756	0.674781	0.215412
O17	O	-1.345387	0.367663	-0.284563
O18	O	-0.845387	0.867663	0.215437
O19	O	-1.214817	0.174767	-0.367739
O20	O	-0.714817	0.674767	0.132261
O21	O	-1.115657	0.284535	-0.174831
O22	O	-0.615657	0.784535	0.325169
O23	O	-0.984971	0.284500	-0.284543
O24	O	-0.484971	0.784500	0.215457
O25	O	-1.115682	0.367601	-0.477402
O26	O	-0.615682	0.867601	0.022598
O27	O	-0.984939	0.367619	-0.367659
O28	O	-0.484939	0.867619	0.132341
O29	O	-1.214775	0.284468	-0.477437
O30	O	-0.714775	0.784468	0.022563
O31	O	-1.214602	0.477382	-0.284518
O32	O	-0.714602	0.977382	0.215482
O33	O	-1.115583	0.477355	-0.367645
O34	O	-0.615583	0.977355	0.132355
C35	C	-0.955699	0.326058	-0.326098
C36	C	-0.455699	0.826058	0.173902
C37	C	-0.866078	0.326068	-0.326104
C38	C	-0.366078	0.826068	0.173896
C39	C	-1.165099	0.501927	-0.326090
C40	C	-0.665099	1.001927	0.173910
C41	C	-1.165134	0.577159	-0.326098
C42	C	-0.665134	1.077159	0.173902
C43	C	-1.165235	0.326029	-0.502665
C44	C	-0.665235	0.826029	-0.002665
C45	C	-1.165254	0.326010	-0.577897
C46	C	-0.665254	0.826010	-0.077897
C47	C	-0.537902	0.326067	-0.326124
C48	C	-0.037902	0.826067	0.173876
C49	C	-0.629211	0.326065	-0.326116
C50	C	-0.129211	0.826065	0.173884
C51	C	-0.701987	0.326068	-0.326113
C52	C	-0.201987	0.826068	0.173887
C53	C	-0.793301	0.326066	-0.326107
C54	C	-0.293301	0.826066	0.173893
C55	C	-0.375499	0.326081	-0.326141
C56	C	0.124501	0.826081	0.173859
C57	C	-0.465120	0.326073	-0.326132
C58	C	0.034880	0.826073	0.173868
C59	C	-1.165303	0.149528	-0.326170
C60	C	-0.665303	0.649528	0.173830
C61	C	-1.165351	0.074296	-0.326190
C62	C	-0.665351	0.574296	0.173810
C63	C	-1.216743	0.612495	-0.282859
C64	C	-0.716743	1.112495	0.217141
C65	C	-1.216778	0.683183	-0.282874
C66	C	-0.716778	1.183183	0.217126
C67	C	-1.165198	0.718535	-0.326125
C68	C	-0.665198	1.218535	0.173875
C69	C	-1.113586	0.683194	-0.369369
C70	C	-0.613586	1.183194	0.130631
C71	C	-1.113557	0.612507	-0.369357
C72	C	-0.613557	1.112507	0.130643
C73	C	-1.113705	0.968267	-0.369419
C74	C	-0.613705	1.468267	0.130581
C75	C	-1.113737	1.038960	-0.369427
C76	C	-0.613737	1.538960	0.130573
C77	C	-1.216926	1.038943	-0.282936
C78	C	-0.716926	1.538943	0.217064
C79	C	-1.216896	0.968256	-0.282924
C80	C	-0.716896	1.468256	0.217076
C81	C	-1.165288	0.932922	-0.326170
C82	C	-0.665288	1.432922	0.173830
C83	C	-1.165253	0.856274	-0.326155
C84	C	-0.665253	1.356274	0.173845
C85	C	-1.165229	0.795182	-0.326138
C86	C	-0.665229	1.295182	0.173862
C87	C	-1.216853	0.282721	-0.613260
C88	C	-0.716853	0.782721	-0.113260
C89	C	-1.216862	0.282702	-0.683949
C90	C	-0.716862	0.782702	-0.183949
C91	C	-1.165274	0.325975	-0.719273
C92	C	-0.665274	0.825975	-0.219273
C93	C	-1.113669	0.369266	-0.683905
C94	C	-0.613669	0.869266	-0.183905
C95	C	-1.113658	0.369282	-0.613218
C96	C	-0.613658	0.869282	-0.113218
C97	C	-1.113715	0.369203	-0.968978
C98	C	-0.613715	0.869203	-0.468978
C99	C	-1.113732	0.369185	-1.039671
C100	C	-0.613732	0.869185	-0.539671
C101	C	-1.216919	0.282623	-1.039709
C102	C	-0.716919	0.782623	-0.539709
C103	C	-1.216907	0.282638	-0.969022
C104	C	-0.716907	0.782638	-0.469022
C105	C	-1.165300	0.325927	-0.933660
C106	C	-0.665300	0.825927	-0.433660
C107	C	-1.165290	0.325947	-0.857012
C108	C	-0.665290	0.825947	-0.357012
C109	C	-1.165287	0.325959	-0.795920
C110	C	-0.665287	0.825959	-0.295920
C111	C	-1.165191	0.326065	-0.150266
C112	C	-0.665191	0.826065	0.349734
C113	C	-1.165328	0.325892	-0.075035
C114	C	-0.665328	0.825892	0.424965
H115	H	-1.258742	0.583716	-0.247636
H116	H	-0.758742	1.083716	0.252364
O117	O	-1.266930	0.240492	-1.074091
O118	O	-0.766930	0.740492	-0.574091
C119	C	-1.221062	0.196771	-1.114993
C120	C	-0.721062	0.696771	-0.614993
H121	H	-1.157557	0.192590	-1.093681
H122	H	-0.657557	0.692590	-0.593681
H123	H	-1.250260	0.144684	-1.115811
H124	H	-0.750260	0.644684	-0.615811
H125	H	-1.218281	0.217682	-1.168561
H126	H	-0.718281	0.717682	-0.668561
O127	O	-1.267093	0.240694	-0.934674
O128	O	-0.767093	0.740694	-0.434674
C129	C	-1.319127	0.279231	-0.893763
C130	C	-0.819127	0.779231	-0.393763
H131	H	-1.324098	0.332534	-0.915050
H132	H	-0.824098	0.832534	-0.415050
H133	H	-1.381187	0.254742	-0.892967
H134	H	-0.881187	0.754742	-0.392967
H135	H	-1.294174	0.281579	-0.840189
H136	H	-0.794174	0.781579	-0.340189
O137	O	-1.063603	0.934027	-0.411513
O138	O	-0.563603	1.434027	0.088487
C139	C	-1.081188	0.951233	-0.478991
C140	C	-0.581188	1.451233	0.021009
H141	H	-1.112213	1.002531	-0.480427
H142	H	-0.612213	1.502531	0.019573
H143	H	-1.022970	0.953681	-0.509288
H144	H	-0.522970	1.453681	-0.009288
H145	H	-1.122598	0.911403	-0.501824
H146	H	-0.622598	1.411403	-0.001824
O147	O	-1.063663	0.411346	-0.934671
O148	O	-0.563663	0.911346	-0.434671
C149	C	-1.081218	0.478805	-0.951940
C150	C	-0.581218	0.978805	-0.451940
H151	H	-1.145640	0.482233	-0.971366
H152	H	-0.645640	0.982233	-0.471366
H153	H	-1.074217	0.512255	-0.905447
H154	H	-0.574217	1.012255	-0.405447
H155	H	-1.037995	0.496474	-0.992971
H156	H	-0.537995	0.996474	-0.492971
O157	O	-1.063594	0.717608	-0.411417
O158	O	-0.563594	1.217608	0.088583
C159	C	-1.109486	0.758425	-0.455187
C160	C	-0.609486	1.258425	0.044813
H161	H	-1.170612	0.768989	-0.431365
H162	H	-0.670612	1.268989	0.068635
H163	H	-1.076657	0.808148	-0.464238
H164	H	-0.576657	1.308148	0.035762
H165	H	-1.118298	0.731144	-0.505349
H166	H	-0.618298	1.231144	-0.005349
H167	H	-1.071663	0.404498	-0.712671
H168	H	-0.571663	0.904498	-0.212671
H169	H	-1.258865	0.247485	-0.584504
H170	H	-0.758865	0.747485	-0.084504
H171	H	-1.071720	0.404425	-1.068429
H172	H	-0.571720	0.904425	-0.568429
O173	O	-1.266886	0.933887	-0.240838
O174	O	-0.766886	1.433887	0.259162
C175	C	-1.220997	0.893046	-0.197089
C176	C	-0.720997	1.393046	0.302911
H177	H	-1.157504	0.914394	-0.192859
H178	H	-0.657504	1.414394	0.307141
H179	H	-1.250198	0.892259	-0.145024
H180	H	-0.750198	1.392259	0.354976
H181	H	-1.218181	0.839462	-0.218006
H182	H	-0.718181	1.339462	0.281994
O183	O	-1.063519	0.411406	-0.578968
O184	O	-0.563519	0.911406	-0.078968
C185	C	-1.017979	0.449590	-0.625302
C186	C	-0.517979	0.949590	-0.125302
H187	H	-1.051008	0.451916	-0.675698
H188	H	-0.551008	0.951916	-0.175698
H189	H	-1.009353	0.502924	-0.604864
H190	H	-0.509353	1.002924	-0.104864
H191	H	-0.956753	0.424806	-0.632811
H192	H	-0.456753	0.924806	-0.132811
H193	H	-1.258802	0.711950	-0.247664
H194	H	-0.758802	1.211950	0.252336
H195	H	-1.258951	1.067721	-0.247726
H196	H	-0.758951	1.567721	0.252274
O197	O	-1.063661	1.073406	-0.411384
O198	O	-0.563661	1.573406	0.088616
C199	C	-1.074769	1.143373	-0.402130
C200	C	-0.574769	1.643373	0.097870
H201	H	-1.101210	1.153040	-0.349914
H202	H	-0.601210	1.653040	0.150086
H203	H	-1.014384	1.170278	-0.406682
H204	H	-0.514384	1.670278	0.093318
H205	H	-1.117695	1.163377	-0.442309
H206	H	-0.617695	1.663377	0.057691
O207	O	-1.063350	0.578285	-0.411383
O208	O	-0.563350	1.078285	0.088617
C209	C	-1.017846	0.624643	-0.449574
C210	C	-0.517846	1.124643	0.050426
H211	H	-1.015087	0.675050	-0.421855
H212	H	-0.515087	1.175050	0.078145
H213	H	-0.954306	0.604254	-0.456748
H214	H	-0.454306	1.104254	0.043252
H215	H	-1.047346	0.632109	-0.501001
H216	H	-0.547346	1.132109	-0.001001
O217	O	-1.267065	0.240632	-0.718196
O218	O	-0.767065	0.740632	-0.218196
C219	C	-1.312584	0.202433	-0.671860
C220	C	-0.812584	0.702433	-0.171860
H221	H	-1.315347	0.230170	-0.621465
H222	H	-0.815347	0.730170	-0.121465
H223	H	-1.376121	0.195217	-0.692297
H224	H	-0.876121	0.695217	-0.192297
H225	H	-1.283095	0.151025	-0.664350
H226	H	-0.783095	0.651025	-0.164350
