data_functionalizedCrystal
_audit_creation_method	'MofGen! by Chris Wilmer'
_symmetry_space_group_name_H-M	'P1'
_symmetry_Int_Tables_number	1
_symmetry_cell_setting	triclinic
loop_
_symmetry_equiv_pos_as_xyz
  x,y,z
_cell_length_a	6.817900
_cell_length_b	12.200863
_cell_length_c	14.858572
_cell_angle_alpha	93.921758
_cell_angle_beta	104.524003
_cell_angle_gamma	107.143441
loop_
_atom_site_label
_atom_site_type_symbol
_atom_site_fract_x
_atom_site_fract_y
_atom_site_fract_z
V1	V	-4.056927	-0.159435	-0.290055
V2	V	-3.556927	0.340565	0.209945
O3	O	-4.024805	0.006919	-0.284436
O4	O	-3.524805	0.506919	0.215564
O5	O	-4.026571	-0.315418	-0.288165
O6	O	-3.526571	0.184582	0.211835
O7	O	-4.013319	-0.157308	-0.416516
O8	O	-3.513319	0.342692	0.083484
O9	O	-4.038148	-0.152285	-0.155197
O10	O	-3.538148	0.347715	0.344803
V11	V	-4.537596	-0.139498	-0.273914
V12	V	-4.037596	0.360502	0.226086
O13	O	-4.324446	-0.203166	-0.325463
O14	O	-3.824446	0.296834	0.174537
O15	O	-4.720275	-0.095766	-0.238506
O16	O	-4.220275	0.404234	0.261494
O17	O	-4.344747	0.016485	-0.275804
O18	O	-3.844747	0.516485	0.224196
O19	O	-4.687116	-0.305852	-0.279532
O20	O	-4.187116	0.194148	0.220468
O21	O	-4.673772	-0.146648	-0.408772
O22	O	-4.173772	0.353352	0.091228
O23	O	-4.357998	-0.141625	-0.147453
O24	O	-3.857998	0.358375	0.352547
C25	C	-3.875806	-0.353433	-0.283613
C26	C	-3.375806	0.146567	0.216387
C27	C	-3.932305	-0.480953	-0.282911
C28	C	-3.432305	0.019047	0.217089
C29	C	-3.858901	-0.151747	-0.447336
C30	C	-3.358901	0.348253	0.052664
C31	C	-3.904649	-0.151040	-0.550719
C32	C	-3.404649	0.348960	-0.050719
C33	C	-4.035709	-0.714426	-0.281632
C34	C	-3.535709	-0.214426	0.218368
C35	C	-3.978159	-0.584505	-0.282344
C36	C	-3.478159	-0.084505	0.217656
C37	C	-4.072090	-0.148458	-0.929285
C38	C	-3.572090	0.351542	-0.429285
C39	C	-4.025495	-0.149177	-0.823956
C40	C	-3.525495	0.350823	-0.323956
C41	C	-3.988371	-0.149750	-0.740005
C42	C	-3.488371	0.350250	-0.240005
C43	C	-3.941773	-0.150467	-0.634670
C44	C	-3.441773	0.349533	-0.134670
C45	C	-4.158854	0.054494	-0.280353
C46	C	-3.658854	0.554494	0.219647
C47	C	-4.081594	0.182013	-0.281062
C48	C	-3.581594	0.682013	0.218938
C49	C	-4.175759	-0.147190	-0.116628
C50	C	-3.675759	0.352810	0.383372
C51	C	-4.109248	-0.147890	-0.013244
C52	C	-3.609248	0.352110	0.486756
