data_functionalizedCrystal
_audit_creation_method	'MofGen! by Chris Wilmer'
_symmetry_space_group_name_H-M	'P1'
_symmetry_Int_Tables_number	1
_symmetry_cell_setting	triclinic
loop_
_symmetry_equiv_pos_as_xyz
  x,y,z
_cell_length_a	13.635800
_cell_length_b	10.943624
_cell_length_c	19.551823
_cell_angle_alpha	85.537113
_cell_angle_beta	101.663376
_cell_angle_gamma	71.161201
loop_
_atom_site_label
_atom_site_type_symbol
_atom_site_fract_x
_atom_site_fract_y
_atom_site_fract_z
V1	V	2.039646	-0.403155	0.096657
O2	O	2.037475	-0.394859	-0.004664
O3	O	2.010827	-0.400995	0.191672
O4	O	2.028907	-0.578712	0.095161
O5	O	2.019270	-0.215912	0.092515
V6	V	2.280314	-0.380686	0.084538
O7	O	2.172673	-0.452441	0.123239
O8	O	2.372385	-0.331400	0.057956
O9	O	2.197530	-0.382846	-0.010477
O10	O	2.341183	-0.388982	0.185859
O11	O	2.359389	-0.567929	0.088680
O12	O	2.179449	-0.205129	0.086034
V13	V	2.539646	-0.403155	0.096657
O14	O	2.537475	-0.394859	-0.004664
O15	O	2.510827	-0.400995	0.191672
O16	O	2.528907	-0.578712	0.095161
O17	O	2.519270	-0.215912	0.092515
V18	V	2.780314	-0.380686	0.084538
O19	O	2.672673	-0.452441	0.123239
O20	O	2.872385	-0.331400	0.057956
O21	O	2.697530	-0.382846	-0.010477
O22	O	2.841183	-0.388982	0.185859
O23	O	2.859389	-0.567929	0.088680
O24	O	2.679449	-0.205129	0.086034
C25	C	1.954831	-0.621483	0.091725
C26	C	1.986662	-0.765006	0.091132
C27	C	1.909825	-0.842128	0.087134
C28	C	1.993391	-0.948489	0.146473
C29	C	1.959825	-0.914380	0.030741
C30	C	2.069823	-0.869490	0.150527
C31	C	2.036226	-0.835357	0.034742
C32	C	2.119857	-0.941688	0.094098
C33	C	1.931768	-0.394789	0.214835
C34	C	1.948938	-0.394193	0.292511
C35	C	2.108259	-0.389048	-0.033636
C36	C	2.080709	-0.389653	-0.111311
C37	C	2.085196	-0.162351	0.089472
C38	C	2.042985	-0.018827	0.090062
C39	C	2.431768	-0.394789	0.214835
C40	C	2.448938	-0.394193	0.292511
C41	C	2.454831	-0.621483	0.091725
C42	C	2.486662	-0.765006	0.091132
C43	C	2.048382	-0.400370	0.332556
C44	C	2.064519	-0.399823	0.405542
C45	C	1.981198	-0.393074	0.438478
C46	C	1.881742	-0.386904	0.398424
C47	C	1.865612	-0.387464	0.325440
C48	C	1.918307	-0.311204	0.544970
C49	C	1.934439	-0.310636	0.617951
C50	C	2.030948	-0.391353	0.663584
C51	C	2.111336	-0.472621	0.636225
C52	C	2.095205	-0.473181	0.563242
C53	C	1.998679	-0.392467	0.517616
C54	C	2.147896	-0.396939	0.782770
C55	C	2.164031	-0.396400	0.855758
C56	C	1.981248	-0.383467	0.848637
C57	C	1.965119	-0.384019	0.775651
C58	C	2.048445	-0.390749	0.742722
C59	C	2.608259	-0.389048	-0.033636
C60	C	2.580709	-0.389653	-0.111311
C61	C	2.585196	-0.162351	0.089472
C62	C	2.542985	-0.018827	0.090062
C63	C	2.548396	-0.400387	0.332551
C64	C	2.564548	-0.399847	0.405538
C65	C	2.481238	-0.393104	0.438483
C66	C	2.381773	-0.386914	0.398438
C67	C	2.365625	-0.387464	0.325453
C68	C	2.653745	-0.383463	-0.151351
C69	C	2.627866	-0.384009	-0.224338
C70	C	2.528952	-0.390754	-0.257283
C71	C	2.455910	-0.396941	-0.217238
C72	C	2.481787	-0.396385	-0.144253
C73	C	2.409825	-0.842128	0.087134
C74	C	2.493391	-0.948489	0.146473
C75	C	2.459825	-0.914380	0.030741
C76	C	2.569823	-0.869490	0.150527
C77	C	2.536226	-0.835357	0.034742
C78	C	2.619857	-0.941688	0.094098
H79	H	1.975614	-0.997733	0.193709
H80	H	1.813904	-0.381412	0.425245
H81	H	2.494401	-0.392658	0.497913
N82	N	1.814213	-0.224132	0.495753
H83	H	1.778570	-0.279551	0.468704
H84	H	1.765823	-0.172572	0.524204
N85	N	2.291915	-0.379607	0.433973
H86	H	2.317243	-0.380181	0.486282
H87	H	2.229697	-0.296413	0.412880
H88	H	2.116237	-0.405858	0.305751
N89	N	2.559714	-0.770067	-0.027828
H90	H	2.612102	-0.725200	-0.010571
H91	H	2.591359	-0.838024	-0.056898
N92	N	2.291850	-0.784547	0.083330
H93	H	2.275544	-0.826107	0.125589
H94	H	2.270959	-0.687193	0.083293
H95	H	1.913409	-0.377980	0.875453
N96	N	2.258348	-0.380783	0.282270
H97	H	2.208029	-0.376427	0.314221
H98	H	2.228155	-0.300276	0.245055
N99	N	2.760434	-0.376190	-0.115827
H100	H	2.802763	-0.372347	-0.152276
H101	H	2.748793	-0.295224	-0.092483
H102	H	1.913629	-0.934826	-0.019872
N103	N	2.349231	-0.404229	-0.252772
H104	H	2.308538	-0.324307	-0.289680
H105	H	2.360891	-0.485252	-0.276067
H106	H	1.784631	-0.382435	0.292835
N107	N	2.638260	-0.407661	0.297027
H108	H	2.703712	-0.411508	0.333477
H109	H	2.655047	-0.488625	0.273681
N110	N	2.706660	-0.377358	-0.267518
H111	H	2.773251	-0.373021	-0.235567
H112	H	2.725783	-0.457764	-0.291169
N113	N	2.501054	-0.391376	-0.336000
H114	H	2.434944	-0.313605	-0.358978
H115	H	2.562400	-0.386485	-0.356301
H116	H	2.245014	-0.401438	0.888363
N117	N	2.131029	-0.842712	0.217659
H118	H	2.108975	-0.745290	0.217666
H119	H	2.115002	-0.885090	0.259785
N120	N	2.403017	-0.403085	-0.101067
H121	H	2.383787	-0.322699	-0.077406
H122	H	2.336489	-0.407493	-0.133057
N123	N	1.791854	-0.784543	0.083343
H124	H	1.770891	-0.687187	0.083332
H125	H	1.750161	-0.801848	0.038553
H126	H	2.053961	-0.786078	-0.012496
N127	N	2.469855	-1.013723	0.209045
H128	H	2.390805	-0.977316	0.206384
H129	H	2.492402	-1.110987	0.208396
N130	N	2.237880	-0.998995	0.098009
H131	H	2.279528	-0.983058	0.143246
H132	H	2.258676	-1.096093	0.097135
H133	H	2.145501	-0.404852	0.438154
H134	H	2.616023	-0.849262	0.201207
N135	N	2.398644	-0.941399	-0.036324
H136	H	2.421262	-1.038816	-0.036456
H137	H	2.319639	-0.904935	-0.038852
N138	N	2.737880	-0.998995	0.098009
H139	H	2.779528	-0.983058	0.143246
H140	H	2.758676	-1.096093	0.097135
H141	H	2.160660	-0.539355	0.540970
H142	H	2.189846	-0.538526	0.673390
H143	H	1.884139	-0.378981	0.743045
N144	N	2.237758	-0.404209	0.747242
H145	H	2.261015	-0.326492	0.754720
H146	H	2.299961	-0.487437	0.768293
N147	N	1.847744	-0.222978	0.647457
H148	H	1.784154	-0.171940	0.607477
H149	H	1.825586	-0.278023	0.680983
H150	H	2.645542	-0.404884	0.438133
