data_functionalizedCrystal
_audit_creation_method	'MofGen! by Chris Wilmer'
_symmetry_space_group_name_H-M	'P1'
_symmetry_Int_Tables_number	1
_symmetry_cell_setting	triclinic
loop_
_symmetry_equiv_pos_as_xyz
  x,y,z
_cell_length_a	17.699077
_cell_length_b	17.699083
_cell_length_c	16.776229
_cell_angle_alpha	90.007545
_cell_angle_beta	90.006585
_cell_angle_gamma	83.281795
loop_
_atom_site_label
_atom_site_type_symbol
_atom_site_fract_x
_atom_site_fract_y
_atom_site_fract_z
O1	O	-1.004081	-0.095691	-0.066279
O2	O	-0.783702	-0.108149	-0.066283
O3	O	-0.900118	0.008269	-0.066274
O4	O	-0.887666	-0.212109	-0.066288
O5	O	-0.900103	0.008276	0.066302
O6	O	-0.783687	-0.108142	0.066293
O7	O	-1.004066	-0.095684	0.066297
Zn8	Zn	-0.893874	-0.101912	0.087345
Zn9	Zn	-0.893894	-0.101921	-0.087331
O10	O	-0.887650	-0.212102	0.066288
C11	C	-0.755498	-0.107700	0.000004
C12	C	-0.671479	-0.106363	0.000003
C13	C	-0.899664	0.036470	0.000014
C14	C	-0.898326	0.120488	0.000015
C15	C	-1.032271	-0.096133	0.000008
C16	C	-1.116289	-0.097470	0.000004
C17	C	-0.632003	-0.105729	0.072271
C18	C	-0.553061	-0.104461	0.072272
C19	C	-0.513595	-0.103832	0.000004
C20	C	-0.553076	-0.104463	-0.072270
C21	C	-0.632018	-0.105726	-0.072270
C22	C	-0.234713	-0.099370	-0.072271
C23	C	-0.155766	-0.098110	-0.072265
C24	C	-0.155756	-0.098105	0.072271
C25	C	-0.234698	-0.099367	0.072271
C26	C	-0.274173	-0.099995	-0.000002
C27	C	-0.359772	-0.101369	-0.000002
C28	C	-0.427997	-0.102464	0.000003
N29	N	-0.893866	-0.101905	0.206556
C30	C	-0.888104	-0.240303	-0.000002
C31	C	-0.889443	-0.324321	-0.000008
C32	C	-0.966659	0.169110	0.000017
C33	C	-0.965397	0.248054	0.000010
C34	C	-0.895800	0.278373	0.000006
C35	C	-0.827461	0.229744	0.000001
C36	C	-0.828724	0.150803	0.000003
C37	C	-0.822366	0.548107	-0.000005
C38	C	-0.821108	0.627055	-0.000004
C39	C	-0.959039	0.645358	0.000002
C40	C	-0.960302	0.566417	0.000003
C41	C	-0.891963	0.517795	-0.000006
C42	C	-0.893333	0.432196	0.000000
C43	C	-0.894430	0.363971	0.000006
N44	N	-0.893909	-0.101922	-0.206542
C45	C	-0.945430	-0.050376	0.248277
C46	C	-0.945434	-0.050376	0.331729
C47	C	-0.893877	-0.101908	0.373459
C48	C	-0.842307	-0.153439	0.331732
C49	C	-0.842300	-0.153435	0.248281
C50	C	-0.842334	-0.153454	0.668279
C51	C	-0.842347	-0.153455	0.751735
C52	C	-0.945469	-0.050394	0.751727
C53	C	-0.945462	-0.050390	0.668276
C54	C	-0.893889	-0.101919	0.626557
C55	C	-0.893885	-0.101918	0.536068
C56	C	-0.893885	-0.101913	0.463946
H57	H	-0.664130	-0.106247	0.131121
H58	H	-0.987422	-0.008417	0.365698
O59	O	-0.272998	-0.100117	-0.142497
C60	C	-0.244999	-0.165325	-0.186475
H61	H	-0.217224	-0.210776	-0.144190
H62	H	-0.293996	-0.188147	-0.219267
H63	H	-0.201140	-0.149781	-0.231528
O64	O	-1.031725	0.295365	0.000118
C65	C	-1.035119	0.341576	0.068786
H66	H	-0.975048	0.345456	0.091674
H67	H	-1.063419	0.400961	0.053338
H68	H	-1.069636	0.315682	0.116870
H69	H	-0.766721	0.508528	-0.000012
O70	O	-0.995573	-0.000258	0.627865
C71	C	-1.041099	0.045212	0.682585
H72	H	-1.010079	0.046025	0.742080
H73	H	-1.052755	0.105673	0.658482
H74	H	-1.097276	0.020709	0.691441
H75	H	-0.520925	-0.103932	0.131121
H76	H	-0.800360	-0.195420	0.785710
H77	H	-0.770794	0.254436	-0.000007
O78	O	-0.117425	-0.097621	0.142501
C79	C	-0.128028	-0.163444	0.186468
H80	H	-0.143650	-0.209591	0.144177
H81	H	-0.073190	-0.184604	0.219250
H82	H	-0.175814	-0.149364	0.231529
O83	O	-0.273017	-0.099842	0.142494
C84	C	-0.262404	-0.034015	0.186470
H85	H	-0.246784	0.012126	0.144185
H86	H	-0.317235	-0.012847	0.219251
H87	H	-0.214611	-0.048093	0.231532
H88	H	-0.800324	-0.195395	0.365713
O89	O	-0.670418	-0.106211	-0.142452
C90	C	-0.724790	-0.041427	-0.146764
H91	H	-0.707076	0.004753	-0.105749
H92	H	-0.728610	-0.019450	-0.210681
H93	H	-0.782651	-0.057196	-0.127351
H94	H	-1.016974	0.541735	0.000010
O95	O	-1.025355	0.692699	-0.000034
C96	C	-1.009323	0.768877	-0.000020
H97	H	-0.949884	0.771791	-0.025124
H98	H	-1.052896	0.804718	-0.038509
H99	H	-1.012225	0.791723	0.063583
H100	H	-0.800310	-0.195394	0.214312
H101	H	-0.520938	-0.103946	-0.131112
H102	H	-0.764431	0.651737	-0.000006
H103	H	-0.123635	-0.097597	-0.131118
H104	H	-1.023333	0.144431	0.000025
H105	H	-0.773080	0.111214	0.000001
H106	H	-0.987417	-0.008416	0.214306
H107	H	-0.987460	-0.008434	0.785704
O108	O	-0.792214	-0.203583	0.627883
C109	C	-0.746703	-0.249055	0.682613
H110	H	-0.777740	-0.249871	0.742089
H111	H	-0.735038	-0.309514	0.658494
H112	H	-0.690529	-0.224550	0.691509
