data_functionalizedCrystal
_audit_creation_method	'MofGen! by Chris Wilmer'
_symmetry_space_group_name_H-M	'P1'
_symmetry_Int_Tables_number	1
_symmetry_cell_setting	triclinic
loop_
_symmetry_equiv_pos_as_xyz
  x,y,z
_cell_length_a	19.805407
_cell_length_b	12.827892
_cell_length_c	19.805399
_cell_angle_alpha	89.977471
_cell_angle_beta	89.980427
_cell_angle_gamma	90.015392
loop_
_atom_site_label
_atom_site_type_symbol
_atom_site_fract_x
_atom_site_fract_y
_atom_site_fract_z
Zn1	Zn	1.034788	-0.416057	-0.382743
Zn2	Zn	1.034724	-0.590812	-0.269565
Zn3	Zn	0.921602	-0.416086	-0.269568
Zn4	Zn	0.921587	-0.590757	-0.382712
O5	O	0.978175	-0.503428	-0.326147
O6	O	1.129496	-0.439250	-0.367742
O7	O	1.019698	-0.567670	-0.174849
O8	O	0.936649	-0.269846	-0.284595
O9	O	1.129449	-0.567642	-0.284590
O10	O	1.019806	-0.269825	-0.367745
O11	O	0.936588	-0.439299	-0.174851
O12	O	0.826884	-0.439245	-0.284565
O13	O	0.936624	-0.567547	-0.477433
O14	O	0.826873	-0.567575	-0.367691
O15	O	1.019792	-0.439196	-0.477456
O16	O	1.019684	-0.737041	-0.284560
O17	O	0.936563	-0.737000	-0.367688
C18	C	0.802319	-0.503408	-0.326125
C19	C	0.727087	-0.503425	-0.326132
C20	C	0.978133	-0.774938	-0.326135
C21	C	0.978177	-0.891091	-0.326153
C22	C	0.691755	-0.570347	-0.369346
C23	C	0.621067	-0.570349	-0.369355
C24	C	0.585712	-0.503433	-0.326147
C25	C	0.621049	-0.436504	-0.282931
C26	C	0.691736	-0.436497	-0.282926
C27	C	0.335975	-0.436527	-0.282954
C28	C	0.265283	-0.436540	-0.282961
C29	C	0.265306	-0.570378	-0.369383
C30	C	0.335993	-0.570372	-0.369378
C31	C	0.371324	-0.503439	-0.326165
C32	C	0.447973	-0.503436	-0.326156
C33	C	0.509065	-0.503440	-0.326152
C34	C	1.019357	-0.942862	-0.285064
C35	C	1.019403	-1.062912	-0.285081
C36	C	1.154718	-0.503449	-0.326169
C37	C	1.229950	-0.503458	-0.326179
C38	C	0.978213	-0.503362	-0.502690
C39	C	0.978229	-0.503334	-0.577922
C40	C	0.978236	-0.230858	-0.326174
C41	C	0.978262	-0.114705	-0.326185
C42	C	1.021536	-0.436499	-0.613279
C43	C	1.021543	-0.436468	-0.683968
C44	C	0.978246	-0.503280	-0.719298
C45	C	0.934935	-0.570118	-0.683935
C46	C	0.934925	-0.570143	-0.613248
C47	C	0.934973	-0.570021	-0.969009
C48	C	0.934988	-0.569994	-1.039701
C49	C	1.021591	-0.436347	-1.039728
C50	C	1.021581	-0.436371	-0.969041
C51	C	0.978268	-0.503205	-0.933685
C52	C	0.978260	-0.503236	-0.857037
C53	C	0.978257	-0.503255	-0.795945
C54	C	0.978176	-0.503418	-0.150291
C55	C	0.978291	-0.503152	-0.075060
H56	H	0.592303	-0.624844	-0.404544
H57	H	0.943002	-1.070191	-0.361363
C58	C	0.374834	-0.362910	-0.235420
H59	H	0.421996	-0.372476	-0.241607
H60	H	0.363228	-0.378111	-0.189927
H61	H	0.363259	-0.292716	-0.245411
C62	C	1.067029	-1.123048	-0.237554
H63	H	1.060814	-1.195846	-0.243802
H64	H	1.057154	-1.105265	-0.192056
H65	H	1.112507	-1.105145	-0.247493
H66	H	0.236531	-0.624874	-0.404572
H67	H	1.054581	-0.898310	-0.249875
H68	H	0.364776	-0.624865	-0.404560
H69	H	1.056840	-0.381970	-0.940279
H70	H	0.236499	-0.382043	-0.247776
C71	C	0.730601	-0.362882	-0.235392
H72	H	0.699422	-0.323035	-0.209656
H73	H	0.758192	-0.317402	-0.261334
H74	H	0.758159	-0.402796	-0.205851
H75	H	0.899728	-0.624402	-1.068465
C76	C	0.887309	-0.643612	-0.722793
H77	H	0.861511	-0.683414	-0.691610
H78	H	0.913193	-0.689138	-0.750368
H79	H	0.857828	-0.603618	-0.750367
H80	H	1.056809	-0.382046	-0.712753
C81	C	0.930594	-0.951265	-0.373697
H82	H	0.904756	-0.903217	-0.399477
H83	H	0.901161	-0.993912	-0.347761
H84	H	0.956516	-0.993777	-0.403196
C85	C	0.582160	-0.362901	-0.235401
H86	H	0.535001	-0.372497	-0.241587
H87	H	0.593756	-0.292705	-0.245380
H88	H	0.593726	-0.378112	-0.189905
H89	H	1.056795	-0.382096	-0.584519
C90	C	1.069231	-0.362822	-1.078622
H91	H	1.063033	-0.372365	-1.125781
H92	H	1.114702	-0.378129	-1.067044
H93	H	1.059337	-0.292607	-1.067041
C94	C	0.887317	-0.643514	-0.930126
H95	H	0.861534	-0.683298	-0.961293
H96	H	0.857835	-0.603522	-0.902560
H97	H	0.913180	-0.689074	-0.902542
H98	H	0.720536	-0.624841	-0.404529
C99	C	0.887305	-0.643688	-0.574355
H100	H	0.861529	-0.683489	-0.605519
H101	H	0.857815	-0.603740	-0.546771
H102	H	0.913201	-0.689229	-0.546789
