data_functionalizedCrystal
_audit_creation_method	'MofGen! by Chris Wilmer'
_symmetry_space_group_name_H-M	'P1'
_symmetry_Int_Tables_number	1
_symmetry_cell_setting	triclinic
loop_
_symmetry_equiv_pos_as_xyz
  x,y,z
_cell_length_a	14.853567
_cell_length_b	14.853566
_cell_length_c	13.930277
_cell_angle_alpha	89.995631
_cell_angle_beta	89.999243
_cell_angle_gamma	83.634672
loop_
_atom_site_label
_atom_site_type_symbol
_atom_site_fract_x
_atom_site_fract_y
_atom_site_fract_z
O1	O	0.117698	1.196369	-0.079759
O2	O	0.131721	0.933909	-0.079774
O3	O	-0.006520	1.072150	-0.079769
O4	O	0.255939	1.058129	-0.079764
O5	O	-0.006523	1.072131	0.079893
O6	O	0.131718	0.933890	0.079888
O7	O	0.117695	1.196350	0.079903
Zn8	Zn	0.124706	1.065117	0.105245
Zn9	Zn	0.124710	1.065142	-0.105116
O10	O	0.255936	1.058109	0.079898
C11	C	0.131084	0.900311	0.000055
C12	C	0.129181	0.800227	0.000049
C13	C	0.121132	0.377053	-0.086966
C14	C	0.121129	0.377053	0.087103
C15	C	0.122916	0.471087	0.087101
C16	C	0.123813	0.518108	0.000063
C17	C	0.122922	0.471095	-0.086972
C18	C	0.123817	0.518106	0.174134
C19	C	0.125605	0.612146	0.174134
C20	C	0.126495	0.659170	0.087095
C21	C	0.125603	0.612151	0.000057
C22	C	0.126499	0.659172	-0.086980
C23	C	0.125601	0.612156	-0.174019
C24	C	0.123812	0.518119	-0.174010
C25	C	0.128284	0.753206	0.087086
C26	C	0.128290	0.753214	-0.086986
C27	C	-0.040111	1.071505	0.000059
C28	C	-0.140194	1.069601	0.000051
C29	C	-0.552728	0.979435	0.000064
C30	C	-0.574009	1.143668	0.000073
C31	C	-0.479976	1.145458	0.000067
C32	C	-0.422313	1.064236	0.000061
C33	C	-0.458685	0.981223	0.000061
C34	C	-0.443597	1.228470	0.000078
C35	C	-0.349558	1.230263	0.000073
C36	C	-0.291894	1.149040	0.000060
C37	C	-0.328271	1.066023	0.000059
C38	C	-0.270608	0.984801	0.000053
C39	C	-0.306984	0.901784	0.000045
C40	C	-0.401021	0.899999	0.000048
C41	C	-0.197856	1.150824	0.000057
C42	C	-0.176566	0.986588	0.000050
C43	C	0.289526	1.058754	0.000068
C44	C	0.389610	1.060658	0.000070
C45	C	0.118332	1.229948	0.000072
C46	C	0.120235	1.330032	0.000071
N47	N	0.124703	1.065106	0.248811
N48	N	0.124706	1.065160	-0.248682
C49	C	0.185899	1.003927	0.701078
C50	C	0.063514	1.126382	0.701052
C51	C	0.063511	1.126372	0.600556
C52	C	0.124704	1.065139	0.550317
C53	C	0.185900	1.003916	0.600573
C54	C	0.002322	1.187599	0.550292
C55	C	0.002318	1.187592	0.449791
C56	C	0.063507	1.126353	0.399549
C57	C	0.124705	1.065128	0.449812
C58	C	0.185898	1.003895	0.399572
C59	C	0.247092	0.942664	0.449833
C60	C	0.247089	0.942678	0.550332
C61	C	0.063510	1.126339	0.299050
C62	C	0.185899	1.003884	0.299067
H63	H	0.120405	0.338762	0.157965
H64	H	0.123079	0.479830	-0.244873
H65	H	-0.430646	0.832411	0.000043
H66	H	0.013690	1.176196	0.258133
H67	H	-0.047510	1.237447	0.408874
Br68	Br	0.122615	0.454287	0.292248
H69	H	-0.168244	1.218415	0.000070
H70	H	-0.620963	1.209796	0.000086
H71	H	0.129017	0.791493	-0.157863
Br72	Br	-0.228717	0.791558	0.000049
H73	H	0.235726	0.954017	0.258169
H74	H	0.129025	0.791482	0.157952
H75	H	-0.129622	0.920446	0.000041
H76	H	0.013696	1.176241	0.741960
Br77	Br	0.126828	0.675980	-0.292137
H78	H	0.296920	0.892811	0.408917
H79	H	0.296912	0.892827	0.591260
Br80	Br	0.268939	0.920826	0.769282
Br81	Br	-0.080715	1.270707	0.618470
H82	H	0.120396	0.338769	-0.157831
Br83	Br	0.126824	0.675946	0.292255
H84	H	-0.582349	0.911845	0.000053
H85	H	-0.490552	1.294597	0.000091
Br86	Br	-0.300199	1.342926	0.000070
