data_functionalizedCrystal
_audit_creation_method	'MofGen! by Chris Wilmer'
_symmetry_space_group_name_H-M	'P1'
_symmetry_Int_Tables_number	1
_symmetry_cell_setting	triclinic
loop_
_symmetry_equiv_pos_as_xyz
  x,y,z
_cell_length_a	10.686220
_cell_length_b	15.297327
_cell_length_c	10.686551
_cell_angle_alpha	96.042164
_cell_angle_beta	90.308082
_cell_angle_gamma	103.240265
loop_
_atom_site_label
_atom_site_type_symbol
_atom_site_fract_x
_atom_site_fract_y
_atom_site_fract_z
Zn1	Zn	1.923459	-0.219505	-0.619215
Zn2	Zn	1.870979	-0.382469	-0.451647
Zn3	Zn	1.692454	-0.242538	-0.431496
Zn4	Zn	1.677815	-0.380644	-0.676952
O5	O	1.791177	-0.306289	-0.544828
O6	O	2.094014	-0.232247	-0.581257
O7	O	1.831461	-0.374309	-0.276122
O8	O	1.751187	-0.113484	-0.423800
O9	O	2.055457	-0.351976	-0.458146
O10	O	1.920905	-0.096562	-0.561717
O11	O	1.700299	-0.271502	-0.261316
O12	O	1.512996	-0.269733	-0.479786
O13	O	1.726237	-0.348866	-0.842146
O14	O	1.502241	-0.371200	-0.660122
O15	O	1.906710	-0.230478	-0.799726
O16	O	1.817266	-0.508226	-0.514131
O17	O	1.675349	-0.506885	-0.679662
C18	C	1.461590	-0.322768	-0.574033
C19	C	1.320589	-0.329838	-0.586562
C20	C	1.739061	-0.540222	-0.605372
C21	C	1.716885	-0.640291	-0.631305
C22	C	1.950230	-0.925010	-0.359860
C23	C	1.971064	-0.830990	-0.335489
C24	C	1.907522	-0.783311	-0.409441
C25	C	1.823141	-0.829660	-0.507768
C26	C	1.802297	-0.923690	-0.532135
C27	C	1.759589	-0.781991	-0.581716
C28	C	1.675208	-0.828341	-0.680043
C29	C	1.654369	-0.922361	-0.704406
C30	C	1.717911	-0.970040	-0.630454
C31	C	1.780432	-0.687961	-0.557349
C32	C	1.632499	-0.686642	-0.729624
C33	C	1.611665	-0.780661	-0.753995
C34	C	2.122050	-0.289746	-0.515509
C35	C	2.263049	-0.282696	-0.503015
C36	C	1.820695	-0.286900	-0.867008
C37	C	1.833273	-0.278637	-1.004302
C38	C	1.843533	-0.071439	-0.484070
C39	C	1.865844	0.028640	-0.458179
C40	C	1.761861	-0.325535	-0.223877
C41	C	1.749584	-0.333531	-0.086497
H42	H	1.321655	-0.236929	-0.421900
H43	H	1.914556	-0.225318	-1.038971
H44	H	1.261975	-0.375615	-0.667676
H45	H	1.849135	-0.650232	-0.477290
O46	O	1.695430	-1.071453	-0.656725
H47	H	1.787906	-1.089888	-0.679683
O48	O	1.520651	-0.830655	-0.860042
H49	H	1.423147	-0.818928	-0.842946
H50	H	1.580754	-0.647822	-0.789840
O51	O	1.929999	-0.681902	-0.383174
H52	H	1.999359	-0.657681	-0.302387
O53	O	1.563350	-0.972351	-0.810452
H54	H	1.484271	-1.021792	-0.771943
O55	O	2.062080	-0.780996	-0.229456
H56	H	2.102776	-0.829943	-0.182136
H57	H	1.668315	-0.386852	-1.051833
O58	O	2.018794	-0.976427	-0.280131
H59	H	1.990140	-1.049592	-0.313611
