data_functionalizedCrystal
_audit_creation_method	'MofGen! by Chris Wilmer'
_symmetry_space_group_name_H-M	'P1'
_symmetry_Int_Tables_number	1
_symmetry_cell_setting	triclinic
loop_
_symmetry_equiv_pos_as_xyz
  x,y,z
_cell_length_a	15.944551
_cell_length_b	15.944551
_cell_length_c	14.421503
_cell_angle_alpha	90.003141
_cell_angle_beta	90.003340
_cell_angle_gamma	96.501262
loop_
_atom_site_label
_atom_site_type_symbol
_atom_site_fract_x
_atom_site_fract_y
_atom_site_fract_z
O1	O	0.108320	-1.114529	-0.077017
O2	O	0.121677	-0.869980	-0.077040
O3	O	-0.007276	-0.998933	-0.077020
O4	O	0.237273	-0.985576	-0.077038
O5	O	-0.007257	-0.998911	0.077204
O6	O	0.121696	-0.869958	0.077183
O7	O	0.108340	-1.114508	0.077206
Cu8	Cu	0.115020	-0.992231	0.091277
Cu9	Cu	0.114997	-0.992256	-0.091110
O10	O	0.237293	-0.985555	0.077186
C11	C	0.121132	-0.838675	0.000069
C12	C	0.119470	-0.745429	0.000060
C13	C	-0.038561	-0.998367	0.000092
C14	C	-0.131807	-0.996705	0.000093
N15	N	0.115035	-0.992219	0.219558
C16	C	-0.346663	-0.912801	0.000072
C17	C	-0.407671	-0.951753	0.076117
C18	C	-0.302533	-0.993698	0.000085
C19	C	-0.407674	-0.951793	-0.075935
C20	C	-0.467445	-0.990787	0.000074
C21	C	-0.362312	-1.032672	0.076193
C22	C	-0.362308	-1.032701	-0.075927
C23	C	-0.423298	-1.071711	0.000136
C24	C	-0.207530	-0.995372	0.000092
C25	C	-0.562446	-0.989119	0.000073
C26	C	0.268577	-0.986120	0.000072
C27	C	0.361823	-0.987782	0.000066
C28	C	0.108885	-1.145813	0.000096
C29	C	0.110547	-1.239059	0.000098
C30	C	0.035565	-0.530572	0.000084
C31	C	0.074518	-0.469563	-0.075959
C32	C	0.116462	-0.574703	0.000071
C33	C	0.074556	-0.469564	0.076093
C34	C	0.113551	-0.409790	0.000086
C35	C	0.155437	-0.514922	-0.076035
C36	C	0.155464	-0.514929	0.076086
C37	C	0.194476	-0.453937	0.000024
C38	C	0.118137	-0.669705	0.000062
C39	C	0.111883	-0.314789	0.000089
N40	N	0.114975	-0.992275	-0.219392
C41	C	0.174636	-0.932581	0.469202
C42	C	0.190943	-1.008481	0.531011
C43	C	0.115015	-0.992240	0.408719
C44	C	0.098727	-0.916359	0.531005
C45	C	0.114997	-0.992253	0.591441
C46	C	0.131360	-1.068178	0.469167
C47	C	0.039111	-0.976007	0.469156
C48	C	0.055386	-1.051961	0.530936
C49	C	0.115027	-0.992231	0.303458
C50	C	0.114985	-0.992270	0.696700
H51	H	-0.427771	-0.917527	0.140401
C52	C	0.028980	-0.442866	-0.161789
C53	C	0.070678	-0.466994	-0.241224
C54	C	0.028741	-0.442433	-0.320305
H55	H	0.028686	-0.383326	-0.161590
H56	H	-0.027462	-0.469395	-0.161754
H57	H	0.127105	-0.440462	-0.241259
H58	H	0.070974	-0.526530	-0.241454
H59	H	-0.027701	-0.468962	-0.320270
H60	H	0.028449	-0.382893	-0.320097
H61	H	0.057022	-0.458807	-0.374211
C62	C	0.284022	-0.409558	0.000012
C63	C	0.281515	-0.322068	0.000792
C64	C	0.363986	-0.281158	0.000788
H65	H	0.312695	-0.424976	-0.054029
H66	H	0.312991	-0.425728	0.053536
H67	H	0.252558	-0.305905	-0.052727
H68	H	0.252858	-0.306626	0.054829
H69	H	0.392955	-0.297328	0.054313
H70	H	0.392652	-0.296582	-0.053253
H71	H	0.362296	-0.221792	0.001326
C72	C	-0.011843	-1.119233	0.567044
C73	C	-0.011606	-1.118055	0.664121
C74	C	-0.073530	-1.180006	0.697417
H75	H	-0.000219	-1.173130	0.545854
H76	H	-0.065641	-1.108148	0.544978
H77	H	0.042179	-1.129146	0.686178
H78	H	-0.023241	-1.064172	0.685335
H79	H	-0.127328	-1.168921	0.675351
H80	H	-0.061900	-1.233899	0.676221
H81	H	-0.073383	-1.179210	0.763286
C82	C	-0.335828	-1.078308	0.162049
C83	C	-0.407271	-1.105108	0.215320
C84	C	-0.382906	-1.147156	0.294410
H85	H	-0.297814	-1.041088	0.197695
H86	H	-0.308861	-1.125885	0.143913
H87	H	-0.434225	-1.057537	0.233458
H88	H	-0.445293	-1.142338	0.179702
H89	H	-0.355939	-1.194734	0.276274
H90	H	-0.344891	-1.109932	0.330048
H91	H	-0.431376	-1.165352	0.330560
H92	H	0.255126	-1.022224	0.558180
H93	H	0.145205	-1.132368	0.442119
C94	C	-0.467351	-1.161389	0.000256
C95	C	-0.406800	-1.218493	0.001080
C96	C	-0.447345	-1.301111	0.001213
H97	H	-0.501299	-1.170270	-0.053753
H98	H	-0.501974	-1.169820	0.053812
H99	H	-0.372192	-1.210066	-0.052470
H100	H	-0.372849	-1.209640	0.055086
H101	H	-0.481968	-1.309542	0.054769
H102	H	-0.481291	-1.309983	-0.052797
H103	H	-0.406268	-1.339867	0.001781
C104	C	-0.335495	-1.078154	-0.161756
C105	C	-0.358195	-1.035523	-0.241167
C106	C	-0.333495	-1.077356	-0.320256
H107	H	-0.362772	-1.134293	-0.162427
H108	H	-0.276055	-1.079298	-0.160873
H109	H	-0.417623	-1.034388	-0.242049
H110	H	-0.330921	-0.979387	-0.240526
H111	H	-0.274056	-1.078500	-0.319373
H112	H	-0.360774	-1.133493	-0.320917
H113	H	-0.348887	-1.048432	-0.374145
C114	C	-0.046402	-0.957480	0.432941
C115	C	-0.063117	-0.877910	0.464198
C116	C	-0.141877	-0.860799	0.430843
H117	H	-0.088953	-0.999235	0.454975
H118	H	-0.045934	-0.958078	0.367069
H119	H	-0.063592	-0.877318	0.530056
H120	H	-0.020587	-0.836138	0.442166
H121	H	-0.141409	-0.861397	0.364971
H122	H	-0.184421	-0.902560	0.452880
H123	H	-0.153225	-0.806807	0.452039
H124	H	-0.031573	-0.563905	-0.000005
C125	C	0.080478	-0.830708	0.567091
C126	C	0.143091	-0.768493	0.535790
C127	C	0.126309	-0.689578	0.568999
H128	H	0.080112	-0.831363	0.632953
H129	H	0.026987	-0.818718	0.544973
H130	H	0.196568	-0.780480	0.557913
H131	H	0.143468	-0.767810	0.469932
H132	H	0.072818	-0.677588	0.546881
H133	H	0.125942	-0.690242	0.634860
H134	H	0.168784	-0.647355	0.547759
H135	H	-0.427758	-0.917575	-0.140230
C136	C	0.201105	-0.541681	-0.161744
C137	C	0.271107	-0.581462	-0.134716
C138	C	0.313186	-0.606135	-0.213644
H139	H	0.219423	-0.493367	-0.198070
H140	H	0.163846	-0.579763	-0.197287
H141	H	0.308360	-0.543383	-0.099188
H142	H	0.252814	-0.629785	-0.098400
H143	H	0.275927	-0.644217	-0.249188
H144	H	0.331498	-0.557817	-0.249965
H145	H	0.360683	-0.633136	-0.195317
C146	C	-0.302402	-0.823206	0.000209
C147	C	-0.362792	-0.765933	0.001104
C148	C	-0.322051	-0.683394	0.001248
H149	H	-0.268478	-0.814395	-0.053821
H150	H	-0.267733	-0.814872	0.053744
H151	H	-0.397447	-0.774263	-0.052426
H152	H	-0.396720	-0.774716	0.055129
H153	H	-0.287382	-0.675060	0.054783
H154	H	-0.288128	-0.674592	-0.052782
H155	H	-0.363019	-0.644524	0.001863
C156	C	0.200916	-0.541746	0.161914
C157	C	0.158283	-0.519048	0.241325
C158	C	0.200114	-0.543751	0.320414
H159	H	0.257054	-0.514470	0.162588
H160	H	0.202059	-0.601185	0.161029
H161	H	0.157149	-0.459619	0.242210
H162	H	0.102147	-0.546321	0.240682
H163	H	0.201257	-0.603191	0.319529
H164	H	0.256251	-0.516473	0.321078
H165	H	0.171189	-0.528361	0.374303
C166	C	0.028796	-0.442899	0.161782
C167	C	-0.054348	-0.482090	0.161427
C168	C	-0.096530	-0.457558	0.240348
H169	H	0.028426	-0.383368	0.161541
H170	H	0.056947	-0.459222	0.215804
H171	H	-0.082492	-0.465762	0.107418
H172	H	-0.054003	-0.541620	0.161681
H173	H	-0.068379	-0.473880	0.294371
H174	H	-0.096894	-0.398027	0.240100
H175	H	-0.152945	-0.484151	0.240122
H176	H	0.225096	-0.882181	0.442096
