data_functionalizedCrystal
_audit_creation_method	'MofGen! by Chris Wilmer'
_symmetry_space_group_name_H-M	'P1'
_symmetry_Int_Tables_number	1
_symmetry_cell_setting	triclinic
loop_
_symmetry_equiv_pos_as_xyz
  x,y,z
_cell_length_a	19.188933
_cell_length_b	19.188924
_cell_length_c	12.376457
_cell_angle_alpha	101.235232
_cell_angle_beta	78.746972
_cell_angle_gamma	83.143767
loop_
_atom_site_label
_atom_site_type_symbol
_atom_site_fract_x
_atom_site_fract_y
_atom_site_fract_z
O1	O	0.939568	0.073756	-0.093971
O2	O	0.736258	0.085487	-0.093982
O3	O	0.843781	-0.022033	-0.093963
O4	O	0.832045	0.181275	-0.093990
O5	O	0.816910	0.004811	0.094044
O6	O	0.709387	0.112330	0.094025
O7	O	0.912697	0.100599	0.094036
Zn8	Zn	0.806776	0.110727	0.123881
Zn9	Zn	0.842179	0.075359	-0.123827
O10	O	0.805174	0.208119	0.094017
C11	C	0.696812	0.098528	0.000020
C12	C	0.619308	0.097386	0.000016
C13	C	0.080698	0.074611	-0.102453
C14	C	0.153523	0.075678	-0.102458
C15	C	0.175293	0.090848	0.000025
C16	C	0.124233	0.104933	0.102519
C17	C	0.051411	0.103858	0.102521
N18	N	0.273410	0.143157	0.076301
N19	N	0.342589	0.144179	0.076293
C20	C	0.394701	0.094086	0.000026
N21	N	0.375023	0.042939	-0.076249
N22	N	0.305838	0.041920	-0.076244
C23	C	0.254255	0.092015	0.000034
C24	C	0.524717	0.081154	-0.102467
C25	C	0.597543	0.082218	-0.102467
C26	C	0.568250	0.111480	0.102513
C27	C	0.495427	0.110409	0.102510
C28	C	0.473665	0.095249	0.000017
C29	C	0.829966	-0.034622	0.000042
C30	C	0.828827	-0.112126	0.000045
C31	C	0.842943	-0.163158	-0.102438
C32	C	0.841864	-0.235982	-0.102447
C33	C	0.826682	-0.257772	0.000033
C34	C	0.812561	-0.206730	0.102530
C35	C	0.813633	-0.133907	0.102536
N36	N	0.853828	-0.366545	0.076309
N37	N	0.852813	-0.435725	0.076297
C38	C	0.823450	-0.477183	0.000022
N39	N	0.795153	-0.446852	-0.076257
N40	N	0.796173	-0.377666	-0.076248
C41	C	0.825518	-0.336735	0.000038
C42	C	0.836396	-0.607179	-0.102477
C43	C	0.835313	-0.680004	-0.102482
C44	C	0.806016	-0.650751	0.102498
C45	C	0.807093	-0.577928	0.102499
C46	C	0.822287	-0.556147	0.000009
C47	C	0.952144	0.087557	0.000031
C48	C	1.029649	0.088698	0.000028
C49	C	0.818990	0.220708	0.000010
C50	C	0.820130	0.298211	-0.000001
N51	N	0.782619	0.134863	0.292935
N52	N	0.866342	0.051217	-0.292881
C53	C	0.922418	-0.004826	0.647945
C54	C	0.939322	-0.021719	0.529608
C55	C	0.900147	0.017425	0.470434
C56	C	0.844067	0.073465	0.529608
C57	C	0.827165	0.090364	0.647957
C58	C	0.804894	0.112615	0.470446
C59	C	0.748813	0.168656	0.529620
C60	C	0.731914	0.185551	0.647957
C61	C	0.771089	0.146407	0.707131
C62	C	0.821796	0.095716	0.352097
C63	C	0.726543	0.190906	0.352109
C64	C	0.709639	0.207800	0.470446
H65	H	0.639110	0.070741	-0.185923
H66	H	0.506998	0.068808	-0.185923
C67	C	0.795860	-0.230701	0.215258
N68	N	0.783277	-0.248755	0.300169
H69	H	0.585974	0.123829	0.185956
H70	H	0.855312	-0.145429	-0.185895
H71	H	0.848764	-0.589444	-0.185932
H72	H	0.141962	0.117283	0.185961
H73	H	0.686256	0.231188	0.696137
C74	C	0.857389	-0.292125	-0.215191
N75	N	0.869081	-0.334410	-0.300110
C76	C	0.965504	-0.047876	0.713044
N77	N	0.997959	-0.080305	0.762078
C78	C	-0.004748	0.119366	0.215263
N79	N	-0.047049	0.131051	0.300182
H80	H	0.453860	0.121883	0.185961
H81	H	0.802135	-0.092355	0.185992
H82	H	0.663977	0.253430	0.518640
H83	H	0.846805	-0.721554	-0.185939
H84	H	0.793650	-0.668492	0.185939
H85	H	0.795604	-0.536377	0.185952
H86	H	0.195095	0.064210	-0.185913
C87	C	0.883479	0.034069	0.287019
N88	N	0.929941	-0.012369	0.238004
H89	H	0.913913	0.003667	0.374079
C90	C	1.001005	-0.083366	0.464525
N91	N	1.047466	-0.129803	0.415504
H92	H	0.757324	0.160160	0.803491
H93	H	0.694644	0.222783	0.303930
H94	H	0.062986	0.062263	-0.185911
