data_functionalizedCrystal
_audit_creation_method	'MofGen! by Chris Wilmer'
_symmetry_space_group_name_H-M	'P1'
_symmetry_Int_Tables_number	1
_symmetry_cell_setting	triclinic
loop_
_symmetry_equiv_pos_as_xyz
  x,y,z
_cell_length_a	12.827892
_cell_length_b	19.805407
_cell_length_c	19.805398
_cell_angle_alpha	90.017356
_cell_angle_beta	89.979136
_cell_angle_gamma	89.985623
loop_
_atom_site_label
_atom_site_type_symbol
_atom_site_fract_x
_atom_site_fract_y
_atom_site_fract_z
Zn1	Zn	-0.416103	-1.034763	-0.382770
Zn2	Zn	0.083897	-0.534763	0.117230
Zn3	Zn	-0.590853	-1.034707	-0.269592
Zn4	Zn	-0.090853	-0.534707	0.230408
Zn5	Zn	-0.416123	-0.921585	-0.269592
Zn6	Zn	0.083877	-0.421585	0.230408
Zn7	Zn	-0.590799	-0.921563	-0.382736
Zn8	Zn	-0.090799	-0.421563	0.117264
O9	O	-0.503470	-0.978154	-0.326173
O10	O	-0.003470	-0.478154	0.173827
O11	O	-0.439297	-1.129472	-0.367771
O12	O	0.060703	-0.629472	0.132229
O13	O	-0.567706	-1.019687	-0.174875
O14	O	-0.067706	-0.519687	0.325125
O15	O	-0.269885	-0.936631	-0.284620
O16	O	0.230115	-0.436631	0.215380
O17	O	-0.567686	-1.129431	-0.284620
O18	O	-0.067686	-0.629431	0.215380
O19	O	-0.269869	-1.019782	-0.367771
O20	O	0.230131	-0.519782	0.132229
O21	O	-0.439333	-0.936576	-0.174875
O22	O	0.060667	-0.436576	0.325125
O23	O	-0.439281	-0.826865	-0.284586
O24	O	0.060719	-0.326865	0.215414
O25	O	-0.567594	-0.936593	-0.477457
O26	O	-0.067594	-0.436593	0.022543
O27	O	-0.567614	-0.826849	-0.367713
O28	O	-0.067614	-0.326849	0.132287
O29	O	-0.439246	-1.019761	-0.477482
O30	O	0.060754	-0.519761	0.022518
O31	O	-0.737082	-1.019665	-0.284586
O32	O	-0.237082	-0.519665	0.215414
O33	O	-0.737042	-0.936539	-0.367713
O34	O	-0.237042	-0.436539	0.132287
C35	C	-0.503445	-0.802298	-0.326146
C36	C	-0.003445	-0.302298	0.173854
C37	C	-0.503459	-0.727066	-0.326151
C38	C	-0.003459	-0.227066	0.173849
C39	C	-0.570382	-0.691731	-0.369364
C40	C	-0.070382	-0.191731	0.130636
C41	C	-0.570382	-0.621043	-0.369371
C42	C	-0.070382	-0.121043	0.130629
C43	C	-0.503464	-0.585691	-0.326162
C44	C	-0.003464	-0.085691	0.173838
C45	C	-0.436533	-0.621030	-0.282948
C46	C	0.063467	-0.121030	0.217052
C47	C	-0.436529	-0.691718	-0.282944
C48	C	0.063471	-0.191718	0.217056
C49	C	-0.436549	-0.335957	-0.282962
C50	C	0.063451	0.164043	0.217038
C51	C	-0.436560	-0.265265	-0.282968
C52	C	0.063440	0.234735	0.217032
C53	C	-0.570402	-0.265282	-0.369390
C54	C	-0.070402	0.234718	0.130610
C55	C	-0.570397	-0.335970	-0.369386
C56	C	-0.070397	0.164030	0.130614
C57	C	-0.503464	-0.371303	-0.326174
C58	C	-0.003464	0.128697	0.173826
C59	C	-0.503463	-0.447952	-0.326168
C60	C	-0.003463	0.052048	0.173832
C61	C	-0.503469	-0.509043	-0.326165
C62	C	-0.003469	-0.009043	0.173835
C63	C	-0.774979	-0.978112	-0.326161
C64	C	-0.274979	-0.478112	0.173839
C65	C	-0.891133	-0.978156	-0.326178
C66	C	-0.391133	-0.478156	0.173822
C67	C	-0.942902	-1.019338	-0.285090
C68	C	-0.442902	-0.519338	0.214910
C69	C	-1.062952	-1.019384	-0.285107
C70	C	-0.562952	-0.519384	0.214893
C71	C	-0.230899	-0.978215	-0.326199
C72	C	0.269101	-0.478215	0.173801
C73	C	-0.114746	-0.978241	-0.326211
C74	C	0.385254	-0.478241	0.173789
C75	C	-0.503412	-0.978181	-0.502715
C76	C	-0.003412	-0.478181	-0.002715
C77	C	-0.503387	-0.978192	-0.577947
C78	C	-0.003387	-0.478192	-0.077947
C79	C	-0.503488	-0.154697	-0.326193
C80	C	-0.003488	0.345303	0.173807
C81	C	-0.503479	-0.229929	-0.326185
C82	C	-0.003479	0.270071	0.173815
C83	C	-0.436371	-1.021579	-1.039753
C84	C	0.063629	-0.521579	-0.539753
C85	C	-0.436403	-1.021568	-0.969064
C86	C	0.063597	-0.521568	-0.469064
C87	C	-0.503242	-0.978261	-0.933709
C88	C	-0.003242	-0.478261	-0.433709
C89	C	-0.570060	-0.934967	-0.969046
C90	C	-0.070060	-0.434967	-0.469046
C91	C	-0.570033	-0.934982	-1.039734
C92	C	-0.070033	-0.434982	-0.539734
C93	C	-0.570174	-0.934908	-0.683973
C94	C	-0.070174	-0.434908	-0.183973
C95	C	-0.570194	-0.934896	-0.613281
C96	C	-0.070194	-0.434896	-0.113281
C97	C	-0.436544	-1.021495	-0.613304
C98	C	0.063456	-0.521495	-0.113304
C99	C	-0.436516	-1.021510	-0.683991
C100	C	0.063484	-0.521510	-0.183991
C101	C	-0.503338	-0.978218	-0.719322
C102	C	-0.003338	-0.478218	-0.219322
C103	C	-0.503304	-0.978231	-0.795970
C104	C	-0.003304	-0.478231	-0.295970
C105	C	-0.503271	-0.978245	-0.857062
C106	C	-0.003271	-0.478245	-0.357062
C107	C	-0.503452	-0.978167	-0.150317
C108	C	-0.003452	-0.478167	0.349683
C109	C	-0.503182	-0.978287	-0.075085
C110	C	-0.003182	-0.478287	0.424915
H111	H	-0.624879	-0.592276	-0.404559
H112	H	-0.124879	-0.092276	0.095441
C113	C	-1.125515	-0.892607	-0.411713
C114	C	-0.625515	-0.392607	0.088287
C115	C	-1.054662	-0.930640	-0.373704
C116	C	-0.554662	-0.430640	0.126296
H117	H	-1.088414	-0.863218	-0.441030
H118	H	-0.588414	-0.363218	0.058970
H119	H	-1.168023	-0.922072	-0.437660
H120	H	-0.668023	-0.422072	0.062340
H121	H	-1.168150	-0.866728	-0.382223
H122	H	-0.668150	-0.366728	0.117777
H123	H	-1.012032	-0.956523	-0.403195
H124	H	-0.512032	-0.456523	0.096805
H125	H	-1.012137	-0.901171	-0.347755
H126	H	-0.512137	-0.401171	0.152245
H127	H	-0.898350	-1.054565	-0.249903
H128	H	-0.398350	-0.554565	0.250097
H129	H	-0.382055	-0.364717	-0.247771
H130	H	0.117945	0.135283	0.252229
C131	C	-0.304269	-1.107184	-1.032668
C132	C	0.195731	-0.607184	-0.532668
C133	C	-0.362899	-1.069185	-1.078612
C134	C	0.137101	-0.569185	-0.578612
H135	H	-0.258917	-1.136579	-1.056658
H136	H	0.241083	-0.636579	-0.556658
H137	H	-0.264303	-1.077698	-1.005100
H138	H	0.235697	-0.577698	-0.505100
H139	H	-0.349827	-1.133056	-1.005095
H140	H	0.150173	-0.633056	-0.505095
H141	H	-0.317341	-1.043310	-1.106182
H142	H	0.182659	-0.543310	-0.606182
H143	H	-0.402868	-1.098675	-1.106192
H144	H	0.097132	-0.598675	-0.606192
H145	H	-0.382001	-1.056823	-0.940300
H146	H	0.117999	-0.556823	-0.440300
H147	H	-0.382043	-0.592241	-0.247769
H148	H	0.117957	-0.092241	0.252231
C149	C	-0.304415	-1.107117	-0.676912
C150	C	0.195585	-0.607117	-0.176912
C151	C	-0.363049	-1.069116	-0.722853
C152	C	0.136951	-0.569116	-0.222853
H153	H	-0.259067	-1.136512	-0.700904
H154	H	0.240933	-0.636512	-0.200904
H155	H	-0.264446	-1.077632	-0.649344
H156	H	0.235554	-0.577632	-0.149344
H157	H	-0.349972	-1.132989	-0.649338
H158	H	0.150028	-0.632989	-0.149338
H159	H	-0.317492	-1.043241	-0.750423
H160	H	0.182508	-0.543241	-0.250423
H161	H	-0.403021	-1.098605	-0.750432
H162	H	0.096979	-0.598605	-0.250432
H163	H	-0.935687	-0.942935	-0.361370
H164	H	-0.435687	-0.442935	0.138630
H165	H	-0.382137	-1.056747	-0.584529
H166	H	0.117863	-0.556747	-0.084529
C167	C	-0.702339	-0.849308	-0.620354
C168	C	-0.202339	-0.349308	-0.120354
C169	C	-0.643684	-0.887299	-0.574417
C170	C	-0.143684	-0.387299	-0.074417
H171	H	-0.747711	-0.819931	-0.596360
H172	H	-0.247711	-0.319931	-0.096360
H173	H	-0.656805	-0.823426	-0.647923
H174	H	-0.156805	-0.323426	-0.147923
H175	H	-0.742294	-0.878806	-0.647928
H176	H	-0.242294	-0.378806	-0.147928
H177	H	-0.603723	-0.857801	-0.546846
H178	H	-0.103723	-0.357801	-0.046846
H179	H	-0.689224	-0.913183	-0.546837
H180	H	-0.189224	-0.413183	-0.046837
H181	H	-0.624583	-0.899657	-0.712731
H182	H	-0.124583	-0.399657	-0.212731
H183	H	-0.624486	-0.899709	-0.940255
H184	H	-0.124486	-0.399709	-0.440255
C185	C	-0.304244	-0.684605	-0.197507
C186	C	0.195756	-0.184605	0.302493
C187	C	-0.362974	-0.730560	-0.235437
C188	C	0.137026	-0.230560	0.264563
H189	H	-0.258838	-0.708586	-0.168175
H190	H	0.241162	-0.208586	0.331825
H191	H	-0.264331	-0.657053	-0.227041
H192	H	0.235669	-0.157053	0.272959
H193	H	-0.349736	-0.657016	-0.171572
H194	H	0.150264	-0.157016	0.328428
H195	H	-0.317483	-0.758146	-0.261376
H196	H	0.182517	-0.258146	0.238624
H197	H	-0.402890	-0.758124	-0.205899
H198	H	0.097110	-0.258124	0.294101
C199	C	-0.702140	-0.849373	-1.032615
C200	C	-0.202140	-0.349373	-0.532615
C201	C	-0.643471	-0.887391	-1.078573
C202	C	-0.143471	-0.387391	-0.578573
H203	H	-0.747476	-0.819991	-1.056594
H204	H	-0.247476	-0.319991	-0.556594
H205	H	-0.742125	-0.878848	-1.005046
H206	H	-0.242125	-0.378848	-0.505046
H207	H	-0.656606	-0.823488	-1.005045
H208	H	-0.156606	-0.323488	-0.505045
H209	H	-0.689005	-0.913280	-1.106141
H210	H	-0.189005	-0.413280	-0.606141
H211	H	-0.603483	-0.857912	-1.106154
H212	H	-0.103483	-0.357912	-0.606154
H213	H	-0.624879	-0.720510	-0.404547
H214	H	-0.124879	-0.220510	0.095453
C215	C	-1.230339	-1.057854	-0.246864
C216	C	-0.730339	-0.557854	0.253136
C217	C	-1.123045	-1.067010	-0.237643
C218	C	-0.623045	-0.567010	0.262357
H219	H	-1.267436	-1.087269	-0.217570
H220	H	-0.767436	-0.587269	0.282430
H221	H	-1.248256	-1.012394	-0.236901
H222	H	-0.748256	-0.512394	0.263099
H223	H	-1.248090	-1.067703	-0.292374
H224	H	-0.748090	-0.567703	0.207626
H225	H	-1.105292	-1.057157	-0.192133
H226	H	-0.605292	-0.557157	0.307867
H227	H	-1.105120	-1.112481	-0.247601
H228	H	-0.605120	-0.612481	0.252399
H229	H	-0.624893	-0.364750	-0.404569
H230	H	-0.124893	0.135250	0.095431
H231	H	-0.624899	-0.236505	-0.404578
H232	H	-0.124899	0.263495	0.095422
H233	H	-0.382061	-0.236483	-0.247782
H234	H	0.117939	0.263517	0.252218
