data_functionalizedCrystal
_audit_creation_method	'MofGen! by Chris Wilmer'
_symmetry_space_group_name_H-M	'P1'
_symmetry_Int_Tables_number	1
_symmetry_cell_setting	triclinic
loop_
_symmetry_equiv_pos_as_xyz
  x,y,z
_cell_length_a	19.805407
_cell_length_b	16.120484
_cell_length_c	19.805399
_cell_angle_alpha	87.128957
_cell_angle_beta	90.019573
_cell_angle_gamma	92.925608
loop_
_atom_site_label
_atom_site_type_symbol
_atom_site_fract_x
_atom_site_fract_y
_atom_site_fract_z
Zn1	Zn	1.021075	-0.331927	0.396377
Zn2	Zn	1.271075	-0.081927	0.646377
Zn3	Zn	1.521075	0.168073	0.896377
Zn4	Zn	1.771075	0.418073	1.146377
Zn5	Zn	1.015252	-0.471346	0.288925
Zn6	Zn	1.265252	-0.221346	0.538925
Zn7	Zn	1.515252	0.028654	0.788925
Zn8	Zn	1.765252	0.278654	1.038925
Zn9	Zn	0.907889	-0.331950	0.283203
Zn10	Zn	1.157889	-0.081950	0.533203
Zn11	Zn	1.407889	0.168050	0.783203
Zn12	Zn	1.657889	0.418050	1.033203
Zn13	Zn	0.902117	-0.471302	0.402070
Zn14	Zn	1.152117	-0.221302	0.652070
Zn15	Zn	1.402117	0.028698	0.902070
Zn16	Zn	1.652117	0.278698	1.152070
O17	O	0.961584	-0.401631	0.342644
O18	O	1.211584	-0.151631	0.592644
O19	O	1.461584	0.098369	0.842644
O20	O	1.711584	0.348369	1.092644
O21	O	1.115019	-0.350431	0.382136
O22	O	1.365019	-0.100431	0.632136
O23	O	1.615019	0.149569	0.882136
O24	O	1.865019	0.399569	1.132136
O25	O	1.000989	-0.452883	0.193451
O26	O	1.250989	-0.202883	0.443451
O27	O	1.500989	0.047117	0.693451
O28	O	1.750989	0.297117	0.943451
O29	O	0.927756	-0.215281	0.293438
O30	O	1.177756	0.034719	0.543438
O31	O	1.427756	0.284719	0.793438
O32	O	1.677756	0.534719	1.043438
O33	O	1.110741	-0.452861	0.303191
O34	O	1.360741	-0.202861	0.553191
O35	O	1.610741	0.047139	0.803191
O36	O	1.860741	0.297139	1.053191
O37	O	1.010913	-0.215264	0.376587
O38	O	1.260913	0.034736	0.626587
O39	O	1.510913	0.284736	0.876587
O40	O	1.760913	0.534736	1.126587
O41	O	0.922109	-0.350470	0.189246
O42	O	1.172109	-0.100470	0.439246
O43	O	1.422109	0.149530	0.689246
O44	O	1.672109	0.399530	0.939246
O45	O	0.812407	-0.350427	0.298958
O46	O	1.062407	-0.100427	0.548958
O47	O	1.312407	0.149573	0.798958
O48	O	1.562407	0.399573	1.048958
O49	O	0.917919	-0.452785	0.496030
O50	O	1.167919	-0.202785	0.746030
O51	O	1.417919	0.047215	0.996030
O52	O	1.667919	0.297215	1.246030
O53	O	0.808167	-0.452807	0.386290
O54	O	1.058167	-0.202807	0.636290
O55	O	1.308167	0.047193	0.886290
O56	O	1.558167	0.297193	1.136290
O57	O	1.005317	-0.350388	0.491848
O58	O	1.255317	-0.100388	0.741848
O59	O	1.505317	0.149612	0.991848
O60	O	1.755317	0.399612	1.241848
O61	O	0.995392	-0.588006	0.308712
O62	O	1.245392	-0.338006	0.558712
O63	O	1.495392	-0.088006	0.808712
O64	O	1.745392	0.161994	1.058712
O65	O	0.912273	-0.587974	0.391839
O66	O	1.162273	-0.337974	0.641839
O67	O	1.412273	-0.087974	0.891839
O68	O	1.662273	0.162026	1.141839
C69	C	0.785728	-0.401615	0.342621
C70	C	1.035728	-0.151615	0.592621
C71	C	1.285728	0.098385	0.842621
C72	C	1.535728	0.348385	1.092621
C73	C	0.710496	-0.401629	0.342628
C74	C	0.960496	-0.151629	0.592628
C75	C	1.210496	0.098371	0.842628
C76	C	1.460496	0.348371	1.092628
C77	C	0.672958	-0.455019	0.388035
C78	C	0.922958	-0.205019	0.638035
C79	C	1.172958	0.044981	0.888035
C80	C	1.422958	0.294981	1.138035
C81	C	0.602269	-0.455020	0.388045
C82	C	0.852269	-0.205020	0.638045
C83	C	1.102269	0.044980	0.888045
C84	C	1.352269	0.294980	1.138045
C85	C	0.569120	-0.401635	0.342644
C86	C	0.819120	-0.151635	0.592644
C87	C	1.069120	0.098365	0.842644
C88	C	1.319120	0.348365	1.092644
C89	C	0.606663	-0.348239	0.297235
C90	C	0.856663	-0.098239	0.547235
C91	C	1.106663	0.151761	0.797235
C92	C	1.356663	0.401761	1.047235
C93	C	0.677350	-0.348234	0.297229
C94	C	0.927350	-0.098234	0.547229
C95	C	1.177350	0.151766	0.797229
C96	C	1.427350	0.401766	1.047229
C97	C	0.321589	-0.348258	0.297258
C98	C	0.571589	-0.098258	0.547258
C99	C	0.821589	0.151742	0.797258
C100	C	1.071589	0.401742	1.047258
C101	C	0.250896	-0.348269	0.297266
C102	C	0.500896	-0.098269	0.547266
C103	C	0.750896	0.151731	0.797266
C104	C	1.000896	0.401731	1.047266
C105	C	0.246508	-0.455043	0.388074
C106	C	0.496508	-0.205043	0.638074
C107	C	0.746508	0.044957	0.888074
C108	C	0.996508	0.294957	1.138074
C109	C	0.317195	-0.455038	0.388068
C110	C	0.567195	-0.205038	0.638068
C111	C	0.817195	0.044962	0.888068
C112	C	1.067195	0.294962	1.138068
C113	C	0.354732	-0.401640	0.342662
C114	C	0.604732	-0.151640	0.592662
C115	C	0.854732	0.098360	0.842662
C116	C	1.104732	0.348360	1.092662
C117	C	0.431381	-0.401638	0.342653
C118	C	0.681381	-0.151638	0.592653
C119	C	0.931381	0.098362	0.842653
C120	C	1.181381	0.348362	1.092653
C121	C	0.492472	-0.401641	0.342649
C122	C	0.742472	-0.151641	0.592649
C123	C	0.992472	0.098359	0.842649
C124	C	1.242472	0.348359	1.092649
C125	C	0.952593	-0.618240	0.351529
C126	C	1.202593	-0.368240	0.601529
C127	C	1.452593	-0.118240	0.851529
C128	C	1.702593	0.131760	1.101529
C129	C	0.948809	-0.710906	0.355353
C130	C	1.198809	-0.460906	0.605353
C131	C	1.448809	-0.210906	0.855353
C132	C	1.698809	0.039094	1.105353
C133	C	0.941903	-0.880568	0.362347
C134	C	1.191903	-0.630568	0.612347
C135	C	1.441903	-0.380568	0.862347
C136	C	1.691903	-0.130568	1.112347
C137	C	0.981385	-0.921854	0.322951
C138	C	1.231385	-0.671854	0.572951
C139	C	1.481385	-0.421854	0.822951
C140	C	1.731385	-0.171854	1.072951
C141	C	0.977543	-1.016260	0.326843
C142	C	1.227543	-0.766260	0.576843
C143	C	1.477543	-0.516260	0.826843
C144	C	1.727543	-0.266260	1.076843
C145	C	0.945745	-0.786154	0.358456
C146	C	1.195745	-0.536154	0.608456
C147	C	1.445745	-0.286154	0.858456
C148	C	1.695745	-0.036154	1.108456
C149	C	1.138126	-0.401648	0.342667
C150	C	1.388126	-0.151648	0.592667
C151	C	1.638126	0.098352	0.842667
C152	C	1.888126	0.348352	1.092667
C153	C	1.213357	-0.401655	0.342677
C154	C	1.463357	-0.151655	0.592677
C155	C	1.713357	0.098345	0.842677
C156	C	1.963357	0.348345	1.092677
C157	C	0.961624	-0.401579	0.519184
C158	C	1.211624	-0.151579	0.769184
C159	C	1.461624	0.098421	1.019184
C160	C	1.711624	0.348421	1.269184
C161	C	0.961641	-0.401556	0.594416
C162	C	1.211641	-0.151556	0.844416
C163	C	1.461641	0.098444	1.094416
C164	C	1.711641	0.348444	1.344416
C165	C	0.970628	-0.184177	0.333739
C166	C	1.220628	0.065823	0.583739
C167	C	1.470628	0.315823	0.833739
C168	C	1.720628	0.565823	1.083739
C169	C	0.974482	-0.091511	0.329944
C170	C	1.224482	0.158489	0.579944
C171	C	1.474482	0.408489	0.829944
C172	C	1.724482	0.658489	1.079944
C173	C	0.961585	-0.401623	0.166787
C174	C	1.211585	-0.151623	0.416787
C175	C	1.461585	0.098377	0.666787
C176	C	1.711585	0.348377	0.916787
C177	C	0.961709	-0.401411	0.091547
C178	C	1.211709	-0.151411	0.341547
C179	C	1.461709	0.098589	0.591547
C180	C	1.711709	0.348589	0.841547
C181	C	1.007150	-0.348235	0.627583
C182	C	1.257150	-0.098235	0.877583
C183	C	1.507150	0.151765	1.127583
C184	C	1.757150	0.401765	1.377583
C185	C	1.007158	-0.348211	0.698270
C186	C	1.257158	-0.098211	0.948270
C187	C	1.507158	0.151789	1.198270
C188	C	1.757158	0.401789	1.448270
C189	C	0.961659	-0.401513	0.735789
C190	C	1.211659	-0.151513	0.985789
C191	C	1.461659	0.098487	1.235789
C192	C	1.711659	0.348487	1.485789
C193	C	0.916145	-0.454836	0.702617
C194	C	1.166145	-0.204836	0.952617
C195	C	1.416145	0.045164	1.202617
C196	C	1.666145	0.295164	1.452617
C197	C	0.916135	-0.454856	0.631931
C198	C	1.166135	-0.204856	0.881931
C199	C	1.416135	0.045144	1.131931
C200	C	1.666135	0.295144	1.381931
C201	C	0.916187	-0.454759	0.987688
C202	C	1.166187	-0.204759	1.237688
C203	C	1.416187	0.045241	1.487688
C204	C	1.666187	0.295241	1.737688
C205	C	0.916202	-0.454737	1.058379
C206	C	1.166202	-0.204737	1.308379
C207	C	1.416202	0.045263	1.558379
C208	C	1.666202	0.295263	1.808379
C209	C	1.007210	-0.348114	1.054027
C210	C	1.257210	-0.098114	1.304027
C211	C	1.507210	0.151886	1.554027
C212	C	1.757210	0.401886	1.804027
C213	C	1.007199	-0.348133	0.983340
C214	C	1.257199	-0.098133	1.233340
C215	C	1.507199	0.151867	1.483340
C216	C	1.757199	0.401867	1.733340
C217	C	0.961683	-0.401453	0.950174
C218	C	1.211683	-0.151453	1.200174
C219	C	1.461683	0.098547	1.450174
C220	C	1.711683	0.348547	1.700174
C221	C	0.961674	-0.401478	0.873527
C222	C	1.211674	-0.151478	1.123527
C223	C	1.461674	0.098522	1.373527
C224	C	1.711674	0.348522	1.623527
C225	C	0.961671	-0.401493	0.812436
C226	C	1.211671	-0.151493	1.062436
C227	C	1.461671	0.098507	1.312436
C228	C	1.711671	0.348507	1.562436
H229	H	0.699943	-0.498494	0.425004
H230	H	0.949943	-0.248494	0.675004
H231	H	1.199943	0.001506	0.925004
H232	H	1.449943	0.251506	1.175004
H233	H	0.905219	-0.916121	0.398995
H234	H	1.155219	-0.666121	0.648995
H235	H	1.405219	-0.416121	0.898995
H236	H	1.655219	-0.166121	1.148995
F237	F	0.206553	-0.511875	0.436400
F238	F	0.456553	-0.261875	0.686400
F239	F	0.706553	-0.011875	0.936400
F240	F	0.956553	0.238125	1.186400
H241	H	0.707913	-0.304754	0.260258
H242	H	0.957913	-0.054754	0.510258
H243	H	1.207913	0.195246	0.760258
H244	H	1.457913	0.445246	1.010258
F245	F	1.055580	-0.291508	0.587658
F246	F	1.305580	-0.041508	0.837658
F247	F	1.555580	0.208492	1.087658
F248	F	1.805580	0.458492	1.337658
H249	H	0.879149	-0.498143	1.088925
H250	H	1.129149	-0.248143	1.338925
H251	H	1.379149	0.001857	1.588925
H252	H	1.629149	0.251857	1.838925
F253	F	1.029336	-0.875384	0.275043
F254	F	1.279336	-0.625384	0.525043
F255	F	1.529336	-0.375384	0.775043
F256	F	1.779336	-0.125384	1.025043
F257	F	1.055617	-0.291488	0.733567
F258	F	1.305617	-0.041488	0.983567
F259	F	1.555617	0.208512	1.233567
F260	F	1.805617	0.458512	1.483567
F261	F	0.562322	-0.511845	0.436373
F262	F	0.812322	-0.261845	0.686373
F263	F	1.062322	-0.011845	0.936373
F264	F	1.312322	0.238155	1.186373
H265	H	0.344182	-0.498513	0.425036
H266	H	0.594182	-0.248513	0.675036
H267	H	0.844182	0.001487	0.925036
H268	H	1.094182	0.251487	1.175036
H269	H	1.044251	-0.304733	0.952796
H270	H	1.294251	-0.054733	1.202796
H271	H	1.544251	0.195267	1.452796
H272	H	1.794251	0.445267	1.702796
H273	H	1.044269	-0.304695	1.081039
H274	H	1.294269	-0.054695	1.331039
H275	H	1.544269	0.195305	1.581039
H276	H	1.794269	0.445305	1.831039
H277	H	0.879134	-0.498187	0.960693
H278	H	1.129134	-0.248187	1.210693
H279	H	1.379134	0.001813	1.460693
H280	H	1.629134	0.251813	1.710693
F281	F	0.867720	-0.511561	0.742550
F282	F	1.117720	-0.261561	0.992550
F283	F	1.367720	-0.011561	1.242550
F284	F	1.617720	0.238439	1.492550
H285	H	0.223908	-0.304791	0.260295
H286	H	0.473908	-0.054791	0.510295
H287	H	0.723908	0.195209	0.760295
H288	H	0.973908	0.445209	1.010295
F289	F	0.361529	-0.291424	0.248934
F290	F	0.611529	-0.041424	0.498934
F291	F	0.861529	0.208576	0.748934
F292	F	1.111529	0.458576	0.998934
H293	H	0.579667	-0.304769	0.260272
H294	H	0.829667	-0.054769	0.510272
H295	H	1.079667	0.195231	0.760272
H296	H	1.329667	0.445231	1.010272
F297	F	0.867696	-0.511605	0.596632
F298	F	1.117696	-0.261605	0.846632
F299	F	1.367696	-0.011605	1.096632
F300	F	1.617696	0.238395	1.346632
