data_functionalizedCrystal
_audit_creation_method	'MofGen! by Chris Wilmer'
_symmetry_space_group_name_H-M	'P1'
_symmetry_Int_Tables_number	1
_symmetry_cell_setting	triclinic
loop_
_symmetry_equiv_pos_as_xyz
  x,y,z
_cell_length_a	12.837942
_cell_length_b	10.967926
_cell_length_c	10.065918
_cell_angle_alpha	87.800512
_cell_angle_beta	98.890793
_cell_angle_gamma	89.656601
loop_
_atom_site_label
_atom_site_type_symbol
_atom_site_fract_x
_atom_site_fract_y
_atom_site_fract_z
O1	O	0.113029	1.630154	-0.269913
O2	O	0.613029	2.130154	0.230087
O3	O	0.136825	1.281526	-0.187914
O4	O	0.636825	1.781526	0.312086
O5	O	-0.025815	1.448108	-0.227103
O6	O	0.474185	1.948108	0.272897
O7	O	0.275669	1.463572	-0.230724
O8	O	0.775669	1.963572	0.269276
O9	O	-0.052147	1.413391	-0.445927
O10	O	0.447853	1.913391	0.054073
O11	O	0.110493	1.246808	-0.406738
O12	O	0.610493	1.746808	0.093262
O13	O	0.086697	1.595437	-0.488737
O14	O	0.586697	2.095437	0.011263
Zn15	Zn	0.094414	1.415611	-0.482481
Zn16	Zn	0.594414	1.915611	0.017519
Zn17	Zn	0.129108	1.461352	-0.194170
Zn18	Zn	0.629108	1.961352	0.305830
O19	O	0.249337	1.428854	-0.449548
O20	O	0.749337	1.928854	0.050452
C21	C	0.123918	1.219234	-0.286758
C22	C	0.623918	1.719234	0.213242
C23	C	0.124675	1.085347	-0.255267
C24	C	0.624675	1.585347	0.244733
C25	C	0.111371	1.007672	-0.354585
C26	C	0.611371	1.507672	0.145415
C27	C	0.112154	0.869292	-0.322040
C28	C	0.612154	1.369292	0.177960
C29	C	-0.077492	1.425527	-0.335286
C30	C	0.422508	1.925527	0.164714
C31	C	-0.192243	1.409950	-0.331620
C32	C	0.307757	1.909950	0.168380
C33	C	-0.437117	1.597221	-0.375639
C34	C	0.062883	2.097221	0.124361
C35	C	-0.544937	1.582591	-0.372195
C36	C	-0.044937	2.082591	0.127805
C37	C	-0.515702	1.366062	-0.321281
C38	C	-0.015702	1.866062	0.178719
C39	C	-0.407883	1.380692	-0.324724
C40	C	0.092117	1.880692	0.175276
C41	C	-0.368595	1.496275	-0.351906
C42	C	0.131405	1.996275	0.148094
C43	C	-0.260775	1.510903	-0.355359
C44	C	0.239225	2.010903	0.144641
C45	C	-0.231541	1.294376	-0.304435
C46	C	0.268459	1.794376	0.195565
C47	C	-0.339360	1.279746	-0.300992
C48	C	0.160640	1.779746	0.199008
C49	C	0.301015	1.451436	-0.341362
C50	C	0.801015	1.951436	0.158638
C51	C	0.415766	1.467015	-0.345019
C52	C	0.915766	1.967015	0.154981
C53	C	0.099605	1.657729	-0.389890
C54	C	0.599605	2.157729	0.110110
C55	C	0.098849	1.791617	-0.421372
C56	C	0.598849	2.291617	0.078628
N57	N	0.070736	1.384402	-0.679247
N58	N	0.570736	1.884402	-0.179247
C59	C	0.120870	1.450486	-0.762567
C60	C	0.620870	1.950486	-0.262567
C61	C	0.102636	1.426476	-0.914088
C62	C	0.602636	1.926476	-0.414088
N63	N	0.152778	1.492569	0.002594
N64	N	0.652778	1.992569	0.502594
H65	H	0.099397	1.043617	-0.463708
H66	H	0.599397	1.543617	0.036292
H67	H	-0.547708	1.271961	-0.299137
H68	H	-0.047708	1.771961	0.200863
F69	F	-0.381184	1.156742	-0.272054
F70	F	0.118816	1.656742	0.227946
H71	H	-0.600724	1.664793	-0.391517
H72	H	-0.100724	2.164793	0.108483
H73	H	-0.175739	1.212176	-0.285120
H74	H	0.324261	1.712176	0.214880
H75	H	0.177286	1.524842	-0.721726
H76	H	0.677286	2.024842	-0.221726
F77	F	0.028880	1.329291	-0.967459
F78	F	0.528880	1.829291	-0.467459
F79	F	-0.003017	1.287222	-0.732624
F80	F	0.496983	1.787222	-0.232624
F81	F	-0.395305	1.720227	-0.404595
F82	F	0.104695	2.220227	0.095405
H83	H	0.124120	0.833353	-0.212910
H84	H	0.624120	1.333353	0.287090
H85	H	0.086876	0.827555	-0.530504
H86	H	0.586876	1.327555	-0.030504
F87	F	0.140311	1.038372	-0.112632
F88	F	0.640311	1.538372	0.387368
H89	H	0.209200	1.566929	-0.956573
H90	H	0.709200	2.066929	-0.456573
H91	H	-0.228789	1.605016	-0.377496
H92	H	0.271211	2.105016	0.122504
