data_functionalizedCrystal
_audit_creation_method	'MofGen! by Chris Wilmer'
_symmetry_space_group_name_H-M	'P1'
_symmetry_Int_Tables_number	1
_symmetry_cell_setting	triclinic
loop_
_symmetry_equiv_pos_as_xyz
  x,y,z
_cell_length_a	19.288864
_cell_length_b	14.519709
_cell_length_c	18.366186
_cell_angle_alpha	89.992822
_cell_angle_beta	89.977106
_cell_angle_gamma	83.408195
loop_
_atom_site_label
_atom_site_type_symbol
_atom_site_fract_x
_atom_site_fract_y
_atom_site_fract_z
O1	O	0.921767	0.115045	-0.060785
O2	O	1.421767	0.615045	0.439215
O3	O	0.719562	0.130564	-0.060735
O4	O	1.219562	0.630564	0.439265
O5	O	0.826026	-0.011468	-0.060755
O6	O	1.326026	0.488532	0.439245
O7	O	0.815303	0.257077	-0.060765
O8	O	1.315303	0.757077	0.439235
O9	O	0.826007	-0.011475	0.060345
O10	O	1.326007	0.488525	0.560345
O11	O	0.719544	0.130557	0.060364
O12	O	1.219544	0.630557	0.560364
O13	O	0.921749	0.115038	0.060315
O14	O	1.421749	0.615038	0.560315
Zn15	Zn	0.820643	0.122797	0.079567
Zn16	Zn	1.320643	0.622797	0.579567
Zn17	Zn	0.820667	0.122806	-0.079987
Zn18	Zn	1.320667	0.622806	0.420013
O19	O	0.815285	0.257070	0.060334
O20	O	1.315285	0.757070	0.560334
C21	C	0.693675	0.130061	-0.000179
C22	C	1.193675	0.630061	0.499821
C23	C	0.616566	0.128562	-0.000160
C24	C	1.116566	0.628562	0.499840
C25	C	0.572169	0.211900	-0.000175
C26	C	1.072169	0.711900	0.499825
C27	C	0.499717	0.210492	-0.000183
C28	C	0.999717	0.710492	0.499817
C29	C	0.471665	0.125741	-0.000191
C30	C	0.971665	0.625741	0.499809
C31	C	0.516071	0.042392	-0.000172
C32	C	1.016071	0.542392	0.499828
C33	C	0.588521	0.043803	-0.000156
C34	C	1.088521	0.543803	0.499844
C35	C	0.363169	0.059120	-0.042639
C36	C	0.863169	0.559120	0.457361
C37	C	0.290720	0.057713	-0.042659
C38	C	0.790720	0.557713	0.457341
C39	C	0.248203	0.121387	-0.000234
C40	C	0.748203	0.621387	0.499766
C41	C	0.278144	0.186484	0.042200
C42	C	0.778144	0.686484	0.542200
C43	C	0.350595	0.187894	0.042215
C44	C	0.850595	0.687894	0.542215
C45	C	0.393105	0.124202	-0.000207
C46	C	0.893105	0.624202	0.499793
C47	C	0.125246	0.203203	-0.000257
C48	C	0.625246	0.703203	0.499743
C49	C	0.052792	0.201792	-0.000260
C50	C	0.552792	0.701792	0.499740
C51	C	0.069148	0.033689	-0.000257
C52	C	0.569148	0.533689	0.499743
C53	C	0.141599	0.035103	-0.000246
C54	C	0.641599	0.535103	0.499754
C55	C	0.169644	0.119863	-0.000249
C56	C	0.669644	0.619863	0.499751
C57	C	0.825517	-0.045828	-0.000205
C58	C	1.325517	0.454172	0.499795
C59	C	0.824019	-0.148200	-0.000204
C60	C	1.324019	0.351800	0.499796
C61	C	0.818507	-0.523061	-0.000222
C62	C	1.318507	-0.023061	0.499778
C63	C	0.820037	-0.418762	-0.000216
C64	C	1.320037	0.081238	0.499784
C65	C	0.821263	-0.335633	-0.000212
C66	C	1.321263	0.164367	0.499788
C67	C	0.822794	-0.231329	-0.000208
C68	C	1.322794	0.268671	0.499792
C69	C	0.947636	0.115541	-0.000243
C70	C	1.447636	0.615541	0.499757
C71	C	1.024745	0.117040	-0.000267
C72	C	1.524745	0.617040	0.499733
C73	C	0.815794	0.291430	-0.000217
C74	C	1.315794	0.791430	0.499783
C75	C	0.817291	0.393802	-0.000223
C76	C	1.317291	0.893802	0.499777
N77	N	0.820632	0.122790	0.188458
N78	N	1.320632	0.622790	0.688458
N79	N	0.820684	0.122805	-0.188878
N80	N	1.320684	0.622805	0.311122
C81	C	0.867790	0.059929	0.226549
C82	C	1.367790	0.559929	0.726549
C83	C	0.867794	0.059925	0.302777
C84	C	1.367794	0.559925	0.802777
C85	C	0.820648	0.122797	0.340910
C86	C	1.320648	0.622797	0.840910
C87	C	0.773481	0.185663	0.302809
C88	C	1.273481	0.685663	0.802809
C89	C	0.773473	0.185659	0.226583
C90	C	1.273473	0.685659	0.726583
C91	C	0.811652	0.206826	0.461669
C92	C	1.311652	0.706826	0.961669
C93	C	0.811664	0.206831	0.537894
C94	C	1.311664	0.706831	1.037894
C95	C	0.820667	0.122809	0.576018
C96	C	1.320667	0.622809	1.076018
C97	C	0.829673	0.038778	0.537908
C98	C	1.329673	0.538778	1.037908
C99	C	0.829665	0.038775	0.461681
C100	C	1.329665	0.538775	0.961681
C101	C	0.820650	0.122808	0.423565
C102	C	1.320650	0.622808	0.923565
C103	C	0.867832	0.059938	0.696765
C104	C	1.367832	0.559938	1.196765
C105	C	0.867832	0.059933	0.772994
C106	C	1.367832	0.559933	1.272994
C107	C	0.773522	0.185679	0.773025
C108	C	1.273522	0.685679	1.273025
C109	C	0.773519	0.185677	0.696797
C110	C	1.273519	0.685677	1.196797
C111	C	0.820678	0.122807	0.658671
C112	C	1.320678	0.622807	1.158671
H113	H	0.594998	0.280918	-0.000179
H114	H	1.094998	0.780918	0.499821
H115	H	0.735092	0.236854	0.333861
H116	H	1.235092	0.736854	0.833861
H117	H	0.837003	-0.029640	0.568947
H118	H	1.337003	0.470360	1.068947
O119	O	0.451819	0.300381	-0.000195
O120	O	0.951819	0.800381	0.499805
H121	H	0.418444	0.303750	-0.049558
H122	H	0.918444	0.803750	0.450442
O123	O	0.382895	0.258065	0.088011
O124	O	0.882895	0.758065	0.588011
H125	H	0.341166	0.302095	0.117523
H126	H	0.841166	0.802095	0.617523
H127	H	0.016645	0.269658	-0.000268
H128	H	0.516645	0.769658	0.499732
O129	O	0.918650	-0.007885	0.185433
O130	O	1.418650	0.492115	0.685433
H131	H	0.910728	0.002675	0.126027
H132	H	1.410728	0.502675	0.626027
O133	O	0.722673	0.253512	0.814131
O134	O	1.222673	0.753512	1.314131
H135	H	0.688866	0.214825	0.848891
H136	H	1.188866	0.714825	1.348891
H137	H	0.735122	0.236868	0.665780
H138	H	1.235122	0.736868	1.165780
O139	O	0.636408	-0.046090	-0.000145
O140	O	1.136408	0.453910	0.499855
H141	H	0.669777	-0.049471	0.049223
H142	H	1.169777	0.450529	0.549223
O143	O	0.801956	0.297458	0.578997
O144	O	1.301956	0.797458	1.078997
H145	H	0.848363	0.303223	0.613691
H146	H	1.348363	0.803223	1.113691
O147	O	0.918665	-0.007868	0.343877
O148	O	1.418665	0.492132	0.843877
H149	H	0.951460	-0.051580	0.304559
H150	H	1.451460	0.448420	0.804559
H151	H	0.735071	0.236849	0.195568
H152	H	1.235071	0.736849	0.695568
H153	H	0.906230	0.008743	0.665722
H154	H	1.406230	0.508743	1.165722
O155	O	0.232300	0.255164	0.087968
O156	O	0.732300	0.755164	0.587968
H157	H	0.176891	0.243242	0.080839
H158	H	0.676891	0.743242	0.580839
O159	O	0.155503	0.294616	-0.000246
O160	O	0.655503	0.794616	0.499754
H161	H	0.112455	0.352332	-0.000243
H162	H	0.612455	0.852332	0.499757
H163	H	0.046308	-0.035317	-0.000308
H164	H	0.546308	0.464683	0.499692
H165	H	0.177748	-0.032760	-0.000238
H166	H	0.677748	0.467240	0.499762
O167	O	0.801938	0.297449	0.420543
O168	O	1.301938	0.797449	0.920543
H169	H	0.844455	0.339482	0.435134
H170	H	1.344455	0.839482	0.935134
O171	O	0.258428	-0.012504	-0.088415
O172	O	0.758428	0.487496	0.411585
H173	H	0.300163	-0.056559	-0.117898
H174	H	0.800163	0.443441	0.382102
O175	O	0.409029	-0.009560	-0.088397
O176	O	0.909029	0.490440	0.411603
H177	H	0.394237	-0.000300	-0.146559
H178	H	0.894237	0.499700	0.353441
O179	O	0.485821	-0.049021	-0.000181
O180	O	0.985821	0.450979	0.499819
H181	H	0.427982	-0.036002	-0.000201
H182	H	0.927982	0.463998	0.499799
O183	O	0.839364	-0.051849	0.420573
O184	O	1.339364	0.448151	0.920573
H185	H	0.845621	-0.110279	0.459883
H186	H	1.345621	0.389721	0.959883
O187	O	0.918704	-0.007861	0.814085
O188	O	1.418704	0.492139	1.314085
H189	H	0.951500	-0.051566	0.774764
H190	H	1.451500	0.448434	1.274764
