data_functionalizedCrystal
_audit_creation_method	'MofGen! by Chris Wilmer'
_symmetry_space_group_name_H-M	'P1'
_symmetry_Int_Tables_number	1
_symmetry_cell_setting	triclinic
loop_
_symmetry_equiv_pos_as_xyz
  x,y,z
_cell_length_a	27.440280
_cell_length_b	14.628931
_cell_length_c	14.628931
_cell_angle_alpha	60.000193
_cell_angle_beta	89.995125
_cell_angle_gamma	59.993866
loop_
_atom_site_label
_atom_site_type_symbol
_atom_site_fract_x
_atom_site_fract_y
_atom_site_fract_z
Zr1	Zr	0.469496	1.000492	-0.119991
O2	O	0.391678	1.191212	-0.265946
O3	O	0.493352	0.809782	-0.075248
O4	O	0.493352	1.000488	-0.265953
O5	O	0.391678	1.000507	0.075191
O6	O	0.573554	1.000473	-0.265959
O7	O	0.391678	1.000507	-0.075241
O8	O	0.573554	0.659336	0.075178
O9	O	0.391678	1.341644	-0.265946
O10	O	0.563380	0.888210	-0.056170
O11	O	0.503526	0.888221	0.056100
O12	O	0.503526	1.112752	-0.168431
O13	O	0.443672	1.112763	-0.056161
Zr14	Zr	0.597409	1.000470	0.119921
Zr15	Zr	0.597409	1.000469	-0.120000
Zr16	Zr	0.469496	1.000493	0.119930
Zr17	Zr	0.469496	1.240414	-0.119991
Zr18	Zr	0.597409	0.760548	0.119921
O19	O	0.573553	1.191179	0.075178
O20	O	0.573554	1.191178	-0.265959
O21	O	0.391678	1.191213	0.075191
O22	O	0.675227	0.809750	0.265876
O23	O	0.675227	0.809749	-0.075261
O24	O	0.493351	0.809783	0.265889
O25	O	0.675227	1.000455	-0.075260
O26	O	0.573553	1.000474	0.265884
O27	O	0.493351	1.000489	0.265889
O28	O	0.675227	1.000455	0.075171
O29	O	0.493351	1.341625	-0.265953
O30	O	0.573554	0.659337	0.265883
O31	O	0.675227	0.659318	0.265876
O32	O	0.675227	0.659318	0.075171
O33	O	0.391678	1.341644	-0.075241
O34	O	0.493351	1.341626	-0.075248
O35	O	0.563379	0.888210	0.168361
O36	O	0.623233	0.888199	0.056092
O37	O	0.563379	1.112741	-0.056170
O38	O	0.503525	1.112752	0.056100
C39	C	0.533453	0.700376	-0.000035
C40	C	0.533453	0.598523	-0.000036
C41	C	0.503761	0.553119	0.055658
C42	C	0.503761	0.447849	0.055659
C43	C	0.373453	1.000510	-0.000024
C44	C	0.319151	1.000520	-0.000020
C45	C	-0.017547	1.000452	-0.082911
C46	C	-0.068565	1.000443	-0.082911
O47	O	-0.094940	1.000394	-0.153369
N48	N	-0.094083	1.000445	-0.000039
C49	C	-0.068577	1.000444	0.082847
O50	O	-0.094966	1.000444	0.153337
C51	C	-0.017557	1.000444	0.082851
C52	C	0.007954	1.000454	-0.000034
C53	C	0.007965	1.000461	-0.165788
C54	C	0.058979	1.000473	-0.165788
C55	C	0.084480	1.000475	-0.082911
C56	C	0.058968	1.000466	-0.000034
C57	C	0.007950	1.000433	0.165740
C58	C	0.058974	1.000432	0.165738
C59	C	0.084485	1.000443	0.082853
C60	C	0.135484	1.000480	0.082843
N61	N	0.161001	1.000478	-0.000030
C62	C	0.135500	1.000475	-0.082907
C63	C	-0.175720	1.000442	0.082833
C64	C	-0.226741	1.000451	0.082825
C65	C	-0.226725	1.000447	-0.082933
C66	C	-0.175706	1.000447	-0.082928
C67	C	-0.150203	1.000439	-0.000040
C68	C	0.242632	1.000501	-0.082902
C69	C	0.293649	1.000518	-0.082897
C70	C	0.293630	1.000514	0.082863
C71	C	0.242616	1.000504	0.082855
C72	C	0.217120	1.000493	-0.000032
O73	O	0.161892	1.000524	0.153267
O74	O	0.161900	1.000458	-0.153377
C75	C	0.693452	1.000452	-0.000046
C76	C	0.747754	1.000442	-0.000050
C77	C	0.533453	1.000480	-0.300140
C78	C	0.533453	1.000480	-0.401993
C79	C	0.533452	1.300586	-0.000034
C80	C	0.533452	1.402439	-0.000034
C81	C	0.503761	1.111868	-0.503091
C82	C	0.503761	1.111870	-0.608362
C83	C	0.533452	1.000482	0.300070
C84	C	0.533452	1.000482	0.401923
C85	C	0.693452	0.700346	-0.000046
C86	C	0.747755	0.598484	-0.000050
C87	C	0.533452	0.700377	0.300069
C88	C	0.533452	0.598524	0.401922
C89	C	0.693452	0.700347	0.300059
C90	C	0.747754	0.598485	0.401907
C91	C	0.373453	1.300615	-0.300128
C92	C	0.319151	1.402477	-0.401977
C93	C	0.373453	1.300615	-0.000024
C94	C	0.319150	1.402478	-0.000020
C95	C	0.533452	1.300585	-0.300139
C96	C	0.533452	1.402438	-0.401992
C97	C	0.742013	0.550653	-0.058661
C98	C	0.793031	0.454955	-0.058687
C99	C	0.849790	0.407083	-0.000095
C100	C	0.855531	0.454923	0.058518
C101	C	0.804514	0.550626	0.058537
C102	C	0.804504	0.550643	0.391133
C103	C	0.855532	0.454946	0.486822
C104	C	0.849809	0.407085	0.593284
C105	C	0.793053	0.454936	0.604056
C106	C	0.742027	0.550638	0.508368
C107	C	0.262401	1.450330	-0.391203
C108	C	0.211373	1.546058	-0.486892
C109	C	0.217096	1.593923	-0.593354
C110	C	0.273852	1.546066	-0.604126
C111	C	0.324878	1.450347	-0.508438
C112	C	0.324892	1.450319	0.058581
C113	C	0.273874	1.546043	0.058581
C114	C	0.217115	1.593918	-0.000015
C115	C	0.211374	1.546074	-0.058623
C116	C	0.262391	1.450358	-0.058629
C117	C	0.563144	0.553110	0.503020
C118	C	0.563145	0.447840	0.608292
H119	H	0.478342	0.408800	0.103343
H120	H	0.165153	1.585069	-0.106330
C121	C	0.256091	1.397705	-0.274104
N122	N	0.251333	1.358080	-0.185907
H123	H	0.478344	1.207229	-0.511709
H124	H	0.891327	0.329155	-0.000118
C125	C	0.280137	1.598720	-0.721245
N126	N	0.284869	1.638374	-0.809462
C127	C	0.214592	1.000494	-0.174085
N128	N	0.193469	1.000498	-0.242769
C129	C	0.917972	0.402240	0.122974
N130	N	0.965005	0.362549	0.171530
C131	C	0.567795	0.545755	-0.064452
N132	N	0.593663	0.506010	-0.112971
C133	C	0.597487	0.605863	0.514671
N134	N	0.623357	0.645593	0.523449
H135	H	0.478337	1.207233	-0.695091
H136	H	0.901740	0.415995	0.478031
H137	H	-0.012793	1.000454	-0.233277
C138	C	-0.147672	1.000436	0.174020
N139	N	-0.126547	1.000426	0.242706
C140	C	0.679582	0.603302	-0.123129
N141	N	0.632560	0.642957	-0.171697
C142	C	0.597488	0.395079	0.725458
N143	N	0.623356	0.355338	0.813712
H144	H	0.478339	0.592187	0.103333
C145	C	0.810840	0.603216	0.123030
N146	N	0.815610	0.642821	0.171612
H147	H	0.809175	0.589597	0.304455
C148	C	0.567829	0.871640	-0.480915
N149	N	0.593734	0.774597	-0.392661
C150	C	0.160959	1.699207	-0.698603
N151	N	0.118675	1.778501	-0.777873
C152	C	0.499119	0.455176	0.480844
N153	N	0.473261	0.494899	0.392590
H154	H	0.079737	1.000422	0.233239
C155	C	0.905945	0.301800	0.698533
N156	N	0.948230	0.222494	0.777803
C157	C	0.786768	0.402265	0.721175
N158	N	0.782035	0.362582	0.809392
C159	C	0.087041	1.000463	-0.256958
N160	N	0.108176	1.000448	-0.325629
H161	H	0.558874	0.905118	-0.393374
C162	C	-0.147645	1.000446	-0.174101
N163	N	-0.126510	1.000440	-0.242773
H164	H	0.257708	1.411409	-0.106346
H165	H	0.558876	0.441474	-0.047713
H166	H	0.788345	0.416016	-0.106417
C167	C	-0.254784	1.000432	-0.174093
N168	N	-0.275918	1.000418	-0.242750
C169	C	0.148948	1.598681	-0.475018
N170	N	0.101931	1.638314	-0.466071
C171	C	0.321711	1.000522	-0.174077
N172	N	0.342846	1.000521	-0.242750
H173	H	0.508030	0.559475	0.393304
H174	H	-0.247515	1.000463	0.150307
C175	C	-0.020098	1.000408	0.256928
N176	N	-0.041221	1.000383	0.325620
H177	H	0.221839	1.000514	0.150338
H178	H	0.314400	1.000522	0.150338
H179	H	0.695821	0.589579	0.517156
C180	C	0.387302	1.397704	-0.520309
N181	N	0.434318	1.358055	-0.529258
H182	H	0.371104	1.411346	0.106305
H183	H	0.278560	1.584982	0.106311
C184	C	0.160999	1.699203	0.000009
N185	N	0.118735	1.778500	0.000034
