data_functionalizedCrystal
_audit_creation_method	'MofGen! by Chris Wilmer'
_symmetry_space_group_name_H-M	'P1'
_symmetry_Int_Tables_number	1
_symmetry_cell_setting	triclinic
loop_
_symmetry_equiv_pos_as_xyz
  x,y,z
_cell_length_a	19.805407
_cell_length_b	16.959453
_cell_length_c	19.805399
_cell_angle_alpha	90.027222
_cell_angle_beta	90.017803
_cell_angle_gamma	90.020042
loop_
_atom_site_label
_atom_site_type_symbol
_atom_site_fract_x
_atom_site_fract_y
_atom_site_fract_z
Zn1	Zn	1.034753	-0.314756	0.382689
Zn2	Zn	1.368086	0.018577	0.716023
Zn3	Zn	1.701420	0.351910	1.049356
Zn4	Zn	1.034675	-0.446939	0.269502
Zn5	Zn	1.368008	-0.113606	0.602835
Zn6	Zn	1.701342	0.219728	0.936168
Zn7	Zn	0.921568	-0.314772	0.269517
Zn8	Zn	1.254901	0.018561	0.602851
Zn9	Zn	1.588234	0.351895	0.936184
Zn10	Zn	0.921538	-0.446891	0.382652
Zn11	Zn	1.254872	-0.113557	0.715985
Zn12	Zn	1.588205	0.219776	1.049319
O13	O	0.978134	-0.380840	0.326090
O14	O	1.311467	-0.047506	0.659423
O15	O	1.644800	0.285827	0.992757
O16	O	1.129459	-0.332304	0.367684
O17	O	1.462793	0.001029	0.701017
O18	O	1.796126	0.334362	1.034351
O19	O	1.019651	-0.429433	0.174787
O20	O	1.352984	-0.096100	0.508121
O21	O	1.686317	0.237233	0.841454
O22	O	0.936627	-0.204159	0.284552
O23	O	1.269960	0.129174	0.617885
O24	O	1.603293	0.462508	0.951219
O25	O	1.129402	-0.429418	0.284525
O26	O	1.462735	-0.096085	0.617859
O27	O	1.796069	0.237248	0.951192
O28	O	1.019784	-0.204148	0.367699
O29	O	1.353117	0.129186	0.701032
O30	O	1.686450	0.462519	1.034366
O31	O	0.936551	-0.332331	0.174799
O32	O	1.269885	0.001002	0.508132
O33	O	1.603218	0.334336	0.841465
O34	O	0.826847	-0.332284	0.284516
O35	O	1.160181	0.001049	0.617849
O36	O	1.493514	0.334382	0.951183
O37	O	0.936577	-0.429336	0.477374
O38	O	1.269910	-0.096003	0.810707
O39	O	1.603244	0.237331	1.144040
O40	O	0.826826	-0.429351	0.367635
O41	O	1.160159	-0.096018	0.700969
O42	O	1.493492	0.237315	1.034302
O43	O	1.019755	-0.332258	0.477401
O44	O	1.353089	0.001076	0.810734
O45	O	1.686422	0.334409	1.144068
O46	O	1.019622	-0.557543	0.284489
O47	O	1.352956	-0.224210	0.617823
O48	O	1.686289	0.109123	0.951156
O49	O	0.936501	-0.557508	0.367620
O50	O	1.269835	-0.224175	0.700954
O51	O	1.603168	0.109159	1.034287
C52	C	0.802278	-0.380815	0.326074
C53	C	1.135611	-0.047481	0.659407
C54	C	1.468944	0.285852	0.992740
C55	C	0.727046	-0.380823	0.326083
C56	C	1.060379	-0.047490	0.659416
C57	C	1.393712	0.285843	0.992749
C58	C	0.691732	-0.330346	0.369449
C59	C	1.025065	0.002988	0.702782
C60	C	1.358398	0.336321	1.036116
C61	C	0.621043	-0.330350	0.369452
C62	C	0.954377	0.002984	0.702785
C63	C	1.287710	0.336317	1.036118
C64	C	0.585670	-0.380836	0.326091
C65	C	0.919003	-0.047503	0.659424
C66	C	1.252337	0.285831	0.992758
C67	C	0.620989	-0.431316	0.282720
C68	C	0.954322	-0.097983	0.616053
C69	C	1.287655	0.235351	0.949386
C70	C	0.691676	-0.431307	0.282714
C71	C	1.025009	-0.097974	0.616048
C72	C	1.358342	0.235359	0.949381
C73	C	0.335915	-0.431352	0.282740
C74	C	0.669249	-0.098018	0.616074
C75	C	1.002582	0.235315	0.949407
C76	C	0.265223	-0.431358	0.282751
C77	C	0.598557	-0.098025	0.616084
C78	C	0.931890	0.235309	0.949417
C79	C	0.265283	-0.330394	0.369478
C80	C	0.598616	0.002939	0.702811
C81	C	0.931950	0.336273	1.036145
C82	C	0.335970	-0.330385	0.369473
C83	C	0.669303	0.002948	0.702806
C84	C	1.002637	0.336281	1.036139
C85	C	0.371283	-0.380862	0.326099
C86	C	0.704616	-0.047528	0.659432
C87	C	1.037949	0.285805	0.992766
C88	C	0.447931	-0.380856	0.326096
C89	C	0.781264	-0.047522	0.659429
C90	C	1.114598	0.285811	0.992763
C91	C	0.509023	-0.380847	0.326097
C92	C	0.842356	-0.047514	0.659430
C93	C	1.175689	0.285820	0.992764
C94	C	0.978069	-0.586206	0.326064
C95	C	1.311402	-0.252873	0.659397
C96	C	1.644735	0.080461	0.992730
C97	C	0.978103	-0.674062	0.326075
C98	C	1.311436	-0.340729	0.659408
C99	C	1.644770	-0.007396	0.992742
C100	C	0.934859	-0.715411	0.282754
C101	C	1.268193	-0.382077	0.616087
C102	C	1.601526	-0.048744	0.949420
C103	C	1.021375	-0.715268	0.369411
C104	C	1.354708	-0.381934	0.702745
C105	C	1.688042	-0.048601	1.036078
C106	C	1.021407	-0.797814	0.369426
C107	C	1.354740	-0.464480	0.702760
C108	C	1.688073	-0.131147	1.036093
C109	C	0.978163	-0.839162	0.326105
C110	C	1.311497	-0.505828	0.659438
C111	C	1.644830	-0.172495	0.992771
C112	C	0.934888	-0.797964	0.282768
C113	C	1.268222	-0.464631	0.616102
C114	C	1.601555	-0.131297	0.949435
C115	C	1.064676	-0.839018	0.412766
C116	C	1.398009	-0.505684	0.746100
C117	C	1.731343	-0.172351	1.079433
C118	C	1.064709	-0.921568	0.412783
C119	C	1.398042	-0.588235	0.746117
C120	C	1.731376	-0.254902	1.079450
C121	C	1.021468	-0.962918	0.369458
C122	C	1.354802	-0.629585	0.702791
C123	C	1.688135	-0.296251	1.036125
C124	C	0.978192	-0.921715	0.326119
C125	C	1.311526	-0.588382	0.659453
C126	C	1.644859	-0.255049	0.992786
C127	C	0.934949	-0.963063	0.282798
C128	C	1.268282	-0.629730	0.616131
C129	C	1.601615	-0.296397	0.949465
C130	C	0.891676	-0.921862	0.239456
C131	C	1.225009	-0.588529	0.572789
C132	C	1.558342	-0.255196	0.906122
C133	C	0.891648	-0.839314	0.239443
C134	C	1.224981	-0.505980	0.572776
C135	C	1.558315	-0.172647	0.906110
C136	C	1.021496	-1.045467	0.369471
C137	C	1.354829	-0.712133	0.702804
C138	C	1.688163	-0.378800	1.036137
C139	C	0.934978	-1.045617	0.282813
C140	C	1.268311	-0.712284	0.616146
C141	C	1.601644	-0.378950	0.949479
C142	C	1.154676	-0.380865	0.326107
C143	C	1.488010	-0.047532	0.659440
C144	C	1.821343	0.285802	0.992774
C145	C	1.229908	-0.380876	0.326114
C146	C	1.563242	-0.047542	0.659448
C147	C	1.896575	0.285791	0.992781
C148	C	0.978171	-0.380790	0.502633
C149	C	1.311505	-0.047456	0.835966
C150	C	1.644838	0.285877	1.169300
C151	C	0.978188	-0.380769	0.577865
C152	C	1.311521	-0.047435	0.911198
C153	C	1.644854	0.285898	1.244532
C154	C	0.978217	-0.174671	0.326131
C155	C	1.311550	0.158662	0.659465
C156	C	1.644884	0.491995	0.992798
C157	C	0.978253	-0.086815	0.326149
C158	C	1.311586	0.246519	0.659482
C159	C	1.644919	0.579852	0.992816
C160	C	0.978135	-0.380832	0.150234
C161	C	1.311468	-0.047499	0.483568
C162	C	1.644801	0.285835	0.816901
C163	C	0.978250	-0.380631	0.075003
C164	C	1.311583	-0.047297	0.408336
C165	C	1.644916	0.286036	0.741669
C166	C	1.021500	-0.330217	0.613224
C167	C	1.354833	0.003116	0.946558
C168	C	1.688166	0.336449	1.279891
C169	C	1.021506	-0.330194	0.683913
C170	C	1.354840	0.003139	1.017246
C171	C	1.688173	0.336472	1.350580
C172	C	0.978204	-0.380727	0.719241
C173	C	1.311538	-0.047394	1.052574
C174	C	1.644871	0.285939	1.385907
C175	C	0.934888	-0.431281	0.683876
C176	C	1.268221	-0.097947	1.017210
C177	C	1.601554	0.235386	1.350543
C178	C	0.934878	-0.431299	0.613189
C179	C	1.268211	-0.097966	0.946522
C180	C	1.601545	0.235368	1.279856
C181	C	0.934926	-0.431207	0.968950
C182	C	1.268259	-0.097874	1.302283
C183	C	1.601593	0.235460	1.635616
C184	C	0.934941	-0.431186	1.039642
C185	C	1.268274	-0.097853	1.372975
C186	C	1.601607	0.235480	1.706308
C187	C	1.021555	-0.330102	1.039674
C188	C	1.354888	0.003231	1.373007
C189	C	1.688221	0.336564	1.706340
C190	C	1.021545	-0.330121	0.968986
C191	C	1.354878	0.003213	1.302320
C192	C	1.688211	0.336546	1.635653
C193	C	0.978226	-0.380671	0.933628
C194	C	1.311559	-0.047338	1.266961
C195	C	1.644893	0.285996	1.600295
C196	C	0.978218	-0.380694	0.856980
C197	C	1.311551	-0.047361	1.190313
C198	C	1.644885	0.285973	1.523646
C199	C	0.978215	-0.380709	0.795888
C200	C	1.311549	-0.047375	1.129221
C201	C	1.644882	0.285958	1.462554
H202	H	0.592294	-0.289247	0.404766
H203	H	0.925627	0.044086	0.738100
H204	H	1.258961	0.377420	1.071433
H205	H	0.899629	-0.681862	0.247463
H206	H	1.232962	-0.348529	0.580796
H207	H	1.566295	-0.015196	0.914130
H208	H	0.236523	-0.289291	0.404792
H209	H	0.569856	0.044043	0.738126
H210	H	0.903190	0.377376	1.071459
H211	H	0.856416	-0.805763	0.204156
H212	H	1.189749	-0.472429	0.537489
H213	H	1.523082	-0.139096	0.870823
O214	O	0.370179	-0.480501	0.240684
O215	O	0.703512	-0.147167	0.574017
O216	O	1.036846	0.186166	0.907350
C217	C	0.352880	-0.559303	0.255347
C218	C	0.686213	-0.225970	0.588681
C219	C	1.019546	0.107364	0.922014
H220	H	0.333475	-0.563378	0.309417
H221	H	0.666809	-0.230044	0.642751
H222	H	1.000142	0.103289	0.976084
H223	H	0.399353	-0.598343	0.249447
H224	H	0.732686	-0.265009	0.582780
H225	H	1.066019	0.068324	0.916113
H226	H	0.311824	-0.579910	0.219036
H227	H	0.645157	-0.246576	0.552369
H228	H	0.978491	0.086757	0.885703
H229	H	1.056763	-0.289070	0.584466
H230	H	1.390097	0.044263	0.917799
H231	H	1.723430	0.377597	1.251132
H232	H	0.236424	-0.472472	0.247439
H233	H	0.569757	-0.139139	0.580772
H234	H	0.903091	0.194194	0.914105
H235	H	0.592182	-0.472419	0.247411
H236	H	0.925515	-0.139086	0.580745
H237	H	1.258849	0.194247	0.914078
H238	H	0.856463	-0.955539	0.204187
H239	H	1.189797	-0.622205	0.537520
H240	H	1.523130	-0.288872	0.870853
H241	H	0.364768	-0.289277	0.404784
H242	H	0.698101	0.044057	0.738117
H243	H	1.031434	0.377390	1.071450
H244	H	0.899676	-0.472338	1.068404
H245	H	1.233009	-0.139005	1.401737
H246	H	1.566343	0.194329	1.735070
O247	O	1.063357	-0.674983	0.411428
O248	O	1.396690	-0.341650	0.744762
O249	O	1.730023	-0.008317	1.078095
C250	C	1.054037	-0.593289	0.402137
C251	C	1.387371	-0.259956	0.735470
C252	C	1.720704	0.073378	1.068803
H253	H	1.031898	-0.582077	0.349879
H254	H	1.365231	-0.248743	0.683213
H255	H	1.698565	0.084590	1.016546
H256	H	1.104721	-0.561864	0.406770
H257	H	1.438054	-0.228531	0.740103
H258	H	1.771387	0.104803	1.073437
H259	H	1.017958	-0.569866	0.442247
H260	H	1.351292	-0.236533	0.775580
H261	H	1.684625	0.096800	1.108913
O262	O	1.063646	-0.281067	0.718156
O263	O	1.396980	0.052267	1.051490
O264	O	1.730313	0.385600	1.384823
C265	C	1.101855	-0.236460	0.671818
C266	C	1.435188	0.096873	1.005151
C267	C	1.768522	0.430206	1.338484
H268	H	1.104176	-0.268852	0.621424
H269	H	1.437509	0.064481	0.954757
H270	H	1.770843	0.397815	1.288090
H271	H	1.155190	-0.228036	0.692252
H272	H	1.488524	0.105298	1.025585
H273	H	1.821857	0.438631	1.358919
H274	H	1.077097	-0.176424	0.664307
H275	H	1.410430	0.156909	0.997640
H276	H	1.743764	0.490242	1.330973
H277	H	0.720427	-0.472411	0.247400
H278	H	1.053761	-0.139078	0.580734
H279	H	1.387094	0.194256	0.914067
O280	O	0.892818	-0.480374	0.934713
O281	O	1.226152	-0.147041	1.268047
O282	O	1.559485	0.186292	1.601380
C283	C	0.854587	-0.524951	0.981055
C284	C	1.187920	-0.191617	1.314388
C285	C	1.521254	0.141716	1.647721
H286	H	0.882327	-0.527695	1.031441
H287	H	1.215660	-0.194362	1.364774
H288	H	1.548993	0.138972	1.698108
H289	H	0.847317	-0.587227	0.960612
H290	H	1.180650	-0.253894	1.293946
H291	H	1.513984	0.079439	1.627279
H292	H	0.803204	-0.495977	0.988584
H293	H	1.136537	-0.162644	1.321917
H294	H	1.469871	0.170690	1.655250
H295	H	0.899765	-1.079277	0.247533
H296	H	1.233099	-0.745944	0.580866
H297	H	1.566432	-0.412610	0.914199
O298	O	0.892760	-0.480395	0.718087
O299	O	1.226094	-0.147062	1.051420
O300	O	1.559427	0.186272	1.384753
C301	C	0.854542	-0.525031	0.671717
C302	C	1.187875	-0.191697	1.005050
C303	C	1.521208	0.141636	1.338383
H304	H	0.852202	-0.492666	0.621336
H305	H	1.185536	-0.159332	0.954669
H306	H	1.518869	0.174001	1.288003
H307	H	0.801213	-0.533452	0.692131
H308	H	1.134547	-0.200118	1.025464
H309	H	1.467880	0.133215	1.358798
H310	H	0.879303	-0.585067	0.664188
H311	H	1.212637	-0.251734	0.997521
H312	H	1.545970	0.081599	1.330854
H313	H	1.099880	-0.805349	0.448041
H314	H	1.433213	-0.472016	0.781374
H315	H	1.766547	-0.138683	1.114708
H316	H	0.899602	-0.472455	0.584400
H317	H	1.232935	-0.139122	0.917733
H318	H	1.566269	0.194211	1.251067
H319	H	1.099946	-0.955108	0.448074
H320	H	1.433280	-0.621774	0.781407
H321	H	1.766613	-0.288441	1.114741
O322	O	1.063484	-1.085407	0.411666
O323	O	1.396818	-0.752074	0.745000
O324	O	1.730151	-0.418740	1.078333
C325	C	1.048615	-1.065211	0.479106
C326	C	1.381948	-0.731878	0.812439
C327	C	1.715281	-0.398544	1.145772
H328	H	1.022579	-1.005293	0.480468
H329	H	1.355913	-0.671960	0.813802
H330	H	1.689246	-0.338627	1.147135
H331	H	1.097435	-1.062328	0.509515
H332	H	1.430768	-0.728994	0.842848
H333	H	1.764102	-0.395661	1.176181
H334	H	1.013807	-1.111680	0.501867
H335	H	1.347140	-0.778346	0.835200
H336	H	1.680473	-0.445013	1.168534
H337	H	1.056808	-0.288974	0.940226
H338	H	1.390141	0.044359	1.273559
H339	H	1.723475	0.377692	1.606893
H340	H	1.056825	-0.288939	1.068471
H341	H	1.390158	0.044394	1.401804
H342	H	1.723491	0.377728	1.735137
H343	H	0.720528	-0.289236	0.404761
H344	H	1.053861	0.044098	0.738094
H345	H	1.387194	0.377431	1.071427
