data_functionalizedCrystal
_audit_creation_method	'MofGen! by Chris Wilmer'
_symmetry_space_group_name_H-M	'P1'
_symmetry_Int_Tables_number	1
_symmetry_cell_setting	triclinic
loop_
_symmetry_equiv_pos_as_xyz
  x,y,z
_cell_length_a	15.072220
_cell_length_b	11.792241
_cell_length_c	11.792241
_cell_angle_alpha	95.806584
_cell_angle_beta	89.998778
_cell_angle_gamma	90.008318
loop_
_atom_site_label
_atom_site_type_symbol
_atom_site_fract_x
_atom_site_fract_y
_atom_site_fract_z
O1	O	-0.073697	-1.506923	0.155560
O2	O	-0.073717	-1.176582	0.171593
O3	O	-0.073700	-1.349769	-0.001594
O4	O	-0.073714	-1.333736	0.328747
O5	O	0.073865	-1.349726	-0.001584
O6	O	0.073848	-1.176539	0.171603
O7	O	0.073868	-1.506880	0.155570
Zn8	Zn	0.097287	-1.341702	0.163588
Zn9	Zn	-0.097136	-1.341759	0.163575
O10	O	0.073851	-1.333693	0.328757
C11	C	0.000063	-1.134269	0.170591
C12	C	0.000055	-1.008255	0.167576
N13	N	0.229976	-1.341672	0.163596
N14	N	-0.229825	-1.341798	0.163559
C15	C	0.589178	-1.341757	0.163571
C16	C	0.551561	-1.248773	0.255925
C17	C	0.448736	-1.248989	0.256266
C18	C	0.410973	-1.341714	0.163583
C19	C	0.448271	-1.460301	0.190178
C20	C	0.551129	-1.459781	0.190835
C21	C	0.551281	-1.317207	0.044353
C22	C	0.448417	-1.314495	0.045130
C23	C	0.310260	-1.341697	0.163588
C24	C	0.689891	-1.341781	0.163569
C25	C	0.000082	-1.348740	-0.043880
C26	C	0.000081	-1.345726	-0.169894
C27	C	0.000086	-1.549192	0.156572
C28	C	0.000088	-1.675206	0.159587
C29	C	0.000080	-0.777543	0.162034
C30	C	0.000066	-0.905928	0.165113
C31	C	0.000066	-1.340183	-0.400606
C32	C	0.000074	-1.343262	-0.272221
C33	C	0.000067	-1.334721	0.371043
C34	C	0.000062	-1.337736	0.497057
H35	H	0.423520	-1.160865	0.240313
H36	H	0.423809	-1.531177	0.124732
C37	C	0.584145	-1.408791	-0.048511
C38	C	0.556097	-1.403786	-0.173477
C39	C	0.588966	-1.495373	-0.266329
C40	C	0.649883	-1.591965	-0.234216
C41	C	0.677934	-1.596973	-0.109245
C42	C	0.645065	-1.505387	-0.016393
H43	H	0.511000	-1.332280	-0.197254
H44	H	0.568200	-1.491664	-0.358842
H45	H	0.674214	-1.659762	-0.302951
H46	H	0.723031	-1.668480	-0.085468
H47	H	0.665830	-1.509095	0.076120
H48	H	0.422715	-1.377765	-0.026872
C49	C	0.584929	-1.129319	0.234654
C50	C	0.646750	-1.114738	0.133173
C51	C	0.680085	-0.995273	0.111864
C52	C	0.651599	-0.890389	0.192036
C53	C	0.589774	-0.904967	0.293524
C54	C	0.556439	-1.024431	0.314833
H55	H	0.667840	-1.192382	0.073819
H56	H	0.725852	-0.984483	0.036736
H57	H	0.676276	-0.801954	0.176262
H58	H	0.568684	-0.827322	0.352878
H59	H	0.510672	-1.035222	0.389961
H60	H	0.424119	-1.264741	0.344721
H61	H	0.422500	-1.482318	0.276159
C62	C	0.586405	-1.269808	0.374765
C63	C	0.648808	-1.370961	0.388237
C64	C	0.683628	-1.392023	0.507080
C65	C	0.656043	-1.311933	0.612450
C66	C	0.593636	-1.210774	0.598981
C67	C	0.558817	-1.189711	0.480138
H68	H	0.669231	-1.430254	0.310233
H69	H	0.729826	-1.466909	0.517051
H70	H	0.681818	-1.327525	0.700425
H71	H	0.573213	-1.151481	0.676985
H72	H	0.512619	-1.114826	0.470168
C73	C	0.586348	-1.202846	0.010065
C74	C	0.640850	-1.199802	-0.100044
C75	C	0.675917	-1.085435	-0.134316
C76	C	0.656483	-0.974112	-0.058480
C77	C	0.601979	-0.977153	0.051636
C78	C	0.566911	-1.091520	0.085909
H79	H	0.655239	-1.282213	-0.156189
H80	H	0.716265	-1.083184	-0.215832
H81	H	0.682442	-0.889451	-0.083850
H82	H	0.587590	-0.894742	0.107781
H83	H	0.526564	-1.093770	0.167424
H84	H	0.424040	-1.227257	0.024964
C85	C	0.585021	-1.556155	0.103719
C86	C	0.560468	-1.557221	-0.023145
C87	C	0.594486	-1.653618	-0.110138
C88	C	0.653057	-1.748949	-0.070267
C89	C	0.677613	-1.747886	0.056604
C90	C	0.643595	-1.651489	0.143597
H91	H	0.517107	-1.486648	-0.052666
H92	H	0.576307	-1.654404	-0.204056
H93	H	0.678239	-1.820308	-0.134664
H94	H	0.720974	-1.818459	0.086125
H95	H	0.661774	-1.650703	0.237515
H96	H	0.575108	-1.481303	0.277803
