data_functionalizedCrystal
_audit_creation_method	'MofGen! by Chris Wilmer'
_symmetry_space_group_name_H-M	'P1'
_symmetry_Int_Tables_number	1
_symmetry_cell_setting	triclinic
loop_
_symmetry_equiv_pos_as_xyz
  x,y,z
_cell_length_a	23.532407
_cell_length_b	23.532407
_cell_length_c	22.610064
_cell_angle_alpha	89.999803
_cell_angle_beta	89.994486
_cell_angle_gamma	82.848712
loop_
_atom_site_label
_atom_site_type_symbol
_atom_site_fract_x
_atom_site_fract_y
_atom_site_fract_z
O1	O	0.755263	0.069127	-0.049153
O2	O	1.255263	0.569127	0.450847
O3	O	0.589400	0.079130	-0.049163
O4	O	1.089400	0.579130	0.450837
O5	O	0.677333	-0.008803	-0.049147
O6	O	1.177333	0.491197	0.450853
O7	O	0.667330	0.157060	-0.049169
O8	O	1.167330	0.657060	0.450831
O9	O	0.677318	-0.008789	0.049222
O10	O	1.177318	0.491211	0.549222
O11	O	0.589384	0.079144	0.049206
O12	O	1.089384	0.579144	0.549206
O13	O	0.755248	0.069141	0.049216
O14	O	1.255248	0.569141	0.549216
Zn15	Zn	0.672314	0.074144	0.064829
Zn16	Zn	1.172314	0.574144	0.564829
Zn17	Zn	0.672334	0.074127	-0.064777
Zn18	Zn	1.172334	0.574127	0.435223
O19	O	0.667315	0.157074	0.049200
O20	O	1.167315	0.657074	0.549200
C21	C	0.568176	0.078882	0.000020
C22	C	1.068176	0.578882	0.500020
C23	C	0.504959	0.078116	0.000017
C24	C	1.004959	0.578116	0.500017
C25	C	0.677071	-0.030012	0.000039
C26	C	1.177071	0.469988	0.500039
C27	C	0.676305	-0.093229	0.000043
C28	C	1.176305	0.406771	0.500043
C29	C	0.238792	0.022921	0.000040
C30	C	0.738792	0.522921	0.500040
C31	C	0.298192	0.023632	0.000040
C32	C	0.798192	0.523632	0.500040
O33	O	0.334937	-0.020153	0.000066
O34	O	0.834937	0.479847	0.500066
N35	N	0.320818	0.075909	0.000029
N36	N	0.820818	0.575909	0.500029
C37	C	0.284041	0.127477	0.000024
C38	C	0.784041	0.627477	0.500024
O39	O	0.308740	0.172007	0.000015
O40	O	0.808740	0.672007	0.500015
C41	C	0.224642	0.126765	0.000029
C42	C	0.724642	0.626765	0.500029
C43	C	0.202019	0.074485	0.000034
C44	C	0.702019	0.574485	0.500034
C45	C	0.216168	-0.029354	0.000046
C46	C	0.716168	0.470646	0.500046
C47	C	0.156772	-0.030066	0.000045
C48	C	0.656772	0.469934	0.500045
C49	C	0.119999	0.021499	0.000038
C50	C	0.619999	0.521499	0.500038
C51	C	0.142623	0.073774	0.000033
C52	C	0.642623	0.573774	0.500033
C53	C	0.187865	0.178333	0.000028
C54	C	0.687865	0.678333	0.500028
C55	C	0.128463	0.177616	0.000033
C56	C	0.628463	0.677616	0.500033
C57	C	0.105840	0.125336	0.000038
C58	C	0.605840	0.625336	0.500038
C59	C	0.046454	0.124627	0.000025
C60	C	0.546454	0.624627	0.500025
N61	N	0.023828	0.072351	0.000036
N62	N	0.523828	0.572351	0.500036
C63	C	0.060600	0.020787	0.000043
C64	C	0.560600	0.520787	0.500043
C65	C	0.408783	0.128968	0.000016
C66	C	0.908783	0.628968	0.500016
C67	C	0.468181	0.129681	0.000007
C68	C	0.968181	0.629681	0.500007
C69	C	0.482328	0.025836	0.000024
C70	C	0.982328	0.525836	0.500024
C71	C	0.422929	0.025124	0.000028
C72	C	0.922929	0.525124	0.500028
C73	C	0.386157	0.076692	0.000027
C74	C	0.886157	0.576692	0.500027
C75	C	-0.064136	0.019297	0.000041
C76	C	0.435864	0.519297	0.500041
C77	C	-0.123538	0.018590	0.000037
C78	C	0.376462	0.518590	0.500037
C79	C	-0.137680	0.122435	0.000024
C80	C	0.362320	0.622435	0.500024
C81	C	-0.078284	0.123142	0.000024
C82	C	0.421716	0.623142	0.500024
C83	C	-0.041512	0.071568	0.000034
C84	C	0.458488	0.571568	0.500034
O85	O	0.009675	0.168390	0.000001
O86	O	0.509675	0.668390	0.500001
O87	O	0.035892	-0.023737	0.000060
O88	O	0.535892	0.476263	0.500060
C89	C	0.723538	-0.492332	0.000014
C90	C	1.223538	0.007668	0.500014
C91	C	0.722827	-0.551733	0.000009
C92	C	1.222827	-0.051733	0.500009
O93	O	0.766613	-0.588477	-0.000010
O94	O	1.266613	-0.088477	0.499990
N95	N	0.670551	-0.574359	0.000007
N96	N	1.170551	-0.074359	0.500007
C97	C	0.618982	-0.537581	0.000002
C98	C	1.118982	-0.037581	0.500002
O99	O	0.574452	-0.562281	-0.000001
O100	O	1.074452	-0.062281	0.499999
C101	C	0.619695	-0.478182	0.000003
C102	C	1.119695	0.021818	0.500003
C103	C	0.671974	-0.455559	0.000011
C104	C	1.171974	0.044441	0.500011
C105	C	0.775814	-0.469709	0.000022
C106	C	1.275814	0.030291	0.500022
C107	C	0.776525	-0.410313	0.000028
C108	C	1.276525	0.089687	0.500028
C109	C	0.724961	-0.373540	0.000025
C110	C	1.224961	0.126460	0.500025
C111	C	0.672685	-0.396163	0.000017
C112	C	1.172685	0.103837	0.500017
C113	C	0.568127	-0.441406	-0.000006
C114	C	1.068127	0.058594	0.499994
C115	C	0.568843	-0.382003	-0.000006
C116	C	1.068843	0.117997	0.499994
C117	C	0.621123	-0.359381	0.000003
C118	C	1.121123	0.140619	0.500003
C119	C	0.621832	-0.299994	0.000020
C120	C	1.121832	0.200006	0.500020
N121	N	0.674109	-0.277368	0.000023
N122	N	1.174109	0.222632	0.500023
C123	C	0.725673	-0.314141	0.000025
C124	C	1.225673	0.185859	0.500025
C125	C	0.617491	-0.662324	0.000001
C126	C	1.117491	-0.162324	0.500001
C127	C	0.616778	-0.721722	0.000005
C128	C	1.116778	-0.221722	0.500005
C129	C	0.720623	-0.735869	0.000011
C130	C	1.220623	-0.235869	0.500011
C131	C	0.721335	-0.676470	0.000011
C132	C	1.221335	-0.176470	0.500011
C133	C	0.669767	-0.639698	0.000003
C134	C	1.169767	-0.139698	0.500003
C135	C	0.727163	-0.189404	0.000038
C136	C	1.227163	0.310596	0.500038
C137	C	0.727869	-0.130002	0.000046
C138	C	1.227869	0.369998	0.500046
C139	C	0.624025	-0.115860	0.000037
C140	C	1.124025	0.384140	0.500037
C141	C	0.623318	-0.175257	0.000032
C142	C	1.123318	0.324743	0.500032
C143	C	0.674891	-0.212028	0.000030
C144	C	1.174891	0.287972	0.500030
O145	O	0.578069	-0.263215	0.000037
O146	O	1.078069	0.236785	0.500037
O147	O	0.770196	-0.289433	0.000021
O148	O	1.270196	0.210567	0.500021
C149	C	0.776472	0.069389	0.000031
C150	C	1.276472	0.569389	0.500031
C151	C	0.839689	0.070155	0.000031
C152	C	1.339689	0.570155	0.500031
C153	C	0.667577	0.178283	0.000012
C154	C	1.167577	0.678283	0.500012
C155	C	0.668343	0.241500	0.000004
C156	C	1.168343	0.741500	0.500004
N157	N	0.672304	0.074156	0.153282
N158	N	1.172304	0.574156	0.653282
C159	C	0.711272	0.035200	0.561930
C160	C	1.211272	0.535200	1.061930
C161	C	0.711275	0.035196	0.623850
C162	C	1.211275	0.535196	1.123850
O163	O	0.744383	0.002081	0.655875
O164	O	1.244383	0.502081	1.155875
N165	N	0.672333	0.074120	0.654819
N166	N	1.172333	0.574120	1.154819
C167	C	0.633382	0.113046	0.623864
C168	C	1.133382	0.613046	1.123864
O169	O	0.600259	0.146152	0.655891
O170	O	1.100259	0.646152	1.155891
C171	C	0.633377	0.113046	0.561945
C172	C	1.133377	0.613046	1.061945
C173	C	0.672325	0.074124	0.530980
C174	C	1.172325	0.574124	1.030980
C175	C	0.750217	-0.003719	0.530965
C176	C	1.250217	0.496281	1.030965
C177	C	0.750215	-0.003715	0.469049
C178	C	1.250215	0.496285	0.969049
C179	C	0.711268	0.035209	0.438099
C180	C	1.211268	0.535209	0.938099
C181	C	0.672323	0.074129	0.469064
C182	C	1.172323	0.574129	0.969064
C183	C	0.594423	0.151969	0.530992
C184	C	1.094423	0.651969	1.030992
C185	C	0.594421	0.151966	0.469069
C186	C	1.094421	0.651966	0.969069
C187	C	0.633370	0.113044	0.438104
C188	C	1.133370	0.613044	0.938104
C189	C	0.633373	0.113057	0.376199
C190	C	1.133373	0.613057	0.876199
N191	N	0.672315	0.074134	0.345230
N192	N	1.172315	0.574134	0.845230
C193	C	0.711262	0.035210	0.376180
C194	C	1.211262	0.535210	0.876180
C195	C	0.633395	0.113041	0.753898
C196	C	1.133395	0.613041	1.253898
C197	C	0.633402	0.113043	0.815816
C198	C	1.133402	0.613043	1.315816
C199	C	0.711295	0.035193	0.815797
C200	C	1.211295	0.535193	1.315797
C201	C	0.711290	0.035194	0.753878
C202	C	1.211290	0.535194	1.253878
C203	C	0.672337	0.074117	0.722929
C204	C	1.172337	0.574117	1.222929
C205	C	0.711255	0.035223	0.246153
C206	C	1.211255	0.535223	0.746153
C207	C	0.711251	0.035232	0.184232
C208	C	1.211251	0.535232	0.684232
C209	C	0.633357	0.113080	0.184256
C210	C	1.133357	0.613080	0.684256
C211	C	0.633362	0.113073	0.246171
C212	C	1.133362	0.613073	0.746171
C213	C	0.672314	0.074139	0.277118
C214	C	1.172314	0.574139	0.777118
O215	O	0.600280	0.146154	0.344134
O216	O	1.100280	0.646154	0.844134
O217	O	0.744375	0.002104	0.344146
O218	O	1.244375	0.502104	0.844146
N219	N	0.672348	0.074117	0.846771
N220	N	1.172348	0.574117	1.346771
H221	H	-0.034204	-0.022699	0.000049
H222	H	0.465796	0.477301	0.500049
H223	H	0.206274	0.220904	0.000021
H224	H	0.706274	0.720904	0.500021
H225	H	-0.167631	0.164417	0.000015
H226	H	0.332369	0.664417	0.500015
C227	C	0.835284	-0.544709	-0.050542
C228	C	1.335284	-0.044709	0.449458
C229	C	0.832501	-0.510123	0.000025
C230	C	1.332501	-0.010123	0.500025
H231	H	0.870285	-0.569653	-0.050538
H232	H	1.370285	-0.069653	0.449462
H233	H	0.804059	-0.566692	-0.050541
H234	H	1.304059	-0.066692	0.449459
H235	H	0.833404	-0.521238	-0.084842
H236	H	1.333404	-0.021238	0.415158
H237	H	0.834377	-0.533594	0.034325
H238	H	1.334377	-0.033594	0.534325
H239	H	0.863735	-0.488139	0.000030
H240	H	1.363735	0.011861	0.500030
H241	H	0.525555	-0.459814	-0.000017
H242	H	1.025555	0.040186	0.499983
C243	C	0.516835	0.164725	0.399454
C244	C	1.016835	0.664725	0.899454
C245	C	0.551603	0.194755	0.435052
C246	C	1.051603	0.694755	0.935052
H247	H	0.490400	0.191143	0.378458
H248	H	0.990400	0.691143	0.878458
H249	H	0.540027	0.141554	0.372150
H250	H	1.040027	0.641554	0.872150
H251	H	0.496491	0.141120	0.423617
H252	H	0.996491	0.641120	0.923617
H253	H	0.571950	0.218357	0.410888
H254	H	1.071950	0.718357	0.910888
H255	H	0.528408	0.217935	0.462360
H256	H	1.028408	0.717935	0.962360
H257	H	0.404515	-0.017447	0.000033
H258	H	0.904515	0.482553	0.500033
C259	C	0.120450	0.280335	0.000018
C260	C	0.620450	0.780335	0.500018
C261	C	0.088043	0.234303	0.000026
C262	C	0.588043	0.734303	0.500026
H263	H	0.095496	0.315330	0.000008
H264	H	0.595496	0.815330	0.500008
H265	H	0.143905	0.278456	0.034321
H266	H	0.643905	0.778456	0.534321
H267	H	0.143918	0.278442	-0.034287
H268	H	0.643918	0.778442	0.465713
H269	H	0.064577	0.236194	0.034333
H270	H	0.564577	0.736194	0.534333
H271	H	0.064578	0.236182	-0.034280
H272	H	0.564578	0.736182	0.465720
H273	H	0.138359	-0.072637	0.000052
H274	H	0.638359	0.427363	0.500052
H275	H	0.526850	-0.352065	-0.000013
H276	H	1.026850	0.147935	0.499987
H277	H	-0.059864	0.165712	0.000019
H278	H	0.440136	0.665712	0.500019
H279	H	0.512280	-0.016150	0.000029
H280	H	1.012280	0.483850	0.500029
C281	C	0.448216	0.232253	-0.000009
C282	C	0.948216	0.732253	0.499991
C283	C	0.493044	0.187148	-0.000004
C284	C	0.993044	0.687148	0.499996
H285	H	0.463565	0.267732	-0.000009
H286	H	0.963565	0.767732	0.499991
H287	H	0.425349	0.229809	-0.034310
H288	H	0.925349	0.729809	0.465690
H289	H	0.425338	0.229813	0.034297
H290	H	0.925338	0.729813	0.534297
H291	H	0.515919	0.189586	-0.034312
H292	H	1.015919	0.689586	0.465688
H293	H	0.515920	0.189594	0.034301
H294	H	1.015920	0.689594	0.534301
H295	H	0.378846	0.170964	0.000010
H296	H	0.878846	0.670964	0.500010
H297	H	0.742972	0.003519	0.271343
H298	H	1.242972	0.503519	0.771343
C299	C	-0.182114	-0.042471	-0.050526
C300	C	0.317886	0.457529	0.449474
C301	C	-0.148403	-0.038880	0.000043
C302	C	0.351597	0.461120	0.500043
H303	H	-0.197459	-0.077952	-0.050523
H304	H	0.302541	0.422048	0.449477
H305	H	-0.212517	-0.011870	-0.050527
H306	H	0.287483	0.488130	0.449473
H307	H	-0.159226	-0.040037	-0.084825
H308	H	0.340774	0.459963	0.415175
H309	H	-0.171292	-0.041310	0.034342
H310	H	0.328708	0.458690	0.534342
H311	H	-0.117996	-0.069490	0.000049
H312	H	0.382004	0.430510	0.500049
C313	C	0.827200	-0.080670	0.475270
C314	C	1.327200	0.419330	0.975270
C315	C	0.793022	-0.046506	0.435017
C316	C	1.293022	0.453494	0.935017
H317	H	0.853624	-0.107093	0.454261
H318	H	1.353624	0.392907	0.954261
H319	H	0.847550	-0.057066	0.499413
H320	H	1.347550	0.442934	0.999413
H321	H	0.803602	-0.101029	0.499426
H322	H	1.303602	0.398971	0.999426
H323	H	0.816619	-0.026145	0.410863
H324	H	1.316619	0.473855	0.910863
H325	H	0.772669	-0.070113	0.410863
H326	H	1.272669	0.429887	0.910863
H327	H	0.763906	-0.658055	0.000018
H328	H	1.263906	-0.158055	0.500018
H329	H	0.246104	-0.071347	0.000053
H330	H	0.746104	0.428653	0.500053
H331	H	0.580747	-0.193677	0.000041
H332	H	1.080747	0.306323	0.500041
C333	C	0.808924	-0.766221	-0.050558
C334	C	1.308924	-0.266221	0.449442
C335	C	0.777307	-0.776295	0.000007
C336	C	1.277307	-0.276295	0.500007
H337	H	0.843917	-0.791177	-0.050557
H338	H	1.343917	-0.291177	0.449443
H339	H	0.787477	-0.773047	-0.084856
H340	H	1.287477	-0.273047	0.415144
H341	H	0.816829	-0.727606	-0.050549
H342	H	1.316829	-0.227606	0.449451
H343	H	0.769398	-0.814909	-0.000005
H344	H	1.269398	-0.314909	0.499995
H345	H	0.798759	-0.769474	0.034314
H346	H	1.298759	-0.269474	0.534314
C347	C	0.816609	-0.123774	-0.050518
C348	C	1.316609	0.376226	0.449482
C349	C	0.785338	-0.105135	0.000051
C350	C	1.285338	0.394865	0.500051
H351	H	0.852085	-0.108420	-0.050516
H352	H	1.352085	0.391580	0.449484
H353	H	0.823562	-0.164408	-0.050516
H354	H	1.323562	0.335592	0.449484
H355	H	0.795391	-0.111125	-0.084817
H356	H	1.295391	0.388875	0.415183
H357	H	0.806555	-0.117788	0.034350
H358	H	1.306555	0.382212	0.534350
H359	H	0.778388	-0.064493	0.000055
H360	H	1.278388	0.435507	0.500055
H361	H	0.769159	-0.219337	0.000034
H362	H	1.269159	0.280663	0.500034
H363	H	0.582043	-0.085909	0.000037
H364	H	1.082043	0.414091	0.500037
H365	H	0.601653	0.144772	0.271384
H366	H	1.101653	0.644772	0.771384
H367	H	0.781932	-0.035419	0.556159
H368	H	1.281932	0.464581	1.056159
C369	C	0.879096	-0.430281	0.000027
C370	C	1.379096	0.069719	0.500027
C371	C	0.833993	-0.385452	0.000029
C372	C	1.333993	0.114548	0.500029
H373	H	0.914576	-0.414935	0.000023
H374	H	1.414576	0.085065	0.500023
H375	H	0.876652	-0.453152	0.034328
H376	H	1.376652	0.046848	0.534328
H377	H	0.876653	-0.453155	-0.034279
H378	H	1.376653	0.046845	0.465721
H379	H	0.836434	-0.362581	0.034338
H380	H	1.336434	0.137419	0.534338
H381	H	0.836439	-0.362571	-0.034275
H382	H	1.336439	0.137429	0.465725
H383	H	0.574207	-0.740135	0.000008
H384	H	1.074207	-0.240135	0.500008
H385	H	0.743004	0.003500	0.728670
H386	H	1.243004	0.503500	1.228670
H387	H	0.743007	0.003498	0.841008
H388	H	1.243007	0.503498	1.341008
H389	H	0.562708	0.183662	0.556196
H390	H	1.062708	0.683662	1.056196
C391	C	0.788244	-0.041724	0.190442
C392	C	1.288244	0.458276	0.690442
C393	C	0.754063	-0.007557	0.150195
C394	C	1.254063	0.492443	0.650195
H395	H	0.814670	-0.068141	0.169430
H396	H	1.314670	0.431859	0.669430
H397	H	0.808593	-0.018122	0.214590
H398	H	1.308593	0.481878	0.714590
H399	H	0.764649	-0.062088	0.214596
H400	H	1.264649	0.437912	0.714596
H401	H	0.777658	0.012811	0.126044
H402	H	1.277658	0.512811	0.626044
H403	H	0.733712	-0.031162	0.126038
H404	H	1.233712	0.468838	0.626038
H405	H	0.575496	-0.632386	-0.000000
H406	H	1.075496	-0.132386	0.500000
H407	H	0.601648	0.144773	0.159046
H408	H	1.101648	0.644773	0.659046
C409	C	0.556409	0.189993	0.809599
C410	C	1.056409	0.689993	1.309599
C411	C	0.590592	0.155831	0.849849
C412	C	1.090592	0.655831	1.349849
H413	H	0.529975	0.216404	0.830609
H414	H	1.029975	0.716404	1.330609
H415	H	0.579998	0.210358	0.785449
H416	H	1.079998	0.710358	1.285449
H417	H	0.536063	0.166382	0.785448
H418	H	1.036063	0.666382	1.285448
H419	H	0.610941	0.179441	0.873997
H420	H	1.110941	0.679441	1.373997
H421	H	0.567000	0.135464	0.874009
H422	H	1.067000	0.635464	1.374009
H423	H	0.601676	0.144742	0.728702
H424	H	1.101676	0.644742	1.228702
