data_functionalizedCrystal
_audit_creation_method	'MofGen! by Chris Wilmer'
_symmetry_space_group_name_H-M	'P1'
_symmetry_Int_Tables_number	1
_symmetry_cell_setting	triclinic
loop_
_symmetry_equiv_pos_as_xyz
  x,y,z
_cell_length_a	14.853567
_cell_length_b	15.944551
_cell_length_c	13.330367
_cell_angle_alpha	89.994404
_cell_angle_beta	89.995418
_cell_angle_gamma	83.566834
loop_
_atom_site_label
_atom_site_type_symbol
_atom_site_fract_x
_atom_site_fract_y
_atom_site_fract_z
O1	O	1.196228	0.109665	-0.083357
O2	O	0.933752	0.122728	-0.083374
O3	O	1.072158	-0.006070	-0.083356
O4	O	1.057822	0.238463	-0.083375
O5	O	1.072137	-0.006073	0.083491
O6	O	0.933732	0.122725	0.083473
O7	O	1.196208	0.109662	0.083491
Cu8	Cu	1.064968	0.116193	0.098716
Cu9	Cu	1.064992	0.116197	-0.098600
O10	O	1.057802	0.238460	0.083472
C11	C	0.900154	0.122135	0.000047
C12	C	0.800072	0.120361	0.000041
C13	C	0.387646	0.036354	0.000070
C14	C	0.366169	0.189369	0.000057
C15	C	0.460201	0.191037	0.000054
C16	C	0.517960	0.115362	0.000057
C17	C	0.481687	0.038019	0.000064
C18	C	0.496480	0.268379	0.000037
C19	C	0.590517	0.270050	0.000033
C20	C	0.648278	0.194374	0.000043
C21	C	0.612000	0.117028	0.000051
C22	C	0.669759	0.041353	0.000054
C23	C	0.633483	-0.035994	0.000069
C24	C	0.539448	-0.037657	0.000074
C25	C	0.742313	0.196036	0.000038
C26	C	0.763800	0.043018	0.000048
C27	C	1.071552	-0.037367	0.000068
C28	C	1.069768	-0.130615	0.000068
C29	C	0.979713	-0.345572	0.000049
C30	C	1.021522	-0.406544	0.082317
C31	C	1.066541	-0.301344	0.000060
C32	C	1.021562	-0.406524	-0.082181
C33	C	1.063416	-0.466260	0.000048
C34	C	1.108373	-0.361088	0.082397
C35	C	1.108401	-0.361062	-0.082175
C36	C	1.150273	-0.422017	0.000113
C37	C	1.068338	-0.206340	0.000068
C38	C	1.061626	-0.561263	0.000048
C39	C	1.229806	0.110255	0.000067
C40	C	1.329887	0.112029	0.000067
C41	C	1.058407	0.269756	0.000046
C42	C	1.060191	0.363004	0.000039
N43	N	1.064958	0.116190	0.237498
N44	N	1.065009	0.116193	-0.237381
C45	C	1.003703	0.173206	0.710113
C46	C	1.126305	0.059180	0.710097
C47	C	1.126295	0.059178	0.605078
C48	C	1.064989	0.116191	0.552572
C49	C	1.003693	0.173207	0.605085
C50	C	1.187595	0.002169	0.552558
C51	C	1.187588	0.002164	0.447534
C52	C	1.126277	0.059174	0.395026
C53	C	1.064978	0.116192	0.447544
C54	C	1.003672	0.173205	0.395038
C55	C	0.942368	0.230220	0.447555
C56	C	0.942382	0.230217	0.552577
C57	C	1.126264	0.059177	0.290004
C58	C	1.003662	0.173206	0.290010
H59	H	0.680523	-0.097609	0.000065
C60	C	0.499886	-0.121542	0.000032
C61	C	0.405173	-0.106801	0.000005
C62	C	0.368694	-0.184054	-0.000051
H63	H	0.519605	-0.152773	0.058201
H64	H	0.519662	-0.152711	-0.058174
H65	H	0.385405	-0.075645	0.058204
H66	H	0.385429	-0.075583	-0.058160
H67	H	0.388470	-0.215223	-0.058256
H68	H	0.388419	-0.215279	0.058119
H69	H	0.304428	-0.174063	-0.000079
C70	C	0.303355	0.271462	-0.000104
C71	C	0.248730	0.274967	-0.085929
C72	C	0.190841	0.350575	-0.086102
H73	H	0.338311	0.317833	-0.000158
H74	H	0.266169	0.273993	0.058050
H75	H	0.285911	0.272443	-0.144068
H76	H	0.213754	0.228613	-0.085892
H77	H	0.153656	0.353107	-0.027948
H78	H	0.225805	0.396940	-0.086154
H79	H	0.153766	0.352960	-0.144328
C80	C	1.157492	-0.334125	-0.174788
C81	C	1.233071	-0.294983	-0.145404
C82	C	1.278313	-0.270165	-0.230700
H83	H	1.117735	-0.295642	-0.212912
H84	H	1.176685	-0.382334	-0.214450
H85	H	1.213877	-0.246781	-0.105758
H86	H	1.272849	-0.333451	-0.107292
H87	H	1.297507	-0.318373	-0.270362
H88	H	1.238550	-0.231684	-0.268818
H89	H	1.329603	-0.243611	-0.210775
C90	C	0.433663	0.350469	-0.000122
C91	C	0.379029	0.353968	-0.085940
C92	C	0.321136	0.429573	-0.086111
H93	H	0.468616	0.396843	-0.000185
H94	H	0.396483	0.353001	0.058037
H95	H	0.416204	0.351444	-0.144084
H96	H	0.344057	0.307612	-0.085895
H97	H	0.283956	0.432105	-0.027952
H98	H	0.356096	0.475940	-0.086171
H99	H	0.284054	0.431953	-0.144332
H100	H	1.145058	-0.341058	0.152025
H101	H	0.984835	-0.426641	-0.151738
H102	H	0.620045	0.333030	0.000020
H103	H	1.222407	-0.455095	0.000165
H104	H	0.953736	0.219631	0.247266
H105	H	1.176223	0.012766	0.752851
C106	C	0.972717	-0.433490	0.175133
C107	C	1.032118	-0.488920	0.232042
C108	C	0.987189	-0.513748	0.317551
H109	H	0.922054	-0.461056	0.155483
H110	H	0.952621	-0.385159	0.214197
H111	H	1.052201	-0.537242	0.192985
H112	H	1.082783	-0.461371	0.251718
H113	H	0.967094	-0.465417	0.356615
H114	H	0.936527	-0.541311	0.297892
H115	H	1.027488	-0.551353	0.356179
H116	H	0.892456	0.276644	0.404792
H117	H	0.892471	0.276637	0.595342
C118	C	1.254053	-0.059689	0.609745
C119	C	1.240921	-0.047503	0.712958
C120	C	1.302118	-0.104481	0.765674
H121	H	1.314258	-0.050517	0.592647
H122	H	1.244257	-0.115785	0.592599
H123	H	1.250724	0.008580	0.730097
H124	H	1.180729	-0.056682	0.730086
H125	H	1.292322	-0.160576	0.748529
H126	H	1.362319	-0.095304	0.748568
H127	H	1.293211	-0.096225	0.835710
C128	C	0.937001	0.235006	0.767073
C129	C	0.848415	0.221213	0.741559
C130	C	0.786945	0.278118	0.794022
H131	H	0.946665	0.291121	0.749901
H132	H	0.945722	0.226835	0.837151
H133	H	0.839698	0.229391	0.671497
H134	H	0.838723	0.165109	0.758734
H135	H	0.795666	0.269947	0.864099
H136	H	0.796617	0.334230	0.776845
H137	H	0.726833	0.268762	0.776725
H138	H	1.237504	-0.044260	0.404781
C139	C	0.781525	0.280088	0.000070
C140	C	0.710816	0.346004	0.000085
C141	C	0.746902	0.423448	0.000130
H142	H	0.817752	0.284035	-0.058099
H143	H	0.817733	0.283967	0.058275
H144	H	0.674624	0.342127	-0.058114
H145	H	0.674583	0.342085	0.058250
H146	H	0.783109	0.427327	0.058335
H147	H	0.783128	0.427387	-0.058040
H148	H	0.698931	0.468181	0.000150
C149	C	1.192712	-0.002841	0.233025
C150	C	1.178099	-0.085416	0.258551
C151	C	1.239289	-0.142569	0.206066
H152	H	1.252917	0.006279	0.250173
H153	H	1.183912	0.005277	0.162951
H154	H	1.186906	-0.093530	0.328609
H155	H	1.117906	-0.094563	0.241400
H156	H	1.230489	-0.134451	0.135992
H157	H	1.299490	-0.133441	0.223218
H158	H	1.229377	-0.198602	0.223371
C159	C	0.826357	-0.039238	-0.000001
C160	C	0.774458	-0.107324	-0.000012
C161	C	0.832053	-0.183110	-0.000072
H162	H	0.863510	-0.041890	0.058161
H163	H	0.863471	-0.041815	-0.058213
H164	H	0.737360	-0.104749	0.058194
H165	H	0.737307	-0.104700	-0.058170
H166	H	0.869167	-0.185687	-0.058284
H167	H	0.869203	-0.185753	0.058091
H168	H	0.796848	-0.229316	-0.000088
H169	H	0.907643	-0.312344	0.000126
H170	H	0.358106	-0.026620	0.000086
