data_functionalizedCrystal
_audit_creation_method	'MofGen! by Chris Wilmer'
_symmetry_space_group_name_H-M	'P1'
_symmetry_Int_Tables_number	1
_symmetry_cell_setting	triclinic
loop_
_symmetry_equiv_pos_as_xyz
  x,y,z
_cell_length_a	11.169417
_cell_length_b	12.827892
_cell_length_c	11.169409
_cell_angle_alpha	90.033276
_cell_angle_beta	90.019513
_cell_angle_gamma	90.016641
loop_
_atom_site_label
_atom_site_type_symbol
_atom_site_fract_x
_atom_site_fract_y
_atom_site_fract_z
Zn1	Zn	1.834920	-0.415914	0.678525
Zn2	Zn	1.834792	-0.590701	0.477839
Zn3	Zn	1.634206	-0.415978	0.477860
Zn4	Zn	1.634196	-0.590617	0.678485
O5	O	1.734528	-0.503303	0.578177
O6	O	2.002853	-0.439108	0.651911
O7	O	1.808134	-0.567586	0.309892
O8	O	1.660889	-0.269734	0.504505
O9	O	2.002759	-0.567523	0.504468
O10	O	1.808353	-0.269686	0.651932
O11	O	1.660765	-0.439218	0.309908
O12	O	1.466255	-0.439137	0.504466
O13	O	1.660872	-0.567380	0.846440
O14	O	1.466248	-0.567443	0.651864
O15	O	1.808343	-0.439026	0.846469
O16	O	1.808124	-0.736926	0.504429
O17	O	1.660747	-0.736864	0.651842
C18	C	1.422704	-0.503288	0.578163
C19	C	1.289304	-0.503308	0.578186
C20	C	1.734453	-0.774812	0.578155
C21	C	1.734531	-0.890966	0.578186
C22	C	1.807468	-0.942643	0.651203
C23	C	1.807550	-1.062694	0.651236
C24	C	2.047571	-0.503317	0.578192
C25	C	2.180971	-0.503324	0.578198
C26	C	1.734621	-0.503186	0.891220
C27	C	1.734660	-0.503137	1.024620
C28	C	1.734637	-0.230732	0.578226
C29	C	1.734683	-0.114579	0.578246
C30	C	1.734506	-0.503343	0.266352
C31	C	1.734699	-0.503098	0.132953
H32	H	1.869848	-0.898012	0.713697
O33	O	1.881938	-1.115865	0.725779
C34	C	1.949931	-1.284001	0.793692
C35	C	1.865605	-1.223913	0.709228
H36	H	1.936774	-1.371368	0.780322
H37	H	1.928809	-1.262629	0.890492
H38	H	2.046712	-1.262479	0.772730
H39	H	1.768796	-1.245403	0.730082
H40	H	1.886830	-1.245290	0.612453
H41	H	1.672142	-0.935599	0.515703
O42	O	1.660051	-1.061529	0.503834
C43	C	1.498115	-0.938256	0.487643
C44	C	1.582541	-0.998299	0.572050
H45	H	1.435444	-0.887105	0.542760
H46	H	1.443175	-0.995952	0.432715
H47	H	1.553293	-0.887205	0.424949
H48	H	1.527456	-1.049352	0.634816
H49	H	1.637485	-0.940547	0.626894
