data_functionalizedCrystal
_audit_creation_method	'MofGen! by Chris Wilmer'
_symmetry_space_group_name_H-M	'P1'
_symmetry_Int_Tables_number	1
_symmetry_cell_setting	triclinic
loop_
_symmetry_equiv_pos_as_xyz
  x,y,z
_cell_length_a	10.654554
_cell_length_b	14.185569
_cell_length_c	10.654541
_cell_angle_alpha	103.284267
_cell_angle_beta	95.513465
_cell_angle_gamma	103.282131
loop_
_atom_site_label
_atom_site_type_symbol
_atom_site_fract_x
_atom_site_fract_y
_atom_site_fract_z
O1	O	-1.639571	0.083478	0.204707
O2	O	-1.274098	0.083467	0.221496
O3	O	-1.465241	0.083467	0.030360
O4	O	-1.448428	0.083478	0.395843
O5	O	-1.521707	-0.083368	-0.026097
O6	O	-1.330563	-0.083368	0.165039
O7	O	-1.696037	-0.083356	0.148250
Cu8	Cu	-1.518456	-0.098595	0.151489
Cu9	Cu	-1.451679	0.098706	0.218256
O10	O	-1.504894	-0.083356	0.339386
C11	C	-1.255534	0.000048	0.192031
C12	C	-1.116092	0.000043	0.188332
N13	N	-1.565432	-0.237366	0.104528
C14	C	-1.177628	-0.181845	0.126796
C15	C	-1.142885	-0.272787	0.094295
C16	C	-1.011867	-0.272786	0.090819
C17	C	-0.915585	-0.181832	0.119845
C18	C	-0.950327	-0.090890	0.152346
C19	C	-1.081352	-0.090901	0.155822
C20	C	-0.888794	0.090996	0.213872
C21	C	-1.019810	0.090997	0.217358
C22	C	-0.792512	0.181950	0.242898
C23	C	-0.827253	0.272894	0.275408
C24	C	-0.958280	0.272889	0.278884
C25	C	-1.054553	0.181939	0.249859
C26	C	-1.266695	-0.605016	0.403124
C27	C	-1.302288	-0.710038	0.367560
C28	C	-1.471580	-0.709999	0.198373
C29	C	-1.435997	-0.604975	0.233919
C30	C	-1.333555	-0.552492	0.336296
C31	C	-1.502857	-0.552451	0.167091
C32	C	-1.467282	-0.447437	0.202638
C33	C	-1.364846	-0.394946	0.305014
C34	C	-1.297979	-0.447478	0.371843
C35	C	-1.605306	-0.604936	0.064720
C36	C	-1.672166	-0.552412	-0.002108
C37	C	-1.636584	-0.447395	0.033433
C38	C	-1.534148	-0.394905	0.135809
C39	C	-1.703451	-0.394864	-0.033396
C40	C	-1.667875	-0.289849	0.002151
C41	C	-1.498572	-0.289891	0.171356
C42	C	-0.714604	0.000059	0.177704
C43	C	-0.854051	0.000054	0.181371
C44	C	-1.492240	0.000050	-0.044666
C45	C	-1.488549	0.000052	-0.184109
N46	N	-1.404712	0.237477	0.265207
C47	C	-1.717114	0.000046	-0.212074
C48	C	-1.829659	0.000041	-0.291565
C49	C	-1.826182	0.000044	-0.422583
C50	C	-1.710148	0.000055	-0.474108
C51	C	-1.597604	0.000060	-0.394617
C52	C	-1.601094	0.000054	-0.263599
C53	C	-1.369039	0.000073	-0.366650
C54	C	-1.372515	0.000062	-0.235635
C55	C	-1.253004	0.000083	-0.418176
C56	C	-1.140460	0.000081	-0.338686
C57	C	-1.143942	0.000077	-0.207662
C58	C	-1.259970	0.000067	-0.156143
C59	C	-1.477894	0.000063	0.414413
C60	C	-1.481583	0.000068	0.553858
H61	H	-1.284311	-0.181855	0.129640
F62	F	-1.245362	-0.369582	0.063406
H63	H	-1.045991	0.000096	-0.380648
F64	F	-1.706435	0.000113	-0.613531
F65	F	-1.739040	-0.233949	-0.068973
H66	H	-1.250180	0.000092	-0.524856
F67	F	-1.024151	0.000089	-0.123068
F68	F	-1.263688	0.000056	-0.016708
H69	H	-0.808908	-0.181839	0.116996
H70	H	-0.685833	0.181945	0.240057
H71	H	-0.983581	-0.346839	0.064364
F72	F	-1.720830	0.000023	-0.072641
H73	H	-0.748853	0.346941	0.299030
F74	F	-0.995244	0.369685	0.313467
F75	F	-1.953143	0.000035	-0.236717
H76	H	-1.415144	-0.247157	0.254713
H77	H	-1.634271	-0.690446	0.035786
H78	H	-1.335885	-0.309436	0.333959
H79	H	-1.161238	0.181926	0.252693
H80	H	-1.786869	-0.437609	-0.116744
F81	F	-1.188935	-0.391619	0.480795
H82	H	-1.247834	-0.752798	0.421990
H83	H	-1.183267	-0.562282	0.486481
H84	H	-1.554994	-0.752743	0.115020
F85	F	-1.945961	0.000047	-0.507183
F86	F	-1.781193	-0.608277	-0.111059
