data_functionalizedCrystal
_audit_creation_method	'MofGen! by Chris Wilmer'
_symmetry_space_group_name_H-M	'P1'
_symmetry_Int_Tables_number	1
_symmetry_cell_setting	triclinic
loop_
_symmetry_equiv_pos_as_xyz
  x,y,z
_cell_length_a	19.805406
_cell_length_b	13.032951
_cell_length_c	19.805399
_cell_angle_alpha	97.191120
_cell_angle_beta	89.985648
_cell_angle_gamma	97.196438
loop_
_atom_site_label
_atom_site_type_symbol
_atom_site_fract_x
_atom_site_fract_y
_atom_site_fract_z
Zn1	Zn	-0.401165	-1.597866	-0.514019
Zn2	Zn	0.098835	-1.097866	-0.014019
Zn3	Zn	-0.514349	-1.597815	-0.400852
Zn4	Zn	-0.014349	-1.097815	0.099148
Zn5	Zn	-0.386781	-1.423103	-0.386490
Zn6	Zn	0.113219	-0.923103	0.113510
Zn7	Zn	-0.499917	-1.423127	-0.499652
Zn8	Zn	0.000083	-0.923127	0.000348
O9	O	-0.450553	-1.510478	-0.450253
O10	O	0.049447	-1.010478	0.049747
O11	O	-0.428239	-1.744105	-0.511030
O12	O	0.071761	-1.244105	-0.011030
O13	O	-0.497448	-1.574608	-0.304228
O14	O	0.002552	-1.074608	0.195772
O15	O	-0.293974	-1.446297	-0.403408
O16	O	0.206026	-0.946297	0.096592
O17	O	-0.511395	-1.744068	-0.427888
O18	O	-0.011395	-1.244068	0.072112
O19	O	-0.304542	-1.574694	-0.497103
O20	O	0.195458	-1.074694	0.002897
O21	O	-0.403724	-1.446247	-0.293676
O22	O	0.096276	-0.946247	0.206324
O23	O	-0.389729	-1.276860	-0.389477
O24	O	0.110271	-0.776860	0.110523
O25	O	-0.486797	-1.446338	-0.596277
O26	O	0.013203	-0.946338	-0.096277
O27	O	-0.472849	-1.276878	-0.472617
O28	O	0.027151	-0.776878	0.027383
O29	O	-0.414245	-1.574718	-0.606832
O30	O	0.085755	-1.074718	-0.106832
O31	O	-0.607151	-1.574631	-0.413957
O32	O	-0.107151	-1.074631	0.086043
O33	O	-0.596547	-1.446289	-0.486544
O34	O	-0.096547	-0.946289	0.013456
C35	C	-0.428162	-1.238949	-0.427930
C36	C	0.071838	-0.738949	0.072070
C37	C	-0.418600	-1.122788	-0.418396
C38	C	0.081400	-0.622788	0.081604
C39	C	-0.626410	-1.510485	-0.450267
C40	C	-0.126410	-1.010485	0.049733
C41	C	-0.701650	-1.510584	-0.450303
C42	C	-0.201650	-1.010584	0.049697
C43	C	-0.455529	-1.071036	-0.455220
C44	C	0.044471	-0.571036	0.044780
C45	C	-0.445646	-0.950977	-0.445367
C46	C	0.054354	-0.450977	0.054633
C47	C	-0.274012	-1.510498	-0.450256
C48	C	0.225988	-1.010498	0.049744
C49	C	-0.198781	-1.510507	-0.450258
C50	C	0.301219	-1.010507	0.049742
C51	C	-0.157934	-1.443666	-0.401478
C52	C	0.342066	-0.943666	0.098522
C53	C	-0.087246	-1.443672	-0.401486
C54	C	0.412754	-0.943672	0.098514
C55	C	-0.057407	-1.510526	-0.450271
C56	C	0.442593	-1.010526	0.049729
C57	C	-0.098259	-1.577371	-0.499056
C58	C	0.401741	-1.077371	0.000944
C59	C	-0.168945	-1.577358	-0.499050
C60	C	0.331055	-1.077358	0.000950
C61	C	0.186810	-1.577422	-0.499080
C62	C	0.686810	-1.077422	0.000920
C63	C	0.257502	-1.577432	-0.499080
C64	C	0.757502	-1.077432	0.000920
C65	C	0.268509	-1.443736	-0.401516
C66	C	0.768509	-0.943736	0.098484
C67	C	0.197823	-1.443724	-0.401510
C68	C	0.697823	-0.943724	0.098490
C69	C	0.156977	-1.510564	-0.450297
C70	C	0.656977	-1.010564	0.049703
C71	C	0.080330	-1.510554	-0.450288
C72	C	0.580330	-1.010554	0.049712
C73	C	0.019239	-1.510542	-0.450277
C74	C	0.519239	-1.010542	0.049723
C75	C	-0.450515	-1.510536	-0.626801
C76	C	0.049485	-1.010536	-0.126801
C77	C	-0.450499	-1.510561	-0.702035
C78	C	0.049501	-1.010561	-0.202035
C79	C	-0.473024	-0.783067	-0.472659
C80	C	0.026976	-0.283067	0.027341
C81	C	-0.482581	-0.899228	-0.482196
C82	C	0.017419	-0.399228	0.017804
C83	C	-0.412719	-1.577410	-0.742876
C84	C	0.087281	-1.077410	-0.242876
C85	C	-0.412701	-1.577421	-0.813566
C86	C	0.087299	-1.077421	-0.313566
C87	C	-0.450466	-1.510587	-0.843412
C88	C	0.049534	-1.010587	-0.343412
C89	C	-0.488247	-1.443731	-0.802565
C90	C	0.011753	-0.943731	-0.302565
C91	C	-0.488262	-1.443716	-0.731877
C92	C	0.011738	-0.943716	-0.231877
C93	C	-0.488189	-1.443790	-1.087644
C94	C	0.011811	-0.943790	-0.587644
C95	C	-0.488173	-1.443813	-1.158338
C96	C	0.011827	-0.943813	-0.658338
C97	C	-0.412628	-1.577495	-1.169332
C98	C	0.087372	-1.077495	-0.669332
C99	C	-0.412642	-1.577480	-1.098644
C100	C	0.087358	-1.077480	-0.598644
C101	C	-0.450420	-1.510620	-1.057803
C102	C	0.049580	-1.010620	-0.557803
C103	C	-0.450439	-1.510608	-0.981153
C104	C	0.049561	-1.010608	-0.481153
C105	C	-0.450451	-1.510604	-0.920061
C106	C	0.049549	-1.010604	-0.420061
C107	C	-0.450547	-1.510479	-0.274397
C108	C	0.049453	-1.010479	0.225603
C109	C	-0.450389	-1.510657	-0.199180
C110	C	0.049611	-1.010657	0.300820
H111	H	-0.406708	-0.906405	-0.406546
H112	H	0.093292	-0.406405	0.093454
H113	H	-0.519019	-1.389270	-0.698623
H114	H	-0.019019	-0.889270	-0.198623
H115	H	-0.518962	-1.389364	-1.054400
H116	H	-0.018962	-0.889364	-0.554400
H117	H	-0.494459	-1.115612	-0.494043
H118	H	0.005541	-0.615612	0.005957
O119	O	-0.529021	-0.952552	-0.528465
O120	O	-0.029021	-0.452552	-0.028465
C121	C	-0.581160	-1.120834	-0.580524
C122	C	-0.081160	-0.620834	-0.080524
C123	C	-0.528558	-1.060575	-0.528090
C124	C	-0.028558	-0.560575	-0.028090
H125	H	-0.580793	-1.208181	-0.580248
H126	H	-0.080793	-0.708181	-0.080248
H127	H	-0.633996	-1.099520	-0.566817
H128	H	-0.133996	-0.599520	-0.066817
H129	H	-0.567599	-1.099400	-0.633364
H130	H	-0.067599	-0.599400	-0.133364
H131	H	-0.542055	-1.081977	-0.475231
H132	H	-0.042055	-0.581977	0.024769
H133	H	-0.475737	-1.081895	-0.541855
H134	H	0.024263	-0.581895	-0.041855
H135	H	-0.381938	-1.631858	-0.846816
H136	H	0.118062	-1.131858	-0.346816
O137	O	-0.187030	-1.378819	-0.354118
O138	O	0.312970	-0.878819	0.145882
C139	C	-0.291039	-1.319491	-0.310894
C140	C	0.208961	-0.819491	0.189106
C141	C	-0.258182	-1.393005	-0.364557
C142	C	0.241818	-0.893005	0.135443
H143	H	-0.348568	-1.330919	-0.319324
H144	H	0.151432	-0.830919	0.180676
H145	H	-0.278713	-1.337826	-0.257809
H146	H	0.221287	-0.837826	0.242191
H147	H	-0.270146	-1.235241	-0.315850
H148	H	0.229854	-0.735241	0.184150
H149	H	-0.279055	-1.477280	-0.359664
H150	H	0.220945	-0.977280	0.140336
H151	H	-0.270503	-1.374581	-0.417620
H152	H	0.229497	-0.874581	0.082380
H153	H	-0.202201	-1.631779	-0.538776
H154	H	0.297799	-1.131779	-0.038776
H155	H	-0.379665	-1.078211	-0.379578
H156	H	0.120335	-0.578211	0.120422
H157	H	-0.053989	-1.389244	-0.361767
H158	H	0.446011	-0.889244	0.138233
O159	O	0.168951	-1.378683	-0.354091
O160	O	0.668951	-0.878683	0.145909
C161	C	0.187328	-1.246109	-0.257296
C162	C	0.687328	-0.746109	0.242704
C163	C	0.220114	-1.319702	-0.310967
C164	C	0.720114	-0.819702	0.189033
H165	H	0.228676	-1.198419	-0.222407
H166	H	0.728676	-0.698419	0.277593
H167	H	0.158772	-1.191399	-0.283840
H168	H	0.658772	-0.691399	0.216160
H169	H	0.150250	-1.294088	-0.225876
H170	H	0.650250	-0.794088	0.274124
H171	H	0.257221	-1.271807	-0.342403
H172	H	0.757221	-0.771807	0.157597
H173	H	0.248627	-1.374414	-0.284380
H174	H	0.748627	-0.874414	0.215620
H175	H	-0.518994	-1.389310	-0.826872
H176	H	-0.018994	-0.889310	-0.326872
O177	O	-0.376091	-1.642296	-0.713778
O178	O	0.123909	-1.142296	-0.213778
C179	C	-0.342588	-1.701468	-0.609751
C180	C	0.157412	-1.201468	-0.109751
C181	C	-0.384117	-1.627954	-0.642615
C182	C	0.115883	-1.127954	-0.142615
H183	H	-0.349050	-1.689882	-0.552210
H184	H	0.150950	-1.189882	-0.052210
H185	H	-0.361418	-1.785765	-0.630532
H186	H	0.138582	-1.285765	-0.130532
H187	H	-0.286504	-1.683128	-0.622186
H188	H	0.213496	-1.183128	-0.122186
H189	H	-0.440208	-1.646199	-0.630193
H190	H	0.059792	-1.146199	-0.130193
H191	H	-0.365230	-1.543679	-0.621833
H192	H	0.134770	-1.043679	-0.121833
H193	H	-0.381892	-1.631906	-1.074347
H194	H	0.118108	-1.131906	-0.574347
O195	O	0.308290	-1.378831	-0.354194
O196	O	0.808290	-0.878831	0.145806
C197	C	0.422060	-1.319631	-0.310932
C198	C	0.922060	-0.819631	0.189068
C199	C	0.377093	-1.393165	-0.364571
C200	C	0.877093	-0.893165	0.135429
H201	H	0.477695	-1.331210	-0.319295
H202	H	0.977695	-0.831210	0.180705
H203	H	0.415165	-1.235340	-0.315886
H204	H	0.915165	-0.735340	0.184114
H205	H	0.406599	-1.337956	-0.257869
H206	H	0.906599	-0.837956	0.242131
H207	H	0.392526	-1.374933	-0.417658
H208	H	0.892526	-0.874933	0.082342
H209	H	0.383994	-1.477434	-0.359558
H210	H	0.883994	-0.977434	0.140442
H211	H	-0.073959	-1.631801	-0.538781
H212	H	0.426041	-1.131801	-0.038781
H213	H	-0.381864	-1.631932	-1.202594
H214	H	0.118136	-1.131932	-0.702594
H215	H	0.281795	-1.631874	-0.538810
H216	H	0.781795	-1.131874	-0.038810
H217	H	0.153561	-1.631859	-0.538798
H218	H	0.653561	-1.131859	-0.038798
H219	H	-0.518928	-1.389384	-1.182636
H220	H	-0.018928	-0.889384	-0.682636
