data_functionalizedCrystal
_audit_creation_method	'MofGen! by Chris Wilmer'
_symmetry_space_group_name_H-M	'P1'
_symmetry_Int_Tables_number	1
_symmetry_cell_setting	triclinic
loop_
_symmetry_equiv_pos_as_xyz
  x,y,z
_cell_length_a	16.992694
_cell_length_b	11.792241
_cell_length_c	16.053802
_cell_angle_alpha	92.583059
_cell_angle_beta	87.249047
_cell_angle_gamma	87.430819
loop_
_atom_site_label
_atom_site_type_symbol
_atom_site_fract_x
_atom_site_fract_y
_atom_site_fract_z
O1	O	1.044699	0.236280	-0.069325
O2	O	0.816403	0.233637	-0.069350
O3	O	0.936091	0.070242	-0.069331
O4	O	0.925011	0.399675	-0.069344
O5	O	0.929503	0.079196	0.069527
O6	O	0.809815	0.242591	0.069508
O7	O	1.038111	0.245234	0.069533
Zn8	Zn	0.922917	0.245334	0.091567
Zn9	Zn	0.931597	0.233537	-0.091384
O10	O	0.918423	0.408630	0.069514
C11	C	0.783882	0.234716	0.000076
C12	C	0.696796	0.224578	0.000067
C13	C	0.646971	0.322395	0.000064
C14	C	0.565143	0.312864	0.000076
C15	C	0.533142	0.205513	0.000085
C16	C	0.582973	0.107688	0.000091
C17	C	0.664799	0.117221	0.000085
C18	C	0.289375	0.166002	0.000109
C19	C	0.207543	0.156476	0.000112
C20	C	0.189719	0.361652	0.000099
C21	C	0.271548	0.371176	0.000088
C22	C	0.321371	0.273351	0.000098
N23	N	0.449501	0.195767	0.000094
N24	N	0.405010	0.283098	0.000095
C25	C	0.932101	0.032371	0.000098
C26	C	0.930018	-0.093813	0.000097
C27	C	0.926188	-0.324840	0.000082
C28	C	0.928316	-0.196280	0.000090
C29	C	1.070632	0.244155	0.000105
C30	C	1.157719	0.254293	0.000109
C31	C	0.922413	0.446500	0.000084
C32	C	0.924497	0.572684	0.000079
N33	N	0.916999	0.253386	0.216427
N34	N	0.937521	0.225477	-0.216243
C35	C	0.967945	0.183889	0.260129
C36	C	0.963812	0.189532	0.347535
C37	C	0.908737	0.264679	0.391237
C38	C	0.857785	0.334179	0.347529
C39	C	0.861915	0.328529	0.260125
C40	C	0.890699	0.289327	0.652644
C41	C	0.886575	0.294974	0.740055
C42	C	0.992602	0.150325	0.740054
C43	C	0.996729	0.144687	0.652648
C44	C	0.945775	0.214182	0.608948
N45	N	0.904513	0.270452	0.480580
N46	N	0.949996	0.208403	0.519606
H47	H	0.297597	0.458591	0.000071
C48	C	0.135537	0.467753	-0.000034
C49	C	0.091403	0.463657	-0.071458
C50	C	0.041475	0.561374	-0.071600
H51	H	0.166219	0.533133	-0.000081
H52	H	0.100912	0.471424	0.048367
H53	H	0.126024	0.459997	-0.119846
H54	H	0.060705	0.398297	-0.071425
H55	H	0.006850	0.565045	-0.023199
H56	H	0.072163	0.626747	-0.071645
H57	H	0.011519	0.558603	-0.120056
C58	C	0.826730	0.376382	0.787617
C59	C	0.776113	0.314737	0.837831
C60	C	0.720986	0.389688	0.881668
H61	H	0.796890	0.416996	0.749174
H62	H	0.853513	0.428418	0.821750
H63	H	0.749332	0.262721	0.803701
H64	H	0.805931	0.274127	0.876290
H65	H	0.747769	0.441725	0.915801
H66	H	0.691152	0.430298	0.843218
H67	H	0.686641	0.347875	0.915749
H68	H	0.556910	0.020281	0.000110
C69	C	0.172947	0.039817	0.000164
C70	C	0.234092	-0.043813	0.000192
C71	C	0.202251	-0.151284	0.000246
H72	H	0.143701	0.028553	-0.048247
H73	H	0.139124	0.034903	0.048605
H74	H	0.267901	-0.038903	-0.048245
H75	H	0.263342	-0.032587	0.048598
H76	H	0.168428	-0.156199	0.048688
H77	H	0.173006	-0.162537	-0.048165
H78	H	0.243732	-0.208040	0.000273
C79	C	0.343558	0.059877	-0.000022
C80	C	0.394447	0.054760	-0.071454
C81	C	0.444381	-0.042984	-0.071600
H82	H	0.312875	-0.005503	-0.000063
H83	H	0.373607	0.062438	0.048374
H84	H	0.364402	0.052189	-0.119837
H85	H	0.425148	0.120117	-0.071428
H86	H	0.474430	-0.040424	-0.023204
H87	H	0.413692	-0.108357	-0.071639
H88	H	0.478920	-0.046464	-0.120061
C89	C	1.027648	0.102085	0.212750
C90	C	1.013416	-0.009263	0.234039
C91	C	1.068391	-0.084667	0.190415
H92	H	1.079407	0.119972	0.227038
H93	H	1.022824	0.108568	0.154423
H94	H	1.018247	-0.015741	0.292353
H95	H	0.961668	-0.027185	0.219749
H96	H	1.063567	-0.078185	0.132088
H97	H	1.120146	-0.066770	0.204706
H98	H	1.058738	-0.160226	0.204847
H99	H	1.005296	0.132942	0.383116
C100	C	1.056415	0.062655	0.605468
C101	C	1.041993	-0.048540	0.626993
C102	C	1.096949	-0.124249	0.583639
H103	H	1.108170	0.080473	0.619816
H104	H	1.051711	0.068896	0.547103
H105	H	1.046704	-0.054777	0.685345
H106	H	0.990249	-0.066394	0.612643
H107	H	1.092245	-0.118008	0.525275
H108	H	1.148700	-0.106420	0.597991
H109	H	1.087167	-0.199704	0.598232
C110	C	0.718768	0.010880	0.000041
C111	C	0.673233	-0.085176	0.000026
C112	C	0.722922	-0.183160	-0.000023
H113	H	0.748787	0.013296	0.048448
H114	H	0.753339	0.007148	-0.048404
H115	H	0.638677	-0.081444	0.048465
H116	H	0.643216	-0.087629	-0.048378
H117	H	0.757492	-0.186893	-0.048468
H118	H	0.752938	-0.180733	0.048385
H119	H	0.692034	-0.248346	-0.000041
C120	C	1.047783	0.074729	0.787548
C121	C	1.003333	0.004625	0.837724
C122	C	1.054139	-0.065046	0.881479
H123	H	1.079014	0.120634	0.821705
H124	H	1.081162	0.029097	0.749031
H125	H	0.969968	0.050252	0.876237
H126	H	0.972105	-0.041304	0.803587
H127	H	1.087518	-0.110678	0.842961
H128	H	1.085367	-0.019132	0.915631
H129	H	1.023987	-0.112627	0.915522
H130	H	0.849212	0.345915	0.617070
H131	H	0.820428	0.385119	0.224543
C132	C	0.681865	0.438846	0.000008
C133	C	0.764190	0.426263	-0.000021
C134	C	0.796359	0.533514	-0.000082
H135	H	0.662591	0.482654	0.048416
H136	H	0.667125	0.476321	-0.048436
H137	H	0.778924	0.388804	0.048418
H138	H	0.783486	0.382474	-0.048425
H139	H	0.781619	0.570989	-0.048526
H140	H	0.777079	0.577314	0.048327
H141	H	0.852220	0.524990	-0.000110
C142	C	0.511181	0.419199	0.000029
C143	C	0.556721	0.515250	-0.000007
C144	C	0.507039	0.613230	-0.000060
H145	H	0.476586	0.423033	0.048442
H146	H	0.481190	0.416682	-0.048410
H147	H	0.586699	0.517768	0.048426
H148	H	0.591315	0.511454	-0.048417
H149	H	0.477049	0.610712	-0.048499
H150	H	0.472447	0.617052	0.048354
H151	H	0.537931	0.678411	-0.000092
C152	C	0.798069	0.415736	0.395126
C153	C	0.805371	0.405836	0.481026
C154	C	0.750381	0.480964	0.524895
H155	H	0.746305	0.397766	0.380913
H156	H	0.807589	0.491395	0.380837
H157	H	0.795845	0.330194	0.495309
H158	H	0.857123	0.423816	0.495263
H159	H	0.759901	0.556622	0.510606
H160	H	0.698621	0.462987	0.510676
H161	H	0.755333	0.474264	0.583182
