data_functionalizedCrystal
_audit_creation_method	'MofGen! by Chris Wilmer'
_symmetry_space_group_name_H-M	'P1'
_symmetry_Int_Tables_number	1
_symmetry_cell_setting	triclinic
loop_
_symmetry_equiv_pos_as_xyz
  x,y,z
_cell_length_a	15.297327
_cell_length_b	17.077404
_cell_length_c	17.077395
_cell_angle_alpha	90.015641
_cell_angle_beta	99.647851
_cell_angle_gamma	80.292864
loop_
_atom_site_label
_atom_site_type_symbol
_atom_site_fract_x
_atom_site_fract_y
_atom_site_fract_z
Zn1	Zn	-0.359173	-1.145917	-0.497897
Zn2	Zn	-0.510045	-1.123105	-0.389336
Zn3	Zn	-0.359202	-1.014654	-0.366649
Zn4	Zn	-0.509995	-0.991897	-0.520552
O5	O	-0.434604	-1.068893	-0.443608
O6	O	-0.379196	-1.252737	-0.483509
O7	O	-0.490068	-1.108696	-0.276485
O8	O	-0.232950	-1.051137	-0.365083
O9	O	-0.490041	-1.235977	-0.403750
O10	O	-0.232929	-1.147576	-0.461510
O11	O	-0.379244	-1.029017	-0.259816
O12	O	-0.379195	-0.901789	-0.387051
O13	O	-0.489955	-1.012351	-0.627389
O14	O	-0.489982	-0.885070	-0.500123
O15	O	-0.379147	-1.125509	-0.610744
O16	O	-0.636286	-1.086629	-0.425718
O17	O	-0.636249	-0.990231	-0.522122
C18	C	-0.434587	-0.864948	-0.443584
C19	C	-0.434602	-0.777696	-0.443596
C20	C	-0.669002	-1.033506	-0.478858
C21	C	-0.769279	-1.018440	-0.493964
C22	C	-0.434542	-1.068936	-0.648344
C23	C	-0.434516	-1.068954	-0.735589
C24	C	-1.051893	-1.176901	-0.335911
C25	C	-0.957679	-1.191057	-0.321714
C26	C	-0.910574	-1.147904	-0.364776
C27	C	-0.957694	-1.090593	-0.422036
C28	C	-1.051918	-1.076431	-0.436230
C29	C	-0.910598	-1.047434	-0.465094
C30	C	-0.957718	-0.990123	-0.522354
C31	C	-1.051933	-0.975965	-0.536546
C32	C	-1.099037	-1.019117	-0.493485
C33	C	-0.816374	-1.061595	-0.450900
C34	C	-0.816398	-0.961126	-0.551219
C35	C	-0.910613	-0.946970	-0.565416
C36	C	-0.199290	-1.104439	-0.408239
C37	C	-0.099013	-1.119587	-0.393166
C38	C	-0.434621	-1.273635	-0.443633
C39	C	-0.434628	-1.360883	-0.443644
C40	C	-0.492376	-0.728007	-0.502405
C41	C	-0.492378	-0.646026	-0.502418
C42	C	-0.434610	-0.613735	-0.443618
C43	C	-0.376830	-0.663430	-0.384805
C44	C	-0.376824	-0.745410	-0.384796
C45	C	-0.376847	-0.492558	-0.384827
C46	C	-0.376854	-0.410572	-0.384835
C47	C	-0.492401	-0.393174	-0.502448
C48	C	-0.492396	-0.475154	-0.502439
C49	C	-0.434616	-0.524843	-0.443626
C50	C	-0.376696	-1.127981	-1.102720
C51	C	-0.376728	-1.127961	-1.020744
C52	C	-0.434431	-1.069032	-0.988426
C53	C	-0.492113	-1.010125	-1.038089
C54	C	-0.492085	-1.010149	-1.120064
C55	C	-0.492165	-1.010076	-0.867226
C56	C	-0.492192	-1.010050	-0.785246
C57	C	-0.376808	-1.127887	-0.767907
C58	C	-0.376780	-1.127912	-0.849882
C59	C	-0.434461	-1.069004	-0.899539
C60	C	-0.434600	-1.068905	-0.239660
C61	C	-0.434371	-1.069077	-0.152376
H62	H	-0.833860	-1.159432	-0.353212
C63	C	-0.555955	-0.338520	-0.567149
C64	C	-0.619503	-0.374037	-0.631825
C65	C	-0.683056	-0.319380	-0.696521
C66	C	-0.683061	-0.229205	-0.696541
C67	C	-0.619511	-0.193684	-0.631862
C68	C	-0.555958	-0.248341	-0.567166
H69	H	-0.619501	-0.440794	-0.631812
H70	H	-0.730100	-0.345676	-0.744400
H71	H	-0.730107	-0.188744	-0.744432
H72	H	-0.619513	-0.126927	-0.631875
H73	H	-0.508913	-0.222045	-0.519287
H74	H	-0.778046	-0.925985	-0.586281
C75	C	-0.313221	-1.192806	-1.138266
C76	C	-0.249784	-1.257602	-1.083642
C77	C	-0.186310	-1.322431	-1.119186
C78	C	-0.186273	-1.322463	-1.209354
C79	C	-0.249713	-1.257664	-1.263984
C80	C	-0.313187	-1.192835	-1.228440
H81	H	-0.249809	-1.257581	-1.016889
H82	H	-0.139348	-1.370399	-1.078745
H83	H	-0.139286	-1.370452	-1.235666
H84	H	-0.249688	-1.257685	-1.330736
H85	H	-0.360149	-1.144867	-1.268881
C86	C	-0.555707	-0.945246	-0.749717
C87	C	-0.626558	-0.968579	-0.704032
C88	C	-0.690092	-0.903780	-0.668514
C89	C	-0.682775	-0.815647	-0.678682
C90	C	-0.611921	-0.792310	-0.724369
C91	C	-0.548387	-0.857109	-0.759887
H92	H	-0.631977	-1.033823	-0.696504
H93	H	-0.742542	-0.921056	-0.634693
H94	H	-0.729806	-0.767679	-0.652389
H95	H	-0.606502	-0.727065	-0.731897
H96	H	-0.495936	-0.839833	-0.793707
C97	C	-0.555934	-0.591372	-0.567109
C98	C	-0.658484	-0.587163	-0.575970
C99	C	-0.722043	-0.532510	-0.640666
C100	C	-0.683053	-0.482065	-0.696501
C101	C	-0.580498	-0.486273	-0.687642
C102	C	-0.516939	-0.540926	-0.622946
H103	H	-0.687351	-0.624506	-0.534636
H104	H	-0.797960	-0.529396	-0.647224
H105	H	-0.730103	-0.441608	-0.744393
H106	H	-0.551631	-0.448929	-0.728976
H107	H	-0.441021	-0.544040	-0.616388
H108	H	-0.329840	-1.175851	-0.727472
C109	C	-0.764549	-1.124639	-0.387922
C110	C	-0.699854	-1.100390	-0.316514
C111	C	-0.648030	-1.163439	-0.253533
C112	C	-0.660900	-1.250737	-0.261960
C113	C	-0.725597	-1.274990	-0.333371
C114	C	-0.777422	-1.211941	-0.396352
H115	H	-0.690324	-1.035763	-0.310274
H116	H	-0.600136	-1.145485	-0.200671
H117	H	-0.622536	-1.297410	-0.215338
H118	H	-0.735127	-1.339617	-0.339611
H119	H	-0.825316	-1.229895	-0.449214
H120	H	-0.539440	-0.501442	-0.550316
H121	H	-0.329789	-1.175894	-0.876192
C122	C	-0.555530	-0.945352	-1.174686
C123	C	-0.516419	-0.889647	-1.225167
C124	C	-0.579871	-0.824850	-1.279788
C125	C	-0.682434	-0.815759	-1.283928
C126	C	-0.721551	-0.871466	-1.233446
C127	C	-0.658099	-0.936263	-1.178825
H128	H	-0.440490	-0.896375	-1.222103
H129	H	-0.550913	-0.783612	-1.317158
H130	H	-0.729406	-0.767793	-1.324362
H131	H	-0.797480	-0.864738	-1.236509
H132	H	-0.687057	-0.977501	-1.141455
H133	H	-0.539137	-0.962109	-0.907656
H134	H	-0.539099	-0.962147	-1.011769
H135	H	-0.329774	-0.785867	-0.336911
H136	H	-1.090255	-1.212025	-0.300852
H137	H	-0.919317	-1.237718	-0.275093
C138	C	-0.313279	-1.192756	-0.966125
C139	C	-0.210714	-1.201842	-0.961979
C140	C	-0.147262	-1.266641	-0.907361
C141	C	-0.186374	-1.322355	-0.856890
C142	C	-0.288944	-1.313271	-0.861034
C143	C	-0.352396	-1.248471	-0.915652
H144	H	-0.181757	-1.160598	-0.999342
H145	H	-0.071333	-1.273366	-0.904294
H146	H	-0.139403	-1.370324	-0.816459
H147	H	-0.317902	-1.354515	-0.823671
H148	H	-0.428325	-1.241746	-0.918720
C149	C	-0.313288	-0.547222	-0.320136
C150	C	-0.210738	-0.551432	-0.311269
C151	C	-0.147184	-0.606097	-0.246580
C152	C	-0.186179	-0.656552	-0.190759
C153	C	-0.288735	-0.652343	-0.199624
C154	C	-0.352289	-0.597678	-0.264313
H155	H	-0.181867	-0.514081	-0.352592
H156	H	-0.071266	-0.609213	-0.240017
H157	H	-0.139132	-0.697019	-0.142872
H158	H	-0.317606	-0.689695	-0.158300
H159	H	-0.428207	-0.594563	-0.270876
C160	C	-1.103763	-0.912917	-0.599527
C161	C	-1.090891	-0.825619	-0.591104
C162	C	-1.142718	-0.762571	-0.654085
C163	C	-1.207415	-0.786821	-0.725490
C164	C	-1.220290	-0.874123	-0.733916
C165	C	-1.168463	-0.937171	-0.670935
H166	H	-1.042995	-0.807664	-0.538243
H167	H	-1.133187	-0.697944	-0.647847
H168	H	-1.245781	-0.740149	-0.772113
H169	H	-1.268186	-0.892078	-0.786777
H170	H	-1.177994	-1.001798	-0.677173
C171	C	-0.962452	-0.883925	-0.628396
C172	C	-0.949593	-0.796624	-0.619976
C173	C	-1.001432	-0.733580	-0.682955
C174	C	-1.066131	-0.757837	-0.754356
C175	C	-1.078993	-0.845142	-0.762779
C176	C	-1.027153	-0.908186	-0.699799
H177	H	-0.901696	-0.778664	-0.567118
H178	H	-0.991911	-0.668951	-0.676720
H179	H	-1.104506	-0.711168	-0.800977
H180	H	-1.126889	-0.863103	-0.815636
H181	H	-1.036675	-0.972816	-0.706035
H182	H	-1.175755	-1.007597	-0.505043
H183	H	-0.539420	-0.754291	-0.550285
H184	H	-0.329804	-0.384285	-0.336962
H185	H	-0.329790	-0.637133	-0.336932
