data_functionalizedCrystal
_audit_creation_method	'MofGen! by Chris Wilmer'
_symmetry_space_group_name_H-M	'P1'
_symmetry_Int_Tables_number	1
_symmetry_cell_setting	triclinic
loop_
_symmetry_equiv_pos_as_xyz
  x,y,z
_cell_length_a	12.759401
_cell_length_b	12.759400
_cell_length_c	12.759387
_cell_angle_alpha	89.937874
_cell_angle_beta	89.959638
_cell_angle_gamma	90.014328
loop_
_atom_site_label
_atom_site_type_symbol
_atom_site_fract_x
_atom_site_fract_y
_atom_site_fract_z
Zn1	Zn	1.606476	-0.417897	-0.594000
Zn2	Zn	1.606305	-0.593710	-0.418320
Zn3	Zn	1.430713	-0.418045	-0.418337
Zn4	Zn	1.430766	-0.593534	-0.593959
O5	O	1.518565	-0.505796	-0.506154
O6	O	1.753474	-0.441232	-0.570705
O7	O	1.582918	-0.570543	-0.271301
O8	O	1.454077	-0.271004	-0.441663
O9	O	1.753349	-0.570400	-0.441634
O10	O	1.583209	-0.270896	-0.570722
O11	O	1.453911	-0.441482	-0.271313
O12	O	1.283699	-0.441311	-0.441624
O13	O	1.454169	-0.570100	-0.740986
O14	O	1.283738	-0.570243	-0.570653
O15	O	1.583261	-0.441061	-0.741016
O16	O	1.582970	-0.740708	-0.441594
O17	O	1.454003	-0.740578	-0.570636
C18	C	1.245598	-0.505775	-0.506137
C19	C	1.128821	-0.505791	-0.506154
C20	C	1.518503	-0.778764	-0.506132
C21	C	1.518572	-0.895540	-0.506158
C22	C	0.964183	-0.438590	-0.439097
C23	C	1.073907	-0.438568	-0.439087
C24	C	1.074005	-0.573032	-0.573244
C25	C	0.964283	-0.573048	-0.573258
C26	C	0.909274	-0.371371	-0.372018
C27	C	0.964082	-0.304128	-0.304930
C28	C	1.073806	-0.304106	-0.304920
C29	C	1.128722	-0.371327	-0.371998
C30	C	1.585800	-0.950435	-0.439040
C31	C	1.585864	-1.060159	-0.439072
C32	C	1.451464	-1.060084	-0.573343
C33	C	1.451406	-0.950362	-0.573315
C34	C	1.652966	-0.895613	-0.371882
C35	C	1.720199	-0.950508	-0.304758
C36	C	1.720263	-1.060232	-0.304791
C37	C	1.653095	-1.115061	-0.371947
C38	C	1.792598	-0.505819	-0.506172
C39	C	1.909375	-0.505829	-0.506179
C40	C	1.518740	-0.505544	-0.780188
C41	C	1.518815	-0.505437	-0.896964
C42	C	1.518656	-0.231763	-0.506199
C43	C	1.518695	-0.114986	-0.506218
C44	C	1.518451	-0.505972	-0.233186
C45	C	1.518580	-0.505783	-0.116410
C46	C	1.452032	-0.573190	0.048477
C47	C	1.451917	-0.573367	-0.061247
C48	C	1.585370	-0.438027	-0.061843
C49	C	1.585489	-0.437857	0.047878
C50	C	1.385358	-0.640771	0.103634
C51	C	1.318569	-0.708529	0.049075
C52	C	1.318454	-0.708705	-0.060649
C53	C	1.385127	-0.641123	-0.115814
H54	H	0.819931	-0.371384	-0.372018
C55	C	1.384999	-0.641324	-0.236514
N56	N	1.384898	-0.641472	-0.327424
H57	H	1.264292	-0.763557	0.093997
H58	H	1.118727	-0.627760	-0.627855
C59	C	0.903991	-0.647013	-0.647053
N60	N	0.858579	-0.702723	-0.702639
C61	C	1.658952	-0.363322	0.107897
N62	N	1.714287	-0.307183	0.153102
H63	H	1.639651	-0.383004	-0.106767
C64	C	0.903673	-0.230185	-0.231153
N65	N	0.858173	-0.174489	-0.175583
C66	C	1.134092	-0.230135	-0.231126
N67	N	1.179497	-0.174422	-0.175538
C68	C	1.244988	-0.783241	-0.120661
N69	N	1.189646	-0.839380	-0.165859
C70	C	1.377575	-1.120401	-0.647200
N71	N	1.321915	-1.165832	-0.702826
H72	H	1.396664	-0.905667	-0.627970
H73	H	1.652918	-0.806270	-0.371845
H74	H	1.218067	-0.371294	-0.371994
H75	H	1.385443	-0.640633	0.192976
H76	H	1.774891	-0.905860	-0.250088
H77	H	1.775015	-1.104924	-0.250143
C78	C	1.653174	-1.235761	-0.371982
N79	N	1.653230	-1.326672	-0.372004
