data_functionalizedCrystal
_audit_creation_method	'MofGen! by Chris Wilmer'
_symmetry_space_group_name_H-M	'P1'
_symmetry_Int_Tables_number	1
_symmetry_cell_setting	triclinic
loop_
_symmetry_equiv_pos_as_xyz
  x,y,z
_cell_length_a	15.297475
_cell_length_b	18.050589
_cell_length_c	15.296720
_cell_angle_alpha	80.353020
_cell_angle_beta	88.382886
_cell_angle_gamma	80.331321
loop_
_atom_site_label
_atom_site_type_symbol
_atom_site_fract_x
_atom_site_fract_y
_atom_site_fract_z
Zn1	Zn	1.253324	-0.577978	0.726619
Zn2	Zn	1.753324	-0.077978	1.226619
Zn3	Zn	1.278573	-0.684914	0.580139
Zn4	Zn	1.778573	-0.184914	1.080139
Zn5	Zn	1.132208	-0.536258	0.554858
Zn6	Zn	1.632208	-0.036258	1.054858
Zn7	Zn	1.106800	-0.677614	0.701267
Zn8	Zn	1.606800	-0.177614	1.201267
O9	O	1.192726	-0.619191	0.640721
O10	O	1.692726	-0.119191	1.140721
O11	O	1.379249	-0.612678	0.728378
O12	O	1.879249	-0.112678	1.228378
O13	O	1.280357	-0.650790	0.454210
O14	O	1.780357	-0.150790	0.954210
O15	O	1.148341	-0.437882	0.577673
O16	O	1.648341	0.062118	1.077673
O17	O	1.397799	-0.691244	0.620759
O18	O	1.897799	-0.191244	1.120759
O19	O	1.237325	-0.468533	0.703865
O20	O	1.737325	0.031467	1.203865
O21	O	1.172823	-0.541573	0.435637
O22	O	1.672823	-0.041573	0.935637
O23	O	1.006262	-0.534494	0.553090
O24	O	1.506262	-0.034494	1.053090
O25	O	1.105037	-0.678802	0.827205
O26	O	1.605037	-0.178802	1.327205
O27	O	0.987595	-0.638348	0.660656
O28	O	1.487595	-0.138348	1.160656
O29	O	1.212688	-0.605600	0.845831
O30	O	1.712688	-0.105600	1.345831
O31	O	1.255720	-0.787856	0.596176
O32	O	1.755720	-0.287856	1.096176
O33	O	1.129519	-0.782493	0.685169
O34	O	1.629519	-0.282493	1.185169
C35	C	0.965146	-0.581102	0.601379
C36	C	1.465146	-0.081102	1.101379
C37	C	0.867783	-0.564828	0.584569
C38	C	1.367783	-0.064828	1.084569
C39	C	0.554614	-0.735511	0.760865
C40	C	1.054614	-0.235511	1.260865
C41	C	0.646092	-0.750806	0.776656
C42	C	1.146092	-0.250806	1.276656
C43	C	0.701519	-0.704313	0.728636
C44	C	1.201519	-0.204313	1.228636
C45	C	0.665459	-0.642522	0.664822
C46	C	1.165459	-0.142522	1.164822
C47	C	0.573973	-0.627228	0.649024
C48	C	1.073973	-0.127228	1.149024
C49	C	0.720878	-0.596030	0.616795
C50	C	1.220878	-0.096030	1.116795
C51	C	0.684818	-0.534239	0.552980
C52	C	1.184818	-0.034239	1.052980
C53	C	0.593341	-0.518948	0.537186
C54	C	1.093341	-0.018948	1.037186
C55	C	0.537914	-0.565441	0.585206
C56	C	1.037914	-0.065441	1.085206
C57	C	0.812364	-0.611324	0.632593
C58	C	1.312364	-0.111324	1.132593
C59	C	0.831723	-0.503041	0.520751
C60	C	1.331723	-0.003041	1.020751
C61	C	0.740245	-0.487746	0.504960
C62	C	1.240245	0.012254	1.004960
C63	C	1.192623	-0.812124	0.640688
C64	C	1.692623	-0.312124	1.140688
C65	C	1.192654	-0.894678	0.640717
C66	C	1.692654	-0.394678	1.140717
C67	C	1.124087	-1.091246	0.689101
C68	C	1.624087	-0.591246	1.189101
C69	C	1.116577	-1.127707	0.605486
C70	C	1.616577	-0.627707	1.105486
C71	C	1.192738	-1.045824	0.640743
C72	C	1.692738	-0.545824	1.140743
C73	C	1.200290	-1.156454	0.724374
C74	C	1.700290	-0.656454	1.224374
C75	C	1.192816	-1.191825	0.640775
C76	C	1.692816	-0.691825	1.140775
C77	C	1.185193	-1.081185	0.557079
C78	C	1.685193	-0.581185	1.057079
C79	C	1.268934	-1.109941	0.676028
C80	C	1.768934	-0.609941	1.176028
C81	C	1.261463	-1.146377	0.592364
C82	C	1.761463	-0.646377	1.092364
C83	C	1.192690	-0.961717	0.640726
C84	C	1.692690	-0.461717	1.140726
C85	C	1.192866	-1.275930	0.640784
C86	C	1.692866	-0.775930	1.140784
C87	C	1.421195	-0.657429	0.680217
C88	C	1.921195	-0.157429	1.180217
C89	C	1.518555	-0.673724	0.697047
C90	C	2.018555	-0.173724	1.197047
C91	C	1.153212	-0.646040	0.869189
C92	C	1.653212	-0.146040	1.369189
C93	C	1.136373	-0.657482	0.966549
C94	C	1.636373	-0.157482	1.466549
C95	C	1.192850	-0.425511	0.640777
C96	C	1.692850	0.074489	1.140777
C97	C	1.192903	-0.342976	0.640801
C98	C	1.692903	0.157024	1.140801
C99	C	1.232137	-0.592401	0.413150
C100	C	1.732137	-0.092401	0.913150
C101	C	1.249146	-0.580779	0.315820
C102	C	1.749146	-0.080779	0.815820
C103	C	1.313107	-0.537292	1.279781
C104	C	1.813107	-0.037292	1.779781
C105	C	1.328934	-0.526544	1.188308
C106	C	1.828934	-0.026544	1.688308
C107	C	1.280795	-0.559277	1.132864
C108	C	1.780795	-0.059277	1.632864
C109	C	1.216827	-0.602761	1.168902
C110	C	1.716827	-0.102761	1.668902
C111	C	1.201004	-0.613514	1.260385
C112	C	1.701004	-0.113514	1.760385
C113	C	1.168692	-0.635500	1.113467
C114	C	1.668692	-0.135500	1.613467
C115	C	1.104724	-0.678984	1.149505
C116	C	1.604724	-0.178984	1.649505
C117	C	1.088904	-0.689735	1.240979
C118	C	1.588904	-0.189735	1.740979
C119	C	1.137042	-0.657002	1.296423
C120	C	1.637042	-0.157002	1.796423
C121	C	1.184515	-0.624746	1.021984
C122	C	1.684515	-0.124746	1.521984
C123	C	1.072411	-0.700969	1.002587
C124	C	1.572411	-0.200969	1.502587
C125	C	1.056585	-0.711717	1.094061
C126	C	1.556585	-0.211717	1.594061
H127	H	0.675446	-0.801118	0.828613
H128	H	1.175446	-0.301118	1.328613
O129	O	0.851242	-0.677959	0.701432
O130	O	1.351242	-0.177959	1.201432
H131	H	0.885222	-0.656988	0.753261
H132	H	1.385222	-0.156988	1.253261
H133	H	1.178761	-1.048631	0.486334
H134	H	1.678761	-0.548631	0.986334
O135	O	1.338421	-1.178139	0.538141
O136	O	1.838421	-0.678139	1.038141
H137	H	1.401495	-1.170494	0.566861
H138	H	1.901495	-0.670494	1.066861
H139	H	0.776004	-0.716770	0.741498
H140	H	1.276004	-0.216770	1.241498
O141	O	0.494837	-0.785653	0.812655
O142	O	0.994837	-0.285653	1.312655
H143	H	0.425167	-0.764633	0.790951
H144	H	0.925167	-0.264633	1.290951
O145	O	1.297863	-0.547693	1.034203
O146	O	1.797863	-0.047693	1.534203
H147	H	1.235977	-0.518795	0.998663
H148	H	1.735977	-0.018795	1.498663
O149	O	1.208720	-1.199674	0.818042
O150	O	1.708720	-0.699674	1.318042
H151	H	1.151618	-1.177471	0.858018
H152	H	1.651618	-0.677471	1.358018
O153	O	1.253506	-0.577851	0.983121
O154	O	1.753506	-0.077851	1.483121
H155	H	1.221542	-0.528612	0.934672
H156	H	1.721542	-0.028612	1.434672
H157	H	0.463423	-0.552990	0.572354
H158	H	0.963423	-0.052990	1.072354
O159	O	1.354329	-1.099056	0.715487
O160	O	1.854329	-0.599056	1.215487
H161	H	1.360452	-1.129580	0.784901
H162	H	1.860452	-0.629580	1.284901
H163	H	0.563986	-0.468640	0.485215
H164	H	1.063986	0.031360	0.985215
O165	O	0.701354	-0.421118	0.436108
O166	O	1.201354	0.078882	0.936108
H167	H	0.628433	-0.418306	0.433184
H168	H	1.128433	0.081694	0.933184
H169	H	1.381018	-0.491142	1.158973
H170	H	1.881018	0.008858	1.658973
O171	O	0.891492	-0.452885	0.468954
O172	O	1.391492	0.047115	0.968954
H173	H	0.961161	-0.473894	0.490667
H174	H	1.461161	0.026106	0.990667
O175	O	1.365002	-0.501966	1.339573
O176	O	1.865002	-0.001966	1.839573
H177	H	1.343240	-0.516739	1.409234
H178	H	1.843240	-0.016739	1.909234
H179	H	1.124160	-0.665750	1.370909
H180	H	1.624160	-0.165750	1.870909
O181	O	1.019911	-0.736633	1.279854
O182	O	1.519911	-0.236633	1.779854
H183	H	0.989087	-0.757582	1.225934
H184	H	1.489087	-0.257582	1.725934
H185	H	1.052176	-1.136053	0.575667
H186	H	1.552176	-0.636053	1.075667
O187	O	0.987591	-0.758614	1.132934
O188	O	1.487591	-0.258614	1.632934
H189	H	1.019559	-0.807857	1.181374
H190	H	1.519559	-0.307857	1.681374
O191	O	1.047114	-1.059269	0.743159
O192	O	1.547114	-0.559269	1.243159
H193	H	0.983984	-1.065909	0.713676
H194	H	1.483984	-0.565909	1.213676
O195	O	1.020478	-0.736275	0.942799
O196	O	1.520478	-0.236275	1.442799
H197	H	1.042218	-0.721484	0.873133
H198	H	1.542218	-0.221484	1.373133
