data_functionalizedCrystal
_audit_creation_method	'MofGen! by Chris Wilmer'
_symmetry_space_group_name_H-M	'P1'
_symmetry_Int_Tables_number	1
_symmetry_cell_setting	triclinic
loop_
_symmetry_equiv_pos_as_xyz
  x,y,z
_cell_length_a	21.295417
_cell_length_b	21.295419
_cell_length_c	18.101389
_cell_angle_alpha	89.980251
_cell_angle_beta	90.022566
_cell_angle_gamma	89.952934
loop_
_atom_site_label
_atom_site_type_symbol
_atom_site_fract_x
_atom_site_fract_y
_atom_site_fract_z
Zn1	Zn	-0.250397	-0.962321	0.418727
Zn2	Zn	-0.355651	-0.962234	0.294877
Zn3	Zn	-0.250430	-0.857055	0.294898
Zn4	Zn	-0.355663	-0.857014	0.418675
O5	O	-0.303035	-0.909656	0.356794
O6	O	-0.264340	-1.050399	0.402311
O7	O	-0.341701	-0.948262	0.191246
O8	O	-0.162336	-0.871072	0.311355
O9	O	-0.341670	-1.050335	0.311318
O10	O	-0.162312	-0.948411	0.402332
O11	O	-0.264396	-0.870987	0.191262
O12	O	-0.264408	-0.768960	0.311305
O13	O	-0.341691	-0.871003	0.522315
O14	O	-0.341722	-0.768930	0.402243
O15	O	-0.264352	-0.948371	0.522353
O16	O	-0.443742	-0.948222	0.311268
O17	O	-0.443751	-0.870918	0.402222
C18	C	-0.303070	-0.746104	0.356771
C19	C	-0.303101	-0.676136	0.356779
C20	C	-0.262902	-0.643325	0.404231
C21	C	-0.262887	-0.577583	0.404233
C22	C	-0.303082	-0.544654	0.356790
C23	C	-0.343283	-0.577472	0.309328
C24	C	-0.343293	-0.643213	0.309323
N25	N	-0.358162	-0.441379	0.351001
N26	N	-0.358152	-0.378927	0.351010
C27	C	-0.303055	-0.346579	0.356803
N28	N	-0.247969	-0.379041	0.362601
N29	N	-0.247980	-0.441498	0.362595
C30	C	-0.303076	-0.473368	0.356791
C31	C	-0.262837	-0.242483	0.404260
C32	C	-0.262821	-0.176739	0.404257
C33	C	-0.343223	-0.176630	0.309356
C34	C	-0.343234	-0.242372	0.309356
C35	C	-0.303042	-0.275295	0.356812
C36	C	-0.466587	-0.909573	0.356753
C37	C	-0.536555	-0.909596	0.356760
C38	C	-0.569396	-0.949884	0.309449
C39	C	-0.635138	-0.949913	0.309466
C40	C	-0.668037	-0.909643	0.356786
C41	C	-0.635188	-0.869352	0.404106
C42	C	-0.569447	-0.869328	0.404094
N43	N	-0.771320	-0.854576	0.362424
N44	N	-0.833771	-0.854600	0.362432
C45	C	-0.866112	-0.909714	0.356828
N46	N	-0.833642	-0.964803	0.351203
N47	N	-0.771185	-0.964778	0.351191
C48	C	-0.739323	-0.909665	0.356805
C49	C	-0.970239	-0.950038	0.309533
C50	C	-1.035982	-0.950068	0.309554
C51	C	-1.036031	-0.869501	0.404191
C52	C	-0.970288	-0.869476	0.404173
C53	C	-0.937396	-0.909744	0.356840
C54	C	-0.138845	-0.909756	0.356852
C55	C	-0.068877	-0.909798	0.356876
C56	C	-0.303019	-0.909692	0.549956
C57	C	-0.303012	-0.909708	0.632270
C58	C	-0.303008	-0.073846	0.356814
C59	C	-0.303016	-0.143814	0.356813
C60	C	-0.303005	-0.909656	0.164384
C61	C	-0.302835	-0.909762	0.082070
C62	C	-0.302894	-0.909744	0.931361
C63	C	-0.351399	-0.860898	0.900012
C64	C	-0.351624	-0.861030	0.814394
C65	C	-0.302953	-0.909726	0.782979
C66	C	-0.320940	-0.976048	0.814077
C67	C	-0.321259	-0.975776	0.899722
C68	C	-0.236294	-0.892844	0.899793
C69	C	-0.236679	-0.891368	0.814142
C70	C	-0.302985	-0.909719	0.699119
C71	C	-0.302864	-0.909755	1.015221
H72	H	-0.230083	-0.150025	0.442897
Cl73	Cl	-0.676546	-0.818730	0.463598
H74	H	-0.542707	-0.836520	0.442621
Cl75	Cl	-0.393811	-0.536076	0.249682
Cl76	Cl	-0.929000	-0.818822	0.463651
H77	H	-0.230174	-0.670127	0.442873
Cl78	Cl	-0.395308	-0.998553	0.780967
Cl79	Cl	-0.928885	-1.000658	0.250029
H80	H	-1.062720	-0.982880	0.271029
Cl81	Cl	-1.077383	-0.818880	0.463686
H82	H	-0.340370	-0.811849	0.793367
Cl83	Cl	-0.396424	-0.997894	0.930569
Cl84	Cl	-0.180500	-0.947772	0.931096
Cl85	Cl	-0.334201	-0.784734	0.931796
H86	H	-0.219902	-0.845322	0.921385
H87	H	-0.400464	-0.871945	0.921533
Cl88	Cl	-0.212307	-0.283874	0.463912
Cl89	Cl	-0.212347	-0.536326	0.463891
H90	H	-0.400990	-0.872188	0.793906
H91	H	-0.376028	-0.669928	0.270680
H92	H	-0.375951	-0.149819	0.270727
Cl93	Cl	-0.393769	-0.283622	0.249694
Cl94	Cl	-0.268110	-1.033750	0.782666
Cl95	Cl	-0.528049	-1.000515	0.249955
Cl96	Cl	-0.269046	-1.033836	0.931746
Cl97	Cl	-0.215737	-0.816009	0.782770
Cl98	Cl	-0.676433	-1.000564	0.249983
H99	H	-0.198624	-0.924350	0.792758
