data_functionalizedCrystal
_audit_creation_method	'MofGen! by Chris Wilmer'
_symmetry_space_group_name_H-M	'P1'
_symmetry_Int_Tables_number	1
_symmetry_cell_setting	triclinic
loop_
_symmetry_equiv_pos_as_xyz
  x,y,z
_cell_length_a	16.959455
_cell_length_b	21.295417
_cell_length_c	16.959447
_cell_angle_alpha	90.034146
_cell_angle_beta	90.014322
_cell_angle_gamma	90.026649
loop_
_atom_site_label
_atom_site_type_symbol
_atom_site_fract_x
_atom_site_fract_y
_atom_site_fract_z
Zn1	Zn	1.208331	-0.250648	0.446888
Zn2	Zn	1.708331	0.249352	0.946888
Zn3	Zn	1.208231	-0.355925	0.314700
Zn4	Zn	1.708231	0.144075	0.814700
Zn5	Zn	1.076159	-0.250668	0.314725
Zn6	Zn	1.576159	0.249332	0.814725
Zn7	Zn	1.076102	-0.355878	0.446839
Zn8	Zn	1.576102	0.144122	0.946839
O9	O	1.142206	-0.303280	0.380788
O10	O	1.642206	0.196720	0.880788
O11	O	1.318929	-0.264625	0.429363
O12	O	1.818929	0.235375	0.929363
O13	O	1.190694	-0.341990	0.204093
O14	O	1.690694	0.158010	0.704093
O15	O	1.093758	-0.162576	0.332288
O16	O	1.593758	0.337424	0.832288
O17	O	1.318855	-0.341971	0.332245
O18	O	1.818855	0.158029	0.832245
O19	O	1.190864	-0.162561	0.429387
O20	O	1.690864	0.337439	0.929387
O21	O	1.093661	-0.264658	0.204111
O22	O	1.593661	0.235342	0.704111
O23	O	0.965541	-0.264613	0.332240
O24	O	1.465541	0.235387	0.832240
O25	O	1.093660	-0.341891	0.557456
O26	O	1.593660	0.158109	1.057456
O27	O	0.965499	-0.341910	0.429304
O28	O	1.465499	0.158090	0.929304
O29	O	1.190808	-0.264579	0.557492
O30	O	1.690808	0.235421	1.057492
O31	O	1.190638	-0.444008	0.332198
O32	O	1.690638	0.055992	0.832198
O33	O	1.093563	-0.443973	0.429280
O34	O	1.593563	0.056027	0.929280
C35	C	0.936840	-0.303259	0.380770
C36	C	1.436840	0.196741	0.880770
C37	C	0.848983	-0.303265	0.380781
C38	C	1.348983	0.196735	0.880781
C39	C	0.477505	-0.262998	0.330353
C40	C	0.977505	0.237002	0.830353
C41	C	0.477510	-0.343613	0.431269
C42	C	0.977510	0.156387	0.931269
C43	C	0.560056	-0.343604	0.431264
C44	C	1.060056	0.156396	0.931264
C45	C	0.601330	-0.303292	0.380802
C46	C	1.101330	0.196708	0.880802
C47	C	0.560058	-0.262989	0.330345
C48	C	1.060058	0.237011	0.830345
C49	C	0.601333	-0.383911	0.481714
C50	C	1.101333	0.116089	0.981714
C51	C	0.683884	-0.383904	0.481711
C52	C	1.183884	0.116096	0.981711
C53	C	0.725160	-0.343588	0.431252
C54	C	1.225160	0.156412	0.931252
C55	C	0.683884	-0.303283	0.380794
C56	C	1.183884	0.196717	0.880794
C57	C	0.725158	-0.262971	0.330332
C58	C	1.225158	0.237029	0.830332
C59	C	0.683883	-0.222662	0.279877
C60	C	1.183883	0.277338	0.779877
C61	C	0.601334	-0.222673	0.279886
C62	C	1.101334	0.277327	0.779886
C63	C	0.807709	-0.343577	0.431243
C64	C	1.307709	0.156423	0.931243
C65	C	0.807711	-0.262962	0.330324
C66	C	1.307711	0.237038	0.830324
C67	C	1.142105	-0.466831	0.380748
C68	C	1.642105	0.033169	0.880748
C69	C	1.142134	-0.536799	0.380757
C70	C	1.642134	-0.036799	0.880757
C71	C	1.192668	-0.569601	0.431353
C72	C	1.692668	-0.069601	0.931353
C73	C	1.192696	-0.635344	0.431372
C74	C	1.692696	-0.135344	0.931372
C75	C	1.142198	-0.668282	0.380782
C76	C	1.642198	-0.168282	0.880782
C77	C	1.091654	-0.635472	0.330183
C78	C	1.591654	-0.135472	0.830183
C79	C	1.091622	-0.569731	0.330170
C80	C	1.591622	-0.069731	0.830170
N81	N	1.136233	-0.771547	0.311606
N82	N	1.636233	-0.271547	0.811606
N83	N	1.136268	-0.833998	0.311620
N84	N	1.636268	-0.333998	0.811620
C85	C	1.142291	-0.866356	0.380818
C86	C	1.642291	-0.366356	0.880818
N87	N	1.148292	-0.833904	0.450002
N88	N	1.648292	-0.333904	0.950002
N89	N	1.148261	-0.771447	0.449987
N90	N	1.648261	-0.271447	0.949987
C91	C	1.142227	-0.739567	0.380790
C92	C	1.642227	-0.239567	0.880790
C93	C	1.192858	-0.970444	0.431439
C94	C	1.692858	-0.470444	0.931439
C95	C	1.192880	-1.036188	0.431460
C96	C	1.692880	-0.536188	0.931460
C97	C	1.091842	-1.036315	0.330263
C98	C	1.591842	-0.536315	0.830263
C99	C	1.091816	-0.970572	0.330249
C100	C	1.591816	-0.470572	0.830249
C101	C	1.142328	-0.937641	0.380836
C102	C	1.642328	-0.437641	0.880836
C103	C	1.348374	-0.303301	0.380807
C104	C	1.848374	0.196699	0.880807
C105	C	1.436231	-0.303310	0.380815
C106	C	1.936231	0.196690	0.880815
C107	C	1.142239	-0.303228	0.586956
C108	C	1.642239	0.196772	1.086956
C109	C	1.142253	-0.303205	0.674813
C110	C	1.642253	0.196795	1.174813
C111	C	1.142328	-0.139089	0.380845
C112	C	1.642328	0.360911	0.880845
C113	C	1.142381	-0.069121	0.380870
C114	C	1.642381	0.430879	0.880870
C115	C	1.142219	-0.303286	0.175422
C116	C	1.642219	0.196714	0.675422
C117	C	1.142358	-0.303131	0.087566
C118	C	1.642358	0.196869	0.587566
C119	C	1.091767	-0.343392	1.046273
C120	C	1.591767	0.156608	1.546273
C121	C	1.192928	-0.262886	1.046305
C122	C	1.692928	0.237114	1.546305
C123	C	1.192907	-0.262900	0.963759
C124	C	1.692907	0.237100	1.463759
C125	C	1.142316	-0.303160	0.922466
C126	C	1.642316	0.196840	1.422466
C127	C	1.091746	-0.343407	0.963719
C128	C	1.591746	0.156593	1.463719
C129	C	1.243482	-0.222658	0.922500
C130	C	1.743482	0.277342	1.422500
C131	C	1.243463	-0.222670	0.839949
C132	C	1.743463	0.277330	1.339949
C133	C	1.192867	-0.262928	0.798654
C134	C	1.692867	0.237072	1.298654
C135	C	1.142295	-0.303176	0.839912
C136	C	1.642295	0.196824	1.339912
C137	C	1.091704	-0.343437	0.798619
C138	C	1.591704	0.156563	1.298619
C139	C	1.041126	-0.383682	0.839876
C140	C	1.541126	0.116318	1.339876
C141	C	1.041150	-0.383665	0.922425
C142	C	1.541150	0.116335	1.422425
C143	C	1.192844	-0.262945	0.716106
C144	C	1.692844	0.237055	1.216106
C145	C	1.091683	-0.343453	0.716066
C146	C	1.591683	0.156547	1.216066
H147	H	0.567722	-0.416735	0.522792
H148	H	1.067722	0.083265	1.022792
H149	H	0.567721	-0.189857	0.238807
H150	H	1.067721	0.310143	0.738807
H151	H	1.050478	-0.376232	0.682451
H152	H	1.550478	0.123768	1.182451
F153	F	1.246660	-1.071098	0.485322
F154	F	1.746660	-0.571098	0.985322
H155	H	1.050537	-0.662294	0.288994
H156	H	1.550537	-0.162294	0.788994
H157	H	1.050721	-1.063132	0.289077
H158	H	1.550721	-0.563132	0.789077
F159	F	1.246673	-0.220119	0.672201
F160	F	1.746673	0.279881	1.172201
H161	H	0.717483	-0.416725	0.522795
H162	H	1.217483	0.083275	1.022795
H163	H	1.050670	-0.943863	0.289046
H164	H	1.550670	-0.443863	0.789046
F165	F	1.037834	-0.534819	0.276318
F166	F	1.537834	-0.034819	0.776318
H167	H	0.443895	-0.230178	0.289275
H168	H	0.943895	0.269822	0.789275
H169	H	0.443899	-0.376437	0.472348
H170	H	0.943899	0.123563	0.972348
H171	H	0.841311	-0.230131	0.289236
H172	H	1.341311	0.269869	0.789236
F173	F	0.987289	-0.426532	0.795920
F174	F	1.487289	0.073468	1.295920
F175	F	1.297326	-0.179817	0.966451
F176	F	1.797326	0.320183	1.466451
F177	F	1.246487	-0.670261	0.485222
F178	F	1.746487	-0.170261	0.985222
F179	F	1.297289	-0.179836	0.796048
F180	F	1.797289	0.320164	1.296048
F181	F	0.851633	-0.386477	0.484932
F182	F	1.351633	0.113523	0.984932
F183	F	1.246424	-0.534557	0.485196
F184	F	1.746424	-0.034557	0.985196
H185	H	1.233985	-0.943630	0.472632
H186	H	1.733985	-0.443630	0.972632
H187	H	0.999975	-0.416433	0.956023
H188	H	1.499975	0.083567	1.456023
H189	H	1.234121	-0.230111	1.079931
H190	H	1.734121	0.269889	1.579931
F191	F	0.727819	-0.179764	0.226169
F192	F	1.227819	0.320236	0.726169
F193	F	1.037939	-0.386220	1.090180
F194	F	1.537939	0.113780	1.590180
