data_functionalizedCrystal
_audit_creation_method	'MofGen! by Chris Wilmer'
_symmetry_space_group_name_H-M	'P1'
_symmetry_Int_Tables_number	1
_symmetry_cell_setting	triclinic
loop_
_symmetry_equiv_pos_as_xyz
  x,y,z
_cell_length_a	19.902436
_cell_length_b	17.052862
_cell_length_c	17.052862
_cell_angle_alpha	61.493325
_cell_angle_beta	89.995219
_cell_angle_gamma	70.265605
loop_
_atom_site_label
_atom_site_type_symbol
_atom_site_fract_x
_atom_site_fract_y
_atom_site_fract_z
Zr1	Zr	0.778697	0.816762	-0.200569
O2	O	0.704497	0.944649	-0.328687
O3	O	0.785106	0.666041	-0.146379
O4	O	0.821110	0.783848	-0.307196
O5	O	0.658677	0.860768	-0.057980
O6	O	0.931679	0.783859	-0.307211
O7	O	0.668494	0.826842	-0.167869
O8	O	0.867275	0.573124	-0.019538
O9	O	0.723081	1.071503	-0.345653
O10	O	0.890094	0.736500	-0.141299
O11	O	0.800251	0.761810	-0.059279
O12	O	0.842640	0.900512	-0.248621
O13	O	0.752798	0.925823	-0.166600
Zr14	Zr	0.939385	0.870887	-0.025332
Zr15	Zr	0.955042	0.816780	-0.200593
Zr16	Zr	0.763040	0.870870	-0.025308
Zr17	Zr	0.808335	1.019079	-0.227629
Zr18	Zr	0.909747	0.668570	0.001728
O19	O	0.932976	1.021608	-0.079522
O20	O	0.955237	0.944674	-0.328720
O21	O	0.682236	1.021583	-0.079489
O22	O	1.013585	0.743000	0.102785
O23	O	1.035846	0.666066	-0.146413
O24	O	0.762845	0.742976	0.102819
O25	O	1.059405	0.826881	-0.167921
O26	O	0.896972	0.903802	0.081295
O27	O	0.786403	0.903791	0.081310
O28	O	1.049588	0.860807	-0.058032
O29	O	0.863251	1.071517	-0.345672
O30	O	0.854831	0.616133	0.119771
O31	O	0.995001	0.616147	0.119752
O32	O	1.007446	0.573138	-0.019557
O33	O	0.710636	1.114511	-0.206344
O34	O	0.850807	1.114525	-0.206363
O35	O	0.875442	0.787137	0.022719
O36	O	0.965284	0.761827	-0.059301
O37	O	0.917831	0.925839	-0.166623
O38	O	0.827988	0.951149	-0.084603
C39	C	0.821968	0.590757	-0.079103
C40	C	0.809386	0.504868	-0.067615
C41	C	0.638460	0.843803	-0.112921
C42	C	0.563597	0.843795	-0.112911
C43	C	0.961505	0.209919	-0.206501
C44	C	0.973326	0.290619	-0.217300
C45	C	0.932342	0.344185	-0.179879
C46	C	0.879535	0.317043	-0.131658
C47	C	0.867710	0.236340	-0.120864
C48	C	0.838547	0.370606	-0.094243
C49	C	0.785740	0.343465	-0.046022
C50	C	0.773917	0.262769	-0.035229
C51	C	0.814901	0.209203	-0.072649
C52	C	0.850372	0.451309	-0.105037
C53	C	0.756577	0.477731	-0.019401
C54	C	0.744756	0.397031	-0.008601
C55	C	0.291561	0.843835	-0.112964
C56	C	0.350008	0.740297	-0.045509
C57	C	0.427874	0.740311	-0.045210
C58	C	0.426521	0.843815	-0.112937
C59	C	0.377720	0.914775	-0.083141
C60	C	0.300013	0.914128	-0.082662
C61	C	0.310610	0.877261	-0.210351
C62	C	0.389146	0.875060	-0.209909
C63	C	0.502794	0.843809	-0.112924
C64	C	0.215287	0.843845	-0.112975
C65	C	1.079622	0.843847	-0.112980
C66	C	1.154485	0.843854	-0.112990
C67	C	0.878625	0.776144	-0.332175
C68	C	0.885271	0.753174	-0.406577
C69	C	0.896114	1.096893	-0.146798
C70	C	0.908696	1.182782	-0.158286
C71	C	0.804915	1.030884	-0.840396
C72	C	0.798666	1.052469	-0.770493
C73	C	0.820317	0.977647	-0.679511
C74	C	0.848218	0.881237	-0.658438
C75	C	0.854462	0.859650	-0.728348
C76	C	0.869864	0.806413	-0.567463
C77	C	0.897765	0.710002	-0.546390
C78	C	0.904009	0.688420	-0.616295
C79	C	0.882358	0.763241	-0.707276
C80	C	0.863620	0.828000	-0.497553
C81	C	0.913167	0.656765	-0.385506
C82	C	0.919416	0.635181	-0.455409
C83	C	0.839457	0.911505	0.106274
C84	C	0.832811	0.934476	0.180676
C85	C	1.042549	0.590779	-0.079133
C86	C	1.104830	0.504897	-0.067655
C87	C	0.802384	0.658437	0.140121
C88	C	0.783155	0.595519	0.226012
C89	C	1.022965	0.658459	0.140092
C90	C	1.078599	0.595548	0.225972
C91	C	0.695117	1.029190	-0.365993
C92	C	0.639483	1.092101	-0.451873
C93	C	0.675533	1.096871	-0.146769
C94	C	0.613253	1.182752	-0.158246
C95	C	0.915698	1.029212	-0.366022
C96	C	0.934927	1.092131	-0.451913
C97	C	1.094829	0.451344	-0.105074
C98	C	1.153345	0.370655	-0.094308
C99	C	1.221859	0.343517	-0.046116
C100	C	1.231859	0.397079	-0.008697
C101	C	1.173345	0.477770	-0.019469
C102	C	0.813373	0.579194	0.309156
C103	C	0.795304	0.520089	0.389864
C104	C	0.747020	0.477303	0.387427
C105	C	0.716799	0.493633	0.304273
C106	C	0.734865	0.552743	0.223566
C107	C	1.151630	0.552793	0.223488
C108	C	1.203913	0.493690	0.304174
C109	C	1.183163	0.477338	0.387342
C110	C	1.110126	0.520101	0.389823
C111	C	1.057845	0.579208	0.309138
C112	C	0.566454	1.134867	-0.449391
C113	C	0.514174	1.193994	-0.530080
C114	C	0.534924	1.210350	-0.613249
C115	C	0.607961	1.167582	-0.615729
C116	C	0.660240	1.108461	-0.535042
C117	C	0.623255	1.236312	-0.120835
C118	C	0.564744	1.317017	-0.131624
C119	C	0.496230	1.344157	-0.179819
C120	C	0.486230	1.290592	-0.217234
C121	C	0.544741	1.209893	-0.206451
C122	C	0.983213	1.134898	-0.449446
C123	C	1.001294	1.194009	-0.530141
C124	C	0.971085	1.210355	-0.613302
C125	C	0.922796	1.167580	-0.615767
C126	C	0.904720	1.108466	-0.535072
H127	H	0.893368	0.473400	-0.144300
H128	H	0.865399	1.073649	-0.537093
H129	H	1.039049	0.473434	-0.144327
H130	H	1.287651	0.374971	0.030541
F131	F	0.980119	0.624702	0.311795
F132	F	0.702701	0.570105	0.135081
H133	H	0.815227	0.995227	-0.622596
H134	H	1.263380	0.458876	0.302138
H135	H	0.941969	0.409893	-0.188675
F136	F	0.890646	1.184993	-0.704283
F137	F	0.949107	0.532576	-0.432993
H138	H	1.093241	0.506779	0.457550
F139	F	1.173730	0.570187	0.134982
H140	H	1.040612	1.228833	-0.528117
F141	F	0.413307	1.319486	-0.268523
F142	F	0.544353	1.117470	-0.360884
H143	H	0.852688	0.614026	0.311158
F144	F	0.665413	0.448090	0.301693
F145	F	0.436447	1.239499	-0.527421
F146	F	0.727800	0.414394	0.473331
F147	F	0.479276	1.273274	-0.699117
H148	H	1.145189	0.327053	-0.124781
H149	H	1.269499	0.277811	-0.037350
H150	H	0.787286	1.091794	-0.914474
F151	F	0.737963	1.062945	-0.537696
F152	F	1.029522	0.319501	-0.268622
H153	H	0.985810	1.258493	-0.679003
H154	H	0.994866	0.166306	-0.236970
F155	F	1.183998	0.534755	0.020368
H156	H	0.805283	0.143486	-0.063854
H157	H	1.225741	0.429208	0.453035
H158	H	0.723203	0.521347	0.011067
H159	H	0.679036	1.214224	-0.081585
F160	F	0.827477	0.502718	0.478353
F161	F	0.630035	1.184996	-0.704251
H162	H	0.572900	1.360618	-0.101150
F163	F	0.433963	1.430047	-0.191287
H164	H	0.536586	1.166286	-0.236914
F165	F	1.015372	1.117513	-0.360947
H166	H	0.730913	0.240680	0.004028
H167	H	0.701760	0.374921	0.030660
F168	F	0.889008	0.740274	-0.781680
F169	F	0.936208	0.577129	-0.288677
F170	F	0.346191	0.668858	-0.070218
F171	F	0.334417	0.705730	0.048165
F172	F	0.473412	0.669272	-0.070147
H173	H	0.270170	0.953346	-0.260655
H174	H	0.374013	0.991605	-0.130581
F175	F	0.462246	0.705670	0.049013
H176	H	0.288167	0.892250	-0.011362
H177	H	0.258947	0.990925	-0.129456
H178	H	0.403330	0.893662	-0.012592
H179	H	0.304837	0.829309	-0.236755
F180	F	0.432939	0.807156	-0.239189
H181	H	0.840901	0.906498	-0.514720
F182	F	0.386472	0.972219	-0.279502
H183	H	0.775950	1.130967	-0.787656
H184	H	0.926720	0.609915	-0.599130
