data_functionalizedCrystal
_audit_creation_method	'MofGen! by Chris Wilmer'
_symmetry_space_group_name_H-M	'P1'
_symmetry_Int_Tables_number	1
_symmetry_cell_setting	triclinic
loop_
_symmetry_equiv_pos_as_xyz
  x,y,z
_cell_length_a	15.298068
_cell_length_b	16.120444
_cell_length_c	15.296720
_cell_angle_alpha	78.012939
_cell_angle_beta	91.645182
_cell_angle_gamma	103.030534
loop_
_atom_site_label
_atom_site_type_symbol
_atom_site_fract_x
_atom_site_fract_y
_atom_site_fract_z
Zn1	Zn	1.237592	-0.252309	0.738455
Zn2	Zn	1.737592	0.247691	1.238455
Zn3	Zn	1.255727	-0.366217	0.596994
Zn4	Zn	1.755727	0.133783	1.096994
Zn5	Zn	1.116987	-0.244068	0.566260
Zn6	Zn	1.616987	0.255932	1.066260
Zn7	Zn	1.080981	-0.413764	0.720107
Zn8	Zn	1.580981	0.086236	1.220107
O9	O	1.172822	-0.319089	0.655454
O10	O	1.672822	0.180911	1.155454
O11	O	1.363602	-0.250969	0.740231
O12	O	1.863602	0.249031	1.240231
O13	O	1.259981	-0.326666	0.469329
O14	O	1.759981	0.173334	0.969329
O15	O	1.140465	-0.126471	0.583918
O16	O	1.640465	0.373529	1.083918
O17	O	1.376926	-0.334657	0.636300
O18	O	1.876926	0.165343	1.136300
O19	O	1.229073	-0.132526	0.710430
O20	O	1.729073	0.367474	1.210430
O21	O	1.158050	-0.236923	0.446749
O22	O	1.658050	0.263077	0.946749
O23	O	0.988606	-0.283028	0.566127
O24	O	1.488606	0.216972	1.066127
O25	O	1.079097	-0.415695	0.846129
O26	O	1.579097	0.084305	1.346129
O27	O	0.962152	-0.407704	0.679158
O28	O	1.462152	0.092296	1.179158
O29	O	1.194159	-0.297074	0.859609
O30	O	1.694159	0.202926	1.359609
O31	O	1.225067	-0.491214	0.618508
O32	O	1.725067	0.008786	1.118508
O33	O	1.096682	-0.526147	0.708959
O34	O	1.596682	-0.026147	1.208959
C35	C	0.943329	-0.349632	0.617317
C36	C	1.443329	0.150368	1.117317
C37	C	0.845147	-0.362722	0.601024
C38	C	1.345147	0.137278	1.101024
C39	C	0.540553	-0.225743	0.771916
C40	C	1.040553	0.274257	1.271916
C41	C	0.632800	-0.213447	0.787229
C42	C	1.132800	0.286553	1.287229
C43	C	0.685891	-0.250764	0.740679
C44	C	1.185891	0.249236	1.240679
C45	C	0.646727	-0.300380	0.678813
C46	C	1.146727	0.199620	1.178813
C47	C	0.554470	-0.312683	0.663503
C48	C	1.054470	0.187317	1.163503
C49	C	0.699808	-0.337705	0.632266
C50	C	1.199808	0.162295	1.132266
C51	C	0.660643	-0.387321	0.570400
C52	C	1.160643	0.112679	1.070400
C53	C	0.568395	-0.399621	0.555093
C54	C	1.068395	0.100379	1.055093
C55	C	0.515304	-0.362303	0.601643
C56	C	1.015304	0.137697	1.101643
C57	C	0.792064	-0.325402	0.647576
C58	C	1.292064	0.174598	1.147576
C59	C	0.805981	-0.412342	0.539164
C60	C	1.305981	0.087658	1.039164
C61	C	0.713734	-0.424638	0.523850
C62	C	1.213734	0.075362	1.023850
C63	C	1.158956	-0.539456	0.665101
C64	C	1.658956	-0.039456	1.165101
C65	C	1.153099	-0.633724	0.669271
C66	C	1.653099	-0.133724	1.169271
C67	C	1.203384	-0.831001	0.634048
C68	C	1.703384	-0.331001	1.134048
C69	C	1.142421	-0.806306	0.676897
C70	C	1.642421	-0.306306	1.176897
C71	C	1.148364	-0.710272	0.672653
C72	C	1.648364	-0.210272	1.172653
C73	C	1.197442	-0.927043	0.638291
C74	C	1.697442	-0.427043	1.138291
C75	C	1.403210	-0.288429	0.693740
C76	C	1.903210	0.211571	1.193740
C77	C	1.501388	-0.275363	0.710056
C78	C	2.001388	0.224637	1.210056
C79	C	1.130589	-0.362607	0.885810
C80	C	1.630589	0.137393	1.385810
C81	C	1.112591	-0.381152	0.983974
C82	C	1.612591	0.118848	1.483974
C83	C	1.186762	-0.097863	0.645793
C84	C	1.686762	0.402137	1.145793
C85	C	1.192703	-0.003589	0.641675
C86	C	1.692703	0.496411	1.141675
C87	C	1.214945	-0.275673	0.426000
C88	C	1.714945	0.224327	0.926000
C89	C	1.233128	-0.256866	0.327854
C90	C	1.733128	0.243134	0.827854
C91	C	1.301493	-0.186394	1.288758
C92	C	1.801493	0.313606	1.788758
C93	C	1.318407	-0.168971	1.196529
C94	C	1.818407	0.331029	1.696529
C95	C	1.266955	-0.222015	1.143386
C96	C	1.766955	0.277985	1.643386
C97	C	1.198585	-0.292485	1.182481
C98	C	1.698585	0.207515	1.682481
C99	C	1.181673	-0.309913	1.274720
C100	C	1.681673	0.190087	1.774720
C101	C	1.147135	-0.345534	1.129348
C102	C	1.647135	0.154466	1.629348
C103	C	1.078765	-0.416004	1.168442
C104	C	1.578765	0.083996	1.668442
C105	C	1.061856	-0.433429	1.260673
C106	C	1.561856	0.066571	1.760673
C107	C	1.113309	-0.380386	1.313816
C108	C	1.613309	0.119614	1.813816
C109	C	1.164047	-0.328105	1.037108
C110	C	1.664047	0.171895	1.537108
C111	C	1.044227	-0.451624	1.023070
C112	C	1.544227	0.048376	1.523070
C113	C	1.027312	-0.469047	1.115299
C114	C	1.527312	0.030953	1.615299
H115	H	0.440187	-0.372319	0.589184
H116	H	0.940187	0.127681	1.089184
O117	O	1.283471	-0.204944	1.053802
O118	O	1.783471	0.295056	1.553802
C119	C	1.354862	-0.131384	1.030694
C120	C	1.854862	0.368616	1.530694
H121	H	1.360615	-0.090230	1.083743
H122	H	1.860615	0.409770	1.583743
H123	H	1.341551	-0.091083	0.963157
H124	H	1.841551	0.408917	1.463157
H125	H	1.420147	-0.153356	1.026496
H126	H	1.920147	0.346644	1.526496
H127	H	0.536509	-0.440029	0.504724
H128	H	1.036509	0.059971	1.004724
O129	O	0.675615	-0.472959	0.463884
O130	O	1.175615	0.027041	0.963884
C131	C	0.609601	-0.544395	0.507618
C132	C	1.109601	-0.044395	1.007618
H133	H	0.624334	-0.559170	0.582017
H134	H	1.124334	-0.059170	1.082017
H135	H	0.610322	-0.603704	0.478245
H136	H	1.110322	-0.103704	0.978245
H137	H	0.540768	-0.528077	0.497959
H138	H	1.040768	-0.028077	0.997959
H139	H	1.374076	-0.111596	1.164705
H140	H	1.874076	0.388404	1.664705
H141	H	0.971645	-0.526425	1.147143
H142	H	1.471645	-0.026425	1.647143
O143	O	1.074898	-0.867093	0.724600
O144	O	1.574898	-0.367093	1.224600
C145	C	1.079276	-0.859538	0.814894
C146	C	1.579276	-0.359538	1.314894
H147	H	1.150493	-0.826524	0.830085
H148	H	1.650493	-0.326524	1.330085
H149	H	1.060090	-0.927070	0.859772
H150	H	1.560090	-0.427070	1.359772
H151	H	1.030788	-0.818913	0.827839
H152	H	1.530788	-0.318913	1.327839
O153	O	1.270886	-0.770075	0.586486
O154	O	1.770886	-0.270075	1.086486
C155	C	1.261867	-0.686371	0.592796
C156	C	1.761867	-0.186371	1.092796
H157	H	1.189108	-0.688975	0.609825
H158	H	1.689108	-0.188975	1.109825
H159	H	1.282073	-0.639362	0.526190
H160	H	1.782073	-0.139362	1.026190
H161	H	1.307124	-0.663089	0.647473
H162	H	1.807124	-0.163089	1.147473
H163	H	0.849207	-0.442734	0.501263
H164	H	1.349207	0.057266	1.001263
O165	O	1.230358	-0.259549	0.999158
O166	O	1.730358	0.240451	1.499158
C167	C	1.212257	-0.181850	1.014826
C168	C	1.712257	0.318150	1.514826
H169	H	1.137313	-0.191751	1.028263
H170	H	1.637313	0.308249	1.528263
H171	H	1.233630	-0.127468	0.953610
H172	H	1.733630	0.372532	1.453610
H173	H	1.251190	-0.163500	1.075271
H174	H	1.751190	0.336500	1.575271
H175	H	0.497317	-0.195370	0.809816
H176	H	0.997317	0.304630	1.309816
O177	O	0.994378	-0.503162	0.971381
O178	O	1.494378	-0.003162	1.471381
C179	C	1.050995	-0.541185	0.928793
C180	C	1.550995	-0.041185	1.428793
H181	H	1.122352	-0.499752	0.924798
H182	H	1.622352	0.000248	1.424798
H183	H	1.026194	-0.545081	0.858450
H184	H	1.526194	-0.045081	1.358450
H185	H	1.050221	-0.609465	0.968693
H186	H	1.550221	-0.109465	1.468693
O187	O	1.096874	-0.397465	1.403418
O188	O	1.596874	0.102535	1.903418
C189	C	1.108809	-0.481547	1.441561
C190	C	1.608809	0.018453	1.941561
H191	H	1.100383	-0.522372	1.388038
H192	H	1.600383	-0.022372	1.888038
H193	H	1.056706	-0.513579	1.497306
H194	H	1.556706	-0.013579	1.997306
H195	H	1.178986	-0.476680	1.470183
H196	H	1.678986	0.023320	1.970183
O197	O	0.995501	-0.501983	1.298561
O198	O	1.495501	-0.001983	1.798561
C199	C	1.013626	-0.579687	1.282932
C200	C	1.513626	-0.079687	1.782932
H201	H	1.059752	-0.564267	1.221686
H202	H	1.559752	-0.064267	1.721686
H203	H	0.948062	-0.625605	1.270836
H204	H	1.448062	-0.125605	1.770836
H205	H	1.047718	-0.612024	1.343636
H206	H	1.547718	-0.112024	1.843636
O207	O	1.351361	-0.134942	1.340504
O208	O	1.851361	0.365058	1.840504
C209	C	1.321791	-0.165456	1.430298
C210	C	1.821791	0.334544	1.930298
H211	H	1.249562	-0.204679	1.432775
H212	H	1.749562	0.295321	1.932775
H213	H	1.325365	-0.107756	1.463584
H214	H	1.825365	0.392244	1.963584
H215	H	1.366533	-0.208604	1.467144
H216	H	1.866533	0.291396	1.967144
H217	H	0.823943	-0.285003	0.697947
H218	H	1.323943	0.214997	1.197947
H219	H	0.761003	-0.240747	0.753148
H220	H	1.261003	0.259253	1.253148
H221	H	0.664680	-0.173052	0.837604
H222	H	1.164680	0.326948	1.337604
