data_functionalizedCrystal
_audit_creation_method	'MofGen! by Chris Wilmer'
_symmetry_space_group_name_H-M	'P1'
_symmetry_Int_Tables_number	1
_symmetry_cell_setting	triclinic
loop_
_symmetry_equiv_pos_as_xyz
  x,y,z
_cell_length_a	21.295417
_cell_length_b	17.640112
_cell_length_c	17.640968
_cell_angle_alpha	87.860920
_cell_angle_beta	78.765192
_cell_angle_gamma	78.743761
loop_
_atom_site_label
_atom_site_type_symbol
_atom_site_fract_x
_atom_site_fract_y
_atom_site_fract_z
Zn1	Zn	-0.018088	-1.247775	-0.195079
Zn2	Zn	-0.147966	-1.221981	-0.068087
Zn3	Zn	-0.059037	-1.095099	-0.093722
Zn4	Zn	-0.139680	-1.120723	-0.220669
O5	O	-0.091193	-1.171395	-0.144389
O6	O	-0.021647	-1.350625	-0.156795
O7	O	-0.156775	-1.183631	0.034787
O8	O	0.034499	-1.115423	-0.107185
O9	O	-0.117068	-1.331674	-0.063494
O10	O	0.064584	-1.227593	-0.181652
O11	O	-0.091439	-1.090412	0.015953
O12	O	-0.083404	-0.992227	-0.132000
O13	O	-0.102945	-1.159096	-0.323549
O14	O	-0.142652	-1.011052	-0.225268
O15	O	-0.013612	-1.252440	-0.304748
O16	O	-0.234971	-1.208478	-0.088309
O17	O	-0.228883	-1.134084	-0.200410
C18	C	-0.116573	-0.974084	-0.184193
C19	C	-0.127442	-0.889678	-0.201239
C20	C	-0.254765	-1.171287	-0.144367
C21	C	-0.324729	-1.171315	-0.144369
C22	C	-0.052786	-1.211503	-0.342475
C23	C	-0.036419	-1.228595	-0.426887
C24	C	-0.360729	-1.210105	-0.086039
C25	C	-0.426464	-1.210144	-0.086049
C26	C	-0.456199	-1.171378	-0.144384
C27	C	-0.420189	-1.132586	-0.202724
C28	C	-0.354454	-1.132555	-0.202717
N29	N	-0.566893	-1.106115	-0.163575
N30	N	-0.629339	-1.106146	-0.163577
C31	C	-0.654254	-1.171472	-0.144410
N32	N	-0.614366	-1.236764	-0.125225
N33	N	-0.551916	-1.236731	-0.125220
C34	C	-0.527477	-1.171408	-0.144398
C35	C	-0.761531	-1.210308	-0.086087
C36	C	-0.827266	-1.210349	-0.086102
C37	C	-0.820991	-1.132784	-0.202775
C38	C	-0.755256	-1.132750	-0.202763
C39	C	-0.725531	-1.171510	-0.144415
C40	C	0.073024	-1.171527	-0.144424
C41	C	0.143004	-1.171584	-0.144438
C42	C	-0.065714	-1.369475	-0.104431
C43	C	-0.054856	-1.453885	-0.087403
C44	C	-0.008607	-0.563037	-0.014897
C45	C	-0.018831	-0.483727	-0.030925
C46	C	-0.080669	-0.503351	-0.127878
C47	C	-0.070447	-0.582665	-0.111861
C48	C	-0.034416	-0.612502	-0.055369
C49	C	-0.096257	-0.632129	-0.152332
C50	C	-0.086038	-0.711436	-0.136313
C51	C	-0.050011	-0.741279	-0.079823
C52	C	-0.024198	-0.691809	-0.039350
C53	C	-0.132291	-0.602290	-0.208820
C54	C	-0.158101	-0.651755	-0.249291
C55	C	-0.147879	-0.731064	-0.233277
C56	C	-0.111851	-0.760907	-0.176786
C57	C	-0.173691	-0.780534	-0.273749
C58	C	-0.163473	-0.859841	-0.257730
C59	C	-0.101633	-0.840214	-0.160767
C60	C	-0.215148	-1.041841	-0.753447
C61	C	-0.199759	-1.057917	-0.832762
C62	C	-0.106745	-1.155108	-0.813176
C63	C	-0.122124	-1.139037	-0.733858
C64	C	-0.176327	-1.082403	-0.704000
C65	C	-0.083303	-1.179600	-0.684411
C66	C	-0.098683	-1.163533	-0.605099
C67	C	-0.152885	-1.106903	-0.575235
C68	C	-0.191707	-1.066336	-0.624689
C69	C	-0.029103	-1.236237	-0.714269
C70	C	0.009719	-1.276800	-0.664822
C71	C	-0.005659	-1.260729	-0.585510
C72	C	-0.059860	-1.204100	-0.555646
C73	C	0.033164	-1.301296	-0.536056
C74	C	0.017784	-1.285229	-0.456745
C75	C	-0.075241	-1.188033	-0.476334
C76	C	-0.129399	-1.131486	0.052935
C77	C	-0.145569	-1.114541	0.137376
H78	H	-0.336528	-1.241668	-0.038530
H79	H	0.020745	-0.587334	0.031092
O80	O	-0.119546	-0.471141	-0.188783
H81	H	-0.169523	-0.483676	-0.172558
O82	O	0.009002	-0.430386	0.012753
H83	H	-0.031294	-0.386413	0.044159
O84	O	-0.853052	-1.090974	-0.265698
H85	H	-0.850684	-1.028730	-0.264647
O86	O	-0.866098	-1.252197	-0.023191
H87	H	-0.907961	-1.210427	0.008612
O88	O	-0.143334	-0.516753	-0.226108
H89	H	-0.095579	-0.498973	-0.245800
O90	O	-0.465307	-1.251995	-0.023147
H91	H	-0.507171	-1.210226	0.008657
O92	O	-0.729453	-1.252136	-0.023179
H93	H	-0.711410	-1.210345	0.008651
H94	H	-0.016583	-1.249319	-0.778850
H95	H	-0.725943	-1.101160	-0.250258
O96	O	-0.196957	-0.619574	-0.310224
H97	H	-0.199723	-0.556117	-0.314569
H98	H	-0.203033	-0.756228	-0.319739
O99	O	-0.191303	-0.913202	-0.301383
H100	H	-0.218068	-0.879133	-0.343363
H101	H	-0.119366	-1.141897	-0.452027
H102	H	-0.165408	-1.093825	-0.510654
O103	O	-0.250167	-1.005249	-0.592474
H104	H	-0.274582	-0.979740	-0.640181
H105	H	0.049397	-1.318258	-0.416484
H106	H	-0.259273	-0.995706	-0.729140
O107	O	-0.241630	-1.014160	-0.886100
H108	H	-0.281900	-0.972077	-0.852011
H109	H	-0.444402	-1.101025	-0.250222
H110	H	-0.041693	-0.805856	-0.066780
H111	H	-0.062614	-1.201222	-0.837497
H112	H	-0.325141	-1.100967	-0.250217
O113	O	-0.062771	-0.872401	-0.099835
H114	H	-0.012795	-0.859859	-0.116037
H115	H	0.005154	-0.716105	0.006639
O116	O	0.068194	-1.337861	-0.697030
H117	H	0.072375	-1.342210	-0.760490
O118	O	0.091635	-1.362363	-0.568265
H119	H	0.095812	-1.366713	-0.631724
