data_functionalizedCrystal
_audit_creation_method	'MofGen! by Chris Wilmer'
_symmetry_space_group_name_H-M	'P1'
_symmetry_Int_Tables_number	1
_symmetry_cell_setting	triclinic
loop_
_symmetry_equiv_pos_as_xyz
  x,y,z
_cell_length_a	15.995350
_cell_length_b	19.188930
_cell_length_c	15.072220
_cell_angle_alpha	89.993728
_cell_angle_beta	89.991149
_cell_angle_gamma	83.318578
loop_
_atom_site_label
_atom_site_type_symbol
_atom_site_fract_x
_atom_site_fract_y
_atom_site_fract_z
O1	O	1.110666	0.089991	-0.073718
O2	O	1.360666	0.339991	0.176282
O3	O	1.610666	0.589991	0.426282
O4	O	1.860666	0.839991	0.676282
O5	O	0.866850	0.101105	-0.073737
O6	O	1.116850	0.351105	0.176263
O7	O	1.366850	0.601105	0.426263
O8	O	1.616850	0.851105	0.676263
O9	O	0.995794	-0.006090	-0.073709
O10	O	1.245794	0.243910	0.176291
O11	O	1.495794	0.493910	0.426291
O12	O	1.745794	0.743910	0.676291
O13	O	0.981722	0.197186	-0.073745
O14	O	1.231722	0.447186	0.176255
O15	O	1.481722	0.697186	0.426255
O16	O	1.731722	0.947186	0.676255
O17	O	0.995763	-0.006084	0.073856
O18	O	1.245763	0.243916	0.323856
O19	O	1.495763	0.493916	0.573856
O20	O	1.745763	0.743916	0.823856
O21	O	0.866819	0.101111	0.073828
O22	O	1.116819	0.351111	0.323828
O23	O	1.366819	0.601111	0.573828
O24	O	1.616819	0.851111	0.823828
O25	O	1.110634	0.089997	0.073848
O26	O	1.360634	0.339997	0.323848
O27	O	1.610634	0.589997	0.573848
O28	O	1.860634	0.839997	0.823848
Zn29	Zn	0.988721	0.095555	0.097267
Zn30	Zn	1.238721	0.345555	0.347267
Zn31	Zn	1.488721	0.595555	0.597267
Zn32	Zn	1.738721	0.845555	0.847267
Zn33	Zn	0.988763	0.095547	-0.097156
Zn34	Zn	1.238763	0.345547	0.152844
Zn35	Zn	1.488763	0.595547	0.402844
Zn36	Zn	1.738763	0.845547	0.652844
O37	O	0.981690	0.197192	0.073820
O38	O	1.231690	0.447192	0.323820
O39	O	1.481690	0.697192	0.573820
O40	O	1.731690	0.947192	0.823820
C41	C	0.835641	0.100648	0.000043
C42	C	1.085641	0.350648	0.250043
C43	C	1.335641	0.600648	0.500043
C44	C	1.585641	0.850648	0.750043
C45	C	0.742696	0.099271	0.000037
C46	C	0.992696	0.349271	0.250037
C47	C	1.242696	0.599271	0.500037
C48	C	1.492696	0.849271	0.750037
C49	C	0.404967	0.094324	0.000056
C50	C	0.654967	0.344324	0.250056
C51	C	0.904967	0.594324	0.500056
C52	C	1.154967	0.844324	0.750056
C53	C	0.452680	0.017982	0.000398
C54	C	0.702680	0.267982	0.250398
C55	C	0.952680	0.517982	0.500398
C56	C	1.202680	0.767982	0.750398
C57	C	0.549365	0.019360	0.000059
C58	C	0.799365	0.269360	0.250059
C59	C	1.049365	0.519360	0.500059
C60	C	1.299365	0.769360	0.750059
C61	C	0.572518	0.096778	0.000047
C62	C	0.822518	0.346778	0.250047
C63	C	1.072518	0.596778	0.500047
C64	C	1.322518	0.846778	0.750047
C65	C	0.531311	0.134429	-0.084223
C66	C	0.781311	0.384429	0.165777
C67	C	1.031311	0.634429	0.415777
C68	C	1.281311	0.884429	0.665777
C69	C	0.434683	0.132511	-0.084287
C70	C	0.684683	0.382511	0.165713
C71	C	0.934683	0.632511	0.415713
C72	C	1.184683	0.882511	0.665713
C73	C	0.434302	0.134095	0.083522
C74	C	0.684302	0.384095	0.333522
C75	C	0.934302	0.634095	0.583522
C76	C	1.184302	0.884095	0.833522
C77	C	0.531247	0.134077	0.084629
C78	C	0.781247	0.384077	0.334629
C79	C	1.031247	0.634077	0.584629
C80	C	1.281247	0.884077	0.834629
C81	C	0.667211	0.098169	0.000039
C82	C	0.917211	0.348169	0.250039
C83	C	1.167211	0.598169	0.500039
C84	C	1.417211	0.848169	0.750039
C85	C	0.310274	0.092936	0.000058
C86	C	0.560274	0.342936	0.250058
C87	C	0.810274	0.592936	0.500058
C88	C	1.060274	0.842936	0.750058
C89	C	0.995323	-0.032099	0.000076
C90	C	1.245323	0.217901	0.250076
C91	C	1.495323	0.467901	0.500076
C92	C	1.745323	0.717901	0.750076
C93	C	0.993955	-0.109607	0.000083
C94	C	1.243955	0.140393	0.250083
C95	C	1.493955	0.390393	0.500083
C96	C	1.743955	0.640393	0.750083
C97	C	1.069615	-0.154338	0.000093
C98	C	1.319615	0.095662	0.250093
C99	C	1.569615	0.345662	0.500093
C100	C	1.819615	0.595662	0.750093
C101	C	1.068330	-0.227165	0.000079
C102	C	1.318330	0.022835	0.250079
C103	C	1.568330	0.272835	0.500079
C104	C	1.818330	0.522835	0.750079
C105	C	0.991380	-0.255258	0.000072
C106	C	1.241380	-0.005258	0.250072
C107	C	1.491380	0.244742	0.500072
C108	C	1.741380	0.494742	0.750072
C109	C	0.915710	-0.210517	0.000057
C110	C	1.165710	0.039483	0.250057
C111	C	1.415710	0.289483	0.500057
C112	C	1.665710	0.539483	0.750057
C113	C	0.916997	-0.137691	0.000062
C114	C	1.166997	0.112309	0.250062
C115	C	1.416997	0.362309	0.500062
C116	C	1.666997	0.612309	0.750062
N117	N	0.932550	-0.363410	0.050287
N118	N	1.182550	-0.113410	0.300287
N119	N	1.432550	0.136590	0.550287
N120	N	1.682550	0.386590	0.800287
N121	N	0.931333	-0.432592	0.050284
N122	N	1.181333	-0.182592	0.300284
N123	N	1.431333	0.067408	0.550284
N124	N	1.681333	0.317408	0.800284
C125	C	0.987497	-0.474676	0.000054
C126	C	1.237497	-0.224676	0.250054
C127	C	1.487497	0.025324	0.500054
C128	C	1.737497	0.275324	0.750054
N129	N	1.044937	-0.444966	-0.050161
N130	N	1.294937	-0.194966	0.199839
N131	N	1.544937	0.055034	0.449839
N132	N	1.794937	0.305034	0.699839
N133	N	1.046158	-0.375779	-0.050154
N134	N	1.296158	-0.125779	0.199846
N135	N	1.546158	0.124221	0.449846
N136	N	1.796158	0.374221	0.699846
C137	C	0.989976	-0.334224	0.000066
C138	C	1.239976	-0.084224	0.250066
C139	C	1.489976	0.165776	0.500066
C140	C	1.739976	0.415776	0.750066
C141	C	1.061769	-0.598375	0.000048
C142	C	1.311769	-0.348375	0.250048
C143	C	1.561769	-0.098375	0.500048
C144	C	1.811769	0.151625	0.750048
C145	C	1.060480	-0.671204	0.000028
C146	C	1.310480	-0.421204	0.250028
C147	C	1.560480	-0.171204	0.500028
C148	C	1.810480	0.078796	0.750028
C149	C	0.907859	-0.654553	0.000015
C150	C	1.157859	-0.404553	0.250015
C151	C	1.407859	-0.154553	0.500015
C152	C	1.657859	0.095447	0.750015
C153	C	0.909149	-0.581727	0.000025
C154	C	1.159149	-0.331727	0.250025
C155	C	1.409149	-0.081727	0.500025
C156	C	1.659149	0.168273	0.750025
C157	C	0.986106	-0.553643	0.000046
C158	C	1.236106	-0.303643	0.250046
C159	C	1.486106	-0.053643	0.500046
C160	C	1.736106	0.196357	0.750046
C161	C	1.141843	0.090454	0.000065
C162	C	1.391843	0.340454	0.250065
C163	C	1.641843	0.590454	0.500065
C164	C	1.891843	0.840454	0.750065
C165	C	1.234789	0.091831	0.000066
C166	C	1.484789	0.341831	0.250066
C167	C	1.734789	0.591831	0.500066
C168	C	1.984789	0.841831	0.750066
C169	C	0.982162	0.223201	0.000033
C170	C	1.232162	0.473201	0.250033
C171	C	1.482162	0.723201	0.500033
C172	C	1.732162	0.973201	0.750033
C173	C	0.983530	0.300709	0.000019
C174	C	1.233530	0.550709	0.250019
C175	C	1.483530	0.800709	0.500019
C176	C	1.733530	1.050709	0.750019
N177	N	0.988699	0.095560	0.229956
N178	N	1.238699	0.345560	0.479956
N179	N	1.488699	0.595560	0.729956
N180	N	1.738699	0.845560	0.979956
N181	N	0.988792	0.095537	-0.229845
N182	N	1.238792	0.345537	0.020155
N183	N	1.488792	0.595537	0.270155
N184	N	1.738792	0.845537	0.520155
C185	C	0.988762	0.095544	0.589157
C186	C	1.238762	0.345544	0.839157
C187	C	1.488762	0.595544	1.089157
C188	C	1.738762	0.845544	1.339157
C189	C	0.919536	0.152710	0.551535
C190	C	1.169536	0.402710	0.801535
C191	C	1.419536	0.652710	1.051535
C192	C	1.669536	0.902710	1.301535
C193	C	0.919693	0.152918	0.448710
C194	C	1.169693	0.402918	0.698710
C195	C	1.419693	0.652918	0.948710
C196	C	1.669693	0.902918	1.198710
C197	C	0.988730	0.095552	0.410953
C198	C	1.238730	0.345552	0.660953
C199	C	1.488730	0.595552	0.910953
C200	C	1.738730	0.845552	1.160953
C201	C	1.076036	0.111464	0.448248
C202	C	1.326036	0.361464	0.698248
C203	C	1.576036	0.611464	0.948248
C204	C	1.826036	0.861464	1.198248
C205	C	1.075648	0.111870	0.551106
C206	C	1.325648	0.361870	0.801106
C207	C	1.575648	0.611870	1.051106
C208	C	1.825648	0.861870	1.301106
C209	C	0.971460	0.022298	0.551269
C210	C	1.221460	0.272298	0.801269
C211	C	1.471460	0.522298	1.051269
C212	C	1.721460	0.772298	1.301269
C213	C	0.969454	0.022787	0.448405
C214	C	1.219454	0.272787	0.698405
C215	C	1.469454	0.522787	0.948405
C216	C	1.719454	0.772787	1.198405
C217	C	0.988717	0.095555	0.310240
C218	C	1.238717	0.345555	0.560240
C219	C	1.488717	0.595555	0.810240
C220	C	1.738717	0.845555	1.060240
C221	C	0.988780	0.095543	0.689871
C222	C	1.238780	0.345543	0.939871
C223	C	1.488780	0.595543	1.189871
C224	C	1.738780	0.845543	1.439871
H225	H	0.402230	0.188560	-0.088121
H226	H	0.652230	0.438560	0.161879
H227	H	0.902230	0.688560	0.411879
H228	H	1.152230	0.938560	0.661879
F229	F	0.549521	0.208766	-0.088348
F230	F	0.799521	0.458766	0.161652
F231	F	1.049521	0.708766	0.411652
F232	F	1.299521	0.958766	0.661652
H233	H	0.433211	-0.012395	-0.059692
H234	H	0.683211	0.237605	0.190308
H235	H	0.933211	0.487605	0.440308
H236	H	1.183211	0.737605	0.690308
H237	H	1.128756	0.071875	0.575991
H238	H	1.378756	0.321875	0.825991
H239	H	1.628756	0.571875	1.075991
H240	H	1.878756	0.821875	1.325991
H241	H	1.128769	0.070935	0.423790
H242	H	1.378769	0.320935	0.673790
H243	H	1.628769	0.570935	0.923790
H244	H	1.878769	0.820935	1.173790
H245	H	0.577345	-0.010441	-0.060444
H246	H	0.827345	0.239559	0.189556
H247	H	1.077345	0.489559	0.439556
H248	H	1.327345	0.739559	0.689556
F249	F	1.096506	0.180489	0.414557
F250	F	1.346506	0.430489	0.664557
F251	F	1.596506	0.680489	0.914557
F252	F	1.846506	0.930489	1.164557
F253	F	0.885510	0.007002	0.416548
F254	F	1.135510	0.257002	0.666548
F255	F	1.385510	0.507002	0.916548
F256	F	1.635510	0.757002	1.166548
H257	H	0.559795	0.108273	-0.146930
H258	H	0.809795	0.358273	0.103070
H259	H	1.059795	0.608273	0.353070
H260	H	1.309795	0.858273	0.603070
F261	F	0.890059	0.002310	0.585212
F262	F	1.140059	0.252310	0.835212
F263	F	1.390059	0.502310	1.085212
F264	F	1.640059	0.752310	1.335212
F265	F	0.410899	0.096616	-0.166612
F266	F	0.660899	0.346616	0.083388
F267	F	0.910899	0.596616	0.333388
F268	F	1.160899	0.846616	0.583388
F269	F	0.834846	0.140563	0.415751
F270	F	1.084846	0.390563	0.665751
F271	F	1.334846	0.640563	0.915751
F272	F	1.584846	0.890563	1.165751
F273	F	0.934070	0.223971	0.416522
F274	F	1.184070	0.473971	0.666522
F275	F	1.434070	0.723971	0.916522
F276	F	1.684070	0.973971	1.166522
H277	H	0.413844	0.109140	0.147396
H278	H	0.663844	0.359140	0.397396
H279	H	0.913844	0.609140	0.647396
H280	H	1.163844	0.859140	0.897396
H281	H	0.558651	0.106592	0.146972
H282	H	0.808651	0.356592	0.396972
H283	H	1.058651	0.606592	0.646972
H284	H	1.308651	0.856592	0.896972
H285	H	0.546404	0.190533	0.089710
H286	H	0.796404	0.440533	0.339710
H287	H	1.046404	0.690533	0.589710
H288	H	1.296404	0.940533	0.839710
F289	F	1.143672	-0.568483	0.000074
F290	F	1.393672	-0.318483	0.250074
F291	F	1.643672	-0.068483	0.500074
F292	F	1.893672	0.181517	0.750074
F293	F	1.031109	-0.035422	0.414827
F294	F	1.281109	0.214578	0.664827
F295	F	1.531109	0.464578	0.914827
F296	F	1.781109	0.714578	1.164827
H297	H	1.122095	-0.707624	0.000031
H298	H	1.372095	-0.457624	0.250031
H299	H	1.622095	-0.207624	0.500031
H300	H	1.872095	0.042376	0.750031
F301	F	0.825962	-0.684447	0.000003
F302	F	1.075962	-0.434447	0.250003
F303	F	1.325962	-0.184447	0.500003
F304	F	1.575962	0.065553	0.750003
F305	F	1.095628	0.181691	0.582444
F306	F	1.345628	0.431691	0.832444
F307	F	1.595628	0.681691	1.082444
F308	F	1.845628	0.931691	1.332444
F309	F	0.392519	0.207665	0.084255
F310	F	0.642519	0.457665	0.334255
F311	F	0.892519	0.707665	0.584255
F312	F	1.142519	0.957665	0.834255
H313	H	1.021947	-0.020242	0.575598
H314	H	1.271947	0.229758	0.825598
H315	H	1.521947	0.479758	1.075598
H316	H	1.771947	0.729758	1.325598
F317	F	0.586651	-0.019325	0.079017
F318	F	0.836651	0.230675	0.329017
F319	F	1.086651	0.480675	0.579017
F320	F	1.336651	0.730675	0.829017
F321	F	0.933746	0.223358	0.585282
F322	F	1.183746	0.473358	0.835282
F323	F	1.433746	0.723358	1.085282
F324	F	1.683746	0.973358	1.335282
H325	H	0.854420	0.143386	0.576294
H326	H	1.104420	0.393386	0.826294
H327	H	1.354420	0.643386	1.076294
H328	H	1.604420	0.893386	1.326294
F329	F	0.428596	-0.021901	0.079391
F330	F	0.678596	0.228099	0.329391
F331	F	0.928596	0.478099	0.579391
F332	F	1.178596	0.728099	0.829391
F333	F	1.151520	-0.124453	0.000096
F334	F	1.401520	0.125547	0.250096
F335	F	1.651520	0.375547	0.500096
F336	F	1.901520	0.625547	0.750096
F337	F	1.148861	-0.274780	0.000089
F338	F	1.398861	-0.024780	0.250089
F339	F	1.648861	0.225220	0.500089
F340	F	1.898861	0.475220	0.750089
F341	F	0.833815	-0.240416	0.000044
F342	F	1.083815	0.009584	0.250044
F343	F	1.333815	0.259584	0.500044
F344	F	1.583815	0.509584	0.750044
H345	H	0.855384	-0.101270	0.000054
H346	H	1.105384	0.148730	0.250054
H347	H	1.355384	0.398730	0.500054
H348	H	1.605384	0.648730	0.750054
F349	F	0.828620	-0.534118	0.000018
F350	F	1.078620	-0.284118	0.250018
F351	F	1.328620	-0.034118	0.500018
F352	F	1.578620	0.215882	0.750018
