data_functionalizedCrystal
_audit_creation_method	'MofGen! by Chris Wilmer'
_symmetry_space_group_name_H-M	'P1'
_symmetry_Int_Tables_number	1
_symmetry_cell_setting	triclinic
loop_
_symmetry_equiv_pos_as_xyz
  x,y,z
_cell_length_a	17.077404
_cell_length_b	18.050589
_cell_length_c	17.077396
_cell_angle_alpha	90.024441
_cell_angle_beta	89.981638
_cell_angle_gamma	89.967332
loop_
_atom_site_label
_atom_site_type_symbol
_atom_site_fract_x
_atom_site_fract_y
_atom_site_fract_z
Zn1	Zn	1.199990	0.295700	-0.443841
Zn2	Zn	1.199870	0.419897	-0.312584
Zn3	Zn	1.068722	0.295721	-0.312591
Zn4	Zn	1.068663	0.419848	-0.443810
O5	O	1.134311	0.357791	-0.378207
O6	O	1.309821	0.312186	-0.426439
O7	O	1.182448	0.403454	-0.202738
O8	O	1.086210	0.191793	-0.330018
O9	O	1.309733	0.403434	-0.330005
O10	O	1.182652	0.191778	-0.426446
O11	O	1.086094	0.312222	-0.202743
O12	O	0.958867	0.312175	-0.329988
O13	O	1.086109	0.403350	-0.553661
O14	O	0.958824	0.403371	-0.426394
O15	O	1.182595	0.312139	-0.553684
O16	O	1.182390	0.523815	-0.329976
O17	O	1.085993	0.523779	-0.426387
C18	C	0.930363	0.357770	-0.378189
C19	C	0.843114	0.357779	-0.378200
C20	C	0.802170	0.310351	-0.428490
C21	C	0.720190	0.310356	-0.428493
C22	C	0.679154	0.357793	-0.378211
C23	C	0.720104	0.405223	-0.327916
C24	C	0.802082	0.405214	-0.327909
C25	C	0.549233	0.405240	-0.327935
C26	C	0.467249	0.405250	-0.327943
C27	C	0.467341	0.310382	-0.428520
C28	C	0.549320	0.310373	-0.428513
C29	C	0.590263	0.357804	-0.378219
C30	C	1.134194	0.550744	-0.378194
C31	C	1.134215	0.633289	-0.378215
C32	C	1.081822	0.832747	-0.430626
C33	C	1.062681	0.882188	-0.358998
C34	C	1.134274	0.784420	-0.378226
C35	C	1.153436	0.882060	-0.449863
C36	C	1.134330	0.930405	-0.378243
C37	C	1.115095	0.832773	-0.306560
C38	C	1.205884	0.832641	-0.397474
C39	C	1.186770	0.882060	-0.325796
C40	C	1.134240	0.700321	-0.378218
C41	C	1.134364	1.014501	-0.378243
C42	C	1.339056	0.357813	-0.378225
C43	C	1.426305	0.357822	-0.378233
C44	C	1.134359	0.357737	-0.582951
C45	C	1.134379	0.357713	-0.670201
C46	C	1.134421	1.164086	-0.378237
C47	C	1.134391	1.081540	-0.378252
C48	C	1.184621	0.310216	-0.711204
C49	C	1.184630	0.310191	-0.793184
C50	C	1.134401	0.357668	-0.834160
C51	C	1.084154	0.405168	-0.793152
C52	C	1.084141	0.405188	-0.711173
C53	C	1.084186	0.405123	-0.964022
C54	C	1.084199	0.405104	-1.046006
C55	C	1.184675	0.310126	-1.046034
C56	C	1.184662	0.310146	-0.964055
C57	C	1.134415	0.357647	-0.923051
C58	C	1.134309	0.357792	-0.174259
C59	C	1.134441	0.357606	-0.087009
H60	H	0.582729	0.271750	-0.469462
C61	C	1.028914	0.457380	-0.918920
N62	N	0.987288	0.496742	-0.884950
C63	C	0.980901	0.911590	-0.337008
N64	N	0.919303	0.933733	-0.320450
C65	C	1.246725	0.911133	-0.265872
N66	N	1.291878	0.933034	-0.220736
H67	H	1.043254	0.443822	-0.826521
C68	C	0.675156	0.258184	-0.483819
N69	N	0.641236	0.218885	-0.525492
C70	C	1.239877	0.257985	-0.666138
N71	N	1.281495	0.218641	-0.632197
H72	H	1.098840	0.811213	-0.245967
C73	C	1.239946	0.257874	-1.091139
N74	N	1.281577	0.218521	-1.125115
H75	H	1.266402	0.810863	-0.413773
H76	H	0.835418	0.443834	-0.286957
C77	C	1.175303	0.911308	-0.531699
N78	N	1.191768	0.933335	-0.593339
C79	C	1.239902	0.257941	-0.838284
N80	N	1.281535	0.218584	-0.872253
C81	C	0.422111	0.457432	-0.272628
N82	N	0.388114	0.496736	-0.230964
C83	C	1.028940	0.457327	-1.091078
N84	N	0.987317	0.496661	-1.125026
C85	C	1.028873	0.457441	-0.666070
N86	N	0.987241	0.496798	-0.632099
H87	H	0.835575	0.271724	-0.469438
H88	H	1.225567	0.271490	-0.930694
C89	C	0.674962	0.457403	-0.272603
N90	N	0.640961	0.496709	-0.230942
C91	C	0.422301	0.258210	-0.483847
N92	N	0.388374	0.218918	-0.525521
H93	H	1.037407	0.811094	-0.474876
H94	H	0.582567	0.443862	-0.286978
