data_functionalizedCrystal
_audit_creation_method	'MofGen! by Chris Wilmer'
_symmetry_space_group_name_H-M	'P1'
_symmetry_Int_Tables_number	1
_symmetry_cell_setting	triclinic
loop_
_symmetry_equiv_pos_as_xyz
  x,y,z
_cell_length_a	12.837943
_cell_length_b	27.731996
_cell_length_c	11.892095
_cell_angle_alpha	93.849943
_cell_angle_beta	85.689438
_cell_angle_gamma	88.725164
loop_
_atom_site_label
_atom_site_type_symbol
_atom_site_fract_x
_atom_site_fract_y
_atom_site_fract_z
O1	O	1.380066	0.122782	-0.094013
O2	O	1.078363	0.116580	-0.094018
O3	O	1.238611	0.049749	-0.093991
O4	O	1.219818	0.189613	-0.094040
O5	O	1.225250	0.055312	0.094014
O6	O	1.065002	0.122142	0.093987
O7	O	1.366705	0.128345	0.093992
Zn8	Zn	1.213732	0.126127	0.123839
Zn9	Zn	1.231336	0.118798	-0.123866
O10	O	1.206457	0.195176	0.093965
C11	C	1.033096	0.117265	-0.000016
C12	C	0.918122	0.111016	-0.000017
C13	C	1.231544	0.034504	0.000015
C14	C	1.230381	-0.019210	0.000027
C15	C	0.675931	0.186145	-0.000027
C16	C	0.567901	0.180276	-0.000027
C17	C	0.594031	0.093408	-0.000009
C18	C	0.702060	0.099277	-0.000009
C19	C	0.743006	0.145648	-0.000020
C20	C	0.851038	0.151517	-0.000028
C21	C	0.877165	0.064649	-0.000001
C22	C	0.769136	0.058780	-0.000001
C23	C	1.230350	-0.355322	-0.102510
C24	C	1.225935	-0.557200	-0.102530
O25	O	1.231514	-0.585880	-0.189688
N26	N	1.218104	-0.579412	-0.000050
C27	C	1.211369	-0.551152	0.102443
O28	O	1.204595	-0.574676	0.189609
C29	C	1.215776	-0.349275	0.102462
C30	C	1.223619	-0.327066	-0.000025
C31	C	1.238191	-0.333113	-0.204989
C32	C	1.239300	-0.282647	-0.204983
C33	C	1.232569	-0.254390	-0.102498
C34	C	1.224728	-0.276599	-0.000019
C35	C	1.209034	-0.321015	0.204954
C36	C	1.210134	-0.270543	0.204950
C37	C	1.217976	-0.248334	0.102462
C38	C	1.219106	-0.197876	0.102472
N39	N	1.226938	-0.175664	-0.000009
C40	C	1.233669	-0.203921	-0.102494
C41	C	1.209057	-0.657140	0.102426
C42	C	1.207957	-0.707609	0.102422
C43	C	1.222522	-0.713654	-0.102552
C44	C	1.223629	-0.663184	-0.102547
C45	C	1.216889	-0.634928	-0.000054
C46	C	1.235999	-0.097938	-0.102473
C47	C	1.237112	-0.047467	-0.102458
C48	C	1.222542	-0.041426	0.102515
C49	C	1.221434	-0.091893	0.102501
C50	C	1.228160	-0.120147	-0.000003
O51	O	1.213520	-0.169166	0.189584
O52	O	1.240418	-0.180387	-0.189646
C53	C	1.229241	-0.405789	-0.102516
C54	C	1.221400	-0.427998	-0.000037
C55	C	1.214669	-0.399741	0.102448
C56	C	1.220300	-0.478467	-0.000042
C57	C	1.227032	-0.506724	-0.102527
C58	C	1.234863	-0.484512	-0.205007
C59	C	1.235973	-0.434046	-0.205001
C60	C	1.206837	-0.421953	0.204928
C61	C	1.205730	-0.472420	0.204914
C62	C	1.212461	-0.500677	0.102429
C63	C	1.411972	0.127659	-0.000013
C64	C	1.526947	0.133908	-0.000019
C65	C	1.213524	0.210421	-0.000044
C66	C	1.214689	0.264134	-0.000063
N67	N	1.201726	0.131129	0.292891
N68	N	1.243351	0.113792	-0.292918
C69	C	1.326898	0.078959	0.529560
C70	C	1.318513	0.082459	0.647901
C71	C	1.176567	0.141627	0.647915
C72	C	1.184952	0.138126	0.529574
C73	C	1.260121	0.106792	0.470401
C74	C	1.268510	0.103295	0.352059
C75	C	1.126559	0.162459	0.352075
C76	C	1.118174	0.165960	0.470415
H77	H	0.884374	0.189273	-0.000035
C78	C	1.144203	-0.608619	-0.221459
C79	C	1.232215	-0.638779	-0.215209
H80	H	1.149499	-0.593554	-0.291015
H81	H	1.083063	-0.627282	-0.217176
H82	H	1.140368	-0.584561	-0.160431
H83	H	1.236045	-0.662839	-0.276232
H84	H	1.293371	-0.620114	-0.219503
C85	C	1.066950	0.242185	0.315642
C86	C	1.053152	0.193059	0.287048
H87	H	1.021639	0.261076	0.275492
H88	H	1.051196	0.248748	0.394581
H89	H	1.137372	0.250051	0.296226
H90	H	0.982731	0.185193	0.306472
H91	H	1.068899	0.186494	0.208091
C92	C	0.639257	0.271421	-0.000056
C93	C	0.720946	0.237113	-0.000044
H94	H	0.667049	0.302886	-0.000060
H95	H	0.602327	0.265385	-0.065613
H96	H	0.593004	0.269262	0.065511
H97	H	0.767196	0.239269	-0.065616
H98	H	0.757894	0.243150	0.065520
C99	C	0.438123	0.221210	-0.096687
C100	C	0.494168	0.224791	-0.000042
H101	H	0.392599	0.248692	-0.096690
H102	H	0.485468	0.219758	-0.162235
H103	H	0.398277	0.192753	-0.096669
H104	H	0.534020	0.253245	-0.000064
H105	H	0.446817	0.226247	0.065523
H106	H	0.560667	0.055658	0.000094
C107	C	0.805816	-0.026495	0.000010
C108	C	0.724123	0.007811	0.000006
H109	H	0.778026	-0.057961	0.000018
H110	H	0.852062	-0.024335	-0.065548
H111	H	0.842751	-0.020460	0.065576
H112	H	0.687192	0.001777	-0.065564
H113	H	0.677859	0.005649	0.065571
C114	C	1.106922	-0.524316	0.323822
C115	C	1.197090	-0.496825	0.317583
H116	H	1.101582	-0.539382	0.393376
H117	H	1.047253	-0.503843	0.319536
H118	H	1.110790	-0.548373	0.262791
H119	H	1.193219	-0.472766	0.378610
H120	H	1.256774	-0.517300	0.321880
H121	H	1.240349	-0.507528	-0.288454
H122	H	0.931791	0.031673	-0.000003
C123	C	1.332276	-0.159528	-0.221428
C124	C	1.243393	-0.128987	-0.215150
H125	H	1.336838	-0.178697	-0.290989
H126	H	1.392820	-0.140621	-0.217155
H127	H	1.327437	-0.179985	-0.160406
H128	H	1.248235	-0.108527	-0.276168
H129	H	1.182833	-0.147896	-0.219435
C130	C	1.205349	-0.190494	0.295989
C131	C	1.202726	-0.239483	0.317615
H132	H	1.200771	-0.171321	0.365544
H133	H	1.268948	-0.184373	0.253897
H134	H	1.148095	-0.182563	0.253875
H135	H	1.259985	-0.247415	0.359722
H136	H	1.139119	-0.245607	0.359725
C137	C	1.227283	-0.793707	-0.193554
C138	C	1.229910	-0.744720	-0.215207
H139	H	1.231831	-0.812886	-0.263100
H140	H	1.284540	-0.801637	-0.151461
H141	H	1.163684	-0.799821	-0.151432
H142	H	1.293513	-0.738606	-0.257323
H143	H	1.172648	-0.736788	-0.257318
H144	H	1.243501	-0.029387	-0.185919
C145	C	1.217756	0.038628	0.193513
C146	C	1.215135	-0.010359	0.215163
H147	H	1.213171	0.057807	0.263059
H148	H	1.281356	0.044747	0.151421
H149	H	1.160504	0.046553	0.151389
H150	H	1.272392	-0.018285	0.257280
H151	H	1.151528	-0.016481	0.257273
C152	C	1.026010	0.149505	0.781042
C153	C	1.093944	0.176063	0.712981
H154	H	0.975006	0.170766	0.821218
H155	H	0.992353	0.126317	0.734883
H156	H	1.064599	0.133429	0.833197
H157	H	1.055355	0.192137	0.660820
H158	H	1.127603	0.199260	0.759144
H159	H	1.243669	-0.356115	-0.288450
H160	H	1.201357	-0.398951	0.288386
C161	C	1.250250	-0.445106	-0.407603
C162	C	1.244582	-0.409638	-0.317660
H163	H	1.255557	-0.430039	-0.477156
H164	H	1.309940	-0.465568	-0.403335
H165	H	1.189085	-0.463760	-0.403323
H166	H	1.305750	-0.390986	-0.321935
H167	H	1.184885	-0.389167	-0.321930
C168	C	1.253568	-0.293707	-0.407585
C169	C	1.247903	-0.258239	-0.317642
H170	H	1.258869	-0.278639	-0.477138
H171	H	1.313261	-0.314168	-0.403322
H172	H	1.192405	-0.312362	-0.403301
H173	H	1.309070	-0.239586	-0.321921
H174	H	1.188204	-0.237769	-0.321907
C175	C	1.407965	0.045157	0.363936
C176	C	1.351130	0.068850	0.287012
H177	H	1.458966	0.023890	0.323779
H178	H	1.441626	0.068352	0.410074
H179	H	1.361848	0.027155	0.410111
H180	H	1.397246	0.086856	0.240842
H181	H	1.317469	0.045652	0.240854
C182	C	1.194574	-0.656245	0.305033
C183	C	1.201669	-0.626085	0.215097
H184	H	1.190026	-0.637074	0.374590
H185	H	1.134020	-0.675147	0.300771
H186	H	1.254877	-0.676964	0.300741
H187	H	1.141362	-0.605368	0.219384
H188	H	1.262229	-0.607175	0.219361
H189	H	1.056970	0.191470	0.518608
C190	C	1.194713	-0.309948	0.407554
C191	C	1.200401	-0.345418	0.317614
H192	H	1.189375	-0.325014	0.477108
H193	H	1.255873	-0.291298	0.403297
H194	H	1.135022	-0.289482	0.403261
H195	H	1.260097	-0.365882	0.321902
H196	H	1.139234	-0.364076	0.321873
C197	C	1.207147	-0.080845	0.305109
C198	C	1.212819	-0.116308	0.215154
H199	H	1.201815	-0.095917	0.374656
H200	H	1.268310	-0.062197	0.300851
H201	H	1.147458	-0.060376	0.300833
H202	H	1.272513	-0.136775	0.219426
H203	H	1.151649	-0.134964	0.219414
C204	C	1.459663	0.023624	0.635995
C205	C	1.391918	0.051864	0.712930
H206	H	1.504983	0.004737	0.676144
H207	H	1.420101	0.002890	0.589856
H208	H	1.499861	0.044094	0.589821
H209	H	1.351714	0.031394	0.759098
H210	H	1.431485	0.072600	0.759088
H211	H	1.201587	-0.725687	0.185877
H212	H	1.388111	0.053448	0.481381
