data_functionalizedCrystal
_audit_creation_method	'MofGen! by Chris Wilmer'
_symmetry_space_group_name_H-M	'P1'
_symmetry_Int_Tables_number	1
_symmetry_cell_setting	triclinic
loop_
_symmetry_equiv_pos_as_xyz
  x,y,z
_cell_length_a	31.640172
_cell_length_b	31.640171
_cell_length_c	12.477989
_cell_angle_alpha	55.721071
_cell_angle_beta	90.003430
_cell_angle_gamma	59.979319
loop_
_atom_site_label
_atom_site_type_symbol
_atom_site_fract_x
_atom_site_fract_y
_atom_site_fract_z
Zr1	Zr	0.403062	0.470541	-0.151363
O2	O	0.330788	0.568237	-0.335378
O3	O	0.425248	0.379423	-0.094906
O4	O	0.419011	0.480014	-0.335279
O5	O	0.341911	0.457879	0.094554
O6	O	0.488569	0.480004	-0.335254
O7	O	0.337025	0.467646	-0.095004
O8	O	0.499726	0.300065	0.094730
O9	O	0.330754	0.637818	-0.335430
O10	O	0.486584	0.414457	-0.070865
O11	O	0.438320	0.407176	0.070582
O12	O	0.430977	0.525609	-0.212427
O13	O	0.382713	0.518328	-0.070981
Zr14	Zr	0.521791	0.454948	0.151001
Zr15	Zr	0.513999	0.470525	-0.151322
Zr16	Zr	0.410855	0.454965	0.150961
Zr17	Zr	0.403008	0.581515	-0.151446
Zr18	Zr	0.521846	0.343974	0.151085
O19	O	0.499605	0.546066	0.094545
O20	O	0.488525	0.568214	-0.335321
O21	O	0.341868	0.546089	0.094488
O22	O	0.594065	0.357253	0.335017
O23	O	0.582986	0.379400	-0.094849
O24	O	0.436328	0.357276	0.334959
O25	O	0.582942	0.467610	-0.094915
O26	O	0.505842	0.445475	0.334918
O27	O	0.436285	0.445485	0.334893
O28	O	0.587828	0.457844	0.094643
O29	O	0.418934	0.637805	-0.335398
O30	O	0.505920	0.287684	0.335037
O31	O	0.594100	0.287671	0.335069
O32	O	0.587906	0.300053	0.094762
O33	O	0.336948	0.625437	-0.095123
O34	O	0.425127	0.625424	-0.095091
O35	O	0.493877	0.399880	0.212066
O36	O	0.542141	0.407161	0.070620
O37	O	0.486533	0.518313	-0.070943
O38	O	0.438269	0.511032	0.070504
C39	C	0.462495	0.323933	-0.000076
C40	C	0.462518	0.276821	-0.000040
C41	C	0.503461	-0.103125	0.104283
C42	C	0.503509	0.073824	0.104361
O43	O	0.538421	0.059511	0.193187
N44	N	0.462484	0.139687	-0.000104
C45	C	0.421445	0.161312	-0.104601
O46	O	0.386554	0.221393	-0.193462
C47	C	0.421400	-0.015636	-0.104684
C48	C	0.462425	-0.081499	-0.000204
C49	C	0.544484	-0.168984	0.208754
C50	C	0.544470	-0.213219	0.208738
C51	C	0.503434	-0.191593	0.104251
C52	C	0.462411	-0.125734	-0.000220
C53	C	0.380363	0.005990	-0.209186
C54	C	0.380356	-0.038254	-0.209199
C55	C	0.421382	-0.104117	-0.104719
C56	C	0.421361	-0.148343	-0.104723
N57	N	0.462387	-0.214205	-0.000258
C58	C	0.503423	-0.235830	0.104229
C59	C	0.421471	0.254210	-0.104549
C60	C	0.421482	0.298447	-0.104527
C61	C	0.503547	0.210956	0.104434
C62	C	0.503533	0.166718	0.104417
C63	C	0.462497	0.188347	-0.000084
C64	C	0.503390	-0.328723	0.104188
C65	C	0.503372	-0.372957	0.104166
C66	C	0.421309	-0.285462	-0.104798
C67	C	0.421325	-0.241232	-0.104773
C68	C	0.462371	-0.262867	-0.000273
O69	O	0.386471	-0.134076	-0.193511
O70	O	0.538315	-0.295912	0.193058
C71	C	0.503475	-0.058890	0.104299
C72	C	0.462453	0.006969	-0.000172
C73	C	0.421416	0.028595	-0.104658
C74	C	0.462463	0.051206	-0.000150
C75	C	0.503500	0.029581	0.104337
C76	C	0.544525	-0.036281	0.208802
C77	C	0.544512	-0.080516	0.208786
C78	C	0.380391	0.094457	-0.209123
C79	C	0.380408	0.138688	-0.209098
C80	C	0.421444	0.117062	-0.104611
C81	C	0.323662	0.462765	-0.000231
C82	C	0.276567	0.462772	-0.000248
C83	C	0.013590	0.404718	0.073742
C84	C	-0.163395	0.404706	0.073770
O85	O	-0.161593	0.355359	0.136666
N86	N	-0.214551	0.462725	-0.000126
C87	C	-0.221460	0.520752	-0.074027
O88	O	-0.269033	0.570100	-0.136867
C89	C	-0.044476	0.520763	-0.074045
C90	C	0.006679	0.462740	-0.000156
C91	C	0.064743	0.346699	0.147626
C92	C	0.108986	0.346703	0.147612
C93	C	0.102076	0.404725	0.073714
C94	C	0.050922	0.462744	-0.000170
C95	C	-0.051386	0.578788	-0.147937
C96	C	-0.007134	0.578785	-0.147932
C97	C	0.044021	0.520762	-0.074043
C98	C	0.088255	0.520770	-0.074083
N99	N	0.139411	0.462750	-0.000187
C100	C	0.146322	0.404728	0.073712
C101	C	-0.314378	0.520742	-0.074014
C102	C	-0.358623	0.520740	-0.074011
C103	C	-0.300555	0.404693	0.073788
C104	C	-0.256308	0.404697	0.073776
C105	C	-0.263221	0.462723	-0.000118
C106	C	0.239233	0.404740	0.073676
C107	C	0.283477	0.404749	0.073650
C108	C	0.225405	0.520795	-0.074142
C109	C	0.181164	0.520787	-0.074123
C110	C	0.188082	0.462754	-0.000204
O111	O	0.086494	0.570090	-0.136932
O112	O	0.193898	0.355385	0.136568
C113	C	-0.030653	0.404714	0.073756
C114	C	-0.081807	0.462732	-0.000128
C115	C	-0.088717	0.520754	-0.074027
C116	C	-0.126053	0.462730	-0.000126
C117	C	-0.119142	0.404707	0.073772
C118	C	-0.067986	0.346688	0.147668
C119	C	-0.023743	0.346692	0.147654
C120	C	-0.139873	0.578774	-0.147923
C121	C	-0.184114	0.578765	-0.147904
C122	C	-0.177204	0.520743	-0.074006
C123	C	0.601191	0.462725	-0.000130
C124	C	0.648287	0.462718	-0.000113
C125	C	0.452680	0.482228	-0.378341
C126	C	0.449372	0.488841	-0.506686
C127	C	0.462359	0.601557	-0.000285
C128	C	0.462335	0.648668	-0.000321
C129	C	0.472174	0.443261	0.377980
C130	C	0.475482	0.436649	0.506325
C131	C	0.601260	0.323913	-0.000026
C132	C	0.648378	0.276794	0.000027
C133	C	0.472242	0.304449	0.378085
C134	C	0.475573	0.250725	0.506465
C135	C	0.611007	0.304429	0.378135
C136	C	0.661433	0.250698	0.506532
C137	C	0.313847	0.621060	-0.378496
C138	C	0.263420	0.674791	-0.506893
C139	C	0.323594	0.601577	-0.000335
C140	C	0.276475	0.648695	-0.000388
C141	C	0.452611	0.621040	-0.378446
C142	C	0.449280	0.674764	-0.506826
C143	C	0.641505	0.258476	-0.073814
C144	C	0.685773	0.214211	-0.073793
C145	C	0.736914	0.188262	0.000078
C146	C	0.743786	0.206584	0.073922
C147	C	0.699518	0.250852	0.073892
C148	C	0.506138	0.221687	0.640619
C149	C	0.509266	0.171213	0.761257
C150	C	0.481833	0.149775	0.747738
C151	C	0.451264	0.178819	0.613569
C152	C	0.448133	0.229295	0.492934
C153	C	0.710312	0.229266	0.492995
C154	C	0.757697	0.178787	0.613626
C155	C	0.756202	0.149738	0.747793
C156	C	0.707318	0.171174	0.761327
C157	C	0.659934	0.221656	0.640697
C158	C	0.214541	0.696228	-0.493356
C159	C	0.167156	0.746721	-0.613987
C160	C	0.168651	0.775773	-0.748154
C161	C	0.217535	0.754334	-0.761688
C162	C	0.264919	0.703845	-0.641059
C163	C	0.283348	0.667018	0.073441
C164	C	0.239079	0.711297	0.073386
C165	C	0.187938	0.737249	-0.000490
C166	C	0.181067	0.718924	-0.074327
C167	C	0.225335	0.674649	-0.074280
C168	C	0.476720	0.696185	-0.493261
C169	C	0.473601	0.746658	-0.613876
C170	C	0.443038	0.775712	-0.748054
C171	C	0.415597	0.754287	-0.761616
C172	C	0.418720	0.703812	-0.641003
H173	H	0.536814	-0.346347	0.189282
H174	H	0.577937	-0.053883	0.293884
F175	F	0.336711	0.117483	-0.320337
F176	F	0.415604	0.260192	0.350160
F177	F	0.416838	0.553864	-0.649592
H178	H	0.711539	0.252912	0.383761
H179	H	0.501608	0.672536	-0.384017
F180	F	0.587082	0.286088	-0.152448
F181	F	0.678449	0.194717	-0.152386
F182	F	0.809717	0.155981	0.599192
F183	F	0.784023	0.141147	0.000100
H184	H	0.577903	-0.186603	0.293841
F185	F	0.541803	0.140310	0.904035
H186	H	0.785430	0.185449	0.134065
H187	H	0.325130	0.357498	0.133824
H188	H	0.484386	0.108674	0.845978
F189	F	0.706841	0.270339	0.152497
F190	F	0.072109	0.284938	0.226291
H191	H	0.390713	0.777950	-0.870880
H192	H	0.130064	0.816883	-0.846367
F193	F	0.535341	0.244491	0.655040
H194	H	0.495946	0.764097	-0.602806
H195	H	0.396372	0.686377	-0.652067
F196	F	0.607916	0.244457	0.655127
F197	F	0.439718	0.829434	-0.876411
F198	F	0.377811	0.368540	-0.215713
H199	H	0.794789	0.108633	0.846006
H200	H	0.500365	0.386906	-0.384349
H201	H	0.577878	-0.266845	0.293812
F202	F	0.547037	-0.443056	0.215376
H203	H	0.536940	0.113091	0.189493
F204	F	0.422070	0.155996	0.599203
H205	H	0.706109	0.147515	0.870582
H206	H	0.213314	0.672577	-0.384122
F207	F	-0.014497	0.640546	-0.226579
H208	H	0.218746	0.777994	-0.870941
H209	H	0.536959	0.193354	0.189514
F210	F	0.115136	0.769527	-0.599553
H211	H	0.304717	0.686392	-0.652097
F212	F	0.140829	0.784369	-0.000526
F213	F	0.377789	0.277240	-0.215776
H214	H	0.139422	0.740060	-0.134475
H215	H	0.244685	0.726209	0.133519
F216	F	0.337772	0.639408	0.152071
H217	H	0.346959	0.059614	-0.294274
H218	H	0.219732	0.659732	-0.134397
H219	H	0.244873	0.357484	0.133869
H220	H	0.387907	-0.187603	-0.189815
F221	F	0.336679	-0.015227	-0.320430
F222	F	-0.201867	0.342942	0.152420
F223	F	0.377635	-0.262458	-0.215990
H224	H	-0.294935	0.357450	0.133950
H225	H	0.346995	0.192317	-0.294177
F226	F	0.163426	0.284946	0.226265
F227	F	-0.413065	0.582497	-0.152674
F228	F	0.588177	-0.150610	0.319989
H229	H	-0.320015	0.567997	-0.134197
H230	H	0.139509	0.568035	-0.134308
F231	F	-0.105822	0.640545	-0.226571
H232	H	0.219787	0.568036	-0.134313
H233	H	0.017907	0.299443	0.207826
H234	H	-0.062367	0.299444	0.207830
F235	F	-0.238557	0.640526	-0.226558
H236	H	-0.145508	0.626024	-0.208103
