data_functionalizedCrystal
_audit_creation_method	'MofGen! by Chris Wilmer'
_symmetry_space_group_name_H-M	'P1'
_symmetry_Int_Tables_number	1
_symmetry_cell_setting	triclinic
loop_
_symmetry_equiv_pos_as_xyz
  x,y,z
_cell_length_a	10.489741
_cell_length_b	9.798715
_cell_length_c	10.723024
_cell_angle_alpha	89.998022
_cell_angle_beta	95.496478
_cell_angle_gamma	90.001001
loop_
_atom_site_label
_atom_site_type_symbol
_atom_site_fract_x
_atom_site_fract_y
_atom_site_fract_z
O1	O	1.693940	0.113403	-0.176060
O2	O	2.193940	0.613403	0.323940
O3	O	1.322734	0.113424	-0.192587
O4	O	1.822734	0.613424	0.307413
O5	O	1.516899	0.113408	-0.002753
O6	O	2.016899	0.613408	0.497247
O7	O	1.499774	0.113419	-0.365895
O8	O	1.999774	0.613419	0.134105
O9	O	1.516885	-0.113574	-0.002752
O10	O	2.016885	0.386426	0.497248
O11	O	1.322719	-0.113558	-0.192586
O12	O	1.822719	0.386442	0.307414
O13	O	1.693925	-0.113579	-0.176060
O14	O	2.193925	0.386421	0.323940
Zn15	Zn	1.508320	-0.149607	-0.184323
Zn16	Zn	2.008320	0.350393	0.315677
Zn17	Zn	1.508339	0.149452	-0.184324
Zn18	Zn	2.008339	0.649452	0.315676
O19	O	1.499760	-0.113563	-0.365894
O20	O	1.999760	0.386437	0.134106
C21	C	1.275196	-0.000065	-0.191338
C22	C	1.775196	0.499935	0.308662
C23	C	1.133569	-0.000057	-0.187604
C24	C	1.633569	0.499943	0.312396
N25	N	1.508316	-0.353707	-0.184322
N26	N	2.008316	0.146293	0.315678
C27	C	1.515646	-0.000082	0.043748
C28	C	2.015646	0.499918	0.543748
C29	C	1.511917	-0.000077	0.182305
C30	C	2.011917	0.499923	0.682305
C31	C	1.065506	-0.000073	-0.066818
C32	C	1.565506	0.499927	0.433182
C33	C	0.973349	0.111840	-0.123876
C34	C	1.473349	0.611840	0.376124
C35	C	0.973369	-0.111947	-0.123905
C36	C	1.473369	0.388053	0.376095
C37	C	1.043278	0.111949	-0.244712
C38	C	1.543278	0.611949	0.255288
C39	C	1.043307	-0.111939	-0.244723
C40	C	1.543307	0.388061	0.255277
C41	C	0.951178	0.000002	-0.301869
C42	C	1.451178	0.500002	0.198131
C43	C	1.741464	-0.000088	-0.177308
C44	C	2.241464	0.499912	0.322692
C45	C	1.883091	-0.000087	-0.181043
C46	C	2.383091	0.499913	0.318957
C47	C	1.589841	-0.421490	-0.104264
C48	C	2.089841	0.078510	0.395736
C49	C	1.589861	-0.578653	-0.104260
C50	C	2.089861	-0.078653	0.395740
N51	N	1.508353	0.353551	-0.184315
N52	N	2.008353	0.853551	0.315685
C53	C	1.501013	-0.000071	-0.412395
C54	C	2.001013	0.499929	0.087605
C55	C	1.504742	-0.000067	-0.550951
C56	C	2.004742	0.499933	-0.050951
C57	C	1.620562	-0.000081	0.257221
C58	C	2.120562	0.499919	0.757221
C59	C	1.616711	-0.000076	0.400426
C60	C	2.116711	0.499924	0.900426
H61	H	1.115259	0.000064	0.032476
H62	H	1.615259	0.500064	0.532476
H63	H	1.659619	-0.363174	-0.035722
H64	H	2.159619	0.136826	0.464278
H65	H	0.901691	0.000066	-0.401268
H66	H	1.401691	0.500066	0.098732
H67	H	1.438530	-0.412026	-0.252855
H68	H	1.938530	0.087974	0.247145
H69	H	1.438557	-0.588167	-0.252864
H70	H	1.938557	-0.088167	0.247136
H71	H	1.716428	-0.000095	0.215340
H72	H	2.216428	0.499905	0.715340
H73	H	1.709719	-0.000085	0.464802
H74	H	2.209719	0.499915	0.964802
H75	H	1.411728	-0.000073	0.384681
H76	H	1.911728	0.499927	0.884681
H77	H	1.416051	-0.000062	0.224185
H78	H	1.916051	0.499938	0.724185
H79	H	1.659663	-0.636944	-0.035724
H80	H	2.159663	-0.136944	0.464276
H81	H	0.942374	0.206453	-0.072769
H82	H	1.442374	0.706453	0.427231
H83	H	1.074079	0.206669	-0.295779
H84	H	1.574079	0.706669	0.204221
H85	H	1.074314	-0.206556	-0.295789
H86	H	1.574314	0.293444	0.204211
H87	H	0.942418	-0.206561	-0.072775
H88	H	1.442418	0.293439	0.427225
