data_functionalizedCrystal
_audit_creation_method	'MofGen! by Chris Wilmer'
_symmetry_space_group_name_H-M	'P1'
_symmetry_Int_Tables_number	1
_symmetry_cell_setting	triclinic
loop_
_symmetry_equiv_pos_as_xyz
  x,y,z
_cell_length_a	17.639044
_cell_length_b	17.637651
_cell_length_c	12.759393
_cell_angle_alpha	101.250165
_cell_angle_beta	78.795864
_cell_angle_gamma	92.197722
loop_
_atom_site_label
_atom_site_type_symbol
_atom_site_fract_x
_atom_site_fract_y
_atom_site_fract_z
Zn1	Zn	1.099801	-0.536948	0.153465
Zn2	Zn	1.433135	-0.203615	0.486799
Zn3	Zn	1.766468	0.129719	0.820132
Zn4	Zn	1.074044	-0.663982	-0.049458
Zn5	Zn	1.407377	-0.330649	0.283875
Zn6	Zn	1.740711	0.002685	0.617209
Zn7	Zn	0.972808	-0.511329	0.018883
Zn8	Zn	1.306141	-0.177995	0.352216
Zn9	Zn	1.639474	0.155338	0.685549
Zn10	Zn	0.947138	-0.638278	0.167261
Zn11	Zn	1.280472	-0.304945	0.500594
Zn12	Zn	1.613805	0.028388	0.833927
O13	O	1.023448	-0.587634	0.072538
O14	O	1.356781	-0.254301	0.405871
O15	O	1.690115	0.079032	0.739204
O16	O	1.202643	-0.575278	0.092173
O17	O	1.535976	-0.241945	0.425506
O18	O	1.869309	0.091389	0.758839
O19	O	1.060578	-0.643767	-0.187413
O20	O	1.393911	-0.310434	0.145920
O21	O	1.727245	0.022899	0.479254
O22	O	1.011176	-0.408434	0.059563
O23	O	1.344509	-0.075101	0.392896
O24	O	1.677843	0.258233	0.726229
O25	O	1.183719	-0.668609	-0.056914
O26	O	1.517052	-0.335276	0.276419
O27	O	1.850385	-0.001943	0.609753
O28	O	1.104478	-0.427256	0.158440
O29	O	1.437811	-0.093923	0.491773
O30	O	1.771144	0.239410	0.825106
O31	O	0.986200	-0.531614	-0.137203
O32	O	1.319533	-0.198280	0.196130
O33	O	1.652867	0.135053	0.529463
O34	O	0.863145	-0.506690	0.072940
O35	O	1.196478	-0.173357	0.406273
O36	O	1.529811	0.159977	0.739606
O37	O	0.967426	-0.624801	0.312452
O38	O	1.300760	-0.291468	0.645785
O39	O	1.634093	0.041865	0.979118
O40	O	0.844286	-0.599959	0.181952
O41	O	1.177619	-0.266626	0.515286
O42	O	1.510952	0.066707	0.848619
O43	O	1.079587	-0.550354	0.302316
O44	O	1.412921	-0.217021	0.635649
O45	O	1.746254	0.116312	0.968983
O46	O	1.035687	-0.766865	-0.043537
O47	O	1.369021	-0.433532	0.289796
O48	O	1.702354	-0.100199	0.623130
O49	O	0.942450	-0.747981	0.115685
O50	O	1.275784	-0.414648	0.449019
O51	O	1.609117	-0.081314	0.782352
C52	C	0.826164	-0.547756	0.136359
C53	C	1.159497	-0.214423	0.469693
C54	C	1.492830	0.118911	0.803026
C55	C	0.741761	-0.530714	0.163684
C56	C	1.075094	-0.197381	0.497017
C57	C	1.408427	0.135953	0.830350
C58	C	0.632634	-0.458181	0.279897
C59	C	0.965967	-0.124848	0.613231
C60	C	1.299301	0.208486	0.946564
C61	C	0.711942	-0.474200	0.254213
C62	C	1.045275	-0.140867	0.587547
C63	C	1.378609	0.192466	0.920880
C64	C	0.692277	-0.571229	0.098798
C65	C	1.025610	-0.237895	0.432132
C66	C	1.358943	0.095438	0.765465
C67	C	0.612966	-0.555215	0.124466
C68	C	0.946299	-0.221882	0.457800
C69	C	1.279633	0.111452	0.791133
C70	C	0.583151	-0.498691	0.215018
C71	C	0.916484	-0.165358	0.548351
C72	C	1.249818	0.167976	0.881684
C73	C	0.563483	-0.595725	0.059587
C74	C	0.896816	-0.262391	0.392920
C75	C	1.230150	0.070942	0.726253
C76	C	0.484178	-0.579715	0.085256
C77	C	0.817512	-0.246382	0.418590
C78	C	1.150845	0.086952	0.751923
C79	C	0.454357	-0.523195	0.175805
C80	C	0.787690	-0.189862	0.509139
C81	C	1.121024	0.143472	0.842472
C82	C	0.503847	-0.482681	0.240687
C83	C	0.837180	-0.149348	0.574021
C84	C	1.170513	0.183986	0.907354
C85	C	0.593299	-0.652252	-0.030960
C86	C	0.926632	-0.318919	0.302374
C87	C	1.259965	0.014414	0.635707
C88	C	0.543816	-0.692762	-0.095839
C89	C	0.877149	-0.359429	0.237494
C90	C	1.210482	-0.026095	0.570827
C91	C	0.464510	-0.676749	-0.070175
C92	C	0.797844	-0.343415	0.263159
C93	C	1.131177	-0.010082	0.596492
C94	C	0.434689	-0.620229	0.020374
C95	C	0.768022	-0.286896	0.353708
C96	C	1.101356	0.046438	0.687041
C97	C	0.415021	-0.717263	-0.135057
C98	C	0.748354	-0.383930	0.198277
C99	C	1.081687	-0.050596	0.531610
C100	C	0.335716	-0.701253	-0.109387
C101	C	0.669050	-0.367920	0.223946
C102	C	1.002383	-0.034586	0.557279
C103	C	0.355384	-0.604219	0.046044
C104	C	0.688718	-0.270886	0.379377
C105	C	1.022051	0.062448	0.712711
C106	C	0.983509	-0.784988	0.030172
C107	C	1.316842	-0.451654	0.363505
C108	C	1.650176	-0.118321	0.696838
C109	C	0.966492	-0.869431	0.012060
C110	C	1.299826	-0.536097	0.345393
C111	C	1.633159	-0.202764	0.678726
C112	C	1.153215	-1.195817	0.210302
C113	C	1.486548	-0.862483	0.543635
C114	C	1.819881	-0.529150	0.876969
C115	C	1.137201	-1.275159	0.193273
C116	C	1.470534	-0.941825	0.526606
C117	C	1.803867	-0.608492	0.859940
C118	C	1.040110	-1.255679	0.090161
C119	C	1.373444	-0.922346	0.423495
C120	C	1.706777	-0.589013	0.756828
C121	C	1.056119	-1.176334	0.107177
C122	C	1.389452	-0.843001	0.440511
C123	C	1.722785	-0.509668	0.773844
C124	C	1.112671	-1.146410	0.167250
C125	C	1.446004	-0.813076	0.500583
C126	C	1.779338	-0.479743	0.833916
C127	C	1.015575	-1.126928	0.064125
C128	C	1.348908	-0.793594	0.397458
C129	C	1.682242	-0.460261	0.730792
C130	C	1.031579	-1.047589	0.081145
C131	C	1.364913	-0.714256	0.414478
C132	C	1.698246	-0.380923	0.747812
C133	C	1.088127	-1.017658	0.141217
C134	C	1.421461	-0.684325	0.474550
C135	C	1.754794	-0.350991	0.807884
C136	C	1.128675	-1.067071	0.184270
C137	C	1.462009	-0.733738	0.517603
C138	C	1.795342	-0.400405	0.850936
C139	C	0.959019	-1.156853	0.004060
C140	C	1.292352	-0.823520	0.337393
C141	C	1.625686	-0.490187	0.670726
C142	C	0.918475	-1.107446	-0.038993
C143	C	1.251809	-0.774113	0.294341
C144	C	1.585142	-0.440780	0.627674
C145	C	0.934483	-1.028107	-0.021980
C146	C	1.267817	-0.694774	0.311354
C147	C	1.601150	-0.361441	0.644687
C148	C	0.991031	-0.998176	0.038092
C149	C	1.324365	-0.664842	0.371426
C150	C	1.657698	-0.331509	0.704759
C151	C	0.893935	-0.978694	-0.065032
C152	C	1.227269	-0.645360	0.268301
C153	C	1.560602	-0.312027	0.601634
C154	C	0.909940	-0.899355	-0.048012
C155	C	1.243273	-0.566022	0.285321
C156	C	1.576607	-0.232689	0.618654
C157	C	1.007036	-0.918837	0.055112
C158	C	1.340369	-0.585504	0.388446
C159	C	1.673703	-0.252171	0.721779
C160	C	1.221502	-0.627669	0.008467
C161	C	1.554836	-0.294335	0.341801
C162	C	1.888169	0.038998	0.675134
C163	C	1.305901	-0.644729	-0.018836
C164	C	1.639235	-0.311396	0.314498
C165	C	1.972568	0.021938	0.647831
C166	C	1.023516	-0.587568	0.346570
C167	C	1.356850	-0.254235	0.679904
C168	C	1.690183	0.079098	1.013237
C169	C	1.023546	-0.587540	0.463347
C170	C	1.356879	-0.254207	0.796680
C171	C	1.690212	0.079126	1.130014
C172	C	1.063563	-0.389514	0.115086
C173	C	1.396897	-0.056181	0.448419
C174	C	1.730230	0.277153	0.781752
C175	C	1.080658	-0.305087	0.133217
C176	C	1.413992	0.028246	0.466550
C177	C	1.747325	0.361580	0.799884
C178	C	1.023434	-0.587654	-0.200431
C179	C	1.356768	-0.254320	0.132902
C180	C	1.690101	0.079013	0.466235
C181	C	1.023595	-0.587498	-0.317209
C182	C	1.356929	-0.254164	0.016125
C183	C	1.690262	0.079169	0.349458
C184	C	1.081956	-0.548772	0.512932
C185	C	1.415289	-0.215439	0.846265
C186	C	1.748622	0.117894	1.179598
C187	C	1.081979	-0.548749	0.622656
C188	C	1.415313	-0.215415	0.955989
C189	C	1.748646	0.117918	1.289323
C190	C	0.965180	-0.626267	0.633200
C191	C	1.298513	-0.292933	0.966533
C192	C	1.631846	0.040400	1.299867
C193	C	0.965154	-0.626285	0.523480
C194	C	1.298487	-0.292952	0.856813
C195	C	1.631820	0.040381	1.190146
C196	C	1.149391	-0.504021	0.506844
C197	C	1.482724	-0.170687	0.840177
C198	C	1.816058	0.162646	1.173511
C199	C	1.149414	-0.503997	0.616568
C200	C	1.482748	-0.170664	0.949902
C201	C	1.816081	0.162670	1.283235
H202	H	0.752231	-0.441206	0.307050
H203	H	1.085564	-0.107872	0.640384
H204	H	1.418897	0.225461	0.973717
H205	H	1.145549	-0.442013	0.494805
H206	H	1.478882	-0.108680	0.828138
H207	H	1.812216	0.224654	1.161471
H208	H	0.657876	-0.665274	-0.051870
H209	H	0.991210	-0.331941	0.281463
H210	H	1.324543	0.001393	0.614796
H211	H	1.139671	-0.443849	0.669421
H212	H	1.473005	-0.110515	1.002754
H213	H	1.806338	0.222818	1.336088
H214	H	0.872429	-1.131822	-0.087900
H215	H	1.205762	-0.798489	0.245433
H216	H	1.539095	-0.465155	0.578766
H217	H	0.568102	-0.738786	-0.169564
H218	H	0.901435	-0.405452	0.163769
H219	H	1.234768	-0.072119	0.497102
H220	H	0.994063	-1.280055	0.041254
H221	H	1.327397	-0.946722	0.374587
H222	H	1.660730	-0.613388	0.707920
F223	F	0.902978	-0.667534	0.470717
F224	F	1.236311	-0.334201	0.804051
F225	F	1.569644	-0.000868	1.137384
H226	H	0.917638	-0.657809	0.682174
H227	H	1.250971	-0.324476	1.015507
H228	H	1.584304	0.008857	1.348841
H229	H	1.205040	-0.531637	0.623936
H230	H	1.538374	-0.198303	0.957270
H231	H	1.871707	0.135030	1.290603
F232	F	1.188873	-1.035221	0.248192
F233	F	1.522207	-0.701887	0.581525
F234	F	1.855540	-0.368554	0.914858
H235	H	0.295425	-0.734242	-0.162217
H236	H	0.628759	-0.400908	0.171116
H237	H	0.962092	-0.067575	0.504450
F238	F	0.323651	-0.544051	0.142409
F239	F	0.656984	-0.210717	0.475743
F240	F	0.990318	0.122616	0.809076
F241	F	1.104972	-0.933180	0.159653
F242	F	1.438306	-0.599847	0.492986
F243	F	1.771639	-0.266514	0.826319
H244	H	0.716563	-0.617252	0.025073
H245	H	1.049896	-0.283919	0.358407
H246	H	1.383230	0.049415	0.691740
F247	F	1.213412	-1.163966	0.274224
F248	F	1.546746	-0.830633	0.607558
F249	F	1.880079	-0.497299	0.940891
H250	H	1.170210	-1.315382	0.228354
H251	H	1.503543	-0.982049	0.561688
H252	H	1.836876	-0.648716	0.895021
H253	H	0.945983	-1.221455	-0.009784
H254	H	1.279316	-0.888121	0.323550
H255	H	1.612650	-0.554788	0.656883
H256	H	0.439307	-0.763290	-0.208777
H257	H	0.772641	-0.429956	0.124556
H258	H	1.105974	-0.096623	0.457889
H259	H	0.847886	-1.003070	-0.113934
H260	H	1.181219	-0.669737	0.219399
H261	H	1.514552	-0.336403	0.552733
F262	F	1.216817	-0.546333	0.432817
F263	F	1.550150	-0.213000	0.766150
F264	F	1.883484	0.120334	1.099484
H265	H	0.389781	-0.510163	0.196706
H266	H	0.723115	-0.176830	0.530040
H267	H	1.056448	0.156503	0.863373
H268	H	0.479572	-0.436645	0.314413
H269	H	0.812905	-0.103312	0.647747
H270	H	1.146239	0.230022	0.981080
H271	H	0.608359	-0.412145	0.353624
H272	H	0.941693	-0.078812	0.686957
H273	H	1.275026	0.254522	1.020290
F274	F	1.067234	-0.886987	0.119034
F275	F	1.400567	-0.553654	0.452368
F276	F	1.733901	-0.220320	0.785701
F277	F	0.866791	-0.846771	-0.093837
F278	F	1.200124	-0.513437	0.239496
F279	F	1.533458	-0.180104	0.572830
