data_functionalizedCrystal
_audit_creation_method	'MofGen! by Chris Wilmer'
_symmetry_space_group_name_H-M	'P1'
_symmetry_Int_Tables_number	1
_symmetry_cell_setting	triclinic
loop_
_symmetry_equiv_pos_as_xyz
  x,y,z
_cell_length_a	13.033293
_cell_length_b	17.077402
_cell_length_c	17.077396
_cell_angle_alpha	89.970216
_cell_angle_beta	97.208897
_cell_angle_gamma	82.807784
loop_
_atom_site_label
_atom_site_type_symbol
_atom_site_fract_x
_atom_site_fract_y
_atom_site_fract_z
Zn1	Zn	1.597736	0.160244	0.596522
Zn2	Zn	2.097736	0.660244	1.096522
Zn3	Zn	1.597612	0.291531	0.465242
Zn4	Zn	2.097612	0.791531	0.965242
Zn5	Zn	1.422967	0.176927	0.448569
Zn6	Zn	1.922967	0.676927	0.948569
Zn7	Zn	1.422925	0.308131	0.579771
Zn8	Zn	1.922925	0.808131	1.079771
O9	O	1.510310	0.234208	0.522526
O10	O	2.010310	0.734208	1.022526
O11	O	1.743968	0.163731	0.593096
O12	O	2.243968	0.663731	1.093096
O13	O	1.574411	0.276363	0.353180
O14	O	2.074411	0.776363	0.853180
O15	O	1.446220	0.064860	0.468228
O16	O	1.946220	0.564860	0.968228
O17	O	1.743877	0.260186	0.496644
O18	O	2.243877	0.760186	0.996644
O19	O	1.574622	0.052604	0.576929
O20	O	2.074622	0.552604	1.076929
O21	O	1.446100	0.192163	0.340930
O22	O	1.946100	0.692163	0.840930
O23	O	1.276713	0.208260	0.451985
O24	O	1.776713	0.708260	0.951985
O25	O	1.446148	0.288480	0.691844
O26	O	1.946148	0.788480	1.191844
O27	O	1.276682	0.304656	0.548379
O28	O	1.776682	0.804656	1.048379
O29	O	1.574581	0.179827	0.704151
O30	O	2.074581	0.679827	1.204151
O31	O	1.574370	0.403587	0.480401
O32	O	2.074370	0.903587	0.980401
O33	O	1.446028	0.415783	0.564546
O34	O	1.946028	0.915783	1.064546
C35	C	1.238777	0.260070	0.496555
C36	C	1.738777	0.760070	0.996555
C37	C	1.122613	0.271153	0.485464
C38	C	1.622613	0.771153	0.985464
C39	C	1.070869	0.228444	0.528315
C40	C	1.570869	0.728444	1.028315
C41	C	0.950808	0.239897	0.516852
C42	C	1.450808	0.739897	1.016852
C43	C	1.510209	0.438166	0.522485
C44	C	2.010209	0.938166	1.022485
C45	C	1.510261	0.525411	0.522503
C46	C	2.010261	1.025411	1.022503
C47	C	1.510373	0.234144	0.727276
C48	C	2.010373	0.734144	1.227276
C49	C	1.510400	0.234117	0.814529
C50	C	2.010400	0.734117	1.314529
C51	C	1.782903	0.208246	0.548598
C52	C	2.282903	0.708246	1.048598
C53	C	1.899067	0.197182	0.559709
C54	C	2.399067	0.697182	1.059709
C55	C	1.510440	0.029452	0.522587
C56	C	2.010440	0.529452	1.022587
C57	C	1.510495	-0.057803	0.522613
C58	C	2.010495	0.442197	1.022613
C59	C	1.577158	0.560017	0.478749
C60	C	2.077158	1.060017	0.978749
C61	C	1.577209	0.641993	0.478774
C62	C	2.077209	1.141993	0.978774
C63	C	1.510358	0.689361	0.522549
C64	C	2.010358	1.189361	1.022549
C65	C	1.443459	0.654748	0.566308
C66	C	1.943459	1.154748	1.066308
C67	C	1.443414	0.572774	0.566287
C68	C	1.943414	1.072774	1.066287
C69	C	1.443556	0.825609	0.566347
C70	C	1.943556	1.325609	1.066347
C71	C	1.443599	0.907590	0.566367
C72	C	1.943599	1.407590	1.066367
C73	C	1.577351	0.894828	0.478834
C74	C	2.077351	1.394828	0.978834
C75	C	1.577305	0.812854	0.478813
C76	C	2.077305	1.312854	0.978813
C77	C	1.510405	0.778247	0.522571
C78	C	2.010405	1.278247	1.022571
C79	C	1.510307	0.234210	0.318578
C80	C	2.010307	0.734210	0.818578
C81	C	1.510483	0.233996	0.231345
C82	C	2.010483	0.733996	0.731345
C83	C	1.577278	0.177538	0.861929
C84	C	2.077278	0.677538	1.361929
C85	C	1.577290	0.177510	0.943910
C86	C	2.077290	0.677510	1.443910
C87	C	1.510430	0.234067	0.978491
C88	C	2.010430	0.734067	1.478491
C89	C	1.443545	0.290649	0.931085
C90	C	1.943545	0.790649	1.431085
C91	C	1.443528	0.290672	0.849104
C92	C	1.943528	0.790672	1.349104
C93	C	1.443587	0.290598	1.101959
C94	C	1.943587	0.790598	1.601959
C95	C	1.443605	0.290576	1.183945
C96	C	1.943605	0.790576	1.683945
C97	C	1.577349	0.177436	1.196765
C98	C	2.077349	0.677436	1.696765
C99	C	1.577332	0.177459	1.114785
C100	C	2.077332	0.677459	1.614785
C101	C	1.510448	0.234043	1.067384
C102	C	2.010448	0.734043	1.567384
H103	H	1.631591	0.521456	0.443099
H104	H	2.131591	1.021456	0.943099
H105	H	0.906228	0.284943	0.471675
H106	H	1.406228	0.784943	0.971675
H107	H	1.389159	0.336628	1.212098
H108	H	1.889159	0.836628	1.712098
H109	H	0.943645	0.152130	0.604881
H110	H	1.443645	0.652130	1.104881
H111	H	1.389081	0.797436	0.601982
H112	H	1.889081	1.297436	1.101982
H113	H	1.078029	0.316196	0.440289
H114	H	1.578029	0.816196	0.940289
C115	C	1.650789	0.680058	0.430641
C116	C	2.150789	1.180058	0.930641
H117	H	1.690586	0.640108	0.404559
H118	H	2.190586	1.140108	0.904559
H119	H	1.696325	0.707649	0.465054
H120	H	2.196325	1.207649	0.965054
H121	H	1.610845	0.715893	0.392600
H122	H	2.110845	1.215893	0.892600
H123	H	1.631727	0.131485	0.833780
H124	H	2.131727	0.631485	1.333780
H125	H	1.631735	0.774287	0.443164
H126	H	2.131735	1.274287	0.943164
H127	H	1.388941	0.544598	0.601916
H128	H	1.888941	1.044598	1.101916
C129	C	1.650927	0.932893	0.430691
C130	C	2.150927	1.432893	0.930691
H131	H	1.641386	0.988498	0.436975
H132	H	2.141386	1.488498	0.936975
H133	H	1.635647	0.920957	0.376480
H134	H	2.135647	1.420957	0.876480
H135	H	1.721140	0.912719	0.448926
H136	H	2.221140	1.412719	0.948926
H137	H	1.389183	0.946153	0.602028
H138	H	1.889183	1.446153	1.102028
H139	H	1.631807	0.131362	1.235363
H140	H	2.131807	0.631362	1.735363
C141	C	1.369926	0.706847	0.614463
C142	C	1.869926	1.206847	1.114463
H143	H	1.330086	0.674492	0.640524
H144	H	1.830086	1.174492	1.140524
H145	H	1.324428	0.743213	0.580065
H146	H	1.824428	1.243213	1.080065
H147	H	1.409904	0.734966	0.652522
H148	H	1.909904	1.234966	1.152522
C149	C	1.650861	0.115276	0.996048
C150	C	2.150861	0.615276	1.496048
H151	H	1.690687	0.081604	0.963712
H152	H	2.190687	0.581604	1.463712
H153	H	1.610917	0.084866	1.024213
H154	H	2.110917	0.584866	1.524213
H155	H	1.696385	0.140967	1.032376
H156	H	2.196385	0.640967	1.532376
C157	C	1.370051	0.352861	1.049823
C158	C	1.870051	0.852861	1.549823
H159	H	1.330251	0.386553	1.082160
H160	H	1.830251	0.886553	1.582160
H161	H	1.324515	0.327205	1.013478
H162	H	1.824515	0.827205	1.513478
H163	H	1.410041	0.383257	1.021677
H164	H	1.910041	0.883257	1.521677
C165	C	1.369989	0.352927	0.796967
C166	C	1.869989	0.852927	1.296967
H167	H	1.330184	0.386616	0.829303
H168	H	1.830184	0.886616	1.329303
H169	H	1.324458	0.327260	0.760628
H170	H	1.824458	0.827260	1.260628
H171	H	1.409966	0.383327	0.768814
H172	H	1.909966	0.883327	1.268814
H173	H	1.389102	0.336696	0.959246
H174	H	1.889102	0.836696	1.459246
H175	H	1.115453	0.183397	0.573484
H176	H	1.615453	0.683397	1.073484
H177	H	1.631782	0.131410	1.086632
H178	H	2.131782	0.631410	1.586632
