data_functionalizedCrystal
_audit_creation_method	'MofGen! by Chris Wilmer'
_symmetry_space_group_name_H-M	'P1'
_symmetry_Int_Tables_number	1
_symmetry_cell_setting	triclinic
loop_
_symmetry_equiv_pos_as_xyz
  x,y,z
_cell_length_a	10.686220
_cell_length_b	12.759399
_cell_length_c	10.685880
_cell_angle_alpha	85.657548
_cell_angle_beta	89.641569
_cell_angle_gamma	85.603075
loop_
_atom_site_label
_atom_site_type_symbol
_atom_site_fract_x
_atom_site_fract_y
_atom_site_fract_z
Zn1	Zn	1.972253	0.327961	-0.562393
Zn2	Zn	1.956035	0.491334	-0.352650
Zn3	Zn	1.746383	0.330102	-0.368715
Zn4	Zn	1.762452	0.518038	-0.578424
O5	O	1.859281	0.416859	-0.465546
O6	O	2.145645	0.337561	-0.521138
O7	O	1.914712	0.459666	-0.179240
O8	O	1.776408	0.182794	-0.394422
O9	O	2.133729	0.457590	-0.367041
O10	O	1.942354	0.181221	-0.536715
O11	O	1.760681	0.341210	-0.191043
O12	O	1.572972	0.367104	-0.409966
O13	O	1.803795	0.503104	-0.751839
O14	O	1.584778	0.505180	-0.564038
O15	O	1.957935	0.363455	-0.740061
O16	O	1.930293	0.641900	-0.382585
O17	O	1.788069	0.661520	-0.548460
C18	C	1.533358	0.439273	-0.490486
C19	C	1.393930	0.448889	-0.501185
C20	C	1.859201	0.689831	-0.465544
C21	C	1.859285	0.806604	-0.465576
C22	C	1.933436	0.851215	-0.379291
C23	C	1.933515	0.960936	-0.379331
C24	C	1.785280	0.981428	-0.551946
C25	C	1.785209	0.871709	-0.551911
C26	C	2.007512	0.786111	-0.292956
C27	C	2.081668	0.830720	-0.206662
C28	C	2.081747	0.940442	-0.206703
C29	C	2.007669	1.005554	-0.293036
C30	C	2.186476	0.394358	-0.440509
C31	C	2.325907	0.384769	-0.429840
C32	C	1.884467	0.436019	-0.792739
C33	C	1.895200	0.444185	-0.932169
C34	C	1.859394	1.142821	-0.465589
C35	C	1.859434	1.026046	-0.465652
C36	C	1.834265	0.397692	-0.139620
C37	C	1.823775	0.389214	-0.000172
H38	H	1.374336	0.322517	-0.360572
H39	H	2.007750	1.094896	-0.293071
H40	H	2.142138	0.976760	-0.136447
Cl41	Cl	1.319157	0.545020	-0.608124
H42	H	1.724830	0.835387	-0.622174
Cl43	Cl	2.002299	0.526504	-1.006969
H44	H	1.754405	0.335908	-0.951725
H45	H	2.007452	0.696769	-0.292910
Cl46	Cl	2.174801	0.748869	-0.098146
H47	H	1.724968	1.034451	-0.622234
