data_functionalizedCrystal
_audit_creation_method	'MofGen! by Chris Wilmer'
_symmetry_space_group_name_H-M	'P1'
_symmetry_Int_Tables_number	1
_symmetry_cell_setting	triclinic
loop_
_symmetry_equiv_pos_as_xyz
  x,y,z
_cell_length_a	14.519709
_cell_length_b	14.971486
_cell_length_c	14.048226
_cell_angle_alpha	90.006640
_cell_angle_beta	89.999158
_cell_angle_gamma	96.352863
loop_
_atom_site_label
_atom_site_type_symbol
_atom_site_fract_x
_atom_site_fract_y
_atom_site_fract_z
O1	O	1.223800	-0.117253	-0.079037
O2	O	0.955315	-0.131060	-0.079066
O3	O	1.096753	0.006039	-0.079044
O4	O	1.082361	-0.254353	-0.079059
O5	O	1.096736	0.006048	0.079277
O6	O	0.955298	-0.131052	0.079255
O7	O	1.223783	-0.117245	0.079284
Zn8	Zn	1.089538	-0.124147	0.104407
Zn9	Zn	1.089560	-0.124158	-0.104189
O10	O	1.082344	-0.254344	0.079262
C11	C	0.920947	-0.130413	0.000091
C12	C	0.818567	-0.128485	0.000080
N13	N	1.089529	-0.124139	0.246767
C14	C	1.096101	0.039369	0.000116
C15	C	1.094172	0.138667	0.000115
C16	C	0.443675	-0.121386	0.000123
C17	C	0.547982	-0.123357	0.000111
C18	C	0.631118	-0.124935	0.000101
C19	C	0.735431	-0.126907	0.000090
C20	C	1.258151	-0.117892	0.000125
C21	C	1.360531	-0.119820	0.000130
C22	C	1.082996	-0.287674	0.000100
C23	C	1.084925	-0.386972	0.000094
C24	C	1.177264	0.195845	0.000125
C25	C	1.175446	0.289146	0.000115
C26	C	1.090536	0.325266	0.000102
C27	C	1.007438	0.268080	0.000090
C28	C	1.009257	0.174781	0.000093
C29	C	1.003653	0.462545	0.000086
C30	C	1.001834	0.555850	0.000085
C31	C	1.169842	0.576909	0.000108
C32	C	1.171661	0.483610	0.000111
C33	C	1.088563	0.426431	0.000100
N34	N	1.089576	-0.124159	-0.246549
C35	C	1.152178	-0.063457	0.296595
C36	C	1.152184	-0.063456	0.396253
C37	C	1.089545	-0.124143	0.446081
C38	C	1.026890	-0.184829	0.396246
C39	C	1.026880	-0.184824	0.296590
C40	C	1.026916	-0.184835	0.603960
C41	C	1.026927	-0.184841	0.703623
C42	C	1.152220	-0.063467	0.703623
C43	C	1.152211	-0.063463	0.603967
C44	C	1.089556	-0.124150	0.554139
H45	H	1.246407	0.166444	0.000141
H46	H	0.975864	-0.234237	0.256021
H47	H	1.203220	-0.014051	0.563397
H48	H	0.975919	-0.234258	0.744188
O49	O	1.213209	-0.004604	0.751980
C50	C	1.304507	-0.019337	0.727599
H51	H	1.305022	-0.090952	0.700190
H52	H	1.331543	0.030183	0.669760
C53	C	1.366388	0.082373	0.849787
C54	C	1.367021	-0.005588	0.816130
H55	H	1.404951	0.090858	0.904395
H56	H	1.304879	0.092302	0.866212
H57	H	1.388915	0.123630	0.801580
H58	H	1.344483	-0.046843	0.864333
H59	H	1.428528	-0.015524	0.799716
O60	O	0.966003	-0.243657	0.444753
C61	C	0.909055	-0.195631	0.502399
H62	H	0.945714	-0.125719	0.517334
H63	H	0.840888	-0.189404	0.464005
C64	C	0.844387	-0.331891	0.578712
C65	C	0.889415	-0.246025	0.597063
H66	H	0.832268	-0.362977	0.637104
H67	H	0.882751	-0.364247	0.539873
H68	H	0.787586	-0.326689	0.546715
H69	H	0.946220	-0.251228	0.629048
H70	H	0.851060	-0.213670	0.635910
H71	H	1.240802	0.454205	0.000128
H72	H	0.938303	0.297496	0.000073
H73	H	0.975893	-0.234250	0.563394
O74	O	1.256247	0.344561	0.000173
C75	C	1.331580	0.292674	0.000170
H76	H	1.308241	0.223084	0.030141
H77	H	1.357618	0.285980	-0.075779
C78	C	1.438886	0.424515	0.025463
C79	C	1.410223	0.339046	0.062281
H80	H	1.487399	0.453121	0.063772
H81	H	1.388133	0.459474	0.025461
H82	H	1.460578	0.418925	-0.037827
H83	H	1.388520	0.344638	0.125565
H84	H	1.460974	0.304089	0.062295
H85	H	1.237504	0.623470	0.000114
O86	O	1.212954	-0.004554	0.248049
C87	C	1.199480	-0.017525	0.149404
H88	H	1.165141	-0.088581	0.135768
H89	H	1.153116	0.033172	0.121175
C90	C	1.335954	0.083080	0.114951
C91	C	1.293785	-0.004195	0.098202
H92	H	1.394125	0.091307	0.083366
H93	H	1.345031	0.091822	0.181409
H94	H	1.297308	0.125317	0.091426
H95	H	1.332426	-0.046430	0.121737
H96	H	1.284717	-0.012943	0.031746
H97	H	0.935985	0.415991	0.000075
O98	O	0.919273	0.590790	0.000015
C99	C	0.846318	0.520318	0.000017
H100	H	0.872245	0.456893	-0.029943
H101	H	0.820656	0.507169	0.075963
C102	C	0.734425	0.624679	-0.025304
C103	C	0.766267	0.546781	-0.062109
H104	H	0.685043	0.641003	-0.063623
H105	H	0.783575	0.672158	-0.025302
H106	H	0.713046	0.613711	0.037984
H107	H	0.787655	0.557753	-0.125391
H108	H	0.717118	0.499304	-0.062124
O109	O	1.213140	-0.004485	0.444508
C110	C	1.268417	0.049086	0.379159
H111	H	1.269477	0.012414	0.308112
H112	H	1.238421	0.115607	0.368580
C113	C	1.366587	0.112321	0.505297
C114	C	1.367895	0.067277	0.418039
H115	H	1.427949	0.123546	0.529281
H116	H	1.329344	0.076232	0.549325
H117	H	1.341586	0.167751	0.496470
H118	H	1.392885	0.011844	0.426870
H119	H	1.405144	0.103357	0.374014
O120	O	0.928456	0.119363	0.000126
C121	C	0.853121	0.171247	0.000089
H122	H	0.876445	0.240844	0.030069
H123	H	0.827112	0.177925	-0.075870
C124	C	0.745809	0.039408	0.025341
C125	C	0.774454	0.124885	0.062169
H126	H	0.697281	0.010808	0.063630
H127	H	0.796563	0.004451	0.025361
H128	H	0.724141	0.044985	-0.037958
H129	H	0.796132	0.119306	0.125462
H130	H	0.723702	0.159840	0.062161
