data_functionalizedCrystal
_audit_creation_method	'MofGen! by Chris Wilmer'
_symmetry_space_group_name_H-M	'P1'
_symmetry_Int_Tables_number	1
_symmetry_cell_setting	triclinic
loop_
_symmetry_equiv_pos_as_xyz
  x,y,z
_cell_length_a	10.654543
_cell_length_b	22.610064
_cell_length_c	10.654549
_cell_angle_alpha	90.005102
_cell_angle_beta	84.483475
_cell_angle_gamma	89.996356
loop_
_atom_site_label
_atom_site_type_symbol
_atom_site_fract_x
_atom_site_fract_y
_atom_site_fract_z
O1	O	-1.667854	0.049120	-0.176342
O2	O	-1.302375	0.049135	-0.193157
O3	O	-1.493518	0.049124	-0.002010
O4	O	-1.476711	0.049130	-0.367489
O5	O	-1.493484	-0.049245	-0.002038
O6	O	-1.302341	-0.049235	-0.193185
O7	O	-1.667821	-0.049250	-0.176370
Zn8	Zn	-1.485075	-0.064860	-0.184781
Zn9	Zn	-1.485120	0.064745	-0.184745
O10	O	-1.476678	-0.049239	-0.367517
C11	C	-1.255560	-0.000048	-0.191938
C12	C	-1.116116	-0.000042	-0.188249
C13	C	-1.036630	-0.000041	-0.300793
C14	C	-0.905609	-0.000050	-0.297319
C15	C	-0.933573	-0.000058	-0.068749
C16	C	-1.064591	-0.000054	-0.072224
N17	N	-1.485054	-0.153313	-0.184806
C18	C	-1.569762	-0.561959	-0.100118
C19	C	-1.569768	-0.623879	-0.100109
O20	O	-1.641737	-0.655901	-0.028123
N21	N	-1.485119	-0.654850	-0.184719
C22	C	-1.400449	-0.623898	-0.269334
O23	O	-1.328447	-0.655927	-0.341300
C24	C	-1.400437	-0.561979	-0.269336
C25	C	-1.485101	-0.531011	-0.184730
C26	C	-1.654418	-0.530991	-0.015517
C27	C	-1.654413	-0.469075	-0.015528
C28	C	-1.569752	-0.438127	-0.100140
C29	C	-1.485096	-0.469096	-0.184741
C30	C	-1.315762	-0.531029	-0.353945
C31	C	-1.315757	-0.469106	-0.353939
C32	C	-1.400421	-0.438138	-0.269332
C33	C	-1.400430	-0.376232	-0.269363
N34	N	-1.485080	-0.345261	-0.184754
C35	C	-1.569741	-0.376209	-0.100142
C36	C	-1.400478	-0.753932	-0.269322
C37	C	-1.400494	-0.815849	-0.269327
C38	C	-1.569813	-0.815826	-0.100100
C39	C	-1.569801	-0.753907	-0.100102
C40	C	-1.485127	-0.722960	-0.184713
C41	C	-1.569724	-0.246181	-0.100172
C42	C	-1.569715	-0.184260	-0.100194
C43	C	-1.400393	-0.184289	-0.269416
C44	C	-1.400406	-0.246205	-0.269399
C45	C	-1.485076	-0.277150	-0.184767
O46	O	-1.328495	-0.344171	-0.341310
O47	O	-1.641719	-0.344172	-0.028177
C48	C	-0.714635	-0.000063	-0.177595
C49	C	-0.854076	-0.000056	-0.181301
C50	C	-1.492267	-0.000060	0.044774
C51	C	-1.488575	-0.000058	0.184217
N52	N	-1.485151	0.153198	-0.184711
C53	C	-1.477928	-0.000054	-0.414301
C54	C	-1.481620	-0.000052	-0.553744
C55	C	-1.597639	-0.000058	0.394735
C56	C	-1.601117	-0.000063	0.263714
C57	C	-1.372547	-0.000054	0.235747
C58	C	-1.369070	-0.000053	0.366765
H59	H	-1.638663	-0.159048	-0.031297
H60	H	-1.695591	-0.000069	0.221773
H61	H	-1.331466	-0.159082	-0.338310
N62	N	-0.880937	-0.000076	0.049761
N63	N	-0.810947	-0.041545	0.077186
H64	H	-0.773775	-0.041558	0.160887
H65	H	-1.689285	-0.000057	0.459453
H66	H	-1.129313	-0.000056	0.019428
H67	H	-1.331566	-0.841059	-0.338235
H68	H	-1.078577	-0.000037	-0.395268
H69	H	-1.331477	-0.271420	-0.338306
H70	H	-1.280914	-0.000053	0.171010
H71	H	-1.638669	-0.271369	-0.031255
H72	H	-1.274588	-0.000051	0.408713
H73	H	-1.723350	-0.443864	0.053369
N74	N	-0.824435	-0.000054	-0.412292
N75	N	-0.870461	-0.000047	-0.515871
H76	H	-0.813133	-0.000051	-0.597077
H77	H	-1.723359	-0.556183	0.053389
H78	H	-1.331529	-0.728738	-0.338233
H79	H	-1.638747	-0.841034	-0.031203
N80	N	-1.656226	-0.722286	-0.013606
N81	N	-1.731766	-0.749932	0.061969
H82	H	-1.792782	-0.727603	0.123088
H83	H	-1.246821	-0.556234	-0.422838
H84	H	-1.246801	-0.443912	-0.422838
