data_functionalizedCrystal
_audit_creation_method	'MofGen! by Chris Wilmer'
_symmetry_space_group_name_H-M	'P1'
_symmetry_Int_Tables_number	1
_symmetry_cell_setting	triclinic
loop_
_symmetry_equiv_pos_as_xyz
  x,y,z
_cell_length_a	21.395362
_cell_length_b	19.076808
_cell_length_c	21.395356
_cell_angle_alpha	87.675140
_cell_angle_beta	89.964230
_cell_angle_gamma	92.338508
loop_
_atom_site_label
_atom_site_type_symbol
_atom_site_fract_x
_atom_site_fract_y
_atom_site_fract_z
Zn1	Zn	0.947820	-0.279953	-0.344565
Zn2	Zn	0.943538	-0.397655	-0.235575
Zn3	Zn	0.843048	-0.280000	-0.239765
Zn4	Zn	0.838805	-0.397655	-0.340279
O5	O	0.893303	-0.338816	-0.290046
O6	O	1.034931	-0.295547	-0.330147
O7	O	0.930192	-0.382067	-0.148452
O8	O	0.860515	-0.181497	-0.257214
O9	O	1.031785	-0.382022	-0.250072
O10	O	0.937490	-0.181462	-0.334210
O11	O	0.856362	-0.295627	-0.151530
O12	O	0.754807	-0.295627	-0.253058
O13	O	0.853282	-0.382021	-0.428526
O14	O	0.751689	-0.382067	-0.326906
O15	O	0.933375	-0.295547	-0.431675
O16	O	0.926077	-0.496152	-0.245917
O17	O	0.849130	-0.496152	-0.322843
C18	C	0.730514	-0.338853	-0.289972
C19	C	0.660871	-0.338886	-0.289954
C20	C	0.626549	-0.383955	-0.328345
C21	C	0.561114	-0.383938	-0.328373
C22	C	0.530004	-0.338859	-0.290000
C23	C	0.564335	-0.293781	-0.251607
C24	C	0.629768	-0.293794	-0.251584
C25	C	0.426489	-0.333196	-0.233798
C26	C	0.361057	-0.333188	-0.233819
C27	C	0.328185	-0.338813	-0.290071
C28	C	0.360753	-0.344461	-0.346302
C29	C	0.426187	-0.344475	-0.346280
C30	C	0.459052	-0.338839	-0.290021
C31	C	0.222911	-0.383865	-0.328495
C32	C	0.157475	-0.383843	-0.328525
C33	C	0.160696	-0.293690	-0.251753
C34	C	0.226131	-0.293709	-0.251729
C35	C	0.257234	-0.338800	-0.290099
C36	C	0.886695	-0.521691	-0.283474
C37	C	0.883926	-0.599926	-0.280683
C38	C	0.922671	-0.636603	-0.319492
C39	C	0.920067	-0.710113	-0.316871
C40	C	0.878719	-0.746945	-0.275437
C41	C	0.839969	-0.710263	-0.236627
C42	C	0.842571	-0.636755	-0.239251
C43	C	0.866639	-0.966801	-0.263289
C44	C	0.864042	-1.040315	-0.260666
C45	C	0.944139	-1.040159	-0.340912
C46	C	0.946740	-0.966649	-0.343530
C47	C	0.907988	-0.929974	-0.304721
N48	N	0.876057	-0.822084	-0.272756
N49	N	0.910647	-0.854836	-0.307406
C50	C	1.056727	-0.338779	-0.290121
C51	C	1.126369	-0.338763	-0.290152
C52	C	0.893333	-0.338779	-0.453471
C53	C	0.893346	-0.338763	-0.523112
C54	C	0.899953	-0.155226	-0.296657
C55	C	0.902788	-0.076991	-0.299475
C56	C	0.931864	-0.383625	-1.023312
C57	C	0.931852	-0.383647	-0.957875
C58	C	0.893409	-0.338651	-0.926755
C59	C	0.854964	-0.293643	-0.961076
C60	C	0.854973	-0.293627	-1.026510
C61	C	0.890746	-0.275263	-0.825367
C62	C	0.890741	-0.275278	-0.759933
C63	C	0.893379	-0.338701	-0.724932
C64	C	0.896035	-0.402112	-0.755373
C65	C	0.896043	-0.402096	-0.820807
C66	C	0.893396	-0.338664	-0.855802
C67	C	0.931806	-0.383735	-0.619666
C68	C	0.931790	-0.383758	-0.554228
C69	C	0.854905	-0.293748	-0.557430
C70	C	0.854918	-0.293730	-0.622866
C71	C	0.893372	-0.338723	-0.653980
C72	C	0.893311	-0.338802	-0.127259
C73	C	0.893426	-0.338619	-0.057624
H74	H	0.254077	-0.257012	-0.220464
H75	H	0.888583	-0.223645	-0.735154
H76	H	0.823603	-0.257113	-0.532092
H77	H	0.963116	-0.420372	-0.645000
H78	H	0.823663	-0.257008	-0.935733
H79	H	0.657713	-0.257092	-0.220322
H80	H	0.452702	-0.349072	-0.392065
H81	H	0.129531	-0.420543	-0.359791
H82	H	0.975688	-1.070027	-0.372508
H83	H	0.963162	-0.420288	-0.929933
H84	H	0.135367	-0.256983	-0.220512
H85	H	0.823620	-0.257079	-0.650804
H86	H	0.898203	-0.453727	-0.845589
H87	H	0.334544	-0.328593	-0.188032
H88	H	0.539000	-0.257076	-0.220365
H89	H	0.888639	-0.223608	-0.853860
H90	H	0.898184	-0.453758	-0.726876
H91	H	0.453248	-0.328613	-0.187988
H92	H	0.956344	-0.606618	-0.353229
H93	H	0.823671	-0.256976	-1.054448
H94	H	0.951622	-0.739971	-0.348469
H95	H	0.248236	-0.420578	-0.359742
H96	H	0.980409	-0.936661	-0.377268
H97	H	0.830368	-1.070302	-0.226925
H98	H	0.835087	-0.936946	-0.231688
H99	H	0.651869	-0.420671	-0.359590
H100	H	0.533164	-0.420638	-0.359638
H101	H	0.333991	-0.349041	-0.392108
H102	H	0.806300	-0.740258	-0.202893
H103	H	0.811019	-0.606894	-0.207649
H104	H	0.963087	-0.420414	-0.526292
H105	H	0.963175	-0.420263	-1.048641
