data_functionalizedCrystal
_audit_creation_method	'MofGen! by Chris Wilmer'
_symmetry_space_group_name_H-M	'P1'
_symmetry_Int_Tables_number	1
_symmetry_cell_setting	triclinic
loop_
_symmetry_equiv_pos_as_xyz
  x,y,z
_cell_length_a	17.052863
_cell_length_b	14.560438
_cell_length_c	14.560438
_cell_angle_alpha	60.000905
_cell_angle_beta	90.000840
_cell_angle_gamma	70.264330
loop_
_atom_site_label
_atom_site_type_symbol
_atom_site_fract_x
_atom_site_fract_y
_atom_site_fract_z
Zr1	Zr	0.669833	1.241907	-0.238822
O2	O	0.558806	1.394288	-0.365856
O3	O	0.703868	1.062329	-0.199882
O4	O	0.703864	1.253931	-0.391482
O5	O	0.558813	1.202684	-0.023116
O6	O	0.818289	1.294354	-0.411693
O7	O	0.558810	1.202685	-0.174256
O8	O	0.818295	0.951611	-0.068956
O9	O	0.558807	1.545426	-0.365854
O10	O	0.803778	1.176431	-0.198355
O11	O	0.718386	1.146263	-0.070477
O12	O	0.718382	1.371851	-0.296062
O13	O	0.632990	1.341683	-0.168184
Zr14	Zr	0.852331	1.306373	-0.030006
Zr15	Zr	0.852327	1.306376	-0.271057
Zr16	Zr	0.669837	1.241904	0.002229
Zr17	Zr	0.669833	1.482954	-0.238818
Zr18	Zr	0.852331	1.065325	-0.030010
O19	O	0.818296	1.485951	-0.068946
O20	O	0.818289	1.485955	-0.411690
O21	O	0.558813	1.394284	-0.023112
O22	O	0.963357	1.153992	0.097028
O23	O	0.963351	1.153995	-0.245716
O24	O	0.703874	1.062325	0.142862
O25	O	0.963351	1.345596	-0.245712
O26	O	0.818299	1.294348	0.122654
O27	O	0.703875	1.253926	0.142865
O28	O	0.963354	1.345595	-0.094572
O29	O	0.703865	1.596670	-0.391476
O30	O	0.818299	0.951610	0.122648
O31	O	0.963357	1.002854	0.097026
O32	O	0.963353	1.002856	-0.094578
O33	O	0.558810	1.545424	-0.174250
O34	O	0.703869	1.596668	-0.199872
O35	O	0.803782	1.176429	0.027234
O36	O	0.889173	1.206597	-0.100644
O37	O	0.803778	1.402016	-0.198351
O38	O	0.718386	1.371849	-0.070473
C39	C	0.761081	0.972626	-0.134420
C40	C	0.761081	0.870295	-0.134421
C41	C	0.532810	1.193499	-0.094093
C42	C	0.455336	1.166130	-0.080409
C43	C	0.805653	0.837965	-0.201172
C44	C	0.805656	0.741807	-0.201162
C45	C	0.716509	0.710318	-0.067648
C46	C	0.716511	0.806470	-0.067653
C47	C	0.463519	1.051260	-0.022981
C48	C	0.390731	1.025542	-0.010120
C49	C	0.309752	1.114691	-0.054694
C50	C	0.301568	1.229564	-0.112130
C51	C	0.374363	1.255284	-0.124985
C52	C	0.220596	1.318716	-0.156698
C53	C	0.212412	1.433588	-0.214134
C54	C	0.285201	1.459304	-0.226987
C55	C	0.366180	1.370155	-0.182413
C56	C	0.147800	1.292995	-0.143843
C57	C	0.058644	1.497020	-0.245847
C58	C	0.131433	1.522738	-0.258708
C59	C	0.989354	1.354781	-0.174735
C60	C	1.066828	1.382150	-0.188419
C61	C	0.761076	1.274143	-0.435932
C62	C	0.761074	1.274144	-0.538265
C63	C	0.761082	1.575654	-0.134408
C64	C	0.761082	1.677985	-0.134407
C65	C	0.716499	1.376149	-0.637343
C66	C	0.716509	1.376146	-0.733494
C67	C	0.805670	1.172123	-0.631474
C68	C	0.805664	1.172129	-0.535327
C69	C	0.761088	1.274137	0.167104
C70	C	0.761090	1.274136	0.269437
C71	C	0.989354	1.053267	-0.174740
C72	C	1.066827	0.978305	-0.188427
C73	C	0.761087	0.972623	0.167099
C74	C	0.761089	0.870291	0.269430
C75	C	0.989359	1.053264	0.126778
C76	C	1.066835	0.978301	0.215425
C77	C	0.532804	1.495016	-0.395606
C78	C	0.455329	1.569979	-0.484253
C79	C	0.532810	1.495013	-0.094088
C80	C	0.455337	1.569975	-0.080401
C81	C	0.761077	1.575657	-0.435927
C82	C	0.761075	1.677989	-0.538258
C83	C	1.058633	0.927355	-0.245868
C84	C	1.131421	0.856931	-0.258749
C85	C	1.212401	0.837451	-0.214181
C86	C	1.220593	0.888409	-0.156738
C87	C	1.147806	0.958839	-0.143864
C88	C	1.147799	0.958847	0.190302
C89	C	1.220602	0.888427	0.273584
C90	C	1.212439	0.837455	0.381988
C91	C	1.131466	0.856915	0.407110
C92	C	1.058665	0.927340	0.323829
C93	C	0.374365	1.589444	-0.459130
C94	C	0.301561	1.659894	-0.542412
C95	C	0.309724	1.710871	-0.650816
C96	C	0.390697	1.691405	-0.675938
C97	C	0.463499	1.620963	-0.592657
C98	C	0.463530	1.620934	-0.022970
C99	C	0.390743	1.691385	-0.010116
C100	C	0.309763	1.710868	-0.054687
C101	C	0.301571	1.659906	-0.112126
C102	C	0.374358	1.589463	-0.124986
C103	C	0.805665	0.837959	0.368509
C104	C	0.805657	0.741813	0.464657
C105	C	0.716496	0.710334	0.362633
C106	C	0.716500	0.806484	0.266488
H107	H	0.841952	0.715488	-0.255515
O108	O	0.853750	0.906788	0.371674
H109	H	0.884739	0.868154	0.456728
H110	H	0.680196	0.832809	0.185809
H111	H	0.124781	1.616268	-0.305472
O112	O	0.231263	1.786846	-0.040804
H113	H	0.173571	1.791844	-0.081449
O114	O	0.231240	1.086962	-0.040845
H115	H	0.250534	0.992108	0.006570
H116	H	0.529422	1.605116	-0.613126
H117	H	0.278532	1.552841	-0.273752
O118	O	0.365552	1.534468	-0.342211
H119	H	0.330220	1.602698	-0.326185
O120	O	0.444693	1.397889	-0.196285
H121	H	0.425401	1.492742	-0.243713
H122	H	0.841973	1.089066	-0.629096
H123	H	1.124833	0.815404	0.495384
H124	H	0.992743	0.943167	0.344300
H125	H	0.235627	1.675780	-0.148412
H126	H	0.841946	0.889929	-0.255537
H127	H	-0.007292	1.569613	-0.282145
O128	O	0.399498	1.746381	-0.792862
H129	H	0.335267	1.798619	-0.846541
H130	H	0.680213	1.459210	-0.814164
O131	O	0.668408	1.486175	-0.640509
H132	H	0.713403	1.507708	-0.607457
H133	H	0.841954	0.715495	0.545329
O134	O	0.399553	0.901655	0.051807
H135	H	0.468089	0.843984	0.080629
O136	O	0.853739	1.062103	-0.428450
H137	H	0.884735	0.991161	-0.442556
O138	O	0.971295	0.948370	-0.293954
H139	H	0.977840	0.901116	-0.336071
O140	O	0.214232	1.680859	-0.515305
H141	H	0.220794	1.633551	-0.425933
H142	H	1.124734	0.815447	-0.305523
O143	O	1.156648	1.013771	-0.081888
H144	H	1.225188	0.988374	-0.053053
H145	H	1.271662	0.780100	-0.224671
H146	H	0.529462	1.605077	0.013335
H147	H	1.286537	0.872538	-0.120455
H148	H	0.250438	1.768227	-0.718619
O149	O	1.156614	1.013833	0.073383
H150	H	1.225150	0.988479	0.069923
O151	O	1.307932	0.867431	0.246477
H152	H	1.301369	0.914690	0.157105
O153	O	1.290964	0.761482	0.471810
H154	H	1.348632	0.756513	0.436118
H155	H	0.397429	1.732869	0.036660
O156	O	0.365517	1.534494	-0.186925
H157	H	0.330169	1.478208	-0.146642
H158	H	0.680194	0.658370	0.360252
H159	H	0.680221	0.658341	-0.013289
O160	O	0.156631	1.169104	-0.081914
H161	H	0.191986	1.125114	0.002333
H162	H	0.529455	0.978687	0.013312
O163	O	0.668432	0.841353	0.004341
H164	H	0.637428	0.780831	0.050756
