data_functionalizedCrystal
_audit_creation_method	'MofGen! by Chris Wilmer'
_symmetry_space_group_name_H-M	'P1'
_symmetry_Int_Tables_number	1
_symmetry_cell_setting	triclinic
loop_
_symmetry_equiv_pos_as_xyz
  x,y,z
_cell_length_a	14.044220
_cell_length_b	17.699083
_cell_length_c	16.776229
_cell_angle_alpha	89.992455
_cell_angle_beta	89.997978
_cell_angle_gamma	88.235946
loop_
_atom_site_label
_atom_site_type_symbol
_atom_site_fract_x
_atom_site_fract_y
_atom_site_fract_z
O1	O	1.257290	0.182444	-0.066207
O2	O	1.757290	0.682444	0.433793
O3	O	0.981336	0.175860	-0.066227
O4	O	1.481336	0.675860	0.433773
O5	O	1.127109	0.069500	-0.066209
O6	O	1.627109	0.569500	0.433791
O7	O	1.111516	0.288803	-0.066224
O8	O	1.611516	0.788803	0.433776
O9	O	1.127090	0.069492	0.066367
O10	O	1.627090	0.569492	0.566367
O11	O	0.981317	0.175852	0.066350
O12	O	1.481317	0.675852	0.566350
O13	O	1.257271	0.182435	0.066370
O14	O	1.757271	0.682435	0.566370
Zn15	Zn	1.119290	0.179142	0.087409
Zn16	Zn	1.619290	0.679142	0.587409
Zn17	Zn	1.119316	0.179153	-0.087266
Zn18	Zn	1.619316	0.679153	0.412734
O19	O	1.111497	0.288795	0.066352
O20	O	1.611497	0.788795	0.566352
C21	C	1.126541	0.041261	0.000079
C22	C	1.626541	0.541261	0.500079
C23	C	1.124865	-0.042873	0.000079
C24	C	1.624865	0.457127	0.500079
C25	C	0.946018	0.172974	0.000059
C26	C	1.446018	0.672974	0.500059
C27	C	0.840812	0.164378	0.000052
C28	C	1.340812	0.664378	0.500052
C29	C	1.210431	-0.085591	0.000087
C30	C	1.710431	0.414409	0.500087
C31	C	1.208850	-0.164644	0.000080
C32	C	1.708850	0.335356	0.500080
C33	C	1.121702	-0.200976	0.000071
C34	C	1.621702	0.299024	0.500071
C35	C	1.036130	-0.158252	0.000061
C36	C	1.536130	0.341748	0.500061
C37	C	1.037712	-0.079201	0.000063
C38	C	1.537712	0.420799	0.500063
C39	C	1.029750	-0.477055	0.000054
C40	C	1.529750	0.022945	0.500054
C41	C	1.028175	-0.556112	0.000055
C42	C	1.528175	-0.056112	0.500055
C43	C	1.200888	-0.562498	0.000071
C44	C	1.700888	-0.062498	0.500071
C45	C	1.202470	-0.483447	0.000073
C46	C	1.702470	0.016553	0.500073
C47	C	1.116898	-0.440730	0.000059
C48	C	1.616898	0.059270	0.500059
C49	C	1.118613	-0.355012	0.000065
C50	C	1.618613	0.144988	0.500065
C51	C	1.119987	-0.286692	0.000070
C52	C	1.619987	0.213308	0.500070
C53	C	0.648187	0.148663	0.000069
C54	C	1.148187	0.648663	0.500069
C55	C	0.590414	0.209629	0.000068
C56	C	1.090414	0.709629	0.500068
C57	C	0.483230	0.200885	0.000077
C58	C	0.983230	0.700885	0.500077
C59	C	0.755381	0.157406	0.000059
C60	C	1.255381	0.657406	0.500059
C61	C	1.292588	0.185321	0.000082
C62	C	1.792588	0.685321	0.500082
C63	C	1.397794	0.193917	0.000085
C64	C	1.897794	0.693917	0.500085
C65	C	1.112066	0.317035	0.000062
C66	C	1.612066	0.817035	0.500062
C67	C	1.113742	0.401168	0.000057
C68	C	1.613742	0.901168	0.500057
N69	N	1.119280	0.179134	0.206620
N70	N	1.619280	0.679134	0.706620
N71	N	1.119334	0.179155	-0.206477
N72	N	1.619334	0.679155	0.293523
C73	C	1.183848	0.132061	0.248345
C74	C	1.683848	0.632061	0.748345
C75	C	1.183853	0.132061	0.331798
C76	C	1.683853	0.632061	0.831798
C77	C	1.119294	0.179138	0.373523
C78	C	1.619294	0.679138	0.873523
C79	C	1.054719	0.226214	0.331793
C80	C	1.554719	0.726214	0.831793
C81	C	1.054710	0.226210	0.248342
C82	C	1.554710	0.726210	0.748342
C83	C	1.054754	0.226231	0.668340
C84	C	1.554754	0.726231	1.168340
C85	C	1.054770	0.226233	0.751796
C86	C	1.554770	0.726233	1.251796
C87	C	1.183897	0.132082	0.751795
C88	C	1.683897	0.632082	1.251795
C89	C	1.183888	0.132078	0.668345
C90	C	1.683888	0.632078	1.168345
C91	C	1.119310	0.179150	0.626621
C92	C	1.619310	0.679150	1.126621
C93	C	1.119304	0.179149	0.536133
C94	C	1.619304	0.679149	1.036133
C95	C	1.119304	0.179144	0.464010
C96	C	1.619304	0.679144	0.964010
H97	H	1.278527	-0.199422	0.000087
H98	H	1.778527	0.300578	0.500087
H99	H	1.273434	-0.453869	0.000084
H100	H	1.773434	0.046131	0.500084
N101	N	0.937457	-0.430989	0.000044
N102	N	1.437457	0.069011	0.500044
H103	H	0.934268	-0.398047	-0.049105
H104	H	1.434268	0.101953	0.450895
H105	H	0.882069	-0.466055	0.000070
H106	H	1.382069	0.033945	0.500070
N107	N	0.985122	0.277003	0.796801
N108	N	1.485122	0.777003	1.296801
H109	H	0.994931	0.269863	0.855997
H110	H	1.494931	0.769863	1.355997
H111	H	0.995929	0.331434	0.782204
H112	H	1.495929	0.831434	1.282204
H113	H	1.270565	-0.597288	0.000079
H114	H	1.770565	-0.097288	0.500079
H115	H	0.957205	-0.585691	0.000050
H116	H	1.457205	-0.085691	0.500050
H117	H	0.965173	-0.187840	0.000049
H118	H	1.465173	0.312160	0.500049
H119	H	0.968035	-0.044420	0.000056
H120	H	1.468035	0.455580	0.500056
N121	N	0.985094	0.276996	0.376795
N122	N	1.485094	0.776996	0.876795
H123	H	0.944188	0.306816	0.337697
H124	H	1.444188	0.806816	0.837697
H125	H	0.943271	0.245180	0.411433
H126	H	1.443271	0.745180	0.911433
H127	H	0.617153	0.089906	0.000077
H128	H	1.117153	0.589906	0.500077
H129	H	0.621449	0.268391	0.000060
H130	H	1.121449	0.768391	0.500060
N131	N	0.985101	0.276995	0.623344
N132	N	1.485101	0.776995	1.123344
H133	H	0.944207	0.306818	0.662442
H134	H	1.444207	0.806818	1.162442
H135	H	1.021288	0.312918	0.588704
H136	H	1.521288	0.812918	1.088704
H137	H	1.236423	0.093728	0.214378
H138	H	1.736423	0.593728	0.714378
H139	H	1.236429	0.093729	0.365770
H140	H	1.736429	0.593729	0.865770
N141	N	1.253522	0.081305	0.623340
N142	N	1.753522	0.581305	1.123340
H143	H	1.294427	0.051482	0.662437
H144	H	1.794427	0.551482	1.162437
H145	H	1.217315	0.045383	0.588727
H146	H	1.717315	0.545383	1.088727
N147	N	1.253550	0.081308	0.796797
N148	N	1.753550	0.581308	1.296797
H149	H	1.243762	0.088449	0.855994
H150	H	1.743762	0.588449	1.355994
H151	H	1.242734	0.026878	0.782219
H152	H	1.742734	0.526878	1.282219
N153	N	0.985065	0.276977	0.203334
N154	N	1.485065	0.776977	0.703334
H155	H	0.944168	0.306802	0.242429
H156	H	1.444168	0.806802	0.742429
H157	H	1.021258	0.312898	0.168696
H158	H	1.521258	0.812898	0.668696
H159	H	1.281396	-0.056016	0.000099
H160	H	1.781396	0.443984	0.500099
