data_functionalizedCrystal
_audit_creation_method	'MofGen! by Chris Wilmer'
_symmetry_space_group_name_H-M	'P1'
_symmetry_Int_Tables_number	1
_symmetry_cell_setting	triclinic
loop_
_symmetry_equiv_pos_as_xyz
  x,y,z
_cell_length_a	23.532361
_cell_length_b	23.532407
_cell_length_c	13.101039
_cell_angle_alpha	93.336507
_cell_angle_beta	86.668482
_cell_angle_gamma	82.839173
loop_
_atom_site_label
_atom_site_type_symbol
_atom_site_fract_x
_atom_site_fract_y
_atom_site_fract_z
O1	O	0.758424	0.065850	-0.085121
O2	O	0.592558	0.075880	-0.085147
O3	O	0.680492	-0.012066	-0.085115
O4	O	0.670490	0.153797	-0.085154
O5	O	0.674183	-0.005746	0.085313
O6	O	0.586249	0.082201	0.085280
O7	O	0.752115	0.072171	0.085306
Zn8	Zn	0.668180	0.078189	0.112352
Zn9	Zn	0.676493	0.069862	-0.112193
O10	O	0.664181	0.160118	0.085274
C11	C	0.568187	0.078789	0.000063
C12	C	0.504969	0.078034	0.000054
C13	C	0.235164	0.071285	-0.092839
C14	C	0.294564	0.072000	-0.092842
O15	O	0.328215	0.069420	-0.171848
N16	N	0.320830	0.075807	0.000059
C17	C	0.287694	0.078892	0.092968
O18	O	0.315491	0.082195	0.171987
C19	C	0.228296	0.078174	0.092970
C20	C	0.202032	0.074373	0.000063
C21	C	0.208900	0.067484	-0.185738
C22	C	0.149504	0.066770	-0.185735
C23	C	0.116372	0.069858	-0.092833
C24	C	0.142636	0.073659	0.000066
C25	C	0.195162	0.081255	0.185878
C26	C	0.135760	0.080536	0.185871
C27	C	0.109496	0.076735	0.092965
C28	C	0.050109	0.076033	0.092971
N29	N	0.023842	0.072226	0.000071
C30	C	0.056974	0.069139	-0.092831
C31	C	0.412435	0.080401	0.092957
C32	C	0.471831	0.081124	0.092957
C33	C	0.478697	0.074231	-0.092853
C34	C	0.419299	0.073512	-0.092851
C35	C	0.386168	0.076595	0.000057
C36	C	-0.067762	0.067641	-0.092818
C37	C	-0.127164	0.066930	-0.092806
C38	C	-0.134024	0.073820	0.093003
C39	C	-0.074628	0.074534	0.092992
C40	C	-0.041498	0.071442	0.000074
O41	O	0.016422	0.078608	0.171937
O42	O	0.029171	0.065829	-0.171837
C43	C	0.677083	-0.030122	0.000102
C44	C	0.676316	-0.093339	0.000109
C45	C	0.723553	-0.492452	0.000061
C46	C	0.722842	-0.551852	0.000053
O47	O	0.766630	-0.588605	0.000022
N48	N	0.670564	-0.574470	0.000045
C49	C	0.618995	-0.537684	0.000035
O50	O	0.574464	-0.562376	0.000027
C51	C	0.619707	-0.478285	0.000036
C52	C	0.671988	-0.455670	0.000054
C53	C	0.775829	-0.469836	0.000077
C54	C	0.776540	-0.410440	0.000087
C55	C	0.724974	-0.373659	0.000080
C56	C	0.672698	-0.396274	0.000063
C57	C	0.568139	-0.441500	0.000019
C58	C	0.568856	-0.382098	0.000018
C59	C	0.621136	-0.359483	0.000036
C60	C	0.621844	-0.300096	0.000066
N61	N	0.674121	-0.277478	0.000074
C62	C	0.725687	-0.314260	0.000081
C63	C	0.617504	-0.662426	0.000032
C64	C	0.616791	-0.721824	0.000039
C65	C	0.720638	-0.735988	0.000055
C66	C	0.721350	-0.676589	0.000055
C67	C	0.669781	-0.639808	0.000040
C68	C	0.727175	-0.189522	0.000102
C69	C	0.727882	-0.130120	0.000116
C70	C	0.624036	-0.115961	0.000095
C71	C	0.623329	-0.175358	0.000087
C72	C	0.674904	-0.212138	0.000087
O73	O	0.578079	-0.263309	0.000093
O74	O	0.770211	-0.289559	0.000075
C75	C	0.776486	0.069262	0.000093
C76	C	0.839704	0.070017	0.000096
C77	C	0.667590	0.178173	0.000055
C78	C	0.668357	0.241390	0.000041
N79	N	0.662511	0.083872	0.265599
N80	N	0.682166	0.064174	-0.265440
C81	C	0.654798	0.091609	0.474638
C82	C	0.689877	0.056439	0.525527
C83	C	0.685586	0.060744	0.641844
C84	C	0.659089	0.087305	0.358311
H85	H	-0.053244	0.077641	0.168644
H86	H	0.621545	0.124951	0.518423
H87	H	0.493209	0.084228	0.168611
H88	H	0.575508	-0.632482	0.000029
H89	H	0.235870	0.064968	-0.261394
C90	C	0.465569	-0.421510	-0.000027
C91	C	0.510670	-0.466348	-0.000010
H92	H	0.430088	-0.436850	-0.000053
H93	H	0.465806	-0.396441	0.059406
H94	H	0.470221	-0.400835	-0.059459
H95	H	0.506021	-0.487020	0.059425
H96	H	0.510433	-0.491426	-0.059450
H97	H	-0.040795	0.065124	-0.168481
C98	C	0.830461	-0.150097	0.000123
C99	C	0.785352	-0.105264	0.000127
H100	H	0.865939	-0.134752	0.000121
H101	H	0.825824	-0.170771	0.059548
H102	H	0.830216	-0.175168	-0.059316
H103	H	0.785594	-0.080195	0.059570
H104	H	0.789991	-0.084581	-0.059304
C105	C	0.512649	-0.310325	-0.087606
C106	C	0.512168	-0.341670	0.000002
H107	H	0.477652	-0.285370	-0.087615
H108	H	0.543879	-0.288354	-0.087586
H109	H	0.516735	-0.335996	-0.147033
H110	H	0.508087	-0.315999	0.059430
H111	H	0.480930	-0.363643	-0.000008
C112	C	0.509531	0.019608	-0.251216
C113	C	0.515123	0.070831	-0.194977
H114	H	0.532017	0.017512	-0.314261
H115	H	0.522386	-0.012067	-0.213030
H116	H	0.470395	0.018643	-0.264512
H117	H	0.554258	0.071794	-0.181674
H118	H	0.502270	0.102514	-0.233171
H119	H	0.723133	0.023097	0.481737
C120	C	0.805693	-0.763129	0.087668
C121	C	0.777320	-0.776428	0.000053
H122	H	0.840682	-0.788099	0.087668
H123	H	0.813605	-0.724524	0.087666
H124	H	0.782037	-0.767754	0.147090
H125	H	0.800974	-0.771798	-0.059369
H126	H	0.769410	-0.815043	0.000046
H127	H	0.763921	-0.658181	0.000069
H128	H	0.769173	-0.219462	0.000098
H129	H	0.582052	-0.086003	0.000093
C130	C	0.162276	0.060016	-0.369394
C131	C	0.120641	0.062580	-0.287861
H132	H	0.144460	0.057422	-0.432445
H133	H	0.180762	0.093654	-0.365542
H134	H	0.189838	0.027224	-0.365496
H135	H	0.093082	0.095374	-0.291755
H136	H	0.102147	0.028938	-0.291715
C137	C	0.823756	-0.325683	0.000093
C138	C	0.834008	-0.385587	0.000091
H139	H	0.859237	-0.310344	0.000097
H140	H	0.804740	-0.315238	-0.059335
H141	H	0.800343	-0.310839	0.059529
H142	H	0.857418	-0.400431	-0.059350
H143	H	0.853033	-0.396037	0.059525
H144	H	0.385462	0.082919	0.168619
H145	H	0.817822	-0.499779	0.000079
H146	H	0.108787	0.083051	0.261530
H147	H	-0.148545	0.063836	-0.168465
H148	H	0.574219	-0.740230	0.000042
C149	C	0.520753	-0.155388	0.000061
C150	C	0.565863	-0.200220	0.000066
H151	H	0.485277	-0.170736	0.000033
H152	H	0.520987	-0.130324	0.059500
H153	H	0.525400	-0.134707	-0.059364
H154	H	0.561218	-0.220898	0.059495
H155	H	0.565628	-0.225294	-0.059379
H156	H	0.216536	0.084349	0.261532
C157	C	0.349805	0.117670	-0.200668
C158	C	0.390433	0.069330	-0.194976
H159	H	0.331990	0.115088	-0.263722
H160	H	0.321571	0.119399	-0.145351
H161	H	0.368304	0.151306	-0.196809
H162	H	0.371933	0.035694	-0.198827
H163	H	0.418671	0.067596	-0.250308
H164	H	-0.161010	0.076336	0.168641
