data_functionalizedCrystal
_audit_creation_method	'MofGen! by Chris Wilmer'
_symmetry_space_group_name_H-M	'P1'
_symmetry_Int_Tables_number	1
_symmetry_cell_setting	triclinic
loop_
_symmetry_equiv_pos_as_xyz
  x,y,z
_cell_length_a	17.699104
_cell_length_b	8.597304
_cell_length_c	16.176319
_cell_angle_alpha	82.293375
_cell_angle_beta	89.991696
_cell_angle_gamma	84.318364
loop_
_atom_site_label
_atom_site_type_symbol
_atom_site_fract_x
_atom_site_fract_y
_atom_site_fract_z
O1	O	1.005716	0.198623	-0.082907
O2	O	0.785553	0.224410	-0.084741
O3	O	0.899966	-0.016967	-0.067549
O4	O	0.891303	0.440001	-0.100100
O5	O	0.899950	-0.016983	0.069946
O6	O	0.785537	0.224395	0.052753
O7	O	1.005700	0.198608	0.054587
Cu8	Cu	0.895617	0.211500	0.066224
Cu9	Cu	0.895636	0.211518	-0.096379
O10	O	0.891287	0.439986	0.037394
C11	C	0.757341	0.223473	-0.015928
C12	C	0.673301	0.220684	-0.015728
C13	C	0.149474	0.346641	-0.024709
C14	C	0.228439	0.349252	-0.024898
C15	C	0.275882	0.207554	-0.014804
C16	C	0.244356	0.063236	-0.004529
C17	C	0.165392	0.060627	-0.004347
C18	C	0.562809	0.073755	-0.005266
C19	C	0.641778	0.076376	-0.005446
C20	C	0.625857	0.362380	-0.025816
C21	C	0.546893	0.359771	-0.025634
C22	C	0.515373	0.215454	-0.015364
C23	C	0.429750	0.212625	-0.015161
C24	C	0.361504	0.210382	-0.015000
C25	C	0.899027	-0.075443	0.005362
C26	C	0.896244	-0.249661	0.017767
C27	C	1.033912	0.199545	-0.014228
C28	C	1.117953	0.202334	-0.014433
C29	C	0.892226	0.498462	-0.035518
C30	C	0.895009	0.672680	-0.047928
N31	N	0.895609	0.211486	0.180590
N32	N	0.895650	0.211520	-0.210744
C33	C	0.946287	0.104648	0.231465
C34	C	0.946291	0.104646	0.318012
C35	C	0.895620	0.211492	0.353683
C36	C	0.844937	0.318335	0.302802
C37	C	0.844930	0.318328	0.216257
C38	C	0.844963	0.318365	0.651828
C39	C	0.844975	0.318367	0.738380
C40	C	0.946324	0.104683	0.753583
C41	C	0.946317	0.104676	0.667038
C42	C	0.895631	0.211513	0.616165
C43	C	0.895627	0.211512	0.522321
C44	C	0.895628	0.211502	0.447525
H45	H	0.680405	-0.039019	0.002772
H46	H	0.282990	-0.052137	0.003684
H47	H	0.803694	0.405358	0.610414
H48	H	0.987580	0.017678	0.637998
H49	H	0.139729	-0.056883	0.004019
C50	C	1.002039	-0.012869	0.373977
C51	C	1.057799	-0.130359	0.334745
C52	C	1.113548	-0.247879	0.390713
C53	C	1.113537	-0.247909	0.485912
C54	C	1.057775	-0.130414	0.525148
C55	C	1.002026	-0.012894	0.469181
H56	H	1.057809	-0.130341	0.264269
H57	H	1.154827	-0.334857	0.361667
H58	H	1.154806	-0.334904	0.527342
H59	H	1.057765	-0.130432	0.595624
H60	H	0.960747	0.074084	0.498227
C61	C	0.894790	-0.339889	0.106585
C62	C	0.960687	-0.335601	0.168126
C63	C	0.959233	-0.425829	0.256943
C64	C	0.891883	-0.520344	0.284218
C65	C	0.825981	-0.524635	0.222675
C66	C	0.827435	-0.434408	0.133858
H67	H	1.010548	-0.265632	0.147937
H68	H	1.008019	-0.422651	0.302501
H69	H	0.890807	-0.587136	0.349965
H70	H	0.776120	-0.594605	0.242864
H71	H	0.778650	-0.437585	0.088301
H72	H	0.254100	0.466761	-0.033273
C73	C	0.494708	0.515642	-0.036738
C74	C	0.499010	0.633984	-0.116565
C75	C	0.446826	0.789858	-0.127673
C76	C	0.390340	0.827392	-0.058952
C77	C	0.386036	0.709047	0.020881
C78	C	0.438219	0.553172	0.031988
H79	H	0.540826	0.606202	-0.167441
H80	H	0.450013	0.877464	-0.186771
H81	H	0.351711	0.942779	-0.067175
H82	H	0.344219	0.736829	0.071757
H83	H	0.435032	0.465566	0.091087
C84	C	0.896463	-0.237099	-0.136742
C85	C	0.961658	-0.277521	-0.195711
C86	C	0.963112	-0.187288	-0.284527
C87	C	0.899370	-0.056634	-0.314372
C88	C	0.834170	-0.016206	-0.255402
C89	C	0.832716	-0.106439	-0.166586
H90	H	1.008848	-0.374244	-0.173619
H91	H	1.011378	-0.217216	-0.328181
H92	H	0.900446	0.010161	-0.380119
H93	H	0.786980	0.080517	-0.277494
H94	H	0.784450	-0.076511	-0.122933
C95	C	1.002075	-0.012857	0.809545
C96	C	1.002086	-0.012871	0.904743
C97	C	1.057837	-0.130403	0.960701
C98	C	1.113576	-0.247920	0.921462
C99	C	1.113567	-0.247910	0.826260
C100	C	1.057816	-0.130378	0.770301
H101	H	0.960823	0.074126	0.933794
H102	H	1.057844	-0.130410	1.031177
H103	H	1.154846	-0.334924	0.962886
H104	H	1.154830	-0.334908	0.797208
H105	H	1.057809	-0.130372	0.699826
C106	C	0.789197	0.435870	0.342035
C107	C	0.789237	0.435966	0.437225
C108	C	0.733497	0.553508	0.476455
C109	C	0.677717	0.670955	0.420495
C110	C	0.677675	0.670864	0.325299
C111	C	0.733415	0.553321	0.286070
H112	H	0.830530	0.349021	0.478655
H113	H	0.733528	0.553575	0.546925
H114	H	0.636455	0.757967	0.449535
H115	H	0.636381	0.757809	0.283869
H116	H	0.733383	0.553254	0.215599
H117	H	0.803710	0.405376	0.767421
H118	H	0.110851	0.462028	-0.032923
H119	H	0.651529	0.479891	-0.034182
H120	H	0.537155	-0.043756	0.003099
H121	H	0.803662	0.405325	0.174836
H122	H	0.987552	0.017649	0.202427
