data_functionalizedCrystal
_audit_creation_method	'MofGen! by Chris Wilmer'
_symmetry_space_group_name_H-M	'P1'
_symmetry_Int_Tables_number	1
_symmetry_cell_setting	triclinic
loop_
_symmetry_equiv_pos_as_xyz
  x,y,z
_cell_length_a	16.959454
_cell_length_b	12.759401
_cell_length_c	12.759393
_cell_angle_alpha	90.018496
_cell_angle_beta	89.969286
_cell_angle_gamma	89.979764
loop_
_atom_site_label
_atom_site_type_symbol
_atom_site_fract_x
_atom_site_fract_y
_atom_site_fract_z
Zn1	Zn	-0.314632	-1.606216	-0.593988
Zn2	Zn	-0.446833	-1.606094	-0.418310
Zn3	Zn	-0.314673	-1.430518	-0.418327
Zn4	Zn	-0.446772	-1.430490	-0.593952
O5	O	-0.380727	-1.518330	-0.506144
O6	O	-0.332177	-1.753221	-0.570692
O7	O	-0.429345	-1.582764	-0.271291
O8	O	-0.204057	-1.453888	-0.441651
O9	O	-0.429304	-1.753131	-0.441622
O10	O	-0.204026	-1.582972	-0.570708
O11	O	-0.332247	-1.453769	-0.271304
O12	O	-0.332188	-1.283493	-0.441616
O13	O	-0.429201	-1.453840	-0.740978
O14	O	-0.429241	-1.283473	-0.570647
O15	O	-0.332118	-1.582945	-0.741004
O16	O	-0.557436	-1.582737	-0.441588
O17	O	-0.557391	-1.453722	-0.570631
C18	C	-0.380713	-1.245362	-0.506130
C19	C	-0.380726	-1.128586	-0.506149
C20	C	-0.586094	-1.518242	-0.506126
C21	C	-0.673950	-1.518300	-0.506154
C22	C	-0.380648	-1.518403	-0.780178
C23	C	-0.380614	-1.518435	-0.896954
C24	C	-1.045433	-1.451249	-0.573330
C25	C	-1.045419	-1.585703	-0.439066
C26	C	-0.962873	-1.585666	-0.439056
C27	C	-0.921603	-1.518419	-0.506183
C28	C	-0.962879	-1.451208	-0.573320
C29	C	-0.921591	-1.652869	-0.371913
C30	C	-0.839040	-1.652834	-0.371900
C31	C	-0.797769	-1.585591	-0.439033
C32	C	-0.839050	-1.518378	-0.506173
C33	C	-0.797780	-1.451130	-0.573300
C34	C	-0.839059	-1.383922	-0.640447
C35	C	-0.921607	-1.383965	-0.640453
C36	C	-0.715220	-1.585548	-0.439027
C37	C	-0.715226	-1.451089	-0.573291
C38	C	-0.174559	-1.518447	-0.506185
C39	C	-0.086703	-1.518496	-0.506203
C40	C	-0.380743	-1.792363	-0.506159
C41	C	-0.380749	-1.909140	-0.506165
C42	C	-0.431342	-1.073740	-0.573224
C43	C	-0.431352	-0.964016	-0.573235
C44	C	-0.330127	-0.963992	-0.439087
C45	C	-0.330114	-1.073714	-0.439082
C46	C	-0.489786	-1.073753	-0.650670
C47	C	-0.489796	-0.964029	-0.650681
C48	C	-0.330058	-1.585669	-0.951832
C49	C	-0.330029	-1.585694	-1.061556
C50	C	-0.431119	-1.451247	-1.061516
C51	C	-0.431143	-1.451218	-0.951793
C52	C	-0.271696	-1.663294	-0.951856
C53	C	-0.271668	-1.663319	-1.061580
C54	C	-0.380750	-1.518317	-0.233177
C55	C	-0.380561	-1.518489	-0.116401
H56	H	-0.681629	-1.396332	-0.627958
H57	H	-0.955225	-1.329246	-0.695119
O58	O	-0.675000	-1.650725	-0.373843
C59	C	-0.547824	-1.710298	-0.314368
C60	C	-0.593274	-1.636408	-0.388227
H61	H	-0.481741	-1.698765	-0.325988
H62	H	-0.564043	-1.691895	-0.229615
H63	H	-0.564050	-1.795002	-0.332875
H64	H	-0.577073	-1.551680	-0.369815
H65	H	-0.577051	-1.654902	-0.472959
O66	O	-1.085613	-1.386111	-0.638603
C67	C	-1.178711	-1.371952	-0.780499
C68	C	-1.133269	-1.445837	-0.706627
H69	H	-1.217239	-1.420212	-0.835530
H70	H	-1.217468	-1.317079	-0.732282
H71	H	-1.135018	-1.323858	-0.828423
H72	H	-1.176905	-1.493999	-0.658687
H73	H	-1.094501	-1.500641	-0.754904
O74	O	-0.559060	-1.114507	-0.615729
C75	C	-0.633539	-1.270880	-0.578276
C76	C	-0.555041	-1.224865	-0.617844
H77	H	-0.630322	-1.360110	-0.579992
H78	H	-0.644807	-1.243342	-0.494587
H79	H	-0.683629	-1.243239	-0.631030
H80	H	-0.504903	-1.252485	-0.565167
H81	H	-0.543842	-1.252397	-0.701549
H82	H	-0.288892	-1.118365	-0.384470
H83	H	-1.079026	-1.640447	-0.384408
H84	H	-0.213504	-1.634212	-1.095627
O85	O	-0.463740	-0.923637	-0.743038
C86	C	-0.414655	-0.960132	-0.916519
C87	C	-0.444170	-1.006018	-0.811996
H88	H	-0.398809	-1.026715	-0.972292
H89	H	-0.462986	-0.909879	-0.952985
H90	H	-0.360264	-0.909820	-0.901627
H91	H	-0.498547	-1.056378	-0.826799
H92	H	-0.395792	-1.056212	-0.775563
O93	O	-0.562865	-0.928588	-0.624636
C94	C	-0.700992	-0.925174	-0.668668
C95	C	-0.618295	-0.965404	-0.698269
H96	H	-0.745828	-0.954905	-0.728197
H97	H	-0.717388	-0.954933	-0.587289
H98	H	-0.700971	-0.835826	-0.668640
H99	H	-0.618254	-1.054747	-0.698358
H100	H	-0.601932	-0.935565	-0.779630
O101	O	-0.291087	-1.760419	-1.097160
C102	C	-0.250966	-1.910421	-1.198862
C103	C	-0.228872	-1.800479	-1.158624
H104	H	-0.200685	-1.942833	-1.248582
H105	H	-0.261884	-1.964708	-1.129410
H106	H	-0.306722	-1.905080	-1.248446
H107	H	-0.173106	-1.805719	-1.109057
H108	H	-0.218006	-1.746234	-1.228123
O109	O	-0.470219	-1.109456	-0.747703
C110	C	-0.379140	-1.211125	-0.851159
C111	C	-0.401217	-1.170781	-0.741213
H112	H	-0.323342	-1.260696	-0.845953
H113	H	-0.429405	-1.260825	-0.883500
H114	H	-0.368303	-1.141648	-0.905436
H115	H	-0.412041	-1.240195	-0.686856
H116	H	-0.350941	-1.121050	-0.708958
H117	H	-0.955199	-1.707610	-0.317254
H118	H	-0.472308	-1.396466	-0.907116
O119	O	-0.480180	-1.386061	-1.114951
C120	C	-0.524911	-1.326474	-1.283965
C121	C	-0.469320	-1.400366	-1.223584
H122	H	-0.516138	-1.337998	-1.371806
H123	H	-0.588671	-1.344883	-1.262453
H124	H	-0.511039	-1.241772	-1.262326
H125	H	-0.483121	-1.485093	-1.245191
H126	H	-0.405577	-1.381867	-1.245102
H127	H	-0.805436	-1.707559	-0.317227
H128	H	-0.805447	-1.329164	-0.695097
O129	O	-0.198637	-1.637266	-0.916523
C130	C	-0.065467	-1.590007	-0.962382
C131	C	-0.148170	-1.619448	-1.002539
H132	H	-0.024637	-1.575615	-1.031904
H133	H	-0.069416	-1.515857	-0.912779
H134	H	-0.041107	-1.656835	-0.912719
H135	H	-0.172578	-1.552689	-1.052244
H136	H	-0.144171	-1.693630	-1.052084
H137	H	-0.288920	-0.919303	-0.384485
H138	H	-0.293641	-1.740563	-0.917820
