data_functionalizedCrystal
_audit_creation_method	'MofGen! by Chris Wilmer'
_symmetry_space_group_name_H-M	'P1'
_symmetry_Int_Tables_number	1
_symmetry_cell_setting	triclinic
loop_
_symmetry_equiv_pos_as_xyz
  x,y,z
_cell_length_a	11.792254
_cell_length_b	10.540510
_cell_length_c	10.268362
_cell_angle_alpha	89.997199
_cell_angle_beta	89.995475
_cell_angle_gamma	84.355954
loop_
_atom_site_label
_atom_site_type_symbol
_atom_site_fract_x
_atom_site_fract_y
_atom_site_fract_z
O1	O	1.507337	0.174071	-0.108292
O2	O	2.007337	0.674071	0.391708
O3	O	1.177043	0.191986	-0.108294
O4	O	1.677043	0.691986	0.391706
O5	O	1.349743	-0.001705	-0.108292
O6	O	1.849743	0.498295	0.391708
O7	O	1.334637	0.367762	-0.108293
O8	O	1.834637	0.867762	0.391707
O9	O	1.349728	-0.001713	0.108309
O10	O	1.849728	0.498287	0.608309
O11	O	1.177027	0.191978	0.108307
O12	O	1.677027	0.691978	0.608307
O13	O	1.507322	0.174063	0.108309
O14	O	2.007322	0.674063	0.608309
Cu15	Cu	1.342173	0.183020	0.128085
Cu16	Cu	1.842173	0.683020	0.628085
Cu17	Cu	1.342191	0.183029	-0.128070
Cu18	Cu	1.842191	0.683029	0.371930
O19	O	1.334621	0.367754	0.108308
O20	O	1.834621	0.867754	0.608308
C21	C	1.134741	0.190854	0.000006
C22	C	1.634741	0.690854	0.500006
C23	C	1.008720	0.187476	0.000005
C24	C	1.508720	0.687476	0.500005
C25	C	0.906377	0.184731	-0.000000
C26	C	1.406377	0.684731	0.500000
C27	C	0.777981	0.181299	-0.000001
C28	C	1.277981	0.681299	0.499999
C29	C	1.348609	-0.049009	0.000006
C30	C	1.848609	0.450991	0.500006
C31	C	1.345242	-0.189948	-0.000002
C32	C	1.845242	0.310052	0.499998
C33	C	1.465216	-0.407788	0.000495
C34	C	1.965216	0.092212	0.500495
C35	C	1.468808	-0.261204	-0.000000
C36	C	1.968808	0.238796	0.500000
C37	C	1.281996	-0.234499	-0.123690
C38	C	1.781996	0.265501	0.376310
C39	C	1.279279	-0.381251	-0.123786
C40	C	1.779279	0.118749	0.376214
C41	C	1.276688	-0.381061	0.122529
C42	C	1.776688	0.118939	0.622529
C43	C	1.282549	-0.234738	0.124157
C44	C	1.782549	0.265262	0.624157
C45	C	1.549623	0.175196	0.000006
C46	C	2.049623	0.675196	0.500006
C47	C	1.675644	0.178573	-0.000001
C48	C	2.175644	0.678573	0.499999
C49	C	1.335755	0.415058	0.000007
C50	C	1.835755	0.915058	0.500007
C51	C	1.339123	0.555997	0.000006
C52	C	1.839123	1.055997	0.500006
N53	N	1.342169	0.183012	0.308251
N54	N	1.842169	0.683012	0.808251
N55	N	1.342204	0.183027	-0.308236
N56	N	1.842204	0.683027	0.191764
C57	C	1.342185	0.183027	0.573922
C58	C	1.842185	0.683027	1.073922
C59	C	1.342172	0.183022	0.426084
C60	C	1.842172	0.683022	0.926084
H61	H	1.518294	-0.232022	0.088662
H62	H	2.018294	0.267978	0.588662
O63	O	1.528963	-0.463545	0.118014
O64	O	2.028963	0.036455	0.618014
H65	H	1.530300	-0.568967	0.116043
H66	H	2.030300	-0.068967	0.616043
H67	H	1.191029	-0.186818	-0.128290
H68	H	1.691029	0.313182	0.371710
O69	O	1.156865	-0.411338	-0.131228
O70	O	1.656865	0.088662	0.368772
H71	H	1.144609	-0.467983	-0.220353
H72	H	1.644609	0.032017	0.279647
H73	H	1.325931	-0.203780	-0.215737
H74	H	1.825931	0.296220	0.284263
O75	O	1.328412	-0.437430	0.246721
O76	O	1.828412	0.062570	0.746721
H77	H	1.399205	-0.510947	0.222499
H78	H	1.899205	-0.010947	0.722499
H79	H	1.513085	-0.451444	-0.087706
H80	H	2.013085	0.048556	0.412294
O81	O	1.343488	-0.197030	0.245374
O82	O	1.843488	0.302970	0.745374
H83	H	1.418113	-0.146591	0.217326
H84	H	1.918113	0.353409	0.717326
O85	O	1.163060	-0.169338	0.134088
O86	O	1.663060	0.330662	0.634088
H87	H	1.146411	-0.103608	0.050302
H88	H	1.646411	0.396392	0.550302
H89	H	1.518594	-0.232955	-0.088816
H90	H	2.018594	0.267045	0.411184
H91	H	1.183913	-0.402913	0.123362
H92	H	1.683913	0.097087	0.623362
H93	H	1.322513	-0.421602	-0.216244
H94	H	1.822513	0.078398	0.283756
