data_functionalizedCrystal
_audit_creation_method	'MofGen! by Chris Wilmer'
_symmetry_space_group_name_H-M	'P1'
_symmetry_Int_Tables_number	1
_symmetry_cell_setting	triclinic
loop_
_symmetry_equiv_pos_as_xyz
  x,y,z
_cell_length_a	13.897449
_cell_length_b	21.395361
_cell_length_c	21.395355
_cell_angle_alpha	90.021511
_cell_angle_beta	89.976610
_cell_angle_gamma	89.968012
loop_
_atom_site_label
_atom_site_type_symbol
_atom_site_fract_x
_atom_site_fract_y
_atom_site_fract_z
Zn1	Zn	1.474641	0.249490	-0.354229
Zn2	Zn	1.974641	0.749490	0.145771
Zn3	Zn	1.474490	0.354250	-0.249446
Zn4	Zn	1.974490	0.854250	0.250554
Zn5	Zn	1.313322	0.249492	-0.249468
Zn6	Zn	1.813322	0.749492	0.250532
Zn7	Zn	1.313275	0.354236	-0.354188
Zn8	Zn	1.813275	0.854236	0.145812
O9	O	1.393932	0.301867	-0.301833
O10	O	1.893932	0.801867	0.198167
O11	O	1.609602	0.263391	-0.340337
O12	O	2.109602	0.763391	0.159663
O13	O	1.453068	0.340360	-0.161771
O14	O	1.953068	0.840360	0.338229
O15	O	1.334804	0.161814	-0.263391
O16	O	1.834804	0.661814	0.236609
O17	O	1.609492	0.340358	-0.263354
O18	O	2.109492	0.840358	0.236646
O19	O	1.453324	0.161812	-0.340358
O20	O	1.953324	0.661812	0.159642
O21	O	1.334659	0.263395	-0.161787
O22	O	1.834659	0.763395	0.338213
O23	O	1.178334	0.263382	-0.263351
O24	O	1.678334	0.763382	0.236649
O25	O	1.334723	0.340334	-0.441872
O26	O	1.834723	0.840334	0.058128
O27	O	1.178299	0.340337	-0.340289
O28	O	1.678299	0.840337	0.159711
O29	O	1.453278	0.263378	-0.441901
O30	O	1.953278	0.763378	0.058099
O31	O	1.453022	0.441926	-0.263314
O32	O	1.953022	0.941926	0.236686
O33	O	1.334578	0.441915	-0.340268
O34	O	1.834578	0.941915	0.159732
C35	C	1.143318	0.301858	-0.301818
C36	C	1.643318	0.801858	0.198182
C37	C	1.036104	0.301870	-0.301827
C38	C	1.536104	0.801870	0.198173
C39	C	1.394012	0.301854	-0.465256
C40	C	1.894012	0.801854	0.034744
C41	C	1.394046	0.301849	-0.534897
C42	C	1.894046	0.801849	-0.034897
C43	C	1.393805	0.464654	-0.301798
C44	C	1.893805	0.964654	0.198202
C45	C	1.393838	0.534296	-0.301804
C46	C	1.893838	1.034296	0.198196
C47	C	0.839809	0.301872	-0.301844
C48	C	1.339809	0.801872	0.198156
C49	C	0.949041	0.301869	-0.301833
C50	C	1.449041	0.801869	0.198167
C51	C	1.645525	0.301876	-0.301847
C52	C	2.145525	0.801876	0.198153
C53	C	1.752739	0.301879	-0.301854
C54	C	2.252739	0.801879	0.198146
C55	C	1.394086	0.138443	-0.301881
C56	C	1.894086	0.638443	0.198119
C57	C	1.394152	0.068802	-0.301902
C58	C	1.894152	0.568802	0.198098
C59	C	1.455567	0.566993	-0.261775
C60	C	1.955567	1.066993	0.238225
C61	C	1.455612	0.632429	-0.261789
C62	C	1.955612	1.132429	0.238211
C63	C	1.393911	0.665164	-0.301825
C64	C	1.893911	1.165164	0.198175
C65	C	1.332178	0.632458	-0.341862
C66	C	1.832178	1.132458	0.158138
C67	C	1.332142	0.567024	-0.341851
C68	C	1.832142	1.067024	0.158149
C69	C	1.307060	0.768880	-0.306736
C70	C	1.807060	1.268880	0.193264
C71	C	1.307094	0.834313	-0.306743
C72	C	1.807094	1.334313	0.193257
C73	C	1.394023	0.866985	-0.301862
C74	C	1.894023	1.366985	0.198138
C75	C	1.480920	0.834215	-0.296962
C76	C	1.980920	1.334215	0.203038
C77	C	1.480884	0.768781	-0.296951
C78	C	1.980884	1.268781	0.203049
C79	C	1.393944	0.736116	-0.301842
C80	C	1.893944	1.236116	0.198158
C81	C	1.455806	0.970635	-0.261846
C82	C	1.955806	1.470635	0.238154
C83	C	1.455852	1.036071	-0.261865
C84	C	1.955852	1.536071	0.238135
C85	C	1.332410	1.036100	-0.341934
C86	C	1.832410	1.536100	0.158066
C87	C	1.332372	0.970665	-0.341919
C88	C	1.832372	1.470665	0.158081
C89	C	1.394069	0.937936	-0.301872
C90	C	1.894069	1.437936	0.198128
C91	C	1.455775	0.261776	-0.567627
C92	C	1.955775	0.761776	-0.067627
C93	C	1.455774	0.261749	-0.633063
C94	C	1.955774	0.761749	-0.133063
C95	C	1.394054	0.301806	-0.665766
C96	C	1.894054	0.801806	-0.165766
C97	C	1.332313	0.341882	-0.633028
C98	C	1.832313	0.841882	-0.133028
C99	C	1.332309	0.341903	-0.567594
C100	C	1.832309	0.841903	-0.067594
C101	C	1.386393	0.358221	-0.769428
C102	C	1.886393	0.858221	-0.269428
C103	C	1.386404	0.358201	-0.834861
C104	C	1.886404	0.858201	-0.334861
C105	C	1.394060	0.301740	-0.867587
C106	C	1.894060	0.801740	-0.367587
C107	C	1.401725	0.245297	-0.834871
C108	C	1.901725	0.745297	-0.334871
C109	C	1.401722	0.245318	-0.769437
C110	C	1.901722	0.745318	-0.269437
C111	C	1.394051	0.301787	-0.736718
C112	C	1.894051	0.801787	-0.236718
C113	C	1.455790	0.261634	-0.971269
C114	C	1.955790	0.761634	-0.471269
C115	C	1.455782	0.261606	-1.036706
C116	C	1.955782	0.761606	-0.536706
C117	C	1.332327	0.341745	-1.036670
C118	C	1.832327	0.841745	-0.536670
C119	C	1.332330	0.341767	-0.971235
C120	C	1.832330	0.841767	-0.471235
C121	C	1.394067	0.301713	-0.938538
C122	C	1.894067	0.801713	-0.438538
C123	C	1.393908	0.301834	-0.139045
C124	C	1.893908	0.801834	0.360955
C125	C	1.394061	0.301663	-0.069404
C126	C	1.894061	0.801663	0.430596
H127	H	1.505807	0.540348	-0.229168
H128	H	2.005807	1.040348	0.270832
H129	H	1.282063	0.374354	-1.063296
H130	H	1.782063	0.874354	-0.563296
H131	H	1.506055	0.229016	-0.944646
H132	H	2.006055	0.729016	-0.444646
H133	H	1.282069	0.374403	-0.944586
H134	H	1.782069	0.874403	-0.444586
C135	C	1.523688	0.217524	-1.072708
C136	C	2.023688	0.717524	-0.572708
H137	H	1.560460	0.193679	-1.043861
H138	H	2.060460	0.693679	-0.543861
H139	H	1.486822	0.190211	-1.098226
H140	H	1.986822	0.690211	-0.598226
H141	H	1.565694	0.241492	-1.098244
H142	H	2.065694	0.741492	-0.598244
H143	H	1.282057	0.374495	-0.659659
H144	H	1.782057	0.874495	-0.159659
C145	C	1.264541	1.072098	-0.385977
C146	C	1.764541	1.572098	0.114023
H147	H	1.227773	1.043250	-0.409817
H148	H	1.727773	1.543250	0.090183
H149	H	1.222545	1.097664	-0.361991
H150	H	1.722545	1.597664	0.138009
H151	H	1.301441	1.097584	-0.413305
H152	H	1.801441	1.597584	0.086695
C153	C	1.576550	0.870141	-0.291589
C154	C	2.076550	1.370141	0.208411
H155	H	1.628292	0.841254	-0.288663
H156	H	2.128292	1.341254	0.211337
H157	H	1.585023	0.895643	-0.327505
H158	H	2.085023	1.395643	0.172495
H159	H	1.575333	0.895687	-0.255269
H160	H	2.075333	1.395687	0.244731
H161	H	1.505882	0.659056	-0.229193
H162	H	2.005882	1.159056	0.270807
H163	H	1.236266	0.742286	-0.310713
H164	H	1.736266	1.242286	0.189287
H165	H	1.282038	0.374534	-0.540946
H166	H	1.782038	0.874534	-0.040946
H167	H	1.281942	0.659116	-0.374461
H168	H	1.781942	1.159116	0.125539
C169	C	1.523678	0.934628	-0.217807
C170	C	2.023678	1.434628	0.282193
H171	H	1.514808	0.890974	-0.223527
H172	H	2.014808	1.390974	0.276473
H173	H	1.588486	0.945307	-0.227019
H174	H	2.088486	1.445307	0.272981
H175	H	1.509599	0.945384	-0.175700
H176	H	2.009599	1.445384	0.324300
C177	C	1.377968	0.420284	-0.870843
C178	C	1.877968	0.920284	-0.370843
H179	H	1.373389	0.453912	-0.841983
H180	H	1.873389	0.953912	-0.341983
H181	H	1.433243	0.425791	-0.896382
H182	H	1.933243	0.925791	-0.396382
H183	H	1.322051	0.419453	-0.896354
H184	H	1.822051	0.919453	-0.396354
H185	H	1.551638	0.742101	-0.292963
H186	H	2.051638	1.242101	0.207037
H187	H	1.506125	1.062693	-0.229270
H188	H	2.006125	1.562693	0.270730
H189	H	1.379901	0.404187	-0.742789
H190	H	1.879901	0.904187	-0.242789
H191	H	1.282102	0.944040	-0.374512
H192	H	1.782102	1.444040	0.125488
H193	H	1.236337	0.860989	-0.310727
H194	H	1.736337	1.360989	0.189273
H195	H	1.281874	0.540401	-0.374448
H196	H	1.781874	1.040401	0.125552
H197	H	1.506045	0.229160	-0.541010
H198	H	2.006045	0.729160	-0.041010
H199	H	1.506039	0.229113	-0.659716
H200	H	2.006039	0.729113	-0.159716
C201	C	1.410138	0.183237	-0.733451
C202	C	1.910138	0.683237	-0.233451
H203	H	1.414691	0.149604	-0.762308
H204	H	1.914691	0.649604	-0.262308
H205	H	1.466045	0.184058	-0.707936
H206	H	1.966045	0.684058	-0.207936
H207	H	1.354850	0.177742	-0.707916
H208	H	1.854850	0.677742	-0.207916
C209	C	1.410774	0.183223	-0.870859
C210	C	1.910774	0.683223	-0.370859
H211	H	1.409859	0.191303	-0.914514
H212	H	1.909859	0.691303	-0.414514
H213	H	1.469669	0.163469	-0.859999
H214	H	1.969669	0.663469	-0.359999
H215	H	1.358550	0.156618	-0.860273
H216	H	1.858550	0.656618	-0.360273
