data_functionalizedCrystal
_audit_creation_method	'MofGen! by Chris Wilmer'
_symmetry_space_group_name_H-M	'P1'
_symmetry_Int_Tables_number	1
_symmetry_cell_setting	triclinic
loop_
_symmetry_equiv_pos_as_xyz
  x,y,z
_cell_length_a	10.654550
_cell_length_b	15.944551
_cell_length_c	9.730223
_cell_angle_alpha	89.997716
_cell_angle_beta	89.996251
_cell_angle_gamma	83.991820
loop_
_atom_site_label
_atom_site_type_symbol
_atom_site_fract_x
_atom_site_fract_y
_atom_site_fract_z
O1	O	1.666308	0.117973	-0.114406
O2	O	1.300684	0.129213	-0.114384
O3	O	1.493480	0.001376	-0.114384
O4	O	1.473511	0.245810	-0.114407
O5	O	1.493478	0.001379	0.114196
O6	O	1.300681	0.129216	0.114196
O7	O	1.666305	0.117976	0.114174
Zn8	Zn	1.483493	0.123597	0.150477
Zn9	Zn	1.483496	0.123592	-0.150687
O10	O	1.473509	0.245813	0.114173
C11	C	1.253895	0.128389	-0.000092
C12	C	1.114484	0.125920	-0.000083
C13	C	1.034024	0.201188	-0.000110
C14	C	0.903034	0.198863	-0.000134
C15	C	0.932975	0.045995	-0.000108
C16	C	1.063963	0.048321	-0.000075
C17	C	1.016737	0.289446	-0.000131
C18	C	0.885746	0.287121	-0.000154
C19	C	1.492650	-0.029921	-0.000093
C20	C	1.490165	-0.123182	-0.000092
C21	C	1.364720	-0.338765	-0.000104
C22	C	1.422971	-0.399443	0.112596
C23	C	1.485668	-0.293934	-0.000103
C24	C	1.423002	-0.399430	-0.112765
C25	C	1.481317	-0.458872	-0.000119
C26	C	1.543953	-0.353384	0.112691
C27	C	1.543967	-0.353364	-0.112772
C28	C	1.602306	-0.414024	-0.000045
C29	C	1.488172	-0.198917	-0.000092
C30	C	1.478822	-0.553887	-0.000119
C31	C	1.713094	0.118800	-0.000122
C32	C	1.852505	0.121269	-0.000140
C33	C	1.474339	0.277110	-0.000120
C34	C	1.476824	0.370371	-0.000130
N35	N	1.483500	0.123599	0.356013
N36	N	1.483499	0.123583	-0.356224
C37	C	1.568892	0.067012	0.427939
C38	C	1.568889	0.067002	0.571822
C39	C	1.398098	0.180173	0.571840
C40	C	1.398096	0.180178	0.427959
C41	C	1.667501	0.001676	0.427931
C42	C	1.667498	0.001666	0.571814
H43	H	0.839729	0.313795	0.098527
H44	H	1.371814	-0.419846	0.207881
H45	H	1.129470	-0.012970	-0.000033
C46	C	1.612007	-0.326168	0.239830
C47	C	1.613461	-0.238468	0.238401
C48	C	1.676121	-0.213364	0.355507
H49	H	1.696194	-0.352526	0.240272
H50	H	1.569319	-0.342262	0.319803
H51	H	1.656152	-0.222383	0.158449
H52	H	1.529292	-0.212089	0.237979
H53	H	1.633432	-0.229457	0.435480
H54	H	1.760304	-0.239727	0.355939
H55	H	1.677105	-0.153856	0.354559
H56	H	1.371831	-0.419804	-0.208051
H57	H	1.702787	-0.446602	0.000013
H58	H	0.843584	0.320374	-0.095825
C59	C	1.611907	-0.326149	-0.239992
C60	C	1.548154	-0.349210	-0.357680
C61	C	1.610683	-0.324140	-0.474910
H62	H	1.695839	-0.352940	-0.241000
H63	H	1.613618	-0.266699	-0.238684
H64	H	1.546458	-0.408648	-0.358988
H65	H	1.464226	-0.322421	-0.356718
H66	H	1.612393	-0.264691	-0.473603
H67	H	1.694613	-0.350933	-0.475904
H68	H	1.567429	-0.339776	-0.554775
C69	C	1.230836	-0.295165	0.000329
C70	C	1.168089	-0.318380	0.118616
C71	C	1.044764	-0.278223	0.119077
H72	H	1.187286	-0.311558	-0.078826
H73	H	1.233297	-0.235776	-0.000416
H74	H	1.165621	-0.377756	0.119348
H75	H	1.211601	-0.301986	0.197790
H76	H	1.047225	-0.218834	0.118332
H77	H	1.001225	-0.294620	0.039916
H78	H	1.002178	-0.293963	0.199339
H79	H	1.758420	0.022134	0.383297
H80	H	1.328552	0.226248	0.369398
H81	H	1.646893	-0.062885	0.388884
H82	H	1.045621	0.323965	0.095532
H83	H	1.328563	0.226238	0.630434
H84	H	1.763823	0.016057	0.610857
C85	C	0.877877	-0.038169	-0.000179
C86	C	0.745941	-0.024098	-0.000244
C87	C	0.695145	-0.101611	-0.000329
H88	H	0.905337	-0.069256	0.079518
H89	H	0.905443	-0.069202	-0.079914
H90	H	0.718386	0.006922	0.079483
H91	H	0.718446	0.006976	-0.079935
H92	H	0.722712	-0.132644	-0.080064
H93	H	0.722615	-0.132692	0.079369
H94	H	0.605623	-0.092075	-0.000386
C95	C	1.063555	0.326981	-0.131786
C96	C	0.961050	0.349468	-0.219044
C97	C	1.004129	0.384054	-0.340330
H98	H	1.121666	0.286553	-0.176228
H99	H	1.104184	0.375630	-0.110423
H100	H	0.920440	0.300825	-0.240409
H101	H	0.902929	0.389903	-0.174645
H102	H	1.044759	0.432704	-0.318968
H103	H	1.062241	0.343623	-0.384760
H104	H	0.934586	0.399324	-0.399545
C105	C	1.627694	-0.079688	0.631120
C106	C	1.505483	-0.090424	0.586463
C107	C	1.468793	-0.165365	0.641046
H108	H	1.628950	-0.076991	0.728626
H109	H	1.684445	-0.125943	0.600908
H110	H	1.448747	-0.044181	0.616683
H111	H	1.504195	-0.093136	0.488964
H112	H	1.525544	-0.211621	0.610834
H113	H	1.470056	-0.162662	0.738550
H114	H	1.385874	-0.172664	0.610744
