data_functionalizedCrystal
_audit_creation_method	'MofGen! by Chris Wilmer'
_symmetry_space_group_name_H-M	'P1'
_symmetry_Int_Tables_number	1
_symmetry_cell_setting	triclinic
loop_
_symmetry_equiv_pos_as_xyz
  x,y,z
_cell_length_a	19.188930
_cell_length_b	14.971486
_cell_length_c	17.666332
_cell_angle_alpha	90.007460
_cell_angle_beta	90.010342
_cell_angle_gamma	83.379455
loop_
_atom_site_label
_atom_site_type_symbol
_atom_site_fract_x
_atom_site_fract_y
_atom_site_fract_z
O1	O	0.090986	1.186470	0.062926
O2	O	0.424320	1.519804	0.396259
O3	O	0.757653	1.853137	0.729592
O4	O	0.101882	0.926013	0.062935
O5	O	0.435216	1.259346	0.396268
O6	O	0.768549	1.592679	0.729602
O7	O	-0.005197	1.063758	0.062915
O8	O	0.328136	1.397091	0.396249
O9	O	0.661470	1.730424	0.729582
O10	O	0.198066	1.048725	0.062945
O11	O	0.531399	1.382058	0.396279
O12	O	0.864732	1.715392	0.729612
O13	O	-0.005200	1.063733	-0.062981
O14	O	0.328133	1.397067	0.270352
O15	O	0.661466	1.730400	0.603685
O16	O	0.101879	0.925988	-0.062962
O17	O	0.435212	1.259322	0.270372
O18	O	0.768546	1.592655	0.603705
O19	O	0.090983	1.186446	-0.062971
O20	O	0.424316	1.519779	0.270362
O21	O	0.757650	1.853113	0.603696
Cu22	Cu	0.096431	1.056215	-0.074462
Cu23	Cu	0.429764	1.389548	0.258872
Cu24	Cu	0.763097	1.722882	0.592205
Cu25	Cu	0.096435	1.056244	0.074426
Cu26	Cu	0.429768	1.389577	0.407759
Cu27	Cu	0.763101	1.722910	0.741092
O28	O	0.198063	1.048701	-0.062951
O29	O	0.531396	1.382034	0.270382
O30	O	0.864729	1.715368	0.603715
C31	C	-0.031211	1.063259	-0.000035
C32	C	0.302122	1.396592	0.333298
C33	C	0.635455	1.729925	0.666631
C34	C	-0.108721	1.061797	-0.000042
C35	C	0.224613	1.395131	0.333292
C36	C	0.557946	1.728464	0.666625
C37	C	0.101393	0.892678	-0.000012
C38	C	0.434727	1.226012	0.333321
C39	C	0.768060	1.559345	0.666654
C40	C	0.099933	0.793389	-0.000009
C41	C	0.433266	1.126722	0.333324
C42	C	0.766600	1.460056	0.666657
C43	C	0.091472	1.219780	-0.000022
C44	C	0.424805	1.553114	0.333311
C45	C	0.758139	1.886447	0.666645
C46	C	0.092932	1.319070	-0.000020
C47	C	0.426266	1.652403	0.333313
C48	C	0.759599	1.985736	0.666647
C49	C	-0.153384	1.142622	-0.000048
C50	C	0.179949	1.475955	0.333285
C51	C	0.513282	1.809288	0.666618
C52	C	-0.226213	1.141249	-0.000036
C53	C	0.107121	1.474582	0.333297
C54	C	0.440454	1.807916	0.666631
C55	C	-0.254374	1.059047	-0.000033
C56	C	0.078960	1.392380	0.333301
C57	C	0.412293	1.725714	0.666634
C58	C	-0.209700	0.978212	-0.000022
C59	C	0.123633	1.311545	0.333312
C60	C	0.456967	1.644879	0.666645
C61	C	-0.136873	0.979587	-0.000026
C62	C	0.196460	1.312921	0.333307
C63	C	0.529793	1.646254	0.666640
N64	N	-0.362582	0.996205	-0.042875
N65	N	-0.029249	1.329539	0.290458
N66	N	0.304085	1.662872	0.623791
N67	N	-0.431765	0.994904	-0.042873
N68	N	-0.098431	1.328238	0.290461
N69	N	0.234902	1.661571	0.623794
C70	C	-0.473796	1.054899	-0.000017
C71	C	-0.140462	1.388232	0.333316
C72	C	0.192871	1.721565	0.666650
N73	N	-0.444032	1.116257	0.042826
N74	N	-0.110698	1.449590	0.376159
N75	N	0.222635	1.782923	0.709493
N76	N	-0.374843	1.117560	0.042820
N77	N	-0.041509	1.450894	0.376153
N78	N	0.291824	1.784227	0.709487
C79	C	-0.333341	1.057547	-0.000027
C80	C	-0.000008	1.390880	0.333306
C81	C	0.333326	1.724213	0.666640
C82	C	-0.597429	1.134240	-0.000009
C83	C	-0.264095	1.467573	0.333324
C84	C	0.069238	1.800907	0.666657
C85	C	-0.670258	1.132864	0.000008
C86	C	-0.336925	1.466197	0.333341
C87	C	-0.003591	1.799530	0.666674
C88	C	-0.653744	0.969825	0.000014
C89	C	-0.320411	1.303158	0.333348
C90	C	0.012923	1.636491	0.666681
C91	C	-0.580916	0.971203	0.000005
C92	C	-0.247583	1.304537	0.333338
C93	C	0.085750	1.637870	0.666672
C94	C	-0.552763	1.053413	-0.000010
C95	C	-0.219430	1.386747	0.333323
C96	C	0.113903	1.720080	0.666656
C97	C	0.224077	1.049200	0.000001
C98	C	0.557410	1.382533	0.333334
C99	C	0.890743	1.715867	0.666668
C100	C	0.301586	1.050661	0.000012
C101	C	0.634919	1.383994	0.333346
C102	C	0.968253	1.717328	0.666679
N103	N	0.096428	1.056201	-0.179181
N104	N	0.429761	1.389535	0.154152
N105	N	0.763094	1.722868	0.487485
C106	C	0.030026	1.376627	-0.000027
C107	C	0.363359	1.709961	0.333307
C108	C	0.696693	2.043294	0.666640
C109	C	0.031402	1.469919	-0.000029
C110	C	0.364736	1.803253	0.333304
C111	C	0.698069	2.136586	0.666637
C112	C	0.095685	1.505652	-0.000020
C113	C	0.429019	1.838986	0.333314
C114	C	0.762352	2.172319	0.666647
C115	C	0.158597	1.448087	-0.000015
C116	C	0.491930	1.781421	0.333318
C117	C	0.825263	2.114754	0.666652
C118	C	0.157220	1.354797	-0.000018
C119	C	0.490553	1.688130	0.333315
C120	C	0.823886	2.021464	0.666649
C121	C	0.161462	1.642535	-0.000007
C122	C	0.494795	1.975868	0.333326
C123	C	0.828129	2.309201	0.666660
C124	C	0.162839	1.735831	-0.000003
C125	C	0.496173	2.069165	0.333331
C126	C	0.829506	2.402498	0.666664
C127	C	0.035645	1.757657	-0.000018
C128	C	0.368978	2.090990	0.333315
C129	C	0.702311	2.424324	0.666649
C130	C	0.034268	1.664367	-0.000021
C131	C	0.367601	1.997700	0.333312
C132	C	0.700934	2.331033	0.666646
C133	C	0.097179	1.606808	-0.000015
C134	C	0.430513	1.940142	0.333318
C135	C	0.763846	2.273475	0.666651
C136	C	0.138847	1.110274	-0.218780
C137	C	0.472181	1.443608	0.114553
C138	C	0.805514	1.776941	0.447887
C139	C	0.138845	1.110289	-0.298028
C140	C	0.472179	1.443622	0.035306
C141	C	0.805512	1.776955	0.368639
C142	C	0.096432	1.056213	-0.337673
C143	C	0.429765	1.389547	-0.004340
C144	C	0.763099	1.722880	0.328993
C145	C	0.054004	1.002137	-0.298065
C146	C	0.387337	1.335470	0.035268
C147	C	0.720670	1.668804	0.368602
C148	C	0.054002	1.002131	-0.218819
C149	C	0.387335	1.335464	0.114514
C150	C	0.720668	1.668798	0.447848
N151	N	0.094460	0.977878	-0.462111
N152	N	0.427793	1.311211	-0.128777
N153	N	0.761126	1.644544	0.204556
N154	N	0.094466	0.977886	-0.537391
N155	N	0.427799	1.311219	-0.204058
N156	N	0.761132	1.644552	0.129276
C157	C	0.096434	1.056230	-0.576437
C158	C	0.429768	1.389563	-0.243104
C159	C	0.763101	1.722896	0.090229
N160	N	0.098411	1.134566	-0.537359
N161	N	0.431744	1.467900	-0.204026
N162	N	0.765077	1.801233	0.129307
N163	N	0.098408	1.134557	-0.462072
N164	N	0.431742	1.467890	-0.128739
N165	N	0.765075	1.801224	0.204595
C166	C	0.096429	1.056214	-0.423602
C167	C	0.429762	1.389548	-0.090269
C168	C	0.763096	1.722881	0.243064
C169	C	0.138854	1.110323	-0.701966
C170	C	0.472187	1.443656	-0.368632
C171	C	0.805520	1.776989	-0.035299
C172	C	0.138847	1.110339	-0.781215
C173	C	0.472180	1.443672	-0.447881
C174	C	0.805514	1.777006	-0.114548
C175	C	0.054009	1.002179	-0.781250
C176	C	0.387343	1.335512	-0.447917
C177	C	0.720676	1.668846	-0.114584
C178	C	0.054012	1.002171	-0.702003
C179	C	0.387346	1.335504	-0.368669
C180	C	0.720679	1.668838	-0.035336
C181	C	0.096438	1.056242	-0.662365
C182	C	0.429772	1.389575	-0.329032
C183	C	0.763105	1.722908	0.004302
N184	N	0.096432	1.056264	0.179145
N185	N	0.429765	1.389598	0.512478
N186	N	0.763099	1.722931	0.845812
H187	H	-0.130467	1.209564	-0.000058
H188	H	0.202866	1.542897	0.333275
H189	H	0.536199	1.876230	0.666608
H190	H	-0.018077	1.635277	-0.000024
H191	H	0.315256	1.968610	0.333310
H192	H	0.648589	2.301943	0.666643
H193	H	0.019475	0.958151	-0.813529
H194	H	0.352808	1.291484	-0.480196
H195	H	0.686141	1.624818	-0.146862
H196	H	-0.574506	1.201180	-0.000018
H197	H	-0.241172	1.534514	0.333315
H198	H	0.092161	1.867847	0.666648
H199	H	-0.676672	0.902894	0.000021
H200	H	-0.343338	1.236228	0.333354
H201	H	-0.010005	1.569561	0.666688
H202	H	0.173390	1.154322	-0.330275
H203	H	0.506724	1.487655	0.003058
H204	H	0.840057	1.820988	0.336391
H205	H	0.173391	1.154306	-0.186512
H206	H	0.506724	1.487640	0.146821
H207	H	0.840058	1.820973	0.480155
H208	H	-0.544550	0.905387	0.000006
H209	H	-0.211216	1.238720	0.333339
H210	H	0.122117	1.572054	0.666673
H211	H	-0.022321	1.347542	-0.000030
H212	H	0.311013	1.680875	0.333303
H213	H	0.644346	2.014208	0.666637
H214	H	-0.019822	1.516780	-0.000038
H215	H	0.313511	1.850113	0.333295
H216	H	0.646844	2.183446	0.666629
H217	H	0.210937	1.477188	-0.000012
H218	H	0.544270	1.810521	0.333322
H219	H	0.877604	2.143855	0.666655
H220	H	0.208444	1.307933	-0.000015
H221	H	0.541778	1.641267	0.333318
H222	H	0.875111	1.974600	0.666651
H223	H	-0.015580	1.804526	-0.000021
H224	H	0.317753	2.137860	0.333312
H225	H	0.651087	2.471193	0.666646
H226	H	0.215184	1.764921	-0.000009
H227	H	0.548518	2.098255	0.333324
H228	H	0.881851	2.431588	0.666658
H229	H	0.212691	1.595672	-0.000008
H230	H	0.546025	1.929005	0.333326
H231	H	0.879358	2.262339	0.666659
H232	H	0.173399	1.154351	-0.669691
H233	H	0.506732	1.487684	-0.336358
H234	H	0.840066	1.821017	-0.003024
H235	H	0.019458	0.958097	-0.186578
H236	H	0.352791	1.291430	0.146755
H237	H	0.686125	1.624763	0.480089
H238	H	0.173388	1.154378	-0.813455
H239	H	0.506721	1.487711	-0.480121
H240	H	0.840055	1.821045	-0.146788
H241	H	-0.262585	1.207068	-0.000038
H242	H	0.070749	1.540401	0.333295
H243	H	0.404082	1.873734	0.666628
H244	H	-0.100507	0.913768	-0.000021
H245	H	0.232826	1.247102	0.333312
H246	H	0.566159	1.580435	0.666645
H247	H	0.019470	0.958109	-0.330350
H248	H	0.352803	1.291443	0.002984
H249	H	0.686136	1.624776	0.336317
H250	H	0.019473	0.958135	-0.669761
H251	H	0.352806	1.291469	-0.336428
H252	H	0.686139	1.624802	-0.003094
H253	H	-0.232634	0.911283	-0.000017
H254	H	0.100700	1.244616	0.333316
H255	H	0.434033	1.577949	0.666650
H256	H	-0.706623	1.198683	0.000006
H257	H	-0.373290	1.532017	0.333340
H258	H	-0.039957	1.865350	0.666673
