data_functionalizedCrystal
_audit_creation_method	'MofGen! by Chris Wilmer'
_symmetry_space_group_name_H-M	'P1'
_symmetry_Int_Tables_number	1
_symmetry_cell_setting	triclinic
loop_
_symmetry_equiv_pos_as_xyz
  x,y,z
_cell_length_a	14.853567
_cell_length_b	10.489716
_cell_length_c	13.930277
_cell_angle_alpha	89.999515
_cell_angle_beta	89.995755
_cell_angle_gamma	84.082033
loop_
_atom_site_label
_atom_site_type_symbol
_atom_site_fract_x
_atom_site_fract_y
_atom_site_fract_z
O1	O	1.197292	0.166530	-0.079756
O2	O	0.934942	0.186368	-0.079771
O3	O	1.072098	-0.009218	-0.079767
O4	O	1.060136	0.362116	-0.079760
O5	O	1.072079	-0.009223	0.079895
O6	O	0.934923	0.186363	0.079891
O7	O	1.197273	0.166526	0.079906
Zn8	Zn	1.066095	0.176444	0.105248
Zn9	Zn	1.066120	0.176449	-0.105113
O10	O	1.060117	0.362111	0.079901
C11	C	0.901339	0.185467	0.000058
C12	C	0.801240	0.182773	0.000051
C13	C	0.387999	0.055204	0.000071
C14	C	0.368007	0.287565	0.000074
C15	C	0.462054	0.290098	0.000071
C16	C	0.519079	0.175182	0.000066
C17	C	0.482056	0.057734	0.000065
C18	C	0.499085	0.407544	0.000062
C19	C	0.593138	0.410081	0.000058
C20	C	0.650164	0.295164	0.000061
C21	C	0.613136	0.177711	0.000060
C22	C	0.670160	0.062795	0.000056
C23	C	0.633134	-0.054659	0.000062
C24	C	0.539082	-0.057183	0.000067
C25	C	0.744216	0.297689	0.000056
C26	C	0.764217	0.065325	0.000050
C27	C	1.071190	-0.056743	0.000061
C28	C	1.068501	-0.198343	0.000052
C29	C	1.152609	-0.296961	0.000066
C30	C	1.108174	-0.373821	-0.078656
C31	C	1.108135	-0.373789	0.078758
C32	C	1.024101	-0.273338	-0.078734
C33	C	1.024075	-0.273301	0.078750
C34	C	0.979577	-0.350111	0.000009
C35	C	1.230876	0.167426	0.000075
C36	C	1.330974	0.170120	0.000075
C37	C	1.061025	0.409636	0.000071
C38	C	1.063714	0.551236	0.000074
N39	N	1.066084	0.176439	0.248814
N40	N	1.066138	0.176444	-0.248679
C41	C	1.005385	0.263021	0.701081
C42	C	1.126880	0.089868	0.701055
C43	C	1.126869	0.089864	0.600559
C44	C	1.066116	0.176441	0.550320
C45	C	1.005374	0.263022	0.600576
C46	C	1.187617	0.003293	0.550295
C47	C	1.187609	0.003287	0.449793
C48	C	1.126851	0.089859	0.399552
C49	C	1.066106	0.176442	0.449815
C50	C	1.005353	0.263019	0.399576
C51	C	0.944602	0.349597	0.449836
C52	C	0.944616	0.349594	0.550335
C53	C	1.126837	0.089862	0.299053
C54	C	1.005342	0.263020	0.299071
H55	H	0.508926	-0.152809	0.000095
H56	H	0.895156	0.420084	0.591264
Cl57	Cl	0.341454	-0.092445	0.000084
Cl58	Cl	1.163002	-0.441592	-0.181403
H59	H	0.452649	0.501102	0.000056
Cl60	Cl	0.639677	0.557735	0.000053
H61	H	0.321572	0.381124	0.000069
H62	H	0.774359	0.393318	0.000052
Cl63	Cl	1.265560	-0.260124	-0.000046
Cl64	Cl	0.969329	-0.205871	-0.181605
Cl65	Cl	0.866541	-0.386568	-0.000059
H66	H	0.988592	-0.229386	0.145303
H67	H	1.237084	-0.067189	0.591203
H68	H	0.895140	0.420095	0.408920
Cl69	Cl	0.929013	0.371853	0.764261
H70	H	1.176348	0.019386	0.741963
Cl71	Cl	1.162965	-0.441522	0.181510
H72	H	1.237074	-0.067211	0.408877
Cl73	Cl	0.928957	0.371860	0.235921
H74	H	1.176303	0.019377	0.258136
H75	H	0.810641	-0.028255	0.000050
Cl76	Cl	0.704832	-0.199118	0.000049
