data_functionalizedCrystal
_audit_creation_method	'MofGen! by Chris Wilmer'
_symmetry_space_group_name_H-M	'P1'
_symmetry_Int_Tables_number	1
_symmetry_cell_setting	triclinic
loop_
_symmetry_equiv_pos_as_xyz
  x,y,z
_cell_length_a	13.339070
_cell_length_b	10.868271
_cell_length_c	11.792254
_cell_angle_alpha	90.001586
_cell_angle_beta	99.913946
_cell_angle_gamma	90.005479
loop_
_atom_site_label
_atom_site_type_symbol
_atom_site_fract_x
_atom_site_fract_y
_atom_site_fract_z
O1	O	1.345432	0.102369	0.569976
O2	O	1.050492	0.102362	0.495162
O3	O	1.205113	0.102357	0.369602
O4	O	1.190811	0.102374	0.695536
O5	O	1.205099	-0.102288	0.369603
O6	O	1.050478	-0.102283	0.495163
O7	O	1.345418	-0.102275	0.569977
Zn8	Zn	1.197946	-0.134771	0.532570
Zn9	Zn	1.197964	0.134857	0.532569
O10	O	1.190797	-0.102271	0.695537
C11	C	1.012726	0.000038	0.482525
C12	C	0.900216	0.000035	0.444856
N13	N	1.197940	-0.318785	0.532573
C14	C	0.537041	0.000070	0.737752
C15	C	0.642750	0.000077	0.773148
C16	C	0.707121	0.000066	0.691078
C17	C	0.665774	0.000049	0.573606
C18	C	0.560056	0.000052	0.538207
C19	C	0.730136	0.000048	0.491533
C20	C	0.688789	0.000031	0.374061
C21	C	0.583080	0.000033	0.338668
C22	C	0.518709	0.000044	0.420738
C23	C	0.835854	0.000045	0.526932
C24	C	0.858869	0.000027	0.327387
C25	C	0.753160	0.000020	0.291991
C26	C	1.197948	-0.430123	0.532576
C27	C	1.197962	-0.569800	0.532569
C28	C	1.383184	0.000051	0.582614
C29	C	1.495694	0.000062	0.620283
C30	C	1.204205	0.000035	0.327034
C31	C	1.201508	0.000036	0.200191
N32	N	1.197978	0.318871	0.532559
C33	C	1.199317	0.000040	0.097179
C34	C	1.196578	0.000052	-0.032051
C35	C	1.191705	0.000054	0.738105
C36	C	1.194402	0.000061	0.864948
H37	H	0.869508	0.000054	0.622578
H38	H	0.793193	0.000074	0.719904
C39	C	0.467032	0.000277	0.826719
C40	C	0.405667	0.105552	0.812197
C41	C	0.341151	0.105778	0.894129
H42	H	0.506664	0.000345	0.901806
H43	H	0.425245	-0.071047	0.817046
H44	H	0.447449	0.176857	0.821880
H45	H	0.366014	0.105506	0.737127
H46	H	0.299364	0.034454	0.884455
H47	H	0.380791	0.105843	0.969209
H48	H	0.299501	0.177199	0.884280
H49	H	0.676406	0.000100	0.868793
H50	H	0.719481	0.000017	0.196344
C51	C	0.538329	0.000216	0.211090
C52	C	0.571022	0.105479	0.159500
C53	C	0.529833	0.105681	0.041974
H54	H	0.466155	0.000284	0.201598
H55	H	0.560405	-0.071116	0.175847
H56	H	0.548941	0.176792	0.194732
H57	H	0.643191	0.105433	0.168960
H58	H	0.551908	0.034349	0.006732
H59	H	0.457660	0.105746	0.032494
H60	H	0.552016	0.177094	0.006954
C61	C	0.928866	0.000206	0.238396
C62	C	0.990259	0.105473	0.252909
C63	C	1.054768	0.105676	0.170970
H64	H	0.889229	0.000269	0.163312
H65	H	0.970635	-0.071123	0.248067
H66	H	0.948495	0.176783	0.243228
H67	H	1.029917	0.105432	0.327976
H68	H	1.096536	0.034347	0.180641
H69	H	1.015122	0.105735	0.095892
H70	H	1.096436	0.177092	0.180812
H71	H	0.432631	0.000038	0.391924
