data_functionalizedCrystal
_audit_creation_method	'MofGen! by Chris Wilmer'
_symmetry_space_group_name_H-M	'P1'
_symmetry_Int_Tables_number	1
_symmetry_cell_setting	triclinic
loop_
_symmetry_equiv_pos_as_xyz
  x,y,z
_cell_length_a	19.805405
_cell_length_b	10.685972
_cell_length_c	19.805399
_cell_angle_alpha	94.391621
_cell_angle_beta	89.969291
_cell_angle_gamma	85.609248
loop_
_atom_site_label
_atom_site_type_symbol
_atom_site_fract_x
_atom_site_fract_y
_atom_site_fract_z
Zn1	Zn	-0.190219	-1.929096	-0.462150
Zn2	Zn	-0.303416	-1.928948	-0.348952
Zn3	Zn	-0.198909	-1.718087	-0.340285
Zn4	Zn	-0.312043	-1.718009	-0.453412
O5	O	-0.251147	-1.823535	-0.401200
O6	O	-0.197988	-2.105663	-0.454417
O7	O	-0.289580	-1.900947	-0.253084
O8	O	-0.103036	-1.746173	-0.356480
O9	O	-0.281153	-2.105554	-0.371251
O10	O	-0.096651	-1.901201	-0.446014
O11	O	-0.212799	-1.746028	-0.246717
O12	O	-0.221164	-1.541490	-0.348008
O13	O	-0.295857	-1.746040	-0.549289
O14	O	-0.304283	-1.541433	-0.431122
O15	O	-0.206353	-1.901125	-0.555708
O16	O	-0.399281	-1.900871	-0.362779
O17	O	-0.405619	-1.745896	-0.439526
C18	C	-0.264603	-1.495674	-0.387677
C19	C	-0.270376	-1.355414	-0.381908
C20	C	-0.427009	-1.823393	-0.401161
C21	C	-0.502239	-1.823448	-0.401172
C22	C	-0.534257	-1.904222	-0.361259
C23	C	-0.604943	-1.904275	-0.361276
C24	C	-0.643610	-1.823548	-0.401203
C25	C	-0.611587	-1.742770	-0.441121
C26	C	-0.540902	-1.742724	-0.441107
C27	C	-0.896653	-1.742956	-0.441179
C28	C	-0.967343	-1.743006	-0.441188
C29	C	-0.960694	-1.904508	-0.361347
C30	C	-0.890009	-1.904462	-0.361334
C31	C	-0.857992	-1.823689	-0.401254
C32	C	-0.781345	-1.823634	-0.401236
C33	C	-0.720255	-1.823596	-0.401218
C34	C	-0.074597	-1.823712	-0.401255
C35	C	0.000638	-1.823787	-0.401278
C36	C	-0.251098	-1.823590	-0.577745
C37	C	-0.251077	-1.823614	-0.652978
C38	C	-0.237634	-1.152676	-0.414773
C39	C	-0.231864	-1.292936	-0.420548
C40	C	-0.211092	-1.742971	-0.685007
C41	C	-0.211078	-1.742988	-0.755696
C42	C	-0.251046	-1.823656	-0.794355
C43	C	-0.291035	-1.904303	-0.762321
C44	C	-0.291052	-1.904278	-0.691633
C45	C	-0.290968	-1.904403	-1.047399
C46	C	-0.290946	-1.904424	-1.118092
C47	C	-0.210993	-1.743113	-1.111462
C48	C	-0.211011	-1.743088	-1.040774
C49	C	-0.251002	-1.823730	-1.008746
C50	C	-0.251018	-1.823708	-0.932096
C51	C	-0.251027	-1.823685	-0.871004
C52	C	-0.251144	-1.823553	-0.225344
C53	C	-0.250964	-1.823773	-0.150122
H54	H	-0.502778	-1.969954	-0.328742
Cl55	Cl	-0.341285	-2.005706	-0.810921
H56	H	-0.194473	-1.346749	-0.458043
H57	H	-0.986770	-1.970282	-0.328845
H58	H	-0.998824	-1.677269	-0.473707
Cl59	Cl	-0.160843	-1.641545	-0.795956
H60	H	-0.514834	-1.676951	-0.473610
Cl61	Cl	-0.645191	-2.005829	-0.311099
H62	H	-0.323495	-1.970116	-1.149567
H63	H	-0.870590	-1.677186	-0.473682
H64	H	-0.178462	-1.677405	-1.009301
Cl65	Cl	-0.160720	-1.641728	-1.151730
Cl66	Cl	-0.328103	-1.272330	-0.324006
Cl67	Cl	-0.160840	-1.641560	-0.636414
Cl68	Cl	-0.341324	-2.005657	-0.651368
H69	H	-0.643075	-1.677045	-0.473634
H70	H	-0.858528	-1.970193	-0.328818
Cl71	Cl	-0.341238	-2.005790	-1.007145
