data_functionalizedCrystal
_audit_creation_method	'MofGen! by Chris Wilmer'
_symmetry_space_group_name_H-M	'P1'
_symmetry_Int_Tables_number	1
_symmetry_cell_setting	triclinic
loop_
_symmetry_equiv_pos_as_xyz
  x,y,z
_cell_length_a	16.625547
_cell_length_b	18.101397
_cell_length_c	16.625539
_cell_angle_alpha	90.031854
_cell_angle_beta	90.024822
_cell_angle_gamma	90.020402
loop_
_atom_site_label
_atom_site_type_symbol
_atom_site_fract_x
_atom_site_fract_y
_atom_site_fract_z
Zn1	Zn	1.232692	-0.294829	0.455981
Zn2	Zn	1.732692	0.205171	0.955981
Zn3	Zn	1.232600	-0.418678	0.321140
Zn4	Zn	1.732600	0.081322	0.821140
Zn5	Zn	1.097854	-0.294855	0.321151
Zn6	Zn	1.597854	0.205145	0.821151
Zn7	Zn	1.097829	-0.418634	0.455920
Zn8	Zn	1.597829	0.081366	0.955920
O9	O	1.165243	-0.356749	0.388548
O10	O	1.665243	0.143251	0.888548
O11	O	1.345512	-0.311266	0.438115
O12	O	1.845512	0.188734	0.938115
O13	O	1.214697	-0.402283	0.208309
O14	O	1.714697	0.097717	0.708309
O15	O	1.115789	-0.191219	0.339067
O16	O	1.615789	0.308781	0.839067
O17	O	1.345444	-0.402258	0.339048
O18	O	1.845444	0.097742	0.839048
O19	O	1.214854	-0.191200	0.438126
O20	O	1.714854	0.308800	0.938126
O21	O	1.115700	-0.311310	0.208317
O22	O	1.615700	0.188690	0.708317
O23	O	0.985018	-0.311267	0.339008
O24	O	1.485018	0.188733	0.839008
O25	O	1.115747	-0.402181	0.568760
O26	O	1.615747	0.097819	1.068760
O27	O	0.985000	-0.402206	0.438022
O28	O	1.485000	0.097794	0.938022
O29	O	1.214830	-0.311223	0.568805
O30	O	1.714830	0.188777	1.068805
O31	O	1.214673	-0.522305	0.338988
O32	O	1.714673	-0.022305	0.838988
O33	O	1.115657	-0.522272	0.438010
O34	O	1.615657	-0.022272	0.938010
C35	C	0.955753	-0.356735	0.388510
C36	C	1.455753	0.143265	0.888510
C37	C	0.866131	-0.356746	0.388513
C38	C	1.366131	0.143254	0.888513
C39	C	0.793349	-0.356748	0.388523
C40	C	1.293349	0.143252	0.888523
C41	C	0.702041	-0.356752	0.388543
C42	C	1.202041	0.143248	0.888543
C43	C	0.629264	-0.356759	0.388563
C44	C	1.129264	0.143241	0.888563
C45	C	0.537950	-0.356764	0.388583
C46	C	1.037950	0.143236	0.888583
C47	C	1.165174	-0.549160	0.388509
C48	C	1.665174	-0.049160	0.888509
C49	C	1.165219	-0.631474	0.388519
C50	C	1.665219	-0.131474	0.888519
C51	C	1.165322	-0.930565	0.388593
C52	C	1.665322	-0.430565	0.888593
C53	C	1.227446	-0.899230	0.326124
C54	C	1.727446	-0.399230	0.826124
C55	C	1.227661	-0.813611	0.326286
C56	C	1.727661	-0.313611	0.826286
C57	C	1.165271	-0.782182	0.388556
C58	C	1.665271	-0.282182	0.888556
C59	C	1.188307	-0.813188	0.473547
C60	C	1.688307	-0.313188	0.973547
C61	C	1.188788	-0.898833	0.473207
C62	C	1.688788	-0.398833	0.973207
C63	C	1.079995	-0.899074	0.366805
C64	C	1.579995	-0.399074	0.866805
C65	C	1.080417	-0.813425	0.364908
C66	C	1.580417	-0.313425	0.864908
C67	C	1.165240	-0.698323	0.388540
C68	C	1.665240	-0.198323	0.888540
C69	C	1.165354	-1.014424	0.388614
C70	C	1.665354	-0.514424	0.888614
C71	C	1.375552	-0.356764	0.388587
C72	C	1.875552	0.143236	0.888587
C73	C	1.465173	-0.356771	0.388603
C74	C	1.965173	0.143229	0.888603
C75	C	1.165296	-0.356694	0.598857
C76	C	1.665296	0.143306	1.098857
C77	C	1.165318	-0.356670	0.688478
C78	C	1.665318	0.143330	1.188478
C79	C	1.165335	-0.163587	0.388605
C80	C	1.665335	0.336413	0.888605
C81	C	1.165373	-0.081273	0.388629
C82	C	1.665373	0.418727	0.888629
C83	C	1.165238	-0.356751	0.179057
C84	C	1.665238	0.143249	0.679057
C85	C	1.165371	-0.356566	0.089437
C86	C	1.665371	0.143434	0.589437
C87	C	1.165355	-0.356588	1.016654
C88	C	1.665355	0.143412	1.516654
C89	C	1.165343	-0.356613	0.925346
C90	C	1.665343	0.143387	1.425346
C91	C	1.165337	-0.356630	0.852569
C92	C	1.665337	0.143370	1.352569
C93	C	1.165324	-0.356654	0.761255
C94	C	1.665324	0.143346	1.261255
H95	H	1.213249	-0.792651	0.263266
H96	H	1.713249	-0.292651	0.763266
H97	H	1.213208	-0.919874	0.262915
H98	H	1.713208	-0.419874	0.762915
H99	H	1.059039	-0.920736	0.305904
H100	H	1.559039	-0.420736	0.805904
H101	H	1.251157	-0.918751	0.491662
H102	H	1.751157	-0.418751	0.991662
O103	O	1.059794	-0.789164	0.290299
O104	O	1.559794	-0.289164	0.790299
C105	C	1.121811	-0.744170	0.259561
C106	C	1.621811	-0.244170	0.759561
H107	H	1.158787	-0.720858	0.311464
H108	H	1.658787	-0.220858	0.811464
H109	H	1.094481	-0.696794	0.223618
H110	H	1.594481	-0.196794	0.723618
H111	H	1.162314	-0.778473	0.218745
H112	H	1.662314	-0.278473	0.718745
O113	O	1.302391	-0.924884	0.343246
O114	O	1.802391	-0.424884	0.843246
C115	C	1.298922	-0.971071	0.411417
C116	C	1.798922	-0.471071	0.911417
H117	H	1.243403	-0.956763	0.448495
H118	H	1.743403	-0.456763	0.948495
H119	H	1.355188	-0.962579	0.449535
H120	H	1.855188	-0.462579	0.949535
H121	H	1.295370	-1.031217	0.391347
H122	H	1.795370	-0.531217	0.891347
H123	H	1.031640	-0.792038	0.407075
H124	H	1.531640	-0.292038	0.907075
H125	H	1.145521	-0.919558	0.521356
H126	H	1.645521	-0.419558	1.021356
O127	O	1.261858	-0.787580	0.496077
O128	O	1.761858	-0.287580	0.996077
C129	C	1.281644	-0.815966	0.572520
C130	C	1.781644	-0.315966	1.072520
H131	H	1.224215	-0.831954	0.605669
H132	H	1.724215	-0.331954	1.105669
H133	H	1.315257	-0.772110	0.608521
H134	H	1.815257	-0.272110	1.108521
H135	H	1.321461	-0.866786	0.565186
H136	H	1.821461	-0.366786	1.065186
O137	O	1.303080	-0.789062	0.343347
O138	O	1.803080	-0.289062	0.843347
C139	C	1.331646	-0.745841	0.278867
C140	C	1.831646	-0.245841	0.778867
H141	H	1.298057	-0.761468	0.221534
H142	H	1.798057	-0.261468	0.721534
H143	H	1.398723	-0.756225	0.270282
H144	H	1.898723	-0.256225	0.770282
H145	H	1.321259	-0.684884	0.292645
H146	H	1.821259	-0.184884	0.792645
H147	H	1.033708	-0.919339	0.412304
H148	H	1.533708	-0.419339	0.912304
O149	O	1.135931	-0.788805	0.530479
O150	O	1.635931	-0.288805	1.030479
C151	C	1.077495	-0.743262	0.494200
C152	C	1.577495	-0.243262	0.994200
H153	H	1.102337	-0.719872	0.435604
H154	H	1.602337	-0.219872	0.935604
H155	H	1.061715	-0.695955	0.536639
H156	H	1.561715	-0.195955	1.036639
H157	H	1.021181	-0.777131	0.481022
H158	H	1.521181	-0.277131	0.981022
