data_functionalizedCrystal
_audit_creation_method	'MofGen! by Chris Wilmer'
_symmetry_space_group_name_H-M	'P1'
_symmetry_Int_Tables_number	1
_symmetry_cell_setting	triclinic
loop_
_symmetry_equiv_pos_as_xyz
  x,y,z
_cell_length_a	19.377372
_cell_length_b	21.606444
_cell_length_c	21.606444
_cell_angle_alpha	60.000398
_cell_angle_beta	89.998894
_cell_angle_gamma	72.112173
loop_
_atom_site_label
_atom_site_type_symbol
_atom_site_fract_x
_atom_site_fract_y
_atom_site_fract_z
Zr1	Zr	0.580554	0.861714	-0.173331
O2	O	0.484327	0.960293	-0.256882
O3	O	0.610054	0.741958	-0.147721
O4	O	0.610054	0.871080	-0.276838
O5	O	0.484327	0.831169	-0.025911
O6	O	0.709228	0.902557	-0.292576
O7	O	0.484327	0.831172	-0.127765
O8	O	0.709229	0.671583	-0.061610
O9	O	0.484326	1.062143	-0.256878
O10	O	0.696647	0.822550	-0.148540
O11	O	0.622634	0.799057	-0.060783
O12	O	0.622633	0.951081	-0.212802
O13	O	0.548620	0.927588	-0.125044
Zr14	Zr	0.738725	0.911913	-0.035987
Zr15	Zr	0.738726	0.911917	-0.198432
Zr16	Zr	0.580553	0.861710	-0.010886
Zr17	Zr	0.580553	1.024154	-0.173325
Zr18	Zr	0.738727	0.749473	-0.035993
O19	O	0.709225	1.031669	-0.061597
O20	O	0.709227	1.031675	-0.292572
O21	O	0.484325	0.960287	-0.025907
O22	O	0.834953	0.813335	0.047563
O23	O	0.834954	0.813340	-0.183411
O24	O	0.610053	0.741952	0.083254
O25	O	0.834953	0.942458	-0.183407
O26	O	0.709226	0.902548	0.067520
O27	O	0.610051	0.871070	0.083258
O28	O	0.834952	0.942456	-0.081554
O29	O	0.610051	1.102048	-0.276830
O30	O	0.709228	0.671579	0.067512
O31	O	0.834954	0.711484	0.047560
O32	O	0.834955	0.711487	-0.081561
O33	O	0.484325	1.062140	-0.127757
O34	O	0.610050	1.102045	-0.147709
O35	O	0.696646	0.822547	0.003484
O36	O	0.770660	0.846040	-0.084274
O37	O	0.696646	0.974570	-0.148535
O38	O	0.622632	0.951077	-0.060778
C39	C	0.659642	0.683626	-0.104666
C40	C	0.659643	0.614666	-0.104668
C41	C	0.698275	0.594532	-0.150478
C42	C	0.698278	0.529732	-0.150473
C43	C	0.659643	0.485072	-0.104662
C44	C	0.621009	0.505209	-0.058848
C45	C	0.621012	0.570004	-0.058849
C46	C	0.621001	0.243897	-0.058840
C47	C	0.621000	0.179100	-0.058844
C48	C	0.698267	0.203625	-0.150464
C49	C	0.698269	0.268420	-0.150465
C50	C	0.659639	0.288550	-0.104648
C51	C	0.659638	0.358812	-0.104653
C52	C	0.659640	0.414814	-0.104661
C53	C	0.461791	0.824018	-0.073262
C54	C	0.394643	0.802705	-0.062606
C55	C	-0.019367	1.068061	-0.195279
C56	C	-0.082453	1.048017	-0.185256
C57	C	-0.005178	0.913841	-0.118173
C58	C	0.057915	0.933874	-0.128186
C59	C	0.050814	1.010985	-0.166741
C60	C	0.128097	0.876798	-0.099648
C61	C	0.191185	0.896829	-0.109665
C62	C	0.184091	0.973937	-0.148220
C63	C	0.113902	1.031016	-0.176758
C64	C	0.135196	0.799687	-0.061099
C65	C	0.205377	0.742611	-0.032561
C66	C	0.268467	0.762642	-0.042572
C67	C	0.261373	0.839750	-0.081127
C68	C	0.338656	0.705562	-0.014034
C69	C	0.401744	0.725594	-0.024051
C70	C	0.324461	0.859781	-0.091144
C71	C	0.857489	0.949610	-0.136057
C72	C	0.924637	0.970922	-0.146713
C73	C	0.659641	0.886819	-0.307852
C74	C	0.659641	0.886821	-0.376814
C75	C	0.659638	1.090001	-0.104652
C76	C	0.659637	1.158961	-0.104650
C77	C	0.714277	0.904164	-0.417882
C78	C	0.714280	0.904158	-0.482676
C79	C	0.659642	0.886815	-0.506402
C80	C	0.605003	0.869469	-0.465327
C81	C	0.605005	0.869469	-0.400532
C82	C	0.604997	0.869466	-0.726636
C83	C	0.604999	0.869469	-0.791437
C84	C	0.714272	0.904155	-0.808780
C85	C	0.714273	0.904155	-0.743985
C86	C	0.659637	0.886805	-0.702914
C87	C	0.659636	0.886810	-0.632657
C88	C	0.659640	0.886815	-0.576660
C89	C	0.659639	0.886808	0.098534
C90	C	0.659638	0.886807	0.167496
C91	C	0.857491	0.746423	-0.136063
C92	C	0.924640	0.698775	-0.146722
C93	C	0.659641	0.683621	0.098527
C94	C	0.659641	0.614659	0.167486
C95	C	0.857490	0.746417	0.067129
C96	C	0.924638	0.698768	0.125433
C97	C	0.461790	1.027210	-0.276447
C98	C	0.394641	1.074859	-0.334751
C99	C	0.461789	1.027205	-0.073255
C100	C	0.394640	1.074852	-0.062596
C101	C	0.659639	1.090006	-0.307845
C102	C	0.659639	1.158968	-0.376804
C103	C	0.917540	0.664138	-0.185280
C104	C	0.980627	0.619375	-0.195309
C105	C	1.050814	0.609246	-0.166775
C106	C	1.057912	0.643889	-0.128215
C107	C	0.994826	0.688655	-0.118191
C108	C	0.698275	0.594535	0.233424
C109	C	0.698272	0.529747	0.298225
C110	C	0.659640	0.485080	0.297087
C111	C	0.621001	0.505209	0.231143
C112	C	0.621000	0.570000	0.166344
C113	C	0.994813	0.688657	0.107003
C114	C	1.057912	0.643896	0.161778
C115	C	1.050835	0.609243	0.234983
C116	C	0.980653	0.619358	0.253412
C117	C	0.917555	0.664123	0.198637
C118	C	0.324467	1.084978	-0.316321
C119	C	0.261368	1.129759	-0.371096
C120	C	0.268445	1.164416	-0.444301
C121	C	0.338627	1.154296	-0.462730
C122	C	0.401724	1.109521	-0.407955
C123	C	0.401740	1.109496	-0.024044
C124	C	0.338652	1.154277	-0.014033
C125	C	0.268466	1.164408	-0.042570
C126	C	0.261367	1.129762	-0.081127
C127	C	0.324454	1.084987	-0.091142
C128	C	0.698279	1.203617	-0.375643
C129	C	0.698293	1.268409	-0.440434
C130	C	0.659662	1.288555	-0.506385
C131	C	0.621021	1.243900	-0.507544
C132	C	0.621012	1.179105	-0.442755
H133	H	0.729725	0.187228	-0.187768
C134	C	0.740768	0.507591	-0.200868
H135	H	0.763769	0.543475	-0.228158
H136	H	0.777330	0.458022	-0.172428
H137	H	0.707412	0.507630	-0.233122
C138	C	0.578519	0.456064	0.229898
H139	H	0.584066	0.414592	0.277936
H140	H	0.527687	0.486433	0.211045
H141	H	0.597611	0.436832	0.199955
C142	C	0.659674	1.359830	-0.577649
H143	H	0.631138	1.365436	-0.617097
H144	H	0.638994	1.403816	-0.574362
H145	H	0.708904	1.354203	-0.585456
C146	C	0.740772	0.643655	-0.200869
H147	H	0.735236	0.685134	-0.194316
H148	H	0.791600	0.613271	-0.189343
H149	H	0.721687	0.662879	-0.250044
C150	C	0.544903	0.850396	-0.355359
H151	H	0.512358	0.840074	-0.378772
H152	H	0.567347	0.806755	-0.308261
H153	H	0.517914	0.892603	-0.351186
H154	H	0.211149	0.679827	-0.001171
C155	C	0.972878	0.581229	0.333937
H156	H	1.020511	0.553115	0.363912
H157	H	0.946664	0.619411	0.343799
H158	H	0.946673	0.547619	0.343781
C159	C	0.316672	1.046865	-0.235802
H160	H	0.364297	1.018741	-0.205811
H161	H	0.290461	1.085062	-0.225958
H162	H	0.290452	1.013268	-0.225960
C163	C	0.840343	0.675276	-0.216678
H164	H	0.845160	0.648240	-0.241084
H165	H	0.814120	0.656332	-0.178274
H166	H	0.814128	0.728134	-0.250064
C167	C	0.199077	1.213659	-0.031547
H168	H	0.213364	1.232833	-0.004493
H169	H	0.170531	1.255160	-0.077564
H170	H	0.170535	1.183360	-0.005765
C171	C	0.184160	1.140906	-0.112508
H172	H	0.147611	1.172528	-0.101010
H173	H	0.178611	1.164428	-0.163830
H174	H	0.178622	1.092631	-0.092025
H175	H	0.318663	1.056779	-0.122532
C176	C	0.740770	0.317541	-0.200854
H177	H	0.763785	0.296264	-0.228131
H178	H	0.707427	0.368132	-0.233109
H179	H	0.777334	0.318517	-0.172401
H180	H	0.860419	0.672347	0.213653
H181	H	0.729736	1.187225	-0.321949
H182	H	0.344426	0.642779	0.017350
C183	C	0.740790	1.317526	-0.439144
H184	H	0.763781	1.296252	-0.390583
H185	H	0.777360	1.318512	-0.468563
H186	H	0.707437	1.368117	-0.457477
C187	C	0.578517	0.129962	-0.008435
H188	H	0.555519	0.151223	0.018860
H189	H	0.541953	0.128970	-0.036868
H190	H	0.611881	0.079375	0.023814
C191	C	0.578506	0.592124	0.093816
H192	H	0.555506	0.556236	0.102425
H193	H	0.541942	0.641693	0.072683
H194	H	0.611858	0.592077	0.061600
H195	H	0.589549	0.260276	-0.021531
H196	H	0.083823	0.783380	-0.052950
C197	C	0.578524	1.266073	-0.580091
H198	H	0.584060	1.311063	-0.618505
H199	H	0.597592	1.225622	-0.588819
H200	H	0.527690	1.275231	-0.577710
C201	C	0.774380	0.923240	-0.391789
H202	H	0.806923	0.933560	-0.425526
H203	H	0.751940	0.966882	-0.388331
H204	H	0.801370	0.881033	-0.345411
H205	H	0.458889	0.679117	-0.000800
H206	H	0.589543	1.142757	-0.443710
H207	H	0.458884	1.101251	-0.000800
H208	H	1.115051	0.635666	0.146760
C209	C	0.774376	0.923229	-0.717888
H210	H	0.806921	0.933550	-0.751624
H211	H	0.751935	0.966870	-0.714429
H212	H	0.801364	0.881021	-0.671510
H213	H	1.000589	0.716866	0.047400
C214	C	0.972810	0.581267	-0.237717
H215	H	1.020430	0.553160	-0.239611
H216	H	0.946598	0.547668	-0.213955
H217	H	0.946586	0.619470	-0.285756
C218	C	0.346474	1.192371	0.028387
H219	H	0.397311	1.179910	0.043957
H220	H	0.323479	1.246245	-0.002201
H221	H	0.323467	1.174445	0.069588
H222	H	0.589551	0.586398	-0.021548
C223	C	0.578511	0.456086	-0.008458
H224	H	0.584035	0.414617	-0.015023
H225	H	0.597588	0.436863	0.040714
H226	H	0.527680	0.486477	-0.019992
H227	H	0.318677	0.922573	-0.122516
C228	C	0.106100	1.115836	-0.219247
H229	H	0.153726	1.119588	-0.221145
H230	H	0.079890	1.140052	-0.267274
H231	H	0.079882	1.140192	-0.195546
C232	C	-0.027173	1.152882	-0.237686
H233	H	-0.078007	1.184009	-0.253251
H234	H	-0.004164	1.163482	-0.207090
H235	H	-0.004170	1.163484	-0.278889
C236	C	0.478912	1.098385	-0.428236
H237	H	0.474083	1.125433	-0.479679
H238	H	0.505146	1.117318	-0.408774
H239	H	0.505123	1.045529	-0.408780
H240	H	0.235463	0.990245	-0.156376
H241	H	-0.139599	1.094501	-0.208500
C242	C	0.544885	0.850411	-0.681478
H243	H	0.552708	0.852892	-0.639489
H244	H	0.497727	0.886217	-0.710005
H245	H	0.547141	0.800362	-0.667069
C246	C	0.774378	0.923229	-0.853954
H247	H	0.766560	0.920737	-0.895938
H248	H	0.772112	0.973276	-0.868360
H249	H	0.821546	0.887428	-0.825433
C250	C	0.002625	0.829025	-0.075762
H251	H	-0.044999	0.825268	-0.073879
H252	H	0.028845	0.804736	-0.099512
H253	H	0.028837	0.804747	-0.027720
H254	H	0.560505	0.855344	-0.810752
C255	C	0.774378	0.923233	-0.527851
H256	H	0.766560	0.920740	-0.569833
H257	H	0.772113	0.973281	-0.542258
H258	H	0.821546	0.887432	-0.499329
C259	C	0.544902	0.850393	-0.491425
H260	H	0.552721	0.852885	-0.535900
H261	H	0.547167	0.800347	-0.455784
H262	H	0.497736	0.886196	-0.498704
C263	C	0.184176	1.140880	-0.350816
H264	H	0.147606	1.172517	-0.393918
H265	H	0.178646	1.092604	-0.323021
H266	H	0.178652	1.164393	-0.323006
C267	C	1.120203	0.559995	-0.177798
H268	H	1.105915	0.540813	-0.204843
H269	H	1.148752	0.590283	-0.203571
H270	H	1.148742	0.518489	-0.131774
C271	C	0.199033	1.213654	-0.504545
H272	H	0.156229	1.214705	-0.483078
H273	H	0.199016	1.264212	-0.533863
H274	H	0.199027	1.192405	-0.533852
H275	H	0.344380	1.182519	-0.522339
H276	H	1.115067	0.635635	-0.104985
H277	H	1.000617	0.716852	-0.086789
H278	H	0.729734	0.630897	0.234364
H279	H	0.659647	0.432325	0.349856
C280	C	0.740779	0.507611	0.370755
H281	H	0.735244	0.462633	0.409189
H282	H	0.791607	0.498464	0.368366
H283	H	0.721698	0.548082	0.379458
C284	C	1.120246	0.559998	0.295227
H285	H	1.163051	0.558937	0.273760
H286	H	1.120260	0.581230	0.324545
H287	H	1.120256	0.509438	0.324534
