data_functionalizedCrystal
_audit_creation_method	'MofGen! by Chris Wilmer'
_symmetry_space_group_name_H-M	'P1'
_symmetry_Int_Tables_number	1
_symmetry_cell_setting	triclinic
loop_
_symmetry_equiv_pos_as_xyz
  x,y,z
_cell_length_a	16.974800
_cell_length_b	16.992695
_cell_length_c	16.053802
_cell_angle_alpha	92.741074
_cell_angle_beta	91.074188
_cell_angle_gamma	87.021674
loop_
_atom_site_label
_atom_site_type_symbol
_atom_site_fract_x
_atom_site_fract_y
_atom_site_fract_z
O1	O	1.055374	0.099964	0.001906
O2	O	0.826668	0.111969	-0.013555
O3	O	0.940104	-0.008178	-0.005880
O4	O	0.941938	0.220111	-0.005769
O5	O	0.933858	-0.001592	0.132557
O6	O	0.820423	0.118554	0.124882
O7	O	1.049128	0.106550	0.140342
Zn8	Zn	0.933784	0.113598	0.154592
Zn9	Zn	0.942012	0.104921	-0.027804
O10	O	0.935692	0.226696	0.132667
C11	C	0.794146	0.114684	0.053676
C12	C	0.706544	0.112955	0.047754
C13	C	0.661989	0.115731	0.120436
C14	C	0.579679	0.114094	0.114874
C15	C	0.541925	0.109686	0.036630
C16	C	0.586486	0.106908	-0.036057
C17	C	0.668796	0.108540	-0.030494
C18	C	0.296123	0.104416	0.011902
C19	C	0.213807	0.102787	0.006344
C20	C	0.207005	0.109971	0.157276
C21	C	0.289316	0.111608	0.162832
C22	C	0.333871	0.108825	0.090145
N23	N	0.457791	0.108015	0.030943
N24	N	0.418004	0.110490	0.095833
C25	C	0.934622	-0.034103	0.063179
C26	C	0.927584	-0.121161	0.062703
C27	C	0.995492	-0.171260	0.067294
C28	C	0.988875	-0.253061	0.066839
C29	C	0.914348	-0.284761	0.061798
C30	C	0.846434	-0.234656	0.057204
C31	C	0.853053	-0.152857	0.057653
C32	C	0.886917	-0.528416	0.059932
C33	C	0.880304	-0.610222	0.059486
C34	C	1.022745	-0.628622	0.069120
C35	C	1.029357	-0.546820	0.069574
C36	C	0.961444	-0.496722	0.064975
N37	N	0.907582	-0.368374	0.061335
N38	N	0.968211	-0.413111	0.065432
C39	C	1.081650	0.103834	0.073110
C40	C	1.169252	0.105563	0.079026
C41	C	0.941174	0.252621	0.063607
C42	C	0.948213	0.339679	0.064077
N43	N	0.928173	0.119519	0.279072
N44	N	0.947628	0.098993	-0.152285
C45	C	0.976460	0.068415	0.326033
C46	C	0.972544	0.072565	0.413175
C47	C	0.920344	0.127823	0.453355
C48	C	0.872052	0.178929	0.406387
C49	C	0.875965	0.174775	0.319247
C50	C	0.903249	0.145946	0.713608
C51	C	0.899341	0.150097	0.800754
C52	C	0.999833	0.043731	0.807536
C53	C	1.003745	0.039585	0.720394
C54	C	0.955450	0.090689	0.673434
N55	N	0.916341	0.132067	0.542427
N56	N	0.959449	0.086440	0.584363
H57	H	0.705072	0.106281	-0.089680
C58	C	0.850734	0.201309	0.662575
C59	C	0.802080	0.157033	0.609139
C60	C	0.753688	0.208012	0.562117
H61	H	0.882588	0.232422	0.630552
H62	H	0.819044	0.234807	0.698953
H63	H	0.833767	0.123549	0.572765
H64	H	0.770210	0.125922	0.641140
H65	H	0.721998	0.241509	0.598496
H66	H	0.785549	0.239122	0.530100
H67	H	0.720666	0.177978	0.525861
C68	C	0.765506	-0.269035	0.051555
C69	C	0.727372	-0.246989	-0.022475
C70	C	0.652823	-0.278652	-0.027710
H71	H	0.735053	-0.249579	0.097862
H72	H	0.771259	-0.324932	0.051900
H73	H	0.721616	-0.191103	-0.022812
H74	H	0.757801	-0.266444	-0.068794
H75	H	0.658576	-0.334549	-0.027365
H76	H	0.622377	-0.259193	0.018600
H77	H	0.626943	-0.263704	-0.077942
C78	C	1.033199	0.008522	0.282352
C79	C	1.086345	0.048008	0.235735
C80	C	1.138613	-0.007150	0.195486
H81	H	1.004372	-0.025819	0.246267
H82	H	1.061444	-0.021330	0.322763
H83	H	1.058103	0.077848	0.195329
H84	H	1.115190	0.082346	0.271801
H85	H	1.166857	-0.037003	0.235896
H86	H	1.109779	-0.041489	0.159405
H87	H	1.174682	0.019633	0.163858
H88	H	1.078036	-0.669420	0.072862
H89	H	1.090045	-0.521017	0.073679
H90	H	0.797754	-0.112066	0.053914
H91	H	1.056180	-0.145457	0.071404
H92	H	1.011862	0.030951	0.451411
H93	H	0.320050	0.115193	0.226546
C94	C	1.062697	-0.307322	0.071880
C95	C	1.129379	-0.262051	0.076420
C96	C	1.197400	-0.312008	0.081076
H97	H	1.065371	-0.341924	0.023650
H98	H	1.060936	-0.337308	0.120202
H99	H	1.131140	-0.232078	0.028102
H100	H	1.126731	-0.227450	0.124648
H101	H	1.195639	-0.341994	0.129398
H102	H	1.200066	-0.346608	0.032845
H103	H	1.242651	-0.281299	0.084164
H104	H	0.183071	0.099200	-0.057375
H105	H	0.819611	-0.636027	0.055394
H106	H	1.046250	-0.005410	0.687682
H107	H	1.039152	0.002124	0.845779
H108	H	0.170721	0.112235	0.216454
C109	C	0.823504	0.230358	0.268406
C110	C	0.776967	0.279655	0.322243
C111	C	0.728635	0.330874	0.275439
H112	H	0.790374	0.200531	0.232080
H113	H	0.855422	0.261502	0.236471
H114	H	0.745052	0.248515	0.354163
H115	H	0.810076	0.309499	0.358569
H116	H	0.760552	0.362017	0.243505
H117	H	0.695510	0.301040	0.239116
H118	H	0.697059	0.364333	0.311961
H119	H	0.332389	0.102148	-0.047285
H120	H	0.692721	0.119326	0.184151
C121	C	0.531282	0.116936	0.193764
C122	C	0.488481	0.048788	0.195310
C123	C	0.443901	0.051368	0.267980
H124	H	0.495826	0.162083	0.194602
H125	H	0.565538	0.119754	0.241178
H126	H	0.454229	0.045978	0.147908
H127	H	0.523918	0.003631	0.194485
H128	H	0.478157	0.054186	0.315394
H129	H	0.408450	0.096518	0.268812
H130	H	0.414861	0.005128	0.269043
H131	H	0.555741	0.103314	-0.099765
C132	C	0.813089	-0.474159	0.054988
C133	C	0.746406	-0.519431	0.050506
C134	C	0.678378	-0.469472	0.045966
H135	H	0.814769	-0.444141	0.006694
H136	H	0.810488	-0.439586	0.103257
H137	H	0.749006	-0.553991	0.002243
H138	H	0.744700	-0.549448	0.098796
H139	H	0.675778	-0.434898	0.094234
H140	H	0.680066	-0.439456	-0.002329
H141	H	0.633126	-0.500181	0.042932
H142	H	0.856832	0.195098	0.833464
H143	H	0.829545	0.223919	0.439106
