data_functionalizedCrystal
_audit_creation_method	'MofGen! by Chris Wilmer'
_symmetry_space_group_name_H-M	'P1'
_symmetry_Int_Tables_number	1
_symmetry_cell_setting	triclinic
loop_
_symmetry_equiv_pos_as_xyz
  x,y,z
_cell_length_a	27.732048
_cell_length_b	27.732048
_cell_length_c	26.809956
_cell_angle_alpha	90.009578
_cell_angle_beta	90.010552
_cell_angle_gamma	82.642655
loop_
_atom_site_label
_atom_site_type_symbol
_atom_site_fract_x
_atom_site_fract_y
_atom_site_fract_z
O1	O	0.640935	0.057516	0.041421
O2	O	0.890935	0.307516	0.291421
O3	O	1.140935	0.557516	0.541421
O4	O	1.390935	0.807516	0.791421
O5	O	0.500142	0.066261	0.041436
O6	O	0.750142	0.316261	0.291436
O7	O	1.000142	0.566261	0.541436
O8	O	1.250142	0.816261	0.791436
O9	O	0.574911	-0.008508	0.041419
O10	O	0.824911	0.241492	0.291419
O11	O	1.074911	0.491492	0.541419
O12	O	1.324911	0.741492	0.791419
O13	O	0.566166	0.132285	0.041439
O14	O	0.816166	0.382285	0.291439
O15	O	1.066166	0.632285	0.541439
O16	O	1.316166	0.882285	0.791439
O17	O	0.574889	-0.008508	-0.041541
O18	O	0.824889	0.241492	0.208459
O19	O	1.074889	0.491492	0.458459
O20	O	1.324889	0.741492	0.708459
O21	O	0.500119	0.066261	-0.041523
O22	O	0.750119	0.316261	0.208477
O23	O	1.000119	0.566261	0.458477
O24	O	1.250119	0.816261	0.708477
O25	O	0.640912	0.057516	-0.041539
O26	O	0.890912	0.307516	0.208461
O27	O	1.140912	0.557516	0.458461
O28	O	1.390912	0.807516	0.708461
Zn29	Zn	0.570512	0.061889	-0.054702
Zn30	Zn	0.820512	0.311889	0.195298
Zn31	Zn	1.070512	0.561889	0.445298
Zn32	Zn	1.320512	0.811889	0.695298
Zn33	Zn	0.570542	0.061889	0.054600
Zn34	Zn	0.820542	0.311889	0.304600
Zn35	Zn	1.070542	0.561889	0.554600
Zn36	Zn	1.320542	0.811889	0.804600
O37	O	0.566143	0.132285	-0.041521
O38	O	0.816143	0.382285	0.208479
O39	O	1.066143	0.632285	0.458479
O40	O	1.316143	0.882285	0.708479
C41	C	0.482124	0.066078	-0.000041
C42	C	0.732124	0.316078	0.249959
C43	C	0.982124	0.566078	0.499959
C44	C	1.232124	0.816078	0.749959
C45	C	0.428469	0.065525	-0.000036
C46	C	0.678469	0.315525	0.249964
C47	C	0.928469	0.565525	0.499964
C48	C	1.178469	0.815525	0.749964
C49	C	0.089654	0.106229	-0.000051
C50	C	0.339654	0.356229	0.249949
C51	C	0.589654	0.606229	0.499949
C52	C	0.839654	0.856229	0.749949
C53	C	-0.112006	0.104178	-0.000056
C54	C	0.137994	0.354178	0.249944
C55	C	0.387994	0.604178	0.499944
C56	C	0.637994	0.854178	0.749944
O57	O	-0.143262	0.141398	-0.000073
O58	O	0.106738	0.391398	0.249927
O59	O	0.356738	0.641398	0.499927
O60	O	0.606738	0.891398	0.749927
N61	N	-0.131130	0.059843	-0.000062
N62	N	0.118870	0.309843	0.249938
N63	N	0.368870	0.559843	0.499938
N64	N	0.618870	0.809843	0.749938
C65	C	-0.099835	0.016017	-0.000069
C66	C	0.150165	0.266017	0.249931
C67	C	0.400165	0.516017	0.499931
C68	C	0.650165	0.766017	0.749931
O69	O	-0.120728	-0.021740	-0.000079
O70	O	0.129272	0.228260	0.249921
O71	O	0.379272	0.478260	0.499921
O72	O	0.629272	0.728260	0.749921
C73	C	0.101824	0.018068	-0.000068
C74	C	0.351824	0.268068	0.249932
C75	C	0.601824	0.518068	0.499932
C76	C	0.851824	0.768068	0.749932
C77	C	0.120944	0.062407	-0.000057
C78	C	0.370944	0.312407	0.249943
C79	C	0.620944	0.562407	0.499943
C80	C	0.870944	0.812407	0.749943
C81	C	0.108775	0.150563	-0.000042
C82	C	0.358775	0.400563	0.249958
C83	C	0.608775	0.650563	0.499958
C84	C	0.858775	0.900563	0.749958
C85	C	0.159187	0.151075	-0.000038
C86	C	0.409187	0.401075	0.249962
C87	C	0.659187	0.651075	0.499962
C88	C	0.909187	0.901075	0.749962
C89	C	0.190477	0.107253	-0.000044
C90	C	0.440477	0.357253	0.249956
C91	C	0.690477	0.607253	0.499956
C92	C	0.940477	0.857253	0.749956
C93	C	0.171356	0.062919	-0.000054
C94	C	0.421356	0.312919	0.249946
C95	C	0.671356	0.562919	0.499946
C96	C	0.921356	0.812919	0.749946
C97	C	0.133117	-0.025757	-0.000079
C98	C	0.383117	0.224243	0.249921
C99	C	0.633117	0.474243	0.499921
C100	C	0.883117	0.724243	0.749921
C101	C	0.183535	-0.025240	-0.000080
C102	C	0.433535	0.224760	0.249920
C103	C	0.683535	0.474760	0.499920
C104	C	0.933535	0.724760	0.749920
C105	C	0.202655	0.019098	-0.000069
C106	C	0.452655	0.269098	0.249931
C107	C	0.702655	0.519098	0.499931
C108	C	0.952655	0.769098	0.749931
C109	C	0.253059	0.019609	-0.000056
C110	C	0.503059	0.269609	0.249944
C111	C	0.753059	0.519609	0.499944
C112	C	1.003059	0.769609	0.749944
N113	N	0.272183	0.063944	-0.000050
N114	N	0.522183	0.313944	0.249950
N115	N	0.772183	0.563944	0.499950
N116	N	1.022183	0.813944	0.749950
C117	C	0.240892	0.107766	-0.000044
C118	C	0.490892	0.357766	0.249956
C119	C	0.740892	0.607766	0.499956
C120	C	0.990892	0.857766	0.749956
C121	C	-0.205709	0.014943	-0.000069
C122	C	0.044291	0.264943	0.249931
C123	C	0.294291	0.514943	0.499931
C124	C	0.544291	0.764943	0.749931
C125	C	-0.256124	0.014430	-0.000068
C126	C	-0.006124	0.264430	0.249932
C127	C	0.243876	0.514430	0.499932
C128	C	0.493876	0.764430	0.749932
C129	C	-0.268291	0.102591	-0.000056
C130	C	-0.018291	0.352591	0.249944
C131	C	0.231709	0.602591	0.499944
C132	C	0.481709	0.852591	0.749944
C133	C	-0.217876	0.103104	-0.000053
C134	C	0.032124	0.353104	0.249947
C135	C	0.282124	0.603104	0.499947
C136	C	0.532124	0.853104	0.749947
C137	C	-0.186585	0.059278	-0.000063
C138	C	0.063415	0.309278	0.249937
C139	C	0.313415	0.559278	0.499937
C140	C	0.563415	0.809278	0.749937
C141	C	0.346761	0.108839	-0.000036
C142	C	0.596761	0.358839	0.249964
C143	C	0.846761	0.608839	0.499964
C144	C	1.096761	0.858839	0.749964
C145	C	0.397178	0.109347	-0.000030
C146	C	0.647178	0.359347	0.249970
C147	C	0.897178	0.609347	0.499970
C148	C	1.147178	0.859347	0.749970
C149	C	0.409341	0.021186	-0.000044
C150	C	0.659341	0.271186	0.249956
C151	C	0.909341	0.521186	0.499956
C152	C	1.159341	0.771186	0.749956
C153	C	0.358929	0.020678	-0.000048
C154	C	0.608929	0.270678	0.249952
C155	C	0.858929	0.520678	0.499952
C156	C	1.108929	0.770678	0.749952
C157	C	0.327639	0.064508	-0.000045
C158	C	0.577639	0.314508	0.249955
C159	C	0.827639	0.564508	0.499955
C160	C	1.077639	0.814508	0.749955
O161	O	0.284343	-0.017592	-0.000045
O162	O	0.534343	0.232408	0.249955
O163	O	0.784343	0.482408	0.499955
O164	O	1.034343	0.732408	0.749955
O165	O	0.261794	0.145518	-0.000045
O166	O	0.511794	0.395518	0.249955
O167	O	0.761794	0.645518	0.499955
O168	O	1.011794	0.895518	0.749955
C169	C	0.039242	0.105716	-0.000055
C170	C	0.289242	0.355716	0.249945
C171	C	0.539242	0.605716	0.499945
C172	C	0.789242	0.855716	0.749945
C173	C	0.020120	0.061382	-0.000065
C174	C	0.270120	0.311382	0.249935
C175	C	0.520120	0.561382	0.499935
C176	C	0.770120	0.811382	0.749935
C177	C	0.051411	0.017560	-0.000071
C178	C	0.301411	0.267560	0.249929
C179	C	0.551411	0.517560	0.499929
C180	C	0.801411	0.767560	0.749929
C181	C	-0.030294	0.060869	-0.000065
C182	C	0.219706	0.310869	0.249935
C183	C	0.469706	0.560869	0.499935
C184	C	0.719706	0.810869	0.749935
C185	C	-0.061585	0.104691	-0.000059
C186	C	0.188415	0.354691	0.249941
C187	C	0.438415	0.604691	0.499941
C188	C	0.688415	0.854691	0.749941
C189	C	-0.042461	0.149026	-0.000053
C190	C	0.207539	0.399026	0.249947
C191	C	0.457539	0.649026	0.499947
C192	C	0.707539	0.899026	0.749947
C193	C	0.007951	0.149539	-0.000049
C194	C	0.257951	0.399539	0.249951
C195	C	0.507951	0.649539	0.499951
C196	C	0.757951	0.899539	0.749951
C197	C	0.032287	-0.026775	-0.000077
C198	C	0.282287	0.223225	0.249923
C199	C	0.532287	0.473225	0.499923
C200	C	0.782287	0.723225	0.749923
C201	C	-0.018125	-0.027284	-0.000080
C202	C	0.231875	0.222716	0.249920
C203	C	0.481875	0.472716	0.499920
C204	C	0.731875	0.722716	0.749920
C205	C	-0.049416	0.016538	-0.000074
C206	C	0.200584	0.266538	0.249926
C207	C	0.450584	0.516538	0.499926
C208	C	0.700584	0.766538	0.749926
C209	C	0.574716	-0.026515	-0.000062
C210	C	0.824716	0.223485	0.249938
C211	C	1.074716	0.473485	0.499938
C212	C	1.324716	0.723485	0.749938
C213	C	0.574164	-0.080170	-0.000066
C214	C	0.824164	0.169830	0.249934
C215	C	1.074164	0.419830	0.499934
C216	C	1.324164	0.669830	0.749934
C217	C	0.614867	-0.418985	-0.000045
C218	C	0.864867	-0.168985	0.249955
C219	C	1.114867	0.081015	0.499955
C220	C	1.364867	0.331015	0.749955
C221	C	0.612816	-0.620645	-0.000038
C222	C	0.862816	-0.370645	0.249962
C223	C	1.112816	-0.120645	0.499962
C224	C	1.362816	0.129355	0.749962
O225	O	0.650037	-0.651900	-0.000021
O226	O	0.900037	-0.401900	0.249979
O227	O	1.150037	-0.151900	0.499979
O228	O	1.400037	0.098100	0.749979
N229	N	0.568481	-0.639768	-0.000034
N230	N	0.818481	-0.389768	0.249966
N231	N	1.068481	-0.139768	0.499966
N232	N	1.318481	0.110232	0.749966
C233	C	0.524656	-0.608474	-0.000028
C234	C	0.774656	-0.358474	0.249972
C235	C	1.024656	-0.108474	0.499972
C236	C	1.274656	0.141526	0.749972
O237	O	0.486899	-0.629367	-0.000019
O238	O	0.736899	-0.379367	0.249981
O239	O	0.986899	-0.129367	0.499981
O240	O	1.236899	0.120633	0.749981
C241	C	0.526707	-0.406815	-0.000031
C242	C	0.776707	-0.156815	0.249969
C243	C	1.026707	0.093185	0.499969
C244	C	1.276707	0.343185	0.749969
C245	C	0.571045	-0.387694	-0.000041
C246	C	0.821045	-0.137694	0.249959
C247	C	1.071045	0.112306	0.499959
C248	C	1.321045	0.362306	0.749959
C249	C	0.659202	-0.399864	-0.000054
C250	C	0.909202	-0.149864	0.249946
C251	C	1.159202	0.100136	0.499946
C252	C	1.409202	0.350136	0.749946
C253	C	0.659714	-0.349452	-0.000059
C254	C	0.909714	-0.099452	0.249941
C255	C	1.159714	0.150548	0.499941
C256	C	1.409714	0.400548	0.749941
C257	C	0.615892	-0.318161	-0.000054
C258	C	0.865892	-0.068161	0.249946
C259	C	1.115892	0.181839	0.499946
C260	C	1.365892	0.431839	0.749946
C261	C	0.571557	-0.337282	-0.000045
C262	C	0.821557	-0.087282	0.249955
C263	C	1.071557	0.162718	0.499955
C264	C	1.321557	0.412718	0.749955
C265	C	0.482882	-0.375521	-0.000022
C266	C	0.732882	-0.125521	0.249978
C267	C	0.982882	0.124479	0.499978
C268	C	1.232882	0.374479	0.749978
C269	C	0.483399	-0.325104	-0.000021
C270	C	0.733399	-0.075104	0.249979
C271	C	0.983399	0.174896	0.499979
C272	C	1.233399	0.424896	0.749979
C273	C	0.527737	-0.305983	-0.000031
C274	C	0.777737	-0.055983	0.249969
C275	C	1.027737	0.194017	0.499969
C276	C	1.277737	0.444017	0.749969
C277	C	0.528247	-0.255580	-0.000045
C278	C	0.778247	-0.005580	0.249955
C279	C	1.028247	0.244420	0.499955
C280	C	1.278247	0.494420	0.749955
N281	N	0.572583	-0.236456	-0.000050
N282	N	0.822583	0.013544	0.249950
N283	N	1.072583	0.263544	0.499950
N284	N	1.322583	0.513544	0.749950
C285	C	0.616405	-0.267747	-0.000054
C286	C	0.866405	-0.017747	0.249946
C287	C	1.116405	0.232253	0.499946
C288	C	1.366405	0.482253	0.749946
C289	C	0.523582	-0.714348	-0.000027
C290	C	0.773582	-0.464348	0.249973
C291	C	1.023582	-0.214348	0.499973
C292	C	1.273582	0.035652	0.749973
C293	C	0.523069	-0.764762	-0.000027
C294	C	0.773069	-0.514762	0.249973
C295	C	1.023069	-0.264762	0.499973
C296	C	1.273069	-0.014762	0.749973
C297	C	0.611230	-0.776930	-0.000036
C298	C	0.861230	-0.526930	0.249964
C299	C	1.111230	-0.276930	0.499964
C300	C	1.361230	-0.026930	0.749964
C301	C	0.611742	-0.726514	-0.000040
C302	C	0.861742	-0.476514	0.249960
C303	C	1.111742	-0.226514	0.499960
C304	C	1.361742	0.023486	0.749960
C305	C	0.567917	-0.695224	-0.000031
C306	C	0.817917	-0.445224	0.249969
C307	C	1.067917	-0.195224	0.499969
C308	C	1.317917	0.054776	0.749969
C309	C	0.617477	-0.161878	-0.000064
C310	C	0.867477	0.088122	0.249936
C311	C	1.117477	0.338122	0.499936
C312	C	1.367477	0.588122	0.749936
C313	C	0.617986	-0.111461	-0.000071
C314	C	0.867986	0.138539	0.249929
C315	C	1.117986	0.388539	0.499929
C316	C	1.367986	0.638539	0.749929
C317	C	0.529825	-0.099298	-0.000059
C318	C	0.779825	0.150702	0.249941
C319	C	1.029825	0.400702	0.499941
C320	C	1.279825	0.650702	0.749941
C321	C	0.529316	-0.149710	-0.000055
C322	C	0.779316	0.100290	0.249945
C323	C	1.029316	0.350290	0.499945
C324	C	1.279316	0.600290	0.749945
C325	C	0.573147	-0.180999	-0.000056
C326	C	0.823147	0.069001	0.249944
C327	C	1.073147	0.319001	0.499944
C328	C	1.323147	0.569001	0.749944
O329	O	0.491047	-0.224296	-0.000057
O330	O	0.741047	0.025704	0.249943
O331	O	0.991047	0.275704	0.499943
O332	O	1.241047	0.525704	0.749943
O333	O	0.654156	-0.246844	-0.000053
O334	O	0.904156	0.003156	0.249947
O335	O	1.154156	0.253156	0.499947
O336	O	1.404156	0.503156	0.749947
C337	C	0.614355	-0.469397	-0.000041
C338	C	0.864355	-0.219397	0.249959
C339	C	1.114355	0.030603	0.499959
C340	C	1.364355	0.280603	0.749959
C341	C	0.570021	-0.488518	-0.000032
C342	C	0.820021	-0.238518	0.249968
C343	C	1.070021	0.011482	0.499968
C344	C	1.320021	0.261482	0.749968
C345	C	0.526198	-0.457228	-0.000027
C346	C	0.776198	-0.207228	0.249973
C347	C	1.026198	0.042772	0.499973
C348	C	1.276198	0.292772	0.749973
C349	C	0.569508	-0.538933	-0.000032
C350	C	0.819508	-0.288933	0.249968
C351	C	1.069508	-0.038933	0.499968
C352	C	1.319508	0.211067	0.749968
C353	C	0.613330	-0.570223	-0.000036
C354	C	0.863330	-0.320223	0.249964
C355	C	1.113330	-0.070223	0.499964
C356	C	1.363330	0.179777	0.749964
C357	C	0.657665	-0.551100	-0.000041
C358	C	0.907665	-0.301100	0.249959
C359	C	1.157665	-0.051100	0.499959
C360	C	1.407665	0.198900	0.749959
C361	C	0.658177	-0.500688	-0.000045
C362	C	0.908177	-0.250688	0.249955
C363	C	1.158177	-0.000688	0.499955
C364	C	1.408177	0.249312	0.749955
C365	C	0.481863	-0.476351	-0.000023
C366	C	0.731863	-0.226351	0.249977
C367	C	0.981863	0.023649	0.499977
C368	C	1.231863	0.273649	0.749977
C369	C	0.481355	-0.526764	-0.000019
C370	C	0.731355	-0.276764	0.249981
C371	C	0.981355	-0.026764	0.499981
C372	C	1.231355	0.223236	0.749981
C373	C	0.525177	-0.558054	-0.000023
C374	C	0.775177	-0.308054	0.249977
C375	C	1.025177	-0.058054	0.499977
C376	C	1.275177	0.191946	0.749977
C377	C	0.658931	0.057699	-0.000060
C378	C	0.908931	0.307699	0.249940
C379	C	1.158931	0.557699	0.499940
C380	C	1.408931	0.807699	0.749940
C381	C	0.712586	0.058252	-0.000062
C382	C	0.962586	0.308252	0.249938
C383	C	1.212586	0.558252	0.499938
C384	C	1.462586	0.808252	0.749938
C385	C	0.566338	0.150292	-0.000039
C386	C	0.816338	0.400292	0.249961
C387	C	1.066338	0.650292	0.499961
C388	C	1.316338	0.900292	0.749961
C389	C	0.566891	0.203947	-0.000031
C390	C	0.816891	0.453947	0.249969
C391	C	1.066891	0.703947	0.499969
C392	C	1.316891	0.953947	0.749969
N393	N	0.570495	0.061888	-0.129298
N394	N	0.820495	0.311888	0.120702
N395	N	1.070495	0.561888	0.370702
N396	N	1.320495	0.811888	0.620702
C397	C	0.599633	0.090999	-0.473923
C398	C	0.849633	0.340999	-0.223923
C399	C	1.099633	0.590999	0.026077
C400	C	1.349633	0.840999	0.276077
C401	C	0.599648	0.090999	-0.682801
C402	C	0.849648	0.340999	-0.432801
C403	C	1.099648	0.590999	-0.182801
C404	C	1.349648	0.840999	0.067199
O405	O	0.624410	0.115745	-0.709804
O406	O	0.874410	0.365745	-0.459804
O407	O	1.124410	0.615745	-0.209804
O408	O	1.374410	0.865745	0.040196
N409	N	0.570554	0.061884	-0.708925
N410	N	0.820554	0.311884	-0.458925
N411	N	1.070554	0.561884	-0.208925
N412	N	1.320554	0.811884	0.041075
C413	C	0.541456	0.032764	-0.682827
C414	C	0.791456	0.282764	-0.432827
C415	C	1.041456	0.532764	-0.182827
C416	C	1.291456	0.782764	0.067173
O417	O	0.516713	0.007996	-0.709840
O418	O	0.766713	0.257996	-0.459840
O419	O	1.016713	0.507996	-0.209840
O420	O	1.266713	0.757996	0.040160
C421	C	0.541443	0.032762	-0.473950
C422	C	0.791443	0.282762	-0.223950
C423	C	1.041443	0.532762	0.026050
C424	C	1.291443	0.782762	0.276050
C425	C	0.570536	0.061883	-0.447829
C426	C	0.820536	0.311883	-0.197829
C427	C	1.070536	0.561883	0.052171
C428	C	1.320536	0.811883	0.302171
C429	C	0.628724	0.120117	-0.447802
C430	C	0.878724	0.370117	-0.197802
C431	C	1.128724	0.620117	0.052198
C432	C	1.378724	0.870117	0.302198
C433	C	0.628717	0.120119	-0.395586
C434	C	0.878717	0.370119	-0.145586
C435	C	1.128717	0.620119	0.104414
C436	C	1.378717	0.870119	0.354414
C437	C	0.599620	0.091003	-0.369491
C438	C	0.849620	0.341003	-0.119491
C439	C	1.099620	0.591003	0.130509
C440	C	1.349620	0.841003	0.380509
C441	C	0.570530	0.061885	-0.395612
C442	C	0.820530	0.311885	-0.145612
C443	C	1.070530	0.561885	0.104388
C444	C	1.320530	0.811885	0.354388
C445	C	0.512348	0.003640	-0.447853
C446	C	0.762348	0.253640	-0.197853
C447	C	1.012348	0.503640	0.052147
C448	C	1.262348	0.753640	0.302147
C449	C	0.512348	0.003641	-0.395630
C450	C	0.762348	0.253641	-0.145630
C451	C	1.012348	0.503641	0.104370
C452	C	1.262348	0.753641	0.354370
C453	C	0.541441	0.032762	-0.369509
C454	C	0.791441	0.282762	-0.119509
C455	C	1.041441	0.532762	0.130491
C456	C	1.291441	0.782762	0.380491
C457	C	0.541426	0.032770	-0.317301
C458	C	0.791426	0.282770	-0.067301
C459	C	1.041426	0.532770	0.182699
C460	C	1.291426	0.782770	0.432699
N461	N	0.570521	0.061886	-0.291177
N462	N	0.820521	0.311886	-0.041177
N463	N	1.070521	0.561886	0.208823
N464	N	1.320521	0.811886	0.458823
C465	C	0.599618	0.091002	-0.317272
C466	C	0.849618	0.341002	-0.067272
C467	C	1.099618	0.591002	0.182728
C468	C	1.349618	0.841002	0.432728
C469	C	0.541464	0.032768	-0.792490
C470	C	0.791464	0.282768	-0.542490
C471	C	1.041464	0.532768	-0.292490
C472	C	1.291464	0.782768	-0.042490
C473	C	0.541466	0.032769	-0.844709
C474	C	0.791466	0.282769	-0.594709
C475	C	1.041466	0.532769	-0.344709
C476	C	1.291466	0.782769	-0.094709
C477	C	0.599660	0.091003	-0.844680
C478	C	0.849660	0.341003	-0.594680
C479	C	1.099660	0.591003	-0.344680
C480	C	1.349660	0.841003	-0.094680
C481	C	0.599654	0.091004	-0.792460
C482	C	0.849654	0.341004	-0.542460
C483	C	1.099654	0.591004	-0.292460
C484	C	1.349654	0.841004	-0.042460
C485	C	0.570558	0.061883	-0.766366
C486	C	0.820558	0.311883	-0.516366
C487	C	1.070558	0.561883	-0.266366
C488	C	1.320558	0.811883	-0.016366
C489	C	0.599602	0.091004	-0.207614
C490	C	0.849602	0.341004	0.042386
C491	C	1.099602	0.591004	0.292386
C492	C	1.349602	0.841004	0.542386
C493	C	0.599592	0.091005	-0.155393
C494	C	0.849592	0.341005	0.094607
C495	C	1.099592	0.591005	0.344607
C496	C	1.349592	0.841005	0.594607
C497	C	0.541401	0.032769	-0.155427
C498	C	0.791401	0.282769	0.094573
C499	C	1.041401	0.532769	0.344573
C500	C	1.291401	0.782769	0.594573
C501	C	0.541409	0.032769	-0.207643
C502	C	0.791409	0.282769	0.042357
C503	C	1.041409	0.532769	0.292357
C504	C	1.291409	0.782769	0.542357
C505	C	0.570514	0.061889	-0.233735
C506	C	0.820514	0.311889	0.016265
C507	C	1.070514	0.561889	0.266265
C508	C	1.320514	0.811889	0.516265
O509	O	0.516682	0.008033	-0.290266
O510	O	0.766682	0.258033	-0.040266
O511	O	1.016682	0.508033	0.209734
O512	O	1.266682	0.758033	0.459734
O513	O	0.624365	0.115758	-0.290250
O514	O	0.874365	0.365758	-0.040250
O515	O	1.124365	0.615758	0.209750
O516	O	1.374365	0.865758	0.459750
C517	C	0.599639	0.090998	-0.526140
C518	C	0.849639	0.340998	-0.276140
C519	C	1.099639	0.590998	-0.026140
C520	C	1.349639	0.840998	0.223860
C521	C	0.570548	0.061879	-0.552261
C522	C	0.820548	0.311879	-0.302261
C523	C	1.070548	0.561879	-0.052261
C524	C	1.320548	0.811879	0.197739
C525	C	0.541451	0.032763	-0.526166
C526	C	0.791451	0.282763	-0.276166
C527	C	1.041451	0.532763	-0.026166
C528	C	1.291451	0.782763	0.223834
C529	C	0.570551	0.061880	-0.604480
C530	C	0.820551	0.311880	-0.354480
C531	C	1.070551	0.561880	-0.104480
C532	C	1.320551	0.811880	0.145520
C533	C	0.599648	0.090997	-0.630575
C534	C	0.849648	0.340997	-0.380575
C535	C	1.099648	0.590997	-0.130575
C536	C	1.349648	0.840997	0.119425
C537	C	0.628742	0.120112	-0.604451
C538	C	0.878742	0.370112	-0.354451
C539	C	1.128742	0.620112	-0.104451
C540	C	1.378742	0.870112	0.145549
C541	C	0.628736	0.120114	-0.552235
C542	C	0.878736	0.370114	-0.302235
C543	C	1.128736	0.620114	-0.052235
C544	C	1.378736	0.870114	0.197765
C545	C	0.512357	0.003648	-0.552291
C546	C	0.762357	0.253648	-0.302291
C547	C	1.012357	0.503648	-0.052291
C548	C	1.262357	0.753648	0.197709
C549	C	0.512365	0.003649	-0.604507
C550	C	0.762365	0.253649	-0.354507
C551	C	1.012365	0.503649	-0.104507
C552	C	1.262365	0.753649	0.145493
C553	C	0.541462	0.032765	-0.630602
C554	C	0.791462	0.282765	-0.380602
C555	C	1.041462	0.532765	-0.130602
C556	C	1.291462	0.782765	0.119398
N557	N	0.570563	0.061885	0.129196
N558	N	0.820563	0.311885	0.379196
N559	N	1.070563	0.561885	0.629196
N560	N	1.320563	0.811885	0.879196
H561	H	-0.271687	-0.021674	-0.000069
H562	H	-0.021687	0.228326	0.249931
H563	H	0.228313	0.478326	0.499931
H564	H	0.478313	0.728326	0.749931
H565	H	-0.067947	0.184708	-0.000046
H566	H	0.182053	0.434708	0.249954
H567	H	0.432053	0.684708	0.499954
H568	H	0.682053	0.934708	0.749954
Cl569	Cl	0.183216	0.206818	-0.000028
Cl570	Cl	0.433216	0.456818	0.249972
Cl571	Cl	0.683216	0.706818	0.499972
Cl572	Cl	0.933216	0.956818	0.749972
Cl573	Cl	0.636232	0.127612	-0.759627
Cl574	Cl	0.886232	0.377612	-0.509627
Cl575	Cl	1.136232	0.627612	-0.259627
Cl576	Cl	1.386232	0.877612	-0.009627
Cl577	Cl	0.031981	0.205281	-0.000037
Cl578	Cl	0.281981	0.455281	0.249963
Cl579	Cl	0.531981	0.705281	0.499963
Cl580	Cl	0.781981	0.955281	0.749963
H581	H	0.653168	-0.187348	-0.000063
H582	H	0.903168	0.062652	0.249937
H583	H	1.153168	0.312652	0.499937
H584	H	1.403168	0.562652	0.749937
H585	H	0.652410	0.143830	-0.374322
H586	H	0.902410	0.393830	-0.124322
H587	H	1.152410	0.643830	0.125678
H588	H	1.402410	0.893830	0.375678
H589	H	0.623283	0.114721	-0.134127
H590	H	0.873283	0.364721	0.115873
H591	H	1.123283	0.614721	0.365873
H592	H	1.373283	0.864721	0.615873
H593	H	0.117558	-0.061861	-0.000088
H594	H	0.367558	0.188139	0.249912
H595	H	0.617558	0.438139	0.499912
H596	H	0.867558	0.688139	0.749912
H597	H	0.447710	-0.299629	-0.000014
H598	H	0.697710	-0.049629	0.249986
H599	H	0.947710	0.200371	0.499986
H600	H	1.197710	0.450371	0.749986
Cl601	Cl	0.071617	-0.081872	-0.000084
Cl602	Cl	0.321617	0.168128	0.249916
Cl603	Cl	0.571617	0.418128	0.499916
Cl604	Cl	0.821617	0.668128	0.749916
H605	H	0.488669	-0.020064	-0.625771
H606	H	0.738669	0.229936	-0.375771
H607	H	0.988669	0.479936	-0.125771
H608	H	1.238669	0.729936	0.124229
Cl609	Cl	0.473577	-0.173748	-0.000052
Cl610	Cl	0.723577	0.076252	0.249948
Cl611	Cl	0.973577	0.326252	0.499948
Cl612	Cl	1.223577	0.576252	0.749948
H613	H	0.083302	0.186251	-0.000038
H614	H	0.333302	0.436251	0.249962
H615	H	0.583302	0.686251	0.499962
H616	H	0.833302	0.936251	0.749962
Cl617	Cl	0.474737	-0.059952	-0.000052
Cl618	Cl	0.724737	0.190048	0.249948
Cl619	Cl	0.974737	0.440048	0.499948
Cl620	Cl	1.224737	0.690048	0.749948
H621	H	0.445246	-0.542327	-0.000015
H622	H	0.695246	-0.292327	0.249985
H623	H	0.945246	-0.042327	0.499985
H624	H	1.195246	0.207673	0.749985
Cl625	Cl	-0.193844	0.158845	-0.000042
Cl626	Cl	0.056156	0.408845	0.249958
Cl627	Cl	0.306156	0.658845	0.499958
Cl628	Cl	0.556156	0.908845	0.749958
Cl629	Cl	0.475772	-0.032975	-0.362830
Cl630	Cl	0.725772	0.217025	-0.112830
Cl631	Cl	0.975772	0.467025	0.137170
Cl632	Cl	1.225772	0.717025	0.387170
Cl633	Cl	-0.307637	0.157681	-0.000051
Cl634	Cl	-0.057637	0.407681	0.249949
Cl635	Cl	0.192363	0.657681	0.499949
Cl636	Cl	0.442363	0.907681	0.749949
H637	H	0.412743	0.145454	-0.000021
H638	H	0.662743	0.395454	0.249979
H639	H	0.912743	0.645454	0.499979
H640	H	1.162743	0.895454	0.749979
Cl641	Cl	-0.042156	-0.083029	-0.000087
Cl642	Cl	0.207844	0.166971	0.249913
Cl643	Cl	0.457844	0.416971	0.499913
Cl644	Cl	0.707844	0.666971	0.749913
Cl645	Cl	0.673729	-0.087427	-0.000082
Cl646	Cl	0.923729	0.162573	0.249918
Cl647	Cl	1.173729	0.412573	0.499918
Cl648	Cl	1.423729	0.662573	0.749918
Cl649	Cl	0.665309	0.156728	-0.519404
Cl650	Cl	0.915309	0.406728	-0.269404
Cl651	Cl	1.165309	0.656728	-0.019404
Cl652	Cl	1.415309	0.906728	0.230596
H653	H	-0.180236	-0.020747	-0.000077
H654	H	0.069764	0.229253	0.249923
H655	H	0.319764	0.479253	0.499923
H656	H	0.569764	0.729253	0.749923
H657	H	0.652420	0.143828	-0.469043
H658	H	0.902420	0.393828	-0.219043
H659	H	1.152420	0.643828	0.030957
H660	H	1.402420	0.893828	0.280957
Cl661	Cl	0.426766	-0.437021	-0.000016
Cl662	Cl	0.676766	-0.187021	0.249984
Cl663	Cl	0.926766	0.062979	0.499984
Cl664	Cl	1.176766	0.312979	0.749984
Cl665	Cl	0.475765	-0.032951	-0.519494
Cl666	Cl	0.725765	0.217049	-0.269494
Cl667	Cl	0.975765	0.467049	-0.019494
Cl668	Cl	1.225765	0.717049	0.230506
Cl669	Cl	0.222868	-0.080338	-0.000094
Cl670	Cl	0.472868	0.169662	0.249906
Cl671	Cl	0.722868	0.419662	0.499906
Cl672	Cl	0.972868	0.669662	0.749906
H673	H	0.623350	0.114713	-0.865935
H674	H	0.873350	0.364713	-0.615935
H675	H	1.123350	0.614713	-0.365935
H676	H	1.373350	0.864713	-0.115935
Cl677	Cl	0.504823	-0.003832	-0.122612
Cl678	Cl	0.754823	0.246168	0.127388
Cl679	Cl	1.004823	0.496168	0.377388
Cl680	Cl	1.254823	0.746168	0.627388
Cl681	Cl	0.307434	0.163940	-0.000032
Cl682	Cl	0.557434	0.413940	0.249968
Cl683	Cl	0.807434	0.663940	0.499968
Cl684	Cl	1.057434	0.913940	0.749968
Cl685	Cl	0.713920	-0.476658	-0.000053
Cl686	Cl	0.963920	-0.226658	0.249947
Cl687	Cl	1.213920	0.023342	0.499947
Cl688	Cl	1.463920	0.273342	0.749947
H689	H	0.434827	-0.014492	-0.000047
H690	H	0.684827	0.235508	0.249953
H691	H	0.934827	0.485508	0.499953
H692	H	1.184827	0.735508	0.749953
H693	H	0.695819	-0.333889	-0.000065
H694	H	0.945819	-0.083889	0.249935
H695	H	1.195819	0.166111	0.499935
H696	H	1.445819	0.416111	0.749935
H697	H	0.646911	-0.802415	-0.000040
H698	H	0.896911	-0.552415	0.249960
H699	H	1.146911	-0.302415	0.499960
H700	H	1.396911	-0.052415	0.749960
Cl701	Cl	0.714300	-0.439193	-0.000061
Cl702	Cl	0.964300	-0.189193	0.249939
Cl703	Cl	1.214300	0.060807	0.499939
Cl704	Cl	1.464300	0.310807	0.749939
H705	H	0.517770	0.009061	-0.865973
H706	H	0.767770	0.259061	-0.615973
H707	H	1.017770	0.509061	-0.365973
H708	H	1.267770	0.759061	-0.115973
H709	H	0.517713	0.009063	-0.228912
H710	H	0.767713	0.259063	0.021088
H711	H	1.017713	0.509063	0.271088
H712	H	1.267713	0.759063	0.521088
Cl713	Cl	0.667483	-0.702482	-0.000051
Cl714	Cl	0.917483	-0.452482	0.249949
Cl715	Cl	1.167483	-0.202482	0.499949
Cl716	Cl	1.417483	0.047518	0.749949
H717	H	0.343360	-0.015426	-0.000049
H718	H	0.593360	0.234574	0.249951
H719	H	0.843360	0.484574	0.499951
H720	H	1.093360	0.734574	0.749951
H721	H	0.693347	-0.576585	-0.000047
H722	H	0.943347	-0.326585	0.249953
H723	H	1.193347	-0.076585	0.499953
H724	H	1.443347	0.173415	0.749953
H725	H	0.487892	-0.688875	-0.000020
H726	H	0.737892	-0.438875	0.249980
H727	H	0.987892	-0.188875	0.499980
H728	H	1.237892	0.061125	0.749980
Cl729	Cl	0.467327	-0.788793	-0.000024
Cl730	Cl	0.717327	-0.538793	0.249976
Cl731	Cl	0.967327	-0.288793	0.499976
Cl732	Cl	1.217327	-0.038793	0.749976
Cl733	Cl	0.427139	-0.399546	-0.000006
Cl734	Cl	0.677139	-0.149546	0.249994
Cl735	Cl	0.927139	0.100454	0.499994
Cl736	Cl	1.177139	0.350454	0.749994
Cl737	Cl	0.504872	-0.003836	-0.759694
Cl738	Cl	0.754872	0.246164	-0.509694
Cl739	Cl	1.004872	0.496164	-0.259694
Cl740	Cl	1.254872	0.746164	-0.009694
H741	H	0.623303	0.114715	-0.228852
H742	H	0.873303	0.364715	0.021148
H743	H	1.123303	0.614715	0.271148
H744	H	1.373303	0.864715	0.521148
Cl745	Cl	0.475772	-0.032972	-0.480678
Cl746	Cl	0.725772	0.217028	-0.230678
Cl747	Cl	0.975772	0.467028	0.019322
Cl748	Cl	1.225772	0.717028	0.269322
Cl749	Cl	0.665319	0.156717	-0.637266
Cl750	Cl	0.915319	0.406717	-0.387266
Cl751	Cl	1.165319	0.656717	-0.137266
Cl752	Cl	1.415319	0.906717	0.112734
