data_functionalizedCrystal
_audit_creation_method	'MofGen! by Chris Wilmer'
_symmetry_space_group_name_H-M	'P1'
_symmetry_Int_Tables_number	1
_symmetry_cell_setting	triclinic
loop_
_symmetry_equiv_pos_as_xyz
  x,y,z
_cell_length_a	10.654543
_cell_length_b	10.654549
_cell_length_c	22.610064
_cell_angle_alpha	90.017765
_cell_angle_beta	89.999013
_cell_angle_gamma	95.516601
loop_
_atom_site_label
_atom_site_type_symbol
_atom_site_fract_x
_atom_site_fract_y
_atom_site_fract_z
O1	O	-1.667838	0.176383	0.049181
O2	O	-1.302358	0.193198	0.049183
O3	O	-1.493501	0.002051	0.049180
O4	O	-1.476694	0.367530	0.049185
O5	O	-1.493502	0.001992	-0.049190
O6	O	-1.302358	0.193139	-0.049186
O7	O	-1.667838	0.176324	-0.049188
Zn8	Zn	-1.485098	0.184722	-0.064805
Zn9	Zn	-1.485098	0.184800	0.064800
O10	O	-1.476695	0.367471	-0.049185
C11	C	-1.255560	0.191936	-0.000002
C12	C	-1.116116	0.188248	-0.000001
C13	C	-1.492267	-0.044776	-0.000004
C14	C	-1.488576	-0.184219	-0.000002
C15	C	-0.905601	0.297316	-0.000003
C16	C	-1.036622	0.300791	0.000001
C17	C	-1.064584	0.072221	-0.000002
C18	C	-0.933565	0.068747	-0.000002
C19	C	-0.714635	0.177592	-0.000004
C20	C	-0.854077	0.181299	-0.000006
C21	C	-1.597639	-0.394737	0.000001
C22	C	-1.601118	-0.263716	-0.000003
C23	C	-1.372548	-0.235749	-0.000003
C24	C	-1.369071	-0.366767	-0.000002
C25	C	-1.477929	0.414299	0.000001
C26	C	-1.481620	0.553742	0.000003
N27	N	-1.485108	0.184669	-0.153258
N28	N	-1.485098	0.184844	0.153253
C29	C	-1.408445	0.107680	0.561893
C30	C	-1.408448	0.107663	0.623813
O31	O	-1.343282	0.042109	0.655831
N32	N	-1.485113	0.184698	0.654790
C33	C	-1.561788	0.261746	0.623844
O34	O	-1.626999	0.327268	0.655878
C35	C	-1.561791	0.261754	0.561925
C36	C	-1.485112	0.184724	0.530951
C37	C	-1.331773	0.030654	0.530920
C38	C	-1.331768	0.030672	0.469004
C39	C	-1.408435	0.107716	0.438062
C40	C	-1.485107	0.184742	0.469036
C41	C	-1.638472	0.338794	0.530980
C42	C	-1.638469	0.338795	0.469057
C43	C	-1.561790	0.261765	0.438083
C44	C	-1.561769	0.261804	0.376178
N45	N	-1.485105	0.184769	0.345201
C46	C	-1.408438	0.107725	0.376143
C47	C	-1.561779	0.261720	0.753877
C48	C	-1.561771	0.261718	0.815795
C49	C	-1.408432	0.107634	0.815760
C50	C	-1.408434	0.107643	0.753841
C51	C	-1.485114	0.184684	0.722900
C52	C	-1.408433	0.107770	0.246116
C53	C	-1.408431	0.107800	0.184195
C54	C	-1.561774	0.261879	0.184235
C55	C	-1.561772	0.261855	0.246151
C56	C	-1.485097	0.184791	0.277090
O57	O	-1.626906	0.327321	0.344121
O58	O	-1.343250	0.042202	0.344102
H59	H	-0.840884	0.388963	-0.000006
C60	C	-1.247419	-0.054102	0.564946
N61	N	-1.183870	-0.117938	0.590571
H62	H	-1.129319	-0.019414	0.000000
C63	C	-1.646108	0.346619	0.150187
N64	N	-1.709637	0.410438	0.124540
C65	C	-0.876886	-0.058887	-0.000008
N66	N	-0.834195	-0.155018	-0.000013
H67	H	-1.624195	0.324460	0.841008
C68	C	-1.093291	0.428420	-0.000001
N69	N	-1.135974	0.524555	-0.000003
C70	C	-1.324075	0.023056	0.150128
N71	N	-1.260541	-0.040774	0.124470
C72	C	-1.324079	0.023004	0.280140
N73	N	-1.260537	-0.040835	0.305766
H74	H	-1.689285	-0.459456	0.000005
C75	C	-1.247419	-0.054074	0.434941
N76	N	-1.183886	-0.117911	0.409289
C77	C	-1.324089	0.022896	0.719776
N78	N	-1.260560	-0.040941	0.694121
H79	H	-1.274588	-0.408715	-0.000004
H80	H	-1.346005	0.044900	0.840964
H81	H	-1.624217	0.324468	0.728689
H82	H	-1.695592	-0.221775	-0.000006
H83	H	-1.280914	-0.171012	-0.000005
H84	H	-1.700915	0.401518	0.556188
H85	H	-1.700915	0.401532	0.443868
C86	C	-1.646113	0.346601	0.280223
N87	N	-1.709651	0.410424	0.305882
