data_functionalizedCrystal
_audit_creation_method	'MofGen! by Chris Wilmer'
_symmetry_space_group_name_H-M	'P1'
_symmetry_Int_Tables_number	1
_symmetry_cell_setting	triclinic
loop_
_symmetry_equiv_pos_as_xyz
  x,y,z
_cell_length_a	14.446369
_cell_length_b	20.919309
_cell_length_c	20.919327
_cell_angle_alpha	86.850042
_cell_angle_beta	58.215476
_cell_angle_gamma	62.588972
loop_
_atom_site_label
_atom_site_type_symbol
_atom_site_fract_x
_atom_site_fract_y
_atom_site_fract_z
Zr1	Zr	1.080776	0.599283	-0.107369
O2	O	1.263392	0.506116	-0.205960
O3	O	0.890877	0.627847	-0.077147
O4	O	1.084792	0.634941	-0.210984
O5	O	1.068849	0.493422	0.033451
O6	O	1.096244	0.736556	-0.214945
O7	O	1.069477	0.499022	-0.072123
O8	O	0.749366	0.723866	0.024465
O9	O	1.415727	0.506111	-0.205959
O10	O	0.980229	0.715859	-0.067212
O11	O	0.971213	0.635845	0.014533
O12	O	1.199523	0.644197	-0.143043
O13	O	1.190507	0.564184	-0.061298
Zr14	Zr	1.098038	0.752415	0.054692
Zr15	Zr	1.099040	0.761347	-0.113687
Zr16	Zr	1.079773	0.590351	0.061010
Zr17	Zr	1.323732	0.599275	-0.107367
Zr18	Zr	0.855082	0.752422	0.054690
O19	O	1.287937	0.723850	0.024470
O20	O	1.289362	0.736550	-0.214943
O21	O	1.261967	0.493416	0.033453
O22	O	0.915422	0.845581	0.153283
O23	O	0.916847	0.858281	-0.086130
O24	O	0.889452	0.615147	0.162266
O25	O	1.109965	0.858276	-0.086128
O26	O	1.094022	0.716757	0.158307
O27	O	1.082570	0.615142	0.162268
O28	O	1.109337	0.852675	0.019446
O29	O	1.430245	0.634931	-0.210981
O30	O	0.748569	0.716767	0.158303
O31	O	0.763087	0.845586	0.153282
O32	O	0.763884	0.852685	0.019443
O33	O	1.414930	0.499012	-0.072120
O34	O	1.429448	0.627831	-0.077142
O35	O	0.979291	0.707500	0.090366
O36	O	0.988306	0.787513	0.008620
O37	O	1.207600	0.715852	-0.067210
O38	O	1.198585	0.635839	0.014535
C39	C	0.785505	0.675858	-0.026341
C40	C	0.682364	0.675861	-0.026342
C41	C	0.541708	0.726094	-0.078132
C42	C	0.648662	0.726352	-0.077930
C43	C	0.558929	0.706209	0.057908
C44	C	0.451591	0.706570	0.057624
C45	C	0.614009	0.595175	-0.058098
C46	C	0.722507	0.595399	-0.059839
C47	C	1.066561	0.473131	-0.018436
C48	C	1.058807	0.404331	-0.015754
C49	C	1.169630	0.334602	-0.054075
C50	C	1.162337	0.269959	-0.051558
C51	C	1.044220	0.275047	-0.010715
C52	C	0.933388	0.344784	0.027607
C53	C	0.940682	0.409425	0.025085
C54	C	1.016469	0.081744	-0.001123
C55	C	1.009183	0.017096	0.001398
C56	C	1.238134	-0.057725	-0.077769
C57	C	1.245417	0.006921	-0.080284
C58	C	1.134586	0.076652	-0.041965
C59	C	1.036762	0.208973	-0.008139
C60	C	1.142045	0.142725	-0.044546
C61	C	1.393308	0.675840	-0.026336
C62	C	1.496450	0.675837	-0.026335
C63	C	1.090661	0.687021	-0.236955
C64	C	1.091086	0.690813	-0.308436
C65	C	1.112253	0.878566	-0.034241
C66	C	1.120007	0.947366	-0.036923
C67	C	1.084976	0.636616	-0.339838
C68	C	1.085387	0.640180	-0.407006
C69	C	1.091900	0.697945	-0.442768
C70	C	1.098014	0.752145	-0.411363
C71	C	1.097612	0.748577	-0.344199
C72	C	1.093440	0.711516	-0.645672
C73	C	1.093838	0.715082	-0.712839
C74	C	1.081213	0.603116	-0.708479
C75	C	1.080804	0.599555	-0.641311
C76	C	1.086925	0.653753	-0.609914
C77	C	1.092317	0.701591	-0.511424
C78	C	1.086517	0.650103	-0.541263
C79	C	1.088153	0.664677	0.184278
C80	C	1.087728	0.660885	0.255759
C81	C	0.808352	0.878575	-0.034244
C82	C	0.712964	0.947378	-0.036927
C83	C	0.784252	0.664685	0.184275
C84	C	0.680685	0.660897	0.255755
C85	C	0.807098	0.867403	0.176372
C86	C	0.711285	0.932414	0.245170
C87	C	1.371716	0.484295	-0.229050
C88	C	1.467529	0.419283	-0.297848
C89	C	1.370462	0.473122	-0.018433
C90	C	1.465850	0.404319	-0.015750
C91	C	1.394562	0.687012	-0.236952
C92	C	1.498129	0.690801	-0.308432
C93	C	0.663952	0.942287	-0.077778
C94	C	0.574339	1.006929	-0.080314
C95	C	0.533731	1.076663	-0.041995
C96	C	0.582752	1.081753	-0.001143
C97	C	0.672371	1.017111	0.001389
C98	C	0.636265	0.696520	0.328914
C99	C	0.538966	0.692957	0.396084
C100	C	0.486083	0.653775	0.390093
C101	C	0.530511	0.618147	0.316926
C102	C	0.627815	0.621706	0.249758
C103	C	0.670997	1.004718	0.234808
C104	C	0.580984	1.065810	0.299445
C105	C	0.531255	1.054597	0.374443
C106	C	0.571552	0.982286	0.384804
C107	C	0.661569	0.921196	0.320168
C108	C	1.507829	0.346980	-0.287486
C109	C	1.597871	0.285888	-0.352122
C110	C	1.647606	0.297101	-0.427120
C111	C	1.607303	0.369411	-0.437481
C112	C	1.517268	0.430502	-0.372845
C113	C	1.514871	0.409411	0.025094
C114	C	1.604512	0.344769	0.027612
C115	C	1.645123	0.275036	-0.010710
C116	C	1.596098	0.269945	-0.051559
C117	C	1.506465	0.334587	-0.054081
C118	C	1.550982	0.729990	-0.302417
C119	C	1.648283	0.733564	-0.369574
C120	C	1.692735	0.697944	-0.442746
C121	C	1.639872	0.658754	-0.448761
C122	C	1.542567	0.655185	-0.381604
H123	H	0.576703	0.706162	-0.140428
H124	H	1.265815	0.330449	-0.087323
H125	H	0.406853	0.650882	0.444792
H126	H	0.697015	0.885512	-0.108992
H127	H	1.075500	0.552519	-0.612195
H128	H	0.457958	1.104347	0.427067
Cl129	Cl	0.733966	1.023525	0.052755
Cl130	Cl	1.669833	0.383495	-0.531770
H131	H	1.630670	0.227015	-0.343671
H132	H	0.502804	0.721973	0.455652
H133	H	1.691315	0.765475	-0.364662
H134	H	1.466554	0.330430	-0.087339
Cl135	Cl	1.301666	0.182300	-0.099729
Cl136	Cl	0.877137	0.169398	0.047053
Cl137	Cl	1.760790	0.220293	-0.508370
Cl138	Cl	0.712198	0.830302	0.333208
H139	H	0.460756	1.129293	-0.044062
H140	H	1.771968	0.700856	-0.497423
H141	H	0.617912	0.785938	-0.056041
Cl142	Cl	1.495120	0.774776	-0.210437
Cl143	Cl	0.783124	0.695386	-0.173852
Cl144	Cl	1.466608	0.521395	-0.385885
Cl145	Cl	1.463843	0.497068	0.073272
Cl146	Cl	1.445323	0.332864	-0.193210
Cl147	Cl	1.105300	0.816711	-0.304725
H148	H	0.577225	0.671145	0.098019
H149	H	0.531049	0.973167	0.445875
Cl150	Cl	0.733504	1.018833	0.140533
Cl151	Cl	0.765111	0.533355	-0.007198
H152	H	1.644414	0.348929	0.060878
H153	H	1.676079	0.629755	-0.508346
H154	H	1.097616	0.748626	-0.540546
H155	H	0.367513	0.765807	0.083261
H156	H	0.417746	0.672054	0.098121
H157	H	0.458724	0.785328	-0.056441
Cl158	Cl	1.106211	0.824762	-0.456323
Cl159	Cl	1.757804	0.193779	-0.007530
Cl160	Cl	1.647159	0.182274	-0.099728
H161	H	1.341602	0.002771	-0.113558
Cl162	Cl	0.509596	0.796763	0.097830
Cl163	Cl	0.512725	1.000513	-0.131671
Cl164	Cl	1.476145	0.605906	-0.389180
H165	H	0.549676	1.138539	0.030055
H166	H	0.679313	0.728427	0.333807
H167	H	0.487439	0.586245	0.312060
H168	H	0.663968	0.592699	0.190192
H169	H	0.650638	0.569314	-0.119040
Cl170	Cl	0.858291	0.560309	-0.155639
H171	H	0.837214	0.348922	0.060859
H172	H	1.076232	0.558990	-0.734049
H173	H	0.584986	0.557616	-0.020506
H174	H	1.238215	0.138585	-0.077804
Cl175	Cl	1.377456	-0.145387	-0.125941
H176	H	0.912993	0.021246	0.034658
H177	H	0.850438	0.466201	0.056298
H178	H	0.940591	0.213108	0.025119
H179	H	1.081221	0.603068	-0.512146
H180	H	1.079665	0.589580	-0.310722
H181	H	1.099141	0.762124	-0.741954
Cl182	Cl	1.077708	0.572045	-0.446485
H183	H	1.098420	0.755647	-0.620113
H184	H	0.548184	1.124683	0.290995
