data_functionalizedCrystal
_audit_creation_method	'MofGen! by Chris Wilmer'
_symmetry_space_group_name_H-M	'P1'
_symmetry_Int_Tables_number	1
_symmetry_cell_setting	triclinic
loop_
_symmetry_equiv_pos_as_xyz
  x,y,z
_cell_length_a	14.044191
_cell_length_b	14.044220
_cell_length_c	16.776229
_cell_angle_alpha	89.992807
_cell_angle_beta	89.995052
_cell_angle_gamma	93.190327
loop_
_atom_site_label
_atom_site_type_symbol
_atom_site_fract_x
_atom_site_fract_y
_atom_site_fract_z
O1	O	1.277177	0.230202	-0.066253
O2	O	1.777177	0.730202	0.433747
O3	O	1.000504	0.221890	-0.066263
O4	O	1.500504	0.721890	0.433737
O5	O	1.134688	0.087710	-0.066250
O6	O	1.634688	0.587710	0.433750
O7	O	1.142993	0.364382	-0.066266
O8	O	1.642993	0.864382	0.433734
O9	O	1.134666	0.087700	0.066326
O10	O	1.634666	0.587700	0.566326
O11	O	1.000483	0.221879	0.066313
O12	O	1.500483	0.721879	0.566313
O13	O	1.277155	0.230192	0.066323
O14	O	1.777155	0.730192	0.566323
Zn15	Zn	1.138816	0.226034	0.087368
Zn16	Zn	1.638816	0.726034	0.587368
Zn17	Zn	1.138844	0.226048	-0.087308
Zn18	Zn	1.638844	0.726048	0.412692
O19	O	1.142972	0.364371	0.066311
O20	O	1.642972	0.864371	0.566311
C21	C	0.964872	0.218248	0.000024
C22	C	1.464872	0.718248	0.500024
C23	C	0.858728	0.207401	0.000020
C24	C	1.358728	0.707401	0.500020
C25	C	0.613270	0.264501	0.000025
C26	C	1.113270	0.764501	0.500025
C27	C	0.664395	0.187585	0.000028
C28	C	1.164395	0.687585	0.500028
C29	C	0.772532	0.198613	0.000024
C30	C	1.272532	0.698613	0.500024
C31	C	0.505123	0.253474	0.000029
C32	C	1.005123	0.753474	0.500029
C33	C	1.131041	0.052083	0.000038
C34	C	1.631041	0.552083	0.500038
C35	C	1.120197	-0.054060	0.000039
C36	C	1.620197	0.445940	0.500039
C37	C	1.100370	-0.248398	0.000026
C38	C	1.600370	0.251602	0.500026
C39	C	1.177285	-0.299526	0.000027
C40	C	1.677285	0.200474	0.500027
C41	C	1.166253	-0.407663	0.000020
C42	C	1.666253	0.092337	0.500020
C43	C	1.111400	-0.140252	0.000033
C44	C	1.611400	0.359748	0.500033
C45	C	1.312788	0.233834	0.000034
C46	C	1.812788	0.733834	0.500034
C47	C	1.418931	0.244681	0.000033
C48	C	1.918931	0.744681	0.500033
C49	C	1.146618	0.399998	0.000020
C50	C	1.646618	0.899998	0.500020
C51	C	1.157463	0.506142	0.000015
C52	C	1.657463	1.006142	0.500015
N53	N	1.138803	0.226025	0.206579
N54	N	1.638803	0.726025	0.706579
C55	C	1.198241	0.166638	0.248302
C56	C	1.698241	0.666638	0.748302
C57	C	1.198246	0.166638	0.331754
C58	C	1.698246	0.666638	0.831754
C59	C	1.138817	0.226030	0.373482
C60	C	1.638817	0.726030	0.873482
C61	C	1.079372	0.285419	0.331753
C62	C	1.579372	0.785419	0.831753
C63	C	1.079363	0.285413	0.248303
C64	C	1.579363	0.785413	0.748303
C65	C	1.079405	0.285442	0.668300
C66	C	1.579405	0.785442	1.168300
C67	C	1.079420	0.285445	0.751757
C68	C	1.579420	0.785445	1.251757
C69	C	1.198288	0.166667	0.751752
C70	C	1.698288	0.666667	1.251752
C71	C	1.198279	0.166661	0.668301
C72	C	1.698279	0.666661	1.168301
C73	C	1.138831	0.226046	0.626580
C74	C	1.638831	0.726046	1.126580
C75	C	1.138826	0.226044	0.536091
C76	C	1.638826	0.726044	1.036091
C77	C	1.138826	0.226038	0.463969
C78	C	1.638826	0.726038	0.963969
N79	N	1.138854	0.226053	0.793481
N80	N	1.638854	0.726053	1.293481
H81	H	0.626952	0.113452	-0.000024
H82	H	1.126952	0.613452	0.499976
O83	O	0.662856	0.362696	0.000009
O84	O	1.162856	0.862696	0.500009
H85	H	0.741240	0.356056	-0.000001
H86	H	1.241240	0.856056	0.499999
O87	O	1.002178	-0.297989	0.000026
O88	O	1.502178	0.202011	0.500026
H89	H	0.947529	-0.243857	0.000024
H90	H	1.447529	0.256143	0.500024
H91	H	1.031023	0.333810	0.785731
H92	H	1.531023	0.833810	1.285731
O93	O	1.015261	0.349470	0.203295
O94	O	1.515261	0.849470	0.703295
H95	H	0.973944	0.390778	0.246329
H96	H	1.473944	0.890778	0.746329
H97	H	1.246640	0.118279	0.214332
H98	H	1.746640	0.618279	0.714332
O99	O	1.275488	-0.249943	0.000045
O100	O	1.775488	0.250057	0.500045
H101	H	1.268858	-0.171558	0.000058
H102	H	1.768858	0.328442	0.500058
H103	H	1.246644	0.118281	0.365724
H104	H	1.746644	0.618281	0.865724
H105	H	1.246675	0.118302	0.634329
H106	H	1.746675	0.618302	1.134329
H107	H	1.246691	0.118309	0.785730
H108	H	1.746691	0.618309	1.285730
O109	O	1.015295	0.349496	0.623306
O110	O	1.515295	0.849496	1.123306
H111	H	1.033761	0.424958	0.639307
H112	H	1.533761	0.924958	1.139307
O113	O	1.015274	0.349484	0.376754
O114	O	1.515274	0.849484	0.876754
H115	H	1.025274	0.339522	0.441792
H116	H	1.525274	0.839522	0.941792
