data_functionalizedCrystal
_audit_creation_method	'MofGen! by Chris Wilmer'
_symmetry_space_group_name_H-M	'P1'
_symmetry_Int_Tables_number	1
_symmetry_cell_setting	triclinic
loop_
_symmetry_equiv_pos_as_xyz
  x,y,z
_cell_length_a	12.759395
_cell_length_b	12.759394
_cell_length_c	12.759387
_cell_angle_alpha	89.970033
_cell_angle_beta	89.978574
_cell_angle_gamma	90.014544
loop_
_atom_site_label
_atom_site_type_symbol
_atom_site_fract_x
_atom_site_fract_y
_atom_site_fract_z
Zn1	Zn	1.606275	-0.418192	-0.594037
Zn2	Zn	1.606168	-0.593909	-0.418360
Zn3	Zn	1.430573	-0.418246	-0.418371
Zn4	Zn	1.430568	-0.593831	-0.593996
O5	O	1.518396	-0.506045	-0.506191
O6	O	1.753282	-0.441510	-0.570745
O7	O	1.582832	-0.570662	-0.271340
O8	O	1.453927	-0.271218	-0.441695
O9	O	1.753203	-0.570609	-0.441676
O10	O	1.583014	-0.271178	-0.570756
O11	O	1.453824	-0.441604	-0.271348
O12	O	1.283551	-0.441529	-0.441656
O13	O	1.453918	-0.570477	-0.741023
O14	O	1.283548	-0.570530	-0.570687
O15	O	1.583010	-0.441436	-0.741053
O16	O	1.582828	-0.740920	-0.441637
O17	O	1.453815	-0.740863	-0.570676
C18	C	1.245428	-0.506028	-0.506169
C19	C	1.128652	-0.506046	-0.506184
C20	C	0.909263	-0.640617	-0.640367
C21	C	0.964152	-0.707880	-0.707433
C22	C	1.073874	-0.707867	-0.707420
C23	C	1.128709	-0.640586	-0.640330
C24	C	1.073819	-0.573322	-0.573264
C25	C	0.964095	-0.573340	-0.573287
C26	C	1.073763	-0.438782	-0.439117
C27	C	0.964041	-0.438788	-0.439135
C28	C	1.128597	-0.371501	-0.372028
C29	C	1.073708	-0.304231	-0.304965
C30	C	0.963980	-0.304245	-0.304982
C31	C	0.909152	-0.371525	-0.372068
C32	C	1.518338	-0.779012	-0.506174
C33	C	1.518409	-0.895789	-0.506201
C34	C	1.652727	-0.895589	-0.640693
C35	C	1.719919	-0.950350	-0.707947
C36	C	1.719981	-1.060071	-0.707970
C37	C	1.652842	-1.115034	-0.640734
C38	C	1.585650	-1.060274	-0.573480
C39	C	1.585597	-0.950550	-0.573462
C40	C	1.451328	-1.060474	-0.438995
C41	C	1.451270	-0.950752	-0.438965
C42	C	1.384189	-1.115437	-0.371758
C43	C	1.317001	-1.060676	-0.304498
C44	C	1.316942	-0.950948	-0.304477
C45	C	1.384077	-0.895991	-0.371711
C46	C	1.792429	-0.506062	-0.506214
C47	C	1.909206	-0.506070	-0.506224
C48	C	1.518475	-0.505942	-0.780225
C49	C	1.518509	-0.505898	-0.897001
C50	C	1.518483	-0.232011	-0.506231
C51	C	1.518520	-0.115234	-0.506249
C52	C	1.652941	-0.371535	-0.897052
C53	C	1.720171	-0.304339	-0.951939
C54	C	1.720197	-0.304300	-1.061660
C55	C	1.652982	-0.371464	-1.116498
C56	C	1.585752	-0.438661	-1.061612
C57	C	1.585736	-0.438694	-0.951888
C58	C	1.451317	-0.573016	-1.061561
C59	C	1.451295	-0.573061	-0.951839
C60	C	1.384102	-0.640180	-1.116399
C61	C	1.316875	-0.707384	-1.061513
C62	C	1.316854	-0.707420	-0.951784
C63	C	1.384064	-0.640258	-0.896953
C64	C	1.518377	-0.506071	-0.233223
C65	C	1.518547	-0.505819	-0.116447
H66	H	1.118564	-0.762641	-0.762028
N67	N	1.652913	-1.233376	-0.640749
H68	H	1.705668	-1.259727	-0.693554
H69	H	1.672245	-1.259743	-0.568657
N70	N	1.652980	-0.371398	-1.234840
H71	H	1.705759	-0.318629	-1.261289
H72	H	1.672230	-0.443493	-1.261199
N73	N	1.652918	-0.371545	-0.778710
H74	H	1.580849	-0.352218	-0.752281
H75	H	1.672236	-0.443635	-0.752328
H76	H	1.218050	-0.640590	-0.640316
H77	H	1.774894	-0.249654	-0.907277
H78	H	0.819922	-0.640623	-0.640395
H79	H	1.384241	-1.204778	-0.371786
H80	H	0.919296	-0.249472	-0.250368
H81	H	1.262336	-1.105436	-0.249764
N82	N	0.790810	-0.371540	-0.372087
H83	H	0.764406	-0.424368	-0.424761
H84	H	0.764427	-0.390741	-0.299950
N85	N	1.246939	-0.371497	-0.372010
H86	H	1.273410	-0.352267	-0.444110
H87	H	1.273265	-0.318682	-0.319288
N88	N	1.244464	-0.891887	-0.231943
H89	H	1.201946	-0.943358	-0.189358
H90	H	1.287224	-0.846366	-0.183343
N91	N	1.792339	-0.891076	-0.780461
H92	H	1.776001	-0.910132	-0.855518
H93	H	1.782081	-0.813276	-0.770158
H94	H	1.384124	-0.640140	-1.205740
H95	H	0.919494	-0.762662	-0.762053
H96	H	1.262095	-0.762129	-0.907102
H97	H	1.774935	-0.249576	-1.106349
N98	N	1.132848	-0.231677	-0.232605
H99	H	1.210684	-0.241881	-0.242768
H100	H	1.113695	-0.156663	-0.249092
H101	H	1.652693	-0.806248	-0.640672
N102	N	1.792436	-1.119142	-0.780519
H103	H	1.834955	-1.067679	-0.823114
H104	H	1.841101	-1.164662	-0.737805
H105	H	1.384040	-0.806650	-0.371696
H106	H	1.262149	-0.762057	-1.106170
N107	N	1.384024	-0.640307	-0.778611
H108	H	1.456078	-0.659641	-0.752179
H109	H	1.364690	-0.568225	-0.752278
