data_functionalizedCrystal
_audit_creation_method	'MofGen! by Chris Wilmer'
_symmetry_space_group_name_H-M	'P1'
_symmetry_Int_Tables_number	1
_symmetry_cell_setting	triclinic
loop_
_symmetry_equiv_pos_as_xyz
  x,y,z
_cell_length_a	18.215407
_cell_length_b	14.908520
_cell_length_c	18.215399
_cell_angle_alpha	93.269364
_cell_angle_beta	89.982632
_cell_angle_gamma	93.318033
loop_
_atom_site_label
_atom_site_type_symbol
_atom_site_fract_x
_atom_site_fract_y
_atom_site_fract_z
Zn1	Zn	1.108174	-0.359230	-0.432973
Zn2	Zn	1.441508	-0.025896	-0.099640
Zn3	Zn	1.774841	0.307437	0.233694
Zn4	Zn	1.100986	-0.510098	-0.317007
Zn5	Zn	1.434319	-0.176765	0.016327
Zn6	Zn	1.767653	0.156568	0.349660
Zn7	Zn	0.985106	-0.359251	-0.309927
Zn8	Zn	1.318439	-0.025918	0.023407
Zn9	Zn	1.651772	0.307415	0.356740
Zn10	Zn	0.977979	-0.510040	-0.440034
Zn11	Zn	1.311312	-0.176707	-0.106701
Zn12	Zn	1.644645	0.156627	0.226633
O13	O	1.043061	-0.434655	-0.374985
O14	O	1.376395	-0.101321	-0.041652
O15	O	1.709728	0.232012	0.291682
O16	O	1.210204	-0.379258	-0.417598
O17	O	1.543538	-0.045925	-0.084264
O18	O	1.876871	0.287409	0.249069
O19	O	1.085589	-0.490121	-0.213085
O20	O	1.418922	-0.156788	0.120249
O21	O	1.752255	0.176545	0.453582
O22	O	1.007422	-0.233004	-0.320331
O23	O	1.340755	0.100330	0.013002
O24	O	1.674089	0.433663	0.346336
O25	O	1.204923	-0.490100	-0.332398
O26	O	1.538256	-0.156767	0.000936
O27	O	1.871590	0.176566	0.334269
O28	O	1.097840	-0.232988	-0.410732
O29	O	1.431173	0.100346	-0.077399
O30	O	1.764507	0.433679	0.255934
O31	O	1.000452	-0.379295	-0.207883
O32	O	1.333785	-0.045961	0.125450
O33	O	1.667119	0.287372	0.458784
O34	O	0.881177	-0.379238	-0.327178
O35	O	1.214510	-0.045905	0.006156
O36	O	1.547844	0.287428	0.339489
O37	O	0.995275	-0.490001	-0.542080
O38	O	1.328608	-0.156668	-0.208747
O39	O	1.661942	0.176665	0.124587
O40	O	0.875941	-0.490022	-0.422767
O41	O	1.209274	-0.156689	-0.089434
O42	O	1.542607	0.176644	0.243900
O43	O	1.090929	-0.379202	-0.536892
O44	O	1.424262	-0.045868	-0.203559
O45	O	1.757596	0.287465	0.129774
O46	O	1.078678	-0.636335	-0.339245
O47	O	1.412011	-0.303002	-0.005911
O48	O	1.745344	0.030331	0.327422
O49	O	0.988305	-0.636292	-0.429632
O50	O	1.321638	-0.302959	-0.096299
O51	O	1.654972	0.030374	0.237034
C52	C	0.851856	-0.434627	-0.374971
C53	C	1.185190	-0.101294	-0.041638
C54	C	1.518523	0.232040	0.291696
C55	C	0.770057	-0.434637	-0.374983
C56	C	1.103390	-0.101304	-0.041650
C57	C	1.436724	0.232030	0.291683
C58	C	0.584606	-0.377040	-0.419427
C59	C	0.917940	-0.043707	-0.086094
C60	C	1.251273	0.289627	0.247240
C61	C	0.507747	-0.377048	-0.419430
C62	C	0.841080	-0.043714	-0.086096
C63	C	1.174414	0.289619	0.247237
C64	C	0.502267	-0.492295	-0.330557
C65	C	0.835600	-0.158962	0.002776
C66	C	1.168934	0.174372	0.336109
C67	C	0.579125	-0.492282	-0.330551
C68	C	0.912458	-0.158949	0.002782
C69	C	1.245792	0.174385	0.336116
C70	C	0.620292	-0.434656	-0.374990
C71	C	0.953626	-0.101323	-0.041657
C72	C	1.286959	0.232011	0.291677
C73	C	0.466575	-0.434677	-0.374999
C74	C	0.799909	-0.101343	-0.041666
C75	C	1.133242	0.231990	0.291667
C76	C	0.383241	-0.434685	-0.375002
C77	C	0.716575	-0.101352	-0.041669
C78	C	1.049908	0.231981	0.291665
C79	C	0.703632	-0.434646	-0.374987
C80	C	1.036965	-0.101312	-0.041653
C81	C	1.370299	0.232021	0.291680
C82	C	1.031958	-0.669048	-0.385989
C83	C	1.365291	-0.335714	-0.052656
C84	C	1.698625	-0.002381	0.280678
C85	C	1.027275	-0.769322	-0.390721
C86	C	1.360609	-0.435989	-0.057388
C87	C	1.693942	-0.102655	0.275946
C88	C	1.112678	-0.957731	-0.305568
C89	C	1.446011	-0.624398	0.027765
C90	C	1.779345	-0.291065	0.361098
C91	C	1.108281	-1.051948	-0.310012
C92	C	1.441614	-0.718615	0.023321
C93	C	1.774947	-0.385281	0.356654
C94	C	1.014088	-1.051973	-0.404056
C95	C	1.347421	-0.718640	-0.070723
C96	C	1.680754	-0.385307	0.262611
C97	C	1.018485	-0.957757	-0.399612
C98	C	1.351818	-0.624424	-0.066279
C99	C	1.685152	-0.291090	0.267055
C100	C	1.067781	-0.910639	-0.350366
C101	C	1.401114	-0.577306	-0.017033
C102	C	1.734448	-0.243972	0.316301
C103	C	1.072174	-0.816421	-0.345919
C104	C	1.405507	-0.483087	-0.012585
C105	C	1.738841	-0.149754	0.320748
C106	C	0.977985	-0.816448	-0.439966
C107	C	1.311318	-0.483115	-0.106632
C108	C	1.644652	-0.149781	0.226701
C109	C	0.973588	-0.910665	-0.444410
C110	C	1.306921	-0.577331	-0.111076
C111	C	1.640254	-0.243998	0.222257
C112	C	1.235013	-0.434683	-0.375000
C113	C	1.568346	-0.101350	-0.041666
C114	C	1.901679	0.231983	0.291667
C115	C	1.316811	-0.434695	-0.375006
C116	C	1.650144	-0.101362	-0.041673
C117	C	1.983478	0.231971	0.291661
C118	C	1.043109	-0.434593	-0.566935
C119	C	1.376442	-0.101259	-0.233602
C120	C	1.709776	0.232074	0.099732
C121	C	1.043129	-0.434566	-0.648733
C122	C	1.376463	-0.101233	-0.315399
C123	C	1.709796	0.232101	0.017934
C124	C	1.054228	-0.199347	-0.363954
C125	C	1.387561	0.133987	-0.030621
C126	C	1.720895	0.467320	0.302712
C127	C	1.058986	-0.099072	-0.359254
C128	C	1.392320	0.234261	-0.025920
C129	C	1.725653	0.567594	0.307413
C130	C	1.092956	-0.376819	-0.834224
C131	C	1.426289	-0.043485	-0.500891
C132	C	1.759623	0.289848	-0.167558
C133	C	1.092966	-0.376792	-0.911082
C134	C	1.426299	-0.043459	-0.577748
C135	C	1.759633	0.289874	-0.244415
C136	C	0.993361	-0.492174	-0.916473
C137	C	1.326695	-0.158841	-0.583139
C138	C	1.660028	0.174493	-0.249806
C139	C	0.993348	-0.492195	-0.839616
C140	C	1.326682	-0.158862	-0.506283
C141	C	1.660015	0.174472	-0.172950
C142	C	1.043150	-0.434519	-0.798494
C143	C	1.376483	-0.101185	-0.465161
C144	C	1.709816	0.232148	-0.131828
C145	C	1.043173	-0.434471	-0.952208
C146	C	1.376506	-0.101138	-0.618875
C147	C	1.709839	0.232195	-0.285541
C148	C	1.043183	-0.434443	-1.035541
C149	C	1.376517	-0.101110	-0.702207
C150	C	1.709850	0.232223	-0.368874
C151	C	1.043139	-0.434545	-0.715156
C152	C	1.376472	-0.101212	-0.381823
C153	C	1.709805	0.232121	-0.048490
C154	C	1.043059	-0.434652	-0.183779
C155	C	1.376392	-0.101318	0.149555
C156	C	1.709726	0.232015	0.482888
C157	C	1.043193	-0.434424	-0.101969
C158	C	1.376527	-0.101091	0.231364
C159	C	1.709860	0.232243	0.564697
H160	H	1.112311	-0.778058	-0.305818
H161	H	1.445645	-0.444725	0.027515
H162	H	1.778978	-0.111392	0.360849
C163	C	0.618382	-0.555665	-0.281671
C164	C	0.951716	-0.222332	0.051662
C165	C	1.285049	0.111001	0.384996
H166	H	0.582858	-0.589997	-0.255214
H167	H	0.916191	-0.256663	0.078119
H168	H	1.249524	0.076670	0.411453
H169	H	0.649987	-0.521102	-0.248027
H170	H	0.983320	-0.187768	0.085307
H171	H	1.316653	0.145565	0.418640
H172	H	0.646515	-0.595013	-0.311623
H173	H	0.979848	-0.261679	0.021710
H174	H	1.313181	0.071654	0.355043
H175	H	0.941425	-0.778095	-0.476441
H176	H	1.274758	-0.444761	-0.143107
H177	H	1.608091	-0.111428	0.190226
H178	H	0.468739	-0.539213	-0.294378
H179	H	0.802072	-0.205879	0.038956
H180	H	1.135406	0.127454	0.372289
H181	H	0.478695	-0.330130	-0.455613
H182	H	0.812028	0.003204	-0.122280
H183	H	1.145362	0.336537	0.211053
C184	C	1.147759	-0.313334	-0.950386
C185	C	1.481092	0.019999	-0.617052
C186	C	1.814425	0.353333	-0.283719
H187	H	1.140633	-0.321575	-1.002048
H188	H	1.473966	0.011758	-0.668715
H189	H	1.807299	0.345092	-0.335382
H190	H	1.196574	-0.326554	-0.938415
H191	H	1.529908	0.006779	-0.605081
H192	H	1.863241	0.340112	-0.271748
H193	H	1.139864	-0.252716	-0.934949
H194	H	1.473197	0.080617	-0.601616
H195	H	1.806531	0.413951	-0.268283
H196	H	0.973958	-1.090353	-0.444155
H197	H	1.307291	-0.757020	-0.110821
H198	H	1.640625	-0.423686	0.222512
H199	H	1.152812	-0.919367	-0.265465
H200	H	1.486145	-0.586034	0.067868
H201	H	1.819479	-0.252701	0.401202
H202	H	0.618123	-0.330114	-0.455609
H203	H	0.951456	0.003219	-0.122276
H204	H	1.284790	0.336552	0.211057
C205	C	1.157664	-1.103747	-0.260732
C206	C	1.490997	-0.770413	0.072602
C207	C	1.824330	-0.437080	0.405935
H208	H	1.187647	-1.062188	-0.230764
H209	H	1.520980	-0.728855	0.102569
H210	H	1.854313	-0.395521	0.435903
H211	H	1.187998	-1.140449	-0.290642
H212	H	1.521331	-0.807116	0.042691
H213	H	1.854665	-0.473782	0.376025
H214	H	1.127809	-1.140550	-0.230372
H215	H	1.461142	-0.807217	0.102961
H216	H	1.794475	-0.473884	0.436294
H217	H	0.933454	-0.949041	-0.484506
H218	H	1.266788	-0.615707	-0.151173
H219	H	1.600121	-0.282374	0.182160
H220	H	1.133505	-0.329852	-0.800744
H221	H	1.466839	0.003481	-0.467411
H222	H	1.800172	0.336814	-0.134078
C223	C	0.938591	-0.555621	-0.961710
C224	C	1.271924	-0.222287	-0.628376
C225	C	1.605257	0.111046	-0.295043
H226	H	0.945736	-0.547352	-1.012601
H227	H	1.279069	-0.214019	-0.679267
H228	H	1.612403	0.119315	-0.345934
H229	H	0.889767	-0.542420	-0.948490
H230	H	1.223101	-0.209086	-0.615157
H231	H	1.556434	0.124247	-0.281823
H232	H	0.946491	-0.616242	-0.951953
H233	H	1.279824	-0.282909	-0.618620
H234	H	1.613158	0.050424	-0.285287
C235	C	0.938564	-0.555674	-0.800311
C236	C	1.271897	-0.222341	-0.466977
C237	C	1.605230	0.110993	-0.133644
H238	H	0.908914	-0.590031	-0.835809
H239	H	1.242247	-0.256698	-0.502475
H240	H	1.575580	0.076635	-0.169142
H241	H	0.908130	-0.521172	-0.768705
H242	H	1.241463	-0.187839	-0.435372
H243	H	1.574797	0.145495	-0.102039
H244	H	0.964855	-0.594993	-0.772177
H245	H	1.298189	-0.261660	-0.438844
H246	H	1.631522	0.071673	-0.105511
