data_functionalizedCrystal
_audit_creation_method	'MofGen! by Chris Wilmer'
_symmetry_space_group_name_H-M	'P1'
_symmetry_Int_Tables_number	1
_symmetry_cell_setting	triclinic
loop_
_symmetry_equiv_pos_as_xyz
  x,y,z
_cell_length_a	16.120530
_cell_length_b	12.645330
_cell_length_c	16.120256
_cell_angle_alpha	92.878509
_cell_angle_beta	90.128265
_cell_angle_gamma	87.113442
loop_
_atom_site_label
_atom_site_type_symbol
_atom_site_fract_x
_atom_site_fract_y
_atom_site_fract_z
Zn1	Zn	1.247481	-0.537102	-0.534597
Zn2	Zn	1.580815	-0.203768	-0.201264
Zn3	Zn	1.914148	0.129565	0.132069
Zn4	Zn	1.254445	-0.705858	-0.395549
Zn5	Zn	1.587778	-0.372525	-0.062216
Zn6	Zn	1.921112	-0.039191	0.271118
Zn7	Zn	1.115470	-0.519182	-0.388514
Zn8	Zn	1.448804	-0.185849	-0.055181
Zn9	Zn	1.782137	0.147485	0.278153
Zn10	Zn	1.108401	-0.704887	-0.527519
Zn11	Zn	1.441735	-0.371554	-0.194185
Zn12	Zn	1.775068	-0.038220	0.139148
O13	O	1.181449	-0.616757	-0.461545
O14	O	1.514783	-0.283424	-0.128211
O15	O	1.848116	0.049909	0.205122
O16	O	1.364772	-0.567393	-0.522059
O17	O	1.698105	-0.234060	-0.188726
O18	O	2.031439	0.099273	0.144608
O19	O	1.241883	-0.674002	-0.278249
O20	O	1.575216	-0.340669	0.055084
O21	O	1.908549	-0.007336	0.388417
O22	O	1.133026	-0.373216	-0.407910
O23	O	1.466359	-0.039883	-0.074577
O24	O	1.799693	0.293451	0.258756
O25	O	1.369888	-0.691378	-0.419901
O26	O	1.703221	-0.358045	-0.086567
O27	O	2.036555	-0.024711	0.246766
O28	O	1.230014	-0.386381	-0.515237
O29	O	1.563347	-0.053048	-0.181904
O30	O	1.896680	0.280285	0.151429
O31	O	1.139778	-0.536852	-0.273081
O32	O	1.473112	-0.203519	0.060253
O33	O	1.806445	0.129815	0.393586
O34	O	0.998166	-0.535910	-0.401046
O35	O	1.331499	-0.202577	-0.067713
O36	O	1.664832	0.130756	0.265620
O37	O	1.120978	-0.689723	-0.644824
O38	O	1.454311	-0.356390	-0.311491
O39	O	1.787644	-0.023056	0.021843
O40	O	0.992972	-0.672347	-0.503173
O41	O	1.326305	-0.339014	-0.169839
O42	O	1.659639	-0.005680	0.163494
O43	O	1.223159	-0.566452	-0.650025
O44	O	1.556493	-0.233118	-0.316691
O45	O	1.889826	0.100215	0.016642
O46	O	1.235028	-0.854073	-0.413037
O47	O	1.568361	-0.520739	-0.079703
O48	O	1.901695	-0.187406	0.253630
O49	O	1.127730	-0.853359	-0.509994
O50	O	1.461064	-0.520026	-0.176661
O51	O	1.794397	-0.186692	0.156672
C52	C	0.965396	-0.602080	-0.450579
C53	C	1.298730	-0.268746	-0.117245
C54	C	1.632063	0.064587	0.216088
C55	C	0.872967	-0.595827	-0.445907
C56	C	1.206300	-0.262494	-0.112574
C57	C	1.539633	0.070839	0.220760
C58	C	0.703736	-0.584388	-0.437385
C59	C	1.037070	-0.251054	-0.104051
C60	C	1.370403	0.082279	0.229282
C61	C	0.660000	-0.649209	-0.485765
C62	C	0.993333	-0.315875	-0.152432
C63	C	1.326667	0.017458	0.180901
C64	C	0.565834	-0.642844	-0.481024
C65	C	0.899168	-0.309510	-0.147690
C66	C	1.232501	0.023823	0.185643
C67	C	0.797911	-0.590751	-0.442125
C68	C	1.131244	-0.257418	-0.108792
C69	C	1.464577	0.075915	0.224541
C70	C	1.181389	-0.892182	-0.461530
C71	C	1.514723	-0.558849	-0.128197
C72	C	1.848056	-0.225515	0.205137
C73	C	1.181438	-1.010017	-0.461555
C74	C	1.514772	-0.676684	-0.128222
C75	C	1.848105	-0.343350	0.205111
C76	C	1.114192	-1.177206	-0.522763
C77	C	1.447526	-0.843873	-0.189430
C78	C	1.780859	-0.510540	0.143904
C79	C	1.113875	-1.054612	-0.522539
C80	C	1.447209	-0.721279	-0.189206
C81	C	1.780542	-0.387945	0.144127
C82	C	1.162161	-1.047628	-0.372718
C83	C	1.495494	-0.714295	-0.039385
C84	C	1.828827	-0.380962	0.293948
C85	C	1.161750	-1.170224	-0.373090
C86	C	1.495084	-0.836891	-0.039756
C87	C	1.828417	-0.503558	0.293577
C88	C	1.268390	-1.184460	-0.488494
C89	C	1.601723	-0.851127	-0.155161
C90	C	1.935056	-0.517793	0.178173
C91	C	1.267753	-1.061934	-0.490383
C92	C	1.601086	-0.728601	-0.157050
C93	C	1.934419	-0.395267	0.176284
C94	C	1.398346	-0.631493	-0.472554
C95	C	1.731680	-0.298160	-0.139221
C96	C	2.065013	0.035174	0.194112
C97	C	1.490775	-0.637772	-0.477246
C98	C	1.824108	-0.304439	-0.143913
C99	C	2.157441	0.028894	0.189421
C100	C	1.170503	-0.629978	-0.678441
C101	C	1.503837	-0.296645	-0.345107
C102	C	1.837170	0.036689	-0.011774
C103	C	1.165839	-0.635612	-0.770869
C104	C	1.499172	-0.302278	-0.437535
C105	C	1.832505	0.031055	-0.104202
C106	C	1.181532	-0.340259	-0.461579
C107	C	1.514865	-0.006926	-0.128246
C108	C	1.848198	0.326407	0.205088
C109	C	1.181566	-0.222433	-0.461593
C110	C	1.514900	0.110901	-0.128260
C111	C	1.848233	0.444234	0.205073
C112	C	1.205774	-0.587350	-0.983850
C113	C	1.539107	-0.254017	-0.650517
C114	C	1.872440	0.079317	-0.317183
C115	C	1.157294	-0.645852	-0.940089
C116	C	1.490628	-0.312518	-0.606756
C117	C	1.823961	0.020815	-0.273423
C118	C	1.162050	-0.640153	-0.845926
C119	C	1.495383	-0.306819	-0.512593
C120	C	1.828716	0.026514	-0.179260
C121	C	1.201019	-0.593048	-1.078022
C122	C	1.534353	-0.259715	-0.744688
C123	C	1.867686	0.073619	-0.411355
C124	C	1.192401	-0.603515	-0.245495
C125	C	1.525734	-0.270181	0.087838
C126	C	1.859068	0.063152	0.421172
C127	C	1.197227	-0.597593	-0.153076
C128	C	1.530560	-0.264260	0.180258
C129	C	1.863893	0.069073	0.513591
H130	H	1.125422	-1.029449	-0.588272
H131	H	1.458755	-0.696116	-0.254939
H132	H	1.792088	-0.362782	0.078395
Br133	Br	1.082163	-0.736465	-0.995510
Br134	Br	1.415497	-0.403132	-0.662177
Br135	Br	1.748830	-0.069799	-0.328844
Br136	Br	0.715459	-0.749663	-0.560746
Br137	Br	1.048792	-0.416330	-0.227413
Br138	Br	1.382125	-0.082997	0.105921
Br139	Br	0.648276	-0.483930	-0.362417
Br140	Br	0.981609	-0.150596	-0.029084
Br141	Br	1.314942	0.182737	0.304249
H142	H	1.125591	-1.211613	-0.588702
H143	H	1.458925	-0.878280	-0.255369
H144	H	1.792258	-0.544947	0.077965
Br145	Br	1.007425	-1.219911	-0.492847
Br146	Br	1.340758	-0.886577	-0.159514
Br147	Br	1.674091	-0.553244	0.173819
Br148	Br	1.280886	-0.496725	-0.928426
Br149	Br	1.614220	-0.163391	-0.595093
Br150	Br	1.947553	0.169942	-0.261760
Br151	Br	1.006441	-0.996983	-0.492256
Br152	Br	1.339775	-0.663650	-0.158923
Br153	Br	1.673108	-0.330316	0.174411
Br154	Br	1.057741	-0.987443	-0.335079
Br155	Br	1.391074	-0.654110	-0.001746
Br156	Br	1.724408	-0.320777	0.331588
H157	H	1.320237	-1.032027	-0.449428
H158	H	1.653570	-0.698694	-0.116095
H159	H	1.986904	-0.365360	0.217238
Br160	Br	1.056187	-1.208838	-0.335969
Br161	Br	1.389521	-0.875505	-0.002636
Br162	Br	1.722854	-0.542172	0.330698
H163	H	1.208934	-1.199868	-0.325720
H164	H	1.542268	-0.866535	0.007613
H165	H	1.875601	-0.533202	0.340947
H166	H	1.286844	-1.220624	-0.552408
H167	H	1.620177	-0.887290	-0.219074
H168	H	1.953510	-0.553957	0.114259
Br169	Br	1.241684	-0.999109	-0.294349
Br170	Br	1.575018	-0.665775	0.038985
Br171	Br	1.908351	-0.332442	0.372318
Br172	Br	1.292122	-1.021967	-0.599391
Br173	Br	1.625455	-0.688634	-0.266058
Br174	Br	1.958789	-0.355300	0.067276
Br175	Br	1.351965	-1.233402	-0.414342
Br176	Br	1.685298	-0.900069	-0.081009
Br177	Br	2.018632	-0.566736	0.252325
