data_functionalizedCrystal
_audit_creation_method	'MofGen! by Chris Wilmer'
_symmetry_space_group_name_H-M	'P1'
_symmetry_Int_Tables_number	1
_symmetry_cell_setting	triclinic
loop_
_symmetry_equiv_pos_as_xyz
  x,y,z
_cell_length_a	12.759401
_cell_length_b	12.645330
_cell_length_c	12.759393
_cell_angle_alpha	90.031109
_cell_angle_beta	90.019676
_cell_angle_gamma	90.013072
loop_
_atom_site_label
_atom_site_type_symbol
_atom_site_fract_x
_atom_site_fract_y
_atom_site_fract_z
Zn1	Zn	1.606281	-0.421976	0.593980
Zn2	Zn	2.106281	0.078024	1.093980
Zn3	Zn	1.606179	-0.599277	0.418298
Zn4	Zn	2.106179	-0.099277	0.918298
Zn5	Zn	1.430580	-0.422029	0.418319
Zn6	Zn	1.930580	0.077971	0.918319
Zn7	Zn	1.430578	-0.599199	0.593940
Zn8	Zn	1.930578	-0.099199	1.093940
O9	O	1.518405	-0.510620	0.506134
O10	O	2.018405	-0.010620	1.006134
O11	O	1.753289	-0.445506	0.570684
O12	O	2.253289	0.054494	1.070684
O13	O	1.582843	-0.575819	0.271280
O14	O	2.082843	-0.075819	0.771280
O15	O	1.453931	-0.273675	0.441647
O16	O	1.953931	0.226325	0.941647
O17	O	1.753213	-0.575768	0.441611
O18	O	2.253213	-0.075768	0.941611
O19	O	1.583018	-0.273636	0.570704
O20	O	2.083018	0.226364	1.070704
O21	O	1.453831	-0.445596	0.271295
O22	O	1.953831	0.054404	0.771295
O23	O	1.283559	-0.445521	0.441607
O24	O	1.783559	0.054479	0.941607
O25	O	1.453928	-0.575636	0.740966
O26	O	1.953928	-0.075636	1.240966
O27	O	1.283557	-0.575687	0.570635
O28	O	1.783557	-0.075687	1.070635
O29	O	1.583016	-0.445430	0.740996
O30	O	2.083016	0.054570	1.240996
O31	O	1.582841	-0.747614	0.441572
O32	O	2.082841	-0.247614	0.941572
O33	O	1.453828	-0.747557	0.570615
O34	O	1.953828	-0.247557	1.070615
C35	C	1.245437	-0.510602	0.506120
C36	C	1.745437	-0.010602	1.006120
C37	C	1.128661	-0.510620	0.506138
C38	C	1.628661	-0.010620	1.006138
C39	C	1.073839	-0.442915	0.573450
C40	C	1.573839	0.057085	1.073450
C41	C	0.964114	-0.442926	0.573457
C42	C	1.464114	0.057074	1.073457
C43	C	0.964044	-0.578355	0.438837
C44	C	1.464044	-0.078355	0.938837
C45	C	1.073766	-0.578338	0.438826
C46	C	1.573766	-0.078338	0.938826
C47	C	1.518352	-0.786050	0.506110
C48	C	2.018352	-0.286050	1.006110
C49	C	1.518426	-0.903880	0.506134
C50	C	2.018426	-0.403880	1.006134
C51	C	1.599457	-1.071436	0.424788
C52	C	2.099457	-0.571436	0.924788
C53	C	1.599721	-0.948875	0.424988
C54	C	2.099721	-0.448875	0.924988
C55	C	1.548455	-0.948254	0.616878
C56	C	2.048455	-0.448254	1.116878
C57	C	1.549098	-1.070852	0.616447
C58	C	2.049098	-0.570852	1.116447
C59	C	1.407332	-1.071210	0.477827
C60	C	1.907332	-0.571210	0.977827
C61	C	1.407865	-0.948606	0.475343
C62	C	1.907865	-0.448606	0.975343
C63	C	1.792438	-0.510639	0.506150
C64	C	2.292438	-0.010639	1.006150
C65	C	1.909214	-0.510647	0.506157
C66	C	2.409214	-0.010647	1.006157
C67	C	1.518483	-0.510518	0.780168
C68	C	2.018483	-0.010518	1.280168
C69	C	1.518517	-0.510475	0.896945
C70	C	2.018517	-0.010475	1.396945
C71	C	1.518486	-0.234115	0.506182
C72	C	2.018486	0.265885	1.006182
C73	C	1.518521	-0.116285	0.506203
C74	C	2.018521	0.383715	1.006203
C75	C	1.518387	-0.510645	0.233167
C76	C	2.018387	-0.010645	0.733167
C77	C	1.518557	-0.510390	0.116391
C78	C	2.018557	-0.010390	0.616391
C79	C	1.585738	-0.442666	0.951824
C80	C	2.085738	0.057334	1.451824
C81	C	1.585756	-0.442621	1.061548
C82	C	2.085756	0.057379	1.561548
C83	C	1.451328	-0.578201	1.061504
C84	C	1.951328	-0.078201	1.561504
C85	C	1.451306	-0.578241	0.951782
C86	C	1.951306	-0.078241	1.451782
H87	H	0.919483	-0.387792	0.628267
H88	H	1.419483	0.112208	1.128267
F89	F	1.657267	-0.370541	0.893466
F90	F	2.157267	0.129459	1.393466
F91	F	1.132258	-0.370840	0.645086
F92	F	1.632258	0.129160	1.145086
H93	H	1.385222	-0.919615	0.393845
H94	H	1.885222	-0.419615	0.893845
H95	H	0.919336	-0.633490	0.384035
H96	H	1.419336	-0.133490	0.884035
F97	F	1.132115	-0.650394	0.367171
F98	F	1.632115	-0.150394	0.867171
H99	H	1.380025	-1.102225	0.398479
H100	H	1.880025	-0.602225	0.898479
H101	H	1.580932	-0.918878	0.342872
H102	H	2.080932	-0.418878	0.842872
H103	H	1.580903	-1.100994	0.342433
H104	H	2.080903	-0.600994	0.842433
H105	H	1.681369	-1.102164	0.443347
H106	H	2.181369	-0.602164	0.943347
F107	F	1.707362	-0.910429	0.449524
F108	F	2.207362	-0.410429	0.949524
F109	F	1.475383	-1.109628	0.698427
F110	F	1.975383	-0.609628	1.198427
H111	H	1.630372	-1.099362	0.640483
H112	H	2.130372	-0.599362	1.140483
F113	F	1.473744	-0.910165	0.698290
F114	F	1.973744	-0.410165	1.198290
H115	H	1.640492	-0.387402	1.106226
H116	H	2.140492	0.112598	1.606226
H117	H	1.628811	-0.917463	0.641316
H118	H	2.128811	-0.417463	1.141316
F119	F	1.379751	-0.650411	0.893372
F120	F	1.879751	-0.150411	1.393372
H121	H	1.347028	-1.100214	0.537124
H122	H	1.847028	-0.600214	1.037124
F123	F	1.324787	-0.908587	0.547167
F124	F	1.824787	-0.408587	1.047167
F125	F	1.379805	-0.650323	1.119875
F126	F	1.879805	-0.150323	1.619875
