data_functionalizedCrystal
_audit_creation_method	'MofGen! by Chris Wilmer'
_symmetry_space_group_name_H-M	'P1'
_symmetry_Int_Tables_number	1
_symmetry_cell_setting	triclinic
loop_
_symmetry_equiv_pos_as_xyz
  x,y,z
_cell_length_a	9.065215
_cell_length_b	10.268362
_cell_length_c	9.065215
_cell_angle_alpha	89.998151
_cell_angle_beta	94.985269
_cell_angle_gamma	90.004031
loop_
_atom_site_label
_atom_site_type_symbol
_atom_site_fract_x
_atom_site_fract_y
_atom_site_fract_z
O1	O	1.960402	0.108274	-0.216338
O2	O	2.293735	0.441607	0.116996
O3	O	2.627069	0.774941	0.450329
O4	O	1.531116	0.108279	-0.234089
O5	O	1.864450	0.441612	0.099245
O6	O	2.197783	0.774946	0.432578
O7	O	1.754634	0.108279	-0.010571
O8	O	2.087968	0.441612	0.322763
O9	O	2.421301	0.774946	0.656096
O10	O	1.736884	0.108274	-0.439856
O11	O	2.070217	0.441607	-0.106523
O12	O	2.403550	0.774941	0.226811
O13	O	1.754615	-0.108322	-0.010561
O14	O	2.087948	0.225012	0.322772
O15	O	2.421281	0.558345	0.656106
O16	O	1.531097	-0.108322	-0.234079
O17	O	1.864430	0.225012	0.099254
O18	O	2.197763	0.558345	0.432587
O19	O	1.960382	-0.108327	-0.216328
O20	O	2.293715	0.225007	0.117005
O21	O	2.627049	0.558340	0.450338
Cu22	Cu	1.745738	-0.128101	-0.225203
Cu23	Cu	2.079071	0.205232	0.108130
Cu24	Cu	2.412404	0.538565	0.441464
Cu25	Cu	1.745761	0.128054	-0.225214
Cu26	Cu	2.079094	0.461387	0.108119
Cu27	Cu	2.412428	0.794721	0.441452
O28	O	1.736864	-0.108327	-0.439847
O29	O	2.070197	0.225007	-0.106513
O30	O	2.403531	0.558340	0.226820
C31	C	1.476120	-0.000021	-0.232379
C32	C	1.809453	0.333313	0.100954
C33	C	2.142786	0.666646	0.434288
C34	C	1.312277	-0.000018	-0.227281
C35	C	1.645610	0.333315	0.106052
C36	C	1.978943	0.666648	0.439386
N37	N	1.745732	-0.308267	-0.225194
N38	N	2.079065	0.025066	0.108139
N39	N	2.412398	0.358399	0.441472
C40	C	1.745753	-0.573938	-0.225211
C41	C	2.079087	-0.240605	0.108122
C42	C	2.412420	0.092729	0.441456
C43	C	1.745737	-0.426100	-0.225206
C44	C	2.079070	-0.092767	0.108127
C45	C	2.412403	0.240567	0.441461
C46	C	2.015379	-0.000024	-0.218038
C47	C	2.348712	0.333309	0.115295
C48	C	2.682045	0.666642	0.448629
C49	C	2.179222	-0.000018	-0.223136
C50	C	2.512555	0.333315	0.110197
C51	C	2.845888	0.666649	0.443531
C52	C	1.752920	-0.000018	0.044421
C53	C	2.086253	0.333315	0.377754
C54	C	2.419586	0.666649	0.711088
C55	C	1.747821	-0.000008	0.208264
C56	C	2.081155	0.333326	0.541597
C57	C	2.414488	0.666659	0.874931
N58	N	1.745778	0.308220	-0.225211
N59	N	2.079112	0.641553	0.108122
N60	N	2.412445	0.974886	0.441455
C61	C	1.738579	-0.000017	0.505162
C62	C	2.071912	0.333316	0.838495
C63	C	2.405245	0.666649	1.171829
C64	C	1.743676	0.000009	0.341319
C65	C	2.077010	0.333343	0.674652
C66	C	2.410343	0.666676	1.007986
