data_functionalizedCrystal
_audit_creation_method	'MofGen! by Chris Wilmer'
_symmetry_space_group_name_H-M	'P1'
_symmetry_Int_Tables_number	1
_symmetry_cell_setting	triclinic
loop_
_symmetry_equiv_pos_as_xyz
  x,y,z
_cell_length_a	18.215407
_cell_length_b	18.215405
_cell_length_c	18.215399
_cell_angle_alpha	89.972459
_cell_angle_beta	89.980167
_cell_angle_gamma	90.023180
loop_
_atom_site_label
_atom_site_type_symbol
_atom_site_fract_x
_atom_site_fract_y
_atom_site_fract_z
Zn1	Zn	1.125083	-0.292983	-0.416118
Zn2	Zn	1.625083	0.207017	0.083882
Zn3	Zn	1.124996	-0.416054	-0.293053
Zn4	Zn	1.624996	0.083946	0.206947
Zn5	Zn	1.002016	-0.293007	-0.293065
Zn6	Zn	1.502016	0.206993	0.206935
Zn7	Zn	1.001986	-0.416013	-0.416077
Zn8	Zn	1.501986	0.083987	0.083923
O9	O	1.063520	-0.354514	-0.354578
O10	O	1.563520	0.145486	0.145422
O11	O	1.228056	-0.309316	-0.399805
O12	O	1.728056	0.190684	0.100195
O13	O	1.108658	-0.399759	-0.190070
O14	O	1.608658	0.100241	0.309930
O15	O	1.018389	-0.190020	-0.309411
O16	O	1.518389	0.309980	0.190589
O17	O	1.227992	-0.399736	-0.309389
O18	O	1.727992	0.100264	0.190611
O19	O	1.108807	-0.190002	-0.399817
O20	O	1.608807	0.309998	0.100183
O21	O	1.018305	-0.309357	-0.190079
O22	O	1.518305	0.190643	0.309921
O23	O	0.899027	-0.309317	-0.309372
O24	O	1.399027	0.190683	0.190628
O25	O	1.018339	-0.399666	-0.519067
O26	O	1.518339	0.100334	-0.019067
O27	O	0.899006	-0.399689	-0.399748
O28	O	1.399006	0.100311	0.100252
O29	O	1.108778	-0.309276	-0.519097
O30	O	1.608778	0.190724	-0.019097
O31	O	1.108630	-0.519033	-0.309350
O32	O	1.608630	-0.019033	0.190650
O33	O	1.018255	-0.519003	-0.399736
O34	O	1.518255	-0.019003	0.100264
C35	C	0.872314	-0.354502	-0.354557
C36	C	1.372314	0.145498	0.145443
C37	C	0.790515	-0.354514	-0.354566
C38	C	1.290515	0.145486	0.145434
C39	C	1.063450	-0.545721	-0.354553
C40	C	1.563450	-0.045721	0.145447
C41	C	1.063487	-0.627520	-0.354567
C42	C	1.563487	-0.127520	0.145433
C43	C	0.602329	-0.401645	-0.401566
C44	C	1.102329	0.098355	0.098434
C45	C	0.525470	-0.401647	-0.401575
C46	C	1.025470	0.098353	0.098425
C47	C	0.525463	-0.307397	-0.307607
C48	C	1.025463	0.192603	0.192393
C49	C	0.602321	-0.307392	-0.307602
C50	C	1.102321	0.192608	0.192398
C51	C	0.640751	-0.354520	-0.354580
C52	C	1.140751	0.145480	0.145420
C53	C	0.487035	-0.354528	-0.354594
C54	C	0.987035	0.145472	0.145406
C55	C	0.403702	-0.354530	-0.354604
C56	C	0.903702	0.145470	0.145396
C57	C	0.724090	-0.354517	-0.354572
C58	C	1.224090	0.145483	0.145428
C59	C	1.110589	-0.815643	-0.401705
C60	C	1.610589	-0.315643	0.098295
C61	C	1.110616	-0.892502	-0.401719
C62	C	1.610616	-0.392502	0.098281
C63	C	1.016542	-0.892634	-0.307497
C64	C	1.516542	-0.392634	0.192503
C65	C	1.016512	-0.815776	-0.307488
C66	C	1.516512	-0.315776	0.192512
C67	C	1.063540	-0.777283	-0.354590
C68	C	1.563540	-0.277283	0.145410
C69	C	1.063597	-0.930999	-0.354614
C70	C	1.563597	-0.430999	0.145386
C71	C	1.063625	-1.014333	-0.354628
C72	C	1.563625	-0.514333	0.145372
C73	C	1.063511	-0.693944	-0.354577
C74	C	1.563511	-0.193944	0.145423
C75	C	1.255473	-0.354528	-0.354600
C76	C	1.755473	0.145472	0.145400
C77	C	1.337272	-0.354533	-0.354609
C78	C	1.837272	0.145467	0.145391
C79	C	1.063565	-0.354464	-0.546531
C80	C	1.563565	0.145536	-0.046531
C81	C	1.063584	-0.354442	-0.628330
C82	C	1.563584	0.145558	-0.128330
C83	C	1.063611	-0.162561	-0.354620
C84	C	1.563611	0.337439	0.145380
C85	C	1.063650	-0.080763	-0.354638
C86	C	1.563650	0.419237	0.145362
C87	C	1.110692	-0.307332	-0.816541
C88	C	1.610692	0.192668	-0.316541
C89	C	1.110701	-0.307311	-0.893400
C90	C	1.610701	0.192689	-0.393400
C91	C	1.016528	-0.401438	-0.893358
C92	C	1.516528	0.098562	-0.393358
C93	C	1.016516	-0.401455	-0.816500
C94	C	1.516516	0.098545	-0.316500
C95	C	1.063602	-0.354403	-0.778094
C96	C	1.563602	0.145597	-0.278094
C97	C	1.063623	-0.354365	-0.931810
C98	C	1.563623	0.145635	-0.431810
C99	C	1.063632	-0.354342	-1.015144
C100	C	1.563632	0.145658	-0.515144
C101	C	1.063592	-0.354425	-0.694755
C102	C	1.563592	0.145575	-0.194755
C103	C	1.063518	-0.354512	-0.163372
C104	C	1.563518	0.145488	0.336628
C105	C	1.063641	-0.354326	-0.081574
C106	C	1.563641	0.145674	0.418426
H107	H	0.633617	-0.440018	-0.439820
H108	H	1.133617	0.059982	0.060180
O109	O	0.965708	-0.452224	-0.775038
O110	O	1.465708	0.047776	-0.275038
H111	H	0.998611	-0.489679	-0.740009
H112	H	1.498611	0.010321	-0.240009
O113	O	0.483987	-0.452477	-0.452217
O114	O	0.983987	0.047523	0.047783
H115	H	0.448947	-0.489845	-0.419174
H116	H	0.948947	0.010155	0.080826
H117	H	1.148881	-0.784304	-0.440060
H118	H	1.648881	-0.284304	0.059940
O119	O	1.161483	-0.256535	-0.934872
O120	O	1.661483	0.243465	-0.434872
H121	H	1.198911	-0.289462	-0.969898
H122	H	1.698911	0.210538	-0.469898
O123	O	1.161360	-0.933880	-0.452535
O124	O	1.661360	-0.433880	0.047465
H125	H	1.219122	-0.919099	-0.439962
H126	H	1.719122	-0.419099	0.060038
O127	O	0.484014	-0.256592	-0.256914
O128	O	0.984014	0.243408	0.243086
H129	H	0.424115	-0.264524	-0.264798
H130	H	0.924115	0.235476	0.235202
O131	O	0.643771	-0.256573	-0.256912
O132	O	1.143771	0.243427	0.243088
H133	H	0.604137	-0.223814	-0.224234
H134	H	1.104137	0.276186	0.275766
H135	H	1.149031	-0.269017	-0.785273
H136	H	1.649031	0.230983	-0.285273
H137	H	0.978255	-0.923984	-0.269147
H138	H	1.478255	-0.423984	0.230853
O139	O	0.965771	-0.774393	-0.256663
O140	O	1.465771	-0.274393	0.243337
H141	H	0.933084	-0.814070	-0.223901
H142	H	1.433084	-0.314070	0.276099
H143	H	0.978193	-0.439748	-0.924637
H144	H	1.478193	0.060252	-0.424637
