data_functionalizedCrystal
_audit_creation_method	'MofGen! by Chris Wilmer'
_symmetry_space_group_name_H-M	'P1'
_symmetry_Int_Tables_number	1
_symmetry_cell_setting	triclinic
loop_
_symmetry_equiv_pos_as_xyz
  x,y,z
_cell_length_a	11.169417
_cell_length_b	18.101395
_cell_length_c	18.101390
_cell_angle_alpha	89.968664
_cell_angle_beta	89.983992
_cell_angle_gamma	90.031983
loop_
_atom_site_label
_atom_site_type_symbol
_atom_site_fract_x
_atom_site_fract_y
_atom_site_fract_z
Zn1	Zn	1.834744	-0.294784	-0.418676
Zn2	Zn	1.834574	-0.418641	-0.294837
Zn3	Zn	1.634043	-0.294820	-0.294855
Zn4	Zn	1.633965	-0.418590	-0.418645
O5	O	1.734331	-0.356709	-0.356753
O6	O	2.002671	-0.311220	-0.402254
O7	O	1.807935	-0.402252	-0.191207
O8	O	1.660771	-0.191182	-0.311301
O9	O	2.002546	-0.402217	-0.311270
O10	O	1.808225	-0.191156	-0.402271
O11	O	1.660606	-0.311281	-0.191220
O12	O	1.466083	-0.311232	-0.311271
O13	O	1.660637	-0.402131	-0.522282
O14	O	1.466025	-0.402165	-0.402218
O15	O	1.808148	-0.311171	-0.522304
O16	O	1.807859	-0.522267	-0.311240
O17	O	1.660472	-0.522230	-0.402201
C18	C	1.422507	-0.356698	-0.356744
C19	C	1.289107	-0.356711	-0.356757
C20	C	1.734171	-0.549119	-0.356732
C21	C	1.734212	-0.631433	-0.356747
C22	C	1.734475	-0.930524	-0.356787
C23	C	1.641959	-0.899206	-0.414159
C24	C	1.641519	-0.813588	-0.413979
C25	C	1.734345	-0.782142	-0.356768
C26	C	1.700101	-0.813299	-0.278719
C27	C	1.699505	-0.898944	-0.279063
C28	C	1.861438	-0.898865	-0.376776
C29	C	1.860691	-0.813214	-0.378488
C30	C	1.734273	-0.698282	-0.356752
C31	C	1.734544	-1.014384	-0.356797
C32	C	2.047374	-0.356721	-0.356763
C33	C	2.180774	-0.356726	-0.356768
C34	C	1.734403	-0.356641	-0.549915
C35	C	1.734433	-0.356612	-0.632229
C36	C	1.734525	-0.163547	-0.356791
C37	C	1.734608	-0.081233	-0.356808
C38	C	1.734498	-0.356566	-0.931321
C39	C	1.827614	-0.299538	-0.900010
C40	C	1.827324	-0.299326	-0.814391
C41	C	1.734467	-0.356589	-0.782938
C42	C	1.608031	-0.335387	-0.814016
C43	C	1.608589	-0.334959	-0.899661
C44	C	1.766704	-0.434943	-0.899734
C45	C	1.769479	-0.434543	-0.814084
C46	C	1.734442	-0.356603	-0.699078
C47	C	1.734515	-0.356550	-1.015180
C48	C	1.734329	-0.356723	-0.164343
C49	C	1.734532	-0.356543	-0.082029
H50	H	1.663170	-0.919750	-0.472218
C51	C	1.958745	-0.784297	-0.326151
C52	C	2.089884	-0.807949	-0.337469
C53	C	2.187934	-0.779033	-0.285125
C54	C	2.154845	-0.726465	-0.221462
C55	C	2.023700	-0.702810	-0.210141
C56	C	1.925650	-0.731726	-0.262485
H57	H	2.114384	-0.846865	-0.384599
H58	H	2.285017	-0.796544	-0.293506
H59	H	2.227428	-0.705059	-0.182714
H60	H	1.999200	-0.663893	-0.163012
H61	H	1.828567	-0.714215	-0.254104
H62	H	1.857284	-0.454249	-0.921375
C63	C	1.954688	-0.317248	-0.927840
C64	C	2.055023	-0.334800	-0.872214
C65	C	2.182100	-0.352513	-0.900050
C66	C	2.208841	-0.352675	-0.983512
C67	C	2.108503	-0.335123	-1.039142
C68	C	1.981427	-0.317409	-1.011306
H69	H	2.035229	-0.334681	-0.810427
H70	H	2.256376	-0.365507	-0.858869
H71	H	2.302911	-0.365788	-1.004118
H72	H	2.128297	-0.335242	-1.100930
H73	H	1.907150	-0.304416	-1.052488
C74	C	1.903619	-0.927964	-0.452352
C75	C	1.823306	-0.980855	-0.496884
C76	C	1.865471	-1.009955	-0.572463
C77	C	1.987949	-0.986163	-0.603509
C78	C	2.068270	-0.933269	-0.558976
C79	C	2.026104	-0.904169	-0.483398
H80	H	1.732633	-0.998469	-0.473902
H81	H	1.806012	-1.049110	-0.605428
H82	H	2.019163	-1.007704	-0.659457
H83	H	2.158942	-0.915655	-0.581958
H84	H	2.085564	-0.865014	-0.450432
H85	H	1.806566	-0.241799	-0.921547
C86	C	1.511752	-0.389766	-0.786491
C87	C	1.546902	-0.454212	-0.735353
C88	C	1.450625	-0.508592	-0.707828
C89	C	1.319197	-0.498527	-0.731441
C90	C	1.284040	-0.434079	-0.782582
C91	C	1.380318	-0.379698	-0.810107
H92	H	1.644198	-0.461665	-0.717871
H93	H	1.476651	-0.556301	-0.669970
H94	H	1.247927	-0.538783	-0.711065
H95	H	1.186744	-0.426625	-0.800064
H96	H	1.354292	-0.331989	-0.847965
C97	C	1.953984	-0.317223	-0.785986
C98	C	1.974723	-0.385523	-0.736884
C99	C	2.101391	-0.403402	-0.708476
C100	C	2.207321	-0.352982	-0.729170
C101	C	2.186586	-0.284677	-0.778275
C102	C	2.059917	-0.266797	-0.806683
H103	H	1.896304	-0.422851	-0.721562
H104	H	2.116740	-0.453966	-0.672125
H105	H	2.301089	-0.366217	-0.708141
H106	H	2.265004	-0.247348	-0.793596
H107	H	2.044568	-0.216234	-0.843033
H108	H	1.806006	-0.241263	-0.793918
C109	C	1.675090	-0.492349	-0.927087
C110	C	1.571563	-0.468276	-0.977830
C111	C	1.479945	-0.525674	-1.005188
C112	C	1.491854	-0.607147	-0.981804
C113	C	1.595385	-0.631225	-0.931058
C114	C	1.687003	-0.573826	-0.903700
H115	H	1.562744	-0.407961	-0.995144
H116	H	1.403305	-0.507850	-1.042754
H117	H	1.424033	-0.649637	-1.002056
H118	H	1.604205	-0.691540	-0.913745
H119	H	1.763643	-0.591651	-0.866135
C120	C	1.684510	-0.495029	-0.785164
C121	C	1.734564	-0.559976	-0.739716
C122	C	1.649580	-0.620459	-0.710797
C123	C	1.514541	-0.615994	-0.727326
C124	C	1.464480	-0.551044	-0.772776
C125	C	1.549464	-0.490562	-0.801695
H126	H	1.834534	-0.563284	-0.727479
H127	H	1.686639	-0.668539	-0.677152
H128	H	1.451631	-0.660766	-0.705919
H129	H	1.364510	-0.547737	-0.785014
H130	H	1.512405	-0.442482	-0.835340
H131	H	1.547411	-0.793167	-0.400739
H132	H	1.862524	-0.450531	-0.793770
C133	C	1.515592	-0.928361	-0.396499
C134	C	1.408692	-0.905445	-0.445067
C135	C	1.282326	-0.934600	-0.427404
C136	C	1.262861	-0.986671	-0.361172
C137	C	1.369764	-1.009590	-0.312600
C138	C	1.496130	-0.980435	-0.330263
H139	H	1.423098	-0.866897	-0.494100
H140	H	1.203189	-0.917634	-0.463361
H141	H	1.169318	-1.008253	-0.348097
H142	H	1.355358	-1.048138	-0.263567
H143	H	1.575267	-0.997401	-0.294306
C144	C	1.571712	-0.257561	-0.926673
C145	C	1.541961	-0.196572	-0.870315
C146	C	1.505088	-0.119172	-0.897323
C147	C	1.497965	-0.102760	-0.980689
C148	C	1.527717	-0.163751	-1.037052
C149	C	1.564591	-0.241152	-1.010045
H150	H	1.547233	-0.208720	-0.808598
H151	H	1.483063	-0.074023	-0.855599
H152	H	1.470669	-0.045464	-1.000682
H153	H	1.522445	-0.151604	-1.098770
H154	H	1.586615	-0.286301	-1.051769
C155	C	1.574127	-0.926030	-0.256192
C156	C	1.558986	-0.974839	-0.187111
C157	C	1.433604	-1.001920	-0.164242
C158	C	1.323362	-0.980191	-0.210454
C159	C	1.338499	-0.931379	-0.279540
C160	C	1.463882	-0.904298	-0.302409
H161	H	1.640597	-0.990926	-0.152898
H162	H	1.422399	-1.038054	-0.113100
H163	H	1.230547	-1.000238	-0.193525
H164	H	1.256889	-0.915292	-0.313753
H165	H	1.475086	-0.868164	-0.353551
H166	H	1.662943	-0.792520	-0.471852
C167	C	1.895581	-0.785697	-0.456083
C168	C	1.919757	-0.841617	-0.518402
C169	C	1.954637	-0.814095	-0.595998
C170	C	1.965341	-0.730655	-0.611277
C171	C	1.941164	-0.674730	-0.548957
C172	C	1.906284	-0.702251	-0.471360
H173	H	1.911834	-0.903389	-0.507093
H174	H	1.972535	-0.855495	-0.642132
H175	H	1.991161	-0.710282	-0.668719
H176	H	1.949087	-0.612958	-0.560265
H177	H	1.888386	-0.660852	-0.425227
C178	C	1.786557	-0.926942	-0.219333
C179	C	1.856392	-0.871368	-0.171473
C180	C	1.943428	-0.899362	-0.111737
C181	C	1.960629	-0.982930	-0.099860
C182	C	1.890792	-1.038510	-0.147722
C183	C	1.803756	-1.010516	-0.207458
H184	H	1.843660	-0.809501	-0.180263
H185	H	1.995125	-0.858218	-0.076306
H186	H	2.025058	-1.003653	-0.055640
H187	H	1.903524	-1.100377	-0.138932
H188	H	1.752059	-1.051660	-0.242888
C189	C	1.570474	-0.258844	-0.785066
C190	C	1.647763	-0.190541	-0.802476
C191	C	1.610214	-0.113996	-0.773528
C192	C	1.495377	-0.105753	-0.727171
C193	C	1.418081	-0.174058	-0.709759
C194	C	1.455630	-0.250603	-0.738707
H195	H	1.732779	-0.196641	-0.836794
H196	H	1.667435	-0.063432	-0.786418
H197	H	1.467581	-0.049090	-0.705742
H198	H	1.333065	-0.167958	-0.675441
H199	H	1.398409	-0.301167	-0.725817
C200	C	1.788259	-0.785782	-0.219392
C201	C	1.742237	-0.739819	-0.153706
C202	C	1.830396	-0.712300	-0.094380
C203	C	1.964577	-0.730745	-0.100739
C204	C	2.010606	-0.776711	-0.166427
C205	C	1.922447	-0.804229	-0.225753
H206	H	1.642903	-0.726163	-0.148996
H207	H	1.796322	-0.678273	-0.045753
H208	H	2.029838	-0.710374	-0.056822
H209	H	2.109940	-0.790367	-0.171137
H210	H	1.956521	-0.838256	-0.274380
H211	H	1.930366	-0.919118	-0.334990
H212	H	1.608276	-0.791916	-0.261482
H213	H	1.536850	-0.374689	-0.920372
