data_functionalizedCrystal
_audit_creation_method	'MofGen! by Chris Wilmer'
_symmetry_space_group_name_H-M	'P1'
_symmetry_Int_Tables_number	1
_symmetry_cell_setting	triclinic
loop_
_symmetry_equiv_pos_as_xyz
  x,y,z
_cell_length_a	10.654558
_cell_length_b	10.540510
_cell_length_c	9.130313
_cell_angle_alpha	90.001199
_cell_angle_beta	90.000369
_cell_angle_gamma	84.500814
loop_
_atom_site_label
_atom_site_type_symbol
_atom_site_fract_x
_atom_site_fract_y
_atom_site_fract_z
O1	O	1.667872	0.178348	-0.121770
O2	O	1.302399	0.195324	-0.121777
O3	O	1.493493	0.002124	-0.121773
O4	O	1.476778	0.371548	-0.121774
O5	O	1.493491	0.002129	0.121826
O6	O	1.302397	0.195329	0.121822
O7	O	1.667870	0.178353	0.121829
Cu8	Cu	1.485133	0.186842	0.144068
Cu9	Cu	1.485136	0.186835	-0.144016
O10	O	1.476776	0.371553	0.121825
C11	C	1.255600	0.194078	0.000022
C12	C	1.116156	0.190342	0.000019
C13	C	0.919617	0.185088	-0.132767
C14	C	1.050641	0.188587	-0.132768
C15	C	1.050642	0.188585	0.132816
C16	C	0.919622	0.185077	0.132816
C17	C	0.854108	0.183345	-0.265563
C18	C	0.919613	0.185099	-0.398361
C19	C	1.050636	0.188598	-0.398363
C20	C	1.116155	0.190343	-0.265566
C21	C	1.492246	-0.045176	0.000024
C22	C	1.488520	-0.186125	0.000015
C23	C	1.621272	-0.403624	0.000575
C24	C	1.625247	-0.257030	0.000019
C25	C	1.418530	-0.230864	-0.139090
C26	C	1.415523	-0.377624	-0.139199
C27	C	1.412673	-0.377425	0.137818
C28	C	1.419158	-0.231086	0.139649
C29	C	1.714669	0.179599	0.000027
C30	C	1.854112	0.183335	0.000020
C31	C	1.478022	0.418853	0.000025
C32	C	1.481749	0.559802	0.000024
N33	N	1.485140	0.186845	0.346691
N34	N	1.485138	0.186822	-0.346639
C35	C	1.569778	0.101326	0.423344
C36	C	1.569775	0.101310	0.576681
C37	C	1.400491	0.272345	0.576697
C38	C	1.400489	0.272354	0.423363
C39	C	1.654429	0.015817	0.346672
C40	C	1.739075	-0.069708	0.423326
C41	C	1.739072	-0.069724	0.576663
C42	C	1.654422	0.015787	0.653346
H43	H	0.866284	0.183674	0.240943
H44	H	1.331568	0.341990	0.360951
Cl45	Cl	1.654443	0.015836	0.153906
H46	H	1.103998	0.190009	0.240933
H47	H	1.310017	-0.399541	0.138753
Cl48	Cl	1.132984	0.190787	-0.565305
H49	H	0.866260	0.183670	-0.506479
H50	H	1.654418	0.015758	0.778203
Cl51	Cl	1.709766	-0.211740	0.153992
Cl52	Cl	1.265035	-0.155286	0.152618
H53	H	1.222844	0.193185	-0.265578
H54	H	1.674538	-0.445595	0.100335
H55	H	1.674233	-0.447149	-0.098618
H56	H	1.331574	0.341966	0.639142
H57	H	1.470085	-0.202489	0.242558
H58	H	1.680329	-0.228645	-0.099867
Cl59	Cl	1.489383	-0.439748	-0.299731
Cl60	Cl	1.845475	-0.177212	0.326929
Cl61	Cl	1.257641	-0.413081	-0.148961
H62	H	1.807986	-0.139370	0.639073
H63	H	1.456122	-0.419619	0.243260
H64	H	1.467137	-0.200025	-0.242610
Cl65	Cl	0.689392	0.178954	-0.265571
H66	H	1.317873	-0.183442	-0.144265
