data_functionalizedCrystal
_audit_creation_method	'MofGen! by Chris Wilmer'
_symmetry_space_group_name_H-M	'P1'
_symmetry_Int_Tables_number	1
_symmetry_cell_setting	triclinic
loop_
_symmetry_equiv_pos_as_xyz
  x,y,z
_cell_length_a	18.101398
_cell_length_b	25.639239
_cell_length_c	18.101389
_cell_angle_alpha	89.979551
_cell_angle_beta	89.975673
_cell_angle_gamma	90.033952
loop_
_atom_site_label
_atom_site_type_symbol
_atom_site_fract_x
_atom_site_fract_y
_atom_site_fract_z
Zn1	Zn	1.132082	-0.208272	-0.418828
Zn2	Zn	1.131961	-0.295693	-0.294982
Zn3	Zn	1.008241	-0.208266	-0.294989
Zn4	Zn	1.008175	-0.295671	-0.418771
O5	O	1.070115	-0.251975	-0.356893
O6	O	1.235699	-0.219880	-0.402421
O7	O	1.115527	-0.284103	-0.191350
O8	O	1.024747	-0.135102	-0.311444
O9	O	1.235610	-0.284108	-0.311432
O10	O	1.115732	-0.135106	-0.402428
O11	O	1.024630	-0.219871	-0.191356
O12	O	0.904599	-0.219849	-0.311388
O13	O	1.024635	-0.284070	-0.522411
O14	O	0.904551	-0.284065	-0.402330
O15	O	1.115668	-0.219858	-0.522454
O16	O	1.115463	-0.368855	-0.311376
O17	O	1.024518	-0.368839	-0.402323
C18	C	0.877704	-0.251954	-0.356854
C19	C	0.795390	-0.251958	-0.356855
C20	C	0.496299	-0.251990	-0.356917
C21	C	0.527630	-0.211386	-0.299978
C22	C	0.613248	-0.211495	-0.299735
C23	C	0.644682	-0.251974	-0.356886
C24	C	0.613553	-0.307048	-0.335559
C25	C	0.527908	-0.306822	-0.335163
C26	C	0.527917	-0.238000	-0.435317
C27	C	0.613568	-0.236773	-0.434890
C28	C	0.728541	-0.251968	-0.356870
C29	C	0.412440	-0.252000	-0.356932
C30	C	1.069990	-0.387818	-0.356859
C31	C	1.070005	-0.445932	-0.356869
C32	C	1.117594	-0.806291	-0.309617
C33	C	1.117622	-0.860895	-0.309627
O34	O	1.157955	-0.889129	-0.269415
N35	N	1.070245	-0.888214	-0.356942
C36	C	1.022841	-0.860926	-0.404255
O37	O	0.982546	-0.889177	-0.444501
C38	C	1.022817	-0.806323	-0.404248
C39	C	1.070192	-0.779007	-0.356925
C40	C	1.164965	-0.778975	-0.262299
C41	C	1.164936	-0.724374	-0.262288
C42	C	1.117534	-0.697090	-0.309596
C43	C	1.070162	-0.724406	-0.356914
C44	C	0.975417	-0.779036	-0.451564
C45	C	0.975397	-0.724429	-0.451554
C46	C	1.022773	-0.697113	-0.404231
C47	C	1.022731	-0.642522	-0.404212
N48	N	1.070108	-0.615202	-0.356897
C49	C	1.117509	-0.642487	-0.309589
C50	C	1.022897	-0.975597	-0.404266
C51	C	1.022917	-1.030199	-0.404270
C52	C	1.117699	-1.030164	-0.309643
C53	C	1.117675	-0.975561	-0.309636
C54	C	1.070274	-0.948278	-0.356952
C55	C	1.117443	-0.527822	-0.309570
C56	C	1.117406	-0.473216	-0.309561
C57	C	1.022627	-0.473256	-0.404190
C58	C	1.022661	-0.527856	-0.404197
C59	C	1.070074	-0.555138	-0.356884
O60	O	0.982421	-0.614254	-0.444405
O61	O	1.157804	-0.614229	-0.269357
C62	C	1.263277	-0.251997	-0.356932
C63	C	1.345591	-0.252006	-0.356949
C64	C	1.070158	-0.251962	-0.550055
C65	C	1.070176	-0.251957	-0.632369
C66	C	1.070260	-0.115602	-0.356943
C67	C	1.070322	-0.057488	-0.356964
C68	C	1.070219	-0.251859	-0.931460
C69	C	1.012746	-0.292130	-0.900108
C70	C	1.012901	-0.292317	-0.814490
C71	C	1.070197	-0.251907	-0.783077
C72	C	1.148220	-0.266868	-0.814182
C73	C	1.147899	-0.267132	-0.899827
C74	C	1.050348	-0.196537	-0.899887
C75	C	1.048612	-0.196856	-0.814236
C76	C	1.070189	-0.251934	-0.699218
C77	C	1.070232	-0.251833	-1.015320
C78	C	1.070115	-0.251951	-0.164482
C79	C	1.070240	-0.251809	-0.082169
H80	H	0.506079	-0.220529	-0.242223
H81	H	0.507180	-0.338099	-0.374826
C82	C	1.030710	-0.347718	-0.786885
C83	C	1.104445	-0.373653	-0.808065
C84	C	1.122281	-0.429061	-0.780497
C85	C	1.066382	-0.458534	-0.731748
C86	C	0.992643	-0.432599	-0.710564
C87	C	0.974806	-0.377191	-0.738133
H88	H	1.145828	-0.351835	-0.844154
H89	H	1.176868	-0.448259	-0.796178
H90	H	1.079586	-0.499550	-0.711340
H91	H	0.951259	-0.454417	-0.674475
H92	H	0.920219	-0.357992	-0.722451
H93	H	0.984292	-0.953386	-0.442794
C94	C	0.641680	-0.156319	-0.317780
C95	C	0.620996	-0.110140	-0.267499
C96	C	0.649419	-0.054960	-0.285537
C97	C	0.698525	-0.045957	-0.353856
C98	C	0.719211	-0.092137	-0.404142
C99	C	0.690788	-0.147318	-0.386104
H100	H	0.584643	-0.116803	-0.216920
H101	H	0.634105	-0.020774	-0.248312
H102	H	0.719565	-0.005109	-0.367210
H103	H	0.755564	-0.085475	-0.454721
H104	H	0.706102	-0.181503	-0.423329
C105	C	0.641059	-0.349018	-0.389821
C106	C	0.585160	-0.380939	-0.435293
C107	C	0.612667	-0.422910	-0.489555
C108	C	0.696073	-0.432959	-0.498345
C109	C	0.751977	-0.401037	-0.452871
C110	C	0.724470	-0.359067	-0.398609
H111	H	0.523413	-0.373501	-0.428788
H112	H	0.571282	-0.446540	-0.523217
H113	H	0.716435	-0.464028	-0.538512
H114	H	0.813724	-0.408475	-0.459377
H115	H	0.765855	-0.335436	-0.364947
H116	H	1.155985	-0.450977	-0.271023
H117	H	1.192191	-0.238457	-0.793838
C118	C	0.934741	-0.279672	-0.786070
C119	C	0.871745	-0.269331	-0.841306
C120	C	0.793580	-0.256689	-0.812891
C121	C	0.778411	-0.254387	-0.729240
C122	C	0.841408	-0.264728	-0.674000
C123	C	0.919573	-0.277370	-0.702415
H124	H	0.882973	-0.271035	-0.903234
H125	H	0.746946	-0.249035	-0.853784
H126	H	0.720548	-0.245029	-0.708206
H127	H	0.830180	-0.263024	-0.612072
H128	H	0.966207	-0.285025	-0.661521
C129	C	0.642471	-0.323358	-0.258965
C130	C	0.625073	-0.289651	-0.190752
C131	C	0.653988	-0.305958	-0.114156
C132	C	0.700302	-0.355971	-0.105772
C133	C	0.717702	-0.389681	-0.173987
C134	C	0.688787	-0.373374	-0.250584
H135	H	0.590786	-0.252626	-0.196956
H136	H	0.641107	-0.281003	-0.063659
H137	H	0.721707	-0.368042	-0.049071
H138	H	0.751989	-0.426706	-0.167783
H139	H	0.701668	-0.398329	-0.301081
C140	C	1.217112	-0.808980	-0.210252
C141	C	1.211106	-0.801492	-0.126059
C142	C	1.263252	-0.831493	-0.074004
C143	C	1.321404	-0.868982	-0.106143
C144	C	1.327412	-0.876471	-0.190340
C145	C	1.275266	-0.846471	-0.242395
H146	H	1.168057	-0.773740	-0.102265
H147	H	1.258804	-0.825948	-0.011675
H148	H	1.360005	-0.891190	-0.067608
H149	H	1.370461	-0.904224	-0.214135
H150	H	1.279713	-0.852015	-0.304724
H151	H	1.156252	-0.953323	-0.271102
C152	C	0.640882	-0.223995	-0.221257
C153	C	0.619961	-0.188135	-0.156317
C154	C	0.647593	-0.200638	-0.077835
C155	C	0.696147	-0.249002	-0.064294
C156	C	0.717071	-0.284865	-0.129236
C157	C	0.689439	-0.272361	-0.207718
H158	H	0.584017	-0.152330	-0.166339
H159	H	0.632104	-0.174090	-0.029761
H160	H	0.716602	-0.258257	-0.006197
H161	H	0.753016	-0.320669	-0.119214
H162	H	0.704928	-0.298910	-0.255792
C163	C	0.923252	-0.694418	-0.503601
C164	C	0.865107	-0.656930	-0.471449
C165	C	0.812961	-0.626920	-0.523493
C166	C	0.818961	-0.634397	-0.607689
C167	C	0.877109	-0.671886	-0.639844
C168	C	0.929254	-0.701897	-0.587800
H169	H	0.860663	-0.651393	-0.409118
H170	H	0.769916	-0.599168	-0.499689
H171	H	0.780359	-0.612182	-0.646215
H172	H	0.881552	-0.677423	-0.702175
H173	H	0.972299	-0.729649	-0.611605
H174	H	1.156053	-0.550028	-0.271045
C175	C	1.170673	-0.321763	-0.926816
C176	C	1.124364	-0.369772	-0.905035
C177	C	1.147146	-0.424404	-0.932014
C178	C	1.216237	-0.431028	-0.980774
C179	C	1.262550	-0.383018	-1.002557
C180	C	1.239768	-0.328386	-0.975578
H181	H	1.073215	-0.364870	-0.868938
H182	H	1.112862	-0.459944	-0.915888
H183	H	1.233102	-0.471470	-1.000745
H184	H	1.313700	-0.387920	-1.038654
H185	H	1.274053	-0.292845	-0.991704
C186	C	0.499850	-0.156044	-0.317835
C187	C	0.416398	-0.144411	-0.318055
C188	C	0.388611	-0.089068	-0.335915
C189	C	0.444276	-0.045357	-0.353555
C190	C	0.527733	-0.056988	-0.353335
C191	C	0.555520	-0.112331	-0.335475
H192	H	0.375187	-0.176770	-0.304997
H193	H	0.326831	-0.080459	-0.336078
H194	H	0.423707	-0.004389	-0.366776
H195	H	0.568945	-0.024629	-0.366394
H196	H	0.617301	-0.120941	-0.335313
H197	H	1.165358	-0.306879	-0.792738
H198	H	0.506352	-0.198540	-0.454708
H199	H	0.936836	-0.801268	-0.490096
H200	H	1.192172	-0.239073	-0.920569
H201	H	0.633919	-0.196245	-0.450971
H202	H	1.203514	-0.702136	-0.223756
C203	C	1.030286	-0.347191	-0.929181
C204	C	1.096511	-0.355708	-0.981215
C205	C	1.114053	-0.410768	-1.010289
C206	C	1.065370	-0.457311	-0.987329
C207	C	0.999141	-0.448795	-0.935292
C208	C	0.981599	-0.393735	-0.906218
H209	H	1.132553	-0.321253	-0.998214
H210	H	1.163081	-0.417072	-1.048810
H211	H	1.078356	-0.498069	-1.008851
H212	H	0.963099	-0.483250	-0.918292
H213	H	0.932571	-0.387431	-0.867696
H214	H	1.156299	-1.052389	-0.271125
C215	C	0.642477	-0.273818	-0.495271
C216	C	0.587766	-0.306275	-0.541421
C217	C	0.616679	-0.343326	-0.601798
C218	C	0.700302	-0.347920	-0.616025
C219	C	0.755018	-0.315462	-0.569874
C220	C	0.726106	-0.278411	-0.509497
H221	H	0.525858	-0.302876	-0.530891
H222	H	0.576173	-0.367354	-0.635962
H223	H	0.721705	-0.375347	-0.660719
H224	H	0.816926	-0.318861	-0.580404
H225	H	0.766611	-0.254383	-0.475333
H226	H	0.984333	-1.052436	-0.442798
C227	C	0.500864	-0.322848	-0.257736
C228	C	0.557197	-0.335762	-0.196695
C229	C	0.530157	-0.351787	-0.119265
C230	C	0.446784	-0.354898	-0.102876
C231	C	0.390447	-0.341983	-0.163919
C232	C	0.417486	-0.325958	-0.241349
H233	H	0.618919	-0.333459	-0.208825
H234	H	0.571863	-0.361347	-0.074077
H235	H	0.426768	-0.366760	-0.045558
H236	H	0.328725	-0.344286	-0.151788
H237	H	0.375781	-0.316398	-0.286536
H238	H	1.092209	-0.166532	-0.920164
C239	C	0.971046	-0.181612	-0.786768
C240	C	0.955761	-0.176935	-0.703339
C241	C	0.878195	-0.161693	-0.675865
C242	C	0.815914	-0.151129	-0.731821
C243	C	0.831197	-0.155805	-0.815255
C244	C	0.908763	-0.171047	-0.842728
H245	H	1.001867	-0.184756	-0.661913
H246	H	0.866882	-0.158232	-0.614101
H247	H	0.758494	-0.139846	-0.711483
H248	H	0.785091	-0.147984	-0.856681
H249	H	0.920076	-0.174509	-0.904492
C250	C	0.974821	-0.178124	-0.929039
C251	C	0.930222	-0.213091	-0.981897
C252	C	0.854692	-0.194686	-1.011048
C253	C	0.823760	-0.141313	-0.987343
C254	C	0.868359	-0.106342	-0.934482
C255	C	0.943890	-0.124748	-0.905330
H256	H	0.953119	-0.252604	-0.999448
H257	H	0.821677	-0.220574	-1.050179
H258	H	0.767848	-0.127688	-1.008922
H259	H	0.845462	-0.066829	-0.916931
H260	H	0.976905	-0.098860	-0.866199
H261	H	0.507654	-0.267575	-0.477742
H262	H	1.087419	-0.165258	-0.792854
H263	H	0.984086	-0.550098	-0.442733
H264	H	0.984031	-0.451032	-0.442706
H265	H	0.954715	-0.282864	-0.920695
