data_functionalizedCrystal
_audit_creation_method	'MofGen! by Chris Wilmer'
_symmetry_space_group_name_H-M	'P1'
_symmetry_Int_Tables_number	1
_symmetry_cell_setting	triclinic
loop_
_symmetry_equiv_pos_as_xyz
  x,y,z
_cell_length_a	27.440280
_cell_length_b	27.440280
_cell_length_c	15.698487
_cell_angle_alpha	59.992596
_cell_angle_beta	90.005015
_cell_angle_gamma	59.999099
loop_
_atom_site_label
_atom_site_type_symbol
_atom_site_fract_x
_atom_site_fract_y
_atom_site_fract_z
Zr1	Zr	0.469479	0.533426	-0.111835
O2	O	0.391654	0.635116	-0.247898
O3	O	0.493340	0.431744	-0.070105
O4	O	0.493332	0.533426	-0.247848
O5	O	0.391664	0.533433	0.070029
O6	O	0.573535	0.533416	-0.247830
O7	O	0.391661	0.533435	-0.070155
O8	O	0.573548	0.351527	0.070120
O9	O	0.391651	0.715322	-0.247921
O10	O	0.563367	0.473558	-0.052318
O11	O	0.503514	0.473563	0.052287
O12	O	0.503506	0.593280	-0.156982
O13	O	0.443653	0.593285	-0.052377
Zr14	Zr	0.597398	0.533408	0.111771
Zr15	Zr	0.597393	0.533411	-0.111807
Zr16	Zr	0.469483	0.533423	0.111743
Zr17	Zr	0.469474	0.661346	-0.111871
Zr18	Zr	0.597402	0.405489	0.111807
O19	O	0.573537	0.635091	0.070041
O20	O	0.573531	0.635095	-0.247859
O21	O	0.391660	0.635112	0.070001
O22	O	0.675223	0.431719	0.247834
O23	O	0.675217	0.431723	-0.070065
O24	O	0.493345	0.431740	0.247795
O25	O	0.675213	0.533402	-0.070093
O26	O	0.573544	0.533409	0.247784
O27	O	0.493342	0.533419	0.247766
O28	O	0.675216	0.533400	0.070091
O29	O	0.493325	0.715310	-0.247899
O30	O	0.573551	0.351525	0.247834
O31	O	0.675226	0.351513	0.247857
O32	O	0.675223	0.351515	0.070142
O33	O	0.391654	0.715320	-0.070206
O34	O	0.493329	0.715308	-0.070184
O35	O	0.563371	0.473555	0.156918
O36	O	0.623223	0.473549	0.052313
O37	O	0.563362	0.593271	-0.052351
O38	O	0.503510	0.593277	0.052254
C39	C	0.533444	0.373410	0.000013
C40	C	0.533446	0.319105	0.000028
C41	C	0.489250	0.026613	-0.077313
C42	C	0.489250	-0.024404	-0.077324
O43	O	0.451682	-0.013207	-0.143047
N44	N	0.533436	-0.094115	-0.000073
C45	C	0.577630	-0.112808	0.077188
O46	O	0.615214	-0.176787	0.142894
C47	C	0.577632	-0.061792	0.077193
C48	C	0.533439	0.007919	-0.000056
C49	C	0.445061	0.096320	-0.154557
C50	C	0.445061	0.147333	-0.154545
C51	C	0.489250	0.128639	-0.077288
C52	C	0.533439	0.058932	-0.000044
C53	C	0.621828	-0.080485	0.154449
C54	C	0.621826	-0.029462	0.154447
C55	C	0.577633	0.040249	0.077198
C56	C	0.577628	0.091252	0.077225
N57	N	0.533441	0.160962	-0.000026
C58	C	0.489252	0.179656	-0.077283
C59	C	0.577622	-0.219943	0.077169
C60	C	0.577618	-0.270959	0.077168
C61	C	0.489238	-0.182552	-0.077345
C62	C	0.489240	-0.131535	-0.077339
C63	C	0.533435	-0.150233	-0.000082
C64	C	0.489255	0.286784	-0.077251
C65	C	0.489257	0.337798	-0.077229
C66	C	0.577639	0.249387	0.077281
C67	C	0.577635	0.198377	0.077263
C68	C	0.533440	0.217081	-0.000012
O69	O	0.615177	0.080106	0.142912
O70	O	0.451678	0.243635	-0.142986
C71	C	0.373437	0.533436	-0.000067
C72	C	0.319134	0.533443	-0.000079
C73	C	0.013683	0.470912	0.054631
C74	C	-0.037335	0.470909	0.054640
O75	O	-0.037149	0.417760	0.101136
N76	N	-0.094099	0.533402	0.000005
C77	C	-0.099843	0.595902	-0.054634
O78	O	-0.152809	0.649057	-0.101104
C79	C	-0.048825	0.595906	-0.054637
C80	C	0.007938	0.533408	-0.000007
C81	C	0.070444	0.408420	0.109257
C82	C	0.121459	0.408424	0.109246
C83	C	0.115713	0.470920	0.054608
C84	C	0.058953	0.533412	-0.000018
C85	C	-0.054570	0.658406	-0.109269
C86	C	-0.003546	0.658403	-0.109266
C87	C	0.053217	0.595906	-0.054636
C88	C	0.104222	0.595913	-0.054666
N89	N	0.160985	0.533420	-0.000031
C90	C	0.166731	0.470924	0.054606
C91	C	-0.206982	0.595891	-0.054623
C92	C	-0.257999	0.595889	-0.054627
C93	C	-0.195487	0.470895	0.054648
C94	C	-0.144469	0.470898	0.054646
C95	C	-0.150218	0.533398	0.000012
C96	C	0.273863	0.470937	0.054578
C97	C	0.324880	0.470946	0.054558
C98	C	0.262364	0.595940	-0.054712
C99	C	0.211352	0.595931	-0.054698
C100	C	0.217105	0.533424	-0.000045
O101	O	0.104082	0.649034	-0.101135
O102	O	0.219699	0.417778	0.101079
C103	C	0.693440	0.533399	0.000003
C104	C	0.747742	0.533392	0.000015
C105	C	0.533433	0.533421	-0.279694
C106	C	0.533431	0.533423	-0.374609
C107	C	0.533432	0.693425	-0.000077
C108	C	0.533430	0.747730	-0.000092
C109	C	0.533445	0.533411	-0.548373
C110	C	0.533439	0.533414	-0.451676
C111	C	0.533444	0.533414	0.279630
C112	C	0.533445	0.533412	0.374545
C113	C	0.693446	0.373391	0.000048
C114	C	0.747751	0.319080	0.000075
C115	C	0.533450	0.373406	0.279675
C116	C	0.533454	0.319100	0.374605
C117	C	0.693451	0.373387	0.279710
C118	C	0.747758	0.319074	0.374652
C119	C	0.373426	0.693448	-0.279774
C120	C	0.319119	0.747760	-0.374716
C121	C	0.373431	0.693444	-0.000112
C122	C	0.319126	0.747755	-0.000139
C123	C	0.533427	0.693429	-0.279739
C124	C	0.533423	0.747735	-0.374669
C125	C	0.742008	0.293579	-0.054538
C126	C	0.793029	0.242554	-0.054534
C127	C	0.849791	0.217028	0.000090
C128	C	0.855532	0.242534	0.054705
C129	C	0.804512	0.293561	0.054694
C130	C	0.564700	0.293592	0.473810
C131	C	0.564701	0.242573	0.563016
C132	C	0.533459	0.217058	0.553013
C133	C	0.502209	0.242570	0.453797
C134	C	0.502205	0.293592	0.364594
C135	C	0.804508	0.293566	0.364634
C136	C	0.855540	0.242540	0.453834
C137	C	0.849820	0.217021	0.553049
C138	C	0.793063	0.242535	0.563064
C139	C	0.742033	0.293563	0.473866
C140	C	0.262368	0.773275	-0.364699
C141	C	0.211337	0.824317	-0.453898
C142	C	0.217057	0.849839	-0.553113
C143	C	0.273814	0.824322	-0.563128
C144	C	0.324844	0.773285	-0.473930
C145	C	0.324868	0.773261	0.054465
C146	C	0.273848	0.824300	0.054436
C147	C	0.217086	0.849828	-0.000192
C148	C	0.211345	0.824319	-0.054802
C149	C	0.262365	0.773285	-0.054779
C150	C	0.564671	0.773234	-0.364632
C151	C	0.564679	0.824254	-0.453821
C152	C	0.533436	0.849777	-0.553044
C153	C	0.502187	0.824274	-0.563078
C154	C	0.502183	0.773251	-0.473891
H155	H	0.453268	0.302023	-0.140176
H156	H	0.901749	0.221772	0.445661
C157	C	0.440632	-0.054859	-0.162318
H158	H	0.414318	-0.051039	-0.208329
H159	H	0.418807	-0.033116	-0.130603
H160	H	0.458784	-0.033120	-0.200468
C161	C	0.810836	0.321599	0.114786
H162	H	0.851949	0.299079	0.147326
H163	H	0.792231	0.369775	0.067652
H164	H	0.792239	0.313224	0.166475
C165	C	0.786779	0.214453	0.672204
H166	H	0.825302	0.180403	0.723884
H167	H	0.765578	0.251075	0.680035
H168	H	0.765587	0.194538	0.680031
C169	C	0.599043	0.745162	-0.255496
H170	H	0.594566	0.711126	-0.203806
H171	H	0.640148	0.725249	-0.247661
H172	H	0.583612	0.781798	-0.247688
H173	H	0.613615	0.234177	0.140183
C174	C	0.670447	-0.157157	0.239416
H175	H	0.696765	-0.160972	0.285410
H176	H	0.652310	-0.178913	0.277572
H177	H	0.692272	-0.178887	0.207679
H178	H	0.891377	0.175470	0.625672
H179	H	0.590141	0.314361	0.481975
H180	H	0.371099	0.420052	0.099048
C181	C	0.679577	0.321652	-0.114636
H182	H	0.683473	0.299157	-0.147167
H183	H	0.658371	0.313291	-0.067509
H184	H	0.658374	0.369831	-0.166334
H185	H	0.175500	0.891396	-0.625736
C186	C	0.440645	0.414479	-0.162210
H187	H	0.414333	0.418302	-0.208228
H188	H	0.418819	0.436219	-0.130492
H189	H	0.458798	0.436220	-0.200354
C190	C	0.280101	0.852391	-0.672266
H191	H	0.321208	0.829891	-0.665467
H192	H	0.261487	0.844031	-0.709315
H193	H	0.261493	0.900570	-0.709342
H194	H	0.476762	0.314354	0.283819
C195	C	0.387267	0.745215	-0.484962
H196	H	0.383359	0.767723	-0.556828
H197	H	0.408483	0.753566	-0.452443
H198	H	0.408466	0.697038	-0.452437
C199	C	0.599046	0.852306	-0.442764
H200	H	0.617642	0.829804	-0.370896
H201	H	0.628620	0.843939	-0.475258
H202	H	0.572071	0.900486	-0.475304
C203	C	0.679610	0.321609	0.484897
H204	H	0.683518	0.299094	0.556764
H205	H	0.658393	0.369785	0.452365
H206	H	0.658412	0.313236	0.452387
C207	C	0.786703	0.214500	-0.114600
H208	H	0.745590	0.237004	-0.147114
H209	H	0.805297	0.222864	-0.166290
H210	H	0.805312	0.166321	-0.067439
C211	C	0.256041	0.745225	-0.114831
H212	H	0.214927	0.767736	-0.147355
H213	H	0.274642	0.753579	-0.166513
H214	H	0.274642	0.697048	-0.067665
C215	C	0.599084	0.214512	0.672140
H216	H	0.617696	0.237009	0.665313
H217	H	0.572122	0.222881	0.709200
H218	H	0.628654	0.166332	0.709220
H219	H	0.371082	0.752480	0.098956
C220	C	0.533440	0.905906	-0.651141
H221	H	0.556521	0.917438	-0.630943
H222	H	0.550167	0.889188	-0.691486
H223	H	0.493629	0.945729	-0.691502
C224	C	0.533473	0.160931	0.651142
H225	H	0.556563	0.149392	0.711655
H226	H	0.493669	0.177653	0.651148
H227	H	0.550210	0.121111	0.651172
C228	C	-0.320433	0.664635	-0.114727
H229	H	-0.316541	0.701853	-0.147259
H230	H	-0.341643	0.667238	-0.166405
H231	H	-0.341628	0.667233	-0.067581
H232	H	0.476773	0.221789	0.445667
H233	H	0.257699	0.752498	-0.283920
H234	H	0.165128	0.845084	-0.445723
C235	C	0.280174	0.852343	0.114521
H236	H	0.321287	0.829818	0.147071
H237	H	0.261576	0.900517	0.067379
H238	H	0.261569	0.843979	0.166201
C239	C	0.905907	0.160894	0.000105
H240	H	0.894352	0.149361	-0.040237
H241	H	0.928994	0.177607	-0.029131
H242	H	0.928990	0.121073	0.069701
C243	C	0.183892	0.339677	0.169351
H244	H	0.179998	0.302461	0.201897
H245	H	0.205096	0.337071	0.122224
H246	H	0.205094	0.337079	0.221036
H247	H	-0.100781	0.709298	-0.153753
C248	C	0.810809	0.321632	0.255507
H249	H	0.772293	0.355674	0.203808
H250	H	0.832005	0.341538	0.247685
H251	H	0.832013	0.284996	0.247700
H252	H	0.175547	0.891383	-0.000202
C253	C	0.396452	0.224010	-0.239522
H254	H	0.402772	0.251724	-0.228460
H255	H	0.398283	0.233808	-0.306196
H256	H	0.358307	0.233803	-0.236326
H257	H	0.165122	0.845112	-0.099278
C258	C	0.467816	0.852361	-0.672227
H259	H	0.472291	0.886405	-0.723898
H260	H	0.483237	0.815739	-0.680059
H261	H	0.426706	0.872283	-0.680068
H262	H	0.901754	0.221744	0.099178
H263	H	0.409076	0.111553	-0.217474
C264	C	0.440633	-0.161996	-0.162330
H265	H	0.446967	-0.202366	-0.151270
H266	H	0.402487	-0.135475	-0.159146
H267	H	0.442467	-0.135475	-0.229007
C268	C	0.467797	0.745217	-0.484938
H269	H	0.472266	0.711173	-0.417617
H270	H	0.426694	0.781865	-0.522020
H271	H	0.483226	0.725308	-0.521987
C272	C	0.626227	-0.347635	0.162149
H273	H	0.652544	-0.351455	0.208154
H274	H	0.608080	-0.369381	0.200293
H275	H	0.648055	-0.369372	0.130423
H276	H	0.278557	0.420037	0.099082
C277	C	0.670439	-0.050033	0.239437
H278	H	0.696753	-0.098857	0.285443
H279	H	0.692265	-0.031967	0.207726
H280	H	0.652287	-0.031975	0.277592
C281	C	-0.009873	0.727156	-0.169371
H282	H	-0.050987	0.764372	-0.201908
H283	H	0.008734	0.729757	-0.122242
H284	H	0.008722	0.729758	-0.221062
H285	H	0.613610	-0.235177	0.140090
H286	H	0.613615	0.141614	0.140175
H287	H	0.075132	0.357526	0.153755
H288	H	-0.098254	0.420007	0.099140
C289	C	0.148913	0.664675	-0.114789
H290	H	0.152800	0.701896	-0.147325
H291	H	0.127699	0.667279	-0.166462
H292	H	0.127724	0.667267	-0.067633
C293	C	-0.213312	0.664646	-0.114742
H294	H	-0.254426	0.701860	-0.147284
H295	H	-0.194709	0.667254	-0.067618
H296	H	-0.194714	0.667246	-0.166430
H297	H	-0.190817	0.420007	0.099134
H298	H	0.257696	0.646823	-0.099201
