data_functionalizedCrystal
_audit_creation_method	'MofGen! by Chris Wilmer'
_symmetry_space_group_name_H-M	'P1'
_symmetry_Int_Tables_number	1
_symmetry_cell_setting	triclinic
loop_
_symmetry_equiv_pos_as_xyz
  x,y,z
_cell_length_a	6.394989
_cell_length_b	10.654549
_cell_length_c	9.130313
_cell_angle_alpha	89.997498
_cell_angle_beta	89.998557
_cell_angle_gamma	85.491244
loop_
_atom_site_label
_atom_site_type_symbol
_atom_site_fract_x
_atom_site_fract_y
_atom_site_fract_z
O1	O	0.293438	1.670948	-0.121755
O2	O	0.321396	1.305765	-0.121764
O3	O	0.003428	1.493540	-0.121761
O4	O	0.611406	1.483173	-0.121758
O5	O	0.003418	1.493526	0.121838
O6	O	0.321387	1.305752	0.121835
O7	O	0.293429	1.670934	0.121844
Cu8	Cu	0.307407	1.488342	0.144082
Cu9	Cu	0.307418	1.488358	-0.144002
O10	O	0.611397	1.483160	0.121841
C11	C	0.319339	1.258939	0.000034
C12	C	0.313197	1.119430	0.000030
C13	C	0.494626	0.910837	0.000037
C14	C	0.500412	1.041919	0.000028
C15	C	0.120184	1.065854	0.000026
C16	C	0.114400	0.934774	0.000024
C17	C	0.689253	1.485216	0.000035
C18	C	0.925578	1.491480	0.000031
C19	C	0.295486	1.717761	0.000043
C20	C	0.301627	1.857269	0.000037
N21	N	0.307398	1.488340	0.346704
N22	N	0.307410	1.488369	-0.346625
C23	C	0.166661	1.571516	0.423358
C24	C	0.166662	1.571528	0.576695
C25	C	0.448154	1.405184	0.576711
C26	C	0.448141	1.405167	0.423377
H27	H	-0.042772	0.891159	0.000020
H28	H	0.052059	1.639256	0.639102
C29	C	0.700570	0.825581	0.000034
C30	C	0.748894	0.732172	0.126527
C31	C	0.954845	0.646920	0.126519
C32	C	1.112473	0.655077	0.000018
C33	C	1.064153	0.748490	-0.126484
C34	C	0.858202	0.833742	-0.126476
H35	H	0.632205	0.726131	0.220180
H36	H	0.990614	0.577770	0.220166
H37	H	1.264930	0.591968	0.000012
H38	H	1.180842	0.754531	-0.220137
H39	H	0.822433	0.902892	-0.220123
H40	H	0.657570	1.085527	0.000027
H41	H	0.562747	1.337468	0.639154
H42	H	-0.032249	1.128974	0.000019
C43	C	0.602963	1.313668	0.339045
C44	C	0.757868	1.222236	0.423372
C45	C	0.912674	1.130739	0.339038
C46	C	0.912575	1.130674	0.170377
C47	C	0.757663	1.222111	0.086040
C48	C	0.602857	1.313608	0.170374
H49	H	0.757947	1.222280	0.548234
H50	H	1.027350	1.063052	0.401471
H51	H	1.027171	1.062943	0.107948
H52	H	0.757584	1.222066	-0.038822
H53	H	0.488182	1.381295	0.107941
H54	H	0.052056	1.639239	0.360934
