data_functionalizedCrystal
_audit_creation_method	'MofGen! by Chris Wilmer'
_symmetry_space_group_name_H-M	'P1'
_symmetry_Int_Tables_number	1
_symmetry_cell_setting	triclinic
loop_
_symmetry_equiv_pos_as_xyz
  x,y,z
_cell_length_a	19.288864
_cell_length_b	27.732048
_cell_length_c	18.366186
_cell_angle_alpha	89.988789
_cell_angle_beta	89.977106
_cell_angle_gamma	82.889449
loop_
_atom_site_label
_atom_site_type_symbol
_atom_site_fract_x
_atom_site_fract_y
_atom_site_fract_z
O1	O	0.920977	0.060300	-0.060791
O2	O	1.420977	0.560300	0.439209
O3	O	0.718665	0.068434	-0.060742
O4	O	1.218665	0.568434	0.439258
O5	O	0.826104	-0.006011	-0.060754
O6	O	1.326104	0.493989	0.439246
O7	O	0.813538	0.134745	-0.060779
O8	O	1.313538	0.634745	0.439221
O9	O	0.826086	-0.006014	0.060345
O10	O	1.326086	0.493986	0.560345
O11	O	0.718647	0.068430	0.060357
O12	O	1.218647	0.568430	0.560357
O13	O	0.920959	0.060296	0.060309
O14	O	1.420959	0.560296	0.560309
Zn15	Zn	0.819800	0.064363	0.079560
Zn16	Zn	1.319800	0.564363	0.579560
Zn17	Zn	0.819824	0.064368	-0.079994
Zn18	Zn	1.319824	0.564368	0.420006
O19	O	0.813520	0.134741	0.060321
O20	O	1.313520	0.634741	0.560321
C21	C	0.692781	0.068171	-0.000186
C22	C	1.192781	0.568171	0.499814
C23	C	0.615683	0.067385	-0.000167
C24	C	1.115683	0.567385	0.499833
C25	C	0.570714	0.111066	-0.000186
C26	C	1.070714	0.611066	0.499814
C27	C	0.498271	0.110328	-0.000194
C28	C	0.998271	0.610328	0.499806
C29	C	0.470801	0.065906	-0.000197
C30	C	0.970801	0.565906	0.499803
C31	C	0.515780	0.022219	-0.000174
C32	C	1.015780	0.522219	0.499826
C33	C	0.588220	0.022959	-0.000159
C34	C	1.088220	0.522959	0.499841
C35	C	0.362763	0.030987	-0.042642
C36	C	0.862763	0.530987	0.457358
C37	C	0.290323	0.030250	-0.042662
C38	C	0.790323	0.530250	0.457338
C39	C	0.247370	0.063624	-0.000241
C40	C	0.747370	0.563624	0.499759
C41	C	0.276863	0.097744	0.042190
C42	C	0.776863	0.597744	0.542190
C43	C	0.349304	0.098483	0.042206
C44	C	0.849304	0.598483	0.542206
C45	C	0.392252	0.065099	-0.000213
C46	C	0.892252	0.565099	0.499787
C47	C	0.123850	0.106507	-0.000268
C48	C	0.623850	0.606507	0.499732
C49	C	0.051406	0.105767	-0.000271
C50	C	0.551406	0.605767	0.499729
C51	C	0.068916	0.017658	-0.000258
C52	C	0.568916	0.517658	0.499742
C53	C	0.141358	0.018399	-0.000248
C54	C	0.641358	0.518399	0.499752
C55	C	0.168820	0.062825	-0.000256
C56	C	0.668820	0.562825	0.499744
C57	C	0.825831	-0.024020	-0.000202
C58	C	1.325831	0.475980	0.499798
C59	C	0.825037	-0.077678	-0.000196
C60	C	1.325037	0.422322	0.499804
C61	C	0.883526	-0.416316	-0.000248
C62	C	1.383526	0.083684	0.499752
C63	C	0.880579	-0.617985	-0.000257
C64	C	1.380579	-0.117985	0.499743
O65	O	0.934063	-0.649079	-0.000302
O66	O	1.434063	-0.149079	0.499698
N67	N	0.816872	-0.637301	-0.000241
N68	N	1.316872	-0.137301	0.499759
C69	C	0.753897	-0.606196	-0.000227
C70	C	1.253897	-0.106196	0.499773
O71	O	0.699643	-0.627253	-0.000222
O72	O	1.199643	-0.127253	0.499778
C73	C	0.756845	-0.404529	-0.000223
C74	C	1.256845	0.095471	0.499777
C75	C	0.820556	-0.385216	-0.000232
C76	C	1.320556	0.114784	0.499768
C77	C	0.947232	-0.397002	-0.000257
C78	C	1.447232	0.102998	0.499743
C79	C	0.947968	-0.346588	-0.000251
C80	C	1.447968	0.153412	0.499749
C81	C	0.884998	-0.315488	-0.000235
C82	C	1.384998	0.184512	0.499765
C83	C	0.821292	-0.334801	-0.000226
C84	C	1.321292	0.165199	0.499774
C85	C	0.693871	-0.373425	-0.000215
C86	C	1.193871	0.126575	0.499785
C87	C	0.694614	-0.323006	-0.000216
C88	C	1.194614	0.176994	0.499784
C89	C	0.758325	-0.303693	-0.000224
C90	C	1.258325	0.196307	0.499776
C91	C	0.759059	-0.253287	-0.000203
C92	C	1.259059	0.246713	0.499797
N93	N	0.822766	-0.233971	-0.000219
N94	N	1.322766	0.266029	0.499781
C95	C	0.885735	-0.265071	-0.000235
C96	C	1.385735	0.234929	0.499765
C97	C	0.752354	-0.712075	-0.000228
C98	C	1.252354	-0.212075	0.499772
C99	C	0.751617	-0.762492	-0.000228
C100	C	1.251617	-0.262492	0.499772
C101	C	0.878299	-0.774276	-0.000259
C102	C	1.378299	-0.274276	0.499741
C103	C	0.879035	-0.723859	-0.000254
C104	C	1.379035	-0.223859	0.499746
C105	C	0.816061	-0.692759	-0.000244
C106	C	1.316061	-0.192759	0.499756
C107	C	0.887276	-0.159197	-0.000221
C108	C	1.387276	0.340803	0.499779
C109	C	0.888007	-0.108778	-0.000212
C110	C	1.388007	0.391222	0.499788
C111	C	0.761325	-0.096998	-0.000185
C112	C	1.261325	0.403002	0.499815
C113	C	0.760595	-0.147412	-0.000190
C114	C	1.260595	0.352588	0.499810
C115	C	0.823576	-0.178511	-0.000211
C116	C	1.323576	0.321489	0.499789
O117	O	0.705603	-0.222164	-0.000167
O118	O	1.205603	0.277836	0.499833
O119	O	0.939982	-0.244005	-0.000257
O120	O	1.439982	0.255995	0.499743
C121	C	0.882790	-0.466730	-0.000254
C122	C	1.382790	0.033270	0.499746
C123	C	0.819084	-0.486044	-0.000245
C124	C	1.319084	0.013956	0.499755
C125	C	0.756114	-0.454943	-0.000229
C126	C	1.256114	0.045057	0.499771
C127	C	0.818347	-0.536461	-0.000244
C128	C	1.318347	-0.036461	0.499756
C129	C	0.881317	-0.567561	-0.000260
C130	C	1.381317	-0.067561	0.499740
C131	C	0.945023	-0.548245	-0.000276
C132	C	1.445023	-0.048245	0.499724
C133	C	0.945760	-0.497831	-0.000270
C134	C	1.445760	0.002169	0.499730
C135	C	0.692407	-0.474260	-0.000213
C136	C	1.192407	0.025740	0.499787
C137	C	0.691676	-0.524674	-0.000218
C138	C	1.191676	-0.024674	0.499782
C139	C	0.754646	-0.555775	-0.000234
C140	C	1.254646	-0.055775	0.499766
C141	C	0.946842	0.060560	-0.000249
C142	C	1.446842	0.560560	0.499751
C143	C	1.023941	0.061345	-0.000273
C144	C	1.523941	0.561345	0.499727
C145	C	0.813792	0.152751	-0.000233
C146	C	1.313792	0.652751	0.499767
C147	C	0.814587	0.206408	-0.000244
C148	C	1.314587	0.706408	0.499756
N149	N	0.819789	0.064359	0.188451
N150	N	1.319789	0.564359	0.688451
N151	N	0.819841	0.064367	-0.188885
N152	N	1.319841	0.564367	0.311115
C153	C	0.867378	0.031411	0.226546
C154	C	1.367378	0.531411	0.726546
C155	C	0.867383	0.031409	0.302774
C156	C	1.367383	0.531409	0.802774
C157	C	0.819804	0.064363	0.340904
C158	C	1.319804	0.564363	0.840904
C159	C	0.772206	0.097314	0.302800
C160	C	1.272206	0.597314	0.802800
C161	C	0.772198	0.097312	0.226573
C162	C	1.272198	0.597312	0.726573
C163	C	0.810231	0.108406	0.461658
C164	C	1.310231	0.608406	0.961658
C165	C	0.810244	0.108409	0.537883
C166	C	1.310244	0.608409	1.037883
C167	C	0.819824	0.064369	0.576011
C168	C	1.319824	0.564369	1.076011
C169	C	0.829406	0.020325	0.537906
C170	C	1.329406	0.520325	1.037906
C171	C	0.829398	0.020323	0.461679
C172	C	1.329398	0.520323	0.961679
C173	C	0.819807	0.064369	0.423559
C174	C	1.319807	0.564369	0.923559
C175	C	0.867421	0.031416	0.696761
C176	C	1.367421	0.531416	1.196761
C177	C	0.867420	0.031413	0.772991
C178	C	1.367420	0.531413	1.272991
C179	C	0.772247	0.097322	0.773015
C180	C	1.272247	0.597322	1.273015
C181	C	0.772244	0.097321	0.696787
C182	C	1.272244	0.597321	1.196787
C183	C	0.819835	0.064368	0.658665
C184	C	1.319835	0.564368	1.158665
H185	H	0.146211	0.142682	-0.000263
H186	H	0.646211	0.642682	0.499737
C187	C	0.799696	0.156857	0.579792
C188	C	1.299696	0.656857	1.079792
N189	N	0.791748	0.193350	0.611356
N190	N	1.291748	0.693350	1.111356
H191	H	0.930914	-0.708138	-0.000262
H192	H	1.430914	-0.208138	0.499738
H193	H	0.593069	0.147241	-0.000194
H194	H	1.093069	0.647241	0.499806
H195	H	0.708716	-0.163138	-0.000163
H196	H	1.208716	0.336862	0.499837
C197	C	0.681530	-0.783730	-0.000209
C198	C	1.181530	-0.283730	0.499791
N199	N	0.628738	-0.799725	-0.000200
N200	N	1.128738	-0.299725	0.499800
C201	C	0.799692	0.156856	0.419724
C202	C	1.299692	0.656856	0.919724
N203	N	0.791754	0.193347	0.388141
N204	N	1.291754	0.693347	0.888141
C205	C	0.448797	0.158382	-0.000223
C206	C	0.948797	0.658382	0.499777
N207	N	0.411534	0.194577	-0.000249
N208	N	0.911534	0.694577	0.499751
H209	H	0.710057	-0.071667	-0.000169
H210	H	1.210057	0.428333	0.499831
H211	H	0.733505	0.124152	0.804060
H212	H	1.233505	0.624152	1.304060
C213	C	0.839943	-0.028122	0.579841
C214	C	1.339943	0.471878	1.079841
N215	N	0.847880	-0.064611	0.611431
N216	N	1.347880	0.435389	1.111431
H217	H	0.014793	0.141339	-0.000282
H218	H	0.514793	0.641339	0.499718
H219	H	0.996296	-0.573576	-0.000286
H220	H	1.496296	-0.073576	0.499714
H221	H	0.837199	-0.015539	0.430657
H222	H	1.337199	0.484461	0.930657
C223	C	0.919764	-0.004837	0.654825
C224	C	1.419764	0.495163	1.154825
N225	N	0.959189	-0.032143	0.623240
N226	N	1.459189	0.467857	1.123240
H227	H	0.046551	-0.018511	-0.000306
H228	H	0.546551	0.481489	0.499694
H229	H	0.906171	0.004580	0.804008
H230	H	1.406171	0.504580	1.304008
H231	H	0.997640	-0.482111	-0.000277
H232	H	1.497640	0.017889	0.499723
H233	H	0.639791	-0.540394	-0.000205
H234	H	1.139791	-0.040394	0.499795
C235	C	0.956559	-0.193399	-0.000237
C236	C	1.456559	0.306601	0.499763
N237	N	1.008743	-0.219160	-0.000243
N238	N	1.508743	0.280840	0.499757
H239	H	0.733495	0.124152	0.665768
H240	H	1.233495	0.624152	1.165768
H241	H	0.733466	0.124145	0.333849
H242	H	1.233466	0.624145	0.833849
C243	C	0.719874	0.133580	0.184667
C244	C	1.219874	0.633580	0.684667
N245	N	0.680474	0.160905	0.153103
N246	N	1.180474	0.660905	0.653103
H247	H	0.641128	-0.448942	-0.000201
H248	H	1.141128	0.051058	0.499799
C249	C	0.229619	0.134457	0.088860
C250	C	0.729619	0.634457	0.588860
N251	N	0.194032	0.162109	0.124010
N252	N	0.694032	0.662109	0.624010
H253	H	0.373315	0.126263	0.076757
H254	H	0.873315	0.626263	0.576757
H255	H	0.177973	-0.017171	-0.000236
H256	H	0.677973	0.482829	0.499764
H257	H	0.906127	0.004578	0.195509
H258	H	1.406127	0.504578	0.695509
C259	C	0.683073	-0.677871	-0.000217
C260	C	1.183073	-0.177871	0.499783
N261	N	0.630889	-0.652110	-0.000206
N262	N	1.130889	-0.152110	0.499794
H263	H	0.266315	0.002469	-0.077215
H264	H	0.766315	0.502469	0.422785
H265	H	0.624835	-0.012613	-0.000144
H266	H	1.124835	0.487387	0.499856
C267	C	0.623783	-0.394658	-0.000210
C268	C	1.123783	0.105342	0.499790
N269	N	0.570988	-0.410649	-0.000209
N270	N	1.070988	0.089351	0.499791
H271	H	0.397731	0.003809	-0.077191
H272	H	0.897731	0.503809	0.422809
H273	H	0.493409	-0.013949	-0.000187
H274	H	0.993409	0.486051	0.499813
C275	C	0.958097	-0.087537	-0.000224
C276	C	1.458097	0.412463	0.499776
N277	N	1.010887	-0.071540	-0.000234
N278	N	1.510887	0.428460	0.499766
C279	C	0.625335	-0.288798	-0.000202
C280	C	1.125335	0.211202	0.499798
N281	N	0.573155	-0.263034	-0.000190
N282	N	1.073155	0.236966	0.499810
H283	H	0.999848	-0.330868	-0.000261
H284	H	1.499848	0.169132	0.499739
H285	H	0.998512	-0.422320	-0.000273
H286	H	1.498512	0.077680	0.499727
C287	C	0.919743	-0.004833	0.344687
C288	C	1.419743	0.495167	0.844687
N289	N	0.959185	-0.032129	0.376254
N290	N	1.459185	0.467871	0.876254
H291	H	0.929571	-0.799607	-0.000271
H292	H	1.429571	-0.299607	0.499729
