data_functionalizedCrystal
_audit_creation_method	'MofGen! by Chris Wilmer'
_symmetry_space_group_name_H-M	'P1'
_symmetry_Int_Tables_number	1
_symmetry_cell_setting	triclinic
loop_
_symmetry_equiv_pos_as_xyz
  x,y,z
_cell_length_a	18.215407
_cell_length_b	12.645330
_cell_length_c	18.215399
_cell_angle_alpha	89.976970
_cell_angle_beta	89.980167
_cell_angle_gamma	90.018140
loop_
_atom_site_label
_atom_site_type_symbol
_atom_site_fract_x
_atom_site_fract_y
_atom_site_fract_z
Zn1	Zn	1.125109	-0.422038	-0.416141
Zn2	Zn	1.625109	0.077962	0.083859
Zn3	Zn	1.125033	-0.599320	-0.293085
Zn4	Zn	1.625033	-0.099320	0.206915
Zn5	Zn	1.002041	-0.422072	-0.293088
Zn6	Zn	1.502041	0.077928	0.206912
Zn7	Zn	1.002023	-0.599261	-0.416110
Zn8	Zn	1.502023	-0.099261	0.083890
O9	O	1.063551	-0.510673	-0.354606
O10	O	1.563551	-0.010673	0.145394
O11	O	1.228083	-0.445565	-0.399829
O12	O	1.728083	0.054435	0.100171
O13	O	1.108693	-0.575847	-0.190101
O14	O	1.608693	-0.075847	0.309899
O15	O	1.018406	-0.273720	-0.309426
O16	O	1.518406	0.226280	0.190574
O17	O	1.228027	-0.575813	-0.309421
O18	O	1.728027	-0.075813	0.190579
O19	O	1.108823	-0.273695	-0.399832
O20	O	1.608823	0.226305	0.100168
O21	O	1.018332	-0.445624	-0.190104
O22	O	1.518332	0.054376	0.309896
O23	O	0.899055	-0.445566	-0.309396
O24	O	1.399055	0.054434	0.190604
O25	O	1.018374	-0.575713	-0.519099
O26	O	1.518374	-0.075713	-0.019099
O27	O	0.899041	-0.575746	-0.399780
O28	O	1.399041	-0.075746	0.100220
O29	O	1.108805	-0.445507	-0.519121
O30	O	1.608805	0.054493	-0.019121
O31	O	1.108675	-0.747659	-0.309391
O32	O	1.608675	-0.247659	0.190609
O33	O	1.018300	-0.747616	-0.399777
O34	O	1.518300	-0.247616	0.100223
C35	C	0.872345	-0.510654	-0.354585
C36	C	1.372345	-0.010654	0.145415
C37	C	0.790546	-0.510672	-0.354594
C38	C	1.290546	-0.010672	0.145406
C39	C	0.602364	-0.578563	-0.401597
C40	C	1.102364	-0.078563	0.098403
C41	C	0.525506	-0.578567	-0.401606
C42	C	1.025506	-0.078567	0.098394
C43	C	0.525490	-0.442801	-0.307631
C44	C	1.025490	0.057199	0.192369
C45	C	0.602348	-0.442793	-0.307626
C46	C	1.102348	0.057207	0.192374
C47	C	0.640783	-0.510680	-0.354608
C48	C	1.140783	-0.010680	0.145392
C49	C	0.487067	-0.510692	-0.354622
C50	C	0.987067	-0.010692	0.145378
C51	C	0.403733	-0.510695	-0.354632
C52	C	0.903733	-0.010695	0.145368
C53	C	0.724122	-0.510676	-0.354600
C54	C	1.224122	-0.010676	0.145400
C55	C	1.063498	-0.786102	-0.354596
C56	C	1.563498	-0.286102	0.145404
C57	C	1.063542	-0.903932	-0.354616
C58	C	1.563542	-0.403932	0.145384
C59	C	1.006922	-1.071513	-0.411653
C60	C	1.506922	-0.571513	0.088347
C61	C	1.006632	-0.948954	-0.411470
C62	C	1.506632	-0.448954	0.088530
C63	C	1.042549	-0.948523	-0.277058
C64	C	1.542549	-0.448523	0.222942
C65	C	1.042203	-1.071122	-0.277404
C66	C	1.542203	-0.571122	0.222596
C67	C	1.141502	-1.071022	-0.374509
C68	C	1.641502	-0.571022	0.125491
C69	C	1.141024	-0.948415	-0.376205
C70	C	1.641024	-0.448415	0.123795
C71	C	1.255504	-0.510692	-0.354628
C72	C	1.755504	-0.010692	0.145372
C73	C	1.337303	-0.510700	-0.354637
C74	C	1.837303	-0.010700	0.145363
C75	C	1.063596	-0.510600	-0.546559
C76	C	1.563596	-0.010600	-0.046559
C77	C	1.063615	-0.510568	-0.628358
C78	C	1.563615	-0.010568	-0.128358
C79	C	1.063625	-0.234167	-0.354633
C80	C	1.563625	0.265833	0.145367
C81	C	1.063657	-0.116337	-0.354644
C82	C	1.563657	0.383663	0.145356
C83	C	1.110720	-0.442707	-0.816565
C84	C	1.610720	0.057293	-0.316565
C85	C	1.110728	-0.442676	-0.893424
C86	C	1.610728	0.057324	-0.393424
C87	C	1.016563	-0.578266	-0.893389
C88	C	1.516563	-0.078266	-0.393389
C89	C	1.016551	-0.578290	-0.816532
C90	C	1.516551	-0.078290	-0.316532
C91	C	1.063634	-0.510513	-0.778122
C92	C	1.563634	-0.010513	-0.278122
C93	C	1.063654	-0.510457	-0.931838
C94	C	1.563654	-0.010457	-0.431838
C95	C	1.063663	-0.510424	-1.015172
C96	C	1.563663	-0.010424	-0.515172
C97	C	1.063624	-0.510544	-0.694783
C98	C	1.563624	-0.010544	-0.194783
C99	C	1.063549	-0.510669	-0.163400
C100	C	1.563549	-0.010669	0.336600
C101	C	1.063672	-0.510401	-0.081602
C102	C	1.563672	-0.010401	0.418398
H103	H	0.494187	-0.387531	-0.269379
H104	H	0.994187	0.112469	0.230621
H105	H	0.985298	-1.099813	-0.260576
H106	H	1.485298	-0.599813	0.239424
C107	C	0.967486	-0.907793	-0.254064
C108	C	1.467486	-0.407793	0.245936
C109	C	0.949663	-0.948336	-0.184774
C110	C	1.449663	-0.448336	0.315226
C111	C	0.880523	-0.910831	-0.163570
C112	C	1.380523	-0.410831	0.336430
H113	H	0.931722	-0.929899	-0.288761
H114	H	1.431722	-0.429899	0.211239
H115	H	0.968446	-0.832736	-0.251974
H116	H	1.468446	-0.332736	0.248026
H117	H	0.948697	-1.023377	-0.186870
H118	H	1.448697	-0.523377	0.313130
H119	H	0.985408	-0.926234	-0.150062
H120	H	1.485408	-0.426234	0.349938
H121	H	0.881483	-0.835774	-0.161479
H122	H	1.381483	-0.335774	0.338521
H123	H	0.844765	-0.932939	-0.198271
H124	H	1.344765	-0.432939	0.301729
H125	H	0.868424	-0.938326	-0.116552
H126	H	1.368424	-0.438326	0.383448
C127	C	0.643932	-0.369048	-0.256525
C128	C	1.143932	0.130952	0.243475
C129	C	0.593824	-0.309623	-0.215363
C130	C	1.093824	0.190377	0.284637
C131	C	0.632105	-0.241689	-0.168279
C132	C	1.132105	0.258311	0.331721
H133	H	0.673936	-0.322813	-0.284648
H134	H	1.173936	0.177187	0.215352
H135	H	0.673879	-0.409517	-0.224373
H136	H	1.173879	0.090483	0.275627
H137	H	0.563890	-0.269156	-0.247511
H138	H	1.063890	0.230844	0.252489
H139	H	0.563819	-0.355829	-0.187226
H140	H	1.063819	0.144171	0.312774
H141	H	0.662052	-0.282158	-0.136127
H142	H	1.162052	0.217842	0.363873
H143	H	0.662108	-0.195461	-0.196407
H144	H	1.162108	0.304539	0.303593
H145	H	0.598113	-0.201368	-0.140340
H146	H	1.098113	0.298632	0.359660
H147	H	0.494229	-0.633842	-0.439871
H148	H	0.994229	-0.133842	0.060129
H149	H	0.978203	-0.633505	-0.785230
H150	H	1.478203	-0.133505	-0.285230
H151	H	0.633656	-0.633839	-0.439855
H152	H	1.133656	-0.133839	0.060145
H153	H	1.081734	-1.100776	-0.233479
H154	H	1.581734	-0.600776	0.266521
C155	C	0.965373	-0.651899	-0.934961
C156	C	1.465373	-0.151899	-0.434961
C157	C	0.924120	-0.711267	-0.884840
C158	C	1.424120	-0.211267	-0.384840
C159	C	0.876951	-0.779103	-0.923107
C160	C	1.376951	-0.279103	-0.423107
H161	H	0.993438	-0.698175	-0.964943
H162	H	1.493438	-0.198175	-0.464943
H163	H	0.933282	-0.611362	-0.964927
H164	H	1.433282	-0.111362	-0.464927
H165	H	0.956207	-0.751801	-0.854886
H166	H	1.456207	-0.251801	-0.354886
H167	H	0.896041	-0.665019	-0.854856
H168	H	1.396041	-0.165019	-0.354856
H169	H	0.844860	-0.738566	-0.953073
H170	H	1.344860	-0.238566	-0.453073
H171	H	0.905022	-0.825371	-0.953088
H172	H	1.405022	-0.325371	-0.453088
H173	H	0.848951	-0.819385	-0.889106
H174	H	1.348951	-0.319385	-0.389106
H175	H	1.019766	-0.918802	-0.468979
H176	H	1.519766	-0.418802	0.031021
H177	H	1.160652	-1.101868	-0.430103
H178	H	1.660652	-0.601868	0.069897
H179	H	1.149069	-0.387460	-0.924721
H180	H	1.649069	0.112540	-0.424721
H181	H	0.949572	-1.102414	-0.398661
H182	H	1.449572	-0.602414	0.101339
C183	C	1.024360	-1.110896	-0.488529
C184	C	1.524360	-0.610896	0.011471
C185	C	1.086398	-1.176144	-0.486083
C186	C	1.586398	-0.676144	0.013917
C187	C	1.102478	-1.212464	-0.556887
C188	C	1.602478	-0.712464	-0.056887
H189	H	1.033775	-1.052293	-0.519788
H190	H	1.533775	-0.552293	-0.019788
H191	H	0.983770	-1.149896	-0.506954
H192	H	1.483770	-0.649896	-0.006954
H193	H	1.126980	-1.137144	-0.467669
H194	H	1.626980	-0.637144	0.032331
H195	H	1.077000	-1.234762	-0.454839
H196	H	1.577000	-0.734762	0.045161
H197	H	1.061887	-1.251465	-0.575312
H198	H	1.561887	-0.751465	-0.075312
H199	H	1.111890	-1.153855	-0.588140
H200	H	1.611890	-0.653855	-0.088140
H201	H	1.144568	-1.256746	-0.555236
H202	H	1.644568	-0.756746	-0.055236
H203	H	0.948921	-0.919719	-0.398309
H204	H	1.448921	-0.419719	0.101691
H205	H	1.082562	-0.919362	-0.233421
H206	H	1.582562	-0.419362	0.266579
H207	H	1.156855	-0.919267	-0.433284
H208	H	1.656855	-0.419267	0.066716
H209	H	1.183771	-1.100007	-0.332986
H210	H	1.683771	-0.600007	0.167014
C211	C	1.200305	-0.907685	-0.324757
C212	C	1.700305	-0.407685	0.175243
C213	C	1.184290	-0.939293	-0.252836
C214	C	1.684290	-0.439293	0.247164
C215	C	1.238885	-0.901804	-0.205418
C216	C	1.738885	-0.401804	0.294582
H217	H	1.202008	-0.832680	-0.327091
H218	H	1.702008	-0.332680	0.172909
H219	H	1.246501	-0.935838	-0.339038
H220	H	1.746501	-0.435838	0.160962
H221	H	1.138107	-0.911136	-0.238559
H222	H	1.638107	-0.411136	0.261441
H223	H	1.182593	-1.014292	-0.250479
H224	H	1.682593	-0.514292	0.249521
H225	H	1.285081	-0.929957	-0.219698
H226	H	1.785081	-0.429957	0.280302
H227	H	1.240585	-0.826800	-0.207758
H228	H	1.740585	-0.326800	0.292242
H229	H	1.228031	-0.923253	-0.156616
H230	H	1.728031	-0.423253	0.343384
H231	H	1.149055	-0.387515	-0.785294
H232	H	1.649055	0.112485	-0.285294
