data_functionalizedCrystal
_audit_creation_method	'MofGen! by Chris Wilmer'
_symmetry_space_group_name_H-M	'P1'
_symmetry_Int_Tables_number	1
_symmetry_cell_setting	triclinic
loop_
_symmetry_equiv_pos_as_xyz
  x,y,z
_cell_length_a	10.654559
_cell_length_b	15.944551
_cell_length_c	9.730223
_cell_angle_alpha	89.997716
_cell_angle_beta	89.999563
_cell_angle_gamma	83.993711
loop_
_atom_site_label
_atom_site_type_symbol
_atom_site_fract_x
_atom_site_fract_y
_atom_site_fract_z
O1	O	1.666300	0.118010	-0.114301
O2	O	1.300678	0.129242	-0.114302
O3	O	1.493474	0.001409	-0.114289
O4	O	1.473505	0.245842	-0.114314
O5	O	1.493471	0.001412	0.114291
O6	O	1.300676	0.129245	0.114278
O7	O	1.666298	0.118013	0.114279
Zn8	Zn	1.483487	0.123629	0.150571
Zn9	Zn	1.483490	0.123625	-0.150593
O10	O	1.473503	0.245846	0.114266
C11	C	1.253890	0.128417	-0.000012
C12	C	1.114479	0.125945	-0.000012
C13	C	1.063943	0.048355	-0.000001
C14	C	0.932951	0.046037	-0.000011
C15	C	0.903041	0.198906	-0.000038
C16	C	1.034031	0.201223	-0.000038
C17	C	1.144391	-0.026923	0.000025
C18	C	1.093857	-0.104519	0.000038
C19	C	0.962865	-0.106837	0.000028
C20	C	0.882407	-0.031559	0.000005
C21	C	1.492643	-0.029888	0.000001
C22	C	1.490158	-0.123149	0.000002
C23	C	1.364714	-0.338734	-0.000017
C24	C	1.422965	-0.399412	0.112687
C25	C	1.485662	-0.293901	-0.000009
C26	C	1.422996	-0.399398	-0.112675
C27	C	1.481310	-0.458839	-0.000025
C28	C	1.543946	-0.353350	0.112788
C29	C	1.543960	-0.353330	-0.112675
C30	C	1.602299	-0.413989	0.000057
C31	C	1.488166	-0.198884	0.000002
C32	C	1.478816	-0.553854	-0.000025
C33	C	1.713086	0.118838	-0.000014
C34	C	1.852497	0.121310	-0.000023
C35	C	1.474333	0.277143	-0.000027
C36	C	1.476818	0.370403	-0.000037
N37	N	1.483494	0.123632	0.356107
N38	N	1.483492	0.123616	-0.356130
C39	C	1.568885	0.067047	0.428039
C40	C	1.568882	0.067037	0.571922
C41	C	1.398092	0.180204	0.571928
C42	C	1.398090	0.180209	0.428048
C43	C	1.654289	0.010469	0.356098
C44	C	1.739689	-0.046120	0.428030
C45	C	1.739685	-0.046130	0.571913
C46	C	1.654283	0.010449	0.643864
H47	H	0.837523	0.260193	-0.000054
Br48	Br	1.102623	0.306524	-0.000062
Br49	Br	1.855572	-0.122911	0.330388
Br50	Br	1.654270	0.010422	0.839135
Br51	Br	1.282197	0.256986	0.669574
H52	H	1.328555	0.226285	0.369481
Br53	Br	1.769771	-0.468286	0.000154
Br54	Br	1.654305	0.010487	0.160829
Br55	Br	1.197388	-0.284193	0.000156
Br56	Br	1.337698	-0.433385	-0.271471
Br57	Br	1.203043	-0.206676	0.000047
Br58	Br	0.894283	-0.212142	0.000014
H59	H	1.371808	-0.419816	0.207968
Br60	Br	1.629145	-0.319541	0.271771
H61	H	1.595073	-0.332904	-0.207962
H62	H	1.251053	-0.025044	0.000037
Br63	Br	0.704631	-0.034706	-0.000025
Br64	Br	1.855567	-0.122935	0.669535
