data_functionalizedCrystal
_audit_creation_method	'MofGen! by Chris Wilmer'
_symmetry_space_group_name_H-M	'P1'
_symmetry_Int_Tables_number	1
_symmetry_cell_setting	triclinic
loop_
_symmetry_equiv_pos_as_xyz
  x,y,z
_cell_length_a	9.130313
_cell_length_b	19.188923
_cell_length_c	10.654550
_cell_angle_alpha	83.813242
_cell_angle_beta	90.000110
_cell_angle_gamma	90.002302
loop_
_atom_site_label
_atom_site_type_symbol
_atom_site_fract_x
_atom_site_fract_y
_atom_site_fract_z
O1	O	-0.121866	-0.927169	-0.156727
O2	O	0.378134	-0.427169	0.343273
O3	O	-0.121853	-0.723995	-0.177843
O4	O	0.378147	-0.223995	0.322157
O5	O	-0.121854	-0.830254	0.015553
O6	O	0.378146	-0.330254	0.515553
O7	O	-0.121864	-0.820911	-0.350124
O8	O	0.378136	-0.320911	0.149876
O9	O	0.121745	-0.830252	0.015548
O10	O	0.621745	-0.330252	0.515548
O11	O	0.121746	-0.723994	-0.177848
O12	O	0.621746	-0.223994	0.322152
O13	O	0.121733	-0.927168	-0.156733
O14	O	0.621733	-0.427168	0.343267
Cu15	Cu	0.143982	-0.825581	-0.167291
Cu16	Cu	0.643982	-0.325581	0.332709
Cu17	Cu	-0.144102	-0.825582	-0.167285
Cu18	Cu	0.355898	-0.325582	0.332715
O19	O	0.121734	-0.820910	-0.350129
O20	O	0.621734	-0.320910	0.149871
C21	C	-0.000052	-0.697979	-0.177163
C22	C	0.499948	-0.197979	0.322837
C23	C	-0.000047	-0.620461	-0.175116
C24	C	0.499953	-0.120461	0.324884
C25	C	-0.000056	-0.829567	0.062334
C26	C	0.499944	-0.329567	0.562334
C27	C	-0.000061	-0.827515	0.201734
C28	C	0.499939	-0.327515	0.701734
N29	N	0.346605	-0.825585	-0.167294
N30	N	0.846605	-0.325585	0.332706
N31	N	-0.346724	-0.825584	-0.167271
N32	N	0.153276	-0.325584	0.332729
C33	C	0.423256	-0.872648	-0.081687
C34	C	0.923256	-0.372648	0.418313
C35	C	0.576593	-0.872646	-0.081672
C36	C	1.076593	-0.372646	0.418328
C37	C	0.576614	-0.778516	-0.252882
C38	C	1.076614	-0.278516	0.247118
C39	C	0.423279	-0.778515	-0.252890
C40	C	0.923279	-0.278515	0.247110
C41	C	0.423246	-0.926996	0.017156
C42	C	0.923246	-0.426996	0.517156
C43	C	0.576582	-0.926994	0.017171
C44	C	1.076582	-0.426994	0.517171
C45	C	-0.000030	-0.059343	-0.274882
C46	C	0.499970	0.440657	0.225118
C47	C	-0.000041	-0.132179	-0.276817
C48	C	0.499959	0.367821	0.223183
C49	C	-0.000037	-0.176371	-0.163339
C50	C	0.499963	0.323629	0.336661
C51	C	-0.000059	-0.147722	-0.047917
C52	C	0.499941	0.352278	0.452083
C53	C	-0.000063	-0.074887	-0.045985
C54	C	0.499937	0.425113	0.454015
N55	N	0.082883	-0.296510	-0.081185
N56	N	0.582883	0.203490	0.418815
N57	N	0.082890	-0.365700	-0.083028
N58	N	0.582890	0.134300	0.416972
C59	C	-0.000029	-0.395818	-0.169152
C60	C	0.499971	0.104182	0.330848
N61	N	-0.082936	-0.354132	-0.253383
N62	N	0.417064	0.145868	0.246617
N63	N	-0.082936	-0.284936	-0.251543
N64	N	0.417064	0.215064	0.248457
C65	C	-0.000034	-0.255349	-0.165421
C66	C	0.499966	0.244651	0.334579
C67	C	-0.000029	-0.503436	-0.286665
C68	C	0.499971	-0.003436	0.213335
C69	C	-0.000049	-0.576274	-0.288595
C70	C	0.499951	-0.076274	0.211405
C71	C	-0.000052	-0.591816	-0.059692
C72	C	0.499948	-0.091816	0.440308
C73	C	-0.000047	-0.518979	-0.057765
C74	C	0.499953	-0.018979	0.442235
C75	C	-0.000028	-0.474794	-0.171255
C76	C	0.499972	0.025206	0.328745
C77	C	-0.000061	0.046816	-0.157416
C78	C	0.499939	0.546816	0.342584
C79	C	-0.000044	-0.030701	-0.159475
C80	C	0.499956	0.469299	0.340525
C81	C	-0.000066	-0.821596	-0.396910
C82	C	0.499934	-0.321596	0.103090
C83	C	-0.000071	-0.823649	-0.536309
C84	C	0.499929	-0.323649	-0.036309
C85	C	-0.000061	-0.890078	0.282546
C86	C	0.499939	-0.390078	0.782546
C87	C	-0.000071	-0.888145	0.413526
C88	C	0.499929	-0.388145	0.913526
C89	C	-0.000076	-0.761081	0.382868
C90	C	0.499924	-0.261081	0.882868
C91	C	-0.000076	-0.763014	0.251890
C92	C	0.499924	-0.263014	0.751890
C93	C	-0.000052	-0.963438	0.300248
C94	C	0.499948	-0.463438	0.800248
C95	C	-0.000062	-0.961505	0.431228
C96	C	0.499938	-0.461505	0.931228
H97	H	0.360871	-0.740186	-0.322587
H98	H	0.860871	-0.240186	0.177413
H99	H	0.105128	-0.986798	0.265114
H100	H	0.605128	-0.486798	0.765114
H101	H	-0.000016	-0.467458	-0.379075
H102	H	0.499984	0.032542	0.120925
H103	H	-0.000022	-0.023370	-0.367295
H104	H	0.499978	0.476630	0.132705
H105	H	0.624133	-0.910032	0.108034
H106	H	1.124133	-0.410032	0.608034
H107	H	-0.000097	-0.712069	0.186096
H108	H	0.499903	-0.212069	0.686096
H109	H	0.639059	-0.740192	-0.322572
H110	H	1.139059	-0.240192	0.177428
H111	H	-0.000075	-0.051569	0.047996
H112	H	0.499925	0.448431	0.547996
H113	H	-0.000050	-0.495660	0.036212
H114	H	0.499950	0.004340	0.536212
H115	H	-0.000049	-0.599591	-0.382577
H116	H	0.499951	-0.099591	0.117423
H117	H	-0.000060	-0.627797	0.032705
H118	H	0.499940	-0.127797	0.532705
H119	H	-0.101992	-0.992132	0.271501
H120	H	0.398008	-0.492132	0.771501
H121	H	-0.000089	-0.708566	0.423722
H122	H	0.499911	-0.208566	0.923722
H123	H	-0.105243	-0.983676	0.477343
H124	H	0.394757	-0.483676	0.977343
H125	H	0.101880	-0.989145	0.473572
H126	H	0.601880	-0.489145	0.973572
H127	H	0.618195	-0.980646	-0.003209
H128	H	1.118195	-0.480646	0.496791
H129	H	0.381629	-0.915076	0.113436
H130	H	0.881629	-0.415076	0.613436
H131	H	0.375683	-0.977686	-0.012357
H132	H	0.875683	-0.477686	0.487643
H133	H	-0.000060	-0.183708	0.044478
H134	H	0.499940	0.316292	0.544478
H135	H	-0.000016	-0.155503	-0.370798
H136	H	0.499984	0.344497	0.129202
