data_functionalizedCrystal
_audit_creation_method	'MofGen! by Chris Wilmer'
_symmetry_space_group_name_H-M	'P1'
_symmetry_Int_Tables_number	1
_symmetry_cell_setting	triclinic
loop_
_symmetry_equiv_pos_as_xyz
  x,y,z
_cell_length_a	12.759401
_cell_length_b	14.908520
_cell_length_c	12.759393
_cell_angle_alpha	93.263606
_cell_angle_beta	89.979062
_cell_angle_gamma	93.322137
loop_
_atom_site_label
_atom_site_type_symbol
_atom_site_fract_x
_atom_site_fract_y
_atom_site_fract_z
Zn1	Zn	1.582080	-0.359078	-0.618119
Zn2	Zn	1.571808	-0.509962	-0.452566
Zn3	Zn	1.406376	-0.359126	-0.442458
Zn4	Zn	1.396212	-0.509899	-0.628199
O5	O	1.489119	-0.434516	-0.535335
O6	O	1.727738	-0.379099	-0.596170
O7	O	1.549818	-0.490000	-0.304207
O8	O	1.438236	-0.232875	-0.457311
O9	O	1.720192	-0.489953	-0.474539
O10	O	1.567325	-0.232840	-0.586369
O11	O	1.428275	-0.379181	-0.296781
O12	O	1.258007	-0.379120	-0.467085
O13	O	1.420913	-0.489846	-0.773880
O14	O	1.250540	-0.489892	-0.603548
O15	O	1.557470	-0.379038	-0.766474
O16	O	1.539963	-0.636198	-0.484313
O17	O	1.410953	-0.636152	-0.613349
C18	C	1.216153	-0.434505	-0.535314
C19	C	1.099375	-0.434522	-0.535331
C20	C	1.473269	-0.668908	-0.551045
C21	C	1.466584	-0.769183	-0.557800
C22	C	1.040646	-0.492289	-0.606288
C23	C	0.930922	-0.492292	-0.606309
C24	C	0.938665	-0.376759	-0.464407
C25	C	1.048387	-0.376752	-0.464392
C26	C	0.778846	-0.524663	-0.732342
C27	C	0.720112	-0.582444	-0.803290
C28	C	0.749780	-0.670486	-0.825147
C29	C	0.838178	-0.700764	-0.776041
C30	C	0.896905	-0.642988	-0.705085
C31	C	0.867240	-0.554934	-0.683248
C32	C	1.200465	-0.344390	-0.338358
C33	C	1.259194	-0.286618	-0.267397
C34	C	1.229528	-0.198575	-0.245529
C35	C	1.141127	-0.168300	-0.294617
C36	C	1.082398	-0.226072	-0.365578
C37	C	1.112071	-0.314114	-0.387447
C38	C	1.588499	-0.957595	-0.436237
C39	C	1.582222	-1.051812	-0.442581
C40	C	1.447758	-1.051834	-0.576837
C41	C	1.454036	-0.957617	-0.570493
C42	C	1.524407	-0.910501	-0.500189
C43	C	1.530679	-0.816283	-0.493841
C44	C	1.396221	-0.816307	-0.628101
C45	C	1.389944	-0.910523	-0.634445
C46	C	1.763152	-0.434528	-0.535358
C47	C	1.879928	-0.434533	-0.535367
C48	C	1.489204	-0.434429	-0.809363
C49	C	1.489240	-0.434392	-0.926137
C50	C	1.505060	-0.199208	-0.519588
C51	C	1.511853	-0.098934	-0.512877
C52	C	1.560350	-0.376686	-0.977144
C53	C	1.560371	-0.376647	-1.086866
C54	C	1.418166	-0.492029	-1.094564
C55	C	1.418142	-0.492063	-0.984844
C56	C	1.605152	-0.270208	-1.229700
C57	C	1.676278	-0.212509	-1.280712
C58	C	1.779723	-0.198675	-1.244192
C59	C	1.812061	-0.242553	-1.156663
C60	C	1.740940	-0.300258	-1.105658
C61	C	1.637482	-0.314075	-1.142175
C62	C	1.373371	-0.598503	-0.842008
C63	C	1.302254	-0.656214	-0.791001
C64	C	1.198807	-0.670057	-0.827519
C65	C	1.166472	-0.626195	-0.915052
C66	C	1.237589	-0.568484	-0.966059
C67	C	1.341035	-0.554640	-0.929533
C68	C	1.489100	-0.434537	-0.262369
C69	C	1.489285	-0.434320	-0.145579
H70	H	0.968876	-0.667640	-0.665104
H71	H	1.360283	-0.538984	-1.142377
O72	O	0.888964	-0.320731	-0.395539
C73	C	0.779528	-0.333107	-0.410783
H74	H	0.759849	-0.402767	-0.449723
H75	H	0.738206	-0.326903	-0.331690
H76	H	0.752033	-0.279659	-0.463262
H77	H	1.328594	-0.691937	-0.719734
H78	H	1.520918	-0.281459	-1.259438
H79	H	1.587976	-0.777922	-0.436593
O80	O	1.334109	-0.770520	-0.690340
C81	C	1.397514	-0.715911	-0.754562
H82	H	1.478372	-0.744229	-0.763042
H83	H	1.359536	-0.714823	-0.835305
H84	H	1.405902	-0.644524	-0.717274
O85	O	0.750183	-0.439076	-0.711222
C86	C	0.832567	-0.377820	-0.738808
H87	H	0.884662	-0.411822	-0.799873
H88	H	0.798457	-0.316685	-0.772820
H89	H	0.881199	-0.355420	-0.666042
O90	O	1.656788	-0.911919	-0.367804
C91	C	1.632321	-0.935006	-0.264625
H92	H	1.587380	-1.003449	-0.267021
H93	H	1.707955	-0.938194	-0.217792
H94	H	1.581847	-0.882046	-0.225630
H95	H	1.634414	-1.090152	-0.390506
H96	H	1.618240	-0.329724	-0.929348
O97	O	0.634316	-0.553091	-0.851170
C98	C	0.648771	-0.558663	-0.960856
H99	H	0.708534	-0.610591	-0.982258
H100	H	0.570811	-0.579712	-1.001267
H101	H	0.678656	-0.490193	-0.987736
O102	O	1.912580	-0.228990	-1.121304
C103	C	1.968426	-0.168668	-1.185107
H104	H	1.910890	-0.126092	-1.225542
H105	H	2.025167	-0.122923	-1.134472
H106	H	2.014379	-0.208208	-1.246899
O107	O	1.379271	-1.097507	-0.645074
C108	C	1.276093	-1.074608	-0.620461
H109	H	1.278483	-1.006230	-0.575462
H110	H	1.229160	-1.071374	-0.696027
H111	H	1.237202	-1.127702	-0.569995
H112	H	1.649939	-0.176783	-1.351978
H113	H	1.767270	-0.335986	-1.034397
O114	O	1.848675	-0.142580	-1.293848
C115	C	1.797965	-0.106851	-1.378955
H116	H	1.709636	-0.109794	-1.364843
H117	H	1.827789	-0.033934	-1.386461
H118	H	1.815465	-0.147931	-1.454381
O119	O	1.205995	-0.525913	-1.051046
C120	C	1.099447	-0.550522	-1.072364
H121	H	1.059748	-0.574275	-0.997993
H122	H	1.058859	-0.489942	-1.100076
H123	H	1.093575	-0.607248	-1.136261
O124	O	0.996582	-0.196507	-0.413213
C125	C	0.982971	-0.106415	-0.378678
H126	H	1.061123	-0.073690	-0.348897
H127	H	0.953828	-0.068107	-0.446726
H128	H	0.922956	-0.104598	-0.312488
H129	H	1.332652	-0.948898	-0.691687
O130	O	1.065932	-0.639708	-0.950369
C131	C	1.010103	-0.700066	-0.886596
H132	H	1.049832	-0.699060	-0.806493
H133	H	0.926061	-0.679006	-0.876417
H134	H	1.009272	-0.770935	-0.925308
O135	O	1.129845	-0.726122	-0.777825
C136	C	1.180571	-0.761899	-0.692759
H137	H	1.251095	-0.715363	-0.667192
H138	H	1.123463	-0.768018	-0.624459
H139	H	1.208172	-0.831245	-0.717836
H140	H	1.082157	-0.539327	-0.664053
H141	H	0.862319	-0.772460	-0.793834
H142	H	1.116960	-0.096614	-0.276795
O143	O	0.692895	-0.726658	-0.894155
C144	C	0.757583	-0.754093	-0.978233
H145	H	0.843211	-0.747243	-0.952003
H146	H	0.735631	-0.827293	-1.003754
H147	H	0.746216	-0.709929	-1.046928
O148	O	1.286717	-0.142560	-0.176598
C149	C	1.371081	-0.188166	-0.137924
H150	H	1.389659	-0.246074	-0.195899
H151	H	1.443068	-0.139484	-0.127640
H152	H	1.348739	-0.215817	-0.058964
H153	H	1.331174	-0.311276	-0.227427
H154	H	1.224633	-0.416080	-0.356167
H155	H	1.457604	-0.587230	-0.812260
