data_functionalizedCrystal
_audit_creation_method	'MofGen! by Chris Wilmer'
_symmetry_space_group_name_H-M	'P1'
_symmetry_Int_Tables_number	1
_symmetry_cell_setting	triclinic
loop_
_symmetry_equiv_pos_as_xyz
  x,y,z
_cell_length_a	15.298709
_cell_length_b	12.594516
_cell_length_c	15.296720
_cell_angle_alpha	99.649603
_cell_angle_beta	107.326335
_cell_angle_gamma	99.706035
loop_
_atom_site_label
_atom_site_type_symbol
_atom_site_fract_x
_atom_site_fract_y
_atom_site_fract_z
Zn1	Zn	1.330649	-0.208874	-0.280187
Zn2	Zn	1.357489	-0.349647	-0.124707
Zn3	Zn	1.202065	-0.208945	-0.151567
Zn4	Zn	1.175145	-0.424082	-0.307016
O5	O	1.266337	-0.297887	-0.215869
O6	O	1.464334	-0.196367	-0.237093
O7	O	1.359371	-0.299861	0.001855
O8	O	1.219155	-0.059985	-0.168642
O9	O	1.484054	-0.299793	-0.122863
O10	O	1.313625	-0.059934	-0.263139
O11	O	1.245181	-0.196488	-0.017879
O12	O	1.068369	-0.268664	-0.194656
O13	O	1.173274	-0.426656	-0.433581
O14	O	1.048591	-0.426725	-0.308864
O15	O	1.287522	-0.268544	-0.413871
O16	O	1.333267	-0.508471	-0.148877
O17	O	1.199300	-0.563158	-0.282819
C18	C	1.024740	-0.355780	-0.257587
C19	C	0.921380	-0.380578	-0.275456
C20	C	0.862568	-0.474601	-0.343216
C21	C	0.765455	-0.497897	-0.360014
C22	C	0.727145	-0.427176	-0.309047
C23	C	0.785958	-0.333154	-0.241281
C24	C	0.883080	-0.309852	-0.224486
C25	C	0.747656	-0.262426	-0.190318
C26	C	0.806469	-0.168405	-0.122551
C27	C	0.903581	-0.145107	-0.105759
C28	C	0.941891	-0.215828	-0.156726
C29	C	0.650534	-0.285729	-0.207112
C30	C	0.671045	-0.120979	-0.088382
C31	C	0.768158	-0.097684	-0.071584
C32	C	1.266297	-0.574435	-0.215860
C33	C	1.266359	-0.692730	-0.215873
C34	C	1.339285	-0.732199	-0.143076
C35	C	1.347312	-0.817784	-0.224027
C36	C	1.258438	-0.817928	-0.134956
C37	C	1.274422	-0.776757	-0.296861
C38	C	1.185519	-0.776891	-0.207740
C39	C	1.193504	-0.862466	-0.288755
C40	C	1.508877	-0.239769	-0.173989
C41	C	1.612233	-0.215003	-0.156143
C42	C	1.224401	-0.355895	-0.458409
C43	C	1.206530	-0.380615	-0.561766
C44	C	1.266399	-0.020259	-0.215894
C45	C	1.266426	0.098050	-0.215904
C46	C	1.394096	-0.121018	-0.812059
C47	C	1.410892	-0.097793	-0.714950
C48	C	1.359803	-0.168496	-0.676649
C49	C	1.291915	-0.262429	-0.735467
C50	C	1.275122	-0.285661	-0.832585
C51	C	1.240829	-0.333139	-0.697175
C52	C	1.172941	-0.427071	-0.755993
C53	C	1.156151	-0.450298	-0.853101
C54	C	1.207241	-0.379595	-0.891402
C55	C	1.257622	-0.309907	-0.600057
C56	C	1.138649	-0.474549	-0.620583
C57	C	1.121852	-0.497774	-0.717692
C58	C	1.308163	-0.240015	0.025737
C59	C	1.326214	-0.214953	0.129124
H60	H	0.717576	-0.574450	-0.415189
C61	C	1.249600	-0.842493	-0.043594
C62	C	1.326085	-0.775486	0.032385
C63	C	1.317977	-0.798068	0.116565
H64	H	1.249147	-0.918158	-0.044366
H65	H	1.192671	-0.827577	-0.037253
H66	H	1.382998	-0.790410	0.026045
H67	H	1.326552	-0.699816	0.033187
H68	H	1.261048	-0.783153	0.122906
H69	H	1.317522	-0.873735	0.115783
H70	H	1.369864	-0.752601	0.168127
H71	H	0.816057	-0.021130	-0.016408
C72	C	1.421426	-0.657040	-0.061077
C73	C	1.419837	-0.546322	-0.061623
C74	C	1.495483	-0.477055	0.013902
H75	H	1.478894	-0.670561	-0.066934
H76	H	1.416337	-0.671626	-0.003611
H77	H	1.424934	-0.531741	-0.119075
H78	H	1.362386	-0.532766	-0.055753
H79	H	1.490394	-0.491641	0.071369
H80	H	1.552946	-0.490586	0.008038
H81	H	1.494410	-0.401926	0.013547
H82	H	0.893770	-0.532168	-0.384710
C83	C	1.189013	-0.405036	-0.996838
C84	C	1.207134	-0.508385	-1.024873
C85	C	1.190345	-0.531860	-1.121995
H86	H	1.229136	-0.349580	-1.011339
H87	H	1.125196	-0.406330	-1.029205
H88	H	1.270941	-0.507082	-0.992517
H89	H	1.167015	-0.563863	-1.010396
H90	H	1.126528	-0.533154	-1.154362
H91	H	1.230470	-0.476397	-1.136486
H92	H	1.202629	-0.601987	-1.141030
C93	C	1.082378	-0.552310	-0.916811
C94	C	1.041211	-0.609242	-0.862492
C95	C	0.973239	-0.703212	-0.921149
H96	H	1.111282	-0.599347	-0.948570
H97	H	1.035276	-0.530391	-0.961684
H98	H	1.088306	-0.631164	-0.817637
H99	H	1.012288	-0.562237	-0.830735
H100	H	0.926137	-0.681293	-0.966021
H101	H	1.002151	-0.750240	-0.952904
H102	H	0.945293	-0.741846	-0.884303
H103	H	0.639853	-0.063390	-0.046883
H104	H	1.020969	-0.196869	-0.143049
H105	H	1.415704	-0.836245	-0.230928
H106	H	0.648070	-0.446149	-0.322728
H107	H	1.435690	-0.063467	-0.843253
C108	C	1.283550	-0.751928	-0.388049
C109	C	1.283472	-0.640558	-0.386941
C110	C	1.291895	-0.617638	-0.470917
H111	H	1.232065	-0.797693	-0.439831
H112	H	1.340817	-0.766147	-0.393973
H113	H	1.226211	-0.626350	-0.381026
H114	H	1.334954	-0.594769	-0.335176
H115	H	1.349162	-0.631857	-0.476841
H116	H	1.240408	-0.663409	-0.522693
H117	H	1.291851	-0.542070	-0.470173
H118	H	1.117152	-0.758396	-0.200810
H119	H	1.097049	-0.532123	-0.589399
H120	H	0.602657	-0.362281	-0.262289
C121	C	1.111394	-0.937153	-0.371061
C122	C	1.120183	-0.916473	-0.455539
C123	C	1.044572	-0.985264	-0.531380
H124	H	1.053978	-0.922597	-0.365884
H125	H	1.111568	-1.012410	-0.370386
H126	H	1.119999	-0.841233	-0.456213
H127	H	1.177583	-0.931035	-0.460746
H128	H	1.044746	-1.060522	-0.530705
H129	H	0.987162	-0.970703	-0.526194
H130	H	1.050530	-0.971249	-0.588708
C131	C	1.331195	-0.207784	-0.536278
C132	C	1.306870	-0.112977	-0.563402
C133	C	1.374619	-0.018872	-0.504664
H134	H	1.390957	-0.212040	-0.541360
H135	H	1.333878	-0.203993	-0.472946
H136	H	1.304197	-0.116767	-0.626717
H137	H	1.247119	-0.108684	-0.558315
H138	H	1.377302	-0.015081	-0.441333
H139	H	1.434376	-0.023139	-0.509751
H140	H	1.358119	0.045466	-0.523054
C141	C	0.967285	-0.042995	-0.032121
C142	C	0.912956	0.013940	0.008936
C143	C	0.971607	0.108003	0.076782
H144	H	0.999038	0.004002	-0.061108
H145	H	1.012164	-0.064812	0.015053
H146	H	0.868093	0.035759	-0.038230
H147	H	0.881204	-0.033025	0.037942
H148	H	1.016486	0.086186	0.123956
H149	H	1.003357	0.154991	0.047787
H150	H	0.934755	0.146639	0.104654
C151	C	1.484596	0.004271	-0.651256
C152	C	1.525726	0.061235	-0.705583
C153	C	1.593620	0.155276	-0.646941
H154	H	1.531736	-0.017538	-0.606355
H155	H	1.455605	0.051245	-0.619535
H156	H	1.554718	0.014270	-0.737288
H157	H	1.478610	0.083071	-0.750482
H158	H	1.564628	0.202250	-0.615220
H159	H	1.640753	0.133456	-0.602043
H160	H	1.621528	0.193943	-0.683794
H161	H	1.373483	-0.149581	-0.597578
H162	H	1.066577	-0.574255	-0.765595
