data_functionalizedCrystal
_audit_creation_method	'MofGen! by Chris Wilmer'
_symmetry_space_group_name_H-M	'P1'
_symmetry_Int_Tables_number	1
_symmetry_cell_setting	triclinic
loop_
_symmetry_equiv_pos_as_xyz
  x,y,z
_cell_length_a	10.654550
_cell_length_b	10.654541
_cell_length_c	9.730223
_cell_angle_alpha	89.995824
_cell_angle_beta	89.999957
_cell_angle_gamma	84.484430
loop_
_atom_site_label
_atom_site_type_symbol
_atom_site_fract_x
_atom_site_fract_y
_atom_site_fract_z
O1	O	1.667837	0.176399	-0.114187
O2	O	1.302359	0.193205	-0.114212
O3	O	1.493503	0.002062	-0.114190
O4	O	1.476694	0.367541	-0.114208
O5	O	1.493490	0.002057	0.114390
O6	O	1.302346	0.193200	0.114368
O7	O	1.667825	0.176394	0.114393
Zn8	Zn	1.485084	0.184796	0.150673
Zn9	Zn	1.485100	0.184803	-0.150491
O10	O	1.476681	0.367536	0.114372
C11	C	1.255555	0.191968	0.000075
C12	C	1.116112	0.188276	0.000066
C13	C	1.036625	0.300818	0.000064
C14	C	0.905604	0.297342	0.000088
C15	C	0.933569	0.068772	0.000110
C16	C	1.064588	0.072250	0.000095
C17	C	1.492263	-0.044738	0.000099
C18	C	1.488572	-0.184182	0.000096
C19	C	1.717137	-0.212153	0.000129
C20	C	1.829680	-0.291647	0.000149
C21	C	1.826204	-0.422665	0.000144
C22	C	1.710173	-0.474190	0.000116
C23	C	1.597630	-0.394696	0.000097
C24	C	1.601118	-0.263676	0.000106
C25	C	1.369069	-0.366725	0.000054
C26	C	1.372541	-0.235707	0.000068
C27	C	1.253037	-0.418251	0.000026
C28	C	1.140492	-0.338756	0.000017
C29	C	1.143972	-0.207731	0.000023
C30	C	1.259998	-0.156213	0.000049
C31	C	1.714629	0.177630	0.000103
C32	C	1.854072	0.181322	0.000104
C33	C	1.477921	0.414337	0.000080
C34	C	1.481612	0.553780	0.000073
N35	N	1.485082	0.184790	0.356209
N36	N	1.485112	0.184798	-0.356028
C37	C	1.569750	0.100188	0.428145
C38	C	1.569762	0.100189	0.572027
C39	C	1.400435	0.269404	0.572027
C40	C	1.400418	0.269397	0.428147
H41	H	1.719978	-0.105472	0.000152
H42	H	1.707354	-0.580873	0.000096
N43	N	1.263751	-0.014902	0.000062
H44	H	1.354330	0.005672	0.000081
H45	H	1.219676	0.022061	-0.084686
H46	H	1.917847	-0.487390	0.000149
N47	N	1.954824	-0.236076	0.000197
H48	H	1.939954	-0.141014	0.000208
H49	H	2.004091	-0.265099	0.084951
H50	H	1.638686	0.031295	0.369576
N51	N	1.249281	-0.559561	0.000014
H52	H	1.338181	-0.602104	0.000035
H53	H	1.203501	-0.585524	0.084742
N54	N	1.309139	0.360660	0.649631
H55	H	1.324369	0.449932	0.624572
H56	H	1.219917	0.345257	0.624584
N57	N	1.015356	-0.394326	-0.000025
H58	H	1.030232	-0.489388	-0.000035
H59	H	0.966046	-0.365336	0.084708
H60	H	0.891602	-0.025693	0.000142
N61	N	1.661099	0.008958	0.649617
H62	H	1.714733	-0.044631	0.582208
H63	H	1.717029	0.057583	0.709288
N64	N	1.309083	0.360640	0.350546
H65	H	1.255456	0.414243	0.417948
H66	H	1.357628	0.416609	0.290827
H67	H	1.078571	0.395294	0.000050
H68	H	0.840891	0.388985	0.000090
H69	H	1.129309	-0.019401	0.000100
H70	H	1.052325	-0.143012	0.000001
