data_functionalizedCrystal
_audit_creation_method	'MofGen! by Chris Wilmer'
_symmetry_space_group_name_H-M	'P1'
_symmetry_Int_Tables_number	1
_symmetry_cell_setting	triclinic
loop_
_symmetry_equiv_pos_as_xyz
  x,y,z
_cell_length_a	19.377372
_cell_length_b	20.016444
_cell_length_c	19.377372
_cell_angle_alpha	48.621738
_cell_angle_beta	93.588494
_cell_angle_gamma	72.112645
loop_
_atom_site_label
_atom_site_type_symbol
_atom_site_fract_x
_atom_site_fract_y
_atom_site_fract_z
Zr1	Zr	0.544090	0.998534	-0.236081
O2	O	0.430280	1.137905	-0.349886
O3	O	0.578977	0.859163	-0.201200
O4	O	0.551806	1.049480	-0.377072
O5	O	0.478887	0.907400	-0.035277
O6	O	0.647668	1.089667	-0.398509
O7	O	0.457452	0.947588	-0.174015
O8	O	0.696274	0.749225	-0.083906
O9	O	0.430281	1.247843	-0.349880
O10	O	0.665399	0.946479	-0.202314
O11	O	0.609855	0.886496	-0.082777
O12	O	0.577863	1.110570	-0.289844
O13	O	0.522319	1.050588	-0.170307
Zr14	Zr	0.731166	0.998532	-0.049000
Zr15	Zr	0.696980	1.062627	-0.270271
Zr16	Zr	0.578276	0.934439	-0.014810
Zr17	Zr	0.544092	1.173872	-0.236070
Zr18	Zr	0.731164	0.823194	-0.049011
O19	O	0.696278	1.137903	-0.083882
O20	O	0.647670	1.229037	-0.398500
O21	O	0.478888	1.046771	-0.035268
O22	O	0.844976	0.859161	0.064805
O23	O	0.796367	0.950295	-0.249813
O24	O	0.627586	0.768029	0.113419
O25	O	0.796369	1.089666	-0.249804
O26	O	0.723450	0.947586	0.091990
O27	O	0.627587	0.907399	0.113428
O28	O	0.817804	1.049478	-0.111067
O29	O	0.551809	1.298788	-0.377056
O30	O	0.723447	0.698278	0.091975
O31	O	0.844975	0.749223	0.064798
O32	O	0.817801	0.800170	-0.111082
O33	O	0.457455	1.196896	-0.173999
O34	O	0.578982	1.247841	-0.201175
O35	O	0.697393	0.886496	0.004763
O36	O	0.752937	0.946478	-0.114774
O37	O	0.665401	1.110569	-0.202304
O38	O	0.609857	1.050587	-0.082767
C39	C	0.637625	0.779212	-0.142554
C40	C	0.637624	0.704776	-0.142559
C41	C	0.666623	0.564813	-0.204939
C42	C	0.666627	0.494864	-0.204932
C43	C	0.608633	0.432254	-0.080135
C44	C	0.608635	0.502197	-0.080138
C45	C	0.637627	0.568479	-0.142546
C46	C	0.637629	0.428587	-0.142535
C47	C	0.637632	0.352745	-0.142527
C48	C	0.637625	0.644325	-0.142554
C49	C	0.446386	0.918362	-0.099774
C50	C	0.381480	0.891153	-0.085260
C51	C	-0.060447	1.229927	-0.265973
C52	C	-0.121424	1.204337	-0.252322
C53	C	-0.030034	1.033038	-0.160947
C54	C	0.030953	1.058613	-0.174587
C55	C	0.015739	1.157059	-0.227102
C56	C	0.107139	0.985745	-0.135716
C57	C	0.168119	1.011319	-0.149359
C58	C	0.152913	1.109761	-0.201874
C59	C	0.076719	1.182633	-0.240745
C60	C	0.122350	0.887301	-0.083207
C61	C	0.198537	0.814433	-0.044336
C62	C	0.259519	0.840005	-0.057973
C63	C	0.244313	0.938447	-0.110488
C64	C	0.335713	0.767133	-0.019102
C65	C	0.396694	0.792707	-0.032745
C66	C	0.305293	0.964021	-0.124131
C67	C	0.828870	1.078704	-0.185307
C68	C	0.893776	1.105913	-0.199821
C69	C	0.594866	1.078706	-0.419316
C70	C	0.580353	1.105915	-0.513252
C71	C	0.637631	1.217854	-0.142527
C72	C	0.637631	1.292289	-0.142522
C73	C	0.761063	0.767138	-0.593746
C74	C	0.747410	0.792727	-0.682023
C75	C	0.656029	0.964026	-0.773388
C76	C	0.669677	0.938452	-0.685117
C77	C	0.722194	0.840006	-0.595301
C78	C	0.630808	1.011321	-0.686673
C79	C	0.644452	0.985748	-0.598408
C80	C	0.696964	0.887306	-0.508589
C81	C	0.735837	0.814433	-0.507037
C82	C	0.578287	1.109764	-0.776489
C83	C	0.539418	1.182633	-0.778045
C84	C	0.553066	1.157062	-0.689780
C85	C	0.605579	1.058620	-0.599961
C86	C	0.514193	1.229934	-0.691332
C87	C	0.527836	1.204361	-0.603068
C88	C	0.619222	1.033047	-0.511696
C89	C	0.680390	0.918360	0.134235
C90	C	0.694903	0.891150	0.228170
C91	C	0.828868	0.859383	-0.185321
C92	C	0.893773	0.812156	-0.199840
C93	C	0.680387	0.699039	0.134221
C94	C	0.694899	0.597394	0.228152
C95	C	0.871629	0.779210	0.091455
C96	C	0.951047	0.704774	0.170871
C97	C	0.403627	1.217856	-0.376536
C98	C	0.324209	1.292292	-0.455952
C99	C	0.446388	1.137683	-0.099761
C100	C	0.381483	1.184910	-0.085241
C101	C	0.594869	1.298027	-0.419303
C102	C	0.580357	1.399672	-0.513233
C103	C	0.878557	0.789981	-0.252362
C104	C	0.939533	0.745620	-0.266024
C105	C	1.015725	0.723429	-0.227156
C106	C	1.030939	0.745610	-0.174632
C107	C	0.969963	0.789976	-0.160977
C108	C	0.747409	0.549657	0.317967
C109	C	0.761044	0.454157	0.406234
C110	C	0.722171	0.406392	0.404682
C111	C	0.669654	0.454136	0.314858
C112	C	0.656017	0.549638	0.226594
C113	C	1.017343	0.701131	0.145768
C114	C	1.091969	0.631205	0.220378
C115	C	1.100298	0.564918	0.320091
C116	C	1.033995	0.568565	0.345194
C117	C	0.959370	0.638495	0.270585
C118	C	0.257913	1.295944	-0.430849
C119	C	0.183287	1.365891	-0.505459
C120	C	0.174958	1.432182	-0.605172
C121	C	0.241261	1.428530	-0.630275
C122	C	0.315886	1.358588	-0.555666
C123	C	0.396697	1.207094	-0.032728
C124	C	0.335717	1.251482	-0.019091
C125	C	0.259525	1.273677	-0.057962
C126	C	0.244312	1.251492	-0.110482
C127	C	0.305290	1.207112	-0.124125
C128	C	0.619242	1.447408	-0.511650
C129	C	0.605622	1.542909	-0.599903
C130	C	0.553112	1.590675	-0.689736
C131	C	0.514226	1.542931	-0.691316
C132	C	0.527850	1.447429	-0.603066
H133	H	0.690232	0.618779	-0.255754
H134	H	0.210913	0.734279	-0.001581
H135	H	1.145947	0.628246	0.199920
Br136	Br	0.569290	0.507165	0.004555
H137	H	-0.183461	1.263683	-0.283982
Br138	Br	0.056081	1.316236	-0.312000
H139	H	1.161066	0.507981	0.380833
H140	H	0.733283	0.328628	0.476560
H141	H	0.348120	1.269536	0.023679
H142	H	0.690239	0.491882	-0.255737
H143	H	0.369863	1.355619	-0.576118
H144	H	0.471471	1.581836	-0.764471
H145	H	0.927131	0.727565	-0.308793
Br146	Br	0.468141	1.316230	-0.899940
H147	H	1.065369	0.687302	-0.238281
Br148	Br	0.356346	0.633537	0.052150
Br149	Br	0.229945	1.518501	-0.765606
H150	H	0.661990	0.952884	-0.438561
Br151	Br	0.235670	1.144475	-0.220399
Br152	Br	1.045311	0.478597	0.480525
Br153	Br	1.134348	0.715482	-0.121885
Br154	Br	0.807141	0.680840	-0.385142
H155	H	0.905394	0.641448	0.291039
Br156	Br	0.616905	0.389298	0.312769
H157	H	0.982363	0.808023	-0.118203
H158	H	0.585027	0.378280	-0.029326
Br159	Br	0.584751	0.614410	0.104706
Br160	Br	0.475063	1.382660	-0.605231
H161	H	0.779067	0.588536	0.319249
Br162	Br	0.140903	1.281616	-0.163226
H163	H	0.803809	0.415295	0.479363
Br164	Br	0.093317	1.370828	-0.471368
Br165	Br	-0.081086	1.363529	-0.337228
H166	H	0.471428	1.310086	-0.764470
Br167	Br	1.006061	0.791086	0.010449
Br168	Br	0.269195	1.205986	-0.295530
H169	H	0.114190	1.489128	-0.665914
Br170	Br	0.500094	1.176986	0.020033
H171	H	0.209880	1.309814	-0.046846
H172	H	0.292892	1.189047	-0.166882
Br173	Br	0.690510	1.382605	-0.389746
Br174	Br	0.800165	0.693821	-0.679905
H175	H	0.292908	1.044177	-0.166864
H176	H	-0.017658	0.952884	-0.118192
Br177	Br	0.658399	1.607686	-0.597733
Br178	Br	0.039588	0.852596	-0.064704
H179	H	0.542024	1.668439	-0.761588
H180	H	0.458732	0.733365	-0.001075
Br181	Br	0.584752	1.097623	-0.895284
H182	H	0.708068	0.866485	-0.436720
H183	H	0.567180	1.130582	-0.848357
Br184	Br	0.475096	1.303258	-0.605176
Br185	Br	0.832367	0.633544	-0.471851
Br186	Br	0.775160	0.820092	-0.305126
