data_functionalizedCrystal
_audit_creation_method	'MofGen! by Chris Wilmer'
_symmetry_space_group_name_H-M	'P1'
_symmetry_Int_Tables_number	1
_symmetry_cell_setting	triclinic
loop_
_symmetry_equiv_pos_as_xyz
  x,y,z
_cell_length_a	27.732064
_cell_length_b	27.732048
_cell_length_c	14.185569
_cell_angle_alpha	76.951782
_cell_angle_beta	103.051318
_cell_angle_gamma	82.646040
loop_
_atom_site_label
_atom_site_type_symbol
_atom_site_fract_x
_atom_site_fract_y
_atom_site_fract_z
O1	O	0.629896	0.068574	-0.083255
O2	O	1.129896	0.568574	0.416745
O3	O	0.489099	0.077317	-0.083298
O4	O	0.989099	0.577317	0.416702
O5	O	0.563873	0.002547	-0.083256
O6	O	1.063873	0.502547	0.416744
O7	O	0.555122	0.143345	-0.083297
O8	O	1.055122	0.643345	0.416703
O9	O	0.585962	-0.019539	0.083591
O10	O	1.085962	0.480461	0.583591
O11	O	0.511187	0.055232	0.083549
O12	O	1.011187	0.555232	0.583549
O13	O	0.651985	0.046489	0.083592
O14	O	1.151985	0.546489	0.583592
Cu15	Cu	0.583603	0.048844	0.098805
Cu16	Cu	1.083603	0.548844	0.598805
Cu17	Cu	0.557481	0.074962	-0.098511
Cu18	Cu	1.057481	0.574962	0.401489
O19	O	0.577211	0.121260	0.083550
O20	O	1.077211	0.621260	0.583550
C21	C	0.482136	0.066091	0.000120
C22	C	0.982136	0.566091	0.500120
C23	C	0.428479	0.065537	0.000105
C24	C	0.928479	0.565537	0.500105
C25	C	0.574734	-0.026503	0.000170
C26	C	1.074734	0.473497	0.500170
C27	C	0.574182	-0.080159	0.000178
C28	C	1.074182	0.419841	0.500178
C29	C	0.051416	0.017560	0.000176
C30	C	0.551416	0.517560	0.500176
C31	C	0.253072	0.019610	0.000149
C32	C	0.753072	0.519610	0.500149
O33	O	0.284331	-0.017618	0.000198
O34	O	0.784331	0.482382	0.500198
N35	N	0.272198	0.063946	0.000132
N36	N	0.772198	0.563946	0.500132
C37	C	0.240906	0.107773	0.000128
C38	C	0.740906	0.607773	0.500128
O39	O	0.261802	0.145529	0.000123
O40	O	0.761802	0.645529	0.500123
C41	C	0.039251	0.105722	0.000162
C42	C	0.539251	0.605722	0.500162
C43	C	0.020128	0.061383	0.000169
C44	C	0.520128	0.561383	0.500169
C45	C	0.032292	-0.026775	0.000184
C46	C	0.532292	0.473225	0.500184
C47	C	-0.018120	-0.027286	0.000185
C48	C	0.481880	0.472714	0.500185
C49	C	-0.049408	0.016538	0.000178
C50	C	0.450592	0.516538	0.500178
C51	C	-0.030284	0.060872	0.000170
C52	C	0.469716	0.560872	0.500170
C53	C	0.007961	0.149546	0.000165
C54	C	0.507961	0.649546	0.500165
C55	C	-0.042455	0.149029	0.000176
C56	C	0.457545	0.649029	0.500176
C57	C	-0.061578	0.104691	0.000183
C58	C	0.438422	0.604691	0.500183
C59	C	-0.111984	0.104184	0.000164
C60	C	0.388016	0.604184	0.500164
N61	N	-0.131109	0.059848	0.000182
N62	N	0.368891	0.559848	0.500182
C63	C	-0.099821	0.016024	0.000189
C64	C	0.400179	0.516024	0.500189
C65	C	0.346778	0.108847	0.000108
C66	C	0.846778	0.608847	0.500108
C67	C	0.397191	0.109360	0.000098
C68	C	0.897191	0.609360	0.500098
C69	C	0.409354	0.021197	0.000121
C70	C	0.909354	0.521197	0.500121
C71	C	0.358939	0.020685	0.000124
C72	C	0.858939	0.520685	0.500124
C73	C	0.327653	0.064510	0.000125
C74	C	0.827653	0.564510	0.500125
C75	C	-0.205691	0.014954	0.000190
C76	C	0.294309	0.514954	0.500190
C77	C	-0.256108	0.014447	0.000187
C78	C	0.243892	0.514447	0.500187
C79	C	-0.268266	0.102610	0.000169
C80	C	0.231734	0.602610	0.500169
C81	C	-0.217854	0.103118	0.000167
C82	C	0.282146	0.603118	0.500167
C83	C	-0.186566	0.059285	0.000181
C84	C	0.313434	0.559285	0.500181
O85	O	-0.143270	0.141390	0.000127
O86	O	0.356730	0.641390	0.500127
O87	O	-0.120724	-0.021730	0.000216
O88	O	0.379276	0.478270	0.500216
C89	C	0.101828	0.018071	0.000175
C90	C	0.601828	0.518071	0.500175
C91	C	0.120952	0.062406	0.000166
C92	C	0.620952	0.562406	0.500166
C93	C	0.089664	0.106229	0.000159
C94	C	0.589664	0.606229	0.500159
C95	C	0.171365	0.062919	0.000156
C96	C	0.671365	0.562919	0.500156
C97	C	0.202653	0.019096	0.000163
C98	C	0.702653	0.519096	0.500163
C99	C	0.183528	-0.025241	0.000181
C100	C	0.683528	0.474759	0.500181
C101	C	0.133116	-0.025752	0.000182
C102	C	0.633116	0.474248	0.500182
C103	C	0.108789	0.150566	0.000142
C104	C	0.608789	0.650566	0.500142
C105	C	0.159201	0.151074	0.000140
C106	C	0.659201	0.651074	0.500140
C107	C	0.190489	0.107250	0.000147
C108	C	0.690489	0.607250	0.500147
C109	C	0.614881	-0.418967	0.000139
C110	C	1.114881	0.081033	0.500139
C111	C	0.612828	-0.620625	0.000124
C112	C	1.112828	-0.120625	0.500124
O113	O	0.650044	-0.651874	0.000092
O114	O	1.150044	-0.151874	0.500092
N115	N	0.568491	-0.639749	0.000112
N116	N	1.068491	-0.139749	0.500112
C117	C	0.524664	-0.608455	0.000096
C118	C	1.024664	-0.108455	0.500096
O119	O	0.486905	-0.629348	0.000075
O120	O	0.986905	-0.129348	0.500075
C121	C	0.526717	-0.406797	0.000104
C122	C	1.026717	0.093203	0.500104
C123	C	0.571057	-0.387677	0.000127
C124	C	1.071057	0.112323	0.500127
C125	C	0.659218	-0.399846	0.000161
C126	C	1.159218	0.100154	0.500161
C127	C	0.659731	-0.349435	0.000170
C128	C	1.159731	0.150565	0.500170
C129	C	0.615908	-0.318145	0.000157
C130	C	1.115908	0.181855	0.500157
C131	C	0.571571	-0.337266	0.000136
C132	C	1.071571	0.162734	0.500136
C133	C	0.482889	-0.375503	0.000081
C134	C	0.982889	0.124497	0.500081
C135	C	0.483406	-0.325086	0.000081
C136	C	0.983406	0.174914	0.500081
C137	C	0.527746	-0.305966	0.000103
C138	C	1.027746	0.194034	0.500103
C139	C	0.528261	-0.255566	0.000132
C140	C	1.028261	0.244434	0.500132
N141	N	0.572597	-0.236441	0.000145
N142	N	1.072597	0.263559	0.500145
C143	C	0.616421	-0.267731	0.000157
C144	C	1.116421	0.232269	0.500157
C145	C	0.523590	-0.714329	0.000095
C146	C	1.023590	-0.214329	0.500095
C147	C	0.523077	-0.764744	0.000094
C148	C	1.023077	-0.264744	0.500094
C149	C	0.611241	-0.776909	0.000121
C150	C	1.111241	-0.276909	0.500121
C151	C	0.611754	-0.726495	0.000128
C152	C	1.111754	-0.226495	0.500128
C153	C	0.567926	-0.695204	0.000107
C154	C	1.067926	-0.195204	0.500107
C155	C	0.617496	-0.161864	0.000177
C156	C	1.117496	0.338136	0.500177
C157	C	0.618006	-0.111449	0.000191
C158	C	1.118006	0.388551	0.500191
C159	C	0.529842	-0.099287	0.000159
C160	C	1.029842	0.400713	0.500159
C161	C	0.529332	-0.149699	0.000151
C162	C	1.029332	0.350301	0.500151
C163	C	0.573163	-0.180986	0.000157
C164	C	1.073163	0.319014	0.500157
O165	O	0.491063	-0.224287	0.000154
O166	O	0.991063	0.275713	0.500154
O167	O	0.654172	-0.246826	0.000156
O168	O	1.154172	0.253174	0.500156
C169	C	0.614367	-0.469378	0.000130
C170	C	1.114367	0.030622	0.500130
C171	C	0.570030	-0.488499	0.000108
C172	C	1.070030	0.011501	0.500108
C173	C	0.526207	-0.457209	0.000096
C174	C	1.026207	0.042791	0.500096
C175	C	0.569517	-0.538913	0.000108
C176	C	1.069517	-0.038913	0.500108
C177	C	0.613341	-0.570203	0.000121
C178	C	1.113341	-0.070203	0.500121
C179	C	0.657677	-0.551078	0.000133
C180	C	1.157677	-0.051078	0.500133
C181	C	0.658191	-0.500667	0.000142
C182	C	1.158191	-0.000667	0.500142
C183	C	0.481870	-0.476334	0.000083
C184	C	0.981870	0.023666	0.500083
C185	C	0.481361	-0.526745	0.000075
C186	C	0.981361	-0.026745	0.500075
C187	C	0.525184	-0.558035	0.000088
C188	C	1.025184	-0.058035	0.500088
C189	C	0.658948	0.057716	0.000171
C190	C	1.158948	0.557716	0.500171
C191	C	0.712604	0.058271	0.000180
C192	C	1.212604	0.558271	0.500180
C193	C	0.566349	0.150310	0.000122
C194	C	1.066349	0.650310	0.500122
C195	C	0.566900	0.203967	0.000107
C196	C	1.066900	0.703967	0.500107
N197	N	0.601980	0.030473	0.237586
N198	N	1.101980	0.530473	0.737586
N199	N	0.539108	0.093329	-0.237292
N200	N	1.039108	0.593329	0.262708
C201	C	0.485116	0.147282	0.605171
C202	C	0.985116	0.647282	1.105171
C203	C	0.499040	0.133369	0.710200
C204	C	0.999040	0.633369	1.210200
C205	C	0.565266	0.067184	0.710198
C206	C	1.065266	0.567184	1.210198
C207	C	0.551346	0.081090	0.605167
C208	C	1.051346	0.581090	1.105167
C209	C	0.511272	0.121139	0.552661
C210	C	1.011272	0.621139	1.052661
C211	C	0.577501	0.054947	0.552657
C212	C	1.077501	0.554947	1.052657
C213	C	0.563584	0.068853	0.447635
C214	C	1.063584	0.568853	0.947635
C215	C	0.523512	0.108902	0.395122
C216	C	1.023512	0.608902	0.895122
C217	C	0.497355	0.135045	0.447639
C218	C	0.997355	0.635045	0.947639
C219	C	0.617578	0.014900	0.605164
C220	C	1.117578	0.514900	1.105164
C221	C	0.643733	-0.011243	0.552655
C222	C	1.143733	0.488757	1.052655
C223	C	0.629814	0.002661	0.447631
C224	C	1.129814	0.502661	0.947631
C225	C	0.589742	0.042710	0.395118
C226	C	1.089742	0.542710	0.895118
C227	C	0.655972	-0.023482	0.395114
C228	C	1.155972	0.476518	0.895114
C229	C	0.642055	-0.009576	0.290092
C230	C	1.142055	0.490424	0.790092
C231	C	0.575825	0.056616	0.290096
C232	C	1.075825	0.556616	0.790096
H233	H	-0.271676	-0.021659	0.000191
H234	H	0.228324	0.478341	0.500191
O235	O	0.473556	0.158721	0.761168
O236	O	0.973556	0.658721	1.261168
C237	C	0.422366	0.154595	0.735496
C238	C	0.922366	0.654595	1.235496
H239	H	0.418597	0.119718	0.706626
H240	H	0.918597	0.619718	1.206626
H241	H	0.407219	0.151171	0.804569
H242	H	0.907219	0.651171	1.304569
H243	H	0.399888	0.189558	0.674539
H244	H	0.899888	0.689558	1.174539
O245	O	0.440879	-0.294661	0.000196
O246	O	0.940879	0.205339	0.500196
C247	C	0.449969	-0.276591	0.086623
C248	C	0.949969	0.223409	0.586623
H249	H	0.492132	-0.278135	0.115451
H250	H	0.992132	0.221865	0.615451
H251	H	0.429098	-0.235992	0.067186
H252	H	0.929098	0.264008	0.567186
H253	H	0.436028	-0.301035	0.147119
H254	H	0.936028	0.198965	0.647119
H255	H	0.117550	-0.061857	0.000188
H256	H	0.617550	0.438143	0.500188
H257	H	0.597896	0.034577	0.752960
H258	H	1.097896	0.534577	1.252960
O259	O	0.439826	-0.394106	-0.000085
O260	O	0.939826	0.105894	0.499915
C261	C	0.425444	-0.411442	-0.086518
C262	C	0.925444	0.088558	0.413482
H263	H	0.459829	-0.420472	-0.115301
H264	H	0.959829	0.079528	0.384699
H265	H	0.408987	-0.446884	-0.067106
H266	H	0.908987	0.053116	0.432894
H267	H	0.395888	-0.380988	-0.147038
H268	H	0.895888	0.119012	0.352962
O269	O	0.510029	0.122488	0.293103
O270	O	1.010029	0.622488	0.793103
C271	C	0.514844	0.172958	0.258008
C272	C	1.014844	0.672958	0.758008
H273	H	0.542770	0.183697	0.318521
H274	H	1.042770	0.683697	0.818521
H275	H	0.529077	0.177291	0.187739
H276	H	1.029077	0.677291	0.687739
H277	H	0.476579	0.198698	0.239384
H278	H	0.976579	0.698698	0.739384
O279	O	0.660059	-0.192319	0.000321
O280	O	1.160059	0.307681	0.500321
C281	C	0.673850	-0.233284	0.086743
C282	C	1.173850	0.266716	0.586743
H283	H	0.639314	-0.239376	0.115534
H284	H	1.139314	0.260624	0.615534
H285	H	0.689580	-0.268733	0.067314
H286	H	1.189580	0.231267	0.567314
H287	H	0.703807	-0.224867	0.147264
H288	H	1.203807	0.275133	0.647264
H289	H	0.464718	0.167654	0.404887
H290	H	0.964718	0.667654	0.904887
H291	H	0.493230	-0.165271	0.000161
H292	H	0.993230	0.334729	0.500161
O293	O	-0.199348	0.146234	0.000020
O294	O	0.300652	0.646234	0.500020
C295	C	-0.226800	0.184365	-0.086410
C296	C	0.273200	0.684365	0.413590
H297	H	-0.265491	0.175278	-0.115225
H298	H	0.234509	0.675278	0.384775
H299	H	-0.231513	0.222100	-0.066981
H300	H	0.268487	0.722100	0.433019
H301	H	-0.205594	0.186552	-0.146912
H302	H	0.294406	0.686552	0.353088
O303	O	0.702840	-0.330939	0.000139
O304	O	1.202840	0.169061	0.500139
C305	C	0.741407	-0.369377	0.000172
C306	C	1.241407	0.130623	0.500172
H307	H	0.723929	-0.399344	-0.031420
H308	H	1.223929	0.100656	0.468580
H309	H	0.765973	-0.352656	-0.048261
H310	H	1.265973	0.147344	0.451739
H311	H	0.765504	-0.387213	0.080220
H312	H	1.265504	0.112787	0.580220
O313	O	0.479957	-0.783229	0.000039
O314	O	0.979957	-0.283229	0.500039
C315	C	0.441394	-0.744798	0.000051
C316	C	0.941394	-0.244798	0.500051
H317	H	0.450506	-0.706464	-0.031530
H318	H	0.950506	-0.206464	0.468470
H319	H	0.404001	-0.748689	-0.048402
H320	H	0.904001	-0.248689	0.451598
H321	H	0.438491	-0.748166	0.080091
H322	H	0.938491	-0.248166	0.580091
H323	H	0.693360	-0.576564	0.000148
H324	H	1.193360	-0.076564	0.500148
O325	O	0.481063	-0.683906	0.000214
O326	O	0.981063	-0.183906	0.500214
C327	C	0.490155	-0.665834	0.086638
C328	C	0.990155	-0.165834	0.586638
H329	H	0.532318	-0.667373	0.115456
H330	H	1.032318	-0.167373	0.615456
H331	H	0.469281	-0.625235	0.067199
H332	H	0.969281	-0.125235	0.567199
H333	H	0.476219	-0.690278	0.147141
H334	H	0.976219	-0.190278	0.647141
O335	O	0.487312	-0.068813	0.000101
O336	O	0.987312	0.431187	0.500101
C337	C	0.497281	-0.020221	0.000134
C338	C	0.997281	0.479779	0.500134
H339	H	0.531057	-0.014388	-0.031433
H340	H	1.031057	0.485612	0.468567
H341	H	0.462915	0.009244	-0.048320
H342	H	0.962915	0.509244	0.451680
H343	H	0.505933	-0.016227	0.080179
H344	H	1.005933	0.483773	0.580179
O345	O	0.701756	-0.430232	-0.000003
O346	O	1.201756	0.069768	0.499997
C347	C	0.692664	-0.448327	-0.086398
C348	C	1.192664	0.051673	0.413602
H349	H	0.659806	-0.421690	-0.146809
H350	H	1.159806	0.078310	0.353191
H351	H	0.727808	-0.450431	-0.115385
H352	H	1.227808	0.049569	0.384615
H353	H	0.683028	-0.487492	-0.066865
H354	H	1.183028	0.012508	0.433135
H355	H	0.676364	-0.043850	0.595417
H356	H	1.176364	0.456150	1.095417
H357	H	0.174765	0.187183	0.000127
H358	H	0.674765	0.687183	0.500127
H359	H	0.445252	-0.542309	0.000066
H360	H	0.945252	-0.042309	0.500066
H361	H	0.647860	-0.710931	0.000145
H362	H	1.147860	-0.210931	0.500145
O363	O	0.446131	0.186124	0.554115
O364	O	0.946131	0.686124	1.054115
C365	C	0.408466	0.168480	0.493358
C366	C	0.908466	0.668480	0.993358
H367	H	0.412135	0.126171	0.525016
H368	H	0.912135	0.626171	1.025016
H369	H	0.369740	0.188619	0.492168
H370	H	0.869740	0.688619	0.992168
H371	H	0.413067	0.176383	0.413762
H372	H	0.913067	0.676383	0.913762
O373	O	0.316322	0.151410	-0.000036
O374	O	0.816322	0.651410	0.499964
C375	C	0.275356	0.165200	-0.086458
C376	C	0.775356	0.665200	0.413542
H377	H	0.269261	0.130664	-0.115248
H378	H	0.769261	0.630664	0.384752
H379	H	0.239907	0.180933	-0.067029
H380	H	0.739907	0.680933	0.432971
H381	H	0.283772	0.195155	-0.146979
H382	H	0.783772	0.695155	0.353021
H383	H	0.688604	-0.056088	0.437877
H384	H	1.188604	0.443912	0.937877
H385	H	0.446183	-0.450862	0.000071
H386	H	0.946183	0.049138	0.500071
H387	H	0.628909	0.003581	0.690680
H388	H	1.128909	0.503581	1.190680
H389	H	-0.293751	0.138290	0.000159
H390	H	0.206249	0.638290	0.500159
O391	O	0.439709	-0.021364	-0.000044
O392	O	0.939709	0.478636	0.499956
C393	C	0.419642	-0.036883	-0.086427
C394	C	0.919642	0.463117	0.413573
H395	H	0.394219	-0.003242	-0.146837
H396	H	0.894219	0.496758	0.353163
H397	H	0.451716	-0.052700	-0.115424
H398	H	0.951716	0.447300	0.384576
H399	H	0.396766	-0.067256	-0.066872
H400	H	0.896766	0.432744	0.433128
H401	H	-0.033685	-0.063391	0.000195
H402	H	0.466315	0.436609	0.500195
H403	H	0.543189	0.089225	0.247344
H404	H	1.043189	0.589225	0.747344
O405	O	0.667499	-0.035038	0.239233
O406	O	1.167499	0.464962	0.739233
C407	C	0.705860	-0.073361	0.308095
C408	C	1.205860	0.426639	0.808095
H409	H	0.695970	-0.083687	0.382964
H410	H	1.195970	0.416313	0.882964
H411	H	0.709502	-0.107998	0.277750
H412	H	1.209502	0.392002	0.777750
H413	H	0.743129	-0.059389	0.319253
H414	H	1.243129	0.440611	0.819253
H415	H	0.343373	-0.015419	0.000131
H416	H	0.843373	0.484581	0.500131
H417	H	0.412755	0.145466	0.000078
H418	H	0.912755	0.645466	0.500078
H419	H	0.057763	-0.062463	0.000193
H420	H	0.557763	0.437537	0.500193
O421	O	-0.175378	-0.027661	0.000151
O422	O	0.324622	0.472339	0.500151
C423	C	-0.203074	-0.066899	0.000181
C424	C	0.296926	0.433101	0.500181
H425	H	-0.244978	-0.050152	-0.031401
H426	H	0.255022	0.449848	0.468599
H427	H	-0.190679	-0.091167	-0.048261
H428	H	0.309321	0.408833	0.451739
H429	H	-0.195962	-0.091108	0.080227
H430	H	0.304038	0.408892	0.580227
H431	H	0.023522	0.185652	0.000154
H432	H	0.523522	0.685652	0.500154
O433	O	0.653775	-0.807303	-0.000053
O434	O	1.153775	-0.307303	0.499947
C435	C	0.644660	-0.825391	-0.086456
C436	C	1.144660	-0.325391	0.413544
H437	H	0.611802	-0.798743	-0.146849
H438	H	1.111802	-0.298743	0.353151
H439	H	0.679797	-0.827505	-0.115464
H440	H	1.179797	-0.327505	0.384536
H441	H	0.635011	-0.864550	-0.066924
H442	H	1.135011	-0.364550	0.433076
O443	O	-0.072850	0.191640	-0.000005
O444	O	0.427150	0.691640	0.499995
C445	C	-0.075666	0.230025	-0.086409
C446	C	0.424334	0.730025	0.413591
H447	H	-0.066250	0.212370	-0.146802
H448	H	0.433750	0.712370	0.353198
H449	H	-0.115420	0.253526	-0.115417
H450	H	0.384580	0.753526	0.384583
H451	H	-0.047605	0.255219	-0.066878
H452	H	0.452395	0.755219	0.433122
O453	O	0.213957	-0.067762	0.000054
O454	O	0.713957	0.432238	0.500054
C455	C	0.232026	-0.058665	-0.086370
C456	C	0.732026	0.441335	0.413630
H457	H	0.230474	-0.016501	-0.115192
H458	H	0.730474	0.483499	0.384808
H459	H	0.272629	-0.079528	-0.066930
H460	H	0.772629	0.420472	0.433070
H461	H	0.207588	-0.072611	-0.146870
H462	H	0.707588	0.427389	0.353130
H463	H	0.083318	0.186253	0.000138
H464	H	0.583318	0.686253	0.500138
H465	H	0.654115	-0.095885	0.000212
H466	H	1.154115	0.404115	0.500212
O467	O	0.701300	-0.482171	0.000113
O468	O	1.201300	0.017829	0.500113
C469	C	0.739867	-0.520610	0.000147
C470	C	1.239867	-0.020610	0.500147
H471	H	0.722389	-0.550576	-0.031446
H472	H	1.222389	-0.050576	0.468554
H473	H	0.764434	-0.503889	-0.048284
H474	H	1.264434	-0.003889	0.451716
H475	H	0.763963	-0.538446	0.080195
H476	H	1.263963	-0.038446	0.580195
