data_functionalizedCrystal
_audit_creation_method	'MofGen! by Chris Wilmer'
_symmetry_space_group_name_H-M	'P1'
_symmetry_Int_Tables_number	1
_symmetry_cell_setting	triclinic
loop_
_symmetry_equiv_pos_as_xyz
  x,y,z
_cell_length_a	14.971506
_cell_length_b	15.995292
_cell_length_c	14.048226
_cell_angle_alpha	89.996759
_cell_angle_beta	89.993237
_cell_angle_gamma	83.545502
loop_
_atom_site_label
_atom_site_type_symbol
_atom_site_fract_x
_atom_site_fract_y
_atom_site_fract_z
O1	O	1.186787	0.109200	-0.079160
O2	O	0.926371	0.122249	-0.079160
O3	O	1.063725	-0.006159	-0.079162
O4	O	1.049433	0.237608	-0.079159
O5	O	1.063708	-0.006166	0.079160
O6	O	0.926355	0.122242	0.079161
O7	O	1.186770	0.109192	0.079161
Zn8	Zn	1.056560	0.115716	0.104298
Zn9	Zn	1.056582	0.115726	-0.104297
O10	O	1.049417	0.237600	0.079163
C11	C	1.063135	-0.037359	-0.000003
C12	C	1.061391	-0.130314	-0.000011
C13	C	0.893039	0.121659	0.000001
C14	C	0.793746	0.119901	0.000000
C15	C	1.054980	-0.468059	-0.000002
C16	C	1.154118	-0.444641	0.000352
C17	C	1.156003	-0.347963	-0.000009
C18	C	1.058161	-0.300499	-0.000006
C19	C	1.008606	-0.329649	-0.090412
C20	C	1.007413	-0.426441	-0.090484
C21	C	1.005370	-0.426309	0.089557
C22	C	1.009043	-0.329812	0.090748
C23	C	1.059954	-0.205801	-0.000011
C24	C	1.053185	-0.562757	-0.000003
C25	C	0.355369	0.188630	-0.000008
C26	C	0.448667	0.190275	-0.000013
C27	C	0.505990	0.114830	-0.000009
C28	C	0.470011	0.037735	-0.000011
C29	C	0.376715	0.036091	-0.000014
C30	C	0.664469	0.041168	-0.000003
C31	C	0.757772	0.042812	0.000001
C32	C	0.736422	0.195352	-0.000002
C33	C	0.643126	0.193708	-0.000005
C34	C	0.607153	0.116612	-0.000005
C35	C	1.220102	0.109783	-0.000002
C36	C	1.319396	0.111541	-0.000008
N37	N	1.056552	0.115708	0.246659
C38	C	1.050007	0.268800	0.000002
C39	C	1.051751	0.361755	0.000003
N40	N	1.056597	0.115727	-0.246658
C41	C	1.117391	0.058873	0.296476
C42	C	1.117397	0.058872	0.396134
C43	C	1.056567	0.115712	0.445972
C44	C	0.995722	0.172551	0.396148
C45	C	0.995712	0.172546	0.296492
C46	C	0.995747	0.172557	0.603862
C47	C	0.995758	0.172562	0.703525
C48	C	1.117432	0.058883	0.703504
C49	C	1.117423	0.058879	0.603848
C50	C	1.056578	0.115718	0.554031
H51	H	1.194813	-0.328899	0.064797
Br52	Br	1.065983	-0.296153	-0.202557
Br53	Br	0.888605	-0.276662	-0.096020
H54	H	1.192125	-0.473615	-0.064119
H55	H	0.596455	0.255141	-0.000001
H56	H	0.946198	0.218839	0.563304
Br57	Br	0.497485	0.294900	-0.000023
Br58	Br	0.785240	0.299981	0.000014
H59	H	0.308703	0.250066	-0.000004
Br60	Br	1.199957	-0.018266	0.228849
H61	H	0.804443	-0.018622	-0.000004
Br62	Br	1.199962	-0.018266	0.463746
Br63	Br	0.913200	0.249705	0.771156
Br64	Br	1.217803	-0.491238	0.108416
H65	H	1.195056	-0.329514	-0.064929
H66	H	1.041746	-0.453217	-0.158066
Br67	Br	0.913158	0.249686	0.463782
H68	H	1.166959	0.012600	0.563270
H69	H	0.635184	-0.021611	-0.000009
H70	H	0.516691	-0.023693	-0.000014
H71	H	0.946169	0.218827	0.255932
Br72	Br	0.327893	-0.068534	-0.000017
Br73	Br	0.886266	-0.450828	-0.097325
H74	H	1.166974	0.012602	0.744071
H75	H	1.036583	-0.454367	0.158085
H76	H	0.937628	-0.296920	0.096210
Br77	Br	1.069176	-0.298804	0.202227
H78	H	0.932396	-0.440377	0.090168
