data_functionalizedCrystal
_audit_creation_method	'MofGen! by Chris Wilmer'
_symmetry_space_group_name_H-M	'P1'
_symmetry_Int_Tables_number	1
_symmetry_cell_setting	triclinic
loop_
_symmetry_equiv_pos_as_xyz
  x,y,z
_cell_length_a	27.731988
_cell_length_b	14.519709
_cell_length_c	12.996460
_cell_angle_alpha	90.007090
_cell_angle_beta	89.993711
_cell_angle_gamma	83.149253
loop_
_atom_site_label
_atom_site_type_symbol
_atom_site_fract_x
_atom_site_fract_y
_atom_site_fract_z
O1	O	-0.641470	-0.109471	-0.085284
O2	O	-0.141470	0.390529	0.414716
O3	O	-0.500752	-0.126213	-0.085349
O4	O	-0.000752	0.373787	0.414651
O5	O	-0.574842	0.016462	-0.085306
O6	O	-0.074842	0.516462	0.414694
O7	O	-0.567380	-0.252147	-0.085328
O8	O	-0.067380	0.247853	0.414672
O9	O	-0.574834	0.016470	0.085828
O10	O	-0.074834	0.516470	0.585828
O11	O	-0.500745	-0.126206	0.085785
O12	O	-0.000745	0.373794	0.585785
O13	O	-0.641462	-0.109464	0.085850
O14	O	-0.141462	0.390536	0.585850
Cu15	Cu	-0.571103	-0.117834	0.101443
Cu16	Cu	-0.071103	0.382166	0.601443
Cu17	Cu	-0.571112	-0.117843	-0.100942
Cu18	Cu	-0.071112	0.382157	0.399058
O19	O	-0.567373	-0.252140	0.085806
O20	O	-0.067373	0.247860	0.585806
C21	C	-0.482739	-0.125867	0.000210
C22	C	0.017261	0.374133	0.500210
C23	C	-0.429078	-0.124834	0.000185
C24	C	0.070922	0.375166	0.500185
N25	N	-0.571100	-0.117827	0.243790
N26	N	-0.071100	0.382173	0.743790
C27	C	-0.045885	-0.117352	-0.093054
C28	C	0.454115	0.382648	0.406946
C29	C	-0.247562	-0.121289	-0.093080
C30	C	0.252438	0.378711	0.406920
O31	O	-0.273641	-0.121764	-0.172417
O32	O	0.226359	0.378236	0.327583
N33	N	-0.272781	-0.121777	0.000203
N34	N	0.227219	0.378223	0.500203
C35	C	-0.247577	-0.121275	0.093500
C36	C	0.252423	0.378725	0.593500
O37	O	-0.273655	-0.121772	0.172842
O38	O	0.226345	0.378228	0.672842
C39	C	-0.045902	-0.117332	0.093524
C40	C	0.454098	0.382668	0.593524
C41	C	-0.020685	-0.116853	0.000235
C42	C	0.479315	0.383147	0.500235
C43	C	-0.020669	-0.116872	-0.186336
C44	C	0.479331	0.383128	0.313664
C45	C	0.029748	-0.115893	-0.186328
C46	C	0.529748	0.384107	0.313672
C47	C	0.054948	-0.115394	-0.093039
C48	C	0.554948	0.384606	0.406961
C49	C	0.029731	-0.115874	0.000242
C50	C	0.529731	0.384126	0.500242
C51	C	-0.020700	-0.116824	0.186819
C52	C	0.479300	0.383176	0.686819
C53	C	0.029722	-0.115835	0.186817
C54	C	0.529722	0.384165	0.686817
C55	C	0.054939	-0.115356	0.093528
C56	C	0.554939	0.384644	0.593528
C57	C	0.105348	-0.114396	0.093539
C58	C	0.605348	0.385604	0.593539
N59	N	0.130566	-0.113908	0.000256
N60	N	0.630566	0.386092	0.500256
C61	C	0.105366	-0.114407	-0.093034
C62	C	0.605366	0.385593	0.406966
C63	C	-0.353460	-0.123347	0.093480
C64	C	0.146540	0.376653	0.593480
C65	C	-0.403878	-0.124335	0.093474
C66	C	0.096122	0.375665	0.593474
C67	C	-0.403860	-0.124347	-0.093106
C68	C	0.096140	0.375653	0.406894
C69	C	-0.353440	-0.123366	-0.093099
C70	C	0.146560	0.376634	0.406901
C71	C	-0.328241	-0.122859	0.000197
C72	C	0.171759	0.377141	0.500197
C73	C	0.211244	-0.112352	-0.093011
C74	C	0.711244	0.387648	0.406989
C75	C	0.261666	-0.111376	-0.092995
C76	C	0.761666	0.388624	0.407005
C77	C	0.261643	-0.111360	0.093584
C78	C	0.761643	0.388640	0.593584
C79	C	0.211226	-0.112340	0.093569
C80	C	0.711226	0.387660	0.593569
C81	C	0.186028	-0.112833	0.000263
C82	C	0.686028	0.387167	0.500263
O83	O	0.131457	-0.113910	0.172834
O84	O	0.631457	0.386090	0.672834
O85	O	0.131452	-0.113890	-0.172364
O86	O	0.631452	0.386110	0.327636
C87	C	-0.096302	-0.118331	-0.093061
C88	C	0.403698	0.381669	0.406939
C89	C	-0.121518	-0.118811	0.000220
C90	C	0.378482	0.381189	0.500220
C91	C	-0.096318	-0.118312	0.093509
C92	C	0.403682	0.381688	0.593509
C93	C	-0.171937	-0.119799	0.000214
C94	C	0.328063	0.380201	0.500214
C95	C	-0.197137	-0.120298	-0.093075
C96	C	0.302863	0.379702	0.406925
C97	C	-0.171918	-0.119810	-0.186358
C98	C	0.328082	0.380190	0.313642
C99	C	-0.121502	-0.118830	-0.186351
C100	C	0.378498	0.381170	0.313649
C101	C	-0.121537	-0.118801	0.186793
C102	C	0.378463	0.381199	0.686793
C103	C	-0.171953	-0.119781	0.186778
C104	C	0.328047	0.380219	0.686778
C105	C	-0.197153	-0.120280	0.093489
C106	C	0.302847	0.379720	0.593489
C107	C	-0.574490	0.050820	0.000261
C108	C	-0.074490	0.550820	0.500261
C109	C	-0.573448	0.153183	0.000261
C110	C	-0.073448	0.653183	0.500261
C111	C	0.340525	-0.109819	0.000286
C112	C	0.840525	0.390181	0.500286
C113	C	0.286866	-0.110877	0.000294
C114	C	0.786866	0.389123	0.500294
C115	C	-0.567724	-0.286497	0.000237
C116	C	-0.067724	0.213503	0.500237
C117	C	-0.568766	-0.388860	0.000230
C118	C	-0.068766	0.111140	0.500230
C119	C	-0.569612	0.528010	0.000233
C120	C	-0.069612	1.028010	0.500233
C121	C	-0.570677	0.423721	0.000241
C122	C	-0.070677	0.923721	0.500241
C123	C	-0.571530	0.340600	0.000248
C124	C	-0.071530	0.840600	0.500248
C125	C	-0.572596	0.236304	0.000255
C126	C	-0.072596	0.736304	0.500255
N127	N	-0.571119	-0.117843	-0.243289
N128	N	-0.071119	0.382157	0.256711
C129	C	-0.571111	-0.117844	0.663605
C130	C	-0.071111	0.382156	1.163605
C131	C	-0.571107	-0.117842	0.546799
C132	C	-0.071107	0.382158	1.046799
C133	C	-0.571106	-0.117836	0.453701
C134	C	-0.071106	0.382164	0.953701
C135	C	-0.571101	-0.117833	0.336889
C136	C	-0.071101	0.382167	0.836889
H137	H	0.282195	-0.110989	-0.168966
H138	H	0.782195	0.389011	0.331034
O139	O	0.056939	-0.115368	-0.286952
O140	O	0.556939	0.384632	0.213048
H141	H	0.096234	-0.114607	-0.271292
H142	H	0.596234	0.385393	0.228708
O143	O	-0.094331	-0.118310	0.287386
O144	O	0.405669	0.381690	0.787386
H145	H	-0.108246	-0.055635	0.332178
H146	H	0.391754	0.444365	0.832178
O147	O	0.184069	-0.112877	-0.193644
O148	O	0.684069	0.387123	0.306356
H149	H	0.165351	-0.176198	-0.198117
H150	H	0.665351	0.323802	0.301883
O151	O	-0.326244	-0.122820	-0.193715
O152	O	0.173756	0.377180	0.306285
H153	H	-0.352244	-0.123322	-0.258580
H154	H	0.147756	0.376678	0.241420
O155	O	0.184023	-0.112866	0.194182
O156	O	0.684023	0.387134	0.694182
H157	H	0.189438	-0.049792	0.238915
H158	H	0.689438	0.450208	0.738915
H159	H	0.282170	-0.110957	0.169537
H160	H	0.782170	0.389043	0.669537
O161	O	-0.431044	-0.124868	-0.193729
O162	O	0.068956	0.375132	0.306271
H163	H	-0.470340	-0.125624	-0.178051
H164	H	0.029660	0.374376	0.321949
H165	H	-0.041182	-0.117276	-0.262307
H166	H	0.458818	0.382724	0.237693
O167	O	-0.199109	-0.120341	-0.286974
O168	O	0.300891	0.379659	0.213026
H169	H	-0.185180	-0.183037	-0.331717
H170	H	0.314820	0.316963	0.168283
O171	O	-0.431072	-0.124882	0.194092
O172	O	0.068928	0.375118	0.694092
H173	H	-0.405074	-0.124367	0.258957
H174	H	0.094926	0.375633	0.758957
H175	H	-0.332948	-0.122932	0.169457
H176	H	0.167052	0.377068	0.669457
O177	O	-0.047889	-0.117366	0.287439
O178	O	0.452111	0.382634	0.787439
H179	H	-0.021888	-0.116852	0.352299
H180	H	0.478112	0.383148	0.852299
O181	O	0.056997	-0.115413	0.287337
O182	O	0.556997	0.384587	0.787337
H183	H	0.043144	-0.052762	0.332232
H184	H	0.543144	0.447238	0.832232
O185	O	-0.094309	-0.118279	-0.286969
O186	O	0.405691	0.381721	0.213031
H187	H	-0.120310	-0.118772	-0.351831
H188	H	0.379690	0.381228	0.148169
O189	O	-0.199148	-0.120319	0.287403
O190	O	0.300852	0.379681	0.787403
H191	H	-0.173150	-0.119806	0.352268
H192	H	0.326850	0.380194	0.852268
