data_functionalizedCrystal
_audit_creation_method	'MofGen! by Chris Wilmer'
_symmetry_space_group_name_H-M	'P1'
_symmetry_Int_Tables_number	1
_symmetry_cell_setting	triclinic
loop_
_symmetry_equiv_pos_as_xyz
  x,y,z
_cell_length_a	29.839131
_cell_length_b	25.639243
_cell_length_c	25.639233
_cell_angle_alpha	89.984038
_cell_angle_beta	89.980415
_cell_angle_gamma	90.044144
loop_
_atom_site_label
_atom_site_type_symbol
_atom_site_fract_x
_atom_site_fract_y
_atom_site_fract_z
Zn1	Zn	-0.178875	0.799215	-0.295653
Zn2	Zn	0.071125	1.049215	-0.045653
Zn3	Zn	0.321125	1.299215	0.204347
Zn4	Zn	0.571125	1.549215	0.454347
Zn5	Zn	-0.253990	0.799134	-0.208216
Zn6	Zn	-0.003990	1.049134	0.041784
Zn7	Zn	0.246010	1.299134	0.291784
Zn8	Zn	0.496010	1.549134	0.541784
Zn9	Zn	-0.178878	0.711791	-0.208226
Zn10	Zn	0.071122	0.961791	0.041774
Zn11	Zn	0.321122	1.211791	0.291774
Zn12	Zn	0.571122	1.461791	0.541774
Zn13	Zn	-0.253983	0.711732	-0.295615
Zn14	Zn	-0.003983	0.961732	-0.045615
Zn15	Zn	0.246017	1.211732	0.204385
Zn16	Zn	0.496017	1.461732	0.454385
O17	O	-0.216432	0.755468	-0.251927
O18	O	0.033568	1.005468	-0.001927
O19	O	0.283568	1.255468	0.248073
O20	O	0.533568	1.505468	0.498073
O21	O	-0.188841	0.872370	-0.284065
O22	O	0.061159	1.122370	-0.034065
O23	O	0.311159	1.372370	0.215935
O24	O	0.561159	1.622370	0.465935
O25	O	-0.244030	0.787539	-0.135052
O26	O	0.005970	1.037539	0.114948
O27	O	0.255970	1.287539	0.364948
O28	O	0.505970	1.537539	0.614948
O29	O	-0.116011	0.723447	-0.219844
O30	O	0.133989	0.973447	0.030156
O31	O	0.383989	1.223447	0.280156
O32	O	0.633989	1.473447	0.530156
O33	O	-0.244028	0.872310	-0.219826
O34	O	0.005972	1.122310	0.030174
O35	O	0.255972	1.372310	0.280174
O36	O	0.505972	1.622310	0.530174
O37	O	-0.116009	0.787677	-0.284075
O38	O	0.133991	1.037677	-0.034075
O39	O	0.383991	1.287677	0.215925
O40	O	0.633991	1.537677	0.465925
O41	O	-0.188846	0.723369	-0.135060
O42	O	0.061154	0.973369	0.114940
O43	O	0.311154	1.223369	0.364940
O44	O	0.561154	1.473369	0.614940
O45	O	-0.188839	0.638618	-0.219807
O46	O	0.061161	0.888618	0.030193
O47	O	0.311161	1.138618	0.280193
O48	O	0.561161	1.388618	0.530193
O49	O	-0.244015	0.723346	-0.368785
O50	O	0.005985	0.973346	-0.118785
O51	O	0.255985	1.223346	0.131215
O52	O	0.505985	1.473346	0.381215
O53	O	-0.244018	0.638575	-0.284011
O54	O	0.005982	0.888575	-0.034011
O55	O	0.255982	1.138575	0.215989
O56	O	0.505982	1.388575	0.465989
O57	O	-0.188834	0.787619	-0.368813
O58	O	0.061166	1.037619	-0.118813
O59	O	0.311166	1.287619	0.131187
O60	O	0.561166	1.537619	0.381187
O61	O	-0.316856	0.787482	-0.219789
O62	O	-0.066856	1.037482	0.030211
O63	O	0.183144	1.287482	0.280211
O64	O	0.433144	1.537482	0.530211
O65	O	-0.316851	0.723268	-0.284001
O66	O	-0.066851	0.973268	-0.034001
O67	O	0.183149	1.223268	0.215999
O68	O	0.433149	1.473268	0.465999
C69	C	-0.216428	0.619626	-0.251907
C70	C	0.033572	0.869626	-0.001907
C71	C	0.283572	1.119626	0.248093
C72	C	0.533572	1.369626	0.498093
C73	C	-0.216438	0.561512	-0.251910
C74	C	0.033562	0.811512	-0.001910
C75	C	0.283562	1.061512	0.248090
C76	C	0.533562	1.311512	0.498090
C77	C	-0.187741	0.201174	-0.285433
C78	C	0.062259	0.451174	-0.035433
C79	C	0.312259	0.701174	0.214567
C80	C	0.562259	0.951174	0.464567
C81	C	-0.187741	0.146570	-0.285436
C82	C	0.062259	0.396570	-0.035436
C83	C	0.312259	0.646570	0.214564
C84	C	0.562259	0.896570	0.464564
O85	O	-0.163333	0.118354	-0.313912
O86	O	0.086667	0.368354	-0.063912
O87	O	0.336667	0.618354	0.186088
O88	O	0.586667	0.868354	0.436088
N89	N	-0.216430	0.119229	-0.251942
N90	N	0.033570	0.369229	-0.001942
N91	N	0.283570	0.619229	0.248058
N92	N	0.533570	0.869229	0.498058
C93	C	-0.245119	0.146496	-0.218438
C94	C	0.004881	0.396496	0.031562
C95	C	0.254881	0.646496	0.281562
C96	C	0.504881	0.896496	0.531562
O97	O	-0.269521	0.118227	-0.189949
O98	O	-0.019521	0.368227	0.060051
O99	O	0.230479	0.618227	0.310051
O100	O	0.480479	0.868227	0.560051
C101	C	-0.245116	0.201099	-0.218433
C102	C	0.004884	0.451099	0.031567
C103	C	0.254884	0.701099	0.281567
C104	C	0.504884	0.951099	0.531567
C105	C	-0.216428	0.228437	-0.251933
C106	C	0.033572	0.478437	-0.001933
C107	C	0.283572	0.728437	0.248067
C108	C	0.533572	0.978437	0.498067
C109	C	-0.159055	0.228512	-0.318930
C110	C	0.090945	0.478512	-0.068930
C111	C	0.340945	0.728512	0.181070
C112	C	0.590945	0.978512	0.431070
C113	C	-0.159056	0.283112	-0.318927
C114	C	0.090944	0.533112	-0.068927
C115	C	0.340944	0.783112	0.181073
C116	C	0.590944	1.033112	0.431073
C117	C	-0.187743	0.310375	-0.285427
C118	C	0.062257	0.560375	-0.035427
C119	C	0.312257	0.810375	0.214573
C120	C	0.562257	1.060375	0.464573
C121	C	-0.216429	0.283037	-0.251930
C122	C	0.033571	0.533037	-0.001930
C123	C	0.283571	0.783037	0.248070
C124	C	0.533571	1.033037	0.498070
C125	C	-0.273802	0.228365	-0.184927
C126	C	-0.023802	0.478365	0.065073
C127	C	0.226198	0.728365	0.315073
C128	C	0.476198	0.978365	0.565073
C129	C	-0.273797	0.282972	-0.184925
C130	C	-0.023797	0.532972	0.065075
C131	C	0.226203	0.782972	0.315075
C132	C	0.476203	1.032972	0.565075
C133	C	-0.245109	0.310310	-0.218425
C134	C	0.004891	0.560310	0.031575
C135	C	0.254891	0.810310	0.281575
C136	C	0.504891	1.060310	0.531575
C137	C	-0.245118	0.364901	-0.218428
C138	C	0.004882	0.614901	0.031572
C139	C	0.254882	0.864901	0.281572
C140	C	0.504882	1.114901	0.531572
N141	N	-0.216428	0.392241	-0.251922
N142	N	0.033572	0.642241	-0.001922
N143	N	0.283572	0.892241	0.248078
N144	N	0.533572	1.142241	0.498078
C145	C	-0.187741	0.364978	-0.285422
C146	C	0.062259	0.614978	-0.035422
C147	C	0.312259	0.864978	0.214578
C148	C	0.562259	1.114978	0.464578
C149	C	-0.245121	0.031825	-0.218452
C150	C	0.004879	0.281825	0.031548
C151	C	0.254879	0.531825	0.281548
C152	C	0.504879	0.781825	0.531548
C153	C	-0.245125	-0.022777	-0.218460
C154	C	0.004875	0.227223	0.031540
C155	C	0.254875	0.477223	0.281540
C156	C	0.504875	0.727223	0.531540
C157	C	-0.187747	-0.022700	-0.285457
C158	C	0.062253	0.227300	-0.035457
C159	C	0.312253	0.477300	0.214543
C160	C	0.562253	0.727300	0.464543
C161	C	-0.187745	0.031904	-0.285451
C162	C	0.062255	0.281904	-0.035451
C163	C	0.312255	0.531904	0.214549
C164	C	0.562255	0.781904	0.464549
C165	C	-0.216431	0.059166	-0.251946
C166	C	0.033569	0.309166	-0.001946
C167	C	0.283569	0.559166	0.248054
C168	C	0.533569	0.809166	0.498054
C169	C	-0.187746	0.479643	-0.285414
C170	C	0.062254	0.729643	-0.035414
C171	C	0.312254	0.979643	0.214586
C172	C	0.562254	1.229643	0.464586
C173	C	-0.187751	0.534249	-0.285410
C174	C	0.062249	0.784249	-0.035410
C175	C	0.312249	1.034249	0.214590
C176	C	0.562249	1.284249	0.464590
C177	C	-0.245127	0.534167	-0.218411
C178	C	0.004873	0.784167	0.031589
C179	C	0.254873	1.034167	0.281589
C180	C	0.504873	1.284167	0.531589
C181	C	-0.245124	0.479566	-0.218417
C182	C	0.004876	0.729566	0.031583
C183	C	0.254876	0.979566	0.281583
C184	C	0.504876	1.229566	0.531583
C185	C	-0.216430	0.452306	-0.251920
C186	C	0.033570	0.702306	-0.001920
C187	C	0.283570	0.952306	0.248080
C188	C	0.533570	1.202306	0.498080
O189	O	-0.269511	0.393151	-0.189965
O190	O	-0.019511	0.643151	0.060035
O191	O	0.230489	0.893151	0.310035
O192	O	0.480489	1.143151	0.560035
O193	O	-0.163339	0.393254	-0.313902
O194	O	0.086661	0.643254	-0.063902
O195	O	0.336661	0.893254	0.186098
O196	O	0.586661	1.143254	0.436098
C197	C	-0.333154	0.755374	-0.251902
C198	C	-0.083154	1.005374	-0.001902
C199	C	0.166846	1.255374	0.248098
C200	C	0.416846	1.505374	0.498098
C201	C	-0.383089	0.755381	-0.251908
C202	C	-0.133089	1.005381	-0.001908
C203	C	0.116911	1.255381	0.248092
C204	C	0.366911	1.505381	0.498092
C205	C	-0.692722	0.788965	-0.218541
C206	C	-0.442722	1.038965	0.031459
C207	C	-0.192722	1.288965	0.281459
C208	C	0.057278	1.538965	0.531459
C209	C	-0.880395	0.789030	-0.218561
C210	C	-0.630395	1.039030	0.031439
C211	C	-0.380395	1.289030	0.281439
C212	C	-0.130395	1.539030	0.531439
O213	O	-0.904651	0.817509	-0.190172
O214	O	-0.654651	1.067509	0.059828
O215	O	-0.404651	1.317509	0.309828
O216	O	-0.154651	1.567509	0.559828
N217	N	-0.903874	0.755577	-0.251967
N218	N	-0.653874	1.005577	-0.001967
N219	N	-0.403874	1.255577	0.248033
N220	N	-0.153874	1.505577	0.498033
C221	C	-0.880431	0.722108	-0.285372
C222	C	-0.630431	0.972108	-0.035372
C223	C	-0.380431	1.222108	0.214628
C224	C	-0.130431	1.472108	0.464628
O225	O	-0.904707	0.693659	-0.313790
O226	O	-0.654707	0.943659	-0.063790
O227	O	-0.404707	1.193659	0.186210
O228	O	-0.154707	1.443659	0.436210
C229	C	-0.692759	0.722046	-0.285354
C230	C	-0.442759	0.972046	-0.035354
C231	C	-0.192759	1.222046	0.214646
C232	C	0.057241	1.472046	0.464646
C233	C	-0.669283	0.755498	-0.251943
C234	C	-0.419283	1.005498	-0.001943
C235	C	-0.169283	1.255498	0.248057
C236	C	0.080717	1.505498	0.498057
C237	C	-0.669246	0.822415	-0.185133
C238	C	-0.419246	1.072415	0.064867
C239	C	-0.169246	1.322415	0.314867
C240	C	0.080754	1.572415	0.564867
C241	C	-0.622330	0.822396	-0.185126
C242	C	-0.372330	1.072396	0.064874
C243	C	-0.122330	1.322396	0.314874
C244	C	0.127670	1.572396	0.564874
C245	C	-0.598891	0.788928	-0.218528
C246	C	-0.348891	1.038928	0.031472
C247	C	-0.098891	1.288928	0.281472
C248	C	0.151109	1.538928	0.531472
C249	C	-0.622367	0.755479	-0.251936
C250	C	-0.372367	1.005479	-0.001936
C251	C	-0.122367	1.255479	0.248064
C252	C	0.127633	1.505479	0.498064
C253	C	-0.669317	0.688580	-0.318761
C254	C	-0.419317	0.938580	-0.068761
C255	C	-0.169317	1.188580	0.181239
C256	C	0.080683	1.438580	0.431239
C257	C	-0.622396	0.688568	-0.318755
C258	C	-0.372396	0.938568	-0.068755
C259	C	-0.122396	1.188568	0.181245
C260	C	0.127604	1.438568	0.431245
C261	C	-0.598920	0.722020	-0.285344
C262	C	-0.348920	0.972020	-0.035344
C263	C	-0.098920	1.222020	0.214656
C264	C	0.151080	1.472020	0.464656
C265	C	-0.552012	0.721993	-0.285331
C266	C	-0.302012	0.971993	-0.035331
C267	C	-0.052012	1.221993	0.214669
C268	C	0.197988	1.471993	0.464669
N269	N	-0.528534	0.755446	-0.251925
N270	N	-0.278534	1.005446	-0.001925
N271	N	-0.028534	1.255446	0.248075
N272	N	0.221466	1.505446	0.498075
C273	C	-0.551973	0.788914	-0.218524
C274	C	-0.301973	1.038914	0.031476
C275	C	-0.051973	1.288914	0.281476
C276	C	0.198027	1.538914	0.531476
C277	C	-0.978962	0.722142	-0.285378
C278	C	-0.728962	0.972142	-0.035378
C279	C	-0.478962	1.222142	0.214622
C280	C	-0.228962	1.472142	0.464622
C281	C	-1.025879	0.722156	-0.285382
C282	C	-0.775879	0.972156	-0.035382
C283	C	-0.525879	1.222156	0.214618
C284	C	-0.275879	1.472156	0.464618
C285	C	-1.025840	0.789079	-0.218572
C286	C	-0.775840	1.039079	0.031428
C287	C	-0.525840	1.289079	0.281428
C288	C	-0.275840	1.539079	0.531428
C289	C	-0.978922	0.789062	-0.218566
C290	C	-0.728922	1.039062	0.031434
C291	C	-0.478922	1.289062	0.281434
C292	C	-0.228922	1.539062	0.531434
C293	C	-0.955483	0.755595	-0.251973
C294	C	-0.705483	1.005595	-0.001973
C295	C	-0.455483	1.255595	0.248027
C296	C	-0.205483	1.505595	0.498027
C297	C	-0.453447	0.788872	-0.218512
C298	C	-0.203447	1.038872	0.031488
C299	C	0.046553	1.288872	0.281488
C300	C	0.296553	1.538872	0.531488
C301	C	-0.406528	0.788849	-0.218506
C302	C	-0.156528	1.038849	0.031494
C303	C	0.093472	1.288849	0.281494
C304	C	0.343472	1.538849	0.531494
C305	C	-0.406571	0.721928	-0.285318
C306	C	-0.156571	0.971928	-0.035318
C307	C	0.093429	1.221928	0.214682
C308	C	0.343429	1.471928	0.464682
C309	C	-0.453487	0.721949	-0.285322
C310	C	-0.203487	0.971949	-0.035322
C311	C	0.046513	1.221949	0.214678
C312	C	0.296513	1.471949	0.464678
C313	C	-0.476924	0.755425	-0.251917
C314	C	-0.226924	1.005425	-0.001917
C315	C	0.023076	1.255425	0.248083
C316	C	0.273076	1.505425	0.498083
O317	O	-0.527727	0.693533	-0.313709
O318	O	-0.277727	0.943533	-0.063709
O319	O	-0.027727	1.193533	0.186291
O320	O	0.222273	1.443533	0.436291
O321	O	-0.527689	0.817366	-0.190118
O322	O	-0.277689	1.067366	0.059882
O323	O	-0.027689	1.317366	0.309882
O324	O	0.222311	1.567366	0.559882
C325	C	-0.739637	0.788984	-0.218548
C326	C	-0.489637	1.038984	0.031452
C327	C	-0.239637	1.288984	0.281452
C328	C	0.010363	1.538984	0.531452
C329	C	-0.763114	0.755535	-0.251956
C330	C	-0.513114	1.005535	-0.001956
C331	C	-0.263114	1.255535	0.248044
C332	C	-0.013114	1.505535	0.498044
C333	C	-0.739674	0.722067	-0.285358
C334	C	-0.489674	0.972067	-0.035358
C335	C	-0.239674	1.222067	0.214642
C336	C	0.010326	1.472067	0.464642
C337	C	-0.810031	0.755549	-0.251960
C338	C	-0.560031	1.005549	-0.001960
C339	C	-0.310031	1.255549	0.248040
C340	C	-0.060031	1.505549	0.498040
C341	C	-0.833471	0.789017	-0.218559
C342	C	-0.583471	1.039017	0.031441
C343	C	-0.333471	1.289017	0.281441
C344	C	-0.083471	1.539017	0.531441
C345	C	-0.809992	0.822470	-0.185153
C346	C	-0.559992	1.072470	0.064847
C347	C	-0.309992	1.322470	0.314847
C348	C	-0.059992	1.572470	0.564847
C349	C	-0.763077	0.822452	-0.185146
C350	C	-0.513077	1.072452	0.064854
C351	C	-0.263077	1.322452	0.314854
C352	C	-0.013077	1.572452	0.564854
C353	C	-0.763153	0.688614	-0.318763
C354	C	-0.513153	0.938614	-0.068763
C355	C	-0.263153	1.188614	0.181237
C356	C	-0.013153	1.438614	0.431237
C357	C	-0.810068	0.688635	-0.318767
C358	C	-0.560068	0.938635	-0.068767
C359	C	-0.310068	1.188635	0.181233
C360	C	-0.060068	1.438635	0.431233
C361	C	-0.833508	0.722102	-0.285365
C362	C	-0.583508	0.972102	-0.035365
C363	C	-0.333508	1.222102	0.214635
C364	C	-0.083508	1.472102	0.464635
C365	C	-0.099253	0.755577	-0.251965
C366	C	0.150747	1.005577	-0.001965
C367	C	0.400747	1.255577	0.248035
C368	C	0.650747	1.505577	0.498035
C369	C	-0.049319	0.755624	-0.251981
C370	C	0.200681	1.005624	-0.001981
C371	C	0.450681	1.255624	0.248019
C372	C	0.700681	1.505624	0.498019
C373	C	-0.216424	0.755485	-0.388300
C374	C	0.033576	1.005485	-0.138300
C375	C	0.283576	1.255485	0.111700
C376	C	0.533576	1.505485	0.361700
C377	C	-0.216420	0.755492	-0.446415
C378	C	0.033580	1.005492	-0.196415
C379	C	0.283580	1.255492	0.053585
C380	C	0.533580	1.505492	0.303585
C381	C	-0.216435	0.891841	-0.251949
C382	C	0.033565	1.141841	-0.001949
C383	C	0.283565	1.391841	0.248051
C384	C	0.533565	1.641841	0.498051
C385	C	-0.216436	0.949955	-0.251958
C386	C	0.033564	1.199955	-0.001958
C387	C	0.283564	1.449955	0.248042
C388	C	0.533564	1.699955	0.498042
C389	C	-0.187602	0.789002	-0.806798
C390	C	0.062398	1.039002	-0.556798
C391	C	0.312398	1.289002	-0.306798
C392	C	0.562398	1.539002	-0.056798
C393	C	-0.187590	0.789008	-0.861402
C394	C	0.062410	1.039008	-0.611402
C395	C	0.312410	1.289008	-0.361402
C396	C	0.562410	1.539008	-0.111402
O397	O	-0.163141	0.817457	-0.889656
O398	O	0.086859	1.067457	-0.639656
O399	O	0.336859	1.317457	-0.389656
O400	O	0.586859	1.567457	-0.139656
N401	N	-0.216315	0.755550	-0.888697
N402	N	0.033685	1.005550	-0.638697
N403	N	0.283685	1.255550	-0.388697
N404	N	0.533685	1.505550	-0.138697
C405	C	-0.245051	0.722079	-0.861385
C406	C	0.004949	0.972079	-0.611385
C407	C	0.254949	1.222079	-0.361385
C408	C	0.504949	1.472079	-0.111385
O409	O	-0.269483	0.693621	-0.889616
O410	O	-0.019483	0.943621	-0.639616
O411	O	0.230517	1.193621	-0.389616
O412	O	0.480517	1.443621	-0.139616
C413	C	-0.245061	0.722071	-0.806782
C414	C	0.004939	0.972071	-0.556782
C415	C	0.254939	1.222071	-0.306782
C416	C	0.504939	1.472071	-0.056782
C417	C	-0.216337	0.755535	-0.779490
C418	C	0.033663	1.005535	-0.529490
C419	C	0.283663	1.255535	-0.279490
C420	C	0.533663	1.505535	-0.029490
C421	C	-0.158880	0.822463	-0.779505
C422	C	0.091120	1.072463	-0.529505
C423	C	0.341120	1.322463	-0.279505
C424	C	0.591120	1.572463	-0.029505
C425	C	-0.158893	0.822457	-0.724905
C426	C	0.091107	1.072457	-0.474905
C427	C	0.341107	1.322457	-0.224905
C428	C	0.591107	1.572457	0.025095
C429	C	-0.187628	0.788990	-0.697597
C430	C	0.062372	1.038990	-0.447597
C431	C	0.312372	1.288990	-0.197597
C432	C	0.562372	1.538990	0.052403
C433	C	-0.216350	0.755529	-0.724889
C434	C	0.033650	1.005529	-0.474889
C435	C	0.283650	1.255529	-0.224889
C436	C	0.533650	1.505529	0.025111
C437	C	-0.273795	0.688598	-0.779471
C438	C	-0.023795	0.938598	-0.529471
C439	C	0.226205	1.188598	-0.279471
C440	C	0.476205	1.438598	-0.029471
C441	C	-0.273802	0.688592	-0.724864
C442	C	-0.023802	0.938592	-0.474864
C443	C	0.226198	1.188592	-0.224864
C444	C	0.476198	1.438592	0.025136
C445	C	-0.245078	0.722056	-0.697571
C446	C	0.004922	0.972056	-0.447571
C447	C	0.254922	1.222056	-0.197571
C448	C	0.504922	1.472056	0.052429
C449	C	-0.245098	0.722056	-0.642980
C450	C	0.004902	0.972056	-0.392980
C451	C	0.254902	1.222056	-0.142980
C452	C	0.504902	1.472056	0.107020
N453	N	-0.216373	0.755514	-0.615685
N454	N	0.033627	1.005514	-0.365685
N455	N	0.283627	1.255514	-0.115685
N456	N	0.533627	1.505514	0.134315
C457	C	-0.187638	0.788981	-0.642993
C458	C	0.062362	1.038981	-0.392993
C459	C	0.312362	1.288981	-0.142993
C460	C	0.562362	1.538981	0.107007
C461	C	-0.245028	0.722100	-0.976056
C462	C	0.004972	0.972100	-0.726056
C463	C	0.254972	1.222100	-0.476056
C464	C	0.504972	1.472100	-0.226056
C465	C	-0.245021	0.722110	-1.030658
C466	C	0.004979	0.972110	-0.780658
C467	C	0.254979	1.222110	-0.530658
C468	C	0.504979	1.472110	-0.280658
C469	C	-0.187558	0.789039	-1.030671
C470	C	0.062442	1.039039	-0.780671
C471	C	0.312442	1.289039	-0.530671
C472	C	0.562442	1.539039	-0.280671
C473	C	-0.187568	0.789030	-0.976068
C474	C	0.062432	1.039030	-0.726068
C475	C	0.312432	1.289030	-0.476068
C476	C	0.562432	1.539030	-0.226068
C477	C	-0.216303	0.755558	-0.948761
C478	C	0.033697	1.005558	-0.698761
C479	C	0.283697	1.255558	-0.448761
C480	C	0.533697	1.505558	-0.198761
C481	C	-0.187668	0.788967	-0.528328
C482	C	0.062332	1.038967	-0.278328
C483	C	0.312332	1.288967	-0.028328
C484	C	0.562332	1.538967	0.221672
C485	C	-0.187685	0.788959	-0.473723
C486	C	0.062315	1.038959	-0.223723
C487	C	0.312315	1.288959	0.026277
C488	C	0.562315	1.538959	0.276277
C489	C	-0.245146	0.722029	-0.473714
C490	C	0.004854	0.972029	-0.223714
C491	C	0.254854	1.222029	0.026286
C492	C	0.504854	1.472029	0.276286
C493	C	-0.245130	0.722038	-0.528315
C494	C	0.004870	0.972038	-0.278315
C495	C	0.254870	1.222038	-0.028315
C496	C	0.504870	1.472038	0.221685
C497	C	-0.216388	0.755509	-0.555621
C498	C	0.033612	1.005509	-0.305621
C499	C	0.283612	1.255509	-0.055621
C500	C	0.533612	1.505509	0.194379
O501	O	-0.269534	0.693620	-0.614692
O502	O	-0.019534	0.943620	-0.364692
O503	O	0.230466	1.193620	-0.114692
O504	O	0.480466	1.443620	0.135308
O505	O	-0.163207	0.817430	-0.614756
O506	O	0.086793	1.067430	-0.364756
O507	O	0.336793	1.317430	-0.114756
O508	O	0.586793	1.567430	0.135244
C509	C	-0.216407	0.755482	-0.116085
C510	C	0.033593	1.005482	0.133915
C511	C	0.283593	1.255482	0.383915
C512	C	0.533593	1.505482	0.633915
C513	C	-0.216284	0.755576	-0.057971
C514	C	0.033716	1.005576	0.192029
C515	C	0.283716	1.255576	0.442029
C516	C	0.533716	1.505576	0.692029
H517	H	-0.268490	0.457307	-0.191145
H518	H	-0.018490	0.707307	0.058855
H519	H	0.231510	0.957307	0.308855
H520	H	0.481510	1.207307	0.558855
H521	H	-0.387479	0.694677	-0.312512
H522	H	-0.137479	0.944677	-0.062512
H523	H	0.112521	1.194677	0.187488
H524	H	0.362521	1.444677	0.437488
Br525	Br	-0.947159	0.676717	-0.330721
Br526	Br	-0.697159	0.926717	-0.080721
Br527	Br	-0.447159	1.176717	0.169279
Br528	Br	-0.197159	1.426717	0.419279
Br529	Br	-0.701165	0.643184	-0.364114
Br530	Br	-0.451165	0.893184	-0.114114
Br531	Br	-0.201165	1.143184	0.135886
Br532	Br	0.048835	1.393184	0.385886
H533	H	-0.164383	0.054158	-0.312729
H534	H	0.085617	0.304158	-0.062729
H535	H	0.335617	0.554158	0.187271
H536	H	0.585617	0.804158	0.437271
Br537	Br	-0.284066	-0.059871	-0.173000
Br538	Br	-0.034066	0.190129	0.077000
Br539	Br	0.215934	0.440129	0.327000
Br540	Br	0.465934	0.690129	0.577000
H541	H	-0.297163	0.206116	-0.157647
H542	H	-0.047163	0.456116	0.092353
H543	H	0.202837	0.706116	0.342353
H544	H	0.452837	0.956116	0.592353
Br545	Br	-0.312732	0.319967	-0.139451
Br546	Br	-0.062732	0.569967	0.110549
Br547	Br	0.187268	0.819967	0.360549
Br548	Br	0.437268	1.069967	0.610549
H549	H	-0.135692	0.206320	-0.346209
H550	H	0.114308	0.456320	-0.096209
H551	H	0.364308	0.706320	0.153791
H552	H	0.614308	0.956320	0.403791
Br553	Br	-0.312782	0.643182	-0.816496
Br554	Br	-0.062782	0.893182	-0.566496
Br555	Br	0.187218	1.143182	-0.316496
Br556	Br	0.437218	1.393182	-0.066496
H557	H	-0.268485	0.054019	-0.191169
H558	H	-0.018485	0.304019	0.058831
H559	H	0.231515	0.554019	0.308831
H560	H	0.481515	0.804019	0.558831
H561	H	-0.268485	0.556374	-0.191138
H562	H	-0.018485	0.806374	0.058862
H563	H	0.231515	1.056374	0.308862
H564	H	0.481515	1.306374	0.558862
Br565	Br	-0.148585	0.834447	-0.939034
Br566	Br	0.101415	1.084447	-0.689034
Br567	Br	0.351415	1.334447	-0.439034
Br568	Br	0.601415	1.584447	-0.189034
Br569	Br	-0.119906	0.867872	-0.687874
Br570	Br	0.130094	1.117872	-0.437874
Br571	Br	0.380094	1.367872	-0.187874
Br572	Br	0.630094	1.617872	0.062126
Br573	Br	-0.590589	0.643148	-0.364097
Br574	Br	-0.340589	0.893148	-0.114097
Br575	Br	-0.090589	1.143148	0.135903
Br576	Br	0.159411	1.393148	0.385903
Br577	Br	-0.284031	0.676672	-0.939001
Br578	Br	-0.034031	0.926672	-0.689001
Br579	Br	0.215969	1.176672	-0.439001
Br580	Br	0.465969	1.426672	-0.189001
H581	H	-0.387415	0.816089	-0.191297
H582	H	-0.137415	1.066089	0.058703
H583	H	0.112585	1.316089	0.308703
H584	H	0.362585	1.566089	0.558703
Br585	Br	-0.485248	0.834304	-0.173176
Br586	Br	-0.235248	1.084304	0.076824
Br587	Br	0.014752	1.334304	0.326824
Br588	Br	0.264752	1.584304	0.576824
H589	H	-0.603219	0.849637	-0.157921
H590	H	-0.353219	1.099637	0.092079
H591	H	-0.103219	1.349637	0.342079
H592	H	0.146781	1.599637	0.592079
Br593	Br	-0.485348	0.676538	-0.330653
Br594	Br	-0.235348	0.926538	-0.080653
Br595	Br	0.014652	1.176538	0.169347
Br596	Br	0.264652	1.426538	0.419347
Br597	Br	-0.731224	0.867854	-0.139801
Br598	Br	-0.481224	1.117854	0.110199
Br599	Br	-0.231224	1.367854	0.360199
Br600	Br	0.018776	1.617854	0.610199
H601	H	-0.164160	0.816288	-1.052916
H602	H	0.085840	1.066288	-0.802916
H603	H	0.335840	1.316288	-0.552916
H604	H	0.585840	1.566288	-0.302916
H605	H	-0.164387	-0.044907	-0.312733
H606	H	0.085613	0.205093	-0.062733
H607	H	0.335613	0.455093	0.187267
H608	H	0.585613	0.705093	0.437267
H609	H	-0.688325	0.849671	-0.157933
H610	H	-0.438325	1.099671	0.092067
H611	H	-0.188325	1.349671	0.342067
H612	H	0.061675	1.599671	0.592067
Br613	Br	-0.284141	0.676611	-0.436643
Br614	Br	-0.034141	0.926611	-0.186643
Br615	Br	0.215859	1.176611	0.063357
Br616	Br	0.465859	1.426611	0.313357
H617	H	-0.959810	0.816301	-0.191360
H618	H	-0.709810	1.066301	0.058640
H619	H	-0.459810	1.316301	0.308640
H620	H	-0.209810	1.566301	0.558640
H621	H	-0.829085	0.849719	-0.157955
H622	H	-0.579085	1.099719	0.092045
H623	H	-0.329085	1.349719	0.342045
H624	H	-0.079085	1.599719	0.592045
H625	H	-1.044932	0.816330	-0.191376
H626	H	-0.794932	1.066330	0.058624
H627	H	-0.544932	1.316330	0.308624
H628	H	-0.294932	1.566330	0.558624
H629	H	-1.044990	0.694912	-0.312584
H630	H	-0.794990	0.944912	-0.062584
H631	H	-0.544990	1.194912	0.187416
H632	H	-0.294990	1.444912	0.437416
Br633	Br	-0.841923	0.643230	-0.364114
Br634	Br	-0.591923	0.893230	-0.114114
Br635	Br	-0.341923	1.143230	0.135886
Br636	Br	-0.091923	1.393230	0.385886
H637	H	-0.135695	0.305366	-0.346205
H638	H	0.114305	0.555366	-0.096205
H639	H	0.364305	0.805366	0.153795
H640	H	0.614305	1.055366	0.403795
H641	H	-0.297197	0.661328	-0.702633
H642	H	-0.047197	0.911328	-0.452633
H643	H	0.202803	1.161328	-0.202633
H644	H	0.452803	1.411328	0.047367
Br645	Br	-0.284013	0.676703	-1.067691
Br646	Br	-0.034013	0.926703	-0.817691
Br647	Br	0.215987	1.176703	-0.567691
Br648	Br	0.465987	1.426703	-0.317691
Br649	Br	-0.148702	0.834380	-0.436686
Br650	Br	0.101298	1.084380	-0.186686
Br651	Br	0.351298	1.334380	0.063314
Br652	Br	0.601298	1.584380	0.313314
H653	H	-0.268524	0.694794	-0.550538
H654	H	-0.018524	0.944794	-0.300538
H655	H	0.231476	1.194794	-0.050538
H656	H	0.481476	1.444794	0.199462
Br657	Br	-0.148658	0.834388	-0.565377
Br658	Br	0.101342	1.084388	-0.315377
Br659	Br	0.351342	1.334388	-0.065377
Br660	Br	0.601342	1.584388	0.184623
Br661	Br	-0.148803	0.442656	-0.330882
Br662	Br	0.101197	0.692656	-0.080882
Br663	Br	0.351197	0.942656	0.169118
Br664	Br	0.601197	1.192656	0.419118
Br665	Br	-0.119883	0.867895	-0.816556
Br666	Br	0.130117	1.117895	-0.566556
Br667	Br	0.380117	1.367895	-0.316556
Br668	Br	0.630117	1.617895	-0.066556
H669	H	-0.164389	0.556505	-0.312691
H670	H	0.085611	0.806505	-0.062691
H671	H	0.335611	1.056505	0.187309
H672	H	0.585611	1.306505	0.437309
H673	H	-0.744072	0.661361	-0.345963
H674	H	-0.494072	0.911361	-0.095963
H675	H	-0.244072	1.161361	0.154037
H676	H	0.005928	1.411361	0.404037
