data_functionalizedCrystal
_audit_creation_method	'MofGen! by Chris Wilmer'
_symmetry_space_group_name_H-M	'P1'
_symmetry_Int_Tables_number	1
_symmetry_cell_setting	triclinic
loop_
_symmetry_equiv_pos_as_xyz
  x,y,z
_cell_length_a	17.699104
_cell_length_b	16.776229
_cell_length_c	17.699092
_cell_angle_alpha	90.004970
_cell_angle_beta	96.711057
_cell_angle_gamma	89.991137
loop_
_atom_site_label
_atom_site_type_symbol
_atom_site_fract_x
_atom_site_fract_y
_atom_site_fract_z
O1	O	-1.004071	0.066317	0.095788
O2	O	-0.783696	0.066311	0.108224
O3	O	-0.900106	0.066312	-0.008183
O4	O	-0.887661	0.066316	0.212194
O5	O	-0.900091	-0.066264	-0.008190
O6	O	-0.783680	-0.066265	0.108216
O7	O	-1.004056	-0.066260	0.095781
Zn8	Zn	-0.893866	-0.087312	0.101997
Zn9	Zn	-0.893886	0.087363	0.102007
O10	O	-0.887645	-0.066261	0.212187
C11	C	-0.755491	0.000022	0.107772
C12	C	-0.671474	0.000020	0.106427
N13	N	-0.893857	-0.206523	0.101990
C14	C	-0.899652	0.000025	-0.036383
C15	C	-0.898311	0.000029	-0.120401
C16	C	-0.146605	0.000021	0.167170
C17	C	-0.225548	0.000025	0.168430
C18	C	-0.274164	0.000024	0.100095
C19	C	-0.243832	0.000028	0.030496
C20	C	-0.164890	0.000031	0.029238
C21	C	-0.562198	0.000021	0.035569
C22	C	-0.641145	0.000016	0.036833
C23	C	-0.622857	0.000015	0.174761
C24	C	-0.543915	0.000017	0.173503
C25	C	-0.513590	0.000025	0.103905
C26	C	-0.427990	0.000023	0.102540
C27	C	-0.359762	0.000021	0.101458
C28	C	-0.032260	0.000027	0.096232
C29	C	-0.116278	0.000023	0.097577
C30	C	-0.945420	-0.248240	0.050467
C31	C	-0.945424	-0.331692	0.050466
C32	C	-0.893869	-0.373426	0.101993
C33	C	-0.842301	-0.331704	0.153519
C34	C	-0.842294	-0.248253	0.153516
C35	C	-0.842328	-0.668251	0.153534
C36	C	-0.842341	-0.751707	0.153535
C37	C	-0.945458	-0.751690	0.050485
C38	C	-0.945451	-0.668239	0.050481
C39	C	-0.893881	-0.626524	0.102004
C40	C	-0.893876	-0.536036	0.102003
C41	C	-0.893877	-0.463913	0.101998
N42	N	-0.893900	0.206575	0.102008
C43	C	-0.897691	0.072297	-0.159865
C44	C	-0.896426	0.072298	-0.238808
C45	C	-0.895786	0.000030	-0.278286
C46	C	-0.896404	-0.072244	-0.238817
C47	C	-0.897663	-0.072244	-0.159875
C48	C	-0.891324	-0.072245	-0.557182
C49	C	-0.890066	-0.072240	-0.636131
C50	C	-0.890086	0.072297	-0.636115
C51	C	-0.891345	0.072297	-0.557173
C52	C	-0.891959	0.000023	-0.517710
C53	C	-0.893329	0.000023	-0.432111
C54	C	-0.894421	0.000029	-0.363885
C55	C	-0.888100	0.000028	0.240387
C56	C	-0.889441	0.000029	0.324405
H57	H	-0.107027	0.000016	0.222817
C58	C	-0.655824	0.000182	0.250306
C59	C	-0.700601	0.068402	0.255075
C60	C	-0.730972	0.068587	0.324657
H61	H	-0.686286	-0.045995	0.253738
H62	H	-0.615583	0.000224	0.290844
H63	H	-0.740837	0.068353	0.214548
H64	H	-0.670156	0.114590	0.251656
H65	H	-0.690731	0.068628	0.365195
H66	H	-0.761430	0.022407	0.328084
H67	H	-0.761351	0.114876	0.327905
H68	H	-0.250236	0.000031	0.225099
H69	H	-0.891838	-0.131095	-0.525063
H70	H	-0.891870	0.131145	-0.525034
C71	C	-1.001381	-0.622809	-0.005410
C72	C	-1.047656	-0.574802	0.034748
C73	C	-1.099133	-0.532914	-0.016747
H74	H	-0.974161	-0.590256	-0.036828
H75	H	-1.032142	-0.659517	-0.036157
H76	H	-1.016899	-0.538097	0.065481
H77	H	-1.074892	-0.607334	0.066163
H78	H	-1.129894	-0.569623	-0.047493
H79	H	-1.071907	-0.500367	-0.048162
H80	H	-1.130541	-0.500343	0.010493
H81	H	-0.898216	0.131147	-0.127727
H82	H	-0.504335	0.000013	0.229148
C83	C	-0.786202	-0.376973	0.209374
C84	C	-0.711854	-0.356713	0.197169
C85	C	-0.660156	-0.398406	0.248602
H86	H	-0.794219	-0.363322	0.259912
H87	H	-0.793542	-0.432655	0.201993
H88	H	-0.704518	-0.301043	0.204556
H89	H	-0.703813	-0.370365	0.146641
H90	H	-0.667496	-0.454088	0.241221
H91	H	-0.668181	-0.384752	0.299137
H92	H	-0.609706	-0.384671	0.240323
H93	H	-0.889543	-0.131093	-0.668272
C94	C	-0.786266	-0.622920	0.209360
C95	C	-0.739990	-0.575041	0.169104
C96	C	-0.688332	-0.533273	0.220509
H97	H	-0.813346	-0.590291	0.240849
H98	H	-0.755522	-0.659700	0.240042
H99	H	-0.770730	-0.538265	0.138434
H100	H	-0.712893	-0.607651	0.137617
H101	H	-0.657589	-0.570053	0.251192
H102	H	-0.715419	-0.500649	0.251996
H103	H	-0.656924	-0.500788	0.193203
C104	C	-1.001380	-0.376877	-0.005589
C105	C	-0.989270	-0.356574	-0.079954
C106	C	-1.040815	-0.398172	-0.131613
H107	H	-0.994061	-0.432568	0.001680
H108	H	-1.051885	-0.363164	0.002536
H109	H	-0.938778	-0.370293	-0.088077
H110	H	-0.996596	-0.300891	-0.087248
H111	H	-1.091319	-0.384458	-0.123488
H112	H	-1.033491	-0.453860	-0.124337
H113	H	-1.032610	-0.384396	-0.182075
H114	H	-0.895878	-0.131086	-0.270966
H115	H	-0.800305	-0.214288	0.195471
C116	C	-1.001322	-0.797027	-0.005550
C117	C	-0.961098	-0.844934	-0.051849
C118	C	-1.012533	-0.886700	-0.103480
H119	H	-1.032797	-0.829636	0.021551
H120	H	-1.032016	-0.760245	-0.036281
H121	H	-0.930417	-0.881711	-0.021123
H122	H	-0.929626	-0.812344	-0.078967
H123	H	-1.043227	-0.849918	-0.134211
H124	H	-1.044005	-0.919305	-0.076373
H125	H	-0.985248	-0.919204	-0.134905
H126	H	-0.895924	0.131146	-0.270936
C127	C	-0.889553	0.150797	-0.678933
C128	C	-0.954959	0.194399	-0.668374
C129	C	-0.954495	0.266712	-0.707808
H130	H	-0.845693	0.180575	-0.660171
H131	H	-0.888745	0.140493	-0.731616
H132	H	-0.955760	0.204705	-0.615702
H133	H	-0.998829	0.164645	-0.687140
H134	H	-0.953687	0.256408	-0.760491
H135	H	-0.910632	0.296483	-0.689042
H136	H	-0.998875	0.296301	-0.700655
C137	C	-0.693805	0.000064	-0.037446
C138	C	-0.650352	0.000095	-0.098667
C139	C	-0.698835	0.000150	-0.167099
H140	H	-0.724990	-0.046157	-0.039936
H141	H	-0.724977	0.046314	-0.039852
H142	H	-0.619193	-0.046150	-0.096262
H143	H	-0.619169	0.046313	-0.096202
H144	H	-0.730008	0.046400	-0.169505
H145	H	-0.730018	-0.046072	-0.169581
H146	H	-0.669360	0.000179	-0.208645
C147	C	-0.529242	0.000189	-0.039972
C148	C	-0.484487	0.068412	-0.044734
C149	C	-0.454123	0.068600	-0.114320
H150	H	-0.498765	-0.045986	-0.043414
H151	H	-0.569485	0.000229	-0.080507
H152	H	-0.444249	0.068364	-0.004210
H153	H	-0.514947	0.114598	-0.041306
H154	H	-0.494366	0.068640	-0.154855
H155	H	-0.423650	0.022422	-0.117755
H156	H	-0.423759	0.114891	-0.117563
H157	H	-0.283421	0.000033	-0.025143
H158	H	-0.898157	-0.131092	-0.127743
C159	C	-0.132107	-0.000008	-0.046399
C160	C	-0.191577	-0.000030	-0.105975
C161	C	-0.161408	-0.000072	-0.175664
H162	H	-0.101712	0.046214	-0.049860
H163	H	-0.101704	-0.046257	-0.049803
H164	H	-0.221967	0.046214	-0.102574
H165	H	-0.221977	-0.046249	-0.102540
H166	H	-0.131005	-0.046320	-0.179068
H167	H	-0.131013	0.046151	-0.179117
H168	H	-0.201753	-0.000094	-0.216095
H169	H	-0.987405	-0.214265	0.008511
C170	C	-0.786273	-0.796877	0.209511
C171	C	-0.741092	-0.742484	0.254617
C172	C	-0.689431	-0.784065	0.306180
H173	H	-0.813350	-0.829422	0.241062
H174	H	-0.754787	-0.829427	0.182335
H175	H	-0.772574	-0.709948	0.281792
H176	H	-0.713999	-0.709938	0.223087
H177	H	-0.657945	-0.816615	0.279003
H178	H	-0.716514	-0.816609	0.337726
H179	H	-0.658765	-0.747166	0.336786
