data_functionalizedCrystal
_audit_creation_method	'MofGen! by Chris Wilmer'
_symmetry_space_group_name_H-M	'P1'
_symmetry_Int_Tables_number	1
_symmetry_cell_setting	triclinic
loop_
_symmetry_equiv_pos_as_xyz
  x,y,z
_cell_length_a	23.532407
_cell_length_b	22.010155
_cell_length_c	14.519709
_cell_angle_alpha	90.005419
_cell_angle_beta	83.264411
_cell_angle_gamma	90.010358
loop_
_atom_site_label
_atom_site_type_symbol
_atom_site_fract_x
_atom_site_fract_y
_atom_site_fract_z
O1	O	0.755774	0.050451	0.111947
O2	O	0.589984	0.050469	0.128145
O3	O	0.677275	0.050454	-0.014244
O4	O	0.668483	0.050466	0.254337
O5	O	0.677248	-0.050597	-0.014244
O6	O	0.589957	-0.050582	0.128145
O7	O	0.755748	-0.050600	0.111947
Cu8	Cu	0.672850	-0.059817	0.120046
Cu9	Cu	0.672881	0.059686	0.120046
O10	O	0.668457	-0.050585	0.254337
C11	C	0.568753	-0.000054	0.127733
C12	C	0.505530	-0.000048	0.126493
N13	N	0.672832	-0.143870	0.120046
C14	C	0.106772	-0.000072	0.202977
C15	C	0.047367	-0.000075	0.201825
O16	O	0.010942	-0.000094	0.272727
N17	N	0.024358	-0.000078	0.117175
C18	C	0.060759	-0.000083	0.033671
O19	O	0.035734	-0.000087	-0.038437
C20	C	0.120164	-0.000084	0.034824
C21	C	0.143168	-0.000075	0.119480
C22	C	0.129777	-0.000063	0.287626
C23	C	0.189179	-0.000059	0.288778
C24	C	0.225575	-0.000062	0.205281
C25	C	0.202570	-0.000070	0.120631
C26	C	0.156563	-0.000093	-0.048679
C27	C	0.215971	-0.000094	-0.047519
C28	C	0.238976	-0.000086	0.037137
C29	C	0.298367	-0.000069	0.038286
N30	N	0.321375	-0.000066	0.122936
C31	C	0.284979	-0.000062	0.206434
C32	C	-0.063994	-0.000083	0.031256
C33	C	-0.123397	-0.000078	0.030102
C34	C	-0.136786	-0.000072	0.198257
C35	C	-0.077382	-0.000072	0.199410
C36	C	-0.040986	-0.000080	0.115906
C37	C	0.409727	-0.000052	0.208846
C38	C	0.469134	-0.000044	0.209990
C39	C	0.482517	-0.000054	0.041836
C40	C	0.423115	-0.000058	0.040691
C41	C	0.386721	-0.000059	0.124204
O42	O	0.334827	-0.000052	-0.032579
O43	O	0.310012	-0.000067	0.278529
C44	C	0.707478	-0.563651	0.175686
C45	C	0.707485	-0.627258	0.175683
O46	O	0.736921	-0.660151	0.222985
N47	N	0.672892	-0.659077	0.120036
C48	C	0.638296	-0.627285	0.064379
O49	O	0.608873	-0.660190	0.017046
C50	C	0.638292	-0.563678	0.064377
C51	C	0.672882	-0.531863	0.120036
C52	C	0.742066	-0.531835	0.231339
C53	C	0.742058	-0.468232	0.231342
C54	C	0.707463	-0.436444	0.175693
C55	C	0.672875	-0.468260	0.120039
C56	C	0.603699	-0.531887	0.008717
C57	C	0.603699	-0.468276	0.008719
C58	C	0.638289	-0.436461	0.064378
C59	C	0.638272	-0.372869	0.064393
N60	N	0.672864	-0.341050	0.120041
C61	C	0.707459	-0.372838	0.175691
C62	C	0.638306	-0.760863	0.064387
C63	C	0.638306	-0.824468	0.064393
C64	C	0.707496	-0.824437	0.175696
C65	C	0.707492	-0.760831	0.175694
C66	C	0.672898	-0.729044	0.120034
C67	C	0.707440	-0.239266	0.175694
C68	C	0.707428	-0.175658	0.175695
C69	C	0.638240	-0.175694	0.064389
C70	C	0.638250	-0.239297	0.064391
C71	C	0.672855	-0.271082	0.120046
O72	O	0.608852	-0.339936	0.017113
O73	O	0.736882	-0.339925	0.223007
C74	C	0.776979	-0.000075	0.112360
C75	C	0.840201	-0.000078	0.113600
C76	C	0.676852	-0.000072	-0.048599
C77	C	0.675624	-0.000072	-0.150966
N78	N	0.672904	0.143739	0.120039
C79	C	0.671104	-0.000055	-0.525808
C80	C	0.672359	-0.000060	-0.421515
C81	C	0.673364	-0.000064	-0.338390
C82	C	0.674619	-0.000068	-0.234091
C83	C	0.668880	-0.000058	0.288692
C84	C	0.670107	-0.000054	0.391058
H85	H	0.487860	-0.000037	0.278930
H86	H	0.404384	-0.000057	-0.028243
C87	C	0.780115	-0.566792	0.292582
N88	N	0.808770	-0.593117	0.338726
C89	C	0.745548	-0.725840	0.236915
N90	N	0.774215	-0.699488	0.283027
C91	C	0.745484	-0.140664	0.236923
N92	N	0.774148	-0.114310	0.283035
C93	C	-0.148695	-0.000084	-0.063026
N94	N	-0.167747	-0.000093	-0.133174
H95	H	-0.034363	-0.000085	-0.036747
H96	H	0.735664	-0.850330	0.221010
H97	H	0.610132	-0.850367	0.019081
C98	C	0.745501	-0.274220	0.236927
N99	N	0.774165	-0.300547	0.283054
H100	H	0.380101	-0.000054	0.276850
C101	C	0.600239	-0.725903	0.003165
N102	N	0.571567	-0.699574	-0.042946
H103	H	0.245602	-0.000102	-0.115519
H104	H	0.575533	-0.557780	-0.036608
H105	H	0.575528	-0.442399	-0.036607
C106	C	0.522564	-0.000065	-0.050007
N107	N	0.552729	-0.000080	-0.119183
C108	C	0.780117	-0.433243	0.292560
N109	N	0.808789	-0.406894	0.338668
H110	H	0.610077	-0.265203	0.019081
C111	C	0.600279	-0.140715	0.003028
N112	N	0.571723	-0.114368	-0.043249
H113	H	0.100149	-0.000063	0.355624
C114	C	0.214475	-0.000062	0.381907
N115	N	0.233525	-0.000069	0.452057
C116	C	0.131272	-0.000115	-0.141809
N117	N	0.112224	-0.000137	-0.211960
H118	H	-0.166431	-0.000072	0.266245
C119	C	-0.052083	-0.000069	0.292537
N120	N	-0.033031	-0.000069	0.362684
