data_functionalizedCrystal
_audit_creation_method	'MofGen! by Chris Wilmer'
_symmetry_space_group_name_H-M	'P1'
_symmetry_Int_Tables_number	1
_symmetry_cell_setting	triclinic
loop_
_symmetry_equiv_pos_as_xyz
  x,y,z
_cell_length_a	11.792241
_cell_length_b	23.532407
_cell_length_c	10.268362
_cell_angle_alpha	89.990068
_cell_angle_beta	89.999626
_cell_angle_gamma	83.521047
loop_
_atom_site_label
_atom_site_type_symbol
_atom_site_fract_x
_atom_site_fract_y
_atom_site_fract_z
O1	O	1.505071	0.078055	-0.108188
O2	O	1.174541	0.086099	-0.108220
O3	O	1.349773	-0.000795	-0.108179
O4	O	1.329839	0.164950	-0.108229
O5	O	1.349758	-0.000799	0.108421
O6	O	1.174526	0.086096	0.108380
O7	O	1.505056	0.078051	0.108412
Cu8	Cu	1.339790	0.082073	0.128174
Cu9	Cu	1.339808	0.082078	-0.127982
O10	O	1.329824	0.164946	0.108372
C11	C	1.132254	0.085592	0.000076
C12	C	1.006276	0.084080	0.000065
C13	C	0.775630	0.081299	0.000104
C14	C	0.903978	0.082844	0.000082
C15	C	1.349258	-0.022016	0.000124
C16	C	1.347732	-0.085242	0.000134
C17	C	1.441858	-0.483788	0.000072
C18	C	1.440440	-0.543196	0.000062
O19	O	1.527696	-0.579424	0.000022
N20	N	1.336265	-0.566440	0.000053
C21	C	1.233500	-0.530271	0.000040
O22	O	1.144761	-0.555497	0.000030
C23	C	1.234919	-0.470864	0.000041
C24	C	1.339102	-0.447624	0.000063
C25	C	1.546032	-0.460547	0.000093
C26	C	1.547449	-0.401142	0.000105
C27	C	1.444693	-0.364979	0.000097
C28	C	1.340519	-0.388219	0.000076
C29	C	1.132156	-0.434696	0.000019
C30	C	1.133584	-0.375285	0.000019
C31	C	1.237766	-0.352045	0.000041
C32	C	1.239180	-0.292651	0.000080
N33	N	1.343355	-0.269407	0.000089
C34	C	1.446112	-0.305571	0.000097
C35	C	1.230528	-0.655031	0.000036
C36	C	1.229108	-0.714438	0.000045
C37	C	1.436049	-0.727359	0.000064
C38	C	1.437468	-0.667951	0.000065
C39	C	1.334704	-0.631788	0.000046
C40	C	1.449080	-0.180817	0.000125
C41	C	1.450489	-0.121406	0.000142
C42	C	1.243549	-0.108491	0.000117
C43	C	1.242140	-0.167896	0.000106
C44	C	1.344915	-0.204058	0.000105
O45	O	1.151970	-0.256388	0.000114
O46	O	1.534837	-0.280337	0.000090
C47	C	1.547343	0.078558	0.000113
C48	C	1.673321	0.080071	0.000115
C49	C	1.330339	0.186167	0.000065
C50	C	1.331865	0.249393	0.000047
N51	N	1.339786	0.082070	0.308340
N52	N	1.339821	0.082076	-0.308148
C53	C	1.339802	0.082076	0.574010
C54	C	1.339789	0.082074	0.426172
H55	H	1.535330	-0.102488	0.000164
C56	C	1.653776	-0.187605	0.000163
C57	C	1.562052	-0.220560	0.000135
H58	H	1.723517	-0.212142	0.000184
H59	H	1.650028	-0.164160	-0.075364
H60	H	1.649997	-0.164170	0.075703
H61	H	1.565826	-0.243993	-0.075410
H62	H	1.565801	-0.244015	0.075670
H63	H	1.049899	-0.345843	0.000001
H64	H	1.047320	-0.453608	-0.000007
C65	C	1.037731	-0.149154	0.000074
C66	C	1.127623	-0.193445	0.000079
H67	H	0.967034	-0.164925	0.000038
H68	H	1.042576	-0.126266	0.075617
H69	H	1.042612	-0.126238	-0.075451
H70	H	1.122747	-0.216358	0.075610
H71	H	1.122776	-0.216342	-0.075471
C72	C	1.112048	-0.580736	0.111380
C73	C	1.117562	-0.615281	0.000035
H74	H	1.042310	-0.556196	0.111370
H75	H	1.115793	-0.604187	0.186898
H76	H	1.174293	-0.558390	0.111371
H77	H	1.055321	-0.637630	0.000049
H78	H	1.113805	-0.591827	-0.075502
H79	H	1.522302	-0.649034	0.000082
C80	C	1.751851	-0.419900	0.000110
C81	C	1.661971	-0.375602	0.000112
H82	H	1.822555	-0.404134	0.000103
H83	H	1.746986	-0.442805	0.075638
H84	H	1.746978	-0.442796	-0.075430
H85	H	1.666840	-0.352709	0.075657
H86	H	1.666839	-0.352687	-0.075424
C87	C	1.664535	-0.534836	-0.111242
C88	C	1.658998	-0.500291	0.000102
H89	H	1.734285	-0.559366	-0.111231
H90	H	1.602311	-0.557187	-0.111242
H91	H	1.660784	-0.511381	-0.186769
H92	H	1.662741	-0.523746	0.075629
H93	H	1.721240	-0.477938	0.000114
C94	C	1.525746	-0.824168	0.000031
C95	C	1.549004	-0.767118	0.000051
H96	H	1.595476	-0.848714	0.000013
H97	H	1.483010	-0.831253	0.075560
H98	H	1.482992	-0.831230	-0.075507
H99	H	1.591750	-0.760056	0.075595
H100	H	1.591758	-0.760031	-0.075486
C101	C	1.024703	-0.695684	0.000024
C102	C	1.114588	-0.739979	0.000031
H103	H	0.954002	-0.711452	0.000001
H104	H	1.029558	-0.672793	0.075558
H105	H	1.029582	-0.672773	-0.075509
H106	H	1.109714	-0.762888	0.075569
H107	H	1.109730	-0.762880	-0.075511
H108	H	1.159887	-0.079035	0.000114
