data_functionalizedCrystal
_audit_creation_method	'MofGen! by Chris Wilmer'
_symmetry_space_group_name_H-M	'P1'
_symmetry_Int_Tables_number	1
_symmetry_cell_setting	triclinic
loop_
_symmetry_equiv_pos_as_xyz
  x,y,z
_cell_length_a	23.532407
_cell_length_b	23.532357
_cell_length_c	13.930277
_cell_angle_alpha	89.989902
_cell_angle_beta	89.998126
_cell_angle_gamma	82.838485
loop_
_atom_site_label
_atom_site_type_symbol
_atom_site_fract_x
_atom_site_fract_y
_atom_site_fract_z
O1	O	0.755249	0.069136	-0.079723
O2	O	0.589384	0.079140	-0.079752
O3	O	0.677333	-0.008796	-0.079717
O4	O	0.667300	0.157071	-0.079758
O5	O	0.677321	-0.008798	0.079945
O6	O	0.589372	0.079138	0.079910
O7	O	0.755237	0.069134	0.079939
Zn8	Zn	0.672303	0.074136	0.105274
Zn9	Zn	0.672319	0.074138	-0.105087
O10	O	0.667288	0.157070	0.079904
C11	C	0.568162	0.078884	0.000075
C12	C	0.504945	0.078118	0.000065
C13	C	0.105834	0.125353	0.000096
C14	C	0.046434	0.124641	0.000102
O15	O	0.009681	0.168428	0.000126
N16	N	0.023817	0.072364	0.000114
C17	C	0.060604	0.020794	0.000129
O18	O	0.035912	-0.023737	0.000140
C19	C	0.120003	0.021506	0.000130
C20	C	0.142616	0.073787	0.000109
C21	C	0.128448	0.177629	0.000076
C22	C	0.187844	0.178341	0.000068
C23	C	0.224626	0.126775	0.000081
C24	C	0.202012	0.074498	0.000101
C25	C	0.156788	-0.030063	0.000152
C26	C	0.216191	-0.029346	0.000153
C27	C	0.238804	0.022935	0.000132
C28	C	0.298190	0.023644	0.000105
N29	N	0.320807	0.075922	0.000094
C30	C	0.284025	0.127487	0.000081
C31	C	-0.064139	0.019303	0.000129
C32	C	-0.123536	0.018590	0.000121
C33	C	-0.137702	0.122437	0.000096
C34	C	-0.078303	0.123149	0.000097
C35	C	-0.041522	0.071580	0.000117
C36	C	0.408761	0.128977	0.000064
C37	C	0.468163	0.129684	0.000052
C38	C	0.482324	0.025836	0.000082
C39	C	0.422927	0.025130	0.000089
C40	C	0.386147	0.076704	0.000083
O41	O	0.334977	-0.020120	0.000085
O42	O	0.308725	0.172011	0.000083
C43	C	0.677076	-0.030013	0.000117
C44	C	0.676322	-0.093232	0.000126
C45	C	0.671592	-0.485242	-0.086958
C46	C	0.670874	-0.544642	-0.086964
O47	O	0.670490	-0.575357	-0.160981
N48	N	0.670512	-0.574354	0.000066
C49	C	0.670861	-0.544663	0.087108
O50	O	0.670487	-0.575389	0.161134
C51	C	0.671574	-0.485264	0.087113
C52	C	0.671943	-0.455556	0.000077
C53	C	0.671959	-0.455534	-0.173987
C54	C	0.672677	-0.396139	-0.173981
C55	C	0.673028	-0.366452	-0.086946
C56	C	0.672661	-0.396160	0.000083
C57	C	0.671920	-0.455573	0.174153
C58	C	0.672632	-0.396170	0.174151
C59	C	0.673000	-0.366462	0.087114
C60	C	0.673730	-0.307078	0.087124
N61	N	0.674092	-0.277366	0.000093
C62	C	0.673741	-0.307053	-0.086942
C63	C	0.669363	-0.669404	0.087092
C64	C	0.668654	-0.728803	0.087088
C65	C	0.668666	-0.728777	-0.086984
C66	C	0.669379	-0.669379	-0.086980
C67	C	0.669725	-0.639692	0.000061
C68	C	0.675250	-0.182319	-0.086923
C69	C	0.675971	-0.122919	-0.086909
C70	C	0.675956	-0.122949	0.087163
C71	C	0.675238	-0.182344	0.087150
C72	C	0.674883	-0.212027	0.000099
O73	O	0.674113	-0.276325	0.161103
O74	O	0.674108	-0.276318	-0.160955
C75	C	0.776459	0.069390	0.000110
C76	C	0.839676	0.070156	0.000114
C77	C	0.667545	0.178287	0.000068
C78	C	0.668300	0.241506	0.000053
N79	N	0.672296	0.074134	0.248840
N80	N	0.672330	0.074136	-0.248653
C81	C	0.633373	0.113061	0.701094
C82	C	0.711280	0.035211	0.701095
C83	C	0.711273	0.035209	0.600599
C84	C	0.672316	0.074134	0.550346
C85	C	0.633367	0.113061	0.600589
C86	C	0.750226	-0.003713	0.550349
C87	C	0.750221	-0.003716	0.449847
C88	C	0.711261	0.035207	0.399592
C89	C	0.672310	0.074135	0.449841
C90	C	0.633353	0.113060	0.399588
C91	C	0.594398	0.151986	0.449835
C92	C	0.594407	0.151984	0.550334
C93	C	0.711253	0.035209	0.299093
C94	C	0.633346	0.113061	0.299083
H95	H	-0.167662	0.164425	0.000091
O96	O	-0.145431	-0.032232	0.000002
C97	C	-0.126616	-0.063636	-0.082694
H98	H	-0.085506	-0.048349	-0.110271
H99	H	-0.118096	-0.111111	-0.064085
H100	H	-0.161030	-0.056842	-0.140594
O101	O	0.669784	-0.640519	0.171590
C102	C	0.719535	-0.612907	0.176828
H103	H	0.736092	-0.606235	0.101267
H104	H	0.708941	-0.569632	0.213679
H105	H	0.753801	-0.640524	0.219774
O106	O	0.668219	-0.757631	-0.171509
C107	C	0.618480	-0.785266	-0.176708
H108	H	0.584215	-0.762661	-0.127324
H109	H	0.601917	-0.783675	-0.253687
H110	H	0.629089	-0.831807	-0.153319
H111	H	0.669678	-0.645194	-0.157852
O112	O	0.209711	0.229177	0.000102
C113	C	0.164500	0.274531	0.000072
H114	H	0.124238	0.258792	0.030299
H115	H	0.176699	0.311051	0.046423
H116	H	0.156003	0.290424	-0.076528
O117	O	0.672888	-0.367383	0.258764
C118	C	0.623366	-0.375159	0.311676
H119	H	0.606406	-0.416039	0.286918
H120	H	0.634422	-0.378714	0.391303
H121	H	0.589227	-0.337013	0.299597
H122	H	0.781939	-0.035412	0.408942
O123	O	0.092665	0.227688	-0.000070
C124	C	0.057898	0.230393	-0.082778
H125	H	0.055142	0.185205	-0.110326
H126	H	0.013133	0.251879	-0.064197
H127	H	0.077306	0.256280	-0.140690
H128	H	0.562692	0.183677	0.591251
H129	H	0.672975	-0.371955	-0.244855
O130	O	0.595526	0.150820	0.250122
C131	C	0.603883	0.142488	0.150644
H132	H	0.625433	0.097100	0.136922
H133	H	0.560716	0.149045	0.112454
H134	H	0.632255	0.174581	0.122114
H135	H	0.601655	0.144752	0.742008
O136	O	0.749033	-0.002671	0.250315
C137	C	0.740132	-0.059009	0.274898
H138	H	0.694544	-0.059069	0.302546
H139	H	0.746846	-0.087618	0.208803
H140	H	0.771807	-0.075898	0.333219
H141	H	-0.059896	0.165721	0.000085
H142	H	-0.034193	-0.022694	0.000137
H143	H	0.671621	-0.479752	0.245028
O144	O	0.490034	0.180522	0.000077
C145	C	0.444827	0.225880	0.000047
H146	H	0.404564	0.210148	0.030284
H147	H	0.457033	0.262401	0.046390
H148	H	0.436328	0.241771	-0.076554
O149	O	0.674861	-0.211116	0.171780
C150	C	0.675343	-0.172175	0.248599
H151	H	0.657829	-0.127368	0.223082
H152	H	0.647475	-0.185565	0.309464
H153	H	0.721114	-0.172105	0.275371
H154	H	0.378821	0.170974	0.000063
O155	O	0.518141	-0.024200	0.000140
C156	C	0.575415	-0.012354	0.000110
H157	H	0.577432	0.032369	0.030316
H158	H	0.602517	-0.045238	0.046480
H159	H	0.592609	-0.014616	-0.076487
H160	H	0.743000	0.003522	0.742014
O161	O	0.676300	-0.094145	-0.171546
C162	C	0.675849	-0.133091	-0.248363
H163	H	0.657302	-0.172972	-0.222850
H164	H	0.648407	-0.112148	-0.309240
H165	H	0.721471	-0.145646	-0.275116
H166	H	0.138388	-0.072635	0.000170
H167	H	0.781946	-0.035402	0.591268
O168	O	0.556536	0.189853	0.401164
C169	C	0.522143	0.224200	0.467055
H170	H	0.545486	0.224726	0.538695
H171	H	0.513187	0.269727	0.438002
H172	H	0.479947	0.205920	0.477749
O173	O	0.676191	-0.094061	0.171675
C174	C	0.627278	-0.052961	0.176834
H175	H	0.592593	-0.066160	0.127434
H176	H	0.610713	-0.050023	0.253803
H177	H	0.638975	-0.009467	0.153439
H178	H	0.246136	-0.071341	0.000170
H179	H	0.674959	-0.206480	-0.157808
O180	O	0.401052	-0.025705	0.000139
C181	C	0.446257	-0.071065	0.000115
H182	H	0.486523	-0.055335	0.030330
H183	H	0.434054	-0.107587	0.046479
H184	H	0.454749	-0.086951	-0.076482
H185	H	0.668363	-0.752987	0.157962
O186	O	0.671647	-0.484282	-0.258626
C187	C	0.672109	-0.445309	-0.335426
H188	H	0.690644	-0.405434	-0.309885
H189	H	0.699565	-0.466229	-0.396296
H190	H	0.626491	-0.432752	-0.362201
