data_functionalizedCrystal
_audit_creation_method	'MofGen! by Chris Wilmer'
_symmetry_space_group_name_H-M	'P1'
_symmetry_Int_Tables_number	1
_symmetry_cell_setting	triclinic
loop_
_symmetry_equiv_pos_as_xyz
  x,y,z
_cell_length_a	19.077105
_cell_length_b	29.839131
_cell_length_c	19.076919
_cell_angle_alpha	87.739939
_cell_angle_beta	89.923776
_cell_angle_gamma	87.731134
loop_
_atom_site_label
_atom_site_type_symbol
_atom_site_fract_x
_atom_site_fract_y
_atom_site_fract_z
Zn1	Zn	1.058209	-0.217337	0.440348
Zn2	Zn	1.062829	-0.289569	0.322818
Zn3	Zn	0.945429	-0.211319	0.318143
Zn4	Zn	0.940650	-0.289298	0.435571
O5	O	1.001779	-0.251881	0.379220
O6	O	1.157153	-0.229551	0.428713
O7	O	1.051188	-0.276784	0.223868
O8	O	0.960456	-0.149253	0.334397
O9	O	1.160547	-0.282619	0.342365
O10	O	1.043315	-0.153674	0.424180
O11	O	0.964935	-0.219293	0.220433
O12	O	0.846464	-0.219031	0.329765
O13	O	0.952312	-0.282158	0.534535
O14	O	0.842953	-0.276322	0.416038
O15	O	1.038682	-0.229288	0.538045
O16	O	1.046555	-0.352398	0.337732
O17	O	0.956791	-0.352199	0.420571
C18	C	0.819212	-0.246994	0.371876
C19	C	0.741109	-0.244915	0.368751
C20	C	1.001674	-0.368599	0.379157
C21	C	1.001693	-0.418534	0.379156
C22	C	0.702609	-0.273808	0.412130
C23	C	0.629222	-0.271849	0.409197
C24	C	0.594337	-0.240998	0.362881
C25	C	0.632842	-0.212102	0.319500
C26	C	0.706227	-0.214059	0.322437
C27	C	0.375052	-0.231938	0.349291
C28	C	0.301662	-0.229984	0.346356
C29	C	0.298047	-0.289731	0.436054
C30	C	0.371434	-0.291687	0.438984
C31	C	0.409933	-0.262789	0.395606
N32	N	0.519324	-0.238995	0.359880
N33	N	0.484944	-0.264790	0.398611
C34	C	1.044912	-0.730450	0.426034
C35	C	1.044986	-0.918126	0.426079
O36	O	1.081629	-0.944319	0.465889
N37	N	1.001895	-0.939328	0.379303
C38	C	0.958779	-0.913608	0.332515
O39	O	0.922124	-0.935948	0.292735
C40	C	0.958702	-0.725933	0.332474
C41	C	1.001801	-0.704733	0.379248
C42	C	1.088006	-0.709250	0.472805
C43	C	1.087990	-0.662334	0.472791
C44	C	1.044879	-0.636617	0.426005
C45	C	1.001784	-0.657817	0.379234
C46	C	0.915583	-0.700213	0.285690
C47	C	0.915566	-0.653292	0.285685
C48	C	0.958665	-0.632092	0.332459
C49	C	0.958657	-0.585184	0.332434
N50	N	1.001748	-0.563982	0.379210
C51	C	1.044859	-0.589699	0.425996
C52	C	0.958824	-1.012140	0.332539
C53	C	0.958845	-1.059059	0.332549
C54	C	1.045051	-1.063574	0.426114
C55	C	1.045034	-1.016654	0.426101
C56	C	1.001915	-0.990938	0.379316
C57	C	1.044822	-0.491171	0.425962
C58	C	1.044804	-0.444251	0.425941
C59	C	0.958596	-0.439740	0.332379
C60	C	0.958616	-0.486656	0.332397
C61	C	1.001731	-0.512371	0.379194
O62	O	0.922028	-0.558963	0.292651
O63	O	1.081497	-0.567350	0.465781
C64	C	1.044928	-0.777366	0.426048
C65	C	1.001833	-0.798566	0.379277
C66	C	0.958722	-0.772849	0.332491
C67	C	1.001853	-0.845484	0.379286
C68	C	1.044964	-0.871201	0.426072
C69	C	1.088055	-0.849999	0.472848
C70	C	1.088039	-0.803083	0.472834
C71	C	0.915631	-0.794051	0.285715
C72	C	0.915652	-0.840967	0.285733
C73	C	0.958763	-0.866684	0.332518
C74	C	1.185059	-0.256787	0.386593
C75	C	1.263162	-0.258877	0.389735
C76	C	0.994448	-0.256364	0.562499
C77	C	0.991325	-0.258274	0.640601
C78	C	1.001903	-0.134708	0.379300
C79	C	1.001956	-0.084775	0.379334
C80	C	1.009122	-0.247384	0.196656
C81	C	1.012382	-0.245350	0.118560
C82	C	1.034823	-0.231647	0.679123
C83	C	1.031879	-0.233440	0.752508
C84	C	0.985440	-0.261863	0.787371
C85	C	0.941937	-0.288492	0.748844
C86	C	0.944878	-0.286696	0.675460
C87	C	0.971820	-0.270183	1.006649
C88	C	0.968884	-0.271978	1.080038
C89	C	1.058825	-0.216925	1.083697
C90	C	1.061765	-0.215134	1.010311
C91	C	1.018259	-0.241761	0.971791
N92	N	0.982431	-0.263698	0.862382
N93	N	1.021265	-0.239923	0.896781
H94	H	0.731007	-0.298932	0.449844
H95	H	0.931065	-0.295125	1.108421
H96	H	0.273260	-0.204856	0.308644
C97	C	0.891587	-0.319339	0.786823
C98	C	0.898334	-0.315223	0.859335
C99	C	0.851970	-0.343639	0.894342
H100	H	0.844831	-0.311236	0.772982
H101	H	0.902325	-0.349515	0.775229
H102	H	0.887591	-0.285054	0.870924
H103	H	0.945079	-0.323330	0.873196
H104	H	0.862707	-0.373814	0.882748
H105	H	0.805217	-0.335532	0.880496
H106	H	0.856546	-0.340853	0.943545
H107	H	0.406389	-0.208411	0.313964
C108	C	0.409178	-0.325199	0.489344
C109	C	0.359753	-0.350076	0.526719
C110	C	0.394496	-0.380949	0.573120
H111	H	0.438859	-0.344891	0.463625
H112	H	0.436585	-0.309569	0.521197
H113	H	0.332358	-0.365705	0.494870
H114	H	0.330070	-0.330396	0.552452
H115	H	0.421903	-0.365319	0.604973
H116	H	0.424176	-0.400638	0.547395
H117	H	0.360967	-0.397829	0.598489
H118	H	1.067302	-0.211758	0.783869
H119	H	0.597879	-0.295377	0.444521
C120	C	0.897629	-0.315665	0.633760
C121	C	0.856348	-0.340954	0.679997
C122	C	0.812821	-0.367651	0.641610
H123	H	0.868113	-0.297013	0.603902
H124	H	0.925627	-0.335280	0.606222
H125	H	0.828352	-0.321341	0.707524
H126	H	0.885845	-0.359614	0.709856
H127	H	0.840819	-0.387266	0.614071
H128	H	0.783310	-0.348996	0.611753
H129	H	0.784811	-0.384816	0.672976
C130	C	0.594932	-0.178676	0.269128
C131	C	0.554589	-0.201840	0.222312
C132	C	0.519666	-0.171063	0.175892
H133	H	0.565195	-0.159014	0.294842
H134	H	0.628352	-0.161753	0.243672
H135	H	0.521174	-0.218755	0.247765
H136	H	0.584309	-0.221500	0.196582
H137	H	0.553085	-0.154140	0.150436
H138	H	0.489933	-0.151402	0.201612
H139	H	0.492294	-0.186775	0.144118
C140	C	0.256122	-0.321048	0.483122
C141	C	0.184387	-0.312724	0.470653
C142	C	0.145745	-0.341561	0.514010
H143	H	0.268449	-0.351306	0.473269
H144	H	0.266236	-0.315989	0.530849
H145	H	0.174278	-0.317786	0.422937
H146	H	0.172039	-0.282471	0.480510
H147	H	0.155859	-0.336502	0.561737
H148	H	0.158078	-0.371817	0.504153
H149	H	0.097069	-0.335914	0.505560
H150	H	0.737573	-0.190529	0.287117
H151	H	1.079925	-0.512103	0.464073
C152	C	0.912129	-1.082156	0.281792
C153	C	0.921378	-1.128750	0.291796
C154	C	0.878356	-1.150040	0.245048
H155	H	0.864470	-1.073528	0.290095
H156	H	0.924341	-1.073623	0.234986
H157	H	0.909162	-1.137280	0.338591
H158	H	0.969028	-1.137391	0.283487
H159	H	0.890568	-1.141507	0.198242
H160	H	0.830700	-1.141408	0.253355
H161	H	0.884631	-1.181656	0.251825
C162	C	1.091620	-0.421318	0.476809
C163	C	1.129361	-0.453886	0.517797
C164	C	1.172485	-0.432780	0.564669
H165	H	1.123388	-0.403172	0.451265
H166	H	1.063499	-0.403059	0.506354
H167	H	1.157480	-0.472137	0.488255
H168	H	1.097612	-0.472034	0.543356
H169	H	1.144364	-0.414521	0.594215
H170	H	1.204248	-0.414634	0.539120
H171	H	1.198093	-0.454873	0.592490
C172	C	0.911989	-0.984302	0.281656
C173	C	0.874278	-1.012918	0.240685
C174	C	0.831137	-0.987292	0.193794
H175	H	0.880204	-0.965839	0.307185
H176	H	0.940097	-0.965974	0.252100
H177	H	0.846172	-1.031238	0.270237
H178	H	0.906045	-1.031380	0.215141
H179	H	0.859245	-0.968964	0.164238
H180	H	0.799356	-0.968830	0.219329
H181	H	0.805549	-1.006704	0.165985
C182	C	1.112129	-0.184296	0.972333
C183	C	1.105393	-0.188422	0.899822
C184	C	1.151772	-0.160017	0.864814
H185	H	1.101413	-0.154118	0.983898
H186	H	1.158882	-0.192413	0.986201
H187	H	1.058652	-0.180302	0.885959
H188	H	1.116115	-0.218593	0.888236
H189	H	1.198525	-0.168135	0.878682
H190	H	1.141052	-0.129842	0.876384
H191	H	1.147213	-0.162816	0.815611
H192	H	1.123083	-0.645076	0.510881
C193	C	1.105970	-0.188031	1.125643
C194	C	1.093445	-0.195677	1.197371
C195	C	1.136854	-0.169061	1.236032
H196	H	1.153683	-0.195548	1.115600
H197	H	1.096188	-0.157270	1.113262
H198	H	1.103231	-0.226432	1.209748
H199	H	1.045740	-0.188158	1.207435
H200	H	1.127073	-0.138299	1.223650
H201	H	1.184565	-0.176580	1.225983
H202	H	1.128357	-0.174242	1.284703
H203	H	1.123112	-0.730184	0.510908
H204	H	1.080128	-0.999397	0.464189
H205	H	0.936405	-0.291872	0.975295
C206	C	1.091808	-1.091444	0.477027
C207	C	1.073669	-1.081300	0.545916
C208	C	1.116726	-1.106963	0.592836
H209	H	1.085684	-1.122433	0.470427
H210	H	1.139449	-1.084738	0.468731
H211	H	1.026040	-1.088009	0.554209
H212	H	1.079796	-1.050316	0.552538
H213	H	1.164366	-1.100257	0.584541
H214	H	1.110598	-1.137950	0.586230
H215	H	1.104428	-1.100081	0.639582
H216	H	0.880487	-0.717466	0.247601
C217	C	0.868725	-0.625451	0.234811
C218	C	0.831001	-0.654063	0.193844
C219	C	0.787853	-0.628433	0.146966
H220	H	0.836947	-0.606988	0.260349
H221	H	0.896828	-0.607122	0.205251
H222	H	0.802900	-0.672383	0.223400
H223	H	0.862761	-0.672525	0.168291
H224	H	0.815956	-0.610105	0.117406
H225	H	0.756080	-0.609972	0.172510
H226	H	0.762257	-0.647842	0.119160
H227	H	0.923527	-0.503918	0.294304
H228	H	0.923497	-0.418794	0.294284
H229	H	1.123134	-0.785826	0.510922
H230	H	1.123160	-0.870946	0.510941
H231	H	0.880557	-0.858224	0.247637
C232	C	1.085265	-0.200740	0.641403
C233	C	1.122714	-0.177796	0.690848
C234	C	1.169181	-0.149315	0.656129
H235	H	1.117074	-0.217995	0.613997
H236	H	1.059568	-0.179723	0.611722
H237	H	1.148410	-0.198810	0.720517
H238	H	1.090924	-0.160533	0.718256
H239	H	1.143483	-0.128298	0.626448
H240	H	1.200985	-0.166573	0.628724
H241	H	1.194591	-0.133741	0.689672
C242	C	0.868803	-0.766213	0.234833
C243	C	0.831088	-0.794828	0.193865
C244	C	0.787951	-0.769201	0.146971
H245	H	0.837020	-0.747747	0.260360
H246	H	0.896913	-0.747887	0.205276
H247	H	0.802980	-0.813145	0.223418
H248	H	0.862853	-0.813293	0.168322
H249	H	0.816061	-0.750876	0.117414
H250	H	0.756172	-0.750737	0.172504
H251	H	0.762361	-0.788613	0.119164
