data_functionalizedCrystal
_audit_creation_method	'MofGen! by Chris Wilmer'
_symmetry_space_group_name_H-M	'P1'
_symmetry_Int_Tables_number	1
_symmetry_cell_setting	triclinic
loop_
_symmetry_equiv_pos_as_xyz
  x,y,z
_cell_length_a	6.817900
_cell_length_b	19.551823
_cell_length_c	9.514088
_cell_angle_alpha	92.277325
_cell_angle_beta	118.843545
_cell_angle_gamma	101.663376
loop_
_atom_site_label
_atom_site_type_symbol
_atom_site_fract_x
_atom_site_fract_y
_atom_site_fract_z
V1	V	-4.208673	-0.097915	-0.501504
O2	O	-4.201670	0.003431	-0.491184
O3	O	-4.150342	-0.192924	-0.498817
O4	O	-4.243536	-0.096969	-0.719888
O5	O	-4.107831	-0.093189	-0.268583
V6	V	-4.682799	-0.085727	-0.473554
O7	O	-4.490545	-0.124651	-0.562813
O8	O	-4.851125	-0.058991	-0.412245
O9	O	-4.517924	0.009281	-0.476241
O10	O	-4.807199	-0.187073	-0.483873
O11	O	-4.901039	-0.090454	-0.706475
O12	O	-4.424730	-0.086674	-0.255170
C13	C	-3.990233	-0.216068	-0.491097
C14	C	-4.024381	-0.293742	-0.490356
C15	C	-4.225252	-0.333807	-0.498039
C16	C	-4.257350	-0.406791	-0.497359
C17	C	-4.088544	-0.439705	-0.488963
C18	C	-3.887651	-0.399632	-0.481288
C19	C	-3.855569	-0.326650	-0.481985
C20	C	-3.936486	-0.545941	-0.387121
C21	C	-3.968567	-0.618921	-0.386415
C22	C	-4.187490	-0.664806	-0.486822
C23	C	-4.374347	-0.637701	-0.587916
C24	C	-4.342266	-0.564719	-0.588613
C25	C	-4.123310	-0.518842	-0.488208
C26	C	-4.423178	-0.784009	-0.493771
C27	C	-4.455275	-0.856996	-0.493101
C28	C	-4.085560	-0.849834	-0.477013
C29	C	-4.053479	-0.776850	-0.477700
C30	C	-4.222291	-0.743942	-0.486072
C31	C	-4.109110	-0.093666	-0.773093
C32	C	-4.218832	-0.093521	-0.951628
C33	C	-4.341374	0.032421	-0.483956
C34	C	-4.286467	0.110095	-0.484708
C35	C	-4.222495	-0.089979	-0.201957
C36	C	-4.092011	-0.090121	-0.023420
H37	H	-3.948120	-0.876633	-0.470187
C38	C	-3.831940	-0.086345	-0.921958
H39	H	-3.767092	-0.084197	-0.990937
H40	H	-3.756505	-0.045284	-0.841173
H41	H	-3.811777	-0.127235	-0.871183
H42	H	-4.411364	-0.096322	-1.026757
C43	C	-3.832506	-0.732772	-0.469224
H44	H	-3.837582	-0.684594	-0.470851
H45	H	-3.700825	-0.736647	-0.371664
H46	H	-3.822807	-0.749878	-0.559958
H47	H	-3.816419	-0.640983	-0.304088
H48	H	-3.758201	-0.508587	-0.305363
H49	H	-4.362723	-0.307018	-0.504867
H50	H	-4.420928	-0.439418	-0.503615
H51	H	-4.494411	-0.542654	-0.670929
C52	C	-4.676242	-0.901067	-0.501550
H53	H	-4.772165	-0.871011	-0.506619
H54	H	-4.757448	-0.936302	-0.595755
H55	H	-4.635428	-0.923069	-0.407460
C56	C	-4.615157	-0.688166	-0.698397
H57	H	-4.607502	-0.735515	-0.683529
H58	H	-4.722581	-0.676476	-0.671119
H59	H	-4.663928	-0.683651	-0.808717
C60	C	-3.701960	-0.435831	-0.472051
H61	H	-3.577735	-0.401515	-0.467587
H62	H	-3.645796	-0.457536	-0.377303
H63	H	-3.767792	-0.470770	-0.565598
C64	C	-3.634598	-0.282573	-0.473520
H65	H	-3.639673	-0.234395	-0.475142
H66	H	-3.502914	-0.286449	-0.375964
H67	H	-3.624905	-0.299677	-0.564258
H68	H	-4.560634	-0.757214	-0.500585
