data_functionalizedCrystal
_audit_creation_method	'MofGen! by Chris Wilmer'
_symmetry_space_group_name_H-M	'P1'
_symmetry_Int_Tables_number	1
_symmetry_cell_setting	triclinic
loop_
_symmetry_equiv_pos_as_xyz
  x,y,z
_cell_length_a	6.817900
_cell_length_b	11.102188
_cell_length_c	16.255661
_cell_angle_alpha	93.854852
_cell_angle_beta	103.488922
_cell_angle_gamma	108.603875
loop_
_atom_site_label
_atom_site_type_symbol
_atom_site_fract_x
_atom_site_fract_y
_atom_site_fract_z
V1	V	-4.052929	-0.176865	-0.263871
O2	O	-4.013087	0.007443	-0.258848
O3	O	-4.030098	-0.349678	-0.262067
O4	O	-4.004157	-0.174608	-0.378954
O5	O	-4.039208	-0.168839	-0.141151
V6	V	-4.533292	-0.154765	-0.249193
O7	O	-4.321119	-0.225344	-0.296069
O8	O	-4.715300	-0.106287	-0.216995
O9	O	-4.332917	0.018048	-0.250997
O10	O	-4.690531	-0.339073	-0.254216
O11	O	-4.664411	-0.162792	-0.371913
O12	O	-4.358858	-0.157022	-0.134110
C13	C	-3.881331	-0.391792	-0.257904
C14	C	-3.943947	-0.533072	-0.257196
C15	C	-3.848239	-0.168471	-0.407005
C16	C	-3.889815	-0.167769	-0.501086
C17	C	-3.930405	-0.580995	-0.179361
C18	C	-3.989264	-0.713744	-0.178699
C19	C	-4.075197	-0.750636	-0.333712
C20	C	-4.016353	-0.617890	-0.334374
C21	C	-4.135732	-0.877166	-0.087394
C22	C	-4.122155	-0.925091	-0.009555
C23	C	-3.947437	-0.861553	0.061374
C24	C	-3.786246	-0.750090	0.054468
C25	C	-3.799809	-0.702171	-0.023372
C26	C	-3.974571	-0.765708	-0.094299
C27	C	-3.869864	-0.454464	-0.425673
C28	C	-3.883412	-0.406543	-0.503513
C29	C	-4.058120	-0.470079	-0.574449
C30	C	-4.219287	-0.581547	-0.567551
C31	C	-4.205739	-0.629468	-0.489710
C32	C	-4.031030	-0.565923	-0.418774
C33	C	-3.799128	-0.159385	-0.723905
C34	C	-3.971585	-0.267595	-0.793381
C35	C	-3.966004	-0.166453	-0.673335
C36	C	-3.867655	-0.057005	-0.771496
C37	C	-4.039583	-0.165176	-0.839718
C38	C	-4.137957	-0.274760	-0.741581
C39	C	-4.033950	-0.064074	-0.719680
C40	C	-4.206548	-0.172315	-0.789137
C41	C	-3.923612	-0.167190	-0.577485
C42	C	-4.081993	-0.164449	-0.935567
C43	C	-4.145028	0.060155	-0.255158
C44	C	-4.061649	0.201433	-0.255872
C45	C	-4.178119	-0.163164	-0.106055
C46	C	-4.115781	-0.163859	-0.011973
H47	H	-3.871450	-0.511938	-0.116518
H48	H	-3.936387	-0.900583	0.124752
H49	H	-3.727594	-0.402718	-0.367913
O50	O	-4.305622	-0.938711	-0.156275
C51	C	-4.416661	-0.854504	-0.182931
H52	H	-4.382379	-0.776154	-0.127121
H53	H	-4.596627	-0.910635	-0.205310
H54	H	-4.360769	-0.808631	-0.237914
O55	O	-4.274029	-0.384715	-0.725673
C56	C	-4.408655	-0.460951	-0.803806
H57	H	-4.418570	-0.397298	-0.855698
H58	H	-4.576250	-0.510743	-0.796126
H59	H	-4.340011	-0.536457	-0.822773
H60	H	-4.134152	-0.819711	-0.396548
O61	O	-4.412683	-0.179093	-0.822946
C62	C	-4.554864	-0.293955	-0.807989
H63	H	-4.470038	-0.367302	-0.797577
H64	H	-4.701560	-0.334001	-0.865657
H65	H	-4.607968	-0.273446	-0.748640
H66	H	-3.626585	-0.154059	-0.695424
O67	O	-4.362315	-0.737639	-0.482870
C68	C	-4.457742	-0.708871	-0.419487
H69	H	-4.340964	-0.619502	-0.373265
H70	H	-4.498335	-0.793481	-0.382863
H71	H	-4.611087	-0.690371	-0.451079
H72	H	-4.361543	-0.633286	-0.625314
O73	O	-3.940886	-0.370382	-0.831587
C74	C	-4.081545	-0.484917	-0.815538
H75	H	-4.131120	-0.463887	-0.755361
H76	H	-3.996792	-0.558403	-0.805978
H77	H	-4.230457	-0.525078	-0.872296
O78	O	-3.726727	-0.298208	-0.510058
C79	C	-3.569599	-0.252406	-0.430760
H80	H	-3.643233	-0.289672	-0.377245
H81	H	-3.508328	-0.142766	-0.419483
H82	H	-3.430181	-0.287740	-0.431427
H83	H	-4.059790	0.021975	-0.687572
O84	O	-3.731513	0.052761	-0.787591
C85	C	-3.517496	0.059124	-0.754261
H86	H	-3.509614	-0.002560	-0.701117
H87	H	-3.411417	0.163125	-0.727302
H88	H	-3.458398	0.021954	-0.807412
H89	H	-3.668566	-0.611424	-0.028996
H90	H	-4.069125	-0.431056	-0.637833
O91	O	-3.616705	-0.688502	0.123463
C92	C	-3.639270	-0.754714	0.193641
H93	H	-3.815814	-0.813893	0.184177
H94	H	-3.579079	-0.682448	0.255046
H95	H	-3.541167	-0.821340	0.198448
H96	H	-4.253412	-1.015846	-0.003938
