data_functionalizedCrystal
_audit_creation_method	'MofGen! by Chris Wilmer'
_symmetry_space_group_name_H-M	'P1'
_symmetry_Int_Tables_number	1
_symmetry_cell_setting	triclinic
loop_
_symmetry_equiv_pos_as_xyz
  x,y,z
_cell_length_a	19.377625
_cell_length_b	21.606444
_cell_length_c	21.606444
_cell_angle_alpha	59.998557
_cell_angle_beta	75.508744
_cell_angle_gamma	52.477684
loop_
_atom_site_label
_atom_site_type_symbol
_atom_site_fract_x
_atom_site_fract_y
_atom_site_fract_z
Zr1	Zr	0.686867	0.677318	-0.235289
O2	O	0.573089	0.806424	-0.308574
O3	O	0.721721	0.548217	-0.212824
O4	O	0.721758	0.677319	-0.341943
O5	O	0.573051	0.677319	-0.077602
O6	O	0.839060	0.677314	-0.368264
O7	O	0.573052	0.677322	-0.179455
O8	O	0.838993	0.446374	-0.137293
O9	O	0.573118	0.908259	-0.308572
O10	O	0.824157	0.601312	-0.222884
O11	O	0.736615	0.601314	-0.127229
O12	O	0.736659	0.753315	-0.279251
O13	O	0.649118	0.753317	-0.183596
Zr14	Zr	0.873948	0.677306	-0.114822
Zr15	Zr	0.873949	0.677310	-0.277267
Zr16	Zr	0.686866	0.677314	-0.072844
Zr17	Zr	0.686913	0.839733	-0.235286
Zr18	Zr	0.873902	0.514890	-0.114825
O19	O	0.839094	0.806407	-0.137287
O20	O	0.839096	0.806412	-0.368262
O21	O	0.573087	0.806418	-0.077599
O22	O	0.987726	0.548200	-0.041537
O23	O	0.987728	0.548206	-0.272512
O24	O	0.721719	0.548211	0.018151
O25	O	0.987764	0.677304	-0.272509
O26	O	0.839057	0.677305	-0.008168
O27	O	0.721756	0.677310	0.018153
O28	O	0.987764	0.677302	-0.170656
O29	O	0.721823	0.908253	-0.341939
O30	O	0.838992	0.446371	-0.008172
O31	O	0.987697	0.446365	-0.041539
O32	O	0.987698	0.446368	-0.170660
O33	O	0.573117	0.908256	-0.179451
O34	O	0.721822	0.908250	-0.212818
O35	O	0.824156	0.601309	-0.070860
O36	O	0.911697	0.601307	-0.166515
O37	O	0.824200	0.753310	-0.222881
O38	O	0.736658	0.753311	-0.127227
C39	C	0.780350	0.474155	-0.175059
C40	C	0.780331	0.405205	-0.175060
C41	C	0.546396	0.677322	-0.122547
C42	C	0.466975	0.677325	-0.104726
C43	C	0.845080	-0.074267	-0.133438
C44	C	0.845061	-0.009459	-0.133442
C45	C	0.780443	0.079034	-0.175054
C46	C	0.715844	0.102720	-0.216672
C47	C	0.715867	0.037912	-0.216672
C48	C	0.715751	0.364083	-0.216674
C49	C	0.715731	0.428890	-0.216669
C50	C	0.844945	0.316711	-0.133444
C51	C	0.844968	0.251904	-0.133444
C52	C	0.780372	0.275595	-0.175064
C53	C	0.780394	0.205322	-0.175061
C54	C	0.780417	0.149307	-0.175054
C55	C	0.205762	0.677308	-0.326633
C56	C	0.131137	0.677304	-0.309865
C57	C	0.131157	0.677302	-0.197648
C58	C	0.205781	0.677310	-0.214409
C59	C	0.243078	0.677312	-0.278902
C60	C	0.243097	0.677313	-0.166678
C61	C	0.317716	0.677317	-0.183435
C62	C	0.355020	0.677316	-0.247924
C63	C	0.317698	0.677315	-0.295659
C64	C	0.205802	0.677305	-0.102183
C65	C	0.243118	0.677309	-0.054452
C66	C	0.317735	0.677318	-0.071211
C67	C	0.355039	0.677318	-0.135700
C68	C	0.355058	0.677319	-0.023476
C69	C	0.429678	0.677323	-0.040234
C70	C	0.429659	0.677321	-0.152458
C71	C	1.014419	0.677302	-0.227564
C72	C	1.093841	0.677299	-0.245384
C73	C	0.780409	0.677317	-0.378248
C74	C	0.780409	0.677318	-0.447210
C75	C	0.780465	0.880469	-0.175052
C76	C	0.780484	0.949419	-0.175051
C77	C	0.845032	0.677317	-0.494109
C78	C	0.845034	0.677311	-0.558902
C79	C	0.780410	0.677312	-0.576798
C80	C	0.715785	0.677311	-0.529893
C81	C	0.715787	0.677311	-0.465099
C82	C	0.715777	0.677310	-0.791202
C83	C	0.715779	0.677313	-0.856003
C84	C	0.845025	0.677311	-0.885005
C85	C	0.845027	0.677310	-0.820211
C86	C	0.780404	0.677304	-0.773310
C87	C	0.780403	0.677309	-0.703053
C88	C	0.780407	0.677314	-0.647056
C89	C	0.780406	0.677307	0.028138
C90	C	0.780406	0.677305	0.097099
C91	C	1.014362	0.474145	-0.227567
C92	C	1.093764	0.405192	-0.245389
C93	C	0.780349	0.474150	0.028134
C94	C	0.780329	0.405199	0.097095
C95	C	1.014360	0.474140	-0.024374
C96	C	1.093762	0.405186	0.026766
C97	C	0.546455	0.880484	-0.325737
C98	C	0.467053	0.949438	-0.376877
C99	C	0.546453	0.880479	-0.122544
C100	C	0.467052	0.949432	-0.104722
C101	C	0.780466	0.880474	-0.378245
C102	C	0.780486	0.949425	-0.447206
C103	C	1.085356	0.372814	-0.283190
C104	C	1.159956	0.308034	-0.299949
C105	C	1.242962	0.275629	-0.278903
C106	C	1.251367	0.308014	-0.241101
C107	C	1.176768	0.372797	-0.224346
C108	C	0.826014	0.372816	0.158910
C109	C	0.825992	0.308038	0.223713
C110	C	0.780289	0.275639	0.226698
C111	C	0.734598	0.308029	0.164876
C112	C	0.734615	0.372810	0.100075
C113	C	1.176753	0.372803	0.000849
C114	C	1.251366	0.308022	0.048893
C115	C	1.242986	0.275620	0.122852
C116	C	1.159986	0.308009	0.148770
C117	C	1.085375	0.372794	0.100726
C118	C	0.384062	0.981829	-0.350960
C119	C	0.309449	1.046630	-0.399003
C120	C	0.317829	1.079035	-0.472963
C121	C	0.400829	1.046642	-0.498880
C122	C	0.475440	0.981846	-0.450837
C123	C	0.475459	0.981817	-0.066928
C124	C	0.400859	1.046614	-0.050187
C125	C	0.317854	1.079021	-0.071235
C126	C	0.309448	1.046634	-0.109034
C127	C	0.384047	0.981842	-0.125779
C128	C	0.826199	0.981803	-0.450168
C129	C	0.826234	1.046581	-0.514961
C130	C	0.780552	1.078985	-0.576791
C131	C	0.734839	1.046601	-0.573827
C132	C	0.734809	0.981820	-0.509035
H133	H	0.897696	-0.146320	-0.099548
H134	H	1.017802	0.399151	0.121839
Cl135	Cl	0.883479	0.413529	0.155176
Cl136	Cl	0.224080	1.160473	-0.050176
H137	H	0.663269	0.057204	-0.250559
H138	H	0.663151	0.383383	-0.250561
H139	H	0.100783	0.677297	-0.145137
H140	H	0.241855	1.073029	-0.126169
H141	H	0.697646	1.072995	-0.624177
Cl142	Cl	0.634611	0.213969	-0.268988
H143	H	0.863398	0.955429	-0.399830
H144	H	0.407720	1.072973	-0.019407
Cl145	Cl	0.373462	0.941131	-0.173287
H146	H	0.863458	1.072942	-0.517360
H147	H	0.697387	0.281641	0.167316
H148	H	0.663105	0.500949	-0.250554
Cl149	Cl	0.780596	1.160429	-0.658238
H150	H	0.697581	0.955465	-0.506632
Cl151	Cl	0.634537	0.677307	-0.732248
H152	H	1.303697	0.222878	-0.292549
Cl153	Cl	0.224022	1.160492	-0.533352
H154	H	0.697415	0.399168	0.049745
H155	H	0.236125	0.677319	-0.379153
Cl156	Cl	0.926268	-0.039241	-0.081123
H157	H	0.780282	0.222890	0.279467
Cl158	Cl	0.579769	0.941128	-0.483431
Cl159	Cl	0.476542	0.677337	-0.233542
H160	H	0.407642	1.073035	-0.559104
Cl161	Cl	0.579800	0.941094	-0.040463
Cl162	Cl	1.149369	0.267332	-0.347467
Cl163	Cl	0.926202	0.140656	-0.081125
H164	H	0.897543	0.297427	-0.099557
H165	H	1.183593	0.399175	-0.059371
Cl166	Cl	0.448832	0.677315	-0.268989
Cl167	Cl	1.355724	0.267263	-0.214644
H168	H	0.348061	0.677326	-0.348180
Cl169	Cl	0.883441	0.267330	0.301421
Cl170	Cl	0.205117	1.087336	-0.366407
H171	H	1.318942	0.281657	0.027778
Cl172	Cl	1.336793	0.194174	0.183241
H173	H	1.153176	0.281618	0.208993
Cl174	Cl	0.634545	0.677306	-0.552387
Cl175	Cl	0.084233	0.677296	-0.369879
Cl176	Cl	0.111996	0.677295	-0.081117
Cl177	Cl	0.373504	0.941104	-0.257984
Cl178	Cl	0.196227	0.677303	0.026624
H179	H	0.324686	0.677309	0.029037
H180	H	0.897653	0.677322	-0.479546
Cl181	Cl	0.476592	0.677324	0.019775
H182	H	0.897655	0.677309	-0.597087
Cl183	Cl	0.926268	0.677313	-0.797717
Cl184	Cl	1.187353	0.413487	-0.176818
H185	H	0.897647	0.677312	-0.923198
H186	H	0.663166	0.677310	-0.426913
Cl187	Cl	0.634532	0.677312	-0.878499
H188	H	1.017776	0.399197	-0.300340
