data_functionalizedCrystal
_audit_creation_method	'MofGen! by Chris Wilmer'
_symmetry_space_group_name_H-M	'P1'
_symmetry_Int_Tables_number	1
_symmetry_cell_setting	triclinic
loop_
_symmetry_equiv_pos_as_xyz
  x,y,z
_cell_length_a	15.944551
_cell_length_b	14.421503
_cell_length_c	15.944551
_cell_angle_alpha	90.003340
_cell_angle_beta	96.501262
_cell_angle_gamma	90.003141
loop_
_atom_site_label
_atom_site_type_symbol
_atom_site_fract_x
_atom_site_fract_y
_atom_site_fract_z
O1	O	1.114529	0.077017	-0.108320
O2	O	1.447863	0.410350	0.225013
O3	O	1.781196	0.743684	0.558346
O4	O	0.869980	0.077040	-0.121677
O5	O	1.203313	0.410374	0.211657
O6	O	1.536646	0.743707	0.544990
O7	O	0.998933	0.077020	0.007276
O8	O	1.332266	0.410353	0.340610
O9	O	1.665599	0.743686	0.673943
O10	O	0.985576	0.077038	-0.237273
O11	O	1.318910	0.410371	0.096060
O12	O	1.652243	0.743704	0.429393
O13	O	0.998911	-0.077204	0.007257
O14	O	1.332245	0.256130	0.340590
O15	O	1.665578	0.589463	0.673924
O16	O	0.869958	-0.077183	-0.121696
O17	O	1.203292	0.256150	0.211637
O18	O	1.536625	0.589484	0.544971
O19	O	1.114508	-0.077206	-0.108340
O20	O	1.447841	0.256127	0.224994
O21	O	1.781175	0.589460	0.558327
Cu22	Cu	0.992231	-0.091277	-0.115020
Cu23	Cu	1.325564	0.242057	0.218314
Cu24	Cu	1.658898	0.575390	0.551647
Cu25	Cu	0.992256	0.091110	-0.114997
Cu26	Cu	1.325590	0.424444	0.218337
Cu27	Cu	1.658923	0.757777	0.551670
O28	O	0.985555	-0.077186	-0.237293
O29	O	1.318888	0.256148	0.096041
O30	O	1.652222	0.589481	0.429374
C31	C	0.838675	-0.000069	-0.121132
C32	C	1.172008	0.333265	0.212202
C33	C	1.505342	0.666598	0.545535
C34	C	0.745429	-0.000060	-0.119470
C35	C	1.078762	0.333273	0.213864
C36	C	1.412096	0.666607	0.547197
C37	C	0.530572	-0.000084	-0.035565
C38	C	0.863906	0.333249	0.297768
C39	C	1.197239	0.666583	0.631102
C40	C	0.469563	0.075959	-0.074518
C41	C	0.802896	0.409292	0.258815
C42	C	1.136229	0.742626	0.592149
C43	C	0.574703	-0.000071	-0.116462
C44	C	0.908036	0.333262	0.216871
C45	C	1.241370	0.666596	0.550204
C46	C	0.469564	-0.076093	-0.074556
C47	C	0.802897	0.257240	0.258777
C48	C	1.136230	0.590574	0.592111
C49	C	0.409790	-0.000086	-0.113551
C50	C	0.743124	0.333247	0.219782
C51	C	1.076457	0.666581	0.553115
C52	C	0.514922	0.076035	-0.155437
C53	C	0.848255	0.409368	0.177896
C54	C	1.181588	0.742702	0.511229
C55	C	0.514929	-0.076086	-0.155464
C56	C	0.848263	0.257248	0.177869
C57	C	1.181596	0.590581	0.511203
C58	C	0.453937	-0.000024	-0.194476
C59	C	0.787271	0.333309	0.138857
C60	C	1.120604	0.666643	0.472191
C61	C	0.669705	-0.000062	-0.118137
C62	C	1.003039	0.333272	0.215197
C63	C	1.336372	0.666605	0.548530
C64	C	0.314789	-0.000089	-0.111883
C65	C	0.648123	0.333245	0.221450
C66	C	0.981456	0.666578	0.554783
N67	N	0.992219	-0.219558	-0.115035
N68	N	1.325553	0.113775	0.218298
N69	N	1.658886	0.447109	0.551632
C70	C	0.932581	-0.469202	-0.174636
C71	C	1.265914	-0.135869	0.158697
C72	C	1.599248	0.197465	0.492031
C73	C	1.008481	-0.531011	-0.190943
C74	C	1.341814	-0.197677	0.142390
C75	C	1.675148	0.135656	0.475723
C76	C	0.992240	-0.408719	-0.115015
C77	C	1.325573	-0.075386	0.218318
C78	C	1.658907	0.257947	0.551652
C79	C	0.916359	-0.531005	-0.098727
C80	C	1.249693	-0.197671	0.234606
C81	C	1.583026	0.135662	0.567939
C82	C	0.992253	-0.591441	-0.114997
C83	C	1.325586	-0.258107	0.218336
C84	C	1.658920	0.075226	0.551669
C85	C	1.068178	-0.469167	-0.131360
C86	C	1.401512	-0.135834	0.201973
C87	C	1.734845	0.197500	0.535307
C88	C	0.976007	-0.469156	-0.039111
C89	C	1.309340	-0.135822	0.294222
C90	C	1.642673	0.197511	0.627556
C91	C	1.051961	-0.530936	-0.055386
C92	C	1.385295	-0.197603	0.277947
C93	C	1.718628	0.135730	0.611281
C94	C	0.992231	-0.303458	-0.115027
C95	C	1.325565	0.029875	0.218306
C96	C	1.658898	0.363208	0.551640
C97	C	0.992270	-0.696700	-0.114985
C98	C	1.325604	-0.363366	0.218349
C99	C	1.658937	-0.030033	0.551682
C100	C	1.145813	-0.000096	-0.108885
C101	C	1.479146	0.333238	0.224449
C102	C	1.812479	0.666571	0.557782
C103	C	1.239059	-0.000098	-0.110547
C104	C	1.572392	0.333235	0.222786
C105	C	1.905725	0.666569	0.556120
C106	C	0.998367	-0.000092	0.038561
C107	C	1.331701	0.333241	0.371894
C108	C	1.665034	0.666574	0.705227
C109	C	0.996705	-0.000093	0.131807
C110	C	1.330038	0.333241	0.465140
C111	C	1.663372	0.666574	0.798473
N112	N	0.992275	0.219392	-0.114975
N113	N	1.325608	0.552725	0.218359
N114	N	1.658941	0.886058	0.551692
C115	C	0.986120	-0.000072	-0.268577
C116	C	1.319453	0.333261	0.064756
C117	C	1.652787	0.666595	0.398090
C118	C	0.987782	-0.000066	-0.361823
C119	C	1.321116	0.333268	-0.028490
C120	C	1.654449	0.666601	0.304844
C121	C	0.912801	-0.000072	0.346663
C122	C	1.246134	0.333262	0.679997
C123	C	1.579467	0.666595	1.013330
C124	C	0.951753	-0.076117	0.407671
C125	C	1.285086	0.257216	0.741004
C126	C	1.618419	0.590550	1.074338
C127	C	0.993698	-0.000085	0.302533
C128	C	1.327031	0.333248	0.635866
C129	C	1.660365	0.666582	0.969199
C130	C	0.951793	0.075935	0.407674
C131	C	1.285126	0.409269	0.741007
C132	C	1.618459	0.742602	1.074340
C133	C	0.990787	-0.000074	0.467445
C134	C	1.324120	0.333259	0.800779
C135	C	1.657454	0.666593	1.134112
C136	C	1.032672	-0.076193	0.362312
C137	C	1.366005	0.257140	0.695645
C138	C	1.699339	0.590474	1.028979
C139	C	1.032701	0.075927	0.362308
C140	C	1.366034	0.409261	0.695641
C141	C	1.699367	0.742594	1.028975
C142	C	1.071711	-0.000136	0.423298
C143	C	1.405045	0.333197	0.756632
C144	C	1.738378	0.666530	1.089965
C145	C	0.995372	-0.000092	0.207530
C146	C	1.328706	0.333241	0.540864
C147	C	1.662039	0.666574	0.874197
C148	C	0.989119	-0.000073	0.562446
C149	C	1.322452	0.333260	0.895780
C150	C	1.655785	0.666593	1.229113
H151	H	0.563905	0.000005	0.031573
H152	H	0.897238	0.333338	0.364906
H153	H	1.230572	0.666672	0.698240
H154	H	1.066897	0.140214	0.342186
H155	H	1.400230	0.473548	0.675519
H156	H	1.733563	0.806881	1.008852
H157	H	0.917575	0.140230	0.427758
H158	H	1.250908	0.473563	0.761092
H159	H	1.584242	0.806897	1.094425
Br160	Br	1.183726	-0.000212	0.478568
Br161	Br	1.517060	0.333121	0.811901
Br162	Br	1.850393	0.666455	1.145235
Br163	Br	0.548244	0.183305	-0.212412
Br164	Br	0.881577	0.516638	0.120921
Br165	Br	1.214910	0.849971	0.454254
Br166	Br	0.436062	0.183108	-0.017481
Br167	Br	0.769395	0.516441	0.315853
Br168	Br	1.102729	0.849775	0.649186
H169	H	1.022224	-0.558180	-0.255126
H170	H	1.355557	-0.224846	0.078207
H171	H	1.688890	0.108487	0.411541
Br172	Br	0.548471	-0.183236	-0.212462
Br173	Br	0.881804	0.150097	0.120871
Br174	Br	1.215138	0.483431	0.454205
H175	H	0.420779	0.000023	-0.261683
H176	H	0.754112	0.333357	0.071650
H177	H	1.087445	0.666690	0.404984
H178	H	0.845652	-0.000141	0.313356
H179	H	1.178986	0.333192	0.646689
H180	H	1.512319	0.666525	0.980022
H181	H	0.449469	-0.140379	-0.040333
H182	H	0.782802	0.192954	0.293000
H183	H	1.116135	0.526287	0.626334
Br184	Br	0.953064	-0.423832	0.067833
Br185	Br	1.286397	-0.090499	0.401166
Br186	Br	1.619730	0.242834	0.734499
H187	H	0.882181	-0.442096	-0.225096
H188	H	1.215514	-0.108763	0.108237
H189	H	1.548848	0.224571	0.441571
Br190	Br	1.175170	-0.424092	-0.154432
Br191	Br	1.508503	-0.090759	0.178902
Br192	Br	1.841836	0.242575	0.512235
Br193	Br	1.136147	-0.575839	0.028668
Br194	Br	1.469480	-0.242505	0.362001
Br195	Br	1.802814	0.090828	0.695335
H196	H	0.917527	-0.140401	0.427771
H197	H	1.250861	0.192933	0.761105
H198	H	1.584194	0.526266	1.094438
Br199	Br	0.809397	-0.576283	-0.075777
Br200	Br	1.142731	-0.242950	0.257556
Br201	Br	1.476064	0.090383	0.590889
H202	H	1.066850	-0.140554	0.342314
H203	H	1.400184	0.192779	0.675647
H204	H	1.733517	0.526113	1.008980
