data_functionalizedCrystal
_audit_creation_method	'MofGen! by Chris Wilmer'
_symmetry_space_group_name_H-M	'P1'
_symmetry_Int_Tables_number	1
_symmetry_cell_setting	triclinic
loop_
_symmetry_equiv_pos_as_xyz
  x,y,z
_cell_length_a	14.519709
_cell_length_b	10.723023
_cell_length_c	9.198806
_cell_angle_alpha	89.996513
_cell_angle_beta	89.995869
_cell_angle_gamma	84.073846
loop_
_atom_site_label
_atom_site_type_symbol
_atom_site_fract_x
_atom_site_fract_y
_atom_site_fract_z
O1	O	0.129344	1.655979	-0.120881
O2	O	0.141726	1.292711	-0.120888
O3	O	0.001346	1.483976	-0.120871
O4	O	0.269724	1.464713	-0.120898
O5	O	0.001345	1.483961	0.120914
O6	O	0.141725	1.292695	0.120897
O7	O	0.129344	1.655964	0.120904
Cu8	Cu	0.135534	1.474328	0.142978
Cu9	Cu	0.135535	1.474346	-0.142961
O10	O	0.269724	1.464698	0.120887
C11	C	0.140825	1.246212	0.000004
C12	C	0.138129	1.107683	0.000002
C13	C	0.136927	1.045914	0.125253
C14	C	0.134141	0.902737	0.125254
C15	C	-0.033019	1.483071	0.000022
C16	C	-0.135414	1.480381	0.000022
C17	C	-0.510360	1.470477	-0.000015
C18	C	-0.406038	1.473227	-0.000004
C19	C	-0.322890	1.475428	0.000005
C20	C	-0.218562	1.478179	0.000013
C21	C	0.304088	1.465603	-0.000008
C22	C	0.406483	1.468293	-0.000019
C23	C	0.130245	1.702462	0.000009
C24	C	0.132940	1.840992	0.000001
N25	N	0.135534	1.474325	0.344092
N26	N	0.135529	1.474359	-0.344075
C27	C	0.076332	1.554634	0.416296
C28	C	0.076329	1.554653	0.583708
H29	H	0.137093	1.054567	-0.107229
H30	H	0.137956	1.099031	0.232484
H31	H	0.025647	1.623414	0.645800
H32	H	0.186219	1.405604	0.593842
O33	O	0.134337	0.904260	-0.127976
C34	C	0.213440	0.858569	-0.208228
H35	H	0.268469	0.812944	-0.131169
H36	H	0.193944	0.786267	-0.290522
C37	C	0.184261	1.023995	-0.383466
C38	C	0.251852	0.967967	-0.288818
H39	H	0.207953	1.091475	-0.433184
H40	H	0.130965	1.054776	-0.329402
H41	H	0.168020	0.963732	-0.452031
H42	H	0.268083	1.028226	-0.220245
H43	H	0.305151	0.937198	-0.342873
H44	H	0.186213	1.405578	0.406214
H45	H	0.133113	0.849616	0.232486
H46	H	0.025646	1.623372	0.354175
