data_functionalizedCrystal
_audit_creation_method	'MofGen! by Chris Wilmer'
_symmetry_space_group_name_H-M	'P1'
_symmetry_Int_Tables_number	1
_symmetry_cell_setting	triclinic
loop_
_symmetry_equiv_pos_as_xyz
  x,y,z
_cell_length_a	12.645331
_cell_length_b	12.645330
_cell_length_c	15.296720
_cell_angle_alpha	80.350659
_cell_angle_beta	80.338737
_cell_angle_gamma	90.016671
loop_
_atom_site_label
_atom_site_type_symbol
_atom_site_fract_x
_atom_site_fract_y
_atom_site_fract_z
Zn1	Zn	1.516907	-0.525781	0.510105
Zn2	Zn	2.016907	-0.025781	1.010105
Zn3	Zn	1.547490	-0.672398	0.359264
Zn4	Zn	2.047490	-0.172398	0.859264
Zn5	Zn	1.370322	-0.495146	0.359267
Zn6	Zn	1.870322	0.004854	0.859267
Zn7	Zn	1.339611	-0.702992	0.510067
Zn8	Zn	1.839611	-0.202992	1.010067
O9	O	1.443583	-0.599079	0.434676
O10	O	1.943583	-0.099079	0.934676
O11	O	1.669308	-0.545247	0.490110
O12	O	2.169308	-0.045247	0.990110
O13	O	1.549640	-0.623261	0.233027
O14	O	2.049640	-0.123261	0.733027
O15	O	1.389821	-0.350866	0.379294
O16	O	1.889821	0.149134	0.879294
O17	O	1.691778	-0.652965	0.379287
O18	O	2.191778	-0.152965	0.879287
O19	O	1.497516	-0.373373	0.490113
O20	O	1.997516	0.126627	0.990113
O21	O	1.419476	-0.493035	0.233029
O22	O	1.919476	0.006965	0.733029
O23	O	1.217904	-0.522700	0.379257
O24	O	1.717904	-0.022700	0.879257
O25	O	1.337478	-0.705108	0.636310
O26	O	1.837478	-0.205108	1.136310
O27	O	1.195341	-0.675404	0.490049
O28	O	1.695341	-0.175404	0.990049
O29	O	1.467736	-0.574912	0.636337
O30	O	1.967736	-0.074912	1.136337
O31	O	1.519861	-0.824800	0.379251
O32	O	2.019861	-0.324800	0.879251
O33	O	1.367133	-0.847277	0.490045
O34	O	1.867133	-0.347277	0.990045
C35	C	1.168158	-0.599049	0.434650
C36	C	1.668158	-0.099049	0.934650
C37	C	1.050326	-0.599065	0.434660
C38	C	1.550326	-0.099065	0.934660
C39	C	0.896843	-0.502701	0.365345
C40	C	1.396843	-0.002701	0.865345
C41	C	1.019465	-0.502852	0.365040
C42	C	1.519465	-0.002852	0.865040
C43	C	1.011091	-0.705459	0.408693
C44	C	1.511091	-0.205459	0.908693
C45	C	0.888589	-0.704914	0.408220
C46	C	1.388589	-0.204914	0.908220
C47	C	0.863729	-0.590153	0.530209
C48	C	1.363729	-0.090153	1.030209
C49	C	0.986443	-0.587550	0.529678
C50	C	1.486443	-0.087550	1.029678
C51	C	1.443508	-0.874506	0.434663
C52	C	1.943508	-0.374506	0.934663
C53	C	1.443567	-0.992341	0.434688
C54	C	1.943567	-0.492341	0.934688
C55	C	1.347780	-1.174133	0.504604
C56	C	1.847780	-0.674133	1.004604
C57	C	1.347408	-1.051528	0.504379
C58	C	1.847408	-0.551528	1.004379
C59	C	1.432672	-1.017604	0.339617
C60	C	1.932672	-0.517604	0.839617
C61	C	1.432087	-1.140288	0.340041
C62	C	1.932087	-0.640288	0.840041
C63	C	1.550905	-1.164391	0.459072
C64	C	2.050905	-0.664391	0.959072
C65	C	1.549793	-1.042206	0.461151
C66	C	2.049793	-0.542206	0.961151
C67	C	1.720082	-0.599110	0.434702
C68	C	2.220082	-0.099110	0.934702
C69	C	1.837910	-0.599124	0.434714
C70	C	2.337910	-0.099124	0.934714
C71	C	1.395770	-0.646840	0.669971
C72	C	1.895770	-0.146840	1.169971
C73	C	1.375395	-0.667193	0.770240
C74	C	1.875395	-0.167193	1.270240
C75	C	1.443683	-0.322580	0.434708
C76	C	1.943683	0.177420	0.934708
C77	C	1.443725	-0.204753	0.434722
C78	C	1.943725	0.295247	0.934722
C79	C	1.491270	-0.551427	0.200296
C80	C	1.991270	-0.051427	0.700296
C81	C	1.511851	-0.530776	0.100028
C82	C	2.011851	-0.030776	0.600028
C83	C	1.589245	-0.453428	1.052939
C84	C	2.089245	0.046572	1.552939
C85	C	1.608395	-0.434307	0.958731
C86	C	2.108395	0.065693	1.458731
C87	C	1.550146	-0.492526	0.911604
C88	C	2.050146	0.007474	1.411604
C89	C	1.472745	-0.569871	0.958693
C90	C	1.972745	-0.069871	1.458693
C91	C	1.453599	-0.588999	1.052910
C92	C	1.953599	-0.088999	1.552910
C93	C	1.414500	-0.628098	0.911575
C94	C	1.914500	-0.128098	1.411575
C95	C	1.337099	-0.705442	0.958664
C96	C	1.837099	-0.205442	1.458664
C97	C	1.317956	-0.724567	1.052871
C98	C	1.817956	-0.224567	1.552871
C99	C	1.376205	-0.666347	1.099999
C100	C	1.876205	-0.166347	1.599999
C101	C	1.433646	-0.608969	0.817358
C102	C	1.933646	-0.108969	1.317358
C103	C	1.298000	-0.744541	0.817329
C104	C	1.798000	-0.244541	1.317329
C105	C	1.278851	-0.763662	0.911536
C106	C	1.778851	-0.263662	1.411536
H107	H	1.006018	-0.654204	0.584127
H108	H	1.506018	-0.154204	1.084127
Br109	Br	1.355028	-1.247127	0.622490
Br110	Br	1.855028	-0.747127	1.122490
Br111	Br	1.302462	-1.181122	0.305659
Br112	Br	1.802462	-0.681122	0.805659
Br113	Br	1.085608	-0.722875	0.293584
Br114	Br	1.585608	-0.222875	0.793584
Br115	Br	1.564079	-1.017338	0.577769
Br116	Br	2.064079	-0.517338	1.077769
Br117	Br	1.214317	-0.997324	0.477498
Br118	Br	1.714317	-0.497324	0.977498
H119	H	1.499986	-1.158999	0.286198
H120	H	1.999986	-0.658999	0.786198
Br121	Br	0.869269	-0.509760	0.248093
Br122	Br	1.369269	-0.009760	0.748093
Br123	Br	1.672637	-0.975122	0.382504
Br124	Br	2.172637	-0.475122	0.882504
H125	H	1.046253	-0.423351	0.381316
H126	H	1.546253	0.076649	0.881316
H127	H	1.215829	-0.826636	0.949890
H128	H	1.715829	-0.326636	1.449890
H129	H	1.565743	-0.476954	0.834896
H130	H	2.065743	0.023046	1.334896
Br131	Br	0.842277	-0.369711	0.392178
Br132	Br	1.342277	0.130289	0.892178
H133	H	1.351983	-1.035708	0.574873
H134	H	1.851983	-0.535708	1.074873
Br135	Br	1.304593	-0.959471	0.304611
Br136	Br	1.804593	-0.459471	0.804611
H137	H	1.250572	-0.791950	0.778958
H138	H	1.750572	-0.291950	1.278958
Br139	Br	1.713437	-0.329347	0.894831
Br140	Br	2.213437	0.170653	1.394831
H141	H	1.063146	-0.507226	0.294274
H142	H	1.563146	-0.007226	0.794274
Br143	Br	1.350222	-0.692299	1.227857
Br144	Br	1.850222	-0.192299	1.727857
Br145	Br	0.864521	-0.721379	0.291863
Br146	Br	1.364521	-0.221379	0.791863
H147	H	0.849109	-0.778149	0.456542
H148	H	1.349109	-0.278149	0.956542
Br149	Br	1.212933	-0.829556	1.116777
Br150	Br	1.712933	-0.329556	1.616777
Br151	Br	1.573774	-1.238894	0.572656
Br152	Br	2.073774	-0.738894	1.072656
H153	H	1.030300	-0.778382	0.457632
H154	H	1.530300	-0.278382	0.957632
H155	H	1.622149	-1.183031	0.408174
H156	H	2.122149	-0.683031	0.908174
H157	H	0.828026	-0.514943	0.553825
H158	H	1.328026	-0.014943	1.053825
Br159	Br	0.797898	-0.707599	0.616356
Br160	Br	1.297898	-0.207599	1.116356
Br161	Br	1.668300	-0.374438	1.116900
Br162	Br	2.168300	0.125562	1.616900
H163	H	1.501194	-0.977570	0.286127
H164	H	2.001194	-0.477570	0.786127
Br165	Br	1.028323	-0.457227	0.562328
Br166	Br	1.528323	0.042773	1.062328
Br167	Br	1.215487	-1.220269	0.478084
Br168	Br	1.715487	-0.720269	0.978084
H169	H	1.496667	-0.545994	0.779027
H170	H	1.996667	-0.045994	1.279027
