data_functionalizedCrystal
_audit_creation_method	'MofGen! by Chris Wilmer'
_symmetry_space_group_name_H-M	'P1'
_symmetry_Int_Tables_number	1
_symmetry_cell_setting	triclinic
loop_
_symmetry_equiv_pos_as_xyz
  x,y,z
_cell_length_a	17.699083
_cell_length_b	17.699083
_cell_length_c	8.140239
_cell_angle_alpha	89.995965
_cell_angle_beta	90.002519
_cell_angle_gamma	83.283015
loop_
_atom_site_label
_atom_site_type_symbol
_atom_site_fract_x
_atom_site_fract_y
_atom_site_fract_z
O1	O	1.004075	0.095710	-0.136386
O2	O	0.783697	0.108162	-0.136441
O3	O	0.900112	-0.008253	-0.136397
O4	O	0.887659	0.212125	-0.136430
O5	O	0.900104	-0.008254	0.136830
O6	O	0.783688	0.108162	0.136786
O7	O	1.004067	0.095709	0.136841
Zn8	Zn	0.893876	0.101935	0.180194
Zn9	Zn	0.893887	0.101936	-0.179794
O10	O	0.887651	0.212125	0.136798
C11	C	0.755495	0.107716	0.000166
C12	C	0.671477	0.106377	0.000146
C13	C	0.622856	0.174710	0.000136
C14	C	0.543913	0.173448	0.000158
C15	C	0.513592	0.103852	0.000177
C16	C	0.562219	0.035513	0.000191
C17	C	0.641161	0.036776	0.000182
C18	C	0.243856	0.030418	0.000233
C19	C	0.164908	0.029160	0.000237
C20	C	0.146608	0.167090	0.000209
C21	C	0.225550	0.168353	0.000199
C22	C	0.274170	0.100015	0.000222
C23	C	0.359769	0.101384	0.000202
C24	C	0.427995	0.102481	0.000185
C25	C	0.899662	-0.036451	0.000216
C26	C	0.898323	-0.120469	0.000216
C27	C	0.966656	-0.169090	0.000236
C28	C	0.965394	-0.248033	0.000221
C29	C	0.895798	-0.278354	0.000199
C30	C	0.827459	-0.229727	0.000174
C31	C	0.828722	-0.150785	0.000178
C32	C	0.822364	-0.548090	0.000160
C33	C	0.821106	-0.627038	0.000162
C34	C	0.959036	-0.645338	0.000203
C35	C	0.960299	-0.566396	0.000206
C36	C	0.891961	-0.517776	0.000173
C37	C	0.893330	-0.432177	0.000186
C38	C	0.894427	-0.363951	0.000197
C39	C	1.032268	0.096156	0.000230
C40	C	1.116286	0.097494	0.000240
C41	C	0.888102	0.240322	0.000180
C42	C	0.889440	0.324340	0.000169
N43	N	0.893874	0.101935	0.425877
N44	N	0.893888	0.101934	0.574523
H45	H	0.647537	0.231384	0.000120
H46	H	0.537526	-0.021154	0.000230
O47	O	0.753543	-0.656582	-0.000094
C48	C	0.748694	-0.701680	-0.141622
H49	H	0.808389	-0.721448	-0.188767
H50	H	0.718619	-0.753322	-0.109811
H51	H	0.715153	-0.666741	-0.240729
H52	H	0.107012	0.222734	0.000199
H53	H	0.140225	-0.027517	0.000255
H54	H	0.680748	-0.018868	0.000188
O55	O	1.025472	-0.692492	-0.000004
C56	C	1.067734	-0.678774	-0.141515
H57	H	1.049040	-0.618852	-0.188691
H58	H	1.130867	-0.684445	-0.109668
H59	H	1.057469	-0.721930	-0.240612
H60	H	0.766718	-0.508512	0.000134
H61	H	0.504328	0.229092	0.000148
O62	O	0.759918	-0.259304	0.000225
C63	C	0.773455	-0.339406	0.000191
H64	H	0.832551	-0.358055	0.051934
H65	H	0.728927	-0.363564	0.079506
H66	H	0.769831	-0.361371	-0.130890
H67	H	0.773078	-0.111198	0.000162
O68	O	0.254909	0.236008	-0.000042
C69	C	0.230056	0.277646	-0.141573
H70	H	0.175342	0.257115	-0.188740
H71	H	0.218980	0.340695	-0.109758
H72	H	0.275750	0.268799	-0.240666
O73	O	0.290971	-0.036033	0.000175
C74	C	0.247278	-0.097728	0.000231
H75	H	0.188322	-0.078406	-0.051503
H76	H	0.276483	-0.145601	-0.079082
H77	H	0.241697	-0.119065	0.131317
O78	O	1.034330	-0.139765	0.000180
C79	C	1.094371	-0.199612	0.000229
H80	H	1.073251	-0.253199	-0.051500
H81	H	1.142972	-0.183203	-0.079089
H82	H	1.115442	-0.210826	0.131313
O83	O	1.027858	-0.536854	0.000005
C84	C	1.032724	-0.491750	-0.141523
H85	H	0.973035	-0.471977	-0.188709
H86	H	1.062800	-0.440112	-0.109694
H87	H	1.066273	-0.526688	-0.240605
O88	O	1.031755	-0.295291	-0.000052
C89	C	1.035153	-0.341505	-0.141546
H90	H	0.996399	-0.312518	-0.240458
H91	H	1.096138	-0.350487	-0.189028
H92	H	1.015672	-0.398880	-0.109571
