data_functionalizedCrystal
_audit_creation_method	'MofGen! by Chris Wilmer'
_symmetry_space_group_name_H-M	'P1'
_symmetry_Int_Tables_number	1
_symmetry_cell_setting	triclinic
loop_
_symmetry_equiv_pos_as_xyz
  x,y,z
_cell_length_a	10.489741
_cell_length_b	10.489741
_cell_length_c	9.565339
_cell_angle_alpha	89.999424
_cell_angle_beta	90.005414
_cell_angle_gamma	84.539174
loop_
_atom_site_label
_atom_site_type_symbol
_atom_site_fract_x
_atom_site_fract_y
_atom_site_fract_z
O1	O	-1.694041	-0.179962	0.116173
O2	O	-1.322845	-0.196855	0.116194
O3	O	-1.516889	-0.002811	0.116175
O4	O	-1.499997	-0.374006	0.116192
O5	O	-1.516898	-0.002816	-0.116345
O6	O	-1.322854	-0.196861	-0.116326
O7	O	-1.694050	-0.179968	-0.116347
Zn8	Zn	-1.508453	-0.188415	-0.153254
Zn9	Zn	-1.508442	-0.188407	0.153101
O10	O	-1.500005	-0.374012	-0.116328
C11	C	-1.275318	-0.195582	-0.000063
C12	C	-1.133688	-0.191765	-0.000055
C13	C	-1.515618	0.044718	-0.000084
C14	C	-1.511801	0.186348	-0.000082
C15	C	-1.741577	-0.181241	-0.000087
C16	C	-1.883206	-0.185058	-0.000086
C17	C	-1.065548	-0.068300	-0.000074
C18	C	-0.973417	-0.126621	0.114571
C19	C	-0.973460	-0.126656	-0.114676
C20	C	-1.043423	-0.250136	0.114684
C21	C	-1.043475	-0.250154	-0.114665
C22	C	-0.951371	-0.308564	0.000007
C23	C	-1.501277	-0.421541	-0.000066
C24	C	-1.505094	-0.563170	-0.000059
N25	N	-1.508470	-0.188419	-0.362334
C26	C	-1.388336	0.254488	-0.000064
C27	C	-1.446664	0.346608	-0.114712
C28	C	-1.446685	0.346588	0.114534
C29	C	-1.570179	0.276602	-0.114824
C30	C	-1.570183	0.276573	0.114525
C31	C	-1.628600	0.368665	-0.000150
C32	C	-1.598238	-0.098687	-0.453508
C33	C	-1.482742	-0.072852	-0.546673
C34	C	-1.623920	-0.214171	-0.546724
C35	C	-1.392916	-0.162527	-0.453447
C36	C	-1.534170	-0.303897	-0.453489
C37	C	-1.418591	-0.278111	-0.546612
N38	N	-1.508435	-0.188393	0.362180
H39	H	-1.115238	0.033196	0.000065
C40	C	-1.376089	0.388436	0.245475
H41	H	-1.290738	0.348950	0.245329
H42	H	-1.374841	0.478866	0.244999
H43	H	-1.419123	0.363281	0.326883
H44	H	-1.674078	-0.022763	-0.412627
C45	C	-1.755830	-0.243620	-0.602071
H46	H	-1.819516	-0.179792	-0.570175
H47	H	-1.754648	-0.244175	-0.701371
H48	H	-1.774715	-0.325051	-0.568782
C49	C	-1.315912	-0.380608	-0.601507
H50	H	-1.233974	-0.362091	-0.569394
H51	H	-1.333483	-0.462433	-0.568190
H52	H	-1.316919	-0.380509	-0.700818
C53	C	-1.085437	-0.320667	-0.245598
H54	H	-1.061743	-0.276682	-0.326985
H55	H	-1.044763	-0.405537	-0.246420
H56	H	-1.175710	-0.323255	-0.244182
C57	C	-1.251205	0.187418	-0.000189
H58	H	-1.238470	0.136019	0.081312
H59	H	-1.239091	0.134855	-0.080865
H60	H	-1.191449	0.250017	-0.001066
H61	H	-1.622376	0.245531	0.211451
C62	C	-1.640685	0.234957	-0.245917
H63	H	-1.642639	0.144598	-0.245151
H64	H	-1.725779	0.275072	-0.246259
H65	H	-1.597105	0.259488	-0.327224
H66	H	-1.460981	0.024816	-0.587605
C67	C	-1.563617	-0.435790	-0.398134
H68	H	-1.645734	-0.453969	-0.430014
H69	H	-1.500677	-0.499701	-0.431396
H70	H	-1.562639	-0.435058	-0.298827
C71	C	-1.765848	0.435447	-0.000243
H72	H	-1.809495	0.411491	-0.081758
H73	H	-1.810034	0.410410	0.080421
H74	H	-1.762682	0.525653	0.000520
C75	C	-1.260964	-0.132952	-0.398341
H76	H	-1.261793	-0.133106	-0.299025
H77	H	-1.197172	-0.196316	-0.430971
H78	H	-1.242533	-0.051174	-0.431013
C79	C	-1.085048	-0.320643	0.245775
H80	H	-1.011809	-0.347678	0.300446
H81	H	-1.142290	-0.264549	0.299366
H82	H	-1.126708	-0.393217	0.218378
H83	H	-0.942485	-0.074395	-0.211599
C84	C	-0.931501	-0.056049	0.245494
H85	H	-0.970962	0.029312	0.245354
H86	H	-0.956612	-0.099087	0.326911
H87	H	-0.841064	-0.054808	0.244966
C88	C	-0.884590	-0.445812	0.000087
H89	H	-0.833178	-0.458610	-0.081390
H90	H	-0.832071	-0.458080	0.080788
H91	H	-0.947330	-0.505422	0.000892
H92	H	-1.394427	0.377617	-0.211633
