data_functionalizedCrystal
_audit_creation_method	'MofGen! by Chris Wilmer'
_symmetry_space_group_name_H-M	'P1'
_symmetry_Int_Tables_number	1
_symmetry_cell_setting	triclinic
loop_
_symmetry_equiv_pos_as_xyz
  x,y,z
_cell_length_a	14.044220
_cell_length_b	9.065218
_cell_length_c	12.503572
_cell_angle_alpha	86.429307
_cell_angle_beta	86.156832
_cell_angle_gamma	90.897619
loop_
_atom_site_label
_atom_site_type_symbol
_atom_site_fract_x
_atom_site_fract_y
_atom_site_fract_z
O1	O	0.133725	-1.983617	0.089327
O2	O	0.383725	-1.733617	0.339327
O3	O	0.633725	-1.483617	0.589327
O4	O	0.883725	-1.233617	0.839327
O5	O	0.145138	-1.555597	0.089329
O6	O	0.395138	-1.305597	0.339329
O7	O	0.645138	-1.055597	0.589329
O8	O	0.895138	-0.805597	0.839329
O9	O	0.001393	-1.763181	0.089317
O10	O	0.251393	-1.513181	0.339317
O11	O	0.501393	-1.263181	0.589317
O12	O	0.751393	-1.013181	0.839317
O13	O	0.277471	-1.776032	0.089338
O14	O	0.527471	-1.526032	0.339338
O15	O	0.777471	-1.276032	0.589338
O16	O	1.027471	-1.026032	0.839338
O17	O	0.012221	-1.747572	-0.089324
O18	O	0.262221	-1.497572	0.160676
O19	O	0.512221	-1.247572	0.410676
O20	O	0.762221	-0.997572	0.660676
O21	O	0.155967	-1.539988	-0.089312
O22	O	0.405967	-1.289988	0.160688
O23	O	0.655967	-1.039988	0.410688
O24	O	0.905967	-0.789988	0.660688
O25	O	0.144554	-1.968007	-0.089314
O26	O	0.394554	-1.718007	0.160686
O27	O	0.644554	-1.468007	0.410686
O28	O	0.894554	-1.218007	0.660686
Cu29	Cu	0.151249	-1.752572	-0.105625
Cu30	Cu	0.401249	-1.502572	0.144375
Cu31	Cu	0.651249	-1.252572	0.394375
Cu32	Cu	0.901249	-1.002572	0.644375
Cu33	Cu	0.138443	-1.771032	0.105639
Cu34	Cu	0.388443	-1.521032	0.355639
Cu35	Cu	0.638443	-1.271032	0.605639
Cu36	Cu	0.888443	-1.021032	0.855639
O37	O	0.288300	-1.760423	-0.089303
O38	O	0.538300	-1.510423	0.160697
O39	O	0.788300	-1.260423	0.410697
O40	O	1.038300	-1.010423	0.660697
C41	C	0.149456	-1.492684	0.000008
C42	C	0.399456	-1.242684	0.250008
C43	C	0.649456	-0.992684	0.500008
C44	C	0.899456	-0.742684	0.750008
C45	C	0.146176	-1.328478	0.000009
C46	C	0.396176	-1.078478	0.250009
C47	C	0.646176	-0.828478	0.500009
C48	C	0.896176	-0.578478	0.750009
C49	C	-0.028556	-1.749752	-0.000004
C50	C	0.221444	-1.499752	0.249996
C51	C	0.471444	-1.249752	0.499996
C52	C	0.721444	-0.999752	0.749996
C53	C	-0.133925	-1.732975	-0.000005
C54	C	0.116075	-1.482975	0.249995
C55	C	0.366075	-1.232975	0.499995
C56	C	0.616075	-0.982975	0.749995
C57	C	0.140236	-2.030920	0.000009
C58	C	0.390236	-1.780920	0.250009
C59	C	0.640236	-1.530920	0.500009
C60	C	0.890236	-1.280920	0.750009
C61	C	0.143516	-2.195127	0.000015
C62	C	0.393516	-1.945127	0.250015
C63	C	0.643516	-1.695127	0.500015
C64	C	0.893516	-1.445127	0.750015
C65	C	-0.326851	-1.702305	0.000011
C66	C	-0.076851	-1.452305	0.250011
C67	C	0.173149	-1.202305	0.500011
C68	C	0.423149	-0.952305	0.750011
C69	C	-0.383463	-1.821294	0.000013
C70	C	-0.133463	-1.571294	0.250013
C71	C	0.116537	-1.321294	0.500013
C72	C	0.366537	-1.071294	0.750013
C73	C	-0.490813	-1.804228	0.000022
C74	C	-0.240813	-1.554228	0.250022
C75	C	0.009187	-1.304228	0.500022
C76	C	0.259187	-1.054228	0.750022
C77	C	-0.219491	-1.719368	0.000002
C78	C	0.030509	-1.469368	0.250002
C79	C	0.280509	-1.219368	0.500002
C80	C	0.530509	-0.969368	0.750002
C81	C	0.318248	-1.773852	0.000021
C82	C	0.568248	-1.523852	0.250021
C83	C	0.818248	-1.273852	0.500021
C84	C	1.068248	-1.023852	0.750021
C85	C	0.423617	-1.790630	0.000029
C86	C	0.673617	-1.540630	0.250029
C87	C	0.923617	-1.290630	0.500029
C88	C	1.173617	-1.040630	0.750029
N89	N	0.160256	-1.739599	-0.254216
N90	N	0.410256	-1.489599	-0.004216
N91	N	0.660256	-1.239599	0.245784
N92	N	0.910256	-0.989599	0.495784
C93	C	0.173513	-1.720517	-0.473330
C94	C	0.423513	-1.470517	-0.223330
C95	C	0.673513	-1.220517	0.026670
C96	C	0.923513	-0.970517	0.276670
C97	C	0.116175	-1.803094	-0.526662
C98	C	0.366175	-1.553094	-0.276662
C99	C	0.616175	-1.303094	-0.026662
C100	C	0.866175	-1.053094	0.223338
C101	C	0.123551	-1.792476	-0.648585
C102	C	0.373551	-1.542476	-0.398585
C103	C	0.623551	-1.292476	-0.148585
C104	C	0.873551	-1.042476	0.101415
C105	C	0.166138	-1.731133	-0.351397
C106	C	0.416138	-1.481133	-0.101397
C107	C	0.666138	-1.231133	0.148603
C108	C	0.916138	-0.981133	0.398603
N109	N	0.129429	-1.784016	0.254231
N110	N	0.379429	-1.534016	0.504231
N111	N	0.629429	-1.284016	0.754231
N112	N	0.879429	-1.034016	1.004231
H113	H	-0.351312	-1.935987	0.000085
H114	H	-0.101312	-1.685987	0.250085
H115	H	0.148688	-1.435987	0.500085
H116	H	0.398688	-1.185987	0.750085
H117	H	-0.359005	-1.587627	0.000014
H118	H	-0.109005	-1.337627	0.250014
H119	H	0.140995	-1.087627	0.500014
H120	H	0.390995	-0.837627	0.750014
H121	H	0.228139	-1.641852	-0.519233
H122	H	0.478139	-1.391852	-0.269233
H123	H	0.728139	-1.141852	-0.019233
H124	H	0.978139	-0.891852	0.230767
H125	H	0.061547	-1.881765	-0.480754
H126	H	0.311547	-1.631765	-0.230754
H127	H	0.561547	-1.381765	0.019246
H128	H	0.811547	-1.131765	0.269246
