data_functionalizedCrystal
_audit_creation_method	'MofGen! by Chris Wilmer'
_symmetry_space_group_name_H-M	'P1'
_symmetry_Int_Tables_number	1
_symmetry_cell_setting	triclinic
loop_
_symmetry_equiv_pos_as_xyz
  x,y,z
_cell_length_a	16.959455
_cell_length_b	19.121063
_cell_length_c	16.959447
_cell_angle_alpha	92.406654
_cell_angle_beta	89.983056
_cell_angle_gamma	92.465894
loop_
_atom_site_label
_atom_site_type_symbol
_atom_site_fract_x
_atom_site_fract_y
_atom_site_fract_z
Zn1	Zn	1.194936	-0.279656	-0.460312
Zn2	Zn	1.189196	-0.397116	-0.333763
Zn3	Zn	1.062757	-0.279678	-0.328150
Zn4	Zn	1.057075	-0.397064	-0.465899
O5	O	1.125991	-0.338378	-0.397031
O6	O	1.304785	-0.295250	-0.443535
O7	O	1.172399	-0.381569	-0.222409
O8	O	1.085072	-0.181391	-0.340995
O9	O	1.300567	-0.381548	-0.350560
O10	O	1.182183	-0.181374	-0.438093
O11	O	1.079505	-0.295288	-0.218285
O12	O	0.951393	-0.295237	-0.346412
O13	O	1.075387	-0.381458	-0.575767
O14	O	0.947218	-0.381480	-0.447615
O15	O	1.176673	-0.295199	-0.571662
O16	O	1.166889	-0.495394	-0.355978
O17	O	1.069820	-0.495355	-0.453058
C18	C	0.920626	-0.338355	-0.397012
C19	C	0.832769	-0.338362	-0.397023
C20	C	0.463444	-0.293435	-0.344438
C21	C	0.459138	-0.383380	-0.449671
C22	C	0.541685	-0.383370	-0.449666
C23	C	0.585114	-0.338392	-0.397045
C24	C	0.545998	-0.293425	-0.344430
C25	C	0.580807	-0.428341	-0.502275
C26	C	0.663359	-0.428333	-0.502272
C27	C	0.706790	-0.383352	-0.449654
C28	C	0.667668	-0.338382	-0.397037
C29	C	0.711098	-0.293405	-0.344416
C30	C	0.671978	-0.248431	-0.291802
C31	C	0.589429	-0.248443	-0.291812
C32	C	0.789339	-0.383340	-0.449644
C33	C	0.793652	-0.293395	-0.344407
C34	C	1.117136	-0.520858	-0.405750
C35	C	1.113421	-0.598924	-0.409507
C36	C	1.162253	-0.635596	-0.360769
C37	C	1.158763	-0.708947	-0.364307
C38	C	1.106437	-0.745625	-0.416579
C39	C	1.057602	-0.708947	-0.465322
C40	C	1.061097	-0.635598	-0.461787
C41	C	1.093359	-0.967093	-0.429780
C42	C	1.089867	-1.040448	-0.433309
C43	C	1.191029	-1.040443	-0.332295
C44	C	1.194515	-0.967092	-0.328762
C45	C	1.145684	-0.930421	-0.377508
C46	C	1.102866	-0.820601	-0.420194
C47	C	1.149259	-0.855446	-0.373896
C48	C	1.332158	-0.338402	-0.397051
C49	C	1.420014	-0.338412	-0.397059
C50	C	1.126036	-0.338320	-0.603196
C51	C	1.126055	-0.338295	-0.691052
C52	C	1.134901	-0.155186	-0.388295
C53	C	1.138699	-0.077120	-0.384572
C54	C	1.077763	-0.293298	-1.060383
C55	C	1.174494	-0.383144	-1.064665
C56	C	1.174479	-0.383160	-0.982120
C57	C	1.126105	-0.338246	-0.938703
C58	C	1.077745	-0.293315	-0.977831
C59	C	1.222832	-0.428096	-0.942985
C60	C	1.222819	-0.428115	-0.860435
C61	C	1.174448	-0.383196	-0.817017
C62	C	1.126087	-0.338262	-0.856150
C63	C	1.077713	-0.293348	-0.812733
C64	C	1.029356	-0.248410	-0.851864
C65	C	1.029375	-0.248396	-0.934412
C66	C	1.174430	-0.383210	-0.734469
C67	C	1.077696	-0.293364	-0.730180
C68	C	1.125994	-0.338386	-0.191665
C69	C	1.126137	-0.338213	-0.103800
H70	H	0.557570	-0.211829	-0.248975
H71	H	1.038394	-0.256709	-1.092248
C72	C	0.330685	-0.423330	-0.496406
C73	C	0.411403	-0.432817	-0.507510
H74	H	0.301215	-0.453849	-0.532120
H75	H	0.316649	-0.433556	-0.443775
H76	H	0.319449	-0.376152	-0.505806
H77	H	0.422640	-0.479994	-0.498104
H78	H	0.425444	-0.422596	-0.560154
C79	C	0.886920	-0.283510	-0.237619
C80	C	0.841391	-0.243955	-0.286564
H81	H	0.916395	-0.252986	-0.201913
H82	H	0.853224	-0.314071	-0.208793
H83	H	0.922029	-0.310288	-0.268958
H84	H	0.806277	-0.217180	-0.255225
H85	H	0.875090	-0.213381	-0.315392
H86	H	0.695203	-0.464953	-0.545114
C87	C	1.229196	-0.522613	-0.772104
C88	C	1.275977	-0.477505	-0.817428
H89	H	1.262016	-0.553105	-0.745557
H90	H	1.200395	-0.495866	-0.734434
H91	H	1.193458	-0.549466	-0.805587
H92	H	1.311711	-0.450647	-0.783944
H93	H	1.304792	-0.504255	-0.855102
C94	C	0.338819	-0.253504	-0.297722
C95	C	0.420448	-0.244002	-0.286605
H96	H	0.312277	-0.222988	-0.262014
H97	H	0.325812	-0.243283	-0.350356
H98	H	0.323010	-0.300684	-0.288320
H99	H	0.436259	-0.196823	-0.296013
H100	H	0.433461	-0.254218	-0.233959
C101	C	1.180782	-0.477703	-0.646132
C102	C	1.227575	-0.432602	-0.691454
H103	H	1.213595	-0.508199	-0.619581
H104	H	1.151981	-0.450951	-0.608466
H105	H	1.145044	-0.504553	-0.679618
H106	H	1.263309	-0.405747	-0.657967
H107	H	1.256388	-0.459356	-0.729125
C108	C	0.584838	-0.517235	-0.606307
C109	C	0.533071	-0.477767	-0.560126
H110	H	0.555363	-0.547748	-0.642024
H111	H	0.618533	-0.486663	-0.635120
H112	H	0.615716	-0.544071	-0.573093
H113	H	0.502197	-0.450927	-0.593339
H114	H	0.499362	-0.508343	-0.531311
C115	C	0.765253	-0.238556	-0.185021
C116	C	0.719725	-0.198995	-0.233961
H117	H	0.794736	-0.208037	-0.149318
H118	H	0.731555	-0.269115	-0.156193
H119	H	0.800355	-0.265339	-0.216365
H120	H	0.684619	-0.172216	-0.202618
H121	H	0.753426	-0.168425	-0.262792
C122	C	1.042630	-0.791378	-0.575602
C123	C	1.000084	-0.749264	-0.522779
H124	H	1.007116	-0.816270	-0.611069
H125	H	1.078407	-0.762721	-0.604487
H126	H	1.071210	-0.823714	-0.547071
H127	H	0.971509	-0.716925	-0.551310
H128	H	0.964293	-0.777924	-0.493891
H129	H	1.204859	-0.605738	-0.318201
H130	H	0.821187	-0.419959	-0.492479
C131	C	1.021540	-0.523157	-0.501225
C132	C	1.007420	-0.595284	-0.515361
H133	H	0.988405	-0.498271	-0.534306
H134	H	1.010571	-0.511183	-0.447536
H135	H	1.075219	-0.511102	-0.512259
H136	H	0.953741	-0.607340	-0.504321
H137	H	1.018383	-0.607263	-0.569062
H138	H	1.191866	-0.825581	-0.331339
C139	C	1.244782	-0.854651	-0.278489
C140	C	1.252032	-0.926777	-0.271302
H141	H	1.280286	-0.829764	-0.243008
H142	H	1.256898	-0.842590	-0.331019
H143	H	1.192247	-0.842685	-0.266299
H144	H	1.304567	-0.938745	-0.283498
H145	H	1.239922	-0.938844	-0.218760
H146	H	1.047265	-1.070309	-0.475889
H147	H	1.038307	-0.256785	-0.694835
H148	H	1.213872	-0.419717	-1.100020
H149	H	1.060260	-0.850472	-0.462753
C150	C	1.259096	-0.701575	-0.264095
C151	C	1.212436	-0.749257	-0.310728
H152	H	1.292229	-0.726462	-0.231014
H153	H	1.290676	-0.672923	-0.297178
H154	H	1.226023	-0.673009	-0.232458
H155	H	1.245509	-0.777820	-0.342370
H156	H	1.180853	-0.777921	-0.277642
C157	C	0.923492	-0.238667	-0.758552
C158	C	0.976183	-0.199042	-0.804132
H159	H	0.890671	-0.208190	-0.729079
H160	H	0.891776	-0.269245	-0.792213
H161	H	0.952299	-0.265432	-0.723443
H162	H	0.947376	-0.172282	-0.839245
H163	H	1.007903	-0.168452	-0.770468
C164	C	1.230607	-1.152880	-0.292873
C165	C	1.244715	-1.080753	-0.278730
H166	H	1.263760	-1.177764	-0.259809
H167	H	1.176940	-1.164945	-0.281827
H168	H	1.241565	-1.164847	-0.346574
H169	H	1.233751	-1.068786	-0.225031
H170	H	1.298394	-1.068683	-0.289770
C171	C	0.992996	-0.974476	-0.529961
C172	C	1.039669	-0.926791	-0.483346
H173	H	0.959842	-0.949592	-0.563025
H174	H	1.026052	-1.003036	-0.561609
H175	H	0.961429	-1.003134	-0.496861
H176	H	1.071240	-0.898137	-0.516446
H177	H	1.006608	-0.898219	-0.451695
C178	C	1.265794	-0.467967	-1.071428
C179	C	1.275992	-0.477473	-0.990710
H180	H	1.298616	-0.498451	-1.100891
H181	H	1.212192	-0.478227	-1.085430
H182	H	1.279673	-0.420775	-1.082704
H183	H	1.262107	-0.524663	-0.979432
H184	H	1.329606	-0.467217	-0.976702
C185	C	0.986448	-0.208483	-1.059050
C186	C	0.976220	-0.199007	-0.977427
H187	H	0.953629	-0.177996	-1.085606
H188	H	1.040054	-0.198207	-1.072090
H189	H	0.972586	-0.255672	-1.074811
H190	H	0.990088	-0.151819	-0.961665
H191	H	0.922603	-0.209278	-0.964381
