data_functionalizedCrystal
_audit_creation_method	'MofGen! by Chris Wilmer'
_symmetry_space_group_name_H-M	'P1'
_symmetry_Int_Tables_number	1
_symmetry_cell_setting	triclinic
loop_
_symmetry_equiv_pos_as_xyz
  x,y,z
_cell_length_a	10.489746
_cell_length_b	10.654550
_cell_length_c	9.730223
_cell_angle_alpha	90.000043
_cell_angle_beta	89.995288
_cell_angle_gamma	95.486884
loop_
_atom_site_label
_atom_site_type_symbol
_atom_site_fract_x
_atom_site_fract_y
_atom_site_fract_z
O1	O	0.179162	-1.667926	-0.114188
O2	O	0.196231	-1.302456	-0.114214
O3	O	0.002095	-1.493504	-0.114190
O4	O	0.373298	-1.476878	-0.114212
O5	O	0.002089	-1.493491	0.114390
O6	O	0.196225	-1.302444	0.114366
O7	O	0.179156	-1.667914	0.114391
Zn8	Zn	0.187690	-1.485177	0.150671
Zn9	Zn	0.187697	-1.485193	-0.150493
O10	O	0.373292	-1.476866	0.114368
C11	C	0.194975	-1.255651	0.000073
C12	C	0.191225	-1.116206	0.000064
C13	C	-0.045439	-1.492241	0.000099
C14	C	-0.187066	-1.488480	0.000098
C15	C	0.180412	-1.714719	0.000102
C16	C	0.184162	-1.854164	0.000102
C17	C	-0.339864	-1.364695	0.000072
C18	C	-0.262499	-1.426589	-0.112622
C19	C	-0.262546	-1.426605	0.112740
C20	C	-0.362048	-1.543735	-0.112720
C21	C	-0.362099	-1.543735	0.112743
C22	C	-0.284783	-1.605714	0.000020
C23	C	0.420826	-1.478129	0.000075
C24	C	0.562453	-1.481890	0.000067
N25	N	0.187684	-1.485175	0.356207
C26	C	0.305529	-1.036776	0.000061
C27	C	0.301998	-0.905754	0.000085
C28	C	0.069849	-0.933604	0.000109
C29	C	0.073381	-1.064624	0.000095
N30	N	0.187693	-1.485205	-0.356030
C31	C	0.101758	-1.569800	0.428143
C32	C	0.101758	-1.569812	0.572026
C33	C	0.273623	-1.400571	0.572024
C34	C	0.273616	-1.400553	0.428144
H35	H	-0.364534	-1.262790	-0.000047
H36	H	-0.218998	-1.377120	-0.207907
Br37	Br	0.390243	-1.285734	0.669657
Br38	Br	-0.244063	-1.775687	-0.000064
Br39	Br	0.390229	-1.285687	0.330504
Br40	Br	-0.014867	-1.684659	0.669652
H41	H	-0.405624	-1.593159	0.208031
Br42	Br	0.465459	-1.106777	0.000024
Br43	Br	-0.090074	-0.863591	0.000146
Br44	Br	-0.434211	-1.626150	-0.271701
Br45	Br	0.457133	-0.797959	0.000088
Br46	Br	-0.190093	-1.344104	0.271536
H47	H	-0.019705	-1.129300	0.000101
H48	H	0.031785	-1.638702	0.369576
