data_functionalizedCrystal
_audit_creation_method	'MofGen! by Chris Wilmer'
_symmetry_space_group_name_H-M	'P1'
_symmetry_Int_Tables_number	1
_symmetry_cell_setting	triclinic
loop_
_symmetry_equiv_pos_as_xyz
  x,y,z
_cell_length_a	12.759395
_cell_length_b	29.839131
_cell_length_c	12.759387
_cell_angle_alpha	90.044910
_cell_angle_beta	90.021028
_cell_angle_gamma	90.035990
loop_
_atom_site_label
_atom_site_type_symbol
_atom_site_fract_x
_atom_site_fract_y
_atom_site_fract_z
Zn1	Zn	1.606119	-0.178821	0.593917
Zn2	Zn	1.605946	-0.253958	0.418194
Zn3	Zn	1.430417	-0.178844	0.418252
Zn4	Zn	1.430346	-0.253925	0.593831
O5	O	1.518207	-0.216387	0.506048
O6	O	1.753117	-0.188792	0.570618
O7	O	1.582620	-0.244018	0.271180
O8	O	1.453826	-0.115974	0.441614
O9	O	1.752990	-0.243995	0.441515
O10	O	1.582913	-0.115957	0.570674
O11	O	1.453659	-0.188832	0.271223
O12	O	1.283387	-0.188800	0.441531
O13	O	1.453706	-0.243939	0.740864
O14	O	1.283335	-0.243962	0.570529
O15	O	1.582845	-0.188760	0.740926
O16	O	1.582551	-0.316821	0.441432
O17	O	1.453538	-0.316797	0.570473
C18	C	1.245240	-0.216380	0.506028
C19	C	1.128463	-0.216388	0.506044
C20	C	0.909160	-0.159007	0.640731
C21	C	0.964092	-0.130307	0.708044
C22	C	1.073814	-0.130300	0.708026
C23	C	1.128606	-0.158996	0.640689
C24	C	1.073674	-0.187696	0.573376
C25	C	0.963949	-0.187699	0.573399
C26	C	1.073531	-0.245088	0.438731
C27	C	0.963809	-0.245094	0.438742
C28	C	1.128323	-0.273784	0.371394
C29	C	1.073391	-0.302482	0.304073
C30	C	0.963662	-0.302488	0.304094
C31	C	0.908877	-0.273793	0.371428
C32	C	1.518047	-0.333110	0.505960
C33	C	1.518074	-0.383044	0.505957
C34	C	1.585408	-0.692643	0.573346
C35	C	1.585522	-0.880317	0.573409
O36	O	1.642615	-0.904544	0.630639
N37	N	1.518386	-0.903829	0.506165
C38	C	1.451211	-0.880420	0.438905
O39	O	1.394102	-0.904725	0.381719
C40	C	1.451092	-0.692748	0.438848
C41	C	1.518241	-0.669238	0.506089
C42	C	1.652551	-0.669133	0.640582
C43	C	1.652526	-0.622218	0.640561
C44	C	1.585358	-0.598813	0.573305
C45	C	1.518216	-0.622323	0.506069
C46	C	1.383913	-0.669340	0.371595
C47	C	1.383887	-0.622419	0.371588
C48	C	1.451036	-0.598909	0.438829
C49	C	1.451023	-0.552002	0.438791
N50	N	1.518160	-0.528489	0.506035
C51	C	1.585327	-0.551895	0.573292
C52	C	1.451279	-0.978951	0.438939
C53	C	1.451310	-1.025869	0.438951
C54	C	1.585620	-1.025762	0.573456
C55	C	1.585594	-0.978843	0.573438
C56	C	1.518416	-0.955438	0.506182
C57	C	1.585270	-0.453369	0.573243
C58	C	1.585242	-0.406449	0.573214
C59	C	1.450928	-0.406561	0.438713
C60	C	1.450959	-0.453476	0.438738
C61	C	1.518134	-0.476879	0.506012
O62	O	1.393952	-0.527745	0.381599
O63	O	1.642411	-0.527582	0.630486
C64	C	1.585433	-0.739559	0.573366
C65	C	1.518291	-0.763069	0.506130
C66	C	1.451124	-0.739664	0.438873
C67	C	1.518322	-0.809987	0.506143
C68	C	1.585489	-0.833392	0.573399
C69	C	1.652626	-0.809880	0.640643
C70	C	1.652601	-0.762964	0.640623
C71	C	1.383987	-0.763176	0.371630
C72	C	1.384018	-0.810092	0.371655
C73	C	1.451186	-0.833497	0.438911
C74	C	1.792241	-0.216394	0.506070
C75	C	1.909017	-0.216398	0.506079
C76	C	1.518287	-0.216343	0.780082
C77	C	1.518320	-0.216324	0.896859
C78	C	1.518397	-0.099209	0.506160
C79	C	1.518477	-0.049274	0.506208
C80	C	1.518189	-0.216398	0.233081
C81	C	1.518358	-0.216291	0.116305
C82	C	1.652802	-0.158870	0.896944
C83	C	1.720058	-0.130136	0.951847
C84	C	1.720083	-0.130120	1.061569
C85	C	1.652844	-0.158839	1.116390
C86	C	1.585588	-0.187573	1.061486
C87	C	1.585572	-0.187587	0.951762
C88	C	1.451103	-0.245024	1.061401
C89	C	1.451081	-0.245044	0.951680
C90	C	1.383863	-0.273744	1.116222
C91	C	1.316612	-0.302481	1.061319
C92	C	1.316590	-0.302496	0.951590
C93	C	1.383825	-0.273778	0.896776
H94	H	1.639926	-0.387309	0.627969
H95	H	1.329179	-0.603366	0.316822
H96	H	1.396290	-0.472619	0.383977
C97	C	1.652787	-0.158888	0.776247
N98	N	1.652777	-0.158901	0.685337
H99	H	1.396244	-0.387497	0.383950
C100	C	1.383806	-0.273791	0.776079
N101	N	1.383791	-0.273799	0.685169
C102	C	1.652877	-0.158820	1.237087
N103	N	1.652904	-0.158807	1.327997
H104	H	1.118539	-0.106931	0.762840
H105	H	1.261810	-0.325890	0.906895
H106	H	1.217947	-0.158991	0.640690
H107	H	0.819819	-0.159001	0.640729
H108	H	1.640272	-0.959704	0.628191
C109	C	1.726472	-0.737109	0.714593
N110	N	1.782115	-0.717638	0.770311
H111	H	1.329289	-0.744123	0.316862
H112	H	1.774842	-0.106719	1.106271
C113	C	0.903813	-0.098736	0.782095
N114	N	0.858413	-0.074955	0.837865
C115	C	1.249020	-0.273773	0.371372
N116	N	1.339930	-0.273763	0.371349
H117	H	1.383885	-0.273727	1.205563
H118	H	1.118011	-0.325846	0.249259
C119	C	1.659500	-1.051516	0.647445
N120	N	1.715136	-1.070917	0.703177
H121	H	0.918943	-0.325861	0.249283
C122	C	1.726509	-0.835635	0.714627
N123	N	1.782150	-0.855036	0.770354
H124	H	0.819536	-0.273790	0.371438
C125	C	1.726399	-0.596363	0.714529
N126	N	1.782045	-0.576892	0.770244
C127	C	1.310035	-0.695191	0.297630
N128	N	1.254383	-0.714661	0.241919
C129	C	1.377449	-1.051725	0.364973
N130	N	1.321810	-1.071198	0.309255
C131	C	1.659172	-0.479105	0.647241
N132	N	1.714842	-0.498490	0.702969
H133	H	1.707246	-0.688185	0.695357
H134	H	1.396573	-0.959898	0.384169
C135	C	1.242648	-0.334065	1.121628
N136	N	1.186937	-0.357855	1.167058
H137	H	1.329339	-0.829230	0.316889
H138	H	1.774801	-0.106752	0.907200
