data_functionalizedCrystal
_audit_creation_method	'MofGen! by Chris Wilmer'
_symmetry_space_group_name_H-M	'P1'
_symmetry_Int_Tables_number	1
_symmetry_cell_setting	triclinic
loop_
_symmetry_equiv_pos_as_xyz
  x,y,z
_cell_length_a	11.169417
_cell_length_b	25.639239
_cell_length_c	11.169409
_cell_angle_alpha	90.039223
_cell_angle_beta	90.020564
_cell_angle_gamma	90.039565
loop_
_atom_site_label
_atom_site_type_symbol
_atom_site_fract_x
_atom_site_fract_y
_atom_site_fract_z
Zn1	Zn	1.834735	-0.208097	0.678485
Zn2	Zn	2.334735	0.291903	1.178485
Zn3	Zn	1.834522	-0.295547	0.477777
Zn4	Zn	2.334522	0.204453	0.977777
Zn5	Zn	1.634018	-0.208128	0.477819
Zn6	Zn	2.134018	0.291872	0.977819
Zn7	Zn	1.633929	-0.295504	0.678422
Zn8	Zn	2.133929	0.204496	1.178422
O9	O	1.734301	-0.251819	0.578126
O10	O	2.234301	0.248181	1.078126
O11	O	2.002656	-0.219701	0.651869
O12	O	2.502656	0.280299	1.151869
O13	O	1.807873	-0.283981	0.309833
O14	O	2.307873	0.216019	0.809833
O15	O	1.660770	-0.134959	0.504482
O16	O	2.160770	0.365041	1.004482
O17	O	2.002500	-0.283951	0.504410
O18	O	2.502500	0.216049	1.004410
O19	O	1.808235	-0.134935	0.651910
O20	O	2.308235	0.365065	1.151910
O21	O	1.660564	-0.219756	0.309864
O22	O	2.160564	0.280244	0.809864
O23	O	1.466056	-0.219714	0.504421
O24	O	1.966056	0.280286	1.004421
O25	O	1.660618	-0.283878	0.846380
O26	O	2.160618	0.216122	1.346380
O27	O	1.465991	-0.283909	0.651803
O28	O	1.965991	0.216091	1.151803
O29	O	1.808149	-0.219660	0.846426
O30	O	2.308149	0.280340	1.346426
O31	O	1.807787	-0.368706	0.504350
O32	O	2.307787	0.131294	1.004350
O33	O	1.660412	-0.368675	0.651763
O34	O	2.160412	0.131325	1.151763
C35	C	1.422476	-0.251811	0.578110
C36	C	1.922476	0.248189	1.078110
C37	C	1.289076	-0.251820	0.578132
C38	C	1.789076	0.248180	1.078132
C39	C	1.734099	-0.387661	0.578071
C40	C	2.234099	0.112339	1.078071
C41	C	1.734123	-0.445775	0.578088
C42	C	2.234123	0.054225	1.078088
C43	C	1.811239	-0.806142	0.501499
C44	C	2.311239	-0.306142	1.001499
C45	C	1.811286	-0.860746	0.501515
C46	C	2.311286	-0.360746	1.001515
O47	O	1.876644	-0.888986	0.436336
O48	O	2.376644	-0.388986	0.936336
N49	N	1.734512	-0.888058	0.578205
N50	N	2.234512	-0.388058	1.078205
C51	C	1.657695	-0.860762	0.654894
C52	C	2.157695	-0.360762	1.154894
O53	O	1.592398	-0.889007	0.720127
O54	O	2.092398	-0.389007	1.220127
C55	C	1.657655	-0.806159	0.654883
C56	C	2.157655	-0.306159	1.154883
C57	C	1.734426	-0.778850	0.578178
C58	C	2.234426	-0.278850	1.078178
C59	C	1.888005	-0.778834	0.424802
C60	C	2.388005	-0.278834	0.924802
C61	C	1.887956	-0.724233	0.424784
C62	C	2.387956	-0.224233	0.924784
C63	C	1.811143	-0.696941	0.501464
C64	C	2.311143	-0.196941	1.001464
C65	C	1.734377	-0.724250	0.578161
C66	C	2.234377	-0.224250	1.078161
C67	C	1.580845	-0.778864	0.731576
C68	C	2.080845	-0.278864	1.231576
C69	C	1.580813	-0.724257	0.731559
C70	C	2.080813	-0.224257	1.231559
C71	C	1.657583	-0.696949	0.654855
C72	C	2.157583	-0.196949	1.154855
C73	C	1.657515	-0.642357	0.654823
C74	C	2.157515	-0.142357	1.154823
N75	N	1.734289	-0.615046	0.578133
N76	N	2.234289	-0.115046	1.078133
C77	C	1.811103	-0.642338	0.501453
C78	C	2.311103	-0.142338	1.001453
C79	C	1.657785	-0.975433	0.654912
C80	C	2.157785	-0.475433	1.154912
C81	C	1.657818	-1.030035	0.654918
C82	C	2.157818	-0.530035	1.154918
C83	C	1.811411	-1.030016	0.501540
C84	C	2.311411	-0.530016	1.001540
C85	C	1.811371	-0.975412	0.501529
C86	C	2.311371	-0.475412	1.001529
C87	C	1.734559	-0.948121	0.578221
C88	C	2.234559	-0.448121	1.078221
C89	C	1.810995	-0.527673	0.501422
C90	C	2.310995	-0.027673	1.001422
C91	C	1.810936	-0.473067	0.501408
C92	C	2.310936	0.026933	1.001408
C93	C	1.657348	-0.473092	0.654789
C94	C	2.157348	0.026908	1.154789
C95	C	1.657402	-0.527692	0.654799
C96	C	2.157402	-0.027692	1.154799
C97	C	1.734235	-0.554981	0.578112
C98	C	2.234235	-0.054981	1.078112
O99	O	1.592194	-0.614083	0.719973
O100	O	2.092194	-0.114083	1.219973
O101	O	1.876400	-0.614087	0.436242
O102	O	2.376400	-0.114087	0.936242
C103	C	2.047343	-0.251827	0.578142
C104	C	2.547343	0.248173	1.078142
C105	C	2.180743	-0.251831	0.578149
C106	C	2.680743	0.248169	1.078149
C107	C	1.734397	-0.251761	0.891168
C108	C	2.234397	0.248239	1.391168
C109	C	1.734438	-0.251736	1.024569
C110	C	2.234438	0.248264	1.524569
C111	C	1.734536	-0.115446	0.578207
C112	C	2.234536	0.384554	1.078207
C113	C	1.734637	-0.057332	0.578242
C114	C	2.234637	0.442668	1.078242
C115	C	1.734274	-0.251839	0.266301
C116	C	2.234274	0.248161	0.766301
C117	C	1.734466	-0.251716	0.132902
C118	C	2.234466	0.248284	0.632902
H119	H	1.873452	-0.450834	0.438942
H120	H	2.373452	0.049166	0.938942
H121	H	1.950562	-0.801049	0.362360
H122	H	2.450562	-0.301049	0.862360
C123	C	1.895500	-0.557683	0.417059
C124	C	2.395500	-0.057683	0.917059
H125	H	1.941197	-0.533593	0.371376
H126	H	2.441197	-0.033593	0.871376
H127	H	1.947797	-0.578945	0.463005
H128	H	2.447797	-0.078945	0.963005
H129	H	1.849624	-0.579021	0.364725
H130	H	2.349624	-0.079021	0.864725
H131	H	1.950473	-0.702001	0.362329
H132	H	2.450473	-0.202001	0.862329
H133	H	1.595292	-1.052265	0.717367
H134	H	2.095292	-0.552265	1.217367
C135	C	1.895827	-0.945378	0.417165
C136	C	2.395827	-0.445378	0.917165
H137	H	1.941581	-0.969457	0.371508
H138	H	2.441581	-0.469457	0.871508
H139	H	1.849937	-0.924112	0.364826
H140	H	2.349937	-0.424112	0.864826
H141	H	1.948092	-0.924042	0.463124
H142	H	2.448092	-0.424042	0.963124
H143	H	1.594804	-0.450862	0.717218
H144	H	2.094804	0.049138	1.217218
H145	H	1.873961	-1.052247	0.439107
H146	H	2.373961	-0.552247	0.939107
H147	H	1.595226	-0.953215	0.717360
H148	H	2.095226	-0.453215	1.217360
H149	H	1.518325	-0.801089	0.794031
H150	H	2.018325	-0.301089	1.294031
H151	H	1.518265	-0.702039	0.794015
H152	H	2.018265	-0.202039	1.294015
C153	C	1.572956	-0.557733	0.739169
C154	C	2.072956	-0.057733	1.239169
H155	H	1.527207	-0.533656	0.784838
H156	H	2.027207	-0.033656	1.284838
H157	H	1.520704	-0.579079	0.693232
H158	H	2.020704	-0.079079	1.193232
H159	H	1.618874	-0.578988	0.791516
H160	H	2.118874	-0.078988	1.291516
