data_functionalizedCrystal
_audit_creation_method	'MofGen! by Chris Wilmer'
_symmetry_space_group_name_H-M	'P1'
_symmetry_Int_Tables_number	1
_symmetry_cell_setting	triclinic
loop_
_symmetry_equiv_pos_as_xyz
  x,y,z
_cell_length_a	15.297327
_cell_length_b	11.169417
_cell_length_c	15.298034
_cell_angle_alpha	80.319826
_cell_angle_beta	69.225007
_cell_angle_gamma	80.292774
loop_
_atom_site_label
_atom_site_type_symbol
_atom_site_fract_x
_atom_site_fract_y
_atom_site_fract_z
Zn1	Zn	-0.461440	-1.864098	0.589819
Zn2	Zn	-0.590008	-1.804785	0.461200
Zn3	Zn	-0.434506	-1.633863	0.434328
Zn4	Zn	-0.616920	-1.633710	0.616671
O5	O	-0.525718	-1.734114	0.525505
O6	O	-0.478504	-2.024179	0.572765
O7	O	-0.546845	-1.757353	0.327497
O8	O	-0.307932	-1.689291	0.432470
O9	O	-0.572962	-1.980602	0.478270
O10	O	-0.327720	-1.858443	0.546709
O11	O	-0.432599	-1.631778	0.307754
O12	O	-0.458694	-1.465893	0.458508
O13	O	-0.618830	-1.689030	0.743248
O14	O	-0.592713	-1.465781	0.592475
O15	O	-0.504599	-1.858295	0.723520
O16	O	-0.723725	-1.757204	0.504307
O17	O	-0.743497	-1.631516	0.618532
C18	C	-0.525702	-1.422290	0.525490
C19	C	-0.525722	-1.288890	0.525510
C20	C	-0.767360	-1.687944	0.567270
C21	C	-0.870741	-1.668308	0.585168
C22	C	-0.567721	-1.780261	0.768071
C23	C	-0.585620	-1.799927	0.871438
C24	C	-1.120879	-1.875010	0.397899
C25	C	-1.023747	-1.893458	0.381078
C26	C	-0.985490	-1.837172	0.432099
C27	C	-1.044376	-1.762435	0.499944
C28	C	-1.141516	-1.743978	0.516762
C29	C	-1.006128	-1.706140	0.550962
C30	C	-1.065013	-1.631404	0.618807
C31	C	-1.162144	-1.612951	0.635622
C32	C	-1.200401	-1.669236	0.584601
C33	C	-0.908987	-1.724597	0.534144
C34	C	-0.929625	-1.593566	0.653007
C35	C	-1.026757	-1.575118	0.669828
C36	C	-0.283137	-1.780501	0.483597
C37	C	-0.179763	-1.800268	0.465738
C38	C	-0.525735	-2.047156	0.525520
C39	C	-0.525743	-2.180555	0.525526
C40	C	-0.653513	-1.874546	0.930281
C41	C	-0.670322	-1.893031	1.027398
C42	C	-0.619245	-1.836891	1.065683
C43	C	-0.551356	-1.762264	1.006841
C44	C	-0.534540	-1.743785	0.909714
C45	C	-0.500273	-1.706130	1.045116
C46	C	-0.432384	-1.631503	0.986274
C47	C	-0.415571	-1.613027	0.889156
C48	C	-0.466648	-1.669166	0.850871
C49	C	-0.517089	-1.724610	1.142244
C50	C	-0.398117	-1.593849	1.121677
C51	C	-0.381307	-1.575364	1.024560
C52	C	-0.483902	-1.688133	1.283886
C53	C	-0.466009	-1.668467	1.180519
H54	H	-0.861051	-1.785448	0.478904
C55	C	-0.637668	-1.857053	1.171155
C56	C	-0.708071	-1.934397	1.214496
C57	C	-0.725081	-1.952982	1.311662
H58	H	-0.581532	-1.893516	1.182886
H59	H	-0.657605	-1.780725	1.195942
H60	H	-0.688131	-2.010710	1.189718
H61	H	-0.764221	-1.897956	1.202793
H62	H	-0.745018	-1.876654	1.336448
H63	H	-0.668941	-1.989441	1.323382
H64	H	-0.772857	-2.005452	1.341082
H65	H	-0.452965	-1.654120	0.771791
H66	H	-0.695087	-1.920254	0.899098
C67	C	-1.090544	-1.493978	0.743555
C68	C	-1.036264	-1.448654	0.784659
C69	C	-1.094994	-1.373919	0.852589
H70	H	-1.122342	-1.427653	0.714619
H71	H	-1.135400	-1.540364	0.790702
H72	H	-0.991425	-1.402270	0.737521
H73	H	-1.004468	-1.514951	0.813614
H74	H	-1.139850	-1.420305	0.899736
H75	H	-1.126789	-1.307601	0.823646
H76	H	-1.058175	-1.343167	0.880493
C77	C	-0.341850	-1.531922	0.825429
C78	C	-0.300734	-1.486687	0.879743
C79	C	-0.232827	-1.411958	0.821074
H80	H	-0.294689	-1.578258	0.780526
H81	H	-0.370846	-1.465559	0.793702
H82	H	-0.271738	-1.553039	0.911455
H83	H	-0.347871	-1.440331	0.924644
H84	H	-0.261823	-1.345596	0.789346
H85	H	-0.185673	-1.458303	0.776173
H86	H	-0.204927	-1.381248	0.857918
C87	C	-0.342795	-1.532937	1.163419
C88	C	-0.372074	-1.565059	1.261072
C89	C	-0.321147	-1.508961	1.299564
H90	H	-0.277531	-1.559371	1.136817
H91	H	-0.353667	-1.446650	1.149902
H92	H	-0.361194	-1.651328	1.274581
H93	H	-0.437330	-1.538624	1.287700
H94	H	-0.332019	-1.422674	1.286048
H95	H	-0.255886	-1.535399	1.272955
H96	H	-0.341011	-1.530739	1.365826
C97	C	-0.880067	-1.857242	0.414042
C98	C	-0.863211	-1.910710	0.497032
C99	C	-0.766104	-1.929205	0.480437
H100	H	-0.850364	-1.909843	0.366380
H101	H	-0.855334	-1.780904	0.394164
H102	H	-0.887932	-1.987037	0.516897
H103	H	-0.892891	-1.858127	0.544705
H104	H	-0.741371	-1.852867	0.460559
H105	H	-0.736409	-1.981804	0.432773
H106	H	-0.754655	-1.965475	0.536744
H107	H	-0.898478	-1.547730	0.694551
C108	C	-0.743953	-1.974234	1.091143
C109	C	-0.719624	-2.092343	1.063995
C110	C	-0.787441	-2.167183	1.122685
H111	H	-0.746719	-1.977367	1.154495
H112	H	-0.803696	-1.941755	1.086002
H113	H	-0.659896	-2.124814	1.069145
H114	H	-0.716864	-2.089249	1.000653
H115	H	-0.847185	-2.134704	1.117544
H116	H	-0.790203	-2.170305	1.186034
H117	H	-0.770948	-2.247325	1.104268
C118	C	-0.959980	-1.974698	0.307424
C119	C	-1.014273	-2.020070	0.266361
C120	C	-0.955565	-2.094934	0.198515
H121	H	-0.915092	-1.928427	0.260237
H122	H	-0.928225	-2.040993	0.336451
H123	H	-1.046013	-1.953785	0.237334
H124	H	-1.059160	-2.066360	0.313525
H125	H	-0.923809	-2.161229	0.227542
H126	H	-0.910679	-2.048654	0.151335
H127	H	-0.992395	-2.125737	0.170652
C128	C	-1.162594	-1.936004	0.342608
C129	C	-1.260263	-1.903840	0.371858
C130	C	-1.298721	-1.959999	0.320933
H131	H	-1.135979	-1.909643	0.277351
H132	H	-1.149056	-2.022288	0.353494
H133	H	-1.273794	-1.817574	0.360964
H134	H	-1.286904	-1.930202	0.437106
H135	H	-1.285183	-2.046283	0.331819
H136	H	-1.272099	-1.933634	0.255679
H137	H	-1.364994	-1.938193	0.340778
H138	H	-1.279493	-1.654223	0.598295
H139	H	-1.210085	-1.552079	0.690855
H140	H	-0.326031	-1.514602	0.976637
H141	H	-0.572365	-1.785373	1.190144
