data_functionalizedCrystal
_audit_creation_method	'MofGen! by Chris Wilmer'
_symmetry_space_group_name_H-M	'P1'
_symmetry_Int_Tables_number	1
_symmetry_cell_setting	triclinic
loop_
_symmetry_equiv_pos_as_xyz
  x,y,z
_cell_length_a	17.699083
_cell_length_b	10.654555
_cell_length_c	16.176319
_cell_angle_alpha	89.995768
_cell_angle_beta	90.006703
_cell_angle_gamma	96.113882
loop_
_atom_site_label
_atom_site_type_symbol
_atom_site_fract_x
_atom_site_fract_y
_atom_site_fract_z
O1	O	-1.005093	0.158803	-0.068728
O2	O	-0.784846	0.179466	-0.068732
O3	O	-0.900029	-0.013693	-0.068730
O4	O	-0.889910	0.351961	-0.068730
O5	O	-0.900013	-0.013705	0.068763
O6	O	-0.784830	0.179453	0.068761
O7	O	-1.005077	0.158791	0.068765
Cu8	Cu	-0.894952	0.169121	0.081317
Cu9	Cu	-0.894971	0.169136	-0.081284
O10	O	-0.889894	0.351949	0.068763
C11	C	-0.756636	0.178719	0.000014
C12	C	-0.672604	0.176499	0.000012
C13	C	-0.633121	0.175446	0.074960
C14	C	-0.554165	0.173339	0.074961
C15	C	-0.514693	0.172295	0.000013
C16	C	-0.554182	0.173344	-0.074942
C17	C	-0.633137	0.175441	-0.074941
C18	C	-0.235765	0.164883	-0.074944
C19	C	-0.156804	0.162789	-0.074938
C20	C	-0.156794	0.162781	0.074958
C21	C	-0.235749	0.164878	0.074959
C22	C	-0.275231	0.165921	0.000005
C23	C	-0.360844	0.168203	0.000005
C24	C	-0.429081	0.170022	0.000012
C25	C	-0.899276	-0.060483	0.000015
C26	C	-0.897048	-0.199887	0.000010
C27	C	-0.892848	-0.461858	0.149915
C28	C	-0.893883	-0.396369	0.224864
C29	C	-0.895973	-0.265386	0.224864
C30	C	-0.897026	-0.199890	0.149908
C31	C	-0.895992	-0.265380	0.074959
C32	C	-0.893904	-0.396365	0.074967
C33	C	-0.896013	-0.265377	-0.074939
C34	C	-0.893928	-0.396360	-0.074941
C35	C	-0.897067	-0.199881	-0.149896
C36	C	-0.896038	-0.265371	-0.224846
C37	C	-0.893948	-0.396362	-0.224843
C38	C	-0.892894	-0.461850	-0.149890
C39	C	-0.033287	0.159530	0.000017
C40	C	-0.117321	0.161727	0.000011
C41	C	-0.890647	0.398740	0.000016
C42	C	-0.892875	0.538144	0.000016
N43	N	-0.894944	0.169110	0.195683
N44	N	-0.894985	0.169137	-0.195649
C45	C	-0.945963	0.083614	0.238948
C46	C	-0.945966	0.083613	0.325495
C47	C	-0.894955	0.169114	0.368775
C48	C	-0.843931	0.254614	0.325504
C49	C	-0.843924	0.254608	0.238958
C50	C	-0.843957	0.254638	0.674532
C51	C	-0.843969	0.254639	0.761084
C52	C	-0.945999	0.083642	0.761069
C53	C	-0.945992	0.083637	0.674523
C54	C	-0.894966	0.169131	0.631259
C55	C	-0.894962	0.169130	0.537415
C56	C	-0.894962	0.169123	0.462618
H57	H	-0.522024	0.172461	0.135992
N58	N	-0.675691	0.176585	0.155799
H59	H	-0.638695	0.175597	0.203278
H60	H	-0.714180	0.099638	0.159066
H61	H	-0.987533	0.014018	0.639287
N62	N	-1.001036	-0.008576	0.807731
H63	H	-0.993302	0.004394	0.869125
H64	H	-0.991830	-0.097648	0.792610
N65	N	-0.511604	0.172220	-0.155776
H66	H	-0.519621	0.250403	-0.188544
H67	H	-0.531093	0.094719	-0.188477
H68	H	-0.891155	-0.568513	0.149923
H69	H	-0.665282	0.176301	-0.135972
N70	N	-0.892757	-0.467010	0.305708
H71	H	-0.891282	-0.559926	0.294339
H72	H	-0.939958	-0.454425	0.338428
N73	N	-0.897083	-0.194740	0.305699
H74	H	-0.896097	-0.256100	0.353184
H75	H	-0.944785	-0.150715	0.308963
H76	H	-0.898719	-0.093235	0.149914
N77	N	-0.788915	0.346841	0.372183
H78	H	-0.756594	0.401001	0.331640
H79	H	-0.755209	0.298839	0.408106
H80	H	-0.802411	0.324252	0.639314
H81	H	-0.987505	0.013995	0.203715
N82	N	-0.899321	-0.058608	-0.149886
H83	H	-0.946661	-0.037371	-0.179312
H84	H	-0.852961	-0.016825	-0.179295
N85	N	-0.897095	-0.194716	-0.305685
H86	H	-0.898546	-0.101796	-0.294311
H87	H	-0.943549	-0.227865	-0.338467
H88	H	-0.987509	0.013996	0.360721
N89	N	-0.278321	0.165992	0.155797
H90	H	-0.334330	0.167480	0.144424
H91	H	-0.258790	0.243439	0.188530
H92	H	-0.802426	0.324267	0.796321
N93	N	-0.788893	0.346814	0.192289
H94	H	-0.756578	0.400981	0.232838
H95	H	-0.818151	0.402272	0.156367
N96	N	-0.278332	0.166025	-0.155790
H97	H	-0.305363	0.244711	-0.159135
H98	H	-0.316778	0.089025	-0.159092
H99	H	-0.891196	-0.568503	-0.149880
N100	N	-0.114205	0.161647	0.155801
H101	H	-0.086330	0.083828	0.158651
H102	H	-0.151354	0.160928	0.203228
N103	N	-0.114225	0.161651	-0.155777
H104	H	-0.122239	0.239827	-0.188553
H105	H	-0.133713	0.084143	-0.188472
N106	N	-0.892851	-0.466999	-0.305682
H107	H	-0.893843	-0.405629	-0.353162
H108	H	-0.938830	-0.531646	-0.308929
