data_functionalizedCrystal
_audit_creation_method	'MofGen! by Chris Wilmer'
_symmetry_space_group_name_H-M	'P1'
_symmetry_Int_Tables_number	1
_symmetry_cell_setting	triclinic
loop_
_symmetry_equiv_pos_as_xyz
  x,y,z
_cell_length_a	27.780882
_cell_length_b	27.780884
_cell_length_c	27.780936
_cell_angle_alpha	90.002261
_cell_angle_beta	59.997799
_cell_angle_gamma	119.999789
loop_
_atom_site_label
_atom_site_type_symbol
_atom_site_fract_x
_atom_site_fract_y
_atom_site_fract_z
O1	O	0.424592	-0.330213	-0.014321
O2	O	0.326022	-0.260214	0.014251
O3	O	0.424588	-0.260214	-0.084318
O4	O	0.326026	-0.330213	0.084247
O5	O	0.344528	-0.340274	-0.084318
O6	O	0.245962	-0.340274	0.014251
O7	O	0.344532	-0.410273	-0.014321
Cu8	Cu	0.287937	-0.382584	-0.000035
Cu9	Cu	0.382617	-0.287904	-0.000035
O10	O	0.245966	-0.410273	0.084248
C11	C	0.177734	-0.120430	0.029862
C12	C	0.211527	-0.056934	0.025772
C13	C	0.119397	-0.149664	0.030267
C14	C	0.177730	-0.207598	0.029867
C15	C	0.211519	-0.237303	0.025783
C16	C	0.119393	-0.236700	0.030273
C17	C	0.090568	-0.207596	0.029862
C18	C	0.031162	-0.237298	0.025772
C19	C	0.206427	-0.149666	0.030273
C20	C	-0.016831	-0.261295	0.022466
C21	C	0.238829	-0.005636	0.022467
C22	C	0.238818	-0.261301	0.022482
C23	C	-0.077040	-0.291400	0.018321
C24	C	0.273079	0.058719	0.018322
C25	C	0.273065	-0.291409	0.018343
O26	O	-0.234707	-0.410266	-0.014339
O27	O	-0.094711	-0.340265	0.014229
O28	O	-0.094704	-0.340270	-0.084338
O29	O	-0.234714	-0.410261	0.084228
O30	O	-0.094701	-0.260209	-0.084343
O31	O	-0.094708	-0.260204	0.014225
O32	O	-0.234704	-0.330205	-0.014344
Cu33	Cu	-0.164706	-0.287894	-0.000060
Cu34	Cu	-0.164709	-0.382576	-0.000055
O35	O	-0.234711	-0.330200	0.084223
C36	C	0.492828	-0.207603	-0.372394
C37	C	0.459037	-0.237307	-0.402098
C38	C	0.551166	-0.149673	-0.401496
C39	C	0.492828	-0.207604	-0.285228
C40	C	0.459036	-0.237307	-0.221733
C41	C	0.551166	-0.149673	-0.314463
C42	C	0.579994	-0.120438	-0.372393
C43	C	0.639400	-0.056943	-0.402096
C44	C	0.464132	-0.236706	-0.314464
C45	C	0.687394	-0.005646	-0.426092
C46	C	0.431736	-0.261304	-0.426095
C47	C	0.431736	-0.261304	-0.170435
C48	C	0.747605	0.058709	-0.456197
C49	C	0.397486	-0.291409	-0.456201
C50	C	0.397486	-0.291410	-0.106080
C51	C	0.580008	-0.462879	-0.029964
C52	C	0.639417	-0.433174	-0.025878
C53	C	0.551182	-0.520809	-0.030373
C54	C	0.492839	-0.462880	-0.029960
C55	C	0.459045	-0.433178	-0.025869
C56	C	0.464144	-0.520811	-0.030368
C57	C	0.492842	-0.550045	-0.029964
C58	C	0.459052	-0.613540	-0.025878
C59	C	0.551178	-0.433777	-0.030369
C60	C	0.431752	-0.664837	-0.022575
C61	C	0.687412	-0.409177	-0.022576
C62	C	0.431742	-0.409182	-0.022562
C63	C	0.397504	-0.729192	-0.018433
C64	C	0.747625	-0.379070	-0.018434
C65	C	0.397490	-0.379077	-0.018415
O66	O	0.344549	0.249047	-0.014343
O67	O	0.245980	0.080483	0.014226
O68	O	0.344550	0.179042	-0.084342
O69	O	0.245978	0.150488	0.084224
O70	O	0.424607	0.179040	-0.084336
O71	O	0.326036	0.080480	0.014231
O72	O	0.424605	0.249045	-0.014338
Cu73	Cu	0.382630	0.164762	-0.000053
Cu74	Cu	0.287954	0.164765	-0.000059
O75	O	0.326034	0.150486	0.084230
O76	O	0.905273	0.249033	-0.494995
O77	O	0.765273	0.080470	-0.425001
O78	O	0.765270	0.179032	-0.424994
O79	O	0.905276	0.150471	-0.495003
O80	O	0.765272	0.179034	-0.505055
O81	O	0.765275	0.080472	-0.505062
O82	O	0.905275	0.249035	-0.575056
Cu83	Cu	0.835275	0.164754	-0.547369
Cu84	Cu	0.835273	0.164751	-0.452688
O85	O	0.905278	0.150473	-0.575063
O86	O	0.326020	-0.330218	-0.575063
O87	O	0.424588	-0.260215	-0.505065
O88	O	0.326020	-0.260217	-0.505059
O89	O	0.424589	-0.330216	-0.575069
O90	O	0.245961	-0.340275	-0.425000
O91	O	0.344530	-0.340273	-0.425006
O92	O	0.245962	-0.410276	-0.495003
Cu93	Cu	0.287936	-0.382585	-0.452694
Cu94	Cu	0.382614	-0.287906	-0.547374
O95	O	0.344531	-0.410274	-0.495009
C96	C	0.090559	-0.550051	0.372323
C97	C	0.031152	-0.613546	0.402025
C98	C	0.119386	-0.520817	0.401426
C99	C	0.177725	-0.462885	0.285158
C100	C	0.211517	-0.433181	0.221663
C101	C	0.206420	-0.433783	0.314394
C102	C	0.177724	-0.462886	0.372324
C103	C	0.211515	-0.433183	0.402029
C104	C	0.119387	-0.520816	0.314392
C105	C	0.238815	-0.409187	0.426026
C106	C	-0.016842	-0.664843	0.426021
C107	C	0.238818	-0.409184	0.170365
C108	C	0.273064	-0.379082	0.456133
C109	C	-0.077053	-0.729198	0.456125
C110	C	0.273068	-0.379078	0.106010
C111	C	0.177761	-0.120445	-0.372420
C112	C	0.211554	-0.056951	-0.402125
C113	C	0.206457	-0.149682	-0.401521
C114	C	0.090590	-0.207608	-0.285252
C115	C	0.031179	-0.237308	-0.221756
C116	C	0.119418	-0.236712	-0.314485
C117	C	0.177759	-0.207612	-0.372416
C118	C	0.211551	-0.237318	-0.402117
C119	C	0.119420	-0.149677	-0.314489
C120	C	0.238852	-0.261316	-0.426113
C121	C	0.238857	-0.005654	-0.426124
C122	C	-0.016817	-0.261303	-0.170458
C123	C	0.273102	-0.291424	-0.456216
C124	C	0.273109	0.058701	-0.456232
C125	C	-0.077032	-0.291406	-0.106103
C126	C	-0.507174	-0.462860	0.372301
C127	C	-0.540966	-0.433155	0.402003
C128	C	-0.535872	-0.520790	0.401406
C129	C	-0.420004	-0.462864	0.285137
C130	C	-0.360594	-0.433163	0.221642
C131	C	-0.448834	-0.520794	0.314373
C132	C	-0.507175	-0.550027	0.372304
C133	C	-0.540968	-0.613521	0.402010
C134	C	-0.448833	-0.433760	0.314371
C135	C	-0.568270	-0.664818	0.426008
C136	C	-0.568268	-0.409157	0.425999
C137	C	-0.312597	-0.409168	0.170343
C138	C	-0.602522	-0.729173	0.456115
C139	C	-0.602518	-0.379050	0.456103
C140	C	-0.252383	-0.379064	0.105988
C141	C	0.580005	0.194619	-0.372405
C142	C	0.639409	0.190525	-0.402104
C143	C	0.551178	0.195023	-0.401510
C144	C	0.492843	0.194635	-0.285245
C145	C	0.459054	0.190558	-0.221751
C146	C	0.464149	0.195039	-0.314482
C147	C	0.492843	0.194621	-0.372410
C148	C	0.459052	0.190530	-0.402115
C149	C	0.551179	0.195036	-0.314476
C150	C	0.431752	0.187222	-0.426113
C151	C	0.687401	0.187216	-0.426097
C152	C	0.431754	0.187263	-0.170455
C153	C	0.397503	0.183075	-0.456220
C154	C	0.747609	0.183066	-0.456199
C155	C	0.397506	0.183130	-0.106101
O156	O	0.424649	0.249027	-0.575092
O157	O	0.326070	0.080461	-0.505095
O158	O	0.424629	0.179018	-0.505082
O159	O	0.326090	0.150471	-0.575105
O160	O	0.344563	0.179021	-0.425026
O161	O	0.246004	0.080464	-0.425039
O162	O	0.344583	0.249030	-0.495036
Cu163	Cu	0.287983	0.164747	-0.452728
Cu164	Cu	0.382670	0.164744	-0.547403
O165	O	0.246024	0.150474	-0.495049
C166	C	0.177742	0.134906	0.372298
C167	C	0.211532	0.138997	0.402003
C168	C	0.119406	0.134505	0.401398
C169	C	0.177741	0.134893	0.285133
C170	C	0.211531	0.138970	0.221639
C171	C	0.119406	0.134492	0.314364
C172	C	0.090580	0.134909	0.372293
C173	C	0.031176	0.139004	0.401992
C174	C	0.206435	0.134489	0.314370
C175	C	-0.016815	0.142313	0.425985
C176	C	0.238832	0.142304	0.426002
C177	C	0.238831	0.142265	0.170343
C178	C	-0.077023	0.146464	0.456086
C179	C	0.273081	0.146451	0.456109
C180	C	0.273079	0.146398	0.105989
H181	H	0.253368	-0.126194	0.030932
H182	H	0.095249	-0.544287	0.449028
C183	C	0.583237	-0.118474	-0.283068
C184	C	0.545478	-0.156491	-0.225967
C185	C	0.574997	-0.127769	-0.197030
H186	H	0.583470	-0.084235	-0.281007
H187	H	0.628642	-0.107449	-0.304230
H188	H	0.500085	-0.167508	-0.204810
H189	H	0.545243	-0.190731	-0.228011
H190	H	0.620403	-0.116744	-0.218192
H191	H	0.575229	-0.093531	-0.194973
H192	H	0.549387	-0.153561	-0.158286
H193	H	0.095257	-0.544288	0.290923
C194	C	0.087127	-0.300188	-0.283099
C195	C	0.029755	-0.319532	-0.226004
C196	C	-0.000011	-0.378003	-0.197080
H197	H	0.119053	-0.302509	-0.281030
H198	H	0.073915	-0.324412	-0.304276
H199	H	0.042968	-0.295315	-0.204832
H200	H	-0.002186	-0.317226	-0.228056
H201	H	-0.013223	-0.402226	-0.218257
H202	H	0.031920	-0.380318	-0.195015
H203	H	-0.038945	-0.391137	-0.158340
H204	H	0.575291	-0.126204	-0.449095
C205	C	0.087072	-0.118477	0.031281
C206	C	0.020180	-0.149872	0.082007
C207	C	-0.009636	-0.121177	0.082974
H208	H	0.086746	-0.116476	-0.002679
H209	H	0.112545	-0.079716	0.031497
H210	H	-0.005287	-0.188623	0.081786
H211	H	0.020486	-0.151875	0.115976
H212	H	0.015837	-0.082415	0.083191
H213	H	-0.009957	-0.119177	0.049012
H214	H	-0.055023	-0.142471	0.117394
H215	H	0.417177	-0.284299	-0.290989
H216	H	0.253408	-0.126207	-0.449117
H217	H	0.417198	-0.544282	-0.031019
C218	C	0.087330	-0.118290	-0.283300
C219	C	0.125083	-0.061194	-0.321324
C220	C	0.095540	-0.032268	-0.292616
H221	H	0.087078	-0.116223	-0.249053
H222	H	0.041930	-0.139462	-0.272289
H223	H	0.170471	-0.040027	-0.332327
H224	H	0.125338	-0.063244	-0.355572
H225	H	0.050140	-0.053440	-0.281605
H226	H	0.095289	-0.030205	-0.258369
H227	H	0.121147	0.006473	-0.318412
C228	C	-0.416532	-0.551977	0.282998
C229	C	-0.359154	-0.513954	0.225905
C230	C	-0.329372	-0.542653	0.196993
H231	H	-0.448448	-0.586230	0.280926
H232	H	-0.403324	-0.562977	0.304185
H233	H	-0.372363	-0.502962	0.204723
H234	H	-0.327223	-0.479701	0.227960
H235	H	-0.316163	-0.553653	0.218180
H236	H	-0.361292	-0.576905	0.194925
H237	H	-0.290434	-0.516857	0.158255
C238	C	0.583446	-0.552010	-0.031242
C239	C	0.640804	-0.513993	-0.031498
C240	C	0.670542	-0.542714	-0.032299
H241	H	0.596675	-0.563034	-0.065615
H242	H	0.551480	-0.586255	0.002771
H243	H	0.672764	-0.479759	-0.065507
H244	H	0.627593	-0.502966	0.002873
H245	H	0.638576	-0.576959	0.001714
H246	H	0.683767	-0.553737	-0.066673
H247	H	0.709458	-0.516926	-0.032468
C248	C	0.583459	-0.370304	-0.031262
C249	C	0.640827	-0.350958	-0.031534
C250	C	0.670581	-0.292491	-0.032361
H251	H	0.551525	-0.367992	0.002737
H252	H	0.596673	-0.346076	-0.065648
H253	H	0.627612	-0.375179	0.002848
H254	H	0.672776	-0.353255	-0.065531
H255	H	0.683795	-0.268263	-0.066747
H256	H	0.638642	-0.290185	0.001639
H257	H	0.709512	-0.279355	-0.032551
H258	H	0.253386	0.133843	0.290899
C259	C	0.268991	-0.370307	0.283012
C260	C	0.288065	-0.350960	0.225916
C261	C	0.345694	-0.292489	0.196995
H262	H	0.305307	-0.367987	0.280943
H263	H	0.258824	-0.346085	0.304190
H264	H	0.298236	-0.375175	0.204743
H265	H	0.251766	-0.353265	0.227967
H266	H	0.335526	-0.268267	0.218173
H267	H	0.382005	-0.290174	0.194930
H268	H	0.358639	-0.279353	0.158254
H269	H	-0.582816	-0.544257	0.449005
H270	H	0.575310	0.195676	-0.449109
C271	C	-0.416734	-0.370282	0.283183
C272	C	-0.454482	-0.350932	0.321205
C273	C	-0.424926	-0.292459	0.292499
H274	H	-0.416475	-0.367958	0.248932
H275	H	-0.371336	-0.346063	0.272177
H276	H	-0.499868	-0.375144	0.332203
H277	H	-0.454744	-0.353242	0.355456
H278	H	-0.379528	-0.268241	0.281493
H279	H	-0.424669	-0.290141	0.258249
H280	H	-0.450530	-0.279321	0.318295
C281	C	0.401583	0.195955	-0.283104
C282	C	0.382513	0.196241	-0.226010
C283	C	0.324892	0.197096	-0.197095
H284	H	0.365263	0.161961	-0.281032
H285	H	0.411758	0.230345	-0.304288
H286	H	0.372335	0.161855	-0.204832
H287	H	0.418817	0.230233	-0.228065
H288	H	0.335066	0.231485	-0.218278
H289	H	0.288577	0.163101	-0.195027
H290	H	0.311949	0.197296	-0.158356
H291	H	0.095283	0.133836	0.290888
C292	C	0.583466	0.195946	-0.283286
C293	C	0.640834	0.196213	-0.321306
C294	C	0.670597	0.197059	-0.292597
H295	H	0.551537	0.161955	-0.249035
H296	H	0.596683	0.230339	-0.272282
H297	H	0.627616	0.161823	-0.332301
H298	H	0.672778	0.230201	-0.355558
H299	H	0.683814	0.231452	-0.281593
H300	H	0.638663	0.163068	-0.258346
H301	H	0.709527	0.197245	-0.318390
H302	H	0.095268	-0.284299	0.030928
C303	C	0.087374	0.133701	0.464843
C304	C	0.125149	0.133471	0.484179
C305	C	0.095676	0.132751	0.542612
H306	H	0.041968	0.099347	0.489130
H307	H	0.087175	0.167733	0.467075
H308	H	0.125341	0.099442	0.481952
H309	H	0.170555	0.167822	0.459908
H310	H	0.095477	0.166783	0.544844
H311	H	0.050270	0.098397	0.566894
H312	H	0.121305	0.132600	0.555737
