data_functionalizedCrystal
_audit_creation_method	'MofGen! by Chris Wilmer'
_symmetry_space_group_name_H-M	'P1'
_symmetry_Int_Tables_number	1
_symmetry_cell_setting	triclinic
loop_
_symmetry_equiv_pos_as_xyz
  x,y,z
_cell_length_a	12.594516
_cell_length_b	18.101398
_cell_length_c	18.101380
_cell_angle_alpha	89.949190
_cell_angle_beta	89.922027
_cell_angle_gamma	90.011609
loop_
_atom_site_label
_atom_site_type_symbol
_atom_site_fract_x
_atom_site_fract_y
_atom_site_fract_z
Zn1	Zn	-0.423293	1.132499	-0.418582
Zn2	Zn	-0.601464	1.132338	-0.294753
Zn3	Zn	-0.423486	1.008569	-0.294774
Zn4	Zn	-0.601216	1.008641	-0.418573
O5	O	-0.512364	1.070512	-0.356670
O6	O	-0.446950	1.236110	-0.402150
O7	O	-0.578039	1.115823	-0.191122
O8	O	-0.274514	1.025045	-0.311210
O9	O	-0.577852	1.235992	-0.311174
O10	O	-0.274372	1.116096	-0.402171
O11	O	-0.447280	1.024890	-0.191138
O12	O	-0.447039	0.904945	-0.311202
O13	O	-0.577429	1.025168	-0.522207
O14	O	-0.577617	0.904998	-0.402156
O15	O	-0.446710	1.116166	-0.522214
O16	O	-0.750377	1.115892	-0.311165
O17	O	-0.750194	1.025012	-0.402135
C18	C	-0.512323	0.878101	-0.356681
C19	C	-0.512330	0.795787	-0.356703
C20	C	-0.512393	0.496696	-0.356672
C21	C	-0.594947	0.528079	-0.413615
C22	C	-0.594688	0.613697	-0.413849
C23	C	-0.512363	0.645078	-0.356687
C24	C	-0.400225	0.614019	-0.378007
C25	C	-0.400720	0.528374	-0.378412
C26	C	-0.540989	0.528192	-0.278271
C27	C	-0.543448	0.613843	-0.278690
C28	C	-0.512339	0.728938	-0.356695
C29	C	-0.512409	0.412836	-0.356666
C30	C	-0.788905	1.070463	-0.356663
C31	C	-0.907211	1.070510	-0.356685
C32	C	-0.976404	1.021076	-0.406129
C33	C	-1.047355	1.002986	-0.338556
C34	C	-1.047059	1.088667	-0.424269
C35	C	-0.976604	1.052384	-0.289076
C36	C	-0.976301	1.138097	-0.374835
C37	C	-1.047221	1.120033	-0.307216
C38	C	-0.234744	1.070580	-0.356694
C39	C	-0.116438	1.070610	-0.356704
C40	C	-0.512020	1.070693	-0.549833
C41	C	-0.511874	1.070770	-0.632147
C42	C	-0.512407	1.263673	-0.356660
C43	C	-0.512425	1.345987	-0.356656
C44	C	-0.512630	1.070374	-0.164260
C45	C	-0.512477	1.070440	-0.081946
C46	C	-0.512076	1.070660	0.217145
C47	C	-0.430731	1.012819	0.185767
C48	C	-0.430521	1.012922	0.100148
C49	C	-0.512275	1.070550	0.068763
C50	C	-0.480978	1.148459	0.099667
C51	C	-0.480271	1.148187	0.185311
C52	C	-0.624957	1.051253	0.185797
C53	C	-0.624496	1.049463	0.100149
C54	C	-0.512389	1.070493	-0.015097
C55	C	-0.511959	1.070722	0.301004
H56	H	-0.376479	0.508450	-0.435726
H57	H	-0.945072	1.195196	-0.390204
H58	H	-1.078118	1.161881	-0.265362
H59	H	-0.575758	0.634238	-0.471939
Br60	Br	-0.291325	1.034446	0.065726
H61	H	-1.078010	1.103985	-0.481417
Br62	Br	-0.463368	0.916614	0.065327
Br63	Br	-0.725998	1.121476	0.219629
H64	H	-0.648043	0.992112	0.080009
Br65	Br	-0.680994	0.647674	-0.251893
H66	H	-1.078587	0.945875	-0.323219
Br67	Br	-0.924576	0.951278	-0.475721
Br68	Br	-0.733293	0.648704	-0.391613
Br69	Br	-0.450518	0.649434	-0.204174
H70	H	-0.945781	1.037001	-0.231912
Br71	Br	-0.294721	0.493764	-0.312300
H72	H	-0.450141	0.954880	0.206489
Br73	Br	-0.674946	0.492156	-0.245967
H74	H	-0.480859	0.507892	-0.235843
Br75	Br	-0.672061	0.958296	0.222031
H76	H	-0.536883	1.192730	0.206063
Br77	Br	-0.563826	0.492272	-0.509874
Br78	Br	-0.292155	1.033892	0.221364
H79	H	-0.397737	1.164692	0.205123
H80	H	-0.337044	0.634343	-0.337825
H81	H	-0.538414	1.192665	0.079334
Br82	Br	-0.345007	1.176426	0.063647
H83	H	-0.688473	1.088537	0.078805
H84	H	-0.375548	0.635520	-0.434698
Br85	Br	-0.733999	0.493725	-0.391603
