data_functionalizedCrystal
_audit_creation_method	'MofGen! by Chris Wilmer'
_symmetry_space_group_name_H-M	'P1'
_symmetry_Int_Tables_number	1
_symmetry_cell_setting	triclinic
loop_
_symmetry_equiv_pos_as_xyz
  x,y,z
_cell_length_a	19.188930
_cell_length_b	19.188930
_cell_length_c	17.666332
_cell_angle_alpha	90.011603
_cell_angle_beta	90.023234
_cell_angle_gamma	83.144779
loop_
_atom_site_label
_atom_site_type_symbol
_atom_site_fract_x
_atom_site_fract_y
_atom_site_fract_z
O1	O	-0.926150	-0.087169	-0.063200
O2	O	-0.426150	0.412831	0.436800
O3	O	-0.722838	-0.098903	-0.063149
O4	O	-0.222838	0.401097	0.436851
O5	O	-0.830361	0.008620	-0.063161
O6	O	-0.330361	0.508620	0.436839
O7	O	-0.818627	-0.194692	-0.063188
O8	O	-0.318627	0.305308	0.436812
O9	O	-0.830342	0.008625	0.062735
O10	O	-0.330342	0.508625	0.562735
O11	O	-0.722820	-0.098897	0.062747
O12	O	-0.222820	0.401103	0.562747
O13	O	-0.926131	-0.087163	0.062697
O14	O	-0.426131	0.412837	0.562697
Cu15	Cu	-0.824473	-0.093030	0.074217
Cu16	Cu	-0.324473	0.406970	0.574217
Cu17	Cu	-0.824496	-0.093036	-0.074670
Cu18	Cu	-0.324496	0.406964	0.425330
O19	O	-0.818608	-0.194686	0.062709
O20	O	-0.318608	0.305314	0.562709
C21	C	-0.696818	-0.098520	-0.000194
C22	C	-0.196818	0.401480	0.499806
C23	C	-0.619313	-0.097380	-0.000174
C24	C	-0.119313	0.402620	0.499826
C25	C	-0.829972	0.034634	-0.000211
C26	C	-0.329972	0.534634	0.499789
C27	C	-0.828831	0.112138	-0.000204
C28	C	-0.328831	0.612138	0.499796
C29	C	-0.952151	-0.087546	-0.000260
C30	C	-0.452151	0.412454	0.499740
C31	C	-1.029656	-0.088687	-0.000285
C32	C	-0.529656	0.411313	0.499715
C33	C	-0.574389	-0.160470	-0.000194
C34	C	-0.074389	0.339530	0.499806
C35	C	-0.501566	-0.159399	-0.000203
C36	C	-0.001566	0.340601	0.499797
C37	C	-0.473669	-0.095233	-0.000206
C38	C	0.026331	0.404767	0.499794
C39	C	-0.518603	-0.032133	-0.000181
C40	C	-0.018603	0.467867	0.499819
C41	C	-0.591425	-0.033207	-0.000166
C42	C	-0.091425	0.466793	0.499834
N43	N	-0.365695	-0.046188	-0.043078
N44	N	0.134305	0.453812	0.456922
N45	N	-0.296517	-0.045172	-0.043095
N46	N	0.203483	0.454828	0.456905
C47	C	-0.254260	-0.091994	-0.000252
C48	C	0.245740	0.408006	0.499748
N49	N	-0.283795	-0.139881	0.042599
N50	N	0.216205	0.360119	0.542599
N51	N	-0.352979	-0.140899	0.042612
N52	N	0.147021	0.359101	0.542612
C53	C	-0.394707	-0.094062	-0.000222
C54	C	0.105293	0.405938	0.499778
C55	C	-0.130372	-0.153928	-0.000280
C56	C	0.369628	0.346072	0.499720
C57	C	-0.057547	-0.152853	-0.000283
C58	C	0.442453	0.347147	0.499717
C59	C	-0.074586	-0.025586	-0.000270
C60	C	0.425414	0.474414	0.499730
C61	C	-0.147409	-0.026662	-0.000258
C62	C	0.352591	0.473338	0.499742
C63	C	-0.175298	-0.090835	-0.000267
C64	C	0.324702	0.409165	0.499733
C65	C	-0.818997	-0.220700	-0.000244
C66	C	-0.318997	0.279300	0.499756
C67	C	-0.820138	-0.298204	-0.000255
C68	C	-0.320138	0.201796	0.499745
C69	C	-0.891922	0.157062	-0.000216
C70	C	-0.391922	0.657062	0.499784
C71	C	-0.890850	0.229886	-0.000228
C72	C	-0.390850	0.729886	0.499772
C73	C	-0.826684	0.257782	-0.000212
C74	C	-0.326684	0.757782	0.499788
C75	C	-0.763585	0.212849	-0.000205
C76	C	-0.263585	0.712849	0.499795
C77	C	-0.764658	0.140026	-0.000200
C78	C	-0.264658	0.640026	0.499800
N79	N	-0.777630	0.365789	0.042645
N80	N	-0.277630	0.865789	0.542645
N81	N	-0.776615	0.434968	0.042642
N82	N	-0.276615	0.934968	0.542642
C83	C	-0.823446	0.477191	-0.000227
C84	C	-0.323446	0.977191	0.499773
N85	N	-0.871341	0.447624	-0.043084
N86	N	-0.371341	0.947624	0.456916
N87	N	-0.872359	0.378439	-0.043079
N88	N	-0.372359	0.878439	0.456921
C89	C	-0.825513	0.336745	-0.000218
C90	C	-0.325513	0.836745	0.499782
C91	C	-0.885379	0.601079	-0.000253
C92	C	-0.385379	1.101079	0.499747
C93	C	-0.884305	0.673904	-0.000270
C94	C	-0.384305	1.173904	0.499730
C95	C	-0.757038	0.656865	-0.000239
C96	C	-0.257038	1.156865	0.499761
C97	C	-0.758114	0.584042	-0.000230
C98	C	-0.258114	1.084042	0.499770
C99	C	-0.822287	0.556154	-0.000233
C100	C	-0.322287	1.056154	0.499767
N101	N	-0.824463	-0.093025	0.178937
N102	N	-0.324463	0.406975	0.678937
N103	N	-0.824512	-0.093036	-0.179390
N104	N	-0.324512	0.406964	0.320610
C105	C	-0.872089	-0.045437	0.218541
C106	C	-0.372089	0.454563	0.718541
C107	C	-0.872093	-0.045433	0.297789
C108	C	-0.372093	0.454567	0.797789
C109	C	-0.824478	-0.093030	0.337429
C110	C	-0.324478	0.406970	0.837429
C111	C	-0.776842	-0.140621	0.297815
C112	C	-0.276842	0.359379	0.797815
C113	C	-0.776835	-0.140619	0.218569
C114	C	-0.276835	0.359381	0.718569
N115	N	-0.815401	-0.154837	0.461841
N116	N	-0.315401	0.345163	0.961841
N117	N	-0.815413	-0.154837	0.537121
N118	N	-0.315413	0.345163	1.037121
C119	C	-0.824496	-0.093040	0.576193
C120	C	-0.324496	0.406960	1.076193
N121	N	-0.833582	-0.031239	0.537140
N122	N	-0.333582	0.468761	1.037140
N123	N	-0.833574	-0.031240	0.461853
N124	N	-0.333574	0.468760	0.961853
C125	C	-0.824480	-0.093038	0.423358
C126	C	-0.324480	0.406962	0.923358
C127	C	-0.872130	-0.045444	0.701727
C128	C	-0.372130	0.454556	1.201727
C129	C	-0.872129	-0.045440	0.780976
C130	C	-0.372129	0.454560	1.280976
C131	C	-0.776881	-0.140634	0.781000
C132	C	-0.276881	0.359366	1.281000
C133	C	-0.776878	-0.140632	0.701753
C134	C	-0.276878	0.359368	1.201753
C135	C	-0.824506	-0.093038	0.662121
C136	C	-0.324506	0.406962	1.162121
H137	H	-0.464982	-0.210776	-0.000217
H138	H	0.035018	0.289224	0.499783
H139	H	-0.738051	-0.179371	0.186322
H140	H	-0.238051	0.320629	0.686322
H141	H	-0.738109	-0.179385	0.813275
H142	H	-0.238109	0.320615	1.313275
H143	H	-0.910910	-0.006684	0.813222
H144	H	-0.410910	0.493316	1.313222
H145	H	-0.738099	-0.179386	0.669505
H146	H	-0.238099	0.320614	1.169505
C147	C	-0.637898	0.188694	-0.000182
C148	C	-0.137898	0.688694	0.499818
C149	C	-0.693051	0.243509	-0.000190
C150	C	-0.193051	0.743509	0.499810
H151	H	-0.594353	0.207623	-0.000181
H152	H	-0.094353	0.707623	0.499819
H153	H	-0.640954	0.160656	0.043720
H154	H	-0.140954	0.660656	0.543720
H155	H	-0.640979	0.160635	-0.044087
H156	H	-0.140979	0.660635	0.455913
H157	H	-0.689974	0.271564	0.043718
H158	H	-0.189974	0.771564	0.543718
H159	H	-0.689994	0.271559	-0.044096
H160	H	-0.189994	0.771559	0.455904
H161	H	-0.183988	0.024713	-0.000246
H162	H	0.316012	0.524713	0.499754
H163	H	-0.944176	0.134360	-0.000222
H164	H	-0.444176	0.634360	0.499778
C165	C	-1.016756	0.239421	-0.000238
C166	C	-0.516756	0.739421	0.499762
C167	C	-0.960204	0.279278	-0.000236
C168	C	-0.460204	0.779278	0.499764
H169	H	-1.059571	0.269913	-0.000238
H170	H	-0.559571	0.769913	0.499762
H171	H	-1.014542	0.210658	-0.044138
H172	H	-0.514542	0.710658	0.455862
H173	H	-1.014513	0.210668	0.043668
H174	H	-0.514513	0.710668	0.543668
H175	H	-0.962445	0.308027	-0.044146
H176	H	-0.462445	0.808027	0.455854
H177	H	-0.962419	0.308053	0.043668
H178	H	-0.462419	0.808053	0.543668
H179	H	-0.713281	0.103448	-0.000190
H180	H	-0.213281	0.603448	0.499810
H181	H	-0.738072	-0.179374	0.330094
H182	H	-0.238072	0.320626	0.830094
C183	C	-0.582300	-0.269279	-0.064927
C184	C	-0.082300	0.230721	0.435073
C185	C	-0.605033	-0.231014	-0.000199
C186	C	-0.105033	0.268986	0.499801
H187	H	-0.601213	-0.312832	-0.064927
H188	H	-0.101213	0.187168	0.435073
H189	H	-0.597768	-0.243312	-0.108815
H190	H	-0.097768	0.256688	0.391185
H191	H	-0.532498	-0.277652	-0.064931
H192	H	-0.032498	0.222348	0.435069
H193	H	-0.654834	-0.222635	-0.000198
H194	H	-0.154834	0.277365	0.499802
H195	H	-0.589569	-0.256986	0.043699
H196	H	-0.089569	0.243014	0.543699
H197	H	-0.935683	0.710481	-0.000284
H198	H	-0.435683	1.210481	0.499716
H199	H	-0.628003	0.018171	-0.000150
H200	H	-0.128003	0.518171	0.499850
C201	C	-0.966245	0.048658	0.289813
C202	C	-0.466245	0.548658	0.789813
C203	C	-0.924446	0.006881	0.341334
C204	C	-0.424446	0.506881	0.841334
H205	H	-0.998566	0.080952	0.316696
H206	H	-0.498566	0.580952	0.816696
H207	H	-0.937261	0.073702	0.258927
H208	H	-0.437261	0.573702	0.758927
H209	H	-0.991266	0.019651	0.258882
H210	H	-0.491266	0.519651	0.758882
H211	H	-0.899421	0.035888	0.372262
H212	H	-0.399421	0.535888	0.872262
H213	H	-0.953434	-0.018165	0.372233
H214	H	-0.453434	0.481835	0.872233
C215	C	-1.011068	0.625233	-0.000303
C216	C	-0.511068	1.125233	0.499697
C217	C	-0.955915	0.570419	-0.000275
C218	C	-0.455915	1.070419	0.499725
H219	H	-1.054613	0.606304	-0.000324
H220	H	-0.554613	1.106304	0.499676
H221	H	-1.008002	0.653290	0.043597
H222	H	-0.508002	1.153290	0.543597
H223	H	-1.007998	0.653273	-0.044209
H224	H	-0.507998	1.153273	0.455791
H225	H	-0.958983	0.542382	0.043634
H226	H	-0.458983	1.042382	0.543634
H227	H	-0.958983	0.542349	-0.044180
H228	H	-0.458983	1.042349	0.455820
C229	C	0.034196	-0.225472	-0.065032
C230	C	0.534196	0.274528	0.434968
C231	C	-0.008163	-0.222208	-0.000307
C232	C	0.491837	0.277792	0.499693
H233	H	0.064687	-0.268288	-0.065044
H234	H	0.564687	0.231712	0.434956
H235	H	0.005410	-0.223245	-0.108921
H236	H	0.505410	0.276755	0.391079
H237	H	0.061228	-0.187100	-0.065019
H238	H	0.561228	0.312900	0.434981
H239	H	-0.035198	-0.260578	-0.000322
H240	H	0.464802	0.239422	0.499678
H241	H	0.020627	-0.224442	0.043593
H242	H	0.520627	0.275558	0.543593
H243	H	-0.704792	0.679578	-0.000230
H244	H	-0.204792	1.179578	0.499770
H245	H	-0.495885	0.020111	-0.000194
H246	H	0.004115	0.520111	0.499806
C247	C	-0.966272	0.048656	0.709659
C248	C	-0.466272	0.548656	1.209659
C249	C	-0.924473	0.006877	0.658157
C250	C	-0.424473	0.506877	1.158157
H251	H	-0.998582	0.080960	0.682761
H252	H	-0.498582	0.580960	1.182761
H253	H	-0.991298	0.019656	0.740546
H254	H	-0.491298	0.519656	1.240546
H255	H	-0.937281	0.073696	0.740590
H256	H	-0.437281	0.573696	1.240590
H257	H	-0.953463	-0.018167	0.627229
H258	H	-0.453463	0.481833	1.127229
H259	H	-0.899445	0.035881	0.627257
H260	H	-0.399445	0.535881	1.127257
H261	H	-0.910869	-0.006681	0.186275
H262	H	-0.410869	0.493319	0.686275
C263	C	-0.106218	-0.279617	-0.000286
C264	C	0.393782	0.220383	0.499714
C265	C	-0.161033	-0.224464	-0.000277
C266	C	0.338967	0.275536	0.499723
H267	H	-0.125147	-0.323162	-0.000279
H268	H	0.374853	0.176838	0.499721
H269	H	-0.078193	-0.276556	-0.044190
H270	H	0.421807	0.223444	0.455810
H271	H	-0.078147	-0.276542	0.043616
H272	H	0.421853	0.223458	0.543616
H273	H	-0.189102	-0.227536	-0.044182
H274	H	0.310898	0.272464	0.455818
H275	H	-0.189070	-0.227526	0.043632
H276	H	0.310930	0.272474	0.543632
H277	H	-0.051874	0.026659	-0.000319
H278	H	0.448126	0.526659	0.499681
H279	H	-0.706738	0.547464	-0.000216
H280	H	-0.206738	1.047464	0.499784
