data_functionalizedCrystal
_audit_creation_method	'MofGen! by Chris Wilmer'
_symmetry_space_group_name_H-M	'P1'
_symmetry_Int_Tables_number	1
_symmetry_cell_setting	triclinic
loop_
_symmetry_equiv_pos_as_xyz
  x,y,z
_cell_length_a	19.188930
_cell_length_b	10.654550
_cell_length_c	9.130313
_cell_angle_alpha	90.000276
_cell_angle_beta	89.990369
_cell_angle_gamma	96.185144
loop_
_atom_site_label
_atom_site_type_symbol
_atom_site_fract_x
_atom_site_fract_y
_atom_site_fract_z
O1	O	0.098062	-1.665764	-0.121709
O2	O	0.598062	-1.165764	0.378291
O3	O	0.107405	-1.300088	-0.121737
O4	O	0.607405	-0.800088	0.378263
O5	O	0.001147	-1.493479	-0.121693
O6	O	0.501147	-0.993479	0.378307
O7	O	0.204320	-1.472374	-0.121752
O8	O	0.704320	-0.972374	0.378248
O9	O	0.001143	-1.493466	0.121905
O10	O	0.501143	-0.993466	0.621905
O11	O	0.107401	-1.300075	0.121862
O12	O	0.607401	-0.800075	0.621862
O13	O	0.098059	-1.665751	0.121890
O14	O	0.598059	-1.165751	0.621890
Cu15	Cu	0.102730	-1.482912	0.144118
Cu16	Cu	0.602730	-0.982912	0.644118
Cu17	Cu	0.102734	-1.482928	-0.143965
Cu18	Cu	0.602734	-0.982928	0.356035
O19	O	0.204317	-1.472361	0.121847
O20	O	0.704317	-0.972361	0.621847
C21	C	0.106717	-1.253298	0.000059
C22	C	0.606717	-0.753298	0.500059
C23	C	0.104665	-1.113898	0.000049
C24	C	0.604665	-0.613898	0.500049
C25	C	-0.024870	-1.492789	0.000110
C26	C	0.475130	-0.992789	0.500110
C27	C	-0.102388	-1.490737	0.000123
C28	C	0.397612	-0.990737	0.500123
C29	C	0.098746	-1.712541	0.000091
C30	C	0.598746	-1.212541	0.500091
C31	C	0.100799	-1.851941	0.000091
C32	C	0.600799	-1.351941	0.500091
C33	C	-0.146570	-1.604213	0.000138
C34	C	0.353430	-1.104213	0.500138
C35	C	-0.219407	-1.602285	0.000115
C36	C	0.280593	-1.102285	0.500115
C37	C	-0.248058	-1.486876	0.000105
C38	C	0.251942	-0.986876	0.500105
C39	C	-0.203866	-1.373386	0.000081
C40	C	0.296134	-0.873386	0.500081
C41	C	-0.131032	-1.375316	0.000090
C42	C	0.368968	-0.875316	0.500090
N43	N	-0.356641	-1.398655	0.082999
N44	N	0.143359	-0.898655	0.582999
N45	N	-0.425831	-1.396828	0.082994
N46	N	0.074169	-0.896828	0.582994
C47	C	-0.467505	-1.481052	0.000075
C48	C	0.032495	-0.981052	0.500075
N49	N	-0.437375	-1.567190	-0.082821
N50	N	0.062625	-1.067190	0.417179
N51	N	-0.368178	-1.569020	-0.082809
N52	N	0.131822	-1.069020	0.417191
C53	C	-0.327034	-1.484770	0.000094
C54	C	0.172966	-0.984770	0.500094
C55	C	-0.590665	-1.592445	0.000063
C56	C	-0.090665	-1.092445	0.500063
C57	C	-0.663502	-1.590513	0.000030
C58	C	-0.163502	-1.090513	0.500030
C59	C	-0.647960	-1.361610	0.000011
C60	C	-0.147960	-0.861610	0.500011
C61	C	-0.575124	-1.363545	0.000029
C62	C	-0.075124	-0.863545	0.500029
C63	C	-0.546481	-1.478966	0.000062
C64	C	-0.046481	-0.978966	0.500062
C65	C	0.230334	-1.473051	0.000040
C66	C	0.730334	-0.973051	0.500040
C67	C	0.307852	-1.475102	0.000018
C68	C	0.807852	-0.975102	0.500018
N69	N	0.102727	-1.482910	0.346741
N70	N	0.602727	-0.982910	0.846741
C71	C	0.167228	-1.033089	0.000035
C72	C	0.667228	-0.533089	0.500035
C73	C	0.165295	-0.902109	0.000061
C74	C	0.665295	-0.402109	0.500061
C75	C	0.038231	-0.932761	0.000109
C76	C	0.538231	-0.432761	0.500109
C77	C	0.040164	-1.063738	0.000094
C78	C	0.540164	-0.563738	0.500094
N79	N	0.102731	-1.482939	-0.346588
N80	N	0.602731	-0.982939	0.153412
C81	C	0.055696	-1.568572	0.423412
C82	C	0.555696	-1.068572	0.923412
C83	C	0.055696	-1.568584	0.576749
C84	C	0.555696	-1.068584	1.076749
C85	C	0.149764	-1.397268	0.576730
C86	C	0.649764	-0.897268	1.076730
C87	C	0.149760	-1.397251	0.423396
C88	C	0.649760	-0.897251	0.923396
H89	H	-0.123254	-1.698197	0.000160
H90	H	0.376746	-1.198197	0.500160
H91	H	0.188059	-1.327489	0.360966
H92	H	0.688059	-0.827489	0.860966
Cl93	Cl	-0.274960	-1.744951	0.000134
Cl94	Cl	0.225040	-1.244951	0.500134
H95	H	-0.227199	-1.279418	0.000069
H96	H	0.272801	-0.779418	0.500069
Cl97	Cl	0.243950	-0.800524	0.000046
Cl98	Cl	0.743950	-0.300524	0.500046
H99	H	-0.095058	-1.282908	0.000077
H100	H	0.404942	-0.782908	0.500077
Cl101	Cl	0.248313	-1.096143	-0.000011
Cl102	Cl	0.748313	-0.596143	0.499989
Cl103	Cl	-0.042851	-0.869693	0.000155
Cl104	Cl	0.457149	-0.369693	0.500155
H105	H	0.017397	-1.638319	0.361004
H106	H	0.517397	-1.138319	0.861004
Cl107	Cl	-0.038493	-1.165335	0.000123
Cl108	Cl	0.461507	-0.665335	0.500123
Cl109	Cl	-0.554652	-1.737542	0.000113
Cl110	Cl	-0.054652	-1.237542	0.500113
H111	H	0.017398	-1.638336	0.639171
H112	H	0.517398	-1.138336	1.139171
H113	H	-0.699475	-1.682922	0.000035
H114	H	-0.199475	-1.182922	0.500035
Cl115	Cl	0.208892	-1.289592	0.673103
Cl116	Cl	0.708892	-0.789592	1.173103
H117	H	-0.539150	-1.271141	0.000024
H118	H	-0.039150	-0.771141	0.500024
Cl119	Cl	-0.683972	-1.216522	-0.000011
Cl120	Cl	-0.183972	-0.716522	0.499989
