data_functionalizedCrystal
_audit_creation_method	'MofGen! by Chris Wilmer'
_symmetry_space_group_name_H-M	'P1'
_symmetry_Int_Tables_number	1
_symmetry_cell_setting	triclinic
loop_
_symmetry_equiv_pos_as_xyz
  x,y,z
_cell_length_a	13.635800
_cell_length_b	14.814571
_cell_length_c	10.992410
_cell_angle_alpha	82.621094
_cell_angle_beta	108.764651
_cell_angle_gamma	135.366958
loop_
_atom_site_label
_atom_site_type_symbol
_atom_site_fract_x
_atom_site_fract_y
_atom_site_fract_z
V1	V	2.148459	0.177760	0.400574
O2	O	2.031799	-0.008542	0.392968
O3	O	2.227016	0.352468	0.397815
O4	O	2.135850	0.175026	0.575286
O5	O	2.123595	0.170129	0.214268
V6	V	2.375456	0.155476	0.378292
O7	O	2.311475	0.226641	0.449449
O8	O	2.437539	0.106595	0.329416
O9	O	2.185297	-0.019232	0.381051
O10	O	2.550815	0.341778	0.385898
O11	O	2.459018	0.163107	0.564598
O12	O	2.276462	0.158210	0.203580
V13	V	2.648459	0.177760	0.400574
O14	O	2.531799	-0.008542	0.392968
O15	O	2.727016	0.352468	0.397815
O16	O	2.635850	0.175026	0.575286
O17	O	2.623595	0.170129	0.214268
V18	V	2.875456	0.155476	0.378292
O19	O	2.811475	0.226641	0.449449
O20	O	2.937539	0.106595	0.329416
O21	O	2.685297	-0.019232	0.381051
O22	O	3.050815	0.341778	0.385898
O23	O	2.959018	0.163107	0.564598
O24	O	2.776462	0.158210	0.203580
C25	C	2.174139	0.395058	0.391491
C26	C	2.279088	0.537884	0.390399
C27	C	2.057847	0.168711	0.617872
C28	C	2.088859	0.167631	0.760700
C29	C	2.313261	0.733170	0.381612
C30	C	2.203845	0.584527	0.382237
C31	C	2.334244	0.576519	0.270583
C32	C	2.442685	0.725062	0.269313
C33	C	2.528261	0.763643	0.514929
C34	C	2.417427	0.615131	0.517529
C35	C	2.069848	-0.061815	0.387372
C36	C	1.954519	-0.204640	0.388471
C37	C	2.573318	0.938183	0.387370
C38	C	2.468328	0.795355	0.388462
C39	C	2.186138	0.164529	0.160988
C40	C	2.144741	0.165602	0.018158
C41	C	2.674139	0.395058	0.391491
C42	C	2.779088	0.537884	0.390399
C43	C	2.017367	0.157795	0.955825
C44	C	1.985442	0.159450	0.807341
C45	C	2.252957	0.294311	0.837790
C46	C	2.284538	0.293191	0.986357
C47	C	2.097384	0.047893	0.948352
C48	C	2.061721	0.047293	0.799339
C49	C	2.557847	0.168711	0.617872
C50	C	2.588859	0.167631	0.760700
C51	C	2.686138	0.164529	0.160988
C52	C	2.644741	0.165602	0.018158
C53	C	1.691295	-0.399922	0.397288
C54	C	1.811389	-0.251282	0.396641
C55	C	2.012093	-0.243256	0.508296
C56	C	1.891514	-0.391796	0.509587
C57	C	1.790019	-0.430412	0.263972
C58	C	1.907467	-0.281903	0.261350
C59	C	2.517367	0.157795	0.955825
C60	C	2.485442	0.159450	0.807341
C61	C	2.752957	0.294311	0.837790
C62	C	2.784538	0.293191	0.986357
C63	C	2.597384	0.047893	0.948352
C64	C	2.561721	0.047293	0.799339
H65	H	2.162045	0.558763	0.467850
H66	H	2.391525	0.546284	0.271965
H67	H	1.911641	0.066080	0.974664
H68	H	2.550534	0.813160	0.605590
H69	H	2.476797	0.584923	0.530911
F70	F	1.827237	0.040409	0.737631
F71	F	2.369361	0.583909	0.633398
H72	H	2.265928	0.753730	0.290408
H73	H	2.115409	-0.213020	0.506909
H74	H	2.102559	0.532085	0.290959
F75	F	1.847584	-0.250688	0.145473
H76	H	2.548353	0.242370	1.003808
F77	F	1.554088	-0.460607	0.286084
F78	F	2.037040	-0.242439	0.243860
H79	H	1.941944	-0.046419	0.746991
F80	F	2.153587	0.045338	0.756834
F81	F	2.505671	0.271537	0.774890
F82	F	1.965524	-0.077845	0.974979
F83	F	1.847839	-0.484133	0.255781
F84	F	2.834225	0.409686	1.046827
F85	F	2.327556	0.793850	0.492814
F86	F	2.379106	0.037817	0.980276
F87	F	2.410862	0.307565	1.042078
H88	H	2.396284	0.742576	0.174182
F89	F	2.327237	0.040409	0.737631
H90	H	2.551797	0.765945	0.269124
H91	H	2.189242	0.052497	0.989192
F92	F	2.205942	0.505629	0.147562
H93	H	2.639312	0.804760	0.521208
H94	H	2.048353	0.242370	1.003808
H95	H	2.632013	0.045805	0.766828
F96	F	2.005671	0.271537	0.774890
H97	H	2.322551	0.382318	1.032618
H98	H	2.333571	0.304872	0.808986
F99	F	2.283059	0.411096	0.804311
H100	H	1.867382	-0.409296	0.604724
H101	H	1.765013	-0.225532	0.311022
F102	F	1.649903	-0.426627	0.516593
H103	H	1.838541	-0.198828	0.487913
F104	F	1.951638	-0.445231	0.509863
F105	F	2.057223	-0.172350	0.631310
H106	H	1.688696	-0.479942	0.173317
H107	H	2.689242	0.052497	0.989192
H108	H	2.496500	-0.048305	0.968721
F109	F	2.858331	0.308118	0.800147
F110	F	2.910862	0.307565	1.042078
H111	H	2.775983	0.383657	0.812175
F112	F	2.405161	-0.075199	0.730926
