data_functionalizedCrystal
_audit_creation_method	'MofGen! by Chris Wilmer'
_symmetry_space_group_name_H-M	'P1'
_symmetry_Int_Tables_number	1
_symmetry_cell_setting	triclinic
loop_
_symmetry_equiv_pos_as_xyz
  x,y,z
_cell_length_a	18.050590
_cell_length_b	18.050590
_cell_length_c	18.101389
_cell_angle_alpha	90.019149
_cell_angle_beta	90.003324
_cell_angle_gamma	90.007719
loop_
_atom_site_label
_atom_site_type_symbol
_atom_site_fract_x
_atom_site_fract_y
_atom_site_fract_z
Zn1	Zn	1.135372	-0.295952	0.418420
Zn2	Zn	1.385372	-0.045952	0.668420
Zn3	Zn	1.635372	0.204048	0.918420
Zn4	Zn	1.885372	0.454048	1.168420
Zn5	Zn	1.135295	-0.420126	0.294577
Zn6	Zn	1.385295	-0.170126	0.544577
Zn7	Zn	1.635295	0.079874	0.794577
Zn8	Zn	1.885295	0.329874	1.044577
Zn9	Zn	1.011183	-0.295931	0.294626
Zn10	Zn	1.261183	-0.045931	0.544626
Zn11	Zn	1.511183	0.204069	0.794626
Zn12	Zn	1.761183	0.454069	1.044626
Zn13	Zn	1.011160	-0.420081	0.418411
Zn14	Zn	1.261160	-0.170081	0.668411
Zn15	Zn	1.511160	0.079919	0.918411
Zn16	Zn	1.761160	0.329919	1.168411
O17	O	1.073253	-0.358023	0.356509
O18	O	1.323253	-0.108023	0.606509
O19	O	1.573253	0.141977	0.856509
O20	O	1.823253	0.391977	1.106509
O21	O	1.239287	-0.312452	0.401975
O22	O	1.489287	-0.062452	0.651975
O23	O	1.739287	0.187548	0.901975
O24	O	1.989287	0.437548	1.151975
O25	O	1.118808	-0.403662	0.190950
O26	O	1.368808	-0.153662	0.440950
O27	O	1.618808	0.096338	0.690950
O28	O	1.868808	0.346338	0.940950
O29	O	1.027698	-0.192009	0.311073
O30	O	1.277698	0.057991	0.561073
O31	O	1.527698	0.307991	0.811073
O32	O	1.777698	0.557991	1.061073
O33	O	1.239230	-0.403682	0.310988
O34	O	1.489230	-0.153682	0.560988
O35	O	1.739230	0.096318	0.810988
O36	O	1.989230	0.346318	1.060988
O37	O	1.118940	-0.192025	0.402023
O38	O	1.368940	0.057975	0.652023
O39	O	1.618940	0.307975	0.902023
O40	O	1.868940	0.557975	1.152023
O41	O	1.027623	-0.312416	0.190987
O42	O	1.277623	-0.062416	0.440987
O43	O	1.527623	0.187584	0.690987
O44	O	1.777623	0.437584	0.940987
O45	O	0.907255	-0.312372	0.311064
O46	O	1.157255	-0.062372	0.561064
O47	O	1.407255	0.187628	0.811064
O48	O	1.657255	0.437628	1.061064
O49	O	1.027660	-0.403605	0.522045
O50	O	1.277660	-0.153605	0.772045
O51	O	1.527660	0.096395	1.022045
O52	O	1.777660	0.346395	1.272045
O53	O	0.907239	-0.403585	0.402007
O54	O	1.157239	-0.153585	0.652007
O55	O	1.407239	0.096415	0.902007
O56	O	1.657239	0.346415	1.152007
O57	O	1.118918	-0.312408	0.522052
O58	O	1.368918	-0.062408	0.772052
O59	O	1.618918	0.187592	1.022052
O60	O	1.868918	0.437592	1.272052
O61	O	1.118787	-0.524045	0.310979
O62	O	1.368787	-0.274045	0.560979
O63	O	1.618787	-0.024045	0.810979
O64	O	1.868787	0.225955	1.060979
O65	O	1.027586	-0.524012	0.401959
O66	O	1.277586	-0.274012	0.651959
O67	O	1.527586	-0.024012	0.901959
O68	O	1.777586	0.225988	1.151959
C69	C	0.880301	-0.357972	0.356540
C70	C	1.130301	-0.107972	0.606540
C71	C	1.380301	0.142028	0.856540
C72	C	1.630301	0.392028	1.106540
C73	C	0.797755	-0.357968	0.356572
C74	C	1.047755	-0.107968	0.606572
C75	C	1.297755	0.142032	0.856572
C76	C	1.547755	0.392032	1.106572
C77	C	0.598317	-0.407712	0.405909
C78	C	0.848317	-0.157712	0.655909
C79	C	1.098317	0.092288	0.905909
C80	C	1.348317	0.342288	1.155909
C81	C	0.548914	-0.339998	0.424134
C82	C	0.798914	-0.089998	0.674134
C83	C	1.048914	0.160002	0.924134
C84	C	1.298914	0.410002	1.174134
C85	C	0.646624	-0.358010	0.356535
C86	C	0.896624	-0.108010	0.606535
C87	C	1.146624	0.141990	0.856535
C88	C	1.396624	0.391990	1.106535
C89	C	0.548946	-0.425762	0.338310
C90	C	0.798946	-0.175762	0.588310
C91	C	1.048946	0.074238	0.838310
C92	C	1.298946	0.324238	1.088310
C93	C	0.500639	-0.358056	0.356502
C94	C	0.750639	-0.108056	0.606502
C95	C	1.000639	0.141944	0.856502
C96	C	1.250639	0.391944	1.106502
C97	C	0.598308	-0.290260	0.374796
C98	C	0.848308	-0.040260	0.624796
C99	C	1.098308	0.209740	0.874796
C100	C	1.348308	0.459740	1.124796
C101	C	0.598345	-0.376070	0.288940
C102	C	0.848345	-0.126070	0.538940
C103	C	1.098345	0.123930	0.788940
C104	C	1.348345	0.373930	1.038940
C105	C	0.548964	-0.308309	0.307139
C106	C	0.798964	-0.058309	0.557139
C107	C	1.048964	0.191691	0.807139
C108	C	1.298964	0.441691	1.057139
C109	C	0.730723	-0.357984	0.356557
C110	C	0.980723	-0.107984	0.606557
C111	C	1.230723	0.142016	0.856557
C112	C	1.480723	0.392016	1.106557
C113	C	0.416543	-0.358074	0.356481
C114	C	0.666543	-0.108074	0.606481
C115	C	0.916543	0.141926	0.856481
C116	C	1.166543	0.391926	1.106481
C117	C	1.073196	-0.550975	0.356479
C118	C	1.323196	-0.300975	0.606479
C119	C	1.573196	-0.050975	0.856479
C120	C	1.823196	0.199025	1.106479
C121	C	1.073239	-0.633521	0.356491
C122	C	1.323239	-0.383521	0.606491
C123	C	1.573239	-0.133521	0.856491
C124	C	1.823239	0.116479	1.106491
C125	C	1.122937	-0.832962	0.307085
C126	C	1.372937	-0.582962	0.557085
C127	C	1.622937	-0.332962	0.807085
C128	C	1.872937	-0.082962	1.057085
C129	C	1.141078	-0.882309	0.374670
C130	C	1.391078	-0.632309	0.624670
C131	C	1.641078	-0.382309	0.874670
C132	C	1.891078	-0.132309	1.124670
C133	C	1.073281	-0.784651	0.356521
C134	C	1.323281	-0.534651	0.606521
C135	C	1.573281	-0.284651	0.856521
C136	C	1.823281	-0.034651	1.106521
C137	C	1.055216	-0.882386	0.288966
C138	C	1.305216	-0.632386	0.538966
C139	C	1.555216	-0.382386	0.788966
C140	C	1.805216	-0.132386	1.038966
C141	C	1.073323	-0.930636	0.356543
C142	C	1.323323	-0.680636	0.606543
C143	C	1.573323	-0.430636	0.856543
C144	C	1.823323	-0.180636	1.106543
C145	C	1.091456	-0.832911	0.424141
C146	C	1.341456	-0.582911	0.674141
C147	C	1.591456	-0.332911	0.924141
C148	C	1.841456	-0.082911	1.174141
C149	C	1.005564	-0.832983	0.338392
C150	C	1.255564	-0.582983	0.588392
C151	C	1.505564	-0.332983	0.838392
C152	C	1.755564	-0.082983	1.088392
C153	C	1.023678	-0.882307	0.406023
C154	C	1.273678	-0.632307	0.656023
C155	C	1.523678	-0.382307	0.906023
C156	C	1.773678	-0.132307	1.156023
C157	C	1.073259	-0.700553	0.356507
C158	C	1.323259	-0.450553	0.606507
C159	C	1.573259	-0.200553	0.856507
C160	C	1.823259	0.049447	1.106507
C161	C	1.073346	-1.014733	0.356565
C162	C	1.323346	-0.764733	0.606565
C163	C	1.573346	-0.514733	0.856565
C164	C	1.823346	-0.264733	1.106565
C165	C	1.266958	-0.358074	0.356477
C166	C	1.516958	-0.108074	0.606477
C167	C	1.766958	0.141926	0.856477
C168	C	2.016958	0.391926	1.106477
C169	C	1.349504	-0.358096	0.356463
C170	C	1.599504	-0.108096	0.606463
C171	C	1.849504	0.141904	0.856463
C172	C	2.099504	0.391904	1.106463
C173	C	1.073296	-0.358004	0.549670
C174	C	1.323296	-0.108004	0.799670
C175	C	1.573296	0.141996	1.049670
C176	C	1.823296	0.391996	1.299670
C177	C	1.073314	-0.357996	0.631985
C178	C	1.323314	-0.107996	0.881985
C179	C	1.573314	0.142004	1.131985
C180	C	1.823314	0.392004	1.381985
C181	C	1.073330	-0.164317	0.356554
C182	C	1.323330	0.085683	0.606554
C183	C	1.573330	0.335683	0.856554
C184	C	1.823330	0.585683	1.106554
C185	C	1.073363	-0.081771	0.356574
C186	C	1.323363	0.168229	0.606574
C187	C	1.573363	0.418229	0.856574
C188	C	1.823363	0.668229	1.106574
C189	C	1.073253	-0.357988	0.164098
C190	C	1.323253	-0.107988	0.414098
C191	C	1.573253	0.142012	0.664098
C192	C	1.823253	0.392012	0.914098
C193	C	1.073378	-0.357787	0.081784
C194	C	1.323378	-0.107787	0.331784
C195	C	1.573378	0.142213	0.581784
C196	C	1.823378	0.392213	0.831784
C197	C	1.073357	-0.357857	0.931076
C198	C	1.323357	-0.107857	1.181076
C199	C	1.573357	0.142143	1.431076
C200	C	1.823357	0.392143	1.681076
C201	C	1.015742	-0.415053	0.899746
C202	C	1.265742	-0.165053	1.149746
C203	C	1.515742	0.084947	1.399746
C204	C	1.765742	0.334947	1.649746
C205	C	1.015898	-0.415318	0.814128
C206	C	1.265898	-0.165318	1.064128
C207	C	1.515898	0.084682	1.314128
C208	C	1.765898	0.334682	1.564128
C209	C	1.073335	-0.357926	0.782693
C210	C	1.323335	-0.107926	1.032693
C211	C	1.573335	0.142074	1.282693
C212	C	1.823335	0.392074	1.532693
C213	C	1.151585	-0.379184	0.813770
C214	C	1.401585	-0.129184	1.063770
C215	C	1.651585	0.120816	1.313770
C216	C	1.901585	0.370816	1.563770
C217	C	1.151264	-0.379560	0.899415
C218	C	1.401264	-0.129560	1.149415
C219	C	1.651264	0.120440	1.399415
C220	C	1.901264	0.370440	1.649415
C221	C	1.053402	-0.279275	0.899508
C222	C	1.303402	-0.029275	1.149508
C223	C	1.553402	0.220725	1.399508
C224	C	1.803402	0.470725	1.649508
C225	C	1.051662	-0.279728	0.813858
C226	C	1.301662	-0.029728	1.063858
C227	C	1.551662	0.220272	1.313858
C228	C	1.801662	0.470272	1.563858
C229	C	1.073327	-0.357964	0.698834
C230	C	1.323327	-0.107964	0.948834
C231	C	1.573327	0.142036	1.198834
C232	C	1.823327	0.392036	1.448834
C233	C	1.073370	-0.357821	1.014935
C234	C	1.323370	-0.107821	1.264935
C235	C	1.573370	0.142179	1.514935
C236	C	1.823370	0.392179	1.764935
H237	H	0.620074	-0.391351	0.231806
H238	H	0.870074	-0.141351	0.481806
H239	H	1.120074	0.108649	0.731806
H240	H	1.370074	0.358649	0.981806
Cl241	Cl	0.962750	-0.254979	0.782510
Cl242	Cl	1.212750	-0.004979	1.032510
Cl243	Cl	1.462750	0.245021	1.282510
Cl244	Cl	1.712750	0.495021	1.532510
H245	H	0.957873	-0.402014	0.793117
H246	H	1.207873	-0.152014	1.043117
H247	H	1.457873	0.097986	1.293117
H248	H	1.707873	0.347986	1.543117
H249	H	1.090562	-0.234851	0.792460
H250	H	1.340562	0.015149	1.042460
H251	H	1.590562	0.265149	1.292460
H252	H	1.840562	0.515149	1.542460
H253	H	0.948295	-0.811298	0.323023
H254	H	1.198295	-0.561298	0.573023
H255	H	1.448295	-0.311298	0.823023
H256	H	1.698295	-0.061298	1.073023
H257	H	1.106696	-0.811271	0.481330
H258	H	1.356696	-0.561271	0.731330
H259	H	1.606696	-0.311271	0.981330
H260	H	1.856696	-0.061271	1.231330
Cl261	Cl	1.219748	-0.317994	0.931416
Cl262	Cl	1.469748	-0.067994	1.181416
Cl263	Cl	1.719748	0.182006	1.431416
Cl264	Cl	1.969748	0.432006	1.681416
Cl265	Cl	1.219646	-0.316890	0.782336
Cl266	Cl	1.469646	-0.066890	1.032336
Cl267	Cl	1.719646	0.183110	1.282336
Cl268	Cl	1.969646	0.433110	1.532336
H269	H	0.527259	-0.483040	0.322911
H270	H	0.777259	-0.233040	0.572911
H271	H	1.027259	0.016960	0.822911
H272	H	1.277259	0.266960	1.072911
Cl273	Cl	1.036283	-0.505238	0.782491
Cl274	Cl	1.286283	-0.255238	1.032491
Cl275	Cl	1.536283	-0.005238	1.282491
Cl276	Cl	1.786283	0.244762	1.532491
Cl277	Cl	1.178153	-0.466933	0.780657
Cl278	Cl	1.428153	-0.216933	1.030657
Cl279	Cl	1.678153	0.033067	1.280657
Cl280	Cl	1.928153	0.283067	1.530657
H281	H	0.981704	-0.903837	0.447887
H282	H	1.231704	-0.653837	0.697887
H283	H	1.481704	-0.403837	0.947887
H284	H	1.731704	-0.153837	1.197887
Cl285	Cl	1.177376	-0.468250	0.930261
Cl286	Cl	1.427376	-0.218250	1.180261
Cl287	Cl	1.677376	0.031750	1.430261
Cl288	Cl	1.927376	0.281750	1.680261
H289	H	0.997334	-0.259910	0.921115
H290	H	1.247334	-0.009910	1.171115
H291	H	1.497334	0.240090	1.421115
H292	H	1.747334	0.490090	1.671115
Cl293	Cl	0.515389	-0.316435	0.512368
Cl294	Cl	0.765389	-0.066435	0.762368
Cl295	Cl	1.015389	0.183565	1.012368
Cl296	Cl	1.265389	0.433565	1.262368
H297	H	0.619901	-0.232965	0.390261
H298	H	0.869901	0.017035	0.640261
H299	H	1.119901	0.267035	0.890261
H300	H	1.369901	0.517035	1.140261
H301	H	1.095366	-0.236661	0.919769
H302	H	1.345366	0.013339	1.169769
H303	H	1.595366	0.263339	1.419769
H304	H	1.845366	0.513339	1.669769
H305	H	0.619989	-0.449669	0.447710
H306	H	0.869989	-0.199669	0.697710
H307	H	1.119989	0.050331	0.947710
H308	H	1.369989	0.300331	1.197710
Cl309	Cl	1.031599	-0.915939	0.200749
Cl310	Cl	1.281599	-0.665939	0.450749
Cl311	Cl	1.531599	-0.415939	0.700749
Cl312	Cl	1.781599	-0.165939	0.950749
H313	H	0.527431	-0.266249	0.265371
H314	H	0.777431	-0.016249	0.515371
H315	H	1.027431	0.233751	0.765371
H316	H	1.277431	0.483751	1.015371
Cl317	Cl	1.187789	-0.799506	0.242605
Cl318	Cl	1.437789	-0.549506	0.492605
Cl319	Cl	1.687789	-0.299506	0.742605
Cl320	Cl	1.937789	-0.049506	0.992605
Cl321	Cl	0.925882	-0.394720	0.931555
Cl322	Cl	1.175882	-0.144720	1.181555
Cl323	Cl	1.425882	0.105280	1.431555
Cl324	Cl	1.675882	0.355280	1.681555
Cl325	Cl	1.229524	-0.915747	0.398380
Cl326	Cl	1.479524	-0.665747	0.648380
Cl327	Cl	1.729524	-0.415747	0.898380
Cl328	Cl	1.979524	-0.165747	1.148380
Cl329	Cl	1.035837	-0.504424	0.933025
Cl330	Cl	1.285837	-0.254424	1.183025
Cl331	Cl	1.535837	-0.004424	1.433025
Cl332	Cl	1.785837	0.245576	1.683025
