data_functionalizedCrystal
_audit_creation_method	'MofGen! by Chris Wilmer'
_symmetry_space_group_name_H-M	'P1'
_symmetry_Int_Tables_number	1
_symmetry_cell_setting	triclinic
loop_
_symmetry_equiv_pos_as_xyz
  x,y,z
_cell_length_a	17.699083
_cell_length_b	16.176319
_cell_length_c	17.699092
_cell_angle_alpha	90.005121
_cell_angle_beta	96.715309
_cell_angle_gamma	89.998611
loop_
_atom_site_label
_atom_site_type_symbol
_atom_site_fract_x
_atom_site_fract_y
_atom_site_fract_z
O1	O	-1.004082	0.068628	0.095713
O2	O	-0.783704	0.068654	0.108165
O3	O	-0.900116	0.068638	-0.008250
O4	O	-0.887670	0.068644	0.212128
O5	O	-0.900100	-0.068855	-0.008257
O6	O	-0.783688	-0.068839	0.108158
O7	O	-1.004066	-0.068866	0.095705
Cu8	Cu	-0.893875	-0.081406	0.101931
Cu9	Cu	-0.893894	0.081195	0.101940
O10	O	-0.887654	-0.068850	0.212120
C11	C	-0.755499	-0.000089	0.107715
C12	C	-0.671480	-0.000079	0.106377
N13	N	-0.893867	-0.195772	0.101924
C14	C	-0.899661	-0.000107	-0.036450
C15	C	-0.898319	-0.000103	-0.120468
C16	C	-1.032271	-0.000121	0.096155
C17	C	-1.116289	-0.000125	0.097494
C18	C	-0.622862	-0.000077	0.174710
C19	C	-0.543918	-0.000088	0.173448
C20	C	-0.513595	-0.000094	0.103851
C21	C	-0.562220	-0.000098	0.035513
C22	C	-0.641162	-0.000093	0.036776
C23	C	-0.243857	-0.000119	0.030418
C24	C	-0.164909	-0.000121	0.029160
C25	C	-0.146613	-0.000113	0.167089
C26	C	-0.225555	-0.000109	0.168352
C27	C	-0.274173	-0.000117	0.100014
C28	C	-0.359772	-0.000107	0.101384
C29	C	-0.427998	-0.000098	0.102481
C30	C	-0.945430	-0.239043	0.050397
C31	C	-0.945434	-0.325590	0.050396
C32	C	-0.893878	-0.368864	0.101927
C33	C	-0.842310	-0.325587	0.153457
C34	C	-0.842303	-0.239041	0.153453
C35	C	-0.842336	-0.674615	0.153471
C36	C	-0.842348	-0.761167	0.153472
C37	C	-0.945467	-0.761164	0.050414
C38	C	-0.945460	-0.674618	0.050410
C39	C	-0.893889	-0.631349	0.101937
C40	C	-0.893885	-0.537504	0.101936
C41	C	-0.893886	-0.462707	0.101932
N42	N	-0.893908	0.195560	0.101940
C43	C	-0.897700	0.074846	-0.159932
C44	C	-0.896435	0.074847	-0.238875
C45	C	-0.895795	-0.000102	-0.278353
C46	C	-0.896412	-0.075056	-0.238884
C47	C	-0.897672	-0.075056	-0.159942
C48	C	-0.891332	-0.075057	-0.557249
C49	C	-0.890075	-0.075050	-0.636197
C50	C	-0.890095	0.074846	-0.636182
C51	C	-0.891355	0.074846	-0.557240
C52	C	-0.891968	-0.000108	-0.517777
C53	C	-0.893338	-0.000108	-0.432178
C54	C	-0.894430	-0.000102	-0.363952
C55	C	-0.888109	-0.000103	0.240321
C56	C	-0.889450	-0.000101	0.324339
H57	H	-0.504335	-0.000086	0.229091
H58	H	-0.107018	-0.000111	0.222733
H59	H	-0.895934	0.135877	-0.271003
O60	O	-0.132203	-0.000144	-0.045910
H61	H	-0.151745	0.055886	-0.078748
H62	H	-0.987420	-0.360821	0.008438
H63	H	-0.898166	-0.136087	-0.127810
H64	H	-0.283433	-0.000126	-0.025227
H65	H	-0.891879	0.135877	-0.525100
H66	H	-0.889592	0.135877	-0.668321
H67	H	-0.647544	-0.000072	0.231383
H68	H	-0.537525	-0.000115	-0.021154
O69	O	-0.693607	-0.000092	-0.036925
H70	H	-0.659261	-0.000090	-0.085533
O71	O	-1.001034	-0.192369	-0.005186
H72	H	-1.036883	-0.237002	-0.041022
O73	O	-1.001090	-0.807829	-0.005170
H74	H	-0.969310	-0.847262	-0.041925
O75	O	-0.786720	-0.627956	0.209053
H76	H	-0.795367	-0.560505	0.200393
O77	O	-0.889376	-0.155891	-0.678782
H78	H	-0.890005	-0.208012	-0.638078
O79	O	-1.001061	-0.627941	-0.005173
H80	H	-1.036912	-0.672572	-0.041011
O81	O	-0.786751	-0.807847	0.209065
H82	H	-0.750889	-0.763220	0.244896
O83	O	-0.786704	-0.372255	0.209042
H84	H	-0.795376	-0.439706	0.200396
O85	O	-0.786693	-0.192364	0.209032
H86	H	-0.750849	-0.236993	0.244872
H87	H	-0.250239	-0.000100	0.225025
H88	H	-0.898225	0.135877	-0.127794
H89	H	-0.891847	-0.136089	-0.525130
H90	H	-0.895887	-0.136080	-0.271033
