data_functionalizedCrystal
_audit_creation_method	'MofGen! by Chris Wilmer'
_symmetry_space_group_name_H-M	'P1'
_symmetry_Int_Tables_number	1
_symmetry_cell_setting	triclinic
loop_
_symmetry_equiv_pos_as_xyz
  x,y,z
_cell_length_a	19.805407
_cell_length_b	19.121111
_cell_length_c	19.805399
_cell_angle_alpha	87.586854
_cell_angle_beta	89.982197
_cell_angle_gamma	87.532387
loop_
_atom_site_label
_atom_site_type_symbol
_atom_site_fract_x
_atom_site_fract_y
_atom_site_fract_z
Zn1	Zn	1.023225	0.279680	-0.394183
Zn2	Zn	1.018306	0.397133	-0.285822
Zn3	Zn	0.910039	0.279694	-0.281012
Zn4	Zn	0.905171	0.397090	-0.398971
O5	O	0.964186	0.338399	-0.339997
O6	O	1.117289	0.295273	-0.379818
O7	O	1.003923	0.381578	-0.190468
O8	O	0.929150	0.181408	-0.292007
O9	O	1.113675	0.381564	-0.300206
O10	O	1.012307	0.181398	-0.375154
O11	O	0.924380	0.295296	-0.186934
O12	O	0.814678	0.295255	-0.296649
O13	O	0.920853	0.381491	-0.493051
O14	O	0.811101	0.381505	-0.383313
O15	O	1.007587	0.295231	-0.489534
O16	O	0.999203	0.495411	-0.304848
O17	O	0.916083	0.495380	-0.387978
C18	C	0.788331	0.338377	-0.339979
C19	C	0.713098	0.338385	-0.339989
C20	C	0.679633	0.293532	-0.381512
C21	C	0.608945	0.293536	-0.381515
C22	C	0.571722	0.338396	-0.339997
C23	C	0.605192	0.383251	-0.298469
C24	C	0.675880	0.383243	-0.298464
C25	C	0.320117	0.383282	-0.298492
C26	C	0.249425	0.383288	-0.298502
C27	C	0.253183	0.293575	-0.381543
C28	C	0.323870	0.293567	-0.381537
C29	C	0.357334	0.338419	-0.340007
C30	C	0.433983	0.338414	-0.340003
C31	C	0.495075	0.338406	-0.340004
C32	C	0.956599	0.520880	-0.347469
C33	C	0.953416	0.598946	-0.350689
C34	C	0.995230	0.635614	-0.308956
C35	C	0.992240	0.708966	-0.311988
C36	C	0.947432	0.745647	-0.356750
C37	C	0.905616	0.708973	-0.398487
C38	C	0.908610	0.635623	-0.395458
C39	C	0.936229	0.967116	-0.368062
C40	C	0.933237	1.040472	-0.371086
C41	C	1.019861	1.040459	-0.284588
C42	C	1.022849	0.967108	-0.281560
C43	C	0.981035	0.930440	-0.323300
C44	C	0.944373	0.820624	-0.359848
C45	C	0.984098	0.855465	-0.320204
C46	C	1.140727	0.338422	-0.340015
C47	C	1.215959	0.338431	-0.340022
C48	C	0.971814	1.155206	-0.332518
C49	C	0.975051	1.077140	-0.329354
C50	C	0.964225	0.338355	-0.516538
C51	C	0.964242	0.338336	-0.591769
C52	C	1.009406	0.293418	-0.625283
C53	C	1.009413	0.293398	-0.695970
C54	C	0.964261	0.338299	-0.733143
C55	C	0.919093	0.383219	-0.699625
C56	C	0.919082	0.383236	-0.628938
C57	C	0.919133	0.383154	-0.984695
C58	C	0.919149	0.383136	-1.055387
C59	C	1.009465	0.293316	-1.051727
C60	C	1.009454	0.293332	-0.981041
C61	C	0.964284	0.338249	-0.947529
C62	C	0.964275	0.338270	-0.870881
C63	C	0.964272	0.338283	-0.809790
C64	C	0.964187	0.338393	-0.164140
C65	C	0.964309	0.338214	-0.088902
H66	H	0.581701	0.257014	-0.415328
H67	H	1.026289	0.738818	-0.278004
H68	H	0.354173	0.257040	-0.415347
N69	N	0.893524	0.929674	-0.410706
N70	N	0.897648	0.937830	-0.473502
H71	H	0.867486	0.911386	-0.503624
H72	H	0.225928	0.257052	-0.415356
H73	H	0.874562	0.605768	-0.429442
H74	H	0.219120	0.419821	-0.264691
H75	H	1.053904	1.070321	-0.250607
H76	H	1.046242	0.256740	-1.079022
H77	H	1.031714	0.605753	-0.272503
N78	N	0.354283	0.429101	-0.256069
N79	N	0.321038	0.469153	-0.219007
H80	H	0.345169	0.501517	-0.189045
N81	N	0.872966	0.429088	-0.737587
N82	N	0.874741	0.493900	-0.732339
H83	H	0.842160	0.526296	-0.759146
N84	N	0.873009	0.428996	-1.093350
N85	N	0.810747	0.424319	-1.085256
H86	H	0.778161	0.456704	-1.112068
H87	H	1.059335	0.937243	-0.245111
N88	N	0.567163	0.429065	-0.256059
N89	N	0.504050	0.429068	-0.256069
H90	H	0.477191	0.461426	-0.226117
N91	N	0.710055	0.429058	-0.256039
N92	N	0.676815	0.469107	-0.218970
H93	H	0.700950	0.501463	-0.189003
N94	N	0.717642	0.247697	-0.423920
N95	N	0.712429	0.182884	-0.416875
H96	H	0.739271	0.150508	-0.446825
N97	N	1.055586	0.247467	-0.943081
N98	N	1.095908	0.207364	-0.973013
H99	H	1.128489	0.174969	-0.946205
N100	N	0.872960	0.429121	-0.594692
N101	N	0.872956	0.429130	-0.531580
H102	H	0.840379	0.461536	-0.507393
N103	N	0.887476	1.077939	-0.416827
N104	N	0.909602	1.118819	-0.461664
H105	H	0.877286	1.145280	-0.493967
N106	N	0.859855	0.746450	-0.444213
N107	N	0.857188	0.811941	-0.446913
H108	H	0.824868	0.838409	-0.479207
N109	N	1.029857	0.817989	-0.274479
N110	N	1.007726	0.777107	-0.229646
H111	H	1.040041	0.750633	-0.197349
H112	H	0.907889	0.850498	-0.396292
N113	N	1.055538	0.247552	-0.587325
N114	N	1.095858	0.207449	-0.617260
H115	H	1.128439	0.175052	-0.590455
N116	N	1.055551	0.247511	-0.730193
N117	N	1.095866	0.207427	-0.696995
H118	H	1.128453	0.175017	-0.721164
N119	N	0.873001	0.429031	-0.950459
N120	N	0.872988	0.429038	-0.887346
H121	H	0.840404	0.461438	-0.863163
