data_functionalizedCrystal
_audit_creation_method	'MofGen! by Chris Wilmer'
_symmetry_space_group_name_H-M	'P1'
_symmetry_Int_Tables_number	1
_symmetry_cell_setting	triclinic
loop_
_symmetry_equiv_pos_as_xyz
  x,y,z
_cell_length_a	10.968023
_cell_length_b	7.540329
_cell_length_c	9.065218
_cell_angle_alpha	89.999725
_cell_angle_beta	95.142072
_cell_angle_gamma	77.876279
loop_
_atom_site_label
_atom_site_type_symbol
_atom_site_fract_x
_atom_site_fract_y
_atom_site_fract_z
O1	O	-1.657972	0.359114	0.206880
O2	O	-1.157972	0.859114	0.706880
O3	O	-1.294912	0.248179	0.226701
O4	O	-0.794912	0.748179	0.726701
O5	O	-1.483946	0.305943	0.002105
O6	O	-0.983946	0.805943	0.502105
O7	O	-1.468937	0.301350	0.431476
O8	O	-0.968937	0.801350	0.931476
O9	O	-1.483937	0.600905	0.002109
O10	O	-0.983937	1.100905	0.502109
O11	O	-1.294903	0.543141	0.226704
O12	O	-0.794903	1.043141	0.726704
O13	O	-1.657963	0.654076	0.206884
O14	O	-1.157963	1.154076	0.706884
Cu15	Cu	-1.476432	0.625541	0.216794
Cu16	Cu	-0.976432	1.125541	0.716794
Cu17	Cu	-1.476443	0.276714	0.216790
Cu18	Cu	-0.976443	0.776714	0.716790
O19	O	-1.468929	0.596312	0.431479
O20	O	-0.968929	1.096312	0.931479
C21	C	-1.248403	0.381450	0.225263
C22	C	-0.748403	0.881450	0.725263
C23	C	-1.109836	0.339110	0.220954
C24	C	-0.609836	0.839110	0.720954
C25	C	-0.904831	0.429261	0.214568
C26	C	-0.404831	0.929261	0.714568
C27	C	-1.048046	0.473040	0.219031
C28	C	-0.548046	0.973040	0.719031
C29	C	-0.704471	0.520811	0.208325
C30	C	-0.204471	1.020811	0.708325
C31	C	-0.843038	0.563172	0.212644
C32	C	-0.343038	1.063172	0.712644
N33	N	-1.476434	0.870890	0.216796
N34	N	-0.976434	1.370890	0.716796
C35	C	-1.482499	0.452980	-0.052871
C36	C	-0.982499	0.952980	0.447129
C37	C	-1.478186	0.451654	-0.216690
C38	C	-0.978186	0.951654	0.283310
N39	N	-1.476443	1.031366	0.216794
N40	N	-0.976443	1.531366	0.716794
C41	C	-1.470375	0.449270	0.486456
C42	C	-0.970375	0.949270	0.986456
C43	C	-1.474688	0.450585	0.650274
C44	C	-0.974688	0.950585	1.150274
H45	H	-1.056719	0.192044	0.219299
H46	H	-0.556719	0.692044	0.719299
H47	H	-0.896161	0.710227	0.214294
H48	H	-0.396161	1.210227	0.714294
H49	H	-1.101165	0.620105	0.220681
H50	H	-0.601165	1.120105	0.720681
O51	O	-0.841382	0.253842	0.212853
O52	O	-0.341382	0.753842	0.712853
C53	C	-0.753345	0.217474	0.338046
C54	C	-0.253345	0.717474	0.838046
H55	H	-0.783783	0.317949	0.428430
H56	H	-0.283783	0.817949	0.928430
H57	H	-0.657580	0.231584	0.306131
H58	H	-0.157580	0.731584	0.806131
C59	C	-0.708042	-0.100448	0.284810
C60	C	-0.208042	0.399552	0.784810
C61	C	-0.745432	0.022949	0.395826
C62	C	-0.245432	0.522949	0.895826
H63	H	-0.703155	-0.220442	0.320449
H64	H	-0.203155	0.279558	0.820449
H65	H	-0.767351	-0.075946	0.200461
H66	H	-0.267351	0.424054	0.700461
H67	H	-0.628241	-0.088666	0.258224
H68	H	-0.128241	0.411334	0.758224
H69	H	-0.825238	0.011182	0.422397
H70	H	-0.325238	0.511182	0.922397
H71	H	-0.686136	-0.001559	0.480181
H72	H	-0.186136	0.498441	0.980181
