data_functionalizedCrystal
_audit_creation_method	'MofGen! by Chris Wilmer'
_symmetry_space_group_name_H-M	'P1'
_symmetry_Int_Tables_number	1
_symmetry_cell_setting	triclinic
loop_
_symmetry_equiv_pos_as_xyz
  x,y,z
_cell_length_a	12.759401
_cell_length_b	10.686285
_cell_length_c	12.759393
_cell_angle_alpha	94.398121
_cell_angle_beta	90.017380
_cell_angle_gamma	85.631983
loop_
_atom_site_label
_atom_site_type_symbol
_atom_site_fract_x
_atom_site_fract_y
_atom_site_fract_z
Zn1	Zn	1.638381	-0.502268	0.561964
Zn2	Zn	1.651782	-0.713313	0.372831
Zn3	Zn	1.462691	-0.502335	0.386299
Zn4	Zn	1.476169	-0.713215	0.548479
O5	O	1.557256	-0.607783	0.467393
O6	O	1.787181	-0.530277	0.536882
O7	O	1.626667	-0.685395	0.227592
O8	O	1.474747	-0.325749	0.420882
O9	O	1.797027	-0.685330	0.397927
O10	O	1.603826	-0.325700	0.549942
O11	O	1.487742	-0.530391	0.237487
O12	O	1.317457	-0.530296	0.407805
O13	O	1.497719	-0.685164	0.697293
O14	O	1.327359	-0.685228	0.526958
O15	O	1.616896	-0.530182	0.707201
O16	O	1.639736	-0.889877	0.384851
O17	O	1.510714	-0.889805	0.513899
C18	C	1.284287	-0.607760	0.467380
C19	C	1.167512	-0.607780	0.467398
C20	C	1.117842	-0.688583	0.529321
C21	C	1.008119	-0.688599	0.529332
C22	C	0.997745	-0.527006	0.405487
C23	C	1.107466	-0.526985	0.405483
C24	C	1.123830	-0.781881	0.600819
C25	C	1.014107	-0.781897	0.600829
C26	C	1.578170	-0.935625	0.446473
C27	C	1.587214	-1.075877	0.437558
C28	C	1.831291	-0.607807	0.467407
C29	C	1.948068	-0.607817	0.467412
C30	C	1.557316	-0.607654	0.741435
C31	C	1.557341	-0.607600	0.858215
C32	C	1.536288	-0.278660	0.488418
C33	C	1.527353	-0.138408	0.497378
C34	C	1.557251	-0.607820	0.194423
C35	C	1.557406	-0.607519	0.077667
C36	C	1.485031	-0.526874	0.918236
C37	C	1.485060	-0.526836	1.027963
C38	C	1.629720	-0.688254	1.017637
C39	C	1.629685	-0.688297	0.907912
C40	C	1.401515	-0.433677	0.924199
C41	C	1.401545	-0.433639	1.033926
H42	H	0.990563	-0.879600	0.572669
C43	C	1.449628	-1.066800	0.574640
C44	C	1.347731	-1.098863	0.549644
C45	C	1.276102	-1.032904	0.620788
H46	H	1.466192	-1.088209	0.643935
H47	H	1.453585	-0.978888	0.570546
H48	H	1.343778	-1.186756	0.553748
H49	H	1.331134	-1.077451	0.480361
H50	H	1.280059	-0.944991	0.616694
H51	H	1.292675	-1.054318	0.690079
H52	H	1.206956	-1.054640	0.603832
C53	C	1.664786	-1.147786	0.360299
C54	C	1.658682	-1.277267	0.366558
C55	C	1.730151	-1.343547	0.295431
H56	H	1.648199	-1.126498	0.290977
H57	H	1.734004	-1.126216	0.377141
H58	H	1.589480	-1.298828	0.349708
H59	H	1.675279	-1.298592	0.435862
H60	H	1.799369	-1.321978	0.312273
H61	H	1.713558	-1.322249	0.226115
H62	H	1.726026	-1.431406	0.299675
C63	C	1.432494	-0.310034	0.886510
C64	C	1.430823	-0.316708	0.776509
C65	C	1.459367	-0.202839	0.741752
H66	H	1.384237	-0.243351	0.913652
H67	H	1.501264	-0.294960	0.910397
H68	H	1.362064	-0.331768	0.752633
H69	H	1.479081	-0.383368	0.749340
H70	H	1.528136	-0.187764	0.765639
H71	H	1.411107	-0.136165	0.768900
H72	H	1.458246	-0.207356	0.667113
C73	C	1.422112	-0.303286	1.082040
C74	C	1.336853	-0.255681	1.145978
C75	C	1.355757	-0.135604	1.190308
H76	H	1.484157	-0.308446	1.123140
H77	H	1.430706	-0.248955	1.027633
H78	H	1.328271	-0.309998	1.200379
H79	H	1.274798	-0.250490	1.104904
H80	H	1.364352	-0.081273	1.135900
H81	H	1.417804	-0.140776	1.231402
H82	H	1.297909	-0.103283	1.233687
C83	C	1.301366	-0.480247	1.076134
C84	C	1.234971	-0.511174	0.992249
C85	C	1.142676	-0.554100	1.031093
H86	H	1.318326	-0.552649	1.113392
H87	H	1.266823	-0.415967	1.122120
H88	H	1.269507	-0.575450	0.946281
H89	H	1.217981	-0.438792	0.954983
H90	H	1.108133	-0.489819	1.077079
H91	H	1.159647	-0.626498	1.068351
H92	H	1.097612	-0.575078	0.974184
H93	H	1.688553	-0.754050	0.859045
C94	C	0.965659	-0.735598	0.706920
C95	C	0.910019	-0.830581	0.745304
C96	C	0.865363	-0.787968	0.843021
H97	H	1.019680	-0.714621	0.754896
H98	H	0.919070	-0.663243	0.699188
H99	H	0.956604	-0.902915	0.753042
H100	H	0.855982	-0.851569	0.697357
H101	H	0.818774	-0.715613	0.835288
H102	H	0.919390	-0.766992	0.890987
H103	H	0.827598	-0.852403	0.869072
H104	H	1.321800	-0.459846	0.892754
C105	C	1.161201	-0.439193	0.338152
C106	C	1.085130	-0.368466	0.283914
C107	C	1.134591	-0.287585	0.221869
H108	H	1.200502	-0.384157	0.381820
H109	H	1.207045	-0.487349	0.289171
H110	H	1.039304	-0.320314	0.332889
H111	H	1.045824	-0.423469	0.240227
H112	H	1.180435	-0.335741	0.172888
H113	H	1.173891	-0.232558	0.265544
H114	H	1.082985	-0.239596	0.185054
H115	H	1.163781	-0.874663	0.565620
C116	C	1.708219	-0.775718	1.071795
C117	C	1.692791	-0.758385	1.180736
C118	C	1.765097	-0.838922	1.230659
H119	H	1.698310	-0.860556	1.048515
H120	H	1.777650	-0.757250	1.055053
H121	H	1.623376	-0.776861	1.197470
H122	H	1.702709	-0.673563	1.204047
H123	H	1.834528	-0.820454	1.213917
H124	H	1.755181	-0.923755	1.207370
H125	H	1.754645	-0.827164	1.304580
H126	H	1.151969	-0.755819	0.683887
H127	H	0.948843	-0.461224	0.355078
