data_functionalizedCrystal
_audit_creation_method	'MofGen! by Chris Wilmer'
_symmetry_space_group_name_H-M	'P1'
_symmetry_Int_Tables_number	1
_symmetry_cell_setting	triclinic
loop_
_symmetry_equiv_pos_as_xyz
  x,y,z
_cell_length_a	16.992694
_cell_length_b	26.809956
_cell_length_c	16.992695
_cell_angle_alpha	90.004417
_cell_angle_beta	89.331777
_cell_angle_gamma	90.003736
loop_
_atom_site_label
_atom_site_type_symbol
_atom_site_fract_x
_atom_site_fract_y
_atom_site_fract_z
O1	O	1.050856	0.041418	-0.166906
O2	O	1.550856	0.541418	0.333094
O3	O	0.822456	0.041432	-0.165075
O4	O	1.322456	0.541432	0.334925
O5	O	0.935740	0.041421	-0.051790
O6	O	1.435740	0.541421	0.448210
O7	O	0.937572	0.041429	-0.280190
O8	O	1.437572	0.541429	0.219810
O9	O	0.935719	-0.041538	-0.051807
O10	O	1.435719	0.458462	0.448193
O11	O	0.822434	-0.041527	-0.165092
O12	O	1.322434	0.458473	0.334908
O13	O	1.050834	-0.041542	-0.166923
O14	O	1.550834	0.458458	0.333077
Zn15	Zn	0.936631	-0.054706	-0.166010
Zn16	Zn	1.436631	0.445294	0.333990
Zn17	Zn	0.936660	0.054596	-0.165988
Zn18	Zn	1.436660	0.554596	0.334012
O19	O	0.937550	-0.041530	-0.280207
O20	O	1.437550	0.458470	0.219793
C21	C	0.793085	-0.000046	-0.162727
C22	C	1.293085	0.499954	0.337273
C23	C	0.705600	-0.000040	-0.155699
C24	C	1.205600	0.499960	0.344301
C25	C	0.659610	-0.000038	-0.223517
C26	C	1.159610	0.499962	0.276483
C27	C	0.577409	-0.000045	-0.216908
C28	C	1.077409	0.499955	0.283092
C29	C	0.541201	-0.000051	-0.142480
C30	C	1.041201	0.499949	0.357520
C31	C	0.587198	-0.000054	-0.074657
C32	C	1.087198	0.499946	0.425343
C33	C	0.669397	-0.000051	-0.081267
C34	C	1.169397	0.499949	0.418733
C35	C	0.295886	-0.000065	-0.115086
C36	C	0.795886	0.499935	0.384914
C37	C	0.213681	-0.000067	-0.108481
C38	C	0.713681	0.499933	0.391519
C39	C	0.203898	-0.000059	-0.250732
C40	C	0.703898	0.499941	0.249268
C41	C	0.286099	-0.000053	-0.257336
C42	C	0.786099	0.499947	0.242664
C43	C	0.332089	-0.000059	-0.189512
C44	C	0.832089	0.499941	0.310488
N45	N	0.457178	-0.000056	-0.135723
N46	N	0.957178	0.499944	0.364277
N47	N	0.416110	-0.000056	-0.196270
N48	N	0.916110	0.499944	0.303730
N49	N	0.936617	-0.129302	-0.166025
N50	N	1.436617	0.370698	0.333975
C51	C	0.986816	-0.473933	-0.115838
C52	C	1.486816	0.026067	0.384162
C53	C	0.986834	-0.682811	-0.115827
C54	C	1.486834	-0.182811	0.384173
O55	O	1.029483	-0.709819	-0.073159
O56	O	1.529483	-0.209819	0.426841
N57	N	0.936663	-0.708929	-0.165971
N58	N	1.436663	-0.208929	0.334029
C59	C	0.886480	-0.682825	-0.216116
C60	C	1.386480	-0.182825	0.283884
O61	O	0.843801	-0.709833	-0.258760
O62	O	1.343801	-0.209833	0.241240
C63	C	0.886459	-0.473948	-0.216123
C64	C	1.386459	0.026052	0.283877
C65	C	0.936639	-0.447832	-0.165982
C66	C	1.436639	0.052168	0.334018
C67	C	1.036991	-0.447817	-0.065701
C68	C	1.536991	0.052183	0.434299
C69	C	1.036989	-0.395601	-0.065707
C70	C	1.536989	0.104399	0.434293
C71	C	0.986812	-0.369500	-0.115851
C72	C	1.486812	0.130500	0.384149
C73	C	0.936637	-0.395616	-0.165988
C74	C	1.436637	0.104384	0.334012
C75	C	0.836272	-0.447845	-0.266264
C76	C	1.336272	0.052155	0.233736
C77	C	0.836270	-0.395622	-0.266260
C78	C	1.336270	0.104378	0.233740
C79	C	0.886450	-0.369507	-0.216119
C80	C	1.386450	0.130493	0.283881
C81	C	0.886458	-0.317299	-0.216138
C82	C	1.386458	0.182701	0.283862
N83	N	0.936629	-0.291181	-0.165995
N84	N	1.436629	0.208819	0.334005
C85	C	0.986806	-0.317281	-0.115851
C86	C	1.486806	0.182719	0.384149
C87	C	0.886496	-0.792488	-0.216111
C88	C	1.386496	-0.292488	0.283889
C89	C	0.886502	-0.844707	-0.216110
C90	C	1.386502	-0.344707	0.283890
C91	C	0.986855	-0.844689	-0.115820
C92	C	1.486855	-0.344689	0.384180
C93	C	0.986852	-0.792469	-0.115825
C94	C	1.486852	-0.292469	0.384175
C95	C	0.936667	-0.766370	-0.165967
C96	C	1.436667	-0.266370	0.334033
C97	C	0.986798	-0.207623	-0.115868
C98	C	1.486798	0.292377	0.384132
C99	C	0.986794	-0.155402	-0.115881
C100	C	1.486794	0.344598	0.384119
C101	C	0.886439	-0.155425	-0.216169
C102	C	1.386439	0.344575	0.283831
C103	C	0.886446	-0.207641	-0.216159
C104	C	1.386446	0.292359	0.283841
C105	C	0.936628	-0.233739	-0.166002
C106	C	1.436628	0.266261	0.333998
O107	O	0.843825	-0.290259	-0.258777
O108	O	1.343825	0.209741	0.241223
O109	O	1.029466	-0.290264	-0.073201
O110	O	1.529466	0.209736	0.426799
C111	C	0.986818	-0.526149	-0.115832
C112	C	1.486818	-0.026149	0.384168
C113	C	0.936642	-0.552265	-0.165969
C114	C	1.436642	-0.052265	0.334031
C115	C	0.886465	-0.526164	-0.216113
C116	C	1.386465	-0.026164	0.283887
C117	C	0.936649	-0.604484	-0.165969
C118	C	1.436649	-0.104484	0.334031
C119	C	0.986826	-0.630584	-0.115825
C120	C	1.486826	-0.130584	0.384175
C121	C	1.036997	-0.604466	-0.065682
C122	C	1.536997	-0.104466	0.434318
C123	C	1.036995	-0.552250	-0.065688
C124	C	1.536995	-0.052250	0.434312
C125	C	0.836294	-0.552283	-0.266256
C126	C	1.336294	-0.052283	0.233744
C127	C	0.836301	-0.604499	-0.266246
C128	C	1.336301	-0.104499	0.233754
C129	C	0.886478	-0.630600	-0.216103
C130	C	1.386478	-0.130600	0.283897
C131	C	1.080205	-0.000063	-0.169270
C132	C	1.580205	0.499937	0.330730
C133	C	1.167690	-0.000065	-0.176299
C134	C	1.667690	0.499935	0.323701
C135	C	0.933374	-0.000058	-0.022439
C136	C	1.433374	0.499942	0.477561
C137	C	0.926345	-0.000058	0.065046
C138	C	1.426345	0.499942	0.565046
N139	N	0.936679	0.129192	-0.165967
N140	N	1.436679	0.629192	0.334033
C141	C	0.939917	-0.000050	-0.309559
C142	C	1.439917	0.499950	0.190441
C143	C	0.946945	-0.000047	-0.397044
C144	C	1.446945	0.499953	0.102956
C145	C	0.994163	-0.000063	0.111037
C146	C	1.494163	0.499937	0.611037
C147	C	0.987554	-0.000058	0.193238
C148	C	1.487554	0.499942	0.693238
C149	C	0.913127	-0.000051	0.229446
C150	C	1.413127	0.499949	0.729446
C151	C	0.845303	-0.000045	0.183449
C152	C	1.345303	0.499955	0.683449
C153	C	0.851913	-0.000046	0.101250
C154	C	1.351913	0.499954	0.601250
C155	C	0.885732	-0.000042	0.474760
C156	C	1.385732	0.499958	0.974760
C157	C	0.879127	-0.000042	0.556966
C158	C	1.379127	0.499958	1.056966
C159	C	1.021379	-0.000054	0.566749
C160	C	1.521379	0.499946	1.066749
C161	C	1.027982	-0.000059	0.484547
C162	C	1.527982	0.499941	0.984547
C163	C	0.960159	-0.000050	0.438558
C164	C	1.460159	0.499950	0.938558
N165	N	0.906369	-0.000047	0.313468
N166	N	1.406369	0.499953	0.813468
N167	N	0.966917	-0.000050	0.354537
N168	N	1.466917	0.499950	0.854537
H169	H	0.315574	-0.000042	-0.317942
H170	H	0.815574	0.499958	0.182058
C171	C	0.699435	-0.000031	-0.305386
C172	C	1.199435	0.499969	0.194614
H173	H	0.754978	-0.000024	-0.299612
H174	H	1.254978	0.499976	0.200388
H175	H	0.683953	-0.028959	-0.333534
H176	H	1.183953	0.471041	0.166466
H177	H	0.683952	0.028904	-0.333517
H178	H	1.183952	0.528904	0.166483
C179	C	1.092187	-0.523529	-0.010527
C180	C	1.592187	-0.023529	0.489473
H181	H	1.122062	-0.546559	0.019339
H182	H	1.622062	-0.046559	0.519339
H183	H	1.126731	-0.503157	-0.040910
H184	H	1.626731	-0.003157	0.459090
H185	H	1.061814	-0.503160	0.024039
H186	H	1.561814	-0.003160	0.524039
H187	H	0.166444	-0.000055	-0.305950
H188	H	0.666444	0.499945	0.194050
C189	C	0.346468	-0.000064	-0.040485
C190	C	0.846468	0.499936	0.459515
H191	H	0.400609	-0.000066	-0.055076
H192	H	0.900609	0.499934	0.444924
H193	H	0.335005	0.028865	-0.010175
H194	H	0.835005	0.528865	0.489825
H195	H	0.335005	-0.028999	-0.010185
H196	H	0.835005	0.471001	0.489815
C197	C	1.062154	-0.000068	0.243824
C198	C	1.562154	0.499932	0.743824
H199	H	1.107427	-0.000079	0.210487
H200	H	1.607427	0.499921	0.710487
H201	H	1.062548	0.028861	0.276097
H202	H	1.562548	0.528861	0.776097
H203	H	1.062519	-0.029002	0.276089
H204	H	1.562519	0.470998	0.776089
C205	C	0.781069	-0.366916	-0.321422
C206	C	1.281069	0.133084	0.178578
H207	H	0.751193	-0.389951	-0.351285
H208	H	1.251193	0.110049	0.148715
H209	H	0.746527	-0.346543	-0.291037
H210	H	1.246527	0.153457	0.208963
H211	H	0.811440	-0.346548	-0.355990
H212	H	1.311440	0.153452	0.144010
H213	H	0.557710	-0.000066	-0.014056
H214	H	1.057710	0.499934	0.485944
H215	H	0.706842	-0.000052	-0.026042
H216	H	1.206842	0.499948	0.473958
C217	C	0.811129	-0.000041	0.424182
C218	C	1.311129	0.499959	0.924182
H219	H	0.765859	-0.000044	0.457521
H220	H	1.265859	0.499956	0.957521
H221	H	0.810751	0.028887	0.391913
H222	H	1.310751	0.528887	0.891913
H223	H	0.810746	-0.028976	0.391913
H224	H	1.310746	0.471024	0.891913
H225	H	1.054770	-0.000071	0.081563
H226	H	1.554770	0.499929	0.581563
H227	H	0.539966	-0.000043	-0.272133
H228	H	1.039966	0.499957	0.227867
C229	C	0.173853	-0.000074	-0.026607
C230	C	0.673853	0.499926	0.473393
H231	H	0.213015	-0.000081	0.012840
H232	H	0.713015	0.499919	0.512840
H233	H	0.141993	0.028855	-0.021066
H234	H	0.641993	0.528855	0.478934
H235	H	0.141988	-0.029008	-0.021084
H236	H	0.641988	0.470992	0.478916
C237	C	1.042042	-0.873406	-0.060656
C238	C	1.542042	-0.373406	0.439344
H239	H	1.034849	-0.908245	-0.067837
H240	H	1.534849	-0.408245	0.432163
H241	H	1.095116	-0.864849	-0.072515
H242	H	1.595116	-0.364849	0.427485
H243	H	1.030188	-0.864847	-0.007577
H244	H	1.530188	-0.364847	0.492423
H245	H	1.027660	-0.134141	-0.075051
H246	H	1.527660	0.365859	0.424949
H247	H	1.088589	-0.000064	0.455073
H248	H	1.588589	0.499936	0.955073
H249	H	1.027661	-0.228867	-0.075025
H250	H	1.527661	0.271133	0.424975
C251	C	1.095977	-0.000057	0.617338
C252	C	1.595977	0.499943	1.117338
H253	H	1.081384	-0.000051	0.671479
H254	H	1.581384	0.499949	1.171479
H255	H	1.126280	-0.028987	0.605876
H256	H	1.626280	0.471013	1.105876
H257	H	1.126286	0.028876	0.605877
H258	H	1.626286	0.528876	1.105877
H259	H	1.077848	-0.374341	-0.024876
H260	H	1.577848	0.125659	0.475124
H261	H	0.784703	-0.000036	0.212936
H262	H	1.284703	0.499964	0.712936
C263	C	0.831305	-0.873429	-0.271266
C264	C	1.331305	-0.373429	0.228734
H265	H	0.801416	-0.850401	-0.301120
H266	H	1.301416	-0.350401	0.198880
H267	H	0.861665	-0.893802	-0.305830
H268	H	1.361665	-0.393802	0.194170
H269	H	0.796762	-0.893797	-0.240865
H270	H	1.296762	-0.393797	0.259135
H271	H	0.818516	-0.000045	0.586443
H272	H	1.318516	0.499955	1.086443
C273	C	1.042043	-0.763747	-0.060664
C274	C	1.542043	-0.263747	0.439336
H275	H	1.071922	-0.786775	-0.030800
H276	H	1.571922	-0.286775	0.469200
H277	H	1.076583	-0.743373	-0.091049
H278	H	1.576583	-0.243373	0.408951
H279	H	1.011667	-0.743380	-0.026098
H280	H	1.511667	-0.243380	0.473902
C281	C	0.831295	-0.763785	-0.271278
C282	C	1.331295	-0.263785	0.228722
H283	H	0.801427	-0.786823	-0.301143
H284	H	1.301427	-0.286823	0.198857
H285	H	0.796746	-0.743414	-0.240897
H286	H	1.296746	-0.243414	0.259103
H287	H	0.861667	-0.743416	-0.305844
H288	H	1.361667	-0.243416	0.194156
H289	H	0.796688	-0.000042	0.063804
H290	H	1.296688	0.499958	0.563804
H291	H	0.795411	-0.469101	-0.307093
H292	H	1.295411	0.030899	0.192907
C293	C	0.831218	-0.236369	-0.271280
C294	C	1.331218	0.263631	0.228720
H295	H	0.801321	-0.213344	-0.301131
H296	H	1.301321	0.286656	0.198869
H297	H	0.861548	-0.256757	-0.305849
H298	H	1.361548	0.243243	0.194151
H299	H	0.796684	-0.256723	-0.240846
H300	H	1.296684	0.243277	0.259154
C301	C	0.831242	-0.126708	-0.271316
C302	C	1.331242	0.373292	0.228684
H303	H	0.838425	-0.091868	-0.264127
H304	H	1.338425	0.408132	0.235873
H305	H	0.843069	-0.135264	-0.324398
H306	H	1.343069	0.364736	0.175602
H307	H	0.778171	-0.135268	-0.259430
H308	H	1.278171	0.364732	0.240570
C309	C	1.092187	-0.633183	-0.010522
C310	C	1.592187	-0.133183	0.489478
H311	H	1.084991	-0.668023	-0.017701
H312	H	1.584991	-0.168023	0.482299
H313	H	1.145261	-0.624628	-0.022387
H314	H	1.645261	-0.124628	0.477613
H315	H	1.080339	-0.624624	0.042559
H316	H	1.580339	-0.124624	0.542559
C317	C	0.781095	-0.633221	-0.321402
C318	C	1.281095	-0.133221	0.178598
H319	H	0.751208	-0.610193	-0.351257
H320	H	1.251208	-0.110193	0.148743
H321	H	0.811452	-0.653596	-0.355965
H322	H	1.311452	-0.153596	0.144035
H323	H	0.746552	-0.653586	-0.290998
H324	H	1.246552	-0.153586	0.209002
H325	H	0.795433	-0.531036	-0.307088
H326	H	1.295433	-0.031036	0.192912
H327	H	1.077851	-0.469064	-0.024864
H328	H	1.577851	0.030936	0.475136
