data_functionalizedCrystal
_audit_creation_method	'MofGen! by Chris Wilmer'
_symmetry_space_group_name_H-M	'P1'
_symmetry_Int_Tables_number	1
_symmetry_cell_setting	triclinic
loop_
_symmetry_equiv_pos_as_xyz
  x,y,z
_cell_length_a	12.837943
_cell_length_b	12.837942
_cell_length_c	11.892095
_cell_angle_alpha	94.302569
_cell_angle_beta	85.689438
_cell_angle_gamma	94.828940
loop_
_atom_site_label
_atom_site_type_symbol
_atom_site_fract_x
_atom_site_fract_y
_atom_site_fract_z
O1	O	1.408367	0.266110	-0.093982
O2	O	1.105234	0.252667	-0.093989
O3	O	1.250078	0.107822	-0.093979
O4	O	1.263522	0.410955	-0.093992
O5	O	1.237999	0.119879	0.094028
O6	O	1.093155	0.264723	0.094018
O7	O	1.396288	0.278167	0.094025
Zn8	Zn	1.242803	0.273359	0.123871
Zn9	Zn	1.258718	0.257474	-0.123836
O10	O	1.251443	0.423011	0.094014
C11	C	1.060125	0.254153	0.000014
C12	C	0.943710	0.240609	0.000011
C13	C	1.239497	0.074781	0.000024
C14	C	1.225953	-0.041634	0.000022
C15	C	0.718835	0.403439	0.000020
C16	C	0.609453	0.390717	0.000019
C17	C	0.615561	0.202446	0.000015
C18	C	0.724943	0.215167	0.000017
C19	C	0.776577	0.315667	0.000017
C20	C	0.885961	0.328387	0.000011
C21	C	0.892066	0.140117	0.000015
C22	C	0.782684	0.127395	0.000014
C23	C	1.388784	-0.266509	0.000002
C24	C	1.376062	-0.375892	-0.000000
C25	C	1.187791	-0.369784	0.000007
C26	C	1.200512	-0.260402	0.000009
C27	C	1.301011	-0.208768	0.000008
C28	C	1.313731	-0.099383	0.000019
C29	C	1.125461	-0.093278	0.000018
C30	C	1.112740	-0.202660	0.000016
C31	C	1.441397	0.276680	0.000020
C32	C	1.557812	0.290224	0.000015
C33	C	1.262024	0.456052	0.000009
C34	C	1.275569	0.572467	0.000004
N35	N	1.231950	0.284200	0.292925
N36	N	1.269579	0.246626	-0.292889
C37	C	1.345098	0.171130	0.529580
C38	C	1.337519	0.178716	0.647922
C39	C	1.209210	0.306952	0.647951
C40	C	1.216788	0.299366	0.529610
C41	C	1.284736	0.231454	0.470428
C42	C	1.292319	0.223874	0.352085
C43	C	1.164005	0.352104	0.352116
C44	C	1.156426	0.359690	0.470458
H45	H	0.928000	0.410219	0.000013
Cl46	Cl	1.061461	-0.434715	-0.000025
H47	H	1.447536	-0.422901	-0.000009
H48	H	0.760876	0.485269	0.000019
Cl49	Cl	0.550631	0.076115	0.000029
H50	H	0.562444	0.462191	0.000024
H51	H	1.114857	0.401227	0.303941
H52	H	0.939091	0.068646	0.000005
H53	H	0.740628	0.045572	0.000026
Cl54	Cl	1.440071	-0.034473	0.000025
H55	H	1.400430	0.115841	0.481394
Cl56	Cl	1.515120	-0.201593	0.000029
H57	H	1.386671	0.129593	0.696080
Cl58	Cl	0.986405	-0.267582	0.000008
H59	H	1.053990	-0.046252	0.000033
Cl60	Cl	1.123784	0.392311	0.722361
Cl61	Cl	1.377739	0.138502	0.277688
H62	H	1.101102	0.414980	0.518656
