data_functionalizedCrystal
_audit_creation_method	'MofGen! by Chris Wilmer'
_symmetry_space_group_name_H-M	'P1'
_symmetry_Int_Tables_number	1
_symmetry_cell_setting	triclinic
loop_
_symmetry_equiv_pos_as_xyz
  x,y,z
_cell_length_a	10.723024
_cell_length_b	16.992695
_cell_length_c	16.053802
_cell_angle_alpha	87.258926
_cell_angle_beta	92.605405
_cell_angle_gamma	87.568046
loop_
_atom_site_label
_atom_site_type_symbol
_atom_site_fract_x
_atom_site_fract_y
_atom_site_fract_z
O1	O	-1.671600	-0.106759	-0.069425
O2	O	-1.309355	-0.117291	-0.069428
O3	O	-1.489025	0.002125	-0.069420
O4	O	-1.491930	-0.226175	-0.069433
O5	O	-1.479133	-0.004420	0.069439
O6	O	-1.299463	-0.123837	0.069431
O7	O	-1.661708	-0.113305	0.069434
Zn8	Zn	-1.479015	-0.119610	0.091479
Zn9	Zn	-1.492048	-0.110986	-0.091473
O10	O	-1.482038	-0.232721	0.069426
C11	C	-1.257843	-0.119797	0.000001
C12	C	-1.119092	-0.117504	0.000000
C13	C	-1.480343	0.028085	0.000009
C14	C	-1.469195	0.115189	0.000009
C15	C	-1.713220	-0.110798	0.000003
C16	C	-1.851972	-0.113091	-0.000002
C17	C	-1.049863	-0.184323	-0.000004
C18	C	-0.906455	-0.181955	-0.000005
C19	C	-1.490720	-0.258680	-0.000005
C20	C	-1.501869	-0.345784	-0.000011
N21	N	-1.470129	-0.125495	0.216339
C22	C	-1.576755	0.164851	0.000011
C23	C	-1.566274	0.246694	0.000003
C24	C	-1.448231	0.278874	-0.000001
C25	C	-1.340663	0.229206	-0.000005
C26	C	-1.351146	0.147364	-0.000003
C27	C	-1.404783	0.522706	-0.000013
C28	C	-1.394308	0.604554	-0.000012
C29	C	-1.619921	0.622037	-0.000006
C30	C	-1.630393	0.540193	0.000001
C31	C	-1.522825	0.490532	-0.000007
N32	N	-1.437514	0.362531	-0.000006
N33	N	-1.533543	0.406877	-0.000008
N34	N	-1.500943	-0.105094	-0.216333
C35	C	-1.546610	-0.074702	0.260036
C36	C	-1.540407	-0.078826	0.347443
C37	C	-1.457727	-0.133748	0.391150
C38	C	-1.381238	-0.184544	0.347447
C39	C	-1.387435	-0.180415	0.260042
C40	C	-1.430651	-0.151761	0.652559
C41	C	-1.424462	-0.155887	0.739970
C42	C	-1.583630	-0.050168	0.739960
C43	C	-1.589826	-0.046048	0.652553
C44	C	-1.513332	-0.096840	0.608857
N45	N	-1.451387	-0.137967	0.480494
N46	N	-1.519666	-0.092617	0.519515
H47	H	-1.096761	-0.243283	-0.000003
C48	C	-1.741567	0.054751	0.731169
C49	C	-1.667694	0.005671	0.787991
H50	H	-1.793466	0.089224	0.760823
H51	H	-1.689199	0.084871	0.697090
H52	H	-1.792153	0.023440	0.697067
H53	H	-1.617101	0.036982	0.822089
H54	H	-1.720068	-0.024452	0.822084
H55	H	-1.072194	-0.058543	-0.000018
C56	C	-1.703306	0.029387	0.268815
C57	C	-1.637493	-0.014327	0.211997
H58	H	-1.759406	0.066665	0.239157
H59	H	-1.749051	-0.005137	0.302890
H60	H	-1.646092	0.056291	0.302921
H61	H	-1.694707	-0.041236	0.177895
H62	H	-1.591745	0.020202	0.177907
C63	C	-1.790329	0.255754	0.000029
C64	C	-1.684507	0.301282	0.000014
H65	H	-1.863322	0.289456	0.000042
H66	H	-1.793184	0.225751	-0.048391
H67	H	-1.786254	0.221186	0.048456
H68	H	-1.688577	0.335846	-0.048416
H69	H	-1.681652	0.331299	0.048439
H70	H	-1.263558	0.106930	-0.000005
C71	C	-1.220784	0.485986	-0.071389
C72	C	-1.286540	0.468130	-0.000011
H73	H	-1.147777	0.452294	-0.071381
H74	H	-1.272292	0.478436	-0.119804
H75	H	-1.197669	0.539337	-0.071380
H76	H	-1.309662	0.414780	-0.000022
H77	H	-1.235021	0.475674	0.048417
C78	C	-1.203082	0.314467	-0.071389
C79	C	-1.210909	0.264579	-0.000009
H80	H	-1.122978	0.336306	-0.071385
H81	H	-1.215303	0.285182	-0.119803
H82	H	-1.265649	0.355753	-0.071378
H83	H	-1.148347	0.223289	-0.000023
H84	H	-1.198675	0.293865	0.048418
C85	C	-1.549919	0.023156	0.445739
C86	C	-1.624487	-0.022992	0.395469
H87	H	-1.601832	0.057630	0.475381
H88	H	-1.499804	-0.010138	0.484279
H89	H	-1.497562	0.053283	0.411644
H90	H	-1.676838	-0.053124	0.429564
H91	H	-1.674623	0.010306	0.356924
C92	C	-1.764451	-0.024849	0.553750
C93	C	-1.680105	0.014532	0.604289
H94	H	-1.820013	0.012611	0.523892
H95	H	-1.719760	-0.054706	0.515400
H96	H	-1.810797	-0.059151	0.587688
H97	H	-1.633752	0.048829	0.570350
H98	H	-1.724800	0.044402	0.642643
H99	H	-0.846949	-0.239157	-0.000012
H100	H	-1.357131	-0.200615	0.775552
H101	H	-0.911471	-0.055885	-0.000003
H102	H	-1.368369	-0.193120	0.616988
C103	C	-1.724507	0.086314	-0.071365
C104	C	-1.706511	0.129480	0.000014
H105	H	-1.804612	0.064476	-0.071361
H106	H	-1.719182	0.120158	-0.119779
H107	H	-1.661941	0.045025	-0.071354
H108	H	-1.769072	0.170773	0.000000
H109	H	-1.711847	0.095634	0.048441
H110	H	-1.313912	-0.229260	0.383038
H111	H	-1.726516	0.513998	0.000004
C112	C	-1.744103	0.727572	-0.071394
C113	C	-1.738156	0.676625	-0.000008
H114	H	-1.817106	0.761268	-0.071398
H115	H	-1.672312	0.758447	-0.071387
H116	H	-1.746947	0.697549	-0.119809
H117	H	-1.735303	0.706647	0.048408
H118	H	-1.809966	0.645746	-0.000007
H119	H	-1.298178	0.630750	-0.000002
H120	H	-1.325155	-0.221776	0.224464
