data_functionalizedCrystal
_audit_creation_method	'MofGen! by Chris Wilmer'
_symmetry_space_group_name_H-M	'P1'
_symmetry_Int_Tables_number	1
_symmetry_cell_setting	triclinic
loop_
_symmetry_equiv_pos_as_xyz
  x,y,z
_cell_length_a	15.711784
_cell_length_b	27.732048
_cell_length_c	26.809956
_cell_angle_alpha	89.990422
_cell_angle_beta	89.983605
_cell_angle_gamma	101.115728
loop_
_atom_site_label
_atom_site_type_symbol
_atom_site_fract_x
_atom_site_fract_y
_atom_site_fract_z
O1	O	1.143418	0.264485	-0.041526
O2	O	0.892245	0.227766	-0.041519
O3	O	1.025632	0.177140	-0.041513
O4	O	1.010031	0.315110	-0.041532
O5	O	1.025592	0.177133	0.041446
O6	O	0.892204	0.227758	0.041440
O7	O	1.143377	0.264477	0.041433
Zn8	Zn	1.017784	0.246117	0.054608
Zn9	Zn	1.017838	0.246126	-0.054694
O10	O	1.009990	0.315103	0.041428
C11	C	0.860101	0.221764	-0.000038
C12	C	0.764381	0.203885	-0.000035
C13	C	0.640332	0.136577	-0.000025
C14	C	0.730274	0.153382	-0.000028
C15	C	0.708552	0.237603	-0.000041
C16	C	0.618607	0.220805	-0.000041
C17	C	0.584504	0.170292	-0.000032
C18	C	0.562779	0.254520	-0.000048
C19	C	0.472842	0.237723	-0.000045
C20	C	0.438732	0.187212	-0.000035
C21	C	0.494567	0.153495	-0.000030
C22	C	0.596883	0.305033	-0.000053
C23	C	0.541055	0.338748	-0.000060
C24	C	0.451116	0.321951	-0.000061
C25	C	0.417007	0.271440	-0.000051
C26	C	0.395281	0.355668	-0.000067
C27	C	0.305344	0.338872	-0.000064
C28	C	0.327069	0.254643	-0.000048
C29	C	1.025285	0.159071	-0.000032
C30	C	1.024298	0.105237	-0.000028
C31	C	1.096913	-0.220434	-0.000056
C32	C	1.093254	-0.422756	-0.000063
O33	O	1.159655	-0.441992	-0.000086
N34	N	1.014161	-0.456196	-0.000060
C35	C	0.935977	-0.439054	-0.000059
O36	O	0.868619	-0.472139	-0.000062
C37	C	0.939637	-0.236732	-0.000055
C38	C	1.018735	-0.203294	-0.000053
C39	C	1.176005	-0.186996	-0.000054
C40	C	1.176919	-0.136419	-0.000050
C41	C	1.098741	-0.119279	-0.000047
C42	C	1.019649	-0.152717	-0.000049
C43	C	0.861454	-0.219591	-0.000058
C44	C	0.862376	-0.169006	-0.000058
C45	C	0.941474	-0.135568	-0.000056
C46	C	0.942385	-0.085000	-0.000041
N47	N	1.021478	-0.051559	-0.000044
C48	C	1.099656	-0.068699	-0.000047
C49	C	0.934061	-0.545274	-0.000059
C50	C	0.933146	-0.595854	-0.000059
C51	C	1.090424	-0.579553	-0.000064
C52	C	1.091338	-0.528972	-0.000061
C53	C	1.013154	-0.511834	-0.000062
C54	C	1.101570	0.037516	-0.000037
C55	C	1.102476	0.088098	-0.000031
C56	C	0.945199	0.071792	-0.000028
C57	C	0.944292	0.021215	-0.000032
C58	C	1.022484	0.004079	-0.000038
O59	O	0.876019	-0.065728	-0.000023
O60	O	1.167004	-0.035606	-0.000055
C61	C	1.095999	-0.271011	-0.000060
C62	C	1.016907	-0.304449	-0.000062
C63	C	0.938729	-0.287309	-0.000059
C64	C	1.015992	-0.355029	-0.000062
C65	C	1.094170	-0.372169	-0.000065
C66	C	1.173264	-0.338728	-0.000067
C67	C	1.174177	-0.288151	-0.000063
C68	C	0.859636	-0.320750	-0.000056
C69	C	0.858729	-0.371326	-0.000060
C70	C	0.936907	-0.388466	-0.000063
C71	C	1.175522	0.270479	-0.000049
C72	C	1.271241	0.288358	-0.000055
C73	C	1.010338	0.333172	-0.000055
C74	C	1.011324	0.387006	-0.000062
N75	N	1.017754	0.246111	0.129204
N76	N	1.017875	0.246130	-0.129290
C77	C	1.069735	0.284631	0.473825
C78	C	1.069763	0.284636	0.682702
O79	O	1.113936	0.317377	0.709702
N80	N	1.017859	0.246125	0.708831
C81	C	0.965948	0.207609	0.682738
O82	O	0.921808	0.174851	0.709755
C83	C	0.965925	0.207603	0.473861
C84	C	1.017826	0.246119	0.447735
C85	C	1.121633	0.323143	0.447698
C86	C	1.121622	0.323143	0.395482
C87	C	1.069713	0.284631	0.369392
C88	C	1.017815	0.246119	0.395519
C89	C	0.914020	0.169086	0.447768
C90	C	0.914021	0.169087	0.395546
C91	C	0.965922	0.207603	0.369420
C92	C	0.965896	0.207606	0.317212
N93	N	1.017800	0.246117	0.291083
C94	C	1.069709	0.284629	0.317173
C95	C	0.965962	0.207616	0.792401
C96	C	0.965967	0.207617	0.844620
C97	C	1.069783	0.284643	0.844581
C98	C	1.069773	0.284643	0.792361
C99	C	1.017867	0.246126	0.766272
C100	C	1.069681	0.284626	0.207515
C101	C	1.069663	0.284623	0.155294
C102	C	0.965850	0.207596	0.155338
C103	C	0.965865	0.207600	0.207554
C104	C	1.017787	0.246117	0.233642
O105	O	0.921753	0.174879	0.290181
O106	O	1.113857	0.317376	0.290147
C107	C	1.069746	0.284631	0.526041
C108	C	1.017849	0.246119	0.552167
C109	C	0.965940	0.207607	0.526077
C110	C	1.017853	0.246121	0.604386
C111	C	1.069762	0.284633	0.630476
C112	C	1.121666	0.323144	0.604347
C113	C	1.121655	0.323143	0.552131
C114	C	0.914036	0.169096	0.552206
C115	C	0.914050	0.169100	0.604423
C116	C	0.965959	0.207612	0.630513
H117	H	0.670117	0.318707	-0.000054
H118	H	0.868736	-0.623076	-0.000052
O119	O	0.915565	0.170255	0.870073
C120	C	0.926709	0.178502	0.921759
H121	H	0.950798	0.219380	0.928884
H122	H	0.862095	0.165834	0.941617
H123	H	0.976244	0.156959	0.936571
O124	O	0.741582	0.286681	-0.000117
C125	C	0.713040	0.308195	-0.043095
H126	H	0.650836	0.284026	-0.057415
H127	H	0.700022	0.346147	-0.033441
H128	H	0.765181	0.311810	-0.073180
O129	O	0.574229	0.387810	-0.000157
C130	C	0.625646	0.400044	-0.043117
H131	H	0.604723	0.371085	-0.073142
H132	H	0.617069	0.437483	-0.057547
H133	H	0.696720	0.401459	-0.033401
O134	O	0.784539	0.120646	0.000065
C135	C	0.837207	0.127846	0.043022
H136	H	0.803927	0.146683	0.073049
H137	H	0.847823	0.090788	0.057451
H138	H	0.902457	0.151888	0.033303
O139	O	1.249230	-0.355359	0.000017
C140	C	1.297291	-0.338048	0.042974
H141	H	1.251525	-0.328916	0.073009
H142	H	1.332344	-0.367624	0.057389
H143	H	1.346867	-0.303609	0.033259
H144	H	1.239671	-0.200945	-0.000058
H145	H	1.155747	-0.501750	-0.000059
O146	O	1.177468	0.020816	0.000026
C147	C	1.181638	-0.007954	0.042996
H148	H	1.113219	-0.022617	0.057319
H149	H	1.214295	-0.040066	0.033331
H150	H	1.220772	0.015556	0.073083
O151	O	0.863709	0.131616	0.473119
C152	C	0.888257	0.086905	0.460346
H153	H	0.957859	0.094569	0.445977
H154	H	0.883560	0.062287	0.494689
H155	H	0.843205	0.067704	0.430044
O156	O	0.428457	0.404730	-0.000160
C157	C	0.479877	0.416968	-0.043117
H158	H	0.458957	0.388013	-0.073146
H159	H	0.471304	0.454409	-0.057544
H160	H	0.550951	0.418381	-0.033400
O161	O	1.120274	0.322082	0.767062
C162	C	1.166067	0.356078	0.801293
H163	H	1.171365	0.337006	0.838519
H164	H	1.233836	0.371083	0.786194
H165	H	1.130032	0.387636	0.806848
H166	H	1.154079	-0.593517	-0.000066
O167	O	0.781864	-0.403786	-0.000151
C168	C	0.734272	-0.396355	-0.043110
H169	H	0.780559	-0.377675	-0.073136
H170	H	0.698002	-0.433308	-0.057538
H171	H	0.685771	-0.372076	-0.033393
O172	O	1.179339	0.120560	-0.000119
C173	C	1.226981	0.113160	-0.043081
H174	H	1.180730	0.094497	-0.073111
H175	H	1.263264	0.150123	-0.057502
H176	H	1.275475	0.088876	-0.033371
H177	H	0.259887	0.366326	-0.000068
O178	O	1.253832	-0.104007	-0.000074
C179	C	1.322628	-0.129991	-0.000065
H180	H	1.298917	-0.168431	-0.015770
H181	H	1.377905	-0.109677	-0.024153
H182	H	1.346692	-0.132876	0.039733
O183	O	0.461332	0.104437	0.000043
C184	C	0.409956	0.092195	0.043017
H185	H	0.387047	0.126243	0.057338
H186	H	0.351311	0.062563	0.033358
H187	H	0.449962	0.077882	0.073103
O188	O	0.858029	-0.528713	-0.000034
C189	C	0.788033	-0.569080	-0.000042
H190	H	0.810441	-0.602746	0.015661
H191	H	0.733286	-0.560176	0.024047
H192	H	0.763772	-0.576958	-0.039841
O193	O	1.171945	0.360590	0.526734
C194	C	1.118926	0.384177	0.496528
H195	H	1.050238	0.377196	0.512275
H196	H	1.145992	0.425384	0.495931
H197	H	1.117675	0.369024	0.456952
H198	H	0.612565	0.095444	-0.000024
O199	O	1.172091	0.360495	0.370050
C200	C	1.231340	0.341519	0.339844
H201	H	1.204986	0.300985	0.332030
H202	H	1.240683	0.362608	0.303120
H203	H	1.296259	0.345618	0.359957
H204	H	0.795972	-0.306801	-0.000055
O205	O	1.120164	0.322065	0.129993
C206	C	1.165966	0.356061	0.164223
H207	H	1.171271	0.336988	0.201447
H208	H	1.233732	0.371065	0.149119
H209	H	1.129934	0.387620	0.169781
O210	O	0.915451	0.170172	0.767139
C211	C	0.869661	0.136182	0.801405
H212	H	0.864375	0.155260	0.838624
H213	H	0.801888	0.121178	0.786340
H214	H	0.905692	0.104622	0.806960
H215	H	1.163927	0.354503	0.625599
H216	H	1.112046	0.316003	0.865832
H217	H	1.111962	0.315990	0.228750
H218	H	0.871751	0.137721	0.374307
O219	O	0.915420	0.170140	0.232858
C220	C	0.869583	0.136157	0.198628
H221	H	0.905309	0.139671	0.161395
H222	H	0.864748	0.097288	0.213719
H223	H	0.801628	0.144033	0.193092
O224	O	0.863607	0.131635	0.629722
C225	C	0.817776	0.097651	0.595492
H226	H	0.853504	0.101166	0.558260
H227	H	0.812948	0.058782	0.610583
H228	H	0.749819	0.105522	0.589955
H229	H	0.299301	0.213510	-0.000046
H230	H	0.797043	-0.246808	-0.000063
H231	H	0.798707	-0.155056	-0.000060
O232	O	0.863542	0.131747	0.526816
C233	C	0.804283	0.150731	0.496639
H234	H	0.830651	0.191262	0.488794
H235	H	0.794899	0.129638	0.459928
H236	H	0.739381	0.146645	0.516791
H237	H	0.879883	-0.006012	-0.000020
O238	O	0.869205	0.088389	-0.000095
C239	C	0.821181	0.071096	-0.043070
H240	H	0.842876	0.036689	-0.057392
H241	H	0.749203	0.061916	-0.033411
H242	H	0.832629	0.100700	-0.073155
O243	O	1.251036	-0.255692	-0.000153
C244	C	1.298676	-0.263098	-0.043114
H245	H	1.252422	-0.281759	-0.073143
H246	H	1.334965	-0.226137	-0.057537
H247	H	1.347164	-0.287385	-0.033403
H248	H	0.923585	0.176241	0.134086
O249	O	1.172081	0.360607	0.472960
C250	C	1.217896	0.394586	0.438693
H251	H	1.182151	0.391065	0.401479
H252	H	1.222732	0.433457	0.453763
H253	H	1.285851	0.386713	0.433126
H254	H	0.365499	0.173537	-0.000028
