data_functionalizedCrystal
_audit_creation_method	'MofGen! by Chris Wilmer'
_symmetry_space_group_name_H-M	'P1'
_symmetry_Int_Tables_number	1
_symmetry_cell_setting	triclinic
loop_
_symmetry_equiv_pos_as_xyz
  x,y,z
_cell_length_a	19.805407
_cell_length_b	15.297327
_cell_length_c	19.805398
_cell_angle_alpha	99.650424
_cell_angle_beta	89.984135
_cell_angle_gamma	99.707092
loop_
_atom_site_label
_atom_site_type_symbol
_atom_site_fract_x
_atom_site_fract_y
_atom_site_fract_z
Zn1	Zn	0.988068	-0.359206	-0.429338
Zn2	Zn	1.488068	0.140794	0.070662
Zn3	Zn	0.968400	-0.510071	-0.335730
Zn4	Zn	1.468400	-0.010071	0.164270
Zn5	Zn	0.874887	-0.359226	-0.316166
Zn6	Zn	1.374887	0.140774	0.183834
Zn7	Zn	0.855262	-0.510028	-0.448871
Zn8	Zn	1.355262	-0.010028	0.051129
O9	O	0.921654	-0.434633	-0.382526
O10	O	1.421654	0.065367	0.117474
O11	O	1.080174	-0.379228	-0.416934
O12	O	1.580174	0.120772	0.083066
O13	O	0.955978	-0.490088	-0.238421
O14	O	1.455978	0.009912	0.261579
O15	O	0.906345	-0.232975	-0.314816
O16	O	1.406345	0.267025	0.185184
O17	O	1.065724	-0.490068	-0.348160
O18	O	1.565724	0.009932	0.151840
O19	O	0.989499	-0.232960	-0.397964
O20	O	1.489499	0.267040	0.102036
O21	O	0.887274	-0.379263	-0.224048
O22	O	1.387274	0.120737	0.275952
O23	O	0.777568	-0.379221	-0.333756
O24	O	1.277568	0.120779	0.166244
O25	O	0.872896	-0.489994	-0.540993
O26	O	1.372896	0.010006	-0.040993
O27	O	0.763150	-0.490014	-0.431254
O28	O	1.263150	0.009986	0.068746
O29	O	0.970469	-0.379186	-0.526643
O30	O	1.470469	0.120814	-0.026643
O31	O	0.936948	-0.636314	-0.367100
O32	O	1.436948	-0.136314	0.132900
O33	O	0.853825	-0.636282	-0.450225
O34	O	1.353825	-0.136282	0.049775
C35	C	0.745800	-0.434616	-0.382502
C36	C	1.245800	0.065384	0.117498
C37	C	0.670567	-0.434630	-0.382511
C38	C	1.170567	0.065370	0.117489
C39	C	0.627721	-0.492407	-0.433219
C40	C	1.127721	0.007593	0.066781
C41	C	0.557032	-0.492408	-0.433229
C42	C	1.057032	0.007592	0.066771
C43	C	0.529190	-0.434637	-0.382527
C44	C	1.029190	0.065363	0.117473
C45	C	0.572041	-0.376854	-0.331816
C46	C	1.072041	0.123146	0.168184
C47	C	0.642729	-0.376848	-0.331809
C48	C	1.142729	0.123152	0.168191
C49	C	0.286965	-0.376874	-0.331840
C50	C	0.786965	0.123126	0.168160
C51	C	0.216272	-0.376886	-0.331850
C52	C	0.716272	0.123114	0.168150
C53	C	0.201269	-0.492434	-0.433260
C54	C	0.701269	0.007566	0.066740
C55	C	0.271956	-0.492428	-0.433254
C56	C	0.771956	0.007572	0.066746
C57	C	0.314802	-0.434642	-0.382545
C58	C	0.814802	0.065358	0.117455
C59	C	0.391451	-0.434640	-0.382536
C60	C	0.891451	0.065360	0.117464
C61	C	0.452542	-0.434643	-0.382532
C62	C	0.952542	0.065357	0.117468
C63	C	0.891141	-0.669033	-0.412920
C64	C	1.391141	-0.169033	0.087080
C65	C	0.878149	-0.769311	-0.425945
C66	C	1.378149	-0.269311	0.074055
C67	C	1.014787	-1.051917	-0.289664
C68	C	1.514787	-0.551917	0.210336
C69	C	1.026993	-0.957702	-0.277423
C70	C	1.526993	-0.457702	0.222577
C71	C	0.989783	-0.910599	-0.314553
C72	C	1.489783	-0.410599	0.185447
C73	C	0.940365	-0.957722	-0.363925
C74	C	1.440365	-0.457722	0.136075
C75	C	0.928154	-1.051947	-0.376164
C76	C	1.428154	-0.551947	0.123836
C77	C	0.903151	-0.910629	-0.401052
C78	C	1.403151	-0.410629	0.098948
C79	C	0.853732	-0.957751	-0.450425
C80	C	1.353732	-0.457751	0.049575
C81	C	0.841524	-1.051967	-0.462662
C82	C	1.341524	-0.551967	0.037338
C83	C	0.878733	-1.099069	-0.425532
C84	C	1.378733	-0.599069	0.074468
C85	C	0.915362	-0.816404	-0.388814
C86	C	1.415362	-0.316404	0.111186
C87	C	0.828729	-0.816433	-0.475313
C88	C	1.328729	-0.316433	0.024687
C89	C	0.816523	-0.910649	-0.487554
C90	C	1.316523	-0.410649	0.012446
C91	C	1.098195	-0.434651	-0.382551
C92	C	1.598195	0.065349	0.117449
C93	C	1.173426	-0.434659	-0.382561
C94	C	1.673426	0.065341	0.117439
C95	C	0.921687	-0.434583	-0.559062
C96	C	1.421687	0.065417	-0.059062
C97	C	0.921701	-0.434562	-0.634292
C98	C	1.421701	0.065438	-0.134292
C99	C	0.952305	-0.199317	-0.352029
C100	C	1.452305	0.300683	0.147971
C101	C	0.965366	-0.099040	-0.339032
C102	C	1.465366	0.400960	0.160968
C103	C	0.972609	-0.376704	-1.088591
C104	C	1.472609	0.123296	-0.588591
C105	C	0.972595	-0.376732	-1.017906
C106	C	1.472595	0.123268	-0.517906
C107	C	0.921787	-0.434436	-0.990037
C108	C	1.421787	0.065564	-0.490037
C109	C	0.870994	-0.492123	-1.032859
C110	C	1.370994	0.007877	-0.532859
C111	C	0.871011	-0.492099	-1.103543
C112	C	1.371011	0.007901	-0.603543
C113	C	0.870922	-0.492221	-0.747798
C114	C	1.370922	0.007779	-0.247798
C115	C	0.870907	-0.492238	-0.677108
C116	C	1.370907	0.007762	-0.177108
C117	C	0.972506	-0.376853	-0.662161
C118	C	1.472506	0.123147	-0.162161
C119	C	0.972524	-0.376830	-0.732845
C120	C	1.472524	0.123170	-0.232845
C121	C	0.921733	-0.434520	-0.775661
C122	C	1.421733	0.065480	-0.275661
C123	C	0.921749	-0.434490	-0.852305
C124	C	1.421749	0.065510	-0.352305
C125	C	0.921767	-0.434462	-0.913394
C126	C	1.421767	0.065538	-0.413394
C127	C	0.921669	-0.434618	-0.206668
C128	C	1.421669	0.065382	0.293332
C129	C	0.921819	-0.434385	-0.131406
C130	C	1.421819	0.065615	0.368594
H131	H	0.321841	-0.329828	-0.290546
H132	H	0.821841	0.170172	0.209454
H133	H	1.013864	-0.329882	-0.627293
H134	H	1.513864	0.170118	-0.127293
H135	H	0.829529	-0.539228	-0.654420
H136	H	1.329529	-0.039228	-0.154420
H137	H	1.013955	-0.329765	-0.983049
H138	H	1.513955	0.170235	-0.483049
H139	H	1.013980	-0.329708	-1.111275
H140	H	1.513980	0.170292	-0.611275
H141	H	0.829653	-0.539070	-1.138403
H142	H	1.329653	-0.039070	-0.638403
O143	O	0.816135	-0.554427	-0.793972
O144	O	1.316135	-0.054427	-0.293972
H145	H	0.780798	-0.594543	-0.762714
H146	H	1.280798	-0.094543	-0.262714
H147	H	0.868800	-1.175787	-0.435498
H148	H	1.368800	-0.675787	0.064502
H149	H	0.166375	-0.539483	-0.474552
H150	H	0.666375	-0.039483	0.025448
O151	O	0.763220	-0.961475	-0.540803
O152	O	1.263220	-0.461475	-0.040803
H153	H	0.712441	-0.943453	-0.526808
H154	H	1.212441	-0.443453	-0.026808
O155	O	1.002941	-0.808981	-0.301359
O156	O	1.502941	-0.308981	0.198641
H157	H	1.057210	-0.784067	-0.311853
H158	H	1.557210	-0.284067	0.188147
H159	H	0.801276	-1.090331	-0.502856
H160	H	1.301276	-0.590331	-0.002856
O161	O	0.788592	-0.765644	-0.515369
O162	O	1.288592	-0.265644	-0.015369
H163	H	0.805391	-0.692211	-0.498570
H164	H	1.305391	-0.192211	0.001430
O165	O	0.542014	-0.314563	-0.277113
O166	O	1.042014	0.185437	0.222887
H167	H	0.485660	-0.324287	-0.285626
H168	H	0.985660	0.175713	0.214374
H169	H	1.045074	-1.090277	-0.259435
H170	H	1.545074	-0.590277	0.240565
O171	O	0.816188	-0.554361	-1.002805
O172	O	1.316188	-0.054361	-0.502805
H173	H	0.824703	-0.544680	-0.946460
H174	H	1.324703	-0.044680	-0.446460
O175	O	1.080296	-0.906876	-0.224182
O176	O	1.580296	-0.406876	0.275818
H177	H	1.104125	-0.955455	-0.200425
H178	H	1.604125	-0.455455	0.299575
H179	H	0.193606	-0.329836	-0.290561
H180	H	0.693606	0.170164	0.209439
H181	H	0.955598	-0.778045	-0.348614
H182	H	1.455598	-0.278045	0.151386
O183	O	0.657751	-0.554714	-0.487908
O184	O	1.157751	-0.054714	0.012092
H185	H	0.616080	-0.594882	-0.523174
H186	H	1.116080	-0.094882	-0.023174
O187	O	0.510795	-0.554897	-0.487813
O188	O	1.010795	-0.054897	0.012187
H189	H	0.542022	-0.595138	-0.523024
H190	H	1.042022	-0.095138	-0.023024
H191	H	1.013895	-0.329837	-0.755531
H192	H	1.513895	0.170163	-0.255531
H193	H	0.677615	-0.329796	-0.290520
H194	H	1.177615	0.170204	0.209480
O195	O	0.301989	-0.554733	-0.487942
O196	O	0.801989	-0.054733	0.012058
H197	H	0.260320	-0.594903	-0.523210
H198	H	0.760320	-0.094903	-0.023210
