data_functionalizedCrystal
_audit_creation_method	'MofGen! by Chris Wilmer'
_symmetry_space_group_name_H-M	'P1'
_symmetry_Int_Tables_number	1
_symmetry_cell_setting	triclinic
loop_
_symmetry_equiv_pos_as_xyz
  x,y,z
_cell_length_a	14.519731
_cell_length_b	14.044190
_cell_length_c	13.596369
_cell_angle_alpha	90.005026
_cell_angle_beta	90.006024
_cell_angle_gamma	88.440315
loop_
_atom_site_label
_atom_site_type_symbol
_atom_site_fract_x
_atom_site_fract_y
_atom_site_fract_z
O1	O	1.233892	0.124362	0.081805
O2	O	1.567225	0.457695	0.415138
O3	O	1.900559	0.791029	0.748472
O4	O	0.966597	0.138975	0.081808
O5	O	1.299930	0.472309	0.415141
O6	O	1.633263	0.805642	0.748475
O7	O	1.096229	-0.006323	0.081787
O8	O	1.429562	0.327010	0.415121
O9	O	1.762896	0.660343	0.748454
O10	O	1.104260	0.269661	0.081826
O11	O	1.437593	0.602994	0.415159
O12	O	1.770927	0.936327	0.748492
O13	O	1.096212	-0.006315	-0.081796
O14	O	1.429545	0.327018	0.251538
O15	O	1.762879	0.660351	0.584871
O16	O	0.966580	0.138984	-0.081775
O17	O	1.299913	0.472317	0.251558
O18	O	1.633247	0.805650	0.584892
O19	O	1.233875	0.124370	-0.081778
O20	O	1.567209	0.457703	0.251555
O21	O	1.900542	0.791037	0.584889
Zn22	Zn	1.100225	0.131678	-0.107749
Zn23	Zn	1.433558	0.465011	0.225585
Zn24	Zn	1.766892	0.798345	0.558918
Zn25	Zn	1.100247	0.131667	0.107779
Zn26	Zn	1.433580	0.465001	0.441112
Zn27	Zn	1.766914	0.798334	0.774445
O28	O	1.104243	0.269669	-0.081757
O29	O	1.437576	0.603002	0.251576
O30	O	1.770910	0.936335	0.584910
C31	C	0.932174	0.138295	0.000017
C32	C	1.265507	0.471628	0.333350
C33	C	1.598840	0.804961	0.666683
C34	C	0.829628	0.136243	0.000017
C35	C	1.162961	0.469576	0.333350
C36	C	1.496295	0.802910	0.666683
C37	C	0.746349	0.134576	0.000021
C38	C	1.079683	0.467909	0.333354
C39	C	1.413016	0.801242	0.666687
C40	C	0.641872	0.132492	0.000021
C41	C	0.975206	0.465826	0.333354
C42	C	1.308539	0.799159	0.666687
C43	C	0.558600	0.130839	0.000020
C44	C	0.891933	0.464172	0.333354
C45	C	1.225267	0.797506	0.666687
C46	C	0.454117	0.128756	0.000022
C47	C	0.787450	0.462089	0.333356
C48	C	1.120783	0.795423	0.666689
C49	C	1.092707	-0.041640	-0.000007
C50	C	1.426041	0.291693	0.333326
C51	C	1.759374	0.625027	0.666660
C52	C	1.082228	-0.146884	-0.000016
C53	C	1.415561	0.186449	0.333318
C54	C	1.748894	0.519782	0.666651
C55	C	1.137393	-0.397073	0.000022
C56	C	1.470726	-0.063740	0.333356
C57	C	1.804059	0.269594	0.666689
C58	C	1.063083	-0.339576	0.000016
C59	C	1.396417	-0.006243	0.333350
C60	C	1.729750	0.327091	0.666683
C61	C	1.073738	-0.232353	-0.000001
C62	C	1.407071	0.100981	0.333332
C63	C	1.740404	0.434314	0.666665
C64	C	1.126740	-0.504306	0.000040
C65	C	1.460073	-0.170973	0.333373
C66	C	1.793406	0.162360	0.666707
C67	C	1.268298	0.125051	0.000016
C68	C	1.601632	0.458384	0.333349
C69	C	1.934965	0.791717	0.666682
C70	C	1.370844	0.127102	0.000022
C71	C	1.704177	0.460436	0.333355
C72	C	2.037511	0.793769	0.666689
C73	C	1.107765	0.304985	0.000039
C74	C	1.441098	0.638319	0.333373
C75	C	1.774431	0.971652	0.666706
C76	C	1.118244	0.410230	0.000054
C77	C	1.451578	0.743563	0.333388
C78	C	1.784911	1.076897	0.666721
N79	N	1.100217	0.131685	-0.254841
N80	N	1.433550	0.465018	0.078493
N81	N	1.766883	0.798351	0.411826
C82	C	1.100221	0.131687	-0.343838
C83	C	1.433555	0.465020	-0.010505
C84	C	1.766888	0.798353	0.322828
C85	C	1.100230	0.131680	-0.455490
C86	C	1.433563	0.465014	-0.122156
C87	C	1.766896	0.798347	0.211177
C88	C	1.100241	0.131670	-0.544480
C89	C	1.433574	0.465003	-0.211147
C90	C	1.766908	0.798336	0.122186
C91	C	1.100251	0.131664	-0.656139
C92	C	1.433584	0.464997	-0.322805
C93	C	1.766918	0.798331	0.010528
N94	N	1.100262	0.131653	0.254871
N95	N	1.433595	0.464987	0.588204
N96	N	1.766929	0.798320	0.921537
H97	H	1.209007	-0.365772	0.000011
H98	H	1.542341	-0.032439	0.333345
H99	H	1.875674	0.300894	0.666678
H100	H	0.991463	-0.370878	0.000023
H101	H	1.324796	-0.037545	0.333356
H102	H	1.658130	0.295788	0.666689
