data_functionalizedCrystal
_audit_creation_method	'MofGen! by Chris Wilmer'
_symmetry_space_group_name_H-M	'P1'
_symmetry_Int_Tables_number	1
_symmetry_cell_setting	triclinic
loop_
_symmetry_equiv_pos_as_xyz
  x,y,z
_cell_length_a	29.839131
_cell_length_b	25.639242
_cell_length_c	25.639234
_cell_angle_alpha	90.029352
_cell_angle_beta	89.974256
_cell_angle_gamma	89.963053
loop_
_atom_site_label
_atom_site_type_symbol
_atom_site_fract_x
_atom_site_fract_y
_atom_site_fract_z
Zn1	Zn	-0.178934	-0.799252	-0.295739
Zn2	Zn	0.154399	-0.465919	0.037594
Zn3	Zn	0.487732	-0.132586	0.370927
Zn4	Zn	-0.254057	-0.799161	-0.208302
Zn5	Zn	0.079277	-0.465827	0.125031
Zn6	Zn	0.412610	-0.132494	0.458364
Zn7	Zn	-0.178936	-0.711818	-0.208303
Zn8	Zn	0.154398	-0.378484	0.125030
Zn9	Zn	0.487731	-0.045151	0.458363
Zn10	Zn	-0.254032	-0.711769	-0.295692
Zn11	Zn	0.079301	-0.378436	0.037641
Zn12	Zn	0.412635	-0.045103	0.370975
O13	O	-0.216490	-0.755500	-0.252009
O14	O	0.116844	-0.422167	0.081324
O15	O	0.450177	-0.088833	0.414657
O16	O	-0.188909	-0.872405	-0.284160
O17	O	0.144424	-0.539072	0.049174
O18	O	0.477758	-0.205739	0.382507
O19	O	-0.244103	-0.787556	-0.135137
O20	O	0.089230	-0.454223	0.198196
O21	O	0.422564	-0.120889	0.531530
O22	O	-0.116068	-0.723474	-0.219922
O23	O	0.217265	-0.390141	0.113411
O24	O	0.550598	-0.056808	0.446745
O25	O	-0.244101	-0.872338	-0.219920
O26	O	0.089232	-0.539005	0.113413
O27	O	0.422565	-0.205671	0.446746
O28	O	-0.116067	-0.787712	-0.284161
O29	O	0.217266	-0.454379	0.049173
O30	O	0.550599	-0.121046	0.382506
O31	O	-0.188912	-0.723386	-0.135138
O32	O	0.144422	-0.390052	0.198195
O33	O	0.477755	-0.056719	0.531529
O34	O	-0.188888	-0.638646	-0.219876
O35	O	0.144446	-0.305313	0.113457
O36	O	0.477779	0.028021	0.446790
O37	O	-0.244059	-0.723392	-0.368864
O38	O	0.089274	-0.390059	-0.035530
O39	O	0.422607	-0.056726	0.297803
O40	O	-0.244061	-0.638611	-0.284081
O41	O	0.089273	-0.305277	0.049253
O42	O	0.422606	0.028056	0.382586
O43	O	-0.188885	-0.787666	-0.368898
O44	O	0.144448	-0.454332	-0.035565
O45	O	0.477782	-0.120999	0.297768
O46	O	-0.316921	-0.787509	-0.219875
O47	O	0.016413	-0.454176	0.113459
O48	O	0.349746	-0.120843	0.446792
O49	O	-0.316903	-0.723304	-0.284080
O50	O	0.016431	-0.389970	0.049254
O51	O	0.349764	-0.056637	0.382587
C52	C	-0.216472	-0.619657	-0.251974
C53	C	0.116861	-0.286324	0.081360
C54	C	0.450195	0.047009	0.414693
C55	C	-0.216475	-0.561543	-0.251971
C56	C	0.116858	-0.228210	0.081362
C57	C	0.450191	0.105123	0.414696
C58	C	-0.333212	-0.755406	-0.251983
C59	C	0.000121	-0.422072	0.081350
C60	C	0.333454	-0.088739	0.414683
C61	C	-0.383147	-0.755413	-0.251990
C62	C	-0.049813	-0.422080	0.081344
C63	C	0.283520	-0.088746	0.414677
C64	C	-0.216469	-0.755534	-0.388382
C65	C	0.116864	-0.422201	-0.055049
C66	C	0.450197	-0.088867	0.278284
C67	C	-0.216461	-0.755548	-0.446496
C68	C	0.116873	-0.422215	-0.113163
C69	C	0.450206	-0.088882	0.220170
C70	C	-0.692787	-0.788993	-0.218627
C71	C	-0.359454	-0.455659	0.114707
C72	C	-0.026120	-0.122326	0.448040
C73	C	-0.880460	-0.789057	-0.218647
C74	C	-0.547127	-0.455724	0.114686
C75	C	-0.213793	-0.122391	0.448020
O76	O	-0.904722	-0.817533	-0.190260
O77	O	-0.571389	-0.484200	0.143073
O78	O	-0.238055	-0.150866	0.476406
N79	N	-0.903932	-0.755608	-0.252049
N80	N	-0.570598	-0.422275	0.081285
N81	N	-0.237265	-0.088942	0.414618
C82	C	-0.880482	-0.722143	-0.285450
C83	C	-0.547149	-0.388810	0.047883
C84	C	-0.213816	-0.055477	0.381216
O85	O	-0.904753	-0.693698	-0.313865
O86	O	-0.571420	-0.360365	0.019469
O87	O	-0.238086	-0.027032	0.352802
C88	C	-0.692810	-0.722082	-0.285432
C89	C	-0.359477	-0.388749	0.047901
C90	C	-0.026144	-0.055415	0.381235
C91	C	-0.669341	-0.755529	-0.252024
C92	C	-0.336008	-0.422196	0.081309
C93	C	-0.002674	-0.088863	0.414642
C94	C	-0.669318	-0.822438	-0.185222
C95	C	-0.335984	-0.489104	0.148111
C96	C	-0.002651	-0.155771	0.481445
C97	C	-0.622402	-0.822419	-0.185215
C98	C	-0.289069	-0.489086	0.148118
C99	C	0.044265	-0.155753	0.481451
C100	C	-0.598956	-0.788956	-0.218613
C101	C	-0.265623	-0.455622	0.114720
C102	C	0.067711	-0.122289	0.448054
C103	C	-0.622425	-0.755511	-0.252018
C104	C	-0.289092	-0.422177	0.081316
C105	C	0.044241	-0.088844	0.414649
C106	C	-0.669362	-0.688620	-0.318836
C107	C	-0.336028	-0.355287	0.014497
C108	C	-0.002695	-0.021953	0.347831
C109	C	-0.622441	-0.688608	-0.318829
C110	C	-0.289107	-0.355275	0.014504
C111	C	0.044226	-0.021942	0.347837
C112	C	-0.598971	-0.722056	-0.285422
C113	C	-0.265638	-0.388722	0.047912
C114	C	0.067695	-0.055389	0.381245
C115	C	-0.552064	-0.722029	-0.285409
C116	C	-0.218731	-0.388695	0.047925
C117	C	0.114603	-0.055362	0.381258
N118	N	-0.528592	-0.755478	-0.252007
N119	N	-0.195259	-0.422144	0.081326
N120	N	0.138074	-0.088811	0.414660
C121	C	-0.552038	-0.788941	-0.218609
C122	C	-0.218705	-0.455608	0.114724
C123	C	0.114628	-0.122274	0.448058
C124	C	-0.979013	-0.722177	-0.285457
C125	C	-0.645680	-0.388844	0.047877
C126	C	-0.312346	-0.055511	0.381210
C127	C	-1.025931	-0.722192	-0.285461
C128	C	-0.692598	-0.388859	0.047873
C129	C	-0.359264	-0.055525	0.381206
C130	C	-1.025905	-0.789107	-0.218658
C131	C	-0.692572	-0.455773	0.114676
C132	C	-0.359238	-0.122440	0.448009
C133	C	-0.978986	-0.789089	-0.218652
C134	C	-0.645653	-0.455756	0.114682
C135	C	-0.312320	-0.122422	0.448015
C136	C	-0.955541	-0.755626	-0.252055
C137	C	-0.622208	-0.422293	0.081279
C138	C	-0.288875	-0.088960	0.414612
C139	C	-0.453512	-0.788899	-0.218597
C140	C	-0.120179	-0.455566	0.114736
C141	C	0.213154	-0.122233	0.448070
C142	C	-0.406593	-0.788877	-0.218592
C143	C	-0.073259	-0.455543	0.114742
C144	C	0.260074	-0.122210	0.448075
C145	C	-0.406623	-0.721964	-0.285396
C146	C	-0.073289	-0.388631	0.047937
C147	C	0.260044	-0.055297	0.381270
C148	C	-0.453538	-0.721985	-0.285400
C149	C	-0.120205	-0.388651	0.047933
C150	C	0.213129	-0.055318	0.381267
C151	C	-0.476982	-0.755457	-0.251999
C152	C	-0.143649	-0.422123	0.081335
C153	C	0.189685	-0.088790	0.414668
O154	O	-0.527773	-0.693572	-0.313785
O155	O	-0.194440	-0.360239	0.019549
O156	O	0.138894	-0.026905	0.352882
O157	O	-0.527760	-0.817390	-0.190207
O158	O	-0.194426	-0.484057	0.143126
O159	O	0.138907	-0.150723	0.476460
C160	C	-0.739702	-0.789011	-0.218633
C161	C	-0.406369	-0.455678	0.114700
C162	C	-0.073036	-0.122345	0.448033
C163	C	-0.763172	-0.755566	-0.252038
C164	C	-0.429838	-0.422233	0.081295
C165	C	-0.096505	-0.088900	0.414629
C166	C	-0.739726	-0.722103	-0.285436
C167	C	-0.406392	-0.388769	0.047898
C168	C	-0.073059	-0.055436	0.381231
C169	C	-0.810090	-0.755581	-0.252042
C170	C	-0.476756	-0.422247	0.081291
C171	C	-0.143423	-0.088914	0.414625
C172	C	-0.833536	-0.789044	-0.218644
C173	C	-0.500202	-0.455711	0.114689
C174	C	-0.166869	-0.122378	0.448023
C175	C	-0.810064	-0.822493	-0.185242
C176	C	-0.476731	-0.489160	0.148091
C177	C	-0.143397	-0.155827	0.481424
C178	C	-0.763148	-0.822475	-0.185235
C179	C	-0.429815	-0.489141	0.148098
C180	C	-0.096482	-0.155808	0.481431
C181	C	-0.763198	-0.688654	-0.318838
C182	C	-0.429864	-0.355320	0.014496
C183	C	-0.096531	-0.021987	0.347829
C184	C	-0.810113	-0.688675	-0.318841
C185	C	-0.476780	-0.355341	0.014492
C186	C	-0.143446	-0.022008	0.347825
C187	C	-0.833559	-0.722138	-0.285443
C188	C	-0.500226	-0.388805	0.047890
C189	C	-0.166892	-0.055471	0.381223
C190	C	-0.099311	-0.755609	-0.252047
C191	C	0.234022	-0.422276	0.081287
C192	C	0.567355	-0.088942	0.414620
C193	C	-0.049377	-0.755655	-0.252063
C194	C	0.283956	-0.422322	0.081271
C195	C	0.617290	-0.088989	0.414604
C196	C	-0.216508	-0.891873	-0.252045
C197	C	0.116825	-0.558540	0.081288
C198	C	0.450159	-0.225206	0.414622
C199	C	-0.216516	-0.949987	-0.252060
C200	C	0.116818	-0.616654	0.081273
C201	C	0.450151	-0.283320	0.414606
C202	C	-0.245266	-0.201171	-0.285409
C203	C	0.088067	0.132163	0.047925
C204	C	0.421400	0.465496	0.381258
C205	C	-0.245269	-0.146566	-0.285417
C206	C	0.088064	0.186767	0.047916
C207	C	0.421398	0.520100	0.381250
O208	O	-0.269726	-0.118322	-0.313817
O209	O	0.063607	0.215012	0.019517
O210	O	0.396940	0.548345	0.352850
N211	N	-0.216502	-0.119261	-0.252043
N212	N	0.116831	0.214072	0.081290
N213	N	0.450165	0.547406	0.414623
C214	C	-0.187727	-0.146562	-0.218663
C215	C	0.145606	0.186771	0.114670
C216	C	0.478939	0.520104	0.448004
O217	O	-0.163259	-0.118323	-0.190277
O218	O	0.170075	0.215010	0.143056
O219	O	0.503408	0.548344	0.476389
C220	C	-0.187723	-0.201166	-0.218658
C221	C	0.145611	0.132168	0.114675
C222	C	0.478944	0.465501	0.448009
C223	C	-0.216495	-0.228469	-0.252030
C224	C	0.116839	0.104865	0.081303
C225	C	0.450172	0.438198	0.414637
C226	C	-0.274036	-0.228474	-0.318778
C227	C	0.059298	0.104860	0.014555
C228	C	0.392631	0.438193	0.347888
C229	C	-0.274033	-0.283074	-0.318769
C230	C	0.059300	0.050259	0.014564
C231	C	0.392633	0.383593	0.347897
C232	C	-0.245262	-0.310372	-0.285391
C233	C	0.088072	0.022961	0.047943
C234	C	0.421405	0.356295	0.381276
C235	C	-0.216492	-0.283069	-0.252021
C236	C	0.116841	0.050264	0.081313
C237	C	0.450174	0.383598	0.414646
C238	C	-0.158946	-0.228466	-0.185281
C239	C	0.174387	0.104867	0.148053
C240	C	0.507721	0.438200	0.481386
C241	C	-0.158943	-0.283073	-0.185279
C242	C	0.174390	0.050260	0.148055
C243	C	0.507723	0.383593	0.481388
C244	C	-0.187716	-0.310376	-0.218651
C245	C	0.145618	0.022957	0.114683
C246	C	0.478951	0.356291	0.448016
C247	C	-0.187719	-0.364967	-0.218633
C248	C	0.145615	-0.031634	0.114700
C249	C	0.478948	0.301699	0.448034
N250	N	-0.216485	-0.392273	-0.252007
N251	N	0.116848	-0.058940	0.081327
N252	N	0.450181	0.274394	0.414660
C253	C	-0.245257	-0.364975	-0.285385
C254	C	0.088076	-0.031642	0.047948
C255	C	0.421410	0.301691	0.381281
C256	C	-0.187739	-0.031892	-0.218677
C257	C	0.145595	0.301442	0.114656
C258	C	0.478928	0.634775	0.447989
C259	C	-0.187745	0.022711	-0.218679
C260	C	0.145588	0.356044	0.114654
C261	C	0.478921	0.689377	0.447987
C262	C	-0.245287	0.022703	-0.285434
C263	C	0.088047	0.356036	0.047899
C264	C	0.421380	0.689369	0.381233
C265	C	-0.245282	-0.031901	-0.285429
C266	C	0.088051	0.301433	0.047904
C267	C	0.421385	0.634766	0.381238
C268	C	-0.216506	-0.059197	-0.252051
C269	C	0.116828	0.274136	0.081283
C270	C	0.450161	0.607469	0.414616
C271	C	-0.245250	-0.479640	-0.285363
C272	C	0.088083	-0.146307	0.047970
C273	C	0.421416	0.187026	0.381303
C274	C	-0.245247	-0.534246	-0.285350
C275	C	0.088086	-0.200912	0.047984
C276	C	0.421420	0.132421	0.381317
C277	C	-0.187704	-0.534233	-0.218597
C278	C	0.145629	-0.200900	0.114736
C279	C	0.478962	0.132434	0.448069
C280	C	-0.187709	-0.479632	-0.218609
C281	C	0.145624	-0.146299	0.114725
C282	C	0.478958	0.187034	0.448058
C283	C	-0.216484	-0.452337	-0.251996
C284	C	0.116850	-0.119004	0.081337
C285	C	0.450183	0.214329	0.414671
O286	O	-0.163273	-0.393247	-0.190249
O287	O	0.170061	-0.059914	0.143084
O288	O	0.503394	0.273420	0.476418
O289	O	-0.269717	-0.393221	-0.313771
O290	O	0.063616	-0.059888	0.019562
O291	O	0.396949	0.273445	0.352896
C292	C	-0.187669	-0.722150	-0.806865
C293	C	0.145664	-0.388816	-0.473532
C294	C	0.478998	-0.055483	-0.140199
C295	C	-0.187661	-0.722152	-0.861470
C296	C	0.145672	-0.388819	-0.528136
C297	C	0.479006	-0.055486	-0.194803
O298	O	-0.163231	-0.693729	-0.889712
O299	O	0.170103	-0.360396	-0.556378
O300	O	0.503436	-0.027062	-0.223045
N301	N	-0.216390	-0.755566	-0.888779
N302	N	0.116943	-0.422232	-0.555446
N303	N	0.450277	-0.088899	-0.222112
C304	C	-0.245132	-0.788975	-0.861481
C305	C	0.088201	-0.455642	-0.528148
C306	C	0.421534	-0.122308	-0.194814
O307	O	-0.269568	-0.817396	-0.889724
O308	O	0.063765	-0.484062	-0.556390
O309	O	0.397098	-0.150729	-0.223057
C310	C	-0.245143	-0.788969	-0.806878
C311	C	0.088191	-0.455636	-0.473544
C312	C	0.421524	-0.122302	-0.140211
C313	C	-0.216408	-0.755557	-0.779571
C314	C	0.116925	-0.422224	-0.446238
C315	C	0.450258	-0.088890	-0.112905
C316	C	-0.158937	-0.688740	-0.779559
C317	C	0.174396	-0.355407	-0.446226
C318	C	0.507729	-0.022073	-0.112892
C319	C	-0.158945	-0.688738	-0.724958
C320	C	0.174388	-0.355405	-0.391625
C321	C	0.507722	-0.022071	-0.058292
C322	C	-0.187684	-0.722146	-0.697664
C323	C	0.145649	-0.388812	-0.364331
C324	C	0.478982	-0.055479	-0.030998
C325	C	-0.216416	-0.755555	-0.724971
C326	C	0.116917	-0.422222	-0.391637
C327	C	0.450251	-0.088888	-0.058304
C328	C	-0.273887	-0.822375	-0.779581
C329	C	0.059446	-0.489042	-0.446247
C330	C	0.392780	-0.155708	-0.112914
C331	C	-0.273895	-0.822366	-0.724974
C332	C	0.059439	-0.489033	-0.391640
C333	C	0.392772	-0.155699	-0.058307
C334	C	-0.245160	-0.788954	-0.697667
C335	C	0.088173	-0.455621	-0.364334
C336	C	0.421506	-0.122287	-0.031001
C337	C	-0.245163	-0.788961	-0.643076
C338	C	0.088170	-0.455627	-0.309743
C339	C	0.421504	-0.122294	0.023591
N340	N	-0.216434	-0.755547	-0.615767
N341	N	0.116900	-0.422214	-0.282434
N342	N	0.450233	-0.088881	0.050900
C343	C	-0.187694	-0.722140	-0.643061
C344	C	0.145639	-0.388806	-0.309728
C345	C	0.478972	-0.055473	0.023606
C346	C	-0.245110	-0.788984	-0.976152
C347	C	0.088224	-0.455651	-0.642818
C348	C	0.421557	-0.122317	-0.309485
C349	C	-0.245098	-0.788993	-1.030754
C350	C	0.088236	-0.455660	-0.697421
C351	C	0.421569	-0.122326	-0.364087
C352	C	-0.187627	-0.722169	-1.030739
C353	C	0.145707	-0.388836	-0.697406
C354	C	0.479040	-0.055503	-0.364072
C355	C	-0.187637	-0.722164	-0.976136
C356	C	0.145697	-0.388830	-0.642802
C357	C	0.479030	-0.055497	-0.309469
C358	C	-0.216381	-0.755571	-0.948843
C359	C	0.116953	-0.422237	-0.615509
C360	C	0.450286	-0.088904	-0.282176
C361	C	-0.187712	-0.722138	-0.528396
C362	C	0.145621	-0.388805	-0.195062
C363	C	0.478954	-0.055472	0.138271
C364	C	-0.187721	-0.722141	-0.473790
C365	C	0.145612	-0.388807	-0.140457
C366	C	0.478945	-0.055474	0.192876
C367	C	-0.245194	-0.788962	-0.473810
C368	C	0.088139	-0.455629	-0.140477
C369	C	0.421473	-0.122295	0.192856
C370	C	-0.245184	-0.788962	-0.528411
C371	C	0.088150	-0.455628	-0.195078
C372	C	0.421483	-0.122295	0.138256
C373	C	-0.216441	-0.755546	-0.555702
C374	C	0.116892	-0.422212	-0.222369
C375	C	0.450225	-0.088879	0.110964
O376	O	-0.269582	-0.817368	-0.614800
O377	O	0.063752	-0.484035	-0.281466
O378	O	0.397085	-0.150701	0.051867
O379	O	-0.163267	-0.693719	-0.614812
O380	O	0.170067	-0.360386	-0.281478
O381	O	0.503400	-0.027052	0.051855
C382	C	-0.216478	-0.755496	-0.116167
C383	C	0.116856	-0.422163	0.217167
C384	C	0.450189	-0.088830	0.550500
C385	C	-0.216360	-0.755583	-0.058053
C386	C	0.116973	-0.422250	0.275280
C387	C	0.450307	-0.088916	0.608614
H388	H	-0.387485	-0.816113	-0.191385
H389	H	-0.054152	-0.482780	0.141948
H390	H	0.279181	-0.149447	0.475281
H391	H	-0.164307	-0.694928	-0.550610
H392	H	0.169026	-0.361595	-0.217277
H393	H	0.502359	-0.028262	0.116057
Br394	Br	-0.284089	-0.834348	-1.067806
Br395	Br	0.049245	-0.501014	-0.734473
Br396	Br	0.382578	-0.167681	-0.401139
H397	H	-0.164306	-0.054114	-0.191493
H398	H	0.169027	0.279220	0.141840
H399	H	0.502361	0.612553	0.475174
H400	H	-0.164280	-0.556469	-0.191419
H401	H	0.169053	-0.223135	0.141914
H402	H	0.502386	0.110198	0.475247
H403	H	-0.297465	-0.206254	-0.345962
H404	H	0.035868	0.127080	-0.012629
H405	H	0.369202	0.460413	0.320704
Br406	Br	-0.841893	-0.867905	-0.139915
Br407	Br	-0.508559	-0.534572	0.193419
Br408	Br	-0.175226	-0.201239	0.526752
H409	H	-1.045036	-0.694951	-0.312660
H410	H	-0.711702	-0.361618	0.020674
H411	H	-0.378369	-0.028284	0.354007
Br412	Br	-0.485322	-0.834326	-0.173266
Br413	Br	-0.151988	-0.500993	0.160067
Br414	Br	0.181345	-0.167659	0.493400
Br415	Br	-0.119886	-0.320116	-0.139979
Br416	Br	0.213447	0.013217	0.193355
Br417	Br	0.546780	0.346551	0.526688
Br418	Br	-0.284299	-0.571296	-0.330641
Br419	Br	0.049034	-0.237963	0.002692
Br420	Br	0.382367	0.095371	0.336025
H421	H	-0.164238	-0.694957	-0.953906
H422	H	0.169095	-0.361624	-0.620573
H423	H	0.502428	-0.028290	-0.287240
H424	H	-0.135548	-0.661528	-0.702730
H425	H	0.197785	-0.328195	-0.369397
H426	H	0.531118	0.005138	-0.036064
H427	H	-0.688402	-0.849691	-0.158025
H428	H	-0.355069	-0.516357	0.175308
H429	H	-0.021736	-0.183024	0.508641
H430	H	-0.297462	-0.305299	-0.345945
H431	H	0.035872	0.028034	-0.012612
H432	H	0.369205	0.361367	0.320721
H433	H	-0.829218	-0.661433	-0.346045
H434	H	-0.495884	-0.328100	-0.012712
H435	H	-0.162551	0.005234	0.320621
Br436	Br	-0.947201	-0.676759	-0.330794
Br437	Br	-0.613868	-0.343425	0.002539
Br438	Br	-0.280535	-0.010092	0.335873
H439	H	-0.268576	-0.816174	-0.550645
H440	H	0.064757	-0.482841	-0.217312
H441	H	0.398090	-0.149507	0.116022
Br442	Br	-0.590558	-0.867822	-0.139881
Br443	Br	-0.257225	-0.534489	0.193452
Br444	Br	0.076109	-0.201156	0.526785
H445	H	-0.164321	0.044936	-0.191499
H446	H	0.169013	0.378269	0.141834
H447	H	0.502346	0.711602	0.475167
H448	H	-0.959880	-0.816325	-0.191448
H449	H	-0.626547	-0.482992	0.141885
H450	H	-0.293214	-0.149658	0.475218
H451	H	-0.268710	-0.054127	-0.312604
H452	H	0.064623	0.279206	0.020729
H453	H	0.397957	0.612540	0.354063
H454	H	-0.268713	0.044938	-0.312615
H455	H	0.064621	0.378272	0.020719
H456	H	0.397954	0.711605	0.354052
H457	H	-0.164226	-0.694967	-1.052972
H458	H	0.169108	-0.361634	-0.719638
H459	H	0.502441	-0.028300	-0.386305
H460	H	-0.268514	-0.816194	-0.953933
H461	H	0.064820	-0.482861	-0.620600
H462	H	0.398153	-0.149528	-0.287266
H463	H	-1.045003	-0.816354	-0.191464
H464	H	-0.711670	-0.483021	0.141869
H465	H	-0.378336	-0.149687	0.475203
Br466	Br	-0.119893	-0.191426	-0.139990
Br467	Br	0.213440	0.141907	0.193343
Br468	Br	0.546774	0.475240	0.526677
Br469	Br	-0.284302	-0.442605	-0.330675
Br470	Br	0.049032	-0.109272	0.002658
Br471	Br	0.382365	0.224061	0.335991
Br472	Br	-0.312889	-0.867719	-0.816626
Br473	Br	0.020444	-0.534386	-0.483292
Br474	Br	0.353777	-0.201053	-0.149959
H475	H	-0.297299	-0.849574	-0.702754
H476	H	0.036034	-0.516241	-0.369421
H477	H	0.369367	-0.182907	-0.036088
H478	H	-0.268591	-0.816163	-0.451578
H479	H	0.064742	-0.482830	-0.118244
H480	H	0.398075	-0.149496	0.215089
H481	H	-0.688463	-0.661381	-0.346038
H482	H	-0.355129	-0.328048	-0.012704
H483	H	-0.021796	0.005286	0.320629
H484	H	-0.603354	-0.661360	-0.346032
H485	H	-0.270021	-0.328026	-0.012699
H486	H	0.063313	0.005307	0.320635
Br487	Br	-0.119936	-0.643387	-0.816591
Br488	Br	0.213398	-0.310053	-0.483257
Br489	Br	0.546731	0.023280	-0.149924
H490	H	-0.164282	-0.457401	-0.191433
H491	H	0.169052	-0.124068	0.141900
H492	H	0.502385	0.209265	0.475233
H493	H	-0.164320	-0.694933	-0.451560
H494	H	0.169013	-0.361600	-0.118227
H495	H	0.502346	-0.028266	0.215107
H496	H	-0.472648	-0.694751	-0.312605
H497	H	-0.139315	-0.361418	0.020728
H498	H	0.194019	-0.028084	0.354062
H499	H	-0.387526	-0.694717	-0.312587
H500	H	-0.054192	-0.361383	0.020746
H501	H	0.279141	-0.028050	0.354080
Br502	Br	-0.731385	-0.643235	-0.364169
Br503	Br	-0.398052	-0.309902	-0.030836
Br504	Br	-0.064719	0.023432	0.302498
H505	H	-0.744043	-0.849711	-0.158032
H506	H	-0.410710	-0.516377	0.175301
H507	H	-0.077376	-0.183044	0.508635
