data_functionalizedCrystal
_audit_creation_method	'MofGen! by Chris Wilmer'
_symmetry_space_group_name_H-M	'P1'
_symmetry_Int_Tables_number	1
_symmetry_cell_setting	triclinic
loop_
_symmetry_equiv_pos_as_xyz
  x,y,z
_cell_length_a	15.698487
_cell_length_b	21.606444
_cell_length_c	21.606444
_cell_angle_alpha	59.991153
_cell_angle_beta	90.001483
_cell_angle_gamma	60.003726
loop_
_atom_site_label
_atom_site_type_symbol
_atom_site_fract_x
_atom_site_fract_y
_atom_site_fract_z
Zr1	Zr	0.820610	0.677528	-0.081345
O2	O	0.684589	0.806660	-0.180192
O3	O	0.862307	0.548397	-0.051028
O4	O	0.862299	0.677533	-0.180173
O5	O	0.684604	0.677520	0.050806
O6	O	1.002480	0.677535	-0.180174
O7	O	0.684597	0.677524	-0.051048
O8	O	1.002494	0.446535	0.050841
O9	O	0.684590	0.908520	-0.180209
O10	O	0.984706	0.601512	-0.038118
O11	O	0.880096	0.601506	0.037896
O12	O	0.880087	0.753547	-0.114155
O13	O	0.775476	0.753542	-0.038141
Zr14	Zr	1.044194	0.677525	0.081098
Zr15	Zr	1.044183	0.677532	-0.081348
Zr16	Zr	0.820621	0.677521	0.081100
Zr17	Zr	0.820611	0.839983	-0.081372
Zr18	Zr	1.044193	0.515069	0.081125
O19	O	1.002497	0.806655	0.050781
O20	O	1.002481	0.806665	-0.180196
O21	O	0.684605	0.806650	0.050784
O22	O	1.180215	0.548392	0.179945
O23	O	1.180198	0.548402	-0.051032
O24	O	0.862323	0.548387	0.179948
O25	O	1.180199	0.677533	-0.051054
O26	O	1.002505	0.677520	0.179925
O27	O	0.862324	0.677517	0.179927
O28	O	1.180206	0.677528	0.050801
O29	O	0.862301	0.908523	-0.180211
O30	O	1.002503	0.446529	0.179964
O31	O	1.180214	0.446532	0.179962
O32	O	1.180205	0.446538	0.050839
O33	O	0.684599	0.908514	-0.051087
O34	O	0.862310	0.908517	-0.051089
O35	O	0.984717	0.601505	0.113907
O36	O	1.089327	0.601510	0.037893
O37	O	0.984708	0.753546	-0.038143
O38	O	0.880097	0.753541	0.037870
C39	C	0.932400	0.474319	-0.000090
C40	C	0.932400	0.405353	-0.000078
C41	C	0.855166	0.429089	-0.056206
C42	C	0.855169	0.364300	-0.056221
C43	C	0.932402	0.275775	-0.000106
C44	C	1.009643	0.252039	0.056024
C45	C	1.009644	0.316828	0.056036
C46	C	1.009643	-0.009247	0.055977
C47	C	1.009634	-0.074036	0.055962
C48	C	0.855168	0.038224	-0.056281
C49	C	0.855168	0.103013	-0.056269
C50	C	0.932412	0.079272	-0.000141
C51	C	0.932410	0.149525	-0.000126
C52	C	0.932401	0.205523	-0.000118
C53	C	0.652747	0.677521	-0.000121
C54	C	0.557834	0.677520	-0.000120
C55	C	0.384049	0.677535	-0.000127
C56	C	0.480753	0.677530	-0.000124
C57	C	1.212057	0.677531	-0.000127
C58	C	1.306970	0.677533	-0.000128
C59	C	0.932388	0.677535	-0.203318
C60	C	0.932383	0.677538	-0.272281
C61	C	0.932403	0.880733	-0.000158
C62	C	0.932404	0.949699	-0.000169
C63	C	0.877772	0.756898	-0.344370
C64	C	0.877781	0.756896	-0.409165
C65	C	0.932395	0.677532	-0.401869
C66	C	0.987013	0.598165	-0.329772
C67	C	0.987010	0.598169	-0.264979
C68	C	0.987030	0.598150	-0.591075
C69	C	0.987026	0.598153	-0.655876
C70	C	0.877801	0.756877	-0.735261
C71	C	0.877797	0.756881	-0.670468
C72	C	0.932419	0.677515	-0.598377
C73	C	0.932410	0.677518	-0.528120
C74	C	0.932399	0.677527	-0.472125
C75	C	0.932416	0.677517	0.203071
C76	C	0.932421	0.677514	0.272033
C77	C	1.212056	0.474324	-0.000093
C78	C	1.306968	0.405359	-0.000082
C79	C	0.932415	0.474311	0.203105
C80	C	0.932419	0.405341	0.272079
C81	C	1.212070	0.474316	0.203102
C82	C	1.306987	0.405348	0.272075
C83	C	0.652734	0.880737	-0.203349
C84	C	0.557817	0.949704	-0.272322
C85	C	0.652748	0.880728	-0.000155
C86	C	0.557836	0.949693	-0.000165
C87	C	0.932389	0.880741	-0.203352
C88	C	0.932385	0.949711	-0.272326
C89	C	1.296928	0.372974	-0.039761
C90	C	1.386100	0.308183	-0.039767
C91	C	1.485309	0.275775	-0.000088
C92	C	1.495347	0.308167	0.039592
C93	C	1.406176	0.372961	0.039592
C94	C	0.987032	0.372952	0.344154
C95	C	0.987032	0.308157	0.408968
C96	C	0.932424	0.275748	0.401706
C97	C	0.877805	0.308144	0.329624
C98	C	0.877799	0.372942	0.264811
C99	C	1.406175	0.372962	0.264787
C100	C	1.495368	0.308169	0.329588
C101	C	1.485370	0.275757	0.401676
C102	C	1.386171	0.308149	0.408963
C103	C	1.296980	0.372946	0.344162
C104	C	0.458628	0.982098	-0.265034
C105	C	0.369435	1.046911	-0.329835
C106	C	0.379434	1.079326	-0.401924
C107	C	0.478633	1.046930	-0.409210
C108	C	0.567823	0.982122	-0.344410
C109	C	0.567876	0.982085	0.039507
C110	C	0.478704	1.046894	0.039495
C111	C	0.379495	1.079305	-0.000186
C112	C	0.369457	1.046909	-0.039863
C113	C	0.458627	0.982106	-0.039855
C114	C	0.987003	0.982099	-0.265040
C115	C	0.987019	1.046895	-0.329842
C116	C	0.932411	1.079305	-0.401930
C117	C	0.877791	1.046911	-0.409215
C118	C	0.877782	0.982112	-0.344413
H119	H	0.792275	0.057549	-0.101985
H120	H	0.833330	1.073309	-0.467917
H121	H	1.072531	-0.146120	0.101660
Br122	Br	1.114467	-0.041475	0.132155
H123	H	1.031500	0.399332	0.350081
H124	H	1.072532	0.179957	0.101711
H125	H	1.216155	0.399360	-0.072082
H126	H	0.288672	1.073277	-0.323888
H127	H	1.031479	0.533545	-0.206281
H128	H	0.833300	0.955749	-0.350356
Br129	Br	1.419820	0.416901	0.093453
Br130	Br	0.492184	1.090929	-0.507051
H131	H	0.648585	0.955748	-0.350353
H132	H	1.031513	0.281788	0.467654
H133	H	0.450439	0.955734	-0.072159
Br134	Br	0.750338	0.549227	-0.132362
H135	H	1.031472	0.955721	-0.206348
H136	H	0.306800	1.132097	-0.454682
H137	H	0.833291	0.821526	-0.350320
Br138	Br	0.750345	0.396518	-0.132396
H139	H	1.557909	0.223014	-0.000094
H140	H	1.072535	0.297496	0.101741
H141	H	0.648649	0.955702	0.071825
H142	H	1.377907	0.281817	-0.072079
H143	H	1.378046	0.281750	0.467666
H144	H	0.833345	0.281747	0.323722
Br145	Br	0.803656	0.864592	-0.680374
H146	H	0.833313	0.821519	-0.467861
H147	H	0.306895	1.132071	-0.000187
H148	H	0.792274	0.175092	-0.101961
Br149	Br	0.803670	0.864591	-0.833103
Br150	Br	0.932442	0.187806	0.489676
H151	H	1.031503	0.533522	-0.649927
H152	H	1.031507	0.533526	-0.532384
Br153	Br	1.061139	0.490456	-0.319869
Br154	Br	1.629997	0.264172	0.093441
H155	H	0.833330	0.399305	0.206127
H156	H	1.414336	0.399342	0.206094
Br157	Br	1.629982	0.264220	0.319681
H158	H	1.031496	1.073264	-0.323896
H159	H	1.558004	0.222996	0.454435
Br160	Br	0.234807	1.090902	-0.093710
H161	H	1.216220	0.399306	0.350107
Br162	Br	0.445030	0.938118	-0.167208
H163	H	0.486897	1.073259	0.071807
H164	H	0.932427	1.132069	-0.454689
