data_functionalizedCrystal
_audit_creation_method	'MofGen! by Chris Wilmer'
_symmetry_space_group_name_H-M	'P1'
_symmetry_Int_Tables_number	1
_symmetry_cell_setting	triclinic
loop_
_symmetry_equiv_pos_as_xyz
  x,y,z
_cell_length_a	8.559649
_cell_length_b	22.010155
_cell_length_c	8.559649
_cell_angle_alpha	89.994743
_cell_angle_beta	69.778664
_cell_angle_gamma	90.007067
loop_
_atom_site_label
_atom_site_type_symbol
_atom_site_fract_x
_atom_site_fract_y
_atom_site_fract_z
O1	O	2.126896	0.050516	-0.055059
O2	O	1.651411	0.050518	0.028722
O3	O	1.931044	0.050516	-0.250911
O4	O	1.847263	0.050518	0.224574
O5	O	1.930994	-0.050534	-0.250868
O6	O	1.651361	-0.050532	0.028765
O7	O	2.126846	-0.050535	-0.055016
Cu8	Cu	1.889099	-0.059760	-0.013122
Cu9	Cu	1.889158	0.059743	-0.013172
O10	O	1.847213	-0.050533	0.224617
C11	C	1.591077	-0.000007	0.035093
C12	C	1.411378	-0.000006	0.053992
N13	N	1.889070	-0.143813	-0.013088
C14	C	2.012984	-0.563593	-0.136979
C15	C	2.012993	-0.627201	-0.136991
O16	O	2.118282	-0.660093	-0.242298
N17	N	1.889161	-0.659020	-0.013206
C18	C	1.765303	-0.627228	0.110589
O19	O	1.659974	-0.660134	0.215876
C20	C	1.765289	-0.563622	0.110593
C21	C	1.889138	-0.531806	-0.013190
C22	C	2.136823	-0.531777	-0.260753
C23	C	2.136815	-0.468174	-0.260739
C24	C	2.012969	-0.436387	-0.136950
C25	C	1.889131	-0.468203	-0.013176
C26	C	1.641425	-0.531831	0.234380
C27	C	1.641421	-0.468220	0.234372
C28	C	1.765270	-0.436405	0.110589
C29	C	1.765277	-0.372812	0.110627
N30	N	1.889109	-0.340993	-0.013158
C31	C	2.012955	-0.372780	-0.136947
C32	C	1.765341	-0.760806	0.110570
C33	C	1.765360	-0.824411	0.110575
C34	C	2.013049	-0.824379	-0.137008
C35	C	2.013035	-0.760773	-0.137004
C36	C	1.889172	-0.728987	-0.013215
C37	C	2.012930	-0.239209	-0.136906
C38	C	2.012916	-0.175600	-0.136877
C39	C	1.765223	-0.175637	0.110699
C40	C	1.765242	-0.239241	0.110676
C41	C	1.889103	-0.271025	-0.013141
O42	O	1.660038	-0.339880	0.215877
O43	O	2.118253	-0.339867	-0.242228
C44	C	2.187180	-0.000009	-0.061387
C45	C	2.366879	-0.000006	-0.080286
N46	N	1.889202	0.143796	-0.013220
C47	C	1.937369	-0.000008	-0.311198
C48	C	1.956268	-0.000005	-0.490898
C49	C	1.840889	-0.000007	0.284904
C50	C	1.821990	-0.000007	0.464604
H51	H	1.311990	-0.000002	0.183420
H52	H	1.466258	-0.000003	-0.209705
H53	H	2.113889	-0.850272	-0.237805
H54	H	2.113775	-0.149697	-0.237677
H55	H	1.692570	-0.000008	-0.436018
O56	O	1.644739	-0.270126	0.230781
C57	C	1.487410	-0.254573	0.224036
H58	H	1.502577	-0.237073	0.094251
H59	H	1.428720	-0.217665	0.319792
C60	C	1.355714	-0.332578	0.422040
C61	C	1.374342	-0.311088	0.262631
H62	H	1.285965	-0.367437	0.445854
H63	H	1.461709	-0.343055	0.426590
H64	H	1.306812	-0.301815	0.501818
H65	H	1.423262	-0.341848	0.182855
H66	H	1.268353	-0.300618	0.258069
H67	H	2.113788	-0.265080	-0.237731
O68	O	2.257305	-0.562555	-0.381089
C69	C	2.366560	-0.520821	-0.490341
H70	H	2.360183	-0.475486	-0.424027
H71	H	2.328695	-0.514055	-0.604430
C72	C	2.553503	-0.601298	-0.626594
C73	C	2.545681	-0.545617	-0.545141
H74	H	2.663992	-0.616593	-0.660404
H75	H	2.479893	-0.629415	-0.552993
H76	H	2.521940	-0.595651	-0.721658
H77	H	2.577223	-0.551266	-0.450069
H78	H	2.619300	-0.517501	-0.618727
O79	O	1.644899	-0.855219	0.230908
C80	C	1.535624	-0.813516	0.340185
H81	H	1.541965	-0.768172	0.273892
H82	H	1.573498	-0.806754	0.454269
C83	C	1.348740	-0.894038	0.476419
C84	C	1.356519	-0.838348	0.394991
H85	H	1.238260	-0.909356	0.510233
H86	H	1.422363	-0.922135	0.402801
H87	H	1.380311	-0.888395	0.571478
H88	H	1.324969	-0.843992	0.299923
H89	H	1.282886	-0.810252	0.468595
H90	H	2.237660	-0.442273	-0.361538
H91	H	2.113883	-0.734872	-0.237800
O92	O	1.645135	-0.144685	0.230977
C93	C	1.719701	-0.107901	0.320486
H94	H	1.854568	-0.098366	0.240384
H95	H	1.715979	-0.132414	0.439054
C96	C	1.458350	-0.059195	0.464681
C97	C	1.623993	-0.047481	0.366293
H98	H	1.399310	-0.021927	0.492944
H99	H	1.408111	-0.083979	0.404382
H100	H	1.455272	-0.079625	0.563476
H101	H	1.627070	-0.027059	0.267491
H102	H	1.674230	-0.022692	0.426576
H103	H	2.085696	-0.000010	-0.590286
H104	H	1.664479	-0.734929	0.211387
H105	H	1.540575	-0.557727	0.335174
H106	H	1.540552	-0.442343	0.335176
