data_functionalizedCrystal
_audit_creation_method	'MofGen! by Chris Wilmer'
_symmetry_space_group_name_H-M	'P1'
_symmetry_Int_Tables_number	1
_symmetry_cell_setting	triclinic
loop_
_symmetry_equiv_pos_as_xyz
  x,y,z
_cell_length_a	16.704486
_cell_length_b	19.851628
_cell_length_c	19.851628
_cell_angle_alpha	90.001453
_cell_angle_beta	57.652547
_cell_angle_gamma	57.656541
loop_
_atom_site_label
_atom_site_type_symbol
_atom_site_fract_x
_atom_site_fract_y
_atom_site_fract_z
Zr1	Zr	0.947477	0.591096	-0.146225
O2	O	1.128107	0.472494	-0.264842
O3	O	0.766867	0.635105	-0.102210
O4	O	0.947485	0.624070	-0.253787
O5	O	0.947476	0.483531	-0.002403
O6	O	0.947468	0.734933	-0.253773
O7	O	0.947489	0.483529	-0.113264
O8	O	0.624375	0.754672	0.017372
O9	O	1.270569	0.463792	-0.273547
O10	O	0.841134	0.727366	-0.092673
O11	O	0.841137	0.644632	-0.009949
O12	O	1.053792	0.631640	-0.188412
O13	O	1.053794	0.548906	-0.105689
Zr14	Zr	0.947429	0.767913	0.030609
Zr15	Zr	0.947450	0.767910	-0.146202
Zr16	Zr	0.947456	0.591099	0.030586
Zr17	Zr	1.174687	0.577217	-0.160110
Zr18	Zr	0.720220	0.781793	0.044493
O19	O	1.128040	0.723904	-0.013407
O20	O	1.128069	0.723900	-0.264809
O21	O	1.128078	0.472498	-0.013440
O22	O	0.766799	0.886515	0.149225
O23	O	0.766829	0.886511	-0.102177
O24	O	0.766837	0.635109	0.149192
O25	O	0.947430	0.875478	-0.113213
O26	O	0.947422	0.734939	0.138171
O27	O	0.947438	0.624076	0.138156
O28	O	0.947417	0.875480	-0.002352
O29	O	1.270548	0.604335	-0.273529
O30	O	0.624359	0.754674	0.157913
O31	O	0.624338	0.895217	0.157931
O32	O	0.624354	0.895215	0.017390
O33	O	1.270552	0.463794	-0.133006
O34	O	1.270531	0.604337	-0.132988
O35	O	0.841115	0.727369	0.072796
O36	O	0.841112	0.810103	-0.009928
O37	O	1.053769	0.714377	-0.105667
O38	O	1.053772	0.631643	-0.022943
C39	C	0.663249	0.696866	-0.040441
C40	C	0.566792	0.702759	-0.034546
C41	C	0.542560	0.582082	-0.155254
C42	C	0.451936	0.587615	-0.149720
C43	C	0.294918	0.719360	-0.017950
C44	C	0.385542	0.713827	-0.023483
C45	C	0.509363	0.645185	-0.092137
C46	C	0.599989	0.639649	-0.097667
C47	C	0.442970	0.771397	0.034100
C48	C	0.352346	0.776930	0.039634
C49	C	0.947487	0.458338	-0.057837
C50	C	0.947498	0.383276	-0.057847
C51	C	1.063420	0.149739	-0.110019
C52	C	1.005467	0.130917	-0.139167
C53	C	0.947466	0.245871	-0.057821
C54	C	1.005427	0.130952	-0.028689
C55	C	0.947444	0.113141	-0.057798
C56	C	0.889513	0.228039	-0.087015
C57	C	0.889489	0.228069	0.023506
C58	C	0.831451	0.209306	-0.005618
C59	C	0.947482	0.322332	-0.057837
C60	C	0.947419	0.036685	-0.057783
C61	C	1.231658	0.662143	-0.075176
C62	C	1.328114	0.656251	-0.081070
C63	C	0.947479	0.679501	-0.278972
C64	C	0.947488	0.679500	-0.354032
C65	C	0.947420	0.900671	-0.057779
C66	C	0.947409	0.975733	-0.057769
C67	C	1.063412	0.627307	-0.632472
C68	C	1.005480	0.598143	-0.561476
C69	C	0.947440	0.679506	-0.624175
C70	C	1.005432	0.708625	-0.561461
C71	C	0.947470	0.679501	-0.491448
C72	C	0.889508	0.650296	-0.554166
C73	C	0.889476	0.760821	-0.554163
C74	C	0.831460	0.731681	-0.483148
C75	C	0.947426	0.679506	-0.700637
C76	C	0.947475	0.679500	-0.414983
C77	C	0.947427	0.679508	0.163355
C78	C	0.947418	0.679509	0.238416
C79	C	0.663215	0.918033	-0.040412
C80	C	0.566747	0.998987	-0.034508
C81	C	0.663222	0.696870	0.180723
C82	C	0.566757	0.702763	0.261678
C83	C	0.663189	0.918036	0.180751
C84	C	0.566712	0.998992	0.261716
C85	C	1.231717	0.440973	-0.296368
C86	C	1.328194	0.360017	-0.377333
C87	C	1.231691	0.440976	-0.075205
C88	C	1.328159	0.360022	-0.081109
C89	C	1.231684	0.662139	-0.296339
C90	C	1.328149	0.656246	-0.377294
C91	C	0.521457	0.993816	-0.074935
C92	C	0.430828	1.069874	-0.069404
C93	C	0.385484	1.151102	-0.023441
C94	C	0.430784	1.156270	0.016986
C95	C	0.521418	1.080213	0.011450
C96	C	0.521444	0.748719	0.342895
C97	C	0.430818	0.754252	0.418967
C98	C	0.385499	0.713835	0.413820
C99	C	0.430821	0.667874	0.332594
C100	C	0.521452	0.662336	0.256524
C101	C	0.521405	1.080203	0.256558
C102	C	0.430767	1.156275	0.332625
C103	C	0.385433	1.151135	0.413851
C104	C	0.430750	1.069914	0.419008
C105	C	0.521392	0.993844	0.342941
C106	C	1.373513	0.278805	-0.372175
C107	C	1.464179	0.202731	-0.448244
C108	C	1.509518	0.207872	-0.529470
C109	C	1.464195	0.289092	-0.534627
C110	C	1.373537	0.365164	-0.458559
C111	C	1.373459	0.365192	-0.040690
C112	C	1.464114	0.289133	-0.046241
C113	C	1.509460	0.207905	-0.092207
C114	C	1.464156	0.202737	-0.132631
C115	C	1.373509	0.278794	-0.127084
C116	C	1.373439	0.696673	-0.372119
C117	C	1.464067	0.691152	-0.448178
C118	C	1.509409	0.645199	-0.529411
C119	C	1.464110	0.604771	-0.534583
C120	C	1.373478	0.610297	-0.458525
H121	H	0.251522	0.832818	0.095527
H122	H	0.393956	1.065649	-0.102326
F123	F	1.605871	0.639323	-0.610352
H124	H	0.558302	1.084405	0.190427
F125	F	0.407640	0.838558	0.101280
F126	F	0.569656	0.791744	0.348392
F127	F	1.606004	0.126901	-0.610423
F128	F	0.289022	1.232042	-0.017556
F129	F	1.325308	0.451594	-0.464061
H130	H	1.336536	0.734093	-0.305983
F131	F	0.569604	1.085730	0.054487
H132	H	0.393825	1.065742	0.485152
H133	H	1.054451	0.089156	-0.004060
H134	H	1.501122	0.293267	-0.600770
F135	F	0.703216	0.789369	-0.399805
F136	F	0.382596	0.803174	0.505404
F137	F	1.325274	0.273315	-0.285735
F138	F	1.512395	0.116300	-0.442738
H139	H	1.336545	0.431325	-0.003254
F140	F	1.512309	0.294652	-0.003210
F141	F	1.605934	0.126964	-0.098101
F142	F	1.325301	0.273279	-0.170102
F143	F	1.191569	0.117797	-0.167782
F144	F	1.191550	0.569558	-0.715930
H145	H	0.194093	0.775252	0.037936
H146	H	1.501091	0.136590	-0.170055
F147	F	1.512266	0.734180	-0.442655
F148	F	0.289039	0.719738	0.494790
F149	F	0.382576	0.624863	0.327131
F150	F	0.825464	0.850681	-0.551159
H151	H	0.311626	1.213083	0.475783
F152	F	1.069556	0.508259	-0.564533
H153	H	0.393853	1.222417	0.054408
H154	H	0.840549	0.625578	-0.551763
H155	H	0.558334	0.624917	0.190397
F156	F	0.382550	1.242707	0.327119
F157	F	0.825481	0.282708	0.113368
H158	H	0.558270	0.927721	0.347154
H159	H	1.501042	0.567355	-0.600733
F160	F	0.825534	0.282511	-0.119330
F161	F	0.731767	0.566594	-0.170731
F162	F	0.674340	0.509024	-0.228314
F163	F	1.069528	0.076274	-0.229049
H164	H	1.336613	0.577372	-0.462751
H165	H	0.733326	0.233907	0.038528
F166	F	1.069513	0.740820	-0.564532
F167	F	0.487274	0.520453	-0.216900
F168	F	0.569701	0.907375	-0.123859
