data_functionalizedCrystal
_audit_creation_method	'MofGen! by Chris Wilmer'
_symmetry_space_group_name_H-M	'P1'
_symmetry_Int_Tables_number	1
_symmetry_cell_setting	triclinic
loop_
_symmetry_equiv_pos_as_xyz
  x,y,z
_cell_length_a	10.685976
_cell_length_b	10.686285
_cell_length_c	10.685910
_cell_angle_alpha	99.056612
_cell_angle_beta	90.327767
_cell_angle_gamma	81.631153
loop_
_atom_site_label
_atom_site_type_symbol
_atom_site_fract_x
_atom_site_fract_y
_atom_site_fract_z
Zn1	Zn	2.015612	-0.617612	0.511259
Zn2	Zn	2.515612	-0.117612	1.011259
Zn3	Zn	2.015578	-0.846081	0.282768
Zn4	Zn	2.515578	-0.346081	0.782768
Zn5	Zn	1.789628	-0.615128	0.317834
Zn6	Zn	2.289628	-0.115128	0.817834
Zn7	Zn	1.819646	-0.813553	0.511268
Zn8	Zn	2.319646	-0.313553	1.011268
O9	O	1.910116	-0.723093	0.405782
O10	O	2.410116	-0.223093	0.905782
O11	O	2.192181	-0.662572	0.466271
O12	O	2.692181	-0.162572	0.966271
O13	O	1.973029	-0.828018	0.110843
O14	O	2.473029	-0.328018	0.610843
O15	O	1.807057	-0.436801	0.358163
O16	O	2.307057	0.063199	0.858163
O17	O	2.192156	-0.830427	0.298400
O18	O	2.692156	-0.330427	0.798400
O19	O	1.973087	-0.438626	0.500273
O20	O	2.473087	0.061374	1.000273
O21	O	1.807024	-0.658338	0.136605
O22	O	2.307024	-0.158338	0.636605
O23	O	1.617037	-0.626796	0.358172
O24	O	2.117037	-0.126796	0.858172
O25	O	1.858219	-0.774988	0.687844
O26	O	2.358219	-0.274988	1.187844
O27	O	1.639091	-0.772578	0.500287
O28	O	2.139091	-0.272578	1.000287
O29	O	2.002194	-0.631031	0.687838
O30	O	2.502194	-0.131031	1.187838
O31	O	2.002136	-1.020423	0.298408
O32	O	2.502136	-0.520423	0.798408
O33	O	1.858185	-0.996524	0.466286
O34	O	2.358185	-0.496524	0.966286
C35	C	1.582281	-0.695889	0.433036
C36	C	2.082281	-0.195889	0.933036
C37	C	1.442036	-0.684279	0.444722
C38	C	1.942036	-0.184279	0.944722
C39	C	1.933450	-1.054798	0.378567
C40	C	2.433450	-0.554798	0.878567
C41	C	1.943551	-1.196709	0.366957
C42	C	2.443551	-0.696709	0.866957
C43	C	2.239232	-0.750405	0.378423
C44	C	2.739232	-0.250405	0.878423
C45	C	2.379482	-0.762044	0.366764
C46	C	2.879482	-0.262044	0.866764
C47	C	1.933559	-0.699658	0.734906
C48	C	2.433559	-0.199658	1.234906
C49	C	1.943548	-0.689671	0.875158
C50	C	2.443548	-0.189671	1.375158
C51	C	1.886728	-0.390094	0.433128
C52	C	2.386728	0.109906	0.933128
C53	C	1.876761	-0.248190	0.444782
C54	C	2.376761	0.251810	0.944782
C55	C	1.886757	-0.746465	1.077938
C56	C	2.386757	-0.246465	1.577938
C57	C	1.876764	-0.756448	0.937686
C58	C	2.376764	-0.256448	1.437686
H59	H	1.388300	-0.608822	0.520414
H60	H	1.888300	-0.108822	1.020414
C61	C	1.452067	-0.864001	0.264512
C62	C	1.952067	-0.364001	0.764512
H63	H	1.394018	-0.911235	0.217180
H64	H	1.894018	-0.411235	0.717180
H65	H	1.496114	-0.823201	0.209389
H66	H	1.996114	-0.323201	0.709389
H67	H	1.510839	-0.920486	0.303897
H68	H	2.010839	-0.420486	0.803897
H69	H	1.811945	-0.821268	0.883914
H70	H	2.311945	-0.321268	1.383914
H71	H	2.008455	-1.261208	0.291432
H72	H	2.508455	-0.761208	0.791432
H73	H	1.811852	-1.183700	0.520295
H74	H	2.311852	-0.683700	1.020295
C75	C	2.031122	-0.602122	0.947781
C76	C	2.531122	-0.102122	1.447781
H77	H	2.026571	-0.606666	1.035681
H78	H	2.526571	-0.106666	1.535681
H79	H	2.115696	-0.629358	0.917657
H80	H	2.615696	-0.129358	1.417657
H81	H	2.005108	-0.516317	0.934829
H82	H	2.505108	-0.016317	1.434829
