data_functionalizedCrystal
_audit_creation_method	'MofGen! by Chris Wilmer'
_symmetry_space_group_name_H-M	'P1'
_symmetry_Int_Tables_number	1
_symmetry_cell_setting	triclinic
loop_
_symmetry_equiv_pos_as_xyz
  x,y,z
_cell_length_a	12.759401
_cell_length_b	10.686285
_cell_length_c	12.759393
_cell_angle_alpha	94.398003
_cell_angle_beta	90.018496
_cell_angle_gamma	85.631983
loop_
_atom_site_label
_atom_site_type_symbol
_atom_site_fract_x
_atom_site_fract_y
_atom_site_fract_z
Zn1	Zn	1.638392	-0.502271	0.561964
Zn2	Zn	1.651790	-0.713314	0.372831
Zn3	Zn	1.462698	-0.502337	0.386299
Zn4	Zn	1.476180	-0.713217	0.548479
O5	O	1.557265	-0.607785	0.467393
O6	O	1.787191	-0.530279	0.536882
O7	O	1.626671	-0.685396	0.227592
O8	O	1.474756	-0.325751	0.420881
O9	O	1.797034	-0.685332	0.397927
O10	O	1.603837	-0.325703	0.549942
O11	O	1.487747	-0.530392	0.237487
O12	O	1.317465	-0.530298	0.407805
O13	O	1.497733	-0.685167	0.697293
O14	O	1.327370	-0.685231	0.526958
O15	O	1.616910	-0.530185	0.707200
O16	O	1.639744	-0.889878	0.384851
O17	O	1.510724	-0.889807	0.513898
C18	C	1.284296	-0.607762	0.467380
C19	C	1.167521	-0.607782	0.467398
C20	C	1.117852	-0.688585	0.529321
C21	C	1.008129	-0.688601	0.529332
C22	C	0.997753	-0.527008	0.405486
C23	C	1.107474	-0.526986	0.405482
C24	C	1.123842	-0.781883	0.600819
C25	C	1.014119	-0.781899	0.600829
C26	C	1.578179	-0.935627	0.446473
C27	C	1.587222	-1.075879	0.437558
C28	C	1.831300	-0.607809	0.467406
C29	C	1.948077	-0.607819	0.467412
C30	C	1.557331	-0.607658	0.741435
C31	C	1.557358	-0.607603	0.858215
C32	C	1.536298	-0.278662	0.488418
C33	C	1.527363	-0.138410	0.497378
C34	C	1.557255	-0.607821	0.194423
C35	C	1.557407	-0.607519	0.077666
C36	C	1.619422	-0.526897	0.918238
C37	C	1.619445	-0.526851	1.027965
C38	C	1.495336	-0.688230	1.017635
C39	C	1.495309	-0.688268	0.907911
C40	C	1.691079	-0.433730	0.924202
C41	C	1.691101	-0.433684	1.033929
H42	H	0.990575	-0.879603	0.572669
H43	H	1.469198	-1.084650	0.555414
N44	N	1.664261	-1.147086	0.360660
H45	H	1.660012	-1.240545	0.364965
H46	H	1.737820	-1.124032	0.378522
H47	H	0.948850	-0.461226	0.355078
H48	H	1.663058	-0.336009	0.900676
N49	N	1.428326	-0.775266	0.843172
H50	H	1.389016	-0.826349	0.891308
H51	H	1.474766	-0.833700	0.793896
N52	N	1.176770	-0.904786	0.554213
H53	H	1.255539	-0.900285	0.555913
H54	H	1.153261	-0.920676	0.479097
N55	N	1.161131	-0.747368	0.710846
H56	H	1.098630	-0.731972	0.759949
H57	H	1.200097	-0.668538	0.711228
H58	H	1.147909	-0.461181	0.355066
N59	N	1.796320	-0.480436	0.876127
H60	H	1.847202	-0.502927	0.933607
H61	H	1.824406	-0.412318	0.835824
N62	N	1.428399	-0.775212	1.071238
H63	H	1.437826	-0.762935	1.149857
H64	H	1.450473	-0.865346	1.046305
H65	H	1.774146	-0.459858	1.062039
N66	N	0.966156	-0.735606	0.706227
H67	H	0.994194	-0.791887	0.761546
H68	H	0.887208	-0.737251	0.702322
N69	N	1.644675	-0.310700	1.086883
H70	H	1.622229	-0.251307	1.031764
H71	H	1.699108	-0.271930	1.133945
