data_functionalizedCrystal
_audit_creation_method	'MofGen! by Chris Wilmer'
_symmetry_space_group_name_H-M	'P1'
_symmetry_Int_Tables_number	1
_symmetry_cell_setting	triclinic
loop_
_symmetry_equiv_pos_as_xyz
  x,y,z
_cell_length_a	21.295419
_cell_length_b	21.295417
_cell_length_c	16.625539
_cell_angle_alpha	89.966627
_cell_angle_beta	89.979418
_cell_angle_gamma	90.045308
loop_
_atom_site_label
_atom_site_type_symbol
_atom_site_fract_x
_atom_site_fract_y
_atom_site_fract_z
Zn1	Zn	0.962331	-0.250359	-0.455881
Zn2	Zn	1.295664	0.082974	-0.122548
Zn3	Zn	1.628998	0.416307	0.210785
Zn4	Zn	0.962241	-0.355633	-0.321037
Zn5	Zn	1.295574	-0.022300	0.012297
Zn6	Zn	1.628907	0.311034	0.345630
Zn7	Zn	0.857061	-0.250409	-0.321062
Zn8	Zn	1.190395	0.082925	0.012271
Zn9	Zn	1.523728	0.416258	0.345605
Zn10	Zn	0.857024	-0.355622	-0.455827
Zn11	Zn	1.190357	-0.022289	-0.122493
Zn12	Zn	1.523690	0.311045	0.210840
O13	O	0.909664	-0.303006	-0.388452
O14	O	1.242998	0.030328	-0.055118
O15	O	1.576331	0.363661	0.278215
O16	O	1.050408	-0.264308	-0.438006
O17	O	1.383742	0.069025	-0.104673
O18	O	1.717075	0.402358	0.228660
O19	O	0.948266	-0.341700	-0.208208
O20	O	1.281600	-0.008367	0.125126
O21	O	1.614933	0.324967	0.458459
O22	O	0.871079	-0.162313	-0.338979
O23	O	1.204413	0.171021	-0.005646
O24	O	1.537746	0.504354	0.327687
O25	O	1.050342	-0.341652	-0.338937
O26	O	1.383675	-0.008319	-0.005603
O27	O	1.717009	0.325015	0.327730
O28	O	0.948420	-0.162277	-0.438031
O29	O	1.281754	0.171057	-0.104697
O30	O	1.615087	0.504390	0.228636
O31	O	0.870992	-0.264392	-0.208226
O32	O	1.204325	0.068941	0.125107
O33	O	1.537658	0.402275	0.458441
O34	O	0.768967	-0.264381	-0.338926
O35	O	1.102300	0.068952	-0.005593
O36	O	1.435634	0.402285	0.327740
O37	O	0.871015	-0.341634	-0.568666
O38	O	1.204348	-0.008300	-0.235333
O39	O	1.537681	0.325033	0.098000
O40	O	0.768939	-0.341681	-0.437937
O41	O	1.102273	-0.008348	-0.104604
O42	O	1.435606	0.324985	0.228729
O43	O	0.948384	-0.264298	-0.568707
O44	O	1.281717	0.069036	-0.235373
O45	O	1.615050	0.402369	0.097960
O46	O	0.948230	-0.443721	-0.338883
O47	O	1.281563	-0.110388	-0.005550
O48	O	1.614896	0.222946	0.327783
O49	O	0.870927	-0.443713	-0.437913
O50	O	1.204261	-0.110380	-0.104580
O51	O	1.537594	0.222954	0.228754
C52	C	0.746113	-0.303036	-0.388429
C53	C	1.079446	0.030297	-0.055096
C54	C	1.412779	0.363631	0.278238
C55	C	0.676144	-0.303064	-0.388438
C56	C	1.009478	0.030269	-0.055105
C57	C	1.342811	0.363603	0.278228
C58	C	0.643335	-0.262857	-0.440104
C59	C	0.976668	0.070476	-0.106770
C60	C	1.310001	0.403810	0.226563
C61	C	0.577592	-0.262840	-0.440107
C62	C	0.910926	0.070493	-0.106774
C63	C	1.244259	0.403827	0.226560
C64	C	0.544662	-0.303041	-0.388453
C65	C	0.877995	0.030292	-0.055120
C66	C	1.211329	0.363625	0.278214
C67	C	0.577479	-0.343251	-0.336778
C68	C	0.910813	-0.009918	-0.003444
C69	C	1.244146	0.323415	0.329889
C70	C	0.643221	-0.343263	-0.336770
C71	C	0.976554	-0.009929	-0.003437
C72	C	1.309887	0.323404	0.329896
N73	N	0.441387	-0.358120	-0.382152
N74	N	0.774720	-0.024786	-0.048818
N75	N	1.108054	0.308547	0.284515
N76	N	0.378935	-0.358107	-0.382163
N77	N	0.712269	-0.024774	-0.048830
N78	N	1.045602	0.308559	0.284503
C79	C	0.346587	-0.303009	-0.388471
C80	C	0.679921	0.030324	-0.055138
C81	C	1.013254	0.363658	0.278196
N82	N	0.379050	-0.247922	-0.394782
N83	N	0.712383	0.085411	-0.061449
N84	N	1.045716	0.418744	0.271884
N85	N	0.441507	-0.247936	-0.394775
N86	N	0.774840	0.085398	-0.061441
N87	N	1.108174	0.418731	0.271892
C88	C	0.473377	-0.303033	-0.388455
C89	C	0.806710	0.030300	-0.055122
C90	C	1.140043	0.363633	0.278212
C91	C	0.242492	-0.262780	-0.440142
C92	C	0.575825	0.070553	-0.106809
C93	C	0.909159	0.403887	0.226524
C94	C	0.176748	-0.262762	-0.440140
C95	C	0.510082	0.070571	-0.106807
C96	C	0.843415	0.403905	0.226527
C97	C	0.176637	-0.343179	-0.336815
C98	C	0.509970	-0.009846	-0.003482
C99	C	0.843304	0.323488	0.329852
C100	C	0.242379	-0.343191	-0.336813
C101	C	0.575713	-0.009858	-0.003480
C102	C	0.909046	0.323475	0.329853
C103	C	0.275303	-0.302993	-0.388481
C104	C	0.608636	0.030341	-0.055148
C105	C	0.941970	0.363674	0.278185
C106	C	0.909582	-0.466557	-0.388407
C107	C	1.242915	-0.133224	-0.055074
C108	C	1.576248	0.200109	0.278260
C109	C	0.909604	-0.536526	-0.388415
C110	C	1.242937	-0.203192	-0.055082
C111	C	1.576271	0.130141	0.278252
C112	C	0.949891	-0.569375	-0.336903
C113	C	1.283224	-0.236042	-0.003570
C114	C	1.616558	0.097291	0.329764
C115	C	0.949921	-0.635118	-0.336921
C116	C	1.283254	-0.301785	-0.003588
C117	C	1.616587	0.031549	0.329746
C118	C	0.909652	-0.668008	-0.388443
C119	C	1.242985	-0.334675	-0.055109
C120	C	1.576318	-0.001341	0.278224
C121	C	0.869362	-0.635150	-0.439964
C122	C	1.202695	-0.301817	-0.106631
C123	C	1.536028	0.031517	0.226702
C124	C	0.869338	-0.569409	-0.439951
C125	C	1.202671	-0.236076	-0.106617
C126	C	1.536004	0.097258	0.226716
N127	N	0.854584	-0.771288	-0.394582
N128	N	1.187918	-0.437955	-0.061249
N129	N	1.521251	-0.104621	0.272085
N130	N	0.854609	-0.833739	-0.394590
N131	N	1.187942	-0.500406	-0.061257
N132	N	1.521275	-0.167073	0.272076
C133	C	0.909722	-0.866083	-0.388489
C134	C	1.243056	-0.532749	-0.055156
C135	C	1.576389	-0.199416	0.278178
N136	N	0.964811	-0.833615	-0.382363
N137	N	1.298145	-0.500282	-0.049029
N138	N	1.631478	-0.166949	0.284304
N139	N	0.964786	-0.771158	-0.382350
N140	N	1.298120	-0.437825	-0.049017
N141	N	1.631453	-0.104491	0.284317
C142	C	0.909673	-0.739293	-0.388464
C143	C	1.243007	-0.405960	-0.055130
C144	C	1.576340	-0.072627	0.278203
C145	C	0.950045	-0.970218	-0.336994
C146	C	1.283378	-0.636885	-0.003661
C147	C	1.616711	-0.303551	0.329673
C148	C	0.950075	-1.035962	-0.337018
C149	C	1.283409	-0.702628	-0.003684
C150	C	1.616742	-0.369295	0.329649
C151	C	0.869511	-1.035993	-0.440057
C152	C	1.202844	-0.702659	-0.106724
C153	C	1.536177	-0.369326	0.226610
C154	C	0.869486	-0.970250	-0.440037
C155	C	1.202819	-0.636917	-0.106704
C156	C	1.536153	-0.303584	0.226629
C157	C	0.909752	-0.937367	-0.388502
C158	C	1.243085	-0.604034	-0.055168
C159	C	1.576419	-0.270700	0.278165
C160	C	1.073854	-0.302976	-0.388475
C161	C	1.407188	0.030357	-0.055141
C162	C	1.740521	0.363691	0.278192
C163	C	1.143823	-0.302963	-0.388485
C164	C	1.477156	0.030370	-0.055151
C165	C	1.810489	0.363703	0.278182
C166	C	0.909705	-0.302959	-0.598761
C167	C	1.243038	0.030374	-0.265427
C168	C	1.576372	0.363708	0.067906
C169	C	0.909723	-0.302939	-0.688382
C170	C	1.243056	0.030394	-0.355048
C171	C	1.576389	0.363728	-0.021715
C172	C	0.909764	-0.138815	-0.388514
C173	C	1.243098	0.194518	-0.055181
C174	C	1.576431	0.527851	0.278153
C175	C	0.909807	-0.068847	-0.388541
C176	C	1.243140	0.264486	-0.055207
C177	C	1.576473	0.597819	0.278126
C178	C	0.909752	-0.302868	-1.016558
C179	C	1.243085	0.030465	-0.683224
C180	C	1.576418	0.363798	-0.349891
C181	C	0.909742	-0.302890	-0.925249
C182	C	1.243075	0.030443	-0.591916
C183	C	1.576408	0.363777	-0.258582
C184	C	0.909737	-0.302904	-0.852473
C185	C	1.243071	0.030429	-0.519139
C186	C	1.576404	0.363763	-0.185806
C187	C	0.909727	-0.302925	-0.761158
C188	C	1.243060	0.030409	-0.427825
C189	C	1.576394	0.363742	-0.094492
C190	C	0.909660	-0.303007	-0.178961
C191	C	1.242993	0.030326	0.154373
C192	C	1.576326	0.363660	0.487706
C193	C	0.909764	-0.302850	-0.089340
C194	C	1.243098	0.030484	0.243993
C195	C	1.576431	0.363817	0.577327
H196	H	0.150036	-0.230017	-0.482211
H197	H	0.483369	0.103317	-0.148877
H198	H	0.816703	0.436650	0.184456
O199	O	0.141129	-0.386535	-0.281093
O200	O	0.474462	-0.053202	0.052240
O201	O	0.807796	0.280131	0.385574
H202	H	0.153706	-0.435957	-0.294795
H203	H	0.487039	-0.102624	0.038538
H204	H	0.820373	0.230710	0.371872
H205	H	0.550663	-0.375983	-0.294720
H206	H	0.883997	-0.042650	0.038613
H207	H	1.217330	0.290683	0.371946
O208	O	0.278008	-0.219415	-0.495854
O209	O	0.611341	0.113918	-0.162521
O210	O	0.944675	0.447252	0.170813
H211	H	0.265397	-0.230263	-0.559113
H212	H	0.598730	0.103070	-0.225780
H213	H	0.932064	0.436404	0.107554
O214	O	0.993328	-0.533913	-0.281326
O215	O	1.326661	-0.200580	0.052008
O216	O	1.659995	0.132753	0.385341
H217	H	0.965163	-0.504021	-0.240257
H218	H	1.298496	-0.170688	0.093076
H219	H	1.631830	0.162646	0.426409
O220	O	0.993536	-1.071398	-0.281464
O221	O	1.326869	-0.738064	0.051870
O222	O	1.660203	-0.404731	0.385203
H223	H	0.965391	-1.101415	-0.240424
H224	H	1.298725	-0.768082	0.092910
H225	H	1.632058	-0.434748	0.426243
H226	H	0.836576	-0.661933	-0.481915
H227	H	1.169909	-0.328600	-0.148582
H228	H	1.503242	0.004733	0.184752
H229	H	0.836726	-1.062771	-0.482010
H230	H	1.170059	-0.729438	-0.148677
H231	H	1.503392	-0.396105	0.184656
O232	O	0.277770	-0.386564	-0.281093
O233	O	0.611104	-0.053231	0.052240
O234	O	0.944437	0.280102	0.385574
H235	H	0.307730	-0.358352	-0.240131
H236	H	0.641063	-0.025019	0.093202
H237	H	0.974397	0.308315	0.426536
H238	H	0.836531	-0.542662	-0.481899
H239	H	1.169864	-0.209329	-0.148565
H240	H	1.503197	0.124005	0.184768
O241	O	0.678847	-0.219490	-0.495814
O242	O	1.012180	0.113843	-0.162480
O243	O	1.345514	0.447176	0.170853
H244	H	0.644983	-0.191522	-0.531733
H245	H	0.978316	0.141811	-0.198400
H246	H	1.311650	0.475144	0.134934
O247	O	0.542192	-0.219477	-0.495839
O248	O	0.875525	0.113856	-0.162506
O249	O	1.208859	0.447189	0.170827
H250	H	0.576131	-0.191530	-0.531769
H251	H	0.909464	0.141803	-0.198436
H252	H	1.242798	0.475136	0.134897
O253	O	0.993369	-0.670562	-0.281354
O254	O	1.326702	-0.337228	0.051980
O255	O	1.660036	-0.003895	0.385313
H256	H	1.021361	-0.636651	-0.245512
H257	H	1.354694	-0.303318	0.087822
H258	H	1.688027	0.030016	0.421155
H259	H	0.982834	-0.943443	-0.295033
H260	H	1.316167	-0.610110	0.038300
H261	H	1.649501	-0.276777	0.371634
O262	O	0.826015	-0.934820	-0.495581
O263	O	1.159348	-0.601487	-0.162248
O264	O	1.492682	-0.268153	0.171085
H265	H	0.836777	-0.947391	-0.558881
H266	H	1.170110	-0.614057	-0.225548
H267	H	1.503443	-0.280724	0.107785
O268	O	0.678615	-0.386632	-0.281045
O269	O	1.011948	-0.053298	0.052288
O270	O	1.345281	0.280035	0.385621
H271	H	0.644674	-0.414586	-0.245127
H272	H	0.978008	-0.081252	0.088207
H273	H	1.311341	0.252081	0.421540
