data_functionalizedCrystal
_audit_creation_method	'MofGen! by Chris Wilmer'
_symmetry_space_group_name_H-M	'P1'
_symmetry_Int_Tables_number	1
_symmetry_cell_setting	triclinic
loop_
_symmetry_equiv_pos_as_xyz
  x,y,z
_cell_length_a	23.532407
_cell_length_b	10.540539
_cell_length_c	9.616153
_cell_angle_alpha	90.000705
_cell_angle_beta	90.001509
_cell_angle_gamma	96.312916
loop_
_atom_site_label
_atom_site_type_symbol
_atom_site_fract_x
_atom_site_fract_y
_atom_site_fract_z
O1	O	-0.756279	0.154076	-0.115464
O2	O	-0.590563	0.176370	-0.115503
O3	O	-0.677202	-0.019607	-0.115484
O4	O	-0.669641	0.350054	-0.115483
O5	O	-0.677190	-0.019603	0.115808
O6	O	-0.590551	0.176375	0.115788
O7	O	-0.756268	0.154081	0.115828
Zn8	Zn	-0.673408	0.165228	0.152531
Zn9	Zn	-0.673423	0.165223	-0.152206
O10	O	-0.669629	0.350058	0.115808
C11	C	-0.569338	0.175805	0.000137
C12	C	-0.506109	0.174098	0.000122
C13	C	-0.676629	-0.066889	0.000159
C14	C	-0.674933	-0.207782	0.000149
C15	C	-0.777493	0.154646	0.000184
C16	C	-0.840722	0.156353	0.000191
C17	C	-0.107702	0.279368	0.000185
C18	C	-0.048291	0.277782	0.000193
O19	O	-0.012191	0.375368	0.000244
N20	N	-0.024895	0.161273	0.000191
C21	C	-0.060914	0.046343	0.000194
O22	O	-0.035558	-0.052903	0.000194
C23	C	-0.120323	0.047930	0.000196
C24	C	-0.143715	0.164446	0.000184
C25	C	-0.131094	0.395874	0.000175
C26	C	-0.190501	0.397459	0.000164
C27	C	-0.226515	0.282538	0.000163
C28	C	-0.203122	0.166031	0.000173
C29	C	-0.156340	-0.066999	0.000209
C30	C	-0.215753	-0.065402	0.000211
C31	C	-0.239146	0.051114	0.000200
C32	C	-0.298542	0.052694	0.000161
N33	N	-0.321938	0.169203	0.000163
C34	C	-0.285924	0.284125	0.000164
C35	C	0.063851	0.043019	0.000194
C36	C	0.123259	0.041431	0.000182
C37	C	0.135878	0.272870	0.000184
C38	C	0.076468	0.274457	0.000186
C39	C	0.040455	0.159528	0.000196
C40	C	-0.410683	0.287445	0.000140
C41	C	-0.470095	0.289020	0.000123
C42	C	-0.482709	0.057581	0.000128
C43	C	-0.423302	0.056005	0.000138
C44	C	-0.387290	0.170947	0.000148
O45	O	-0.334677	-0.044840	0.000116
O46	O	-0.311288	0.383354	0.000182
C47	C	-0.670202	0.397340	0.000163
C48	C	-0.671898	0.538233	0.000164
N49	N	-0.673401	0.165231	0.360505
C50	C	-0.736907	0.719526	-0.000356
C51	C	-0.735187	0.572965	0.000176
C52	C	-0.641434	0.600901	0.132231
C53	C	-0.643594	0.747374	0.132331
C54	C	-0.642320	0.747913	-0.130691
C55	C	-0.641737	0.600951	-0.132426
N56	N	-0.673434	0.165209	-0.360180
C57	C	-0.626913	0.269724	0.580864
C58	C	-0.627016	0.270107	0.419697
C59	C	-0.732940	0.193411	0.418969
C60	C	-0.732687	0.194148	0.580187
C61	C	-0.660943	0.032202	0.580413
C62	C	-0.659576	0.033111	0.419186
H63	H	-0.489138	0.383905	0.000112
H64	H	-0.666100	0.774843	0.231064
C65	C	0.148984	-0.086746	0.000186
N66	N	0.168357	-0.183294	0.000200
H67	H	-0.634839	0.367888	0.621365
C68	C	-0.371078	0.413888	0.000143
N69	N	-0.341248	0.509125	0.000136
C70	C	-0.780907	0.095201	0.632873
N71	N	-0.817233	0.020691	0.672551
H72	H	-0.209541	0.492339	0.000154
H73	H	-0.598077	0.796837	0.138325
H74	H	-0.662807	0.778792	-0.230796
H75	H	-0.635045	0.368828	0.381120
H76	H	-0.743612	0.291127	0.617778
H77	H	-0.694862	-0.045566	0.618536
H78	H	-0.759161	0.529566	-0.094490
H79	H	-0.245073	-0.158995	0.000221
H80	H	-0.101777	0.489463	0.000181
C81	C	-0.567248	0.247597	0.366296
N82	N	-0.522227	0.230650	0.326081
H83	H	-0.582536	0.253328	0.619665
H84	H	-0.761910	0.747283	-0.095080
H85	H	-0.759314	0.530425	0.095025
H86	H	-0.761824	0.749041	0.093741
C87	C	0.050743	0.402633	0.000188
N88	N	0.031370	0.499180	0.000196
C89	C	-0.671807	0.544643	-0.264421
N90	N	-0.694456	0.502221	-0.363838
H91	H	-0.594956	0.580073	0.137133
H92	H	-0.691214	-0.048248	0.378898
C93	C	-0.780851	0.093273	0.367166
N94	N	-0.816937	0.017847	0.328144
C95	C	-0.130623	-0.195179	0.000249
N96	N	-0.111254	-0.291731	0.000291
H97	H	0.034532	-0.050577	0.000190
H98	H	0.165212	0.366446	0.000191
C99	C	-0.670009	0.542425	0.265028
N100	N	-0.691534	0.498380	0.365048
H101	H	-0.595596	0.578236	-0.140414
C102	C	-0.748026	0.322938	0.364427
N103	N	-0.759384	0.420504	0.323354
C104	C	-0.580565	0.813747	-0.131916
N105	N	-0.534053	0.863341	-0.132829
C106	C	-0.603516	-0.004632	0.635381
N107	N	-0.560260	-0.032360	0.676783
H108	H	-0.404255	-0.038872	0.000127
C109	C	-0.522335	-0.068827	0.000143
N110	N	-0.552183	-0.164038	0.000170
H111	H	-0.615776	0.011708	0.380975
