data_functionalizedCrystal
_audit_creation_method	'MofGen! by Chris Wilmer'
_symmetry_space_group_name_H-M	'P1'
_symmetry_Int_Tables_number	1
_symmetry_cell_setting	triclinic
loop_
_symmetry_equiv_pos_as_xyz
  x,y,z
_cell_length_a	15.297475
_cell_length_b	16.959454
_cell_length_c	15.296720
_cell_angle_alpha	80.351722
_cell_angle_beta	88.382886
_cell_angle_gamma	80.323279
loop_
_atom_site_label
_atom_site_type_symbol
_atom_site_fract_x
_atom_site_fract_y
_atom_site_fract_z
Zn1	Zn	1.253421	-0.615181	0.726635
Zn2	Zn	1.278688	-0.729000	0.580157
Zn3	Zn	1.132298	-0.570776	0.554873
Zn4	Zn	1.106914	-0.721230	0.701285
O5	O	1.192830	-0.659047	0.640738
O6	O	1.379352	-0.652115	0.728395
O7	O	1.280466	-0.692679	0.454228
O8	O	1.148414	-0.466067	0.577685
O9	O	1.397915	-0.735737	0.620778
O10	O	1.237403	-0.498691	0.703878
O11	O	1.172914	-0.576432	0.435651
O12	O	1.006352	-0.568898	0.553104
O13	O	1.105151	-0.722495	0.827223
O14	O	0.987702	-0.679437	0.660673
O15	O	1.212790	-0.644581	0.845848
O16	O	1.255853	-0.838569	0.596198
O17	O	1.129651	-0.832860	0.685190
C18	C	0.965244	-0.618506	0.601395
C19	C	0.867878	-0.601185	0.584584
C20	C	0.554738	-0.782854	0.760885
C21	C	0.646218	-0.799134	0.776677
C22	C	0.701637	-0.749648	0.728655
C23	C	0.665567	-0.683879	0.664839
C24	C	0.574078	-0.667601	0.649041
C25	C	0.720978	-0.634395	0.616811
C26	C	0.684908	-0.568627	0.552995
C27	C	0.593428	-0.552351	0.537200
C28	C	0.538009	-0.601837	0.585221
C29	C	0.812467	-0.650673	0.632609
C30	C	0.831808	-0.535421	0.520765
C31	C	0.740327	-0.519141	0.504973
C32	C	1.192759	-0.864398	0.640710
C33	C	1.192804	-0.952266	0.640741
C34	C	1.127199	-1.320817	0.687084
C35	C	1.258690	-1.326729	0.594523
C36	C	1.258660	-1.244176	0.594509
C37	C	1.192899	-1.199940	0.640783
C38	C	1.127167	-1.238256	0.687070
C39	C	1.324386	-1.205852	0.548216
C40	C	1.324359	-1.123295	0.548200
C41	C	1.258601	-1.079058	0.594479
C42	C	1.192866	-1.117379	0.640769
C43	C	1.127105	-1.073143	0.687042
C44	C	1.061373	-1.111464	0.733338
C45	C	1.061408	-1.194019	0.733349
C46	C	1.258566	-0.996503	0.594468
C47	C	1.127072	-0.990582	0.687028
C48	C	1.421305	-0.699746	0.680234
C49	C	1.518668	-0.717090	0.697066
C50	C	1.153320	-0.687624	0.869207
C51	C	1.136484	-0.699803	0.966567
C52	C	1.192922	-0.452900	0.640788
C53	C	1.192961	-0.365053	0.640810
C54	C	1.232237	-0.630532	0.413166
C55	C	1.249243	-0.618162	0.315836
C56	C	1.313198	-0.571876	1.279796
C57	C	1.329022	-0.560436	1.188322
C58	C	1.280889	-0.595276	1.132879
C59	C	1.216928	-0.641559	1.168918
C60	C	1.201107	-0.653005	1.260401
C61	C	1.168798	-0.676406	1.113484
C62	C	1.104838	-0.722688	1.149523
C63	C	1.089019	-0.734131	1.240998
C64	C	1.137153	-0.699291	1.296441
C65	C	1.184620	-0.664960	1.022001
C66	C	1.072529	-0.746089	1.002606
C67	C	1.056705	-0.757528	1.094080
H68	H	0.564064	-0.498805	0.485228
C69	C	0.500941	-0.835088	0.904268
C70	C	0.493818	-0.837237	0.813668
H71	H	0.463332	-0.868668	0.936856
H72	H	0.483733	-0.780953	0.914590
H73	H	0.560588	-0.854202	0.922804
H74	H	0.434172	-0.818118	0.795130
H75	H	0.511020	-0.891384	0.803340
H76	H	1.073523	-0.954571	0.724714
C77	C	0.947491	-0.836571	1.065727
C78	C	0.986404	-0.808405	1.133700
H79	H	0.904088	-0.867976	1.090188
H80	H	0.991810	-0.869140	1.036639
H81	H	0.920173	-0.791697	1.024261
H82	H	1.013729	-0.853281	1.175163
H83	H	0.942078	-0.775836	1.162802
H84	H	1.007826	-1.075436	0.771009
H85	H	0.463516	-0.588584	0.572369
C86	C	0.905697	-1.198421	0.750257
C87	C	0.989155	-1.236137	0.784230
H88	H	0.861092	-1.224422	0.781672
H89	H	0.903115	-1.202339	0.689196
H90	H	0.896279	-1.142924	0.756878
H91	H	0.998576	-1.291633	0.777603
H92	H	0.991739	-1.232228	0.845306
H93	H	0.841826	-0.704223	0.684570
C94	C	1.258638	-0.611385	0.890390
C95	C	1.254912	-0.614078	0.982390
H96	H	1.302038	-0.579972	0.865939
H97	H	1.202386	-0.587461	0.865234
H98	H	1.274032	-0.664898	0.877604
H99	H	1.239511	-0.560566	0.995176
H100	H	1.311177	-0.638000	1.007554
H101	H	0.710946	-0.465591	0.453013
H102	H	1.036946	-0.771825	1.270339
C103	C	0.828818	-0.700615	0.773759
C104	C	0.802195	-0.767536	0.746015
H105	H	0.890900	-0.711659	0.784474
H106	H	0.798358	-0.690433	0.826735
H107	H	0.815262	-0.654370	0.728873
H108	H	0.815745	-0.813780	0.790904
H109	H	0.832664	-0.777728	0.693032
C110	C	1.136780	-0.794841	1.431328
C111	C	1.119760	-0.711867	1.396994
H112	H	1.126038	-0.802602	1.493405
H113	H	1.196874	-0.815981	1.420406
H114	H	1.098957	-0.822212	1.403467
H115	H	1.157587	-0.684497	1.424851
H116	H	1.059655	-0.690718	1.407925
C117	C	1.356974	-1.017924	0.432487
C118	C	1.396614	-1.081179	0.497318
H119	H	1.401584	-0.991929	0.401074
H120	H	1.317817	-0.979767	0.460045
H121	H	1.324649	-1.039183	0.392365
H122	H	1.428933	-1.059920	0.537444
H123	H	1.435786	-1.119343	0.469758
H124	H	1.073684	-1.352022	0.724779
C125	C	0.980630	-0.509190	0.495323
C126	C	0.892716	-0.481018	0.467976
H127	H	1.018233	-0.475604	0.462738
H128	H	0.997836	-0.563322	0.484986
H129	H	0.985443	-0.507737	0.556791
H130	H	0.887901	-0.482477	0.406510
H131	H	0.875504	-0.426873	0.478306
H132	H	1.293777	-0.585960	1.058398
H133	H	1.381101	-0.522755	1.158987
C134	C	1.317073	-1.455888	0.553382
C135	C	1.330940	-1.375339	0.543616
H136	H	1.361675	-1.485897	0.521943
H137	H	1.260447	-1.457348	0.530375
H138	H	1.319707	-1.479050	0.614452
H139	H	1.328300	-1.352176	0.482546
H140	H	1.387581	-1.373876	0.566619
H141	H	1.377920	-1.241873	0.510535
C142	C	1.338710	-0.553411	1.428642
C143	C	1.366103	-0.533587	1.340740
H144	H	1.371374	-0.529768	1.466265
H145	H	1.348912	-0.610667	1.445823
H146	H	1.277268	-0.533229	1.433454
H147	H	1.427545	-0.553774	1.335927
H148	H	1.355909	-0.476319	1.323553
C149	C	1.078098	-0.837355	0.897595
C150	C	1.019616	-0.784387	0.941669
H151	H	1.045435	-0.860994	0.859967
H152	H	1.110067	-0.878849	0.939869
H153	H	1.118446	-0.808140	0.863044
H154	H	0.979272	-0.813604	0.976225
H155	H	0.987631	-0.742888	0.899389
C156	C	0.728745	-0.843322	0.912244
C157	C	0.685862	-0.871418	0.846827
H158	H	0.753223	-0.887950	0.955552
H159	H	0.687266	-0.806788	0.939649
H160	H	0.774841	-0.816184	0.885894
H161	H	0.639762	-0.898550	0.873176
H162	H	0.727346	-0.907966	0.819418
C163	C	1.291155	-0.891124	0.478757
C164	C	1.330807	-0.954378	0.543582
H165	H	1.335759	-0.865123	0.447339
H166	H	1.251998	-0.852971	0.506321
H167	H	1.258829	-0.912385	0.438639
H168	H	1.363129	-0.933117	0.583705
H169	H	1.369980	-0.992538	0.516018
