data_functionalizedCrystal
_audit_creation_method	'MofGen! by Chris Wilmer'
_symmetry_space_group_name_H-M	'P1'
_symmetry_Int_Tables_number	1
_symmetry_cell_setting	triclinic
loop_
_symmetry_equiv_pos_as_xyz
  x,y,z
_cell_length_a	14.044220
_cell_length_b	14.044191
_cell_length_c	7.540329
_cell_angle_alpha	89.999427
_cell_angle_beta	90.002479
_cell_angle_gamma	86.809673
loop_
_atom_site_label
_atom_site_type_symbol
_atom_site_fract_x
_atom_site_fract_y
_atom_site_fract_z
O1	O	-0.230198	1.277170	-0.147388
O2	O	-0.221886	1.000498	-0.147411
O3	O	-0.087706	1.134681	-0.147392
O4	O	-0.364378	1.142987	-0.147407
O5	O	-0.087704	1.134672	0.147573
O6	O	-0.221883	1.000489	0.147554
O7	O	-0.230196	1.277162	0.147577
Cu8	Cu	-0.226039	1.138824	0.174498
Cu9	Cu	-0.226042	1.138835	-0.174332
O10	O	-0.364375	1.142978	0.147558
C11	C	-0.218248	0.964872	0.000068
C12	C	-0.207401	0.858728	0.000060
C13	C	-0.264501	0.613270	0.000074
C14	C	-0.187585	0.664395	0.000075
C15	C	-0.198613	0.772532	0.000067
C16	C	-0.253474	0.505123	0.000083
C17	C	-0.399998	1.146618	0.000073
C18	C	-0.506142	1.157463	0.000068
C19	C	-0.700480	1.177289	0.000077
C20	C	-0.751608	1.100375	0.000073
C21	C	-0.859744	1.111406	0.000078
C22	C	-0.592333	1.166259	0.000072
C23	C	-0.052083	1.131041	0.000088
C24	C	0.054060	1.120197	0.000082
C25	C	-0.233834	1.312788	0.000093
C26	C	-0.244681	1.418931	0.000090
N27	N	-0.226037	1.138824	0.419846
N28	N	-0.226037	1.138842	-0.419681
H29	H	-0.113452	0.626952	-0.000045
N30	N	-0.750064	1.275484	0.000120
H31	H	-0.821404	1.269543	0.000136
H32	H	-0.730924	1.311276	0.109486
N33	N	-0.362694	0.662858	0.000058
H34	H	-0.356751	0.734197	0.000048
H35	H	-0.398501	0.643726	-0.109297
N36	N	-0.702023	1.002173	0.000063
H37	H	-0.630682	1.008107	0.000065
H38	H	-0.721153	0.966363	0.109414
