data_functionalizedCrystal
_audit_creation_method	'MofGen! by Chris Wilmer'
_symmetry_space_group_name_H-M	'P1'
_symmetry_Int_Tables_number	1
_symmetry_cell_setting	triclinic
loop_
_symmetry_equiv_pos_as_xyz
  x,y,z
_cell_length_a	19.188930
_cell_length_b	15.538191
_cell_length_c	14.750779
_cell_angle_alpha	82.427828
_cell_angle_beta	77.396187
_cell_angle_gamma	114.791562
loop_
_atom_site_label
_atom_site_type_symbol
_atom_site_fract_x
_atom_site_fract_y
_atom_site_fract_z
O1	O	-0.206654	-1.230319	-0.079811
O2	O	-0.125950	-0.955725	-0.079820
O3	O	-0.269953	-1.100951	-0.079797
O4	O	-0.062651	-1.085093	-0.079835
O5	O	-0.310658	-1.142004	0.079860
O6	O	-0.166654	-0.996778	0.079837
O7	O	-0.247359	-1.271372	0.079846
Zn8	Zn	-0.213470	-1.140594	0.105190
Zn9	Zn	-0.159839	-1.086504	-0.105165
O10	O	-0.103356	-1.126146	0.079822
C11	C	-0.316188	-1.120965	0.000035
C12	C	-0.393308	-1.119427	0.000043
C13	C	-0.137858	-0.941121	0.000007
C14	C	-0.112707	-0.836443	0.000004
C15	C	-0.235450	-1.285976	0.000016
C16	C	-0.260600	-1.390652	0.000013
C17	C	-0.459635	-1.204639	0.000050
C18	C	-0.532092	-1.203187	0.000035
C19	C	-0.538221	-1.116524	0.000031
C20	C	-0.471879	-1.031299	0.000018
C21	C	-0.399422	-1.032751	0.000024
N22	N	-0.643440	-1.064252	0.054363
N23	N	-0.712273	-1.062879	0.054360
C24	C	-0.756526	-1.112146	0.000012
N25	N	-0.729353	-1.162854	-0.054321
N26	N	-0.660516	-1.164230	-0.054313
C27	C	-0.616784	-1.114941	0.000024
C28	C	-0.901421	-1.195790	0.000001
C29	C	-0.973876	-1.194333	-0.000020
C30	C	-0.913663	-1.022445	-0.000027
C31	C	-0.841208	-1.023901	-0.000016
C32	C	-0.835093	-1.110577	0.000003
C33	C	-0.057120	-1.106132	-0.000011
C34	C	0.020001	-1.107668	-0.000026
N35	N	-0.250073	-1.177515	0.248752
C36	C	-0.362580	-0.549690	0.000035
C37	C	-0.338928	-0.451325	0.000030
C38	C	-0.205893	-0.428328	0.000006
C39	C	-0.229535	-0.526694	0.000016
C40	C	-0.307879	-0.587367	0.000029
C41	C	-0.174835	-0.564371	0.000010
C42	C	-0.198474	-0.662727	0.000014
C43	C	-0.276813	-0.723406	0.000025
C44	C	-0.331518	-0.685723	0.000034
C45	C	-0.096490	-0.503694	-0.000011
C46	C	-0.041789	-0.541372	-0.000017
C47	C	-0.065429	-0.639731	-0.000005
C48	C	-0.143769	-0.700410	0.000006
C49	C	-0.010724	-0.677414	-0.000014
C50	C	-0.034363	-0.775770	-0.000009
C51	C	-0.167408	-0.798766	0.000010
N52	N	-0.123244	-1.049589	-0.248726
C53	C	-0.021047	-0.946472	0.600532
C54	C	-0.046693	-0.972351	0.701036
C55	C	-0.174180	-1.100975	0.701020
C56	C	-0.148545	-1.075104	0.600514
C57	C	-0.071978	-0.997852	0.550279
C58	C	-0.199476	-1.126484	0.550260
C59	C	-0.173842	-1.100617	0.449764
C60	C	-0.097277	-1.023370	0.399521
C61	C	-0.046344	-0.971985	0.449782
C62	C	-0.276041	-1.203739	0.600498
C63	C	-0.326973	-1.255119	0.550244
C64	C	-0.301341	-1.229248	0.449745
C65	C	-0.224776	-1.152002	0.399503
C66	C	-0.352274	-1.280633	0.399484
C67	C	-0.326640	-1.254767	0.298988
C68	C	-0.199142	-1.126135	0.299006
H69	H	-0.454663	-1.275216	0.000062
O70	O	-0.776799	-0.941033	-0.000139
C71	C	-0.755085	-0.867140	-0.082841
H72	H	-0.809220	-0.883434	-0.110414
H73	H	-0.734769	-0.793252	-0.064246
H74	H	-0.703707	-0.864980	-0.140738
H75	H	-0.395315	-0.735129	0.000051
H76	H	-0.476873	-0.960737	0.000013
O77	O	0.053392	-0.871530	0.551766
C78	C	0.112448	-0.892865	0.576324
H79	H	0.086652	-0.975463	0.603941
H80	H	0.167125	-0.864864	0.510228
H81	H	0.131323	-0.855522	0.634661
O82	O	-0.300965	-1.228721	0.698121
C83	C	-0.301084	-1.147917	0.731718
H84	H	-0.305981	-1.096289	0.673814
H85	H	-0.354610	-1.174757	0.798950
H86	H	-0.242760	-1.107365	0.749559
H87	H	-0.586105	-1.272579	0.000037
H88	H	-0.896441	-1.266365	0.000012
H89	H	0.053065	-0.627997	-0.000034
H90	H	-0.918651	-0.951881	-0.000035
H91	H	-0.005211	-0.930506	0.741948
H92	H	-0.389314	-1.318021	0.591157
H93	H	-0.368114	-1.296607	0.258071
H94	H	0.010177	-0.806449	-0.000005
H95	H	-0.383477	-0.420654	0.000033
H96	H	-1.027882	-1.263725	-0.000019
O97	O	-0.072420	-0.998413	0.301898
C98	C	-0.072268	-1.079202	0.268297
H99	H	-0.115419	-1.149723	0.326196
H100	H	-0.092421	-1.081329	0.201060
H101	H	-0.008843	-1.071883	0.250463
O102	O	-0.073465	-0.408168	0.000114
C103	C	-0.050174	-0.390266	0.082803
H104	H	-0.031979	-0.447318	0.110362
H105	H	0.003083	-0.314029	0.064195
H106	H	-0.102791	-0.394973	0.140714
O107	O	-0.124804	-1.051084	0.250050
C108	C	-0.113097	-1.039292	0.150574
H109	H	-0.174084	-1.071245	0.136853
H110	H	-0.077524	-0.958025	0.112390
H111	H	-0.078218	-1.079070	0.122039
O112	O	-0.248543	-1.175960	0.749971
C113	C	-0.260241	-1.187793	0.849449
H114	H	-0.218652	-1.116255	0.863190
H115	H	-0.325568	-1.208332	0.887647
H116	H	-0.245962	-1.248359	0.877950
O117	O	0.028055	-0.897039	0.400866
C118	C	0.073240	-0.932393	0.342736
H119	H	0.030579	-1.002424	0.327676
H120	H	0.112270	-0.874806	0.272069
H121	H	0.113407	-0.948538	0.381454
H122	H	-0.345414	-0.963358	0.000018
O123	O	-0.243477	-0.857633	-0.000145
C124	C	-0.257100	-0.819325	-0.082813
H125	H	-0.196946	-0.770691	-0.140614
H126	H	-0.295738	-0.882090	-0.110562
H127	H	-0.289632	-0.774220	-0.064110
O128	O	-0.299901	-0.818962	-0.000011
C129	C	-0.380783	-0.864438	0.000028
H130	H	-0.397120	-0.806494	-0.030196
H131	H	-0.388825	-0.919021	-0.046319
H132	H	-0.421807	-0.904571	0.076628
O133	O	-0.438704	-0.608491	0.000006
C134	C	-0.481928	-0.554157	0.000040
H135	H	-0.437875	-0.472901	-0.030189
H136	H	-0.523463	-0.578701	-0.046305
H137	H	-0.519399	-0.566933	0.076639
H138	H	-0.142105	-0.378914	-0.000009
O139	O	0.034321	-0.482302	-0.000155
C140	C	0.073068	-0.403474	-0.082859
H141	H	0.025885	-0.391634	-0.110424
H142	H	0.113101	-0.334225	-0.064268
H143	H	0.111551	-0.420819	-0.140759
O144	O	-0.426662	-1.355722	0.448140
C145	C	-0.466130	-1.395505	0.382233
H146	H	-0.419473	-1.378016	0.310591
H147	H	-0.503254	-1.478322	0.411256
H148	H	-0.507578	-1.362348	0.371560
