data_functionalizedCrystal
_audit_creation_method	'MofGen! by Chris Wilmer'
_symmetry_space_group_name_H-M	'P1'
_symmetry_Int_Tables_number	1
_symmetry_cell_setting	triclinic
loop_
_symmetry_equiv_pos_as_xyz
  x,y,z
_cell_length_a	16.992694
_cell_length_b	17.699083
_cell_length_c	16.176319
_cell_angle_alpha	89.999648
_cell_angle_beta	89.998387
_cell_angle_gamma	86.975618
loop_
_atom_site_label
_atom_site_type_symbol
_atom_site_fract_x
_atom_site_fract_y
_atom_site_fract_z
O1	O	1.040089	0.160469	-0.068623
O2	O	0.811807	0.158709	-0.068648
O3	O	0.932397	0.049802	-0.068643
O4	O	0.919498	0.269377	-0.068628
O5	O	0.932381	0.049793	0.068850
O6	O	0.811790	0.158701	0.068845
O7	O	1.040072	0.160461	0.068870
Cu8	Cu	0.925930	0.159580	0.081412
Cu9	Cu	0.925949	0.159590	-0.081190
O10	O	0.919482	0.269368	0.068865
C11	C	0.782590	0.156440	0.000095
C12	C	0.695559	0.149683	0.000085
C13	C	0.931927	0.021572	0.000100
C14	C	0.930540	-0.062533	0.000088
N15	N	0.925922	0.159573	0.195777
C16	C	0.645194	0.214881	0.000090
C17	C	0.563420	0.208527	0.000101
C18	C	0.532012	0.136975	0.000101
C19	C	0.582383	0.071772	0.000099
C20	C	0.664156	0.078127	0.000094
C21	C	0.288464	0.110639	0.000122
C22	C	0.206685	0.104290	0.000124
C23	C	0.187727	0.241045	0.000128
C24	C	0.269503	0.247393	0.000118
C25	C	0.319867	0.182190	0.000120
N26	N	0.448425	0.130479	0.000110
N27	N	0.403451	0.188687	0.000117
C28	C	1.069289	0.162730	0.000125
C29	C	1.156320	0.169487	0.000129
C30	C	0.919952	0.297598	0.000120
C31	C	0.921339	0.381703	0.000127
C32	C	0.850555	0.425917	0.000119
C33	C	0.851862	0.504942	0.000109
C34	C	0.923955	0.539751	0.000113
C35	C	0.994744	0.495531	0.000118
C36	C	0.993436	0.416508	0.000122
C37	C	1.000022	0.814223	0.000103
C38	C	1.001325	0.893252	0.000101
C39	C	0.858449	0.902656	0.000090
C40	C	0.857140	0.823633	0.000094
C41	C	0.927929	0.779420	0.000094
C42	C	0.926511	0.693733	0.000103
C43	C	0.925374	0.625437	0.000110
N44	N	0.925963	0.159592	-0.195555
C45	C	0.979335	0.111371	0.239043
C46	C	0.979339	0.111370	0.325590
C47	C	0.925933	0.159576	0.368870
C48	C	0.872513	0.207781	0.325597
C49	C	0.872506	0.207777	0.239052
C50	C	0.872540	0.207796	0.674625
C51	C	0.872553	0.207798	0.761177
C52	C	0.979373	0.111390	0.761164
C53	C	0.979366	0.111386	0.674619
C54	C	0.925944	0.159587	0.631354
C55	C	0.925940	0.159586	0.537510
C56	C	0.925940	0.159582	0.462712
H57	H	0.670760	0.273146	0.000090
H58	H	0.522415	0.261618	0.000104
H59	H	0.791849	0.397581	0.000125
H60	H	1.022828	0.072119	0.203811
H61	H	0.829060	0.247055	0.796413
H62	H	0.556804	0.013513	0.000111
F63	F	0.776524	0.551994	0.000095
H64	H	0.798435	0.795296	0.000095
H65	H	1.022857	0.072135	0.639383
H66	H	0.800809	0.938664	0.000086
F67	F	0.302923	0.323548	0.000114
F68	F	0.134121	0.310433	0.000128
F69	F	0.173260	0.028131	0.000139
F70	F	0.342055	0.041244	0.000123
H71	H	0.705162	0.025036	0.000089
F72	F	1.078060	0.930296	0.000104
H73	H	1.057663	0.778234	0.000108
H74	H	1.022870	0.072139	0.796400
F75	F	1.071471	0.532580	0.000116
H76	H	1.051076	0.380509	0.000125
H77	H	1.022832	0.072120	0.360817
F78	F	0.815688	0.259097	0.628586
F79	F	0.815670	0.259082	0.371659
F80	F	0.815654	0.259078	0.193006
