data_functionalizedCrystal
_audit_creation_method	'MofGen! by Chris Wilmer'
_symmetry_space_group_name_H-M	'P1'
_symmetry_Int_Tables_number	1
_symmetry_cell_setting	triclinic
loop_
_symmetry_equiv_pos_as_xyz
  x,y,z
_cell_length_a	13.032721
_cell_length_b	12.759401
_cell_length_c	12.759393
_cell_angle_alpha	90.019465
_cell_angle_beta	97.147972
_cell_angle_gamma	82.797506
loop_
_atom_site_label
_atom_site_type_symbol
_atom_site_fract_x
_atom_site_fract_y
_atom_site_fract_z
Zn1	Zn	-0.416022	-1.553091	-0.647098
Zn2	Zn	-0.590803	-1.530649	-0.493722
Zn3	Zn	-0.416071	-1.377386	-0.471440
Zn4	Zn	-0.590717	-1.355057	-0.669349
O5	O	-0.503403	-1.454046	-0.570402
O6	O	-0.439223	-1.697133	-0.626765
O7	O	-0.567681	-1.510272	-0.343752
O8	O	-0.269828	-1.419431	-0.476105
O9	O	-0.567634	-1.680645	-0.514080
O10	O	-0.269792	-1.548520	-0.605160
O11	O	-0.439306	-1.397670	-0.327382
O12	O	-0.439222	-1.227405	-0.497681
O13	O	-0.567486	-1.381373	-0.813411
O14	O	-0.567534	-1.211000	-0.643083
O15	O	-0.439139	-1.526867	-0.797063
O16	O	-0.737028	-1.488620	-0.535656
O17	O	-0.736965	-1.359612	-0.664689
C18	C	-0.503375	-1.181082	-0.570380
C19	C	-0.503388	-1.064304	-0.570398
C20	C	-0.436643	-1.018012	-0.629191
C21	C	-0.436649	-0.908287	-0.629197
C22	C	-0.570155	-0.891154	-0.511615
C23	C	-0.570142	-1.000878	-0.511604
C24	C	-0.313466	-0.774109	-0.651244
C25	C	-0.246730	-0.727813	-0.710054
C26	C	-0.230803	-0.765505	-0.810561
C27	C	-0.281626	-0.849489	-0.852280
C28	C	-0.348369	-0.895779	-0.793476
C29	C	-0.364277	-0.858091	-0.692952
C30	C	-0.693327	-1.135058	-0.489568
C31	C	-0.760076	-1.181349	-0.430770
C32	C	-0.776015	-1.143657	-0.330263
C33	C	-0.725210	-1.059667	-0.288550
C34	C	-0.658460	-1.013376	-0.347349
C35	C	-0.642520	-1.051075	-0.447854
C36	C	-0.774914	-1.419286	-0.605028
C37	C	-0.891067	-1.404512	-0.619876
C38	C	-0.942849	-1.461812	-0.562700
C39	C	-1.062900	-1.446544	-0.578045
C40	C	-0.230832	-1.488969	-0.535665
C41	C	-0.114679	-1.503852	-0.520862
C42	C	-0.503298	-1.454133	-0.844422
C43	C	-0.503253	-1.454170	-0.961193
C44	C	-0.503423	-0.728076	-0.570421
C45	C	-0.503407	-0.844855	-0.570415
C46	C	-0.436395	-1.395564	-1.007529
C47	C	-0.436363	-1.395592	-1.117249
C48	C	-0.570048	-1.512841	-1.134288
C49	C	-0.570085	-1.512806	-1.024570
C50	C	-0.398960	-1.276522	-1.262427
C51	C	-0.332086	-1.217927	-1.308765
C52	C	-0.230129	-1.214852	-1.260165
C53	C	-0.195024	-1.270390	-1.165226
C54	C	-0.261892	-1.328993	-1.118893
C55	C	-0.363864	-1.332046	-1.167493
C56	C	-0.607478	-1.631880	-0.879389
C57	C	-0.674341	-1.690489	-0.833054
C58	C	-0.776300	-1.693575	-0.881652
C59	C	-0.811401	-1.638056	-0.976594
C60	C	-0.744538	-1.579446	-1.022930
C61	C	-0.642580	-1.576359	-0.974324
C62	C	-0.503433	-1.454029	-0.297439
C63	C	-0.503184	-1.454233	-0.180631
H64	H	-0.176464	-0.727803	-0.858444
H65	H	-1.107441	-1.386184	-0.638363
N66	N	-0.642164	-0.822739	-0.448223
H67	H	-0.684445	-0.868717	-0.410975
H68	H	-0.599578	-0.782637	-0.394246
N69	N	-0.369957	-1.158019	-1.411152
H70	H	-0.365465	-1.080251	-1.400166
H71	H	-0.325047	-1.184908	-1.466934
N72	N	-0.636480	-1.750383	-0.730658
H73	H	-0.681386	-1.723591	-0.674836
H74	H	-0.640945	-1.828139	-0.741740
N75	N	-0.403184	-0.986352	-0.838467
H76	H	-0.349745	-1.047180	-0.853255
H77	H	-0.447881	-1.009873	-0.785924
H78	H	-0.680346	-1.165761	-0.571407
N79	N	-0.158002	-1.151645	-1.310130
H80	H	-0.094778	-1.200112	-1.326517
H81	H	-0.195792	-1.116937	-1.377609
N82	N	-0.330626	-0.733472	-0.542826
H83	H	-0.288307	-0.673243	-0.525329
H84	H	-0.407009	-0.707740	-0.541859
H85	H	-0.801430	-1.249750	-0.464734
H86	H	-0.481986	-1.279005	-1.302000
H87	H	-0.617093	-0.944986	-0.313377
N88	N	-0.191914	-0.637234	-0.665063
H89	H	-0.212118	-0.620386	-0.592460
H90	H	-0.114011	-0.657670	-0.659835
H91	H	-0.738193	-1.028973	-0.206712
N92	N	-0.364646	-1.086424	-0.692599
H93	H	-0.322364	-1.040444	-0.729844
H94	H	-0.316230	-1.138124	-0.643736
N95	N	-0.264456	-0.890124	-0.960696
H96	H	-0.188093	-0.915921	-0.961727
H97	H	-0.306837	-0.950311	-0.978139
H98	H	-0.830398	-1.181333	-0.282406
N99	N	-0.883858	-1.541778	-0.482818
H100	H	-0.806460	-1.541353	-0.483182
H101	H	-0.902949	-1.523058	-0.410190
N102	N	-1.055694	-1.583821	-0.440973
H103	H	-0.978295	-1.583397	-0.441335
H104	H	-1.074787	-1.565099	-0.368347
H105	H	-0.624460	-1.560582	-1.185903
H106	H	-0.935612	-1.344156	-0.680190
N107	N	-0.364314	-1.332326	-0.939170
H108	H	-0.321956	-1.295204	-0.985177
H109	H	-0.406856	-1.278240	-0.899059
H110	H	-0.233309	-1.374216	-1.041598
H111	H	-0.524465	-1.629343	-0.839791
N112	N	-0.782391	-1.519564	-1.125334
H113	H	-0.857128	-1.530409	-1.149094
H114	H	-0.777850	-1.441816	-1.114285
H115	H	-0.111996	-1.267892	-1.125667
N116	N	-0.921370	-1.641383	-1.029025
H117	H	-0.958401	-1.686934	-0.985265
H118	H	-0.959827	-1.567401	-1.035070
N119	N	-0.848416	-1.756801	-0.831686
H120	H	-0.810711	-1.791515	-0.764171
H121	H	-0.911628	-1.708279	-0.815371
