data_functionalizedCrystal
_audit_creation_method	'MofGen! by Chris Wilmer'
_symmetry_space_group_name_H-M	'P1'
_symmetry_Int_Tables_number	1
_symmetry_cell_setting	triclinic
loop_
_symmetry_equiv_pos_as_xyz
  x,y,z
_cell_length_a	12.759401
_cell_length_b	10.686285
_cell_length_c	12.759393
_cell_angle_alpha	85.602987
_cell_angle_beta	89.979062
_cell_angle_gamma	85.633237
loop_
_atom_site_label
_atom_site_type_symbol
_atom_site_fract_x
_atom_site_fract_y
_atom_site_fract_z
Zn1	Zn	1.638400	-0.502237	-0.562006
Zn2	Zn	1.651794	-0.713276	-0.372873
Zn3	Zn	1.462703	-0.502304	-0.386337
Zn4	Zn	1.476188	-0.713187	-0.548516
O5	O	1.557272	-0.607751	-0.467433
O6	O	1.787199	-0.530240	-0.536928
O7	O	1.626673	-0.685355	-0.227634
O8	O	1.474761	-0.325719	-0.420919
O9	O	1.797039	-0.685290	-0.397973
O10	O	1.603845	-0.325669	-0.549983
O11	O	1.487749	-0.530355	-0.237525
O12	O	1.317471	-0.530269	-0.407839
O13	O	1.497744	-0.685139	-0.697331
O14	O	1.327378	-0.685204	-0.526992
O15	O	1.616921	-0.530155	-0.707241
O16	O	1.639748	-0.889840	-0.384893
O17	O	1.510731	-0.889775	-0.513937
C18	C	1.284303	-0.607735	-0.467413
C19	C	1.167528	-0.607759	-0.467427
C20	C	1.117860	-0.688557	-0.529357
C21	C	1.008136	-0.688562	-0.529377
C22	C	0.997758	-0.526968	-0.405531
C23	C	1.107479	-0.526957	-0.405516
C24	C	0.861137	-0.733838	-0.650352
C25	C	0.811467	-0.814656	-0.712270
C26	C	0.854944	-0.937798	-0.720369
C27	C	0.948090	-0.980148	-0.666531
C28	C	0.997756	-0.899338	-0.604604
C29	C	0.954279	-0.776178	-0.596527
C30	C	1.254481	-0.481694	-0.284540
C31	C	1.304149	-0.400888	-0.222606
C32	C	1.260674	-0.277744	-0.214498
C33	C	1.167524	-0.235398	-0.268316
C34	C	1.117857	-0.316204	-0.330250
C35	C	1.161339	-0.439347	-0.338360
C36	C	1.578185	-0.935592	-0.446513
C37	C	1.587228	-1.075844	-0.437599
C38	C	1.831306	-0.607767	-0.467453
C39	C	1.948083	-0.607774	-0.467462
C40	C	1.557342	-0.607630	-0.741474
C41	C	1.557373	-0.607578	-0.858254
C42	C	1.536305	-0.278630	-0.488457
C43	C	1.527370	-0.138378	-0.497417
C44	C	1.619432	-0.526865	-0.918279
C45	C	1.619446	-0.526810	-1.028007
C46	C	1.495340	-0.688194	-1.017674
C47	C	1.495320	-0.688241	-0.907949
C48	C	1.647533	-0.377935	-1.187475
C49	C	1.709610	-0.297233	-1.247503
C50	C	1.810885	-0.277884	-1.213145
C51	C	1.850105	-0.339255	-1.118759
C52	C	1.788034	-0.419967	-1.058736
C53	C	1.686743	-0.439292	-1.093094
C54	C	1.467244	-0.837117	-0.748479
C55	C	1.405179	-0.917836	-0.688453
C56	C	1.303903	-0.937199	-0.722808
C57	C	1.264688	-0.875849	-0.817196
C58	C	1.326754	-0.795130	-0.877221
C59	C	1.428028	-0.775766	-0.842859
C60	C	1.557256	-0.607780	-0.194464
C61	C	1.557406	-0.607477	-0.077707
H62	H	1.073593	-0.933818	-0.560770
H63	H	0.735626	-0.780162	-0.756106
O64	O	1.308760	-0.199103	-0.154340
C65	C	1.250425	-0.081320	-0.158756
H66	H	1.165531	-0.093457	-0.181212
H67	H	1.252521	-0.041287	-0.078562
H68	H	1.286051	-0.013973	-0.220062
H69	H	1.469206	-1.084620	-0.555451
O70	O	1.296541	-0.601401	-0.292384
C71	C	1.223784	-0.687086	-0.255192
H72	H	1.140991	-0.638680	-0.260444
H73	H	1.228595	-0.771285	-0.305173
H74	H	1.242934	-0.720581	-0.169885
H75	H	1.253375	-1.002938	-0.673930
H76	H	1.861427	-0.212173	-1.262027
H77	H	1.645389	-1.129609	-0.379554
O78	O	1.125146	-0.115855	-0.260331
C79	C	1.023323	-0.119260	-0.217763
H80	H	1.016008	-0.213651	-0.171351
H81	H	1.008849	-0.040000	-0.163359
H82	H	0.962775	-0.106881	-0.284156
H83	H	1.669956	-0.461180	-0.877821
H84	H	1.819969	-0.469939	-0.981892
O85	O	1.948561	-0.320495	-1.085574
C86	C	2.022357	-0.358449	-1.161377
H87	H	1.981889	-0.355909	-1.241234
H88	H	2.088156	-0.291837	-1.166246
H89	H	2.056701	-0.458289	-1.137950
H90	H	0.825736	-0.633562	-0.643776
O91	O	1.671626	-0.237755	-1.339281
C92	C	1.737030	-0.273150	-1.422791
H93	H	1.781731	-0.367661	-1.399587
H94	H	1.686911	-0.281622	-1.495486
H95	H	1.795334	-0.198789	-1.440830
O96	O	1.443433	-0.977497	-0.596852
C97	C	1.535028	-1.053925	-0.617285
H98	H	1.571364	-1.017139	-0.694145
H99	H	1.593824	-1.051627	-0.550335
H100	H	1.513962	-1.154809	-0.623895
O101	O	1.549073	-0.396593	-1.220710
C102	C	1.475270	-0.358689	-1.144895
H103	H	1.510286	-0.288024	-1.095051
H104	H	1.401126	-0.313046	-1.186065
H105	H	1.454717	-0.444343	-1.092266
H106	H	0.948853	-0.461184	-0.355123
H107	H	1.444821	-0.753869	-1.058149
O108	O	0.990201	-1.099797	-0.674542
C109	C	0.926378	-1.162052	-0.740722
H110	H	0.878483	-1.089550	-0.795016
H111	H	0.978105	-1.226559	-0.789805
H112	H	0.870940	-1.220387	-0.690863
O113	O	1.288483	-0.735586	-0.968861
C114	C	1.185795	-0.770007	-0.986333
H115	H	1.149821	-0.803229	-0.908250
H116	H	1.135705	-0.685275	-1.023512
H117	H	1.188820	-0.849348	-1.041365
O118	O	1.166268	-0.894750	-0.850401
C119	C	1.119906	-0.979171	-0.777196
H120	H	1.159477	-0.977765	-0.697249
H121	H	1.032561	-0.949716	-0.770308
H122	H	1.130191	-1.078295	-0.804833
H123	H	1.166749	-0.754348	-0.579772
H124	H	0.814494	-1.003600	-0.770786
H125	H	1.549709	-0.821350	-0.720493
O126	O	1.027442	-0.275162	-0.382696
C127	C	1.042755	-0.282925	-0.491516
H128	H	1.110672	-0.355534	-0.504826
H129	H	0.968097	-0.312378	-0.528631
H130	H	1.061877	-0.187143	-0.529085
O131	O	1.394536	-0.442207	-0.170222
C132	C	1.375798	-0.546255	-0.099801
H133	H	1.304292	-0.592745	-0.127424
H134	H	1.447421	-0.617064	-0.097066
H135	H	1.360531	-0.513093	-0.017974
