data_functionalizedCrystal
_audit_creation_method	'MofGen! by Chris Wilmer'
_symmetry_space_group_name_H-M	'P1'
_symmetry_Int_Tables_number	1
_symmetry_cell_setting	triclinic
loop_
_symmetry_equiv_pos_as_xyz
  x,y,z
_cell_length_a	10.654545
_cell_length_b	11.792254
_cell_length_c	9.130313
_cell_angle_alpha	89.995304
_cell_angle_beta	89.996934
_cell_angle_gamma	84.340838
loop_
_atom_site_label
_atom_site_type_symbol
_atom_site_fract_x
_atom_site_fract_y
_atom_site_fract_z
O1	O	1.667400	0.159395	-0.121786
O2	O	1.301878	0.174588	-0.121792
O3	O	1.493501	0.001842	-0.121778
O4	O	1.475777	0.332141	-0.121799
O5	O	1.493488	0.001837	0.121821
O6	O	1.301865	0.174583	0.121807
O7	O	1.667387	0.159389	0.121813
Cu8	Cu	1.484625	0.166986	0.144053
Cu9	Cu	1.484640	0.166992	-0.144031
O10	O	1.475764	0.332136	0.121800
C11	C	1.255077	0.173471	0.000007
C12	C	1.115643	0.170137	0.000005
C13	C	1.050135	0.168564	0.132792
C14	C	0.919125	0.165412	0.132792
C15	C	0.919140	0.165410	-0.132793
C16	C	1.050149	0.168554	-0.132792
C17	C	1.492378	-0.040454	0.000021
C18	C	1.489036	-0.166474	0.000019
C19	C	1.486321	-0.268817	0.000014
C20	C	1.482926	-0.397212	0.000001
C21	C	1.714188	0.160506	0.000011
C22	C	1.853623	0.163841	0.000004
C23	C	1.476887	0.374431	-0.000002
C24	C	1.480229	0.500452	-0.000011
N25	N	1.484623	0.166981	0.346675
N26	N	1.484652	0.166988	-0.346654
C27	C	1.569502	0.090521	0.423333
C28	C	1.569514	0.090522	0.576670
C29	C	1.399764	0.243451	0.576678
C30	C	1.399747	0.243444	0.423344
H31	H	0.865794	0.164132	0.240920
C32	C	1.182814	0.308264	0.623939
C33	C	1.306476	0.327497	0.660963
H34	H	1.125224	0.360149	0.675981
H35	H	1.170661	0.319210	0.521662
H36	H	1.168687	0.232393	0.649092
H37	H	1.320606	0.403367	0.635801
H38	H	1.318634	0.316561	0.763264
C39	C	1.737282	-0.060651	0.438733
C40	C	1.662785	0.006464	0.339058
H41	H	1.794864	-0.112552	0.386705
H42	H	1.782783	-0.013023	0.498515
H43	H	1.684720	-0.101909	0.498562
H44	H	1.715346	0.047729	0.279236
H45	H	1.617281	-0.041170	0.279251
H46	H	1.330622	0.305707	0.360925
H47	H	0.865798	0.164123	-0.240911
H48	H	1.103456	0.169853	0.240923
H49	H	1.103487	0.169831	-0.240929
H50	H	1.638629	0.028260	0.639081
