data_functionalizedCrystal
_audit_creation_method	'MofGen! by Chris Wilmer'
_symmetry_space_group_name_H-M	'P1'
_symmetry_Int_Tables_number	1
_symmetry_cell_setting	triclinic
loop_
_symmetry_equiv_pos_as_xyz
  x,y,z
_cell_length_a	17.019383
_cell_length_b	17.038272
_cell_length_c	14.472310
_cell_angle_alpha	89.999298
_cell_angle_beta	86.111005
_cell_angle_gamma	87.246883
loop_
_atom_site_label
_atom_site_type_symbol
_atom_site_fract_x
_atom_site_fract_y
_atom_site_fract_z
O1	O	1.053375	0.099648	-0.160578
O2	O	0.824562	0.112337	-0.142391
O3	O	0.937609	-0.007822	-0.151369
O4	O	0.940328	0.219807	-0.151600
O5	O	0.937578	-0.007815	0.002315
O6	O	0.824531	0.112344	0.011293
O7	O	1.053344	0.099655	-0.006894
Cu8	Cu	0.938935	0.106000	0.016232
Cu9	Cu	0.938971	0.105992	-0.165517
O10	O	0.940298	0.219814	0.002084
C11	C	0.795125	0.111858	-0.063210
C12	C	0.707458	0.110409	-0.056242
C13	C	0.935120	-0.036944	-0.074331
C14	C	0.927739	-0.123731	-0.073744
C15	C	0.666281	0.109727	-0.136735
C16	C	0.583908	0.108378	-0.130174
C17	C	0.542713	0.107706	-0.043119
C18	C	0.583895	0.108391	0.037380
C19	C	0.666267	0.109745	0.030818
C20	C	0.294003	0.103622	-0.019115
C21	C	0.211625	0.102266	-0.012559
C22	C	0.211643	0.102254	-0.180113
C23	C	0.294017	0.103604	-0.186667
C24	C	0.335192	0.104293	-0.106169
C25	C	0.458514	0.106325	-0.036410
C26	C	0.419389	0.105679	-0.112878
C27	C	0.995499	-0.173900	-0.079129
C28	C	0.988560	-0.255445	-0.078587
C29	C	0.913860	-0.286820	-0.072652
C30	C	0.846095	-0.236644	-0.067270
C31	C	0.853035	-0.155101	-0.067819
C32	C	0.889342	-0.532558	-0.070716
C33	C	0.882407	-0.614108	-0.070164
C34	C	1.024873	-0.632903	-0.081483
C35	C	1.031807	-0.551357	-0.082026
C36	C	0.964041	-0.501189	-0.076649
C37	C	0.906765	-0.370171	-0.072094
C38	C	0.971137	-0.417839	-0.077213
C39	C	1.082781	0.100134	-0.086077
C40	C	1.170449	0.101583	-0.093051
C41	C	0.942787	0.248937	-0.074957
C42	C	0.950167	0.335723	-0.075549
N43	N	0.938915	0.106005	0.144065
N44	N	0.938997	0.105980	-0.293350
C45	C	0.938970	0.105989	0.518152
C46	C	0.878249	0.170068	0.483808
C47	C	0.878415	0.170302	0.376707
C48	C	0.938942	0.105997	0.332563
C49	C	1.022440	0.123726	0.364762
C50	C	1.022105	0.124181	0.471910
C51	C	0.916915	0.023990	0.480439
C52	C	0.915064	0.024539	0.373459
C53	C	0.938932	0.106000	0.227675
C54	C	0.938986	0.105987	0.623038
H55	H	0.699816	0.110271	-0.207624
H56	H	0.327518	0.104178	0.046433
N57	N	0.779943	-0.100997	-0.061995
H58	H	0.779637	-0.066749	-0.004997
H59	H	0.779692	-0.066792	-0.118979
N60	N	0.167196	0.101538	0.081343
H61	H	0.205816	0.101639	0.131335
H62	H	0.130266	0.149690	0.088205
N63	N	0.897617	0.250962	0.341209
H64	H	0.906034	0.286498	0.395152
H65	H	0.947139	0.246901	0.298556
H66	H	1.040704	0.183980	0.495403
N67	N	1.061643	-0.309558	-0.084386
H68	H	1.094011	-0.299474	-0.143922
H69	H	1.093912	-0.299450	-0.029937
H70	H	1.041341	0.182842	0.336418
N71	N	0.796439	0.156331	0.348435
H72	H	0.759869	0.149966	0.405595
H73	H	0.776878	0.202610	0.311327
N74	N	0.463819	0.106394	-0.206769
H75	H	0.425238	0.105752	-0.256772
H76	H	0.494858	0.155396	-0.212898
H77	H	0.955997	-0.025374	0.343434
N78	N	1.076071	-0.140067	-0.085521
H79	H	1.106018	-0.158364	-0.144872
H80	H	1.070121	-0.080802	-0.085008
N81	N	0.796020	0.156335	0.524502
H82	H	0.797327	0.108444	0.565598
H83	H	0.775411	0.203719	0.562246
N84	N	0.167231	0.101525	-0.266930
H85	H	0.205827	0.102158	-0.323073
H86	H	0.136193	0.052522	-0.268108
H87	H	1.031958	-0.392290	-0.082065
N88	N	0.897463	0.250221	0.517888
H89	H	0.894738	0.250539	0.587820
H90	H	0.952336	0.262724	0.493087
H91	H	1.068991	0.079344	0.494092
N92	N	0.975480	-0.039178	0.509331
H93	H	1.016104	-0.014843	0.546665
H94	H	0.946952	-0.079517	0.548229
N95	N	0.414078	0.105596	0.057481
H96	H	0.382210	0.057122	0.063210
H97	H	0.452766	0.105196	0.107417
H98	H	1.068931	0.078292	0.335586
N99	N	1.112378	-0.517522	-0.088459
H100	H	1.106492	-0.458252	-0.087995
H101	H	1.142272	-0.535876	-0.033870
H102	H	1.080044	-0.673758	-0.085863
N103	N	0.826199	-0.404018	-0.065683
H104	H	0.796255	-0.385722	-0.006331
H105	H	0.796336	-0.385710	-0.120315
N106	N	0.837611	0.001386	0.522567
H107	H	0.815176	0.044077	0.566533
H108	H	0.800613	-0.005497	0.471796
N109	N	0.539495	0.107635	-0.216990
H110	H	0.578091	0.108259	-0.273134
H111	H	0.508459	0.058631	-0.218154
N112	N	0.833642	0.006736	0.346377
H113	H	0.812309	0.051241	0.307769
H114	H	0.836549	-0.043634	0.309250
N115	N	0.338448	0.104317	-0.280562
H116	H	0.299863	0.103677	-0.330560
H117	H	0.369490	0.153316	-0.286696
N118	N	0.539462	0.107670	0.131273
H119	H	0.507598	0.059195	0.137011
H120	H	0.578156	0.107275	0.181204
N121	N	0.801834	-0.647950	-0.063764
H122	H	0.759957	-0.603795	-0.060444
H123	H	0.795871	-0.681375	-0.120262
H124	H	0.699792	0.110304	0.096364
H125	H	0.834162	-0.491720	-0.066337
H126	H	0.785272	-0.262196	-0.062443
