data_functionalizedCrystal
_audit_creation_method	'MofGen! by Chris Wilmer'
_symmetry_space_group_name_H-M	'P1'
_symmetry_Int_Tables_number	1
_symmetry_cell_setting	triclinic
loop_
_symmetry_equiv_pos_as_xyz
  x,y,z
_cell_length_a	18.050591
_cell_length_b	16.625546
_cell_length_c	18.050582
_cell_angle_alpha	90.023778
_cell_angle_beta	90.022741
_cell_angle_gamma	90.015901
loop_
_atom_site_label
_atom_site_type_symbol
_atom_site_fract_x
_atom_site_fract_y
_atom_site_fract_z
Zn1	Zn	-1.135322	0.321194	-0.420061
Zn2	Zn	-1.135245	0.456022	-0.295869
Zn3	Zn	-1.011141	0.321191	-0.295868
Zn4	Zn	-1.011102	0.455973	-0.420000
O5	O	-1.073203	0.388595	-0.357950
O6	O	-1.239237	0.339101	-0.403612
O7	O	-1.118767	0.438155	-0.191944
O8	O	-1.027663	0.208359	-0.312368
O9	O	-1.239180	0.438158	-0.312369
O10	O	-1.118898	0.208361	-0.403612
O11	O	-1.027588	0.339096	-0.191944
O12	O	-0.907212	0.339049	-0.312309
O13	O	-1.027596	0.438075	-0.523933
O14	O	-0.907183	0.438072	-0.403508
O15	O	-1.118860	0.339054	-0.523978
O16	O	-1.118729	0.568848	-0.312309
O17	O	-1.027521	0.568812	-0.403508
C18	C	-0.880251	0.388556	-0.357902
C19	C	-0.797705	0.388558	-0.357900
C20	C	-0.548873	0.334639	-0.308410
C21	C	-0.598304	0.315011	-0.376189
C22	C	-0.500584	0.388582	-0.357945
C23	C	-0.598236	0.408160	-0.290148
C24	C	-0.646570	0.388568	-0.357919
C25	C	-0.548927	0.368916	-0.425760
C26	C	-0.548855	0.462100	-0.339673
C27	C	-0.598263	0.442500	-0.407499
C28	C	-0.416486	0.388588	-0.357959
C29	C	-0.730666	0.388563	-0.357913
C30	C	-1.073132	0.598086	-0.357918
C31	C	-1.073170	0.687707	-0.357930
C32	C	-1.073232	0.388559	-0.551655
C33	C	-1.073244	0.388544	-0.634201
C34	C	-0.266908	0.388621	-0.357984
C35	C	-0.349454	0.388595	-0.357966
C36	C	-1.073294	0.178286	-0.357997
C37	C	-1.073332	0.088665	-0.358017
C38	C	-1.073300	1.015883	-0.358007
C39	C	-1.073261	0.924574	-0.357988
C40	C	-1.073234	0.851798	-0.357968
C41	C	-1.073197	0.760483	-0.357950
C42	C	-1.023653	0.442318	-0.833627
C43	C	-1.091410	0.462036	-0.883028
C44	C	-1.073281	0.388482	-0.785332
C45	C	-1.005561	0.368742	-0.883013
C46	C	-1.073310	0.388425	-0.931317
C47	C	-1.141073	0.408239	-0.833645
C48	C	-1.055179	0.314911	-0.833626
C49	C	-1.122983	0.334601	-0.883004
C50	C	-1.073263	0.388518	-0.701233
C51	C	-1.073336	0.388389	-1.015413
C52	C	-1.073216	0.388572	-0.164997
C53	C	-1.073348	0.388361	-0.082452
H54	H	-0.619897	0.424725	-0.232823
N55	N	-0.521672	0.277372	-0.255943
N56	N	-0.537536	0.204568	-0.262886
H57	H	-0.518325	0.164121	-0.225834
H58	H	-1.106738	0.524230	-0.904728
N59	N	-1.212953	0.429235	-0.806549
N60	N	-1.224535	0.432672	-0.738352
H61	H	-1.275299	0.447500	-0.719213
N62	N	-0.625569	0.237020	-0.395579
N63	N	-0.665209	0.228313	-0.451810
H64	H	-0.684464	0.173231	-0.465501
N65	N	-1.175703	0.277447	-0.910022
N66	N	-1.213551	0.237188	-0.865458
H67	H	-1.250787	0.196825	-0.884539
N68	N	-0.521567	0.540070	-0.320263
N69	N	-0.453342	0.552678	-0.317713
H70	H	-0.434067	0.607744	-0.303997
N71	N	-0.933710	0.347811	-0.910229
N72	N	-0.922366	0.343856	-0.978442
H73	H	-0.871620	0.329078	-0.997663
N74	N	-0.521863	0.348058	-0.497694
N75	N	-0.453672	0.344676	-0.509309
H76	H	-0.434556	0.329947	-0.560112
N77	N	-0.625291	0.499718	-0.460100
N78	N	-0.609345	0.492436	-0.527149
H79	H	-0.628434	0.532844	-0.564301
H80	H	-0.981723	0.487905	-0.811948
N81	N	-1.035919	0.236911	-0.806388
N82	N	-0.974445	0.206867	-0.822175
H83	H	-0.960835	0.151779	-0.802938
