data_functionalizedCrystal
_audit_creation_method	'MofGen! by Chris Wilmer'
_symmetry_space_group_name_H-M	'P1'
_symmetry_Int_Tables_number	1
_symmetry_cell_setting	triclinic
loop_
_symmetry_equiv_pos_as_xyz
  x,y,z
_cell_length_a	21.295417
_cell_length_b	14.908783
_cell_length_c	14.908308
_cell_angle_alpha	89.788727
_cell_angle_beta	93.260635
_cell_angle_gamma	93.321081
loop_
_atom_site_label
_atom_site_type_symbol
_atom_site_fract_x
_atom_site_fract_y
_atom_site_fract_z
Zn1	Zn	-0.220173	1.345261	-0.587798
Zn2	Zn	0.279827	1.845261	-0.087798
Zn3	Zn	-0.319050	1.353817	-0.437424
Zn4	Zn	0.180950	1.853817	0.062576
Zn5	Zn	-0.219492	1.203574	-0.428769
Zn6	Zn	0.280508	1.703574	0.071231
Zn7	Zn	-0.331104	1.194840	-0.579044
Zn8	Zn	0.168896	1.694840	-0.079044
O9	O	-0.272455	1.274373	-0.508259
O10	O	0.227545	1.774373	-0.008259
O11	O	-0.228530	1.472225	-0.575136
O12	O	0.271470	1.972225	-0.075136
O13	O	-0.300514	1.341124	-0.310453
O14	O	0.199486	1.841124	0.189547
O15	O	-0.131491	1.222444	-0.449907
O16	O	0.368509	1.722444	0.050093
O17	O	-0.301174	1.478511	-0.464657
O18	O	0.198826	1.978511	0.035343
O19	O	-0.131992	1.326540	-0.566744
O20	O	0.368008	1.826540	-0.066744
O21	O	-0.227369	1.230741	-0.304095
O22	O	0.272631	1.730741	0.195905
O23	O	-0.239057	1.076587	-0.441418
O24	O	0.260943	1.576587	0.058582
O25	O	-0.321719	1.207557	-0.706027
O26	O	0.178281	1.707557	-0.206027
O27	O	-0.321058	1.070170	-0.551824
O28	O	0.178942	1.570170	-0.051824
O29	O	-0.240218	1.318071	-0.712459
O30	O	0.259782	1.818071	-0.212459
O31	O	-0.408740	1.332654	-0.456168
O32	O	0.091260	1.832654	0.043832
O33	O	-0.417596	1.215854	-0.560216
O34	O	0.082404	1.715854	-0.060216
C35	C	-0.281292	1.040752	-0.494732
C36	C	0.218708	1.540752	0.005268
C37	C	-0.285089	0.940807	-0.488967
C38	C	0.214911	1.440807	0.011033
C39	C	-0.216696	0.746441	-0.593351
C40	C	0.283304	1.246441	-0.093351
C41	C	-0.220261	0.652533	-0.587937
C42	C	0.279739	1.152533	-0.087937
C43	C	-0.295781	0.659082	-0.472721
C44	C	0.204219	1.159082	0.027279
C45	C	-0.292216	0.752990	-0.478135
C46	C	0.207784	1.252990	0.021865
C47	C	-0.252672	0.796666	-0.538453
C48	C	0.247328	1.296666	-0.038453
C49	C	-0.249111	0.890575	-0.543871
C50	C	0.250889	1.390575	-0.043871
C51	C	-0.324627	0.897123	-0.428651
C52	C	0.175373	1.397123	0.071349
C53	C	-0.328192	0.803215	-0.423237
C54	C	0.171808	1.303215	0.076763
C55	C	-0.436009	1.274258	-0.508202
C56	C	0.063991	1.774258	-0.008202
C57	C	-0.505976	1.274289	-0.508213
C58	C	-0.005976	1.774289	-0.008213
C59	C	-0.534211	1.335155	-0.454097
C60	C	-0.034211	1.835155	0.045903
C61	C	-0.599953	1.335196	-0.454120
C62	C	-0.099953	1.835196	0.045880
C63	C	-0.637457	1.274356	-0.508248
C64	C	-0.137457	1.774356	-0.008248
C65	C	-0.609215	1.213486	-0.562374
C66	C	-0.109215	1.713486	-0.062374
C67	C	-0.543474	1.213453	-0.562357
C68	C	-0.043474	1.713453	-0.062357
N69	N	-0.743994	1.195300	-0.510548
N70	N	-0.243994	1.695300	-0.010548
N71	N	-0.806445	1.195335	-0.510559
N72	N	-0.306445	1.695335	-0.010559
C73	C	-0.835530	1.274454	-0.508305
C74	C	-0.335530	1.774454	-0.008305
N75	N	-0.799805	1.353539	-0.506021
N76	N	-0.299805	1.853539	-0.006021
N77	N	-0.737349	1.353504	-0.506005
N78	N	-0.237349	1.853504	-0.006005
C79	C	-0.708742	1.274386	-0.508273
C80	C	-0.208742	1.774386	-0.008273
C81	C	-0.935050	1.335369	-0.454211
C82	C	-0.435050	1.835369	0.045789
C83	C	-1.000793	1.335411	-0.454240
C84	C	-0.500793	1.835411	0.045760
C85	C	-1.010054	1.213693	-0.562489
C86	C	-0.510054	1.713693	-0.062489
C87	C	-0.944312	1.213658	-0.562466
C88	C	-0.444312	1.713658	-0.062466
C89	C	-0.906814	1.274495	-0.508322
C90	C	-0.406814	1.774495	-0.008322
C91	C	-0.108262	1.274512	-0.508337
C92	C	0.391738	1.774512	-0.008337
C93	C	-0.038293	1.274571	-0.508370
C94	C	0.461707	1.774571	-0.008370
C95	C	-0.282389	1.260885	-0.742780
C96	C	0.217611	1.760885	-0.242780
C97	C	-0.286622	1.255138	-0.842719
C98	C	0.213378	1.755138	-0.342719
C99	C	-0.263583	1.508906	-0.521838
C100	C	0.236417	2.008906	-0.021838
C101	C	-0.259803	1.608850	-0.527625
C102	C	0.240197	2.108850	-0.027625
C103	C	-0.209696	1.359412	-1.037213
C104	C	0.290304	1.859412	-0.537213
C105	C	-0.213671	1.354015	-1.131115
C106	C	0.286329	1.854015	-0.631115
C107	C	-0.298545	1.238941	-1.124425
C108	C	0.201455	1.738941	-0.624425
C109	C	-0.294569	1.244339	-1.030524
C110	C	0.205431	1.744339	-0.530524
C111	C	-0.250144	1.304577	-0.986921
C112	C	0.249856	1.804577	-0.486921
C113	C	-0.246172	1.309979	-0.893018
C114	C	0.253828	1.809979	-0.393018
C115	C	-0.331042	1.194901	-0.886330
C116	C	0.168958	1.694901	-0.386330
C117	C	-0.335018	1.189503	-0.980231
C118	C	0.164982	1.689503	-0.480231
C119	C	-0.262512	1.287860	-0.274653
C120	C	0.237488	1.787860	0.225347
C121	C	-0.258095	1.293782	-0.174725
C122	C	0.241905	1.793782	0.325275
H123	H	-0.327967	0.623505	-0.423603
H124	H	0.172033	1.123505	0.076397
C125	C	-0.492967	1.402082	-0.394552
C126	C	0.007033	1.902082	0.105448
H127	H	-0.519202	1.438343	-0.362332
H128	H	-0.019202	1.938343	0.137668
H129	H	-0.466993	1.369964	-0.353351
H130	H	0.033007	1.869964	0.146649
H131	H	-0.467264	1.439244	-0.431247
H132	H	0.032736	1.939244	0.068753
C133	C	-0.631019	1.402144	-0.394583
C134	C	-0.131019	1.902144	0.105417
H135	H	-0.599270	1.438366	-0.362330
H136	H	-0.099270	1.938366	0.137670
H137	H	-0.656607	1.439330	-0.431275
H138	H	-0.156607	1.939330	0.068725
H139	H	-0.656336	1.370030	-0.353397
H140	H	-0.156336	1.870030	0.146603
C141	C	-0.371688	0.755166	-0.356896
C142	C	0.128312	1.255166	0.143104
H143	H	-0.368663	0.692044	-0.361537
H144	H	0.131337	1.192044	0.138463
H145	H	-0.359275	0.774021	-0.297393
H146	H	0.140725	1.274021	0.202607
H147	H	-0.413968	0.769783	-0.370845
H148	H	0.086032	1.269783	0.129155
H149	H	-0.180732	1.398665	-1.172060
H150	H	0.319268	1.898665	-0.672060
C151	C	-0.205615	0.938618	-0.610215
C152	C	0.294385	1.438618	-0.110215
H153	H	-0.184694	0.895253	-0.642128
H154	H	0.315306	1.395253	-0.142128
H155	H	-0.229999	0.972998	-0.651444
H156	H	0.270001	1.472998	-0.151444
H157	H	-0.175304	0.977232	-0.577995
H158	H	0.324696	1.477232	-0.077995
C159	C	-0.173206	0.794487	-0.659701
C160	C	0.326794	1.294487	-0.159701
H161	H	-0.152288	0.751124	-0.691621
H162	H	0.347712	1.251124	-0.191621
H163	H	-0.197595	0.828867	-0.700923
H164	H	0.302405	1.328867	-0.200923
H165	H	-0.142892	0.833101	-0.627486
H166	H	0.357108	1.333101	-0.127486
H167	H	-0.190964	0.611643	-0.632639
H168	H	0.309036	1.111643	-0.132639
C169	C	-1.051301	1.146774	-0.622034
C170	C	-0.551301	1.646774	-0.122034
H171	H	-1.094498	1.155508	-0.614293
H172	H	-0.594498	1.655508	-0.114293
H173	H	-1.042559	1.156405	-0.683212
H174	H	-0.542559	1.656405	-0.183212
H175	H	-1.042300	1.087119	-0.605322
H176	H	-0.542300	1.587119	-0.105322
C177	C	-0.197308	1.376235	-0.845052
C178	C	0.302692	1.876235	-0.345052
H179	H	-0.200735	1.371604	-0.781924
H180	H	0.299265	1.871604	-0.281924
H181	H	-0.156162	1.362222	-0.859697
H182	H	0.343838	1.862222	-0.359697
H183	H	-0.204887	1.435762	-0.863935
H184	H	0.295113	1.935762	-0.363935
H185	H	-0.371186	1.140457	-1.015745
H186	H	0.128814	1.640457	-0.515745
C187	C	-0.364203	0.952372	-0.368261
C188	C	0.135797	1.452372	0.131739
H189	H	-0.356416	1.014556	-0.380120
H190	H	0.143584	1.514556	0.119880
H191	H	-0.407649	0.936205	-0.380423
H192	H	0.092351	1.436205	0.119577
H193	H	-0.352950	0.940449	-0.306980
H194	H	0.147050	1.440449	0.193020
H195	H	-0.520485	1.163888	-0.606425
H196	H	-0.020485	1.663888	-0.106425
C197	C	-0.913252	1.146695	-0.621982
C198	C	-0.413252	1.646695	-0.121982
H199	H	-0.945002	1.110460	-0.654216
H200	H	-0.445002	1.610460	-0.154216
H201	H	-0.887929	1.178787	-0.663169
H202	H	-0.387929	1.678787	-0.163169
H203	H	-0.887669	1.109510	-0.585271
H204	H	-0.387669	1.609510	-0.085271
C205	C	-0.347401	1.172677	-1.172398
C206	C	0.152599	1.672677	-0.672398
H207	H	-0.343973	1.177319	-1.235525
H208	H	0.156027	1.677319	-0.735525
H209	H	-0.339822	1.113156	-1.153513
H210	H	0.160178	1.613156	-0.653513
H211	H	-0.388552	1.186688	-1.157763
H212	H	0.111448	1.686688	-0.657763
H213	H	-0.363980	1.150252	-0.845371
H214	H	0.136020	1.650252	-0.345371
H215	H	-0.173526	1.408466	-1.001712
H216	H	0.326474	1.908466	-0.501712
H217	H	-0.639755	1.163951	-0.606447
H218	H	-0.139755	1.663951	-0.106447
H219	H	-0.904517	1.384908	-0.410126
H220	H	-0.404517	1.884908	0.089874
H221	H	-1.023780	1.384980	-0.410175
H222	H	-0.523780	1.884980	0.089825
