data_functionalizedCrystal
_audit_creation_method	'MofGen! by Chris Wilmer'
_symmetry_space_group_name_H-M	'P1'
_symmetry_Int_Tables_number	1
_symmetry_cell_setting	triclinic
loop_
_symmetry_equiv_pos_as_xyz
  x,y,z
_cell_length_a	6.817900
_cell_length_b	17.982783
_cell_length_c	17.110486
_cell_angle_alpha	96.531275
_cell_angle_beta	99.060439
_cell_angle_gamma	102.448572
loop_
_atom_site_label
_atom_site_type_symbol
_atom_site_fract_x
_atom_site_fract_y
_atom_site_fract_z
V1	V	-3.971738	-0.105185	-0.247048
V2	V	-3.471738	0.394815	0.252952
O3	O	-3.965633	0.005288	-0.242007
O4	O	-3.465633	0.505288	0.257993
O5	O	-3.918501	-0.208788	-0.245683
O6	O	-3.418501	0.291212	0.254317
O7	O	-3.901680	-0.103464	-0.354646
O8	O	-3.401680	0.396536	0.145354
O9	O	-3.982570	-0.100765	-0.132290
O10	O	-3.482570	0.399235	0.367710
V11	V	-4.458799	-0.091983	-0.233283
V12	V	-3.958799	0.408017	0.266717
O13	O	-4.225235	-0.134144	-0.277243
O14	O	-3.725235	0.365856	0.222757
O15	O	-4.655499	-0.063024	-0.203087
O16	O	-4.155499	0.436976	0.296913
O17	O	-4.288829	0.011620	-0.234647
O18	O	-3.788829	0.511620	0.265353
O19	O	-4.582300	-0.202456	-0.238323
O20	O	-4.082300	0.297544	0.261677
O21	O	-4.565363	-0.096403	-0.348040
O22	O	-4.065363	0.403597	0.151960
O23	O	-4.305650	-0.093703	-0.125685
O24	O	-3.805650	0.406297	0.374315
C25	C	-3.763025	-0.234048	-0.241870
C26	C	-3.263025	0.265952	0.258130
C27	C	-3.800640	-0.318744	-0.241471
C28	C	-3.300640	0.181256	0.258529
C29	C	-3.793238	-0.347721	-0.168786
C30	C	-3.293238	0.152279	0.331214
C31	C	-3.828600	-0.427303	-0.168415
C32	C	-3.328600	0.072697	0.331585
C33	C	-3.871350	-0.477907	-0.240729
C34	C	-3.371350	0.022093	0.259271
C35	C	-3.878758	-0.448925	-0.313420
C36	C	-3.378758	0.051075	0.186580
C37	C	-3.843411	-0.369345	-0.313791
C38	C	-3.343411	0.130655	0.186209
C39	C	-4.021315	-0.769865	-0.311925
C40	C	-3.521315	-0.269865	0.188075
C41	C	-4.056657	-0.849450	-0.311548
C42	C	-3.556657	-0.349450	0.188452
C43	C	-4.006504	-0.827823	-0.166548
C44	C	-3.506504	-0.327823	0.333452
C45	C	-3.971156	-0.748243	-0.166919
C46	C	-3.471156	-0.248243	0.333081
C47	C	-3.978578	-0.719268	-0.239610
C48	C	-3.478578	-0.219268	0.260390
C49	C	-3.940238	-0.632976	-0.240012
C50	C	-3.440238	-0.132976	0.259988
C51	C	-3.909676	-0.564197	-0.240327
C52	C	-3.409676	-0.064197	0.259673
C53	C	-3.741568	-0.099696	-0.380861
C54	C	-3.241568	0.400304	0.119139
C55	C	-3.765540	-0.098975	-0.468825
C56	C	-3.265540	0.401025	0.031175
C57	C	-3.957911	-0.102438	-0.514194
C58	C	-3.457911	0.397562	-0.014194
C59	C	-3.980423	-0.101760	-0.596845
C60	C	-3.480423	0.398240	-0.096845
C61	C	-3.810564	-0.097624	-0.634127
C62	C	-3.310564	0.402376	-0.134127
C63	C	-3.618176	-0.094158	-0.588752
C64	C	-3.118176	0.405842	-0.088752
C65	C	-3.595664	-0.094830	-0.506101
C66	C	-3.095664	0.405170	-0.006101
C67	C	-3.869472	-0.095398	-0.883475
C68	C	-3.369472	0.404602	-0.383475
C69	C	-3.892001	-0.094728	-0.966132
C70	C	-3.392001	0.405272	-0.466132
C71	C	-4.254246	-0.102329	-0.974219
C72	C	-3.754246	0.397671	-0.474219
C73	C	-4.231719	-0.103006	-0.891567
C74	C	-3.731719	0.396994	-0.391567
C75	C	-4.039333	-0.099536	-0.846199
C76	C	-3.539333	0.400464	-0.346199
C77	C	-3.833571	-0.096933	-0.718610
C78	C	-3.333571	0.403067	-0.218610
C79	C	-4.016325	-0.100221	-0.761716
C80	C	-3.516325	0.399779	-0.261716
C81	C	-4.107647	0.036876	-0.238458
C82	C	-3.607647	0.536876	0.261542
C83	C	-4.049269	0.121572	-0.238862
C84	C	-3.549269	0.621572	0.261138
C85	C	-4.129105	-0.097475	-0.099465
C86	C	-3.629105	0.402525	0.400535
C87	C	-4.084372	-0.098192	-0.011500
C88	C	-3.584372	0.401808	0.488500
H89	H	-4.027334	-0.746284	-0.371113
H90	H	-3.527334	-0.246284	0.128887
F91	F	-3.998618	-0.858666	-0.089184
F92	F	-3.498618	-0.358666	0.410816
H93	H	-3.849461	-0.345755	-0.372979
H94	H	-3.349461	0.154245	0.127021
H95	H	-3.822575	-0.450892	-0.109227
H96	H	-3.322575	0.049108	0.390773
H97	H	-3.479873	-0.090785	-0.619112
H98	H	-2.979873	0.409215	-0.119112
F99	F	-4.185173	-0.105455	-0.645128
F100	F	-3.685173	0.394545	-0.145128
F101	F	-3.925649	-0.694390	-0.089953
F102	F	-3.425649	-0.194390	0.410047
H103	H	-4.091469	-0.890651	-0.370438
H104	H	-3.591469	-0.390651	0.129562
H105	H	-4.370040	-0.106373	-0.861218
H106	H	-3.870040	0.393627	-0.361218
H107	H	-3.439007	-0.091991	-0.469160
H108	H	-2.939007	0.408009	0.030840
H109	H	-3.913582	-0.490134	-0.372299
H110	H	-3.413582	0.009866	0.127701
F111	F	-3.664728	-0.091721	-0.835203
F112	F	-3.164728	0.408279	-0.335203
F113	F	-4.138707	-0.106846	-0.474524
F114	F	-3.638707	0.393154	0.025476
F115	F	-4.458986	-0.106020	-1.022509
F116	F	-3.958986	0.393980	-0.522509
F117	F	-3.711202	-0.090326	-1.005808
F118	F	-3.211202	0.409674	-0.505808
F119	F	-3.652807	-0.092541	-0.758297
F120	F	-3.152807	0.407459	-0.258297
F121	F	-3.747726	-0.293871	-0.091818
F122	F	-3.247726	0.206129	0.408182
F123	F	-4.197093	-0.104621	-0.722036
F124	F	-3.697093	0.395379	-0.222036
