data_functionalizedCrystal
_audit_creation_method	'MofGen! by Chris Wilmer'
_symmetry_space_group_name_H-M	'P1'
_symmetry_Int_Tables_number	1
_symmetry_cell_setting	triclinic
loop_
_symmetry_equiv_pos_as_xyz
  x,y,z
_cell_length_a	15.995350
_cell_length_b	13.339070
_cell_length_c	12.376457
_cell_angle_alpha	104.398083
_cell_angle_beta	78.710333
_cell_angle_gamma	99.560835
loop_
_atom_site_label
_atom_site_type_symbol
_atom_site_fract_x
_atom_site_fract_y
_atom_site_fract_z
O1	O	-1.152819	-0.111027	0.093902
O2	O	-0.912787	-0.127125	0.093925
O3	O	-1.005255	0.028188	0.093913
O4	O	-1.060352	-0.266339	0.093914
O5	O	-0.982137	-0.010588	-0.094096
O6	O	-0.889670	-0.165900	-0.094084
O7	O	-1.129701	-0.149802	-0.094107
Zn8	Zn	-1.006015	-0.164007	-0.123946
Zn9	Zn	-1.036474	-0.112919	0.123764
O10	O	-1.037234	-0.305114	-0.094095
C11	C	-0.869879	-0.145846	-0.000077
C12	C	-0.776467	-0.143848	-0.000068
C13	C	-1.172610	-0.131080	-0.000103
C14	C	-1.266023	-0.133076	-0.000104
C15	C	-0.984389	0.046490	-0.000089
C16	C	-0.956649	0.158793	-0.000082
C17	C	-0.437051	-0.136686	-0.000092
C18	C	-0.458736	-0.026160	-0.000512
C19	C	-0.555943	-0.028067	-0.000080
C20	C	-0.605439	-0.140239	-0.000081
C21	C	-0.590227	-0.172655	0.107278
C22	C	-0.492956	-0.169859	0.107360
C23	C	-0.466859	-0.216239	-0.106442
C24	C	-0.563625	-0.216504	-0.107853
C25	C	-0.700606	-0.142252	-0.000071
C26	C	-0.341886	-0.134675	-0.000094
N27	N	-0.985234	-0.198873	-0.293002
C28	C	-1.058100	-0.323416	-0.000090
C29	C	-1.085841	-0.435718	-0.000090
C30	C	-1.172350	0.523582	-0.000103
C31	C	-1.198415	0.418066	-0.000116
C32	C	-1.137976	0.353243	-0.000107
C33	C	-1.051467	0.393945	-0.000086
C34	C	-1.025397	0.499469	-0.000082
C35	C	-0.991023	0.329130	-0.000086
C36	C	-0.904514	0.369832	-0.000065
C37	C	-0.878449	0.475346	-0.000060
C38	C	-0.938889	0.540170	-0.000069
C39	C	-1.017093	0.223606	-0.000090
C40	C	-0.870140	0.199494	-0.000069
C41	C	-0.844075	0.305009	-0.000056
C42	C	-1.105495	0.002908	-0.648002
C43	C	-1.120035	0.027311	-0.529664
C44	C	-1.086336	-0.029233	-0.470493
C45	C	-1.038094	-0.110184	-0.529671
C46	C	-1.023558	-0.134594	-0.648021
C47	C	-1.004399	-0.166735	-0.470511
C48	C	-0.956158	-0.247686	-0.529689
C49	C	-0.941624	-0.272092	-0.648027
C50	C	-0.975323	-0.215548	-0.707199
C51	C	-1.018935	-0.142325	-0.352162
C52	C	-0.936999	-0.279827	-0.352180
C53	C	-0.922458	-0.304229	-0.470518
N54	N	-1.057260	-0.078046	0.292820
H55	H	-0.564946	-0.001054	-0.077039
C56	C	-0.407045	0.012123	-0.104515
H57	H	-0.371769	-0.038950	-0.148612
H58	H	-0.445468	0.023345	-0.148719
H59	H	-0.371989	0.075589	-0.080374
H60	H	-1.087529	0.190477	-0.000108
H61	H	-0.902351	-0.338014	-0.696210
H62	H	-1.268851	0.384934	-0.000135
C63	C	-1.072001	-0.053292	-0.287074
H64	H	-1.075842	-0.046857	-0.208118
H65	H	-1.044852	0.010234	-0.306469
H66	H	-1.128061	-0.068339	-0.306467
C67	C	-1.173089	0.116354	-0.464577
H68	H	-1.191070	0.146541	-0.516763
H69	H	-1.222071	0.089463	-0.418403
H70	H	-1.138847	0.168011	-0.418420
C71	C	-1.166649	0.237182	-0.000107
H72	H	-1.226827	0.222227	-0.000109
H73	H	-1.137345	0.195330	-0.065661
H74	H	-1.153478	0.222389	0.065473
H75	H	-1.221549	0.576367	-0.000120
H76	H	-0.820924	0.146713	-0.000068
C77	C	-0.431169	0.054633	0.102913
H78	H	-0.406505	0.021299	0.146351
H79	H	-0.390062	0.107772	0.078224
H80	H	-0.479943	0.084657	0.147986
C81	C	-0.910217	0.656237	-0.000061
H82	H	-0.958604	0.689008	-0.000072
H83	H	-0.885245	0.689175	0.065504
H84	H	-0.869124	0.662132	-0.065630
C85	C	-0.869403	-0.393277	-0.535621
H86	H	-0.865581	-0.399717	-0.614574
H87	H	-0.813344	-0.378256	-0.516240
H88	H	-0.896568	-0.456804	-0.516226
H89	H	-0.427916	-0.196860	-0.187817
C90	C	-0.592846	0.051720	0.104072
H91	H	-0.652450	0.050831	0.104688
H92	H	-0.584856	0.034114	0.170848
H93	H	-0.564007	0.119447	0.100926
C94	C	-0.469061	-0.093748	0.215766
H95	H	-0.518774	-0.064820	0.259338
H96	H	-0.446864	-0.130090	0.258689
H97	H	-0.426812	-0.039358	0.196147
C98	C	-0.475685	-0.278196	0.113971
H99	H	-0.528094	-0.323717	0.116603
H100	H	-0.436454	-0.305511	0.049236
H101	H	-0.451868	-0.272190	0.180182
H102	H	-1.132934	0.048934	-0.696187
H103	H	-0.619623	-0.118283	0.187176
C104	C	-0.959334	-0.242393	-0.837372
H105	H	-0.986316	-0.197124	-0.864131
H106	H	-0.899308	-0.234035	-0.864154
H107	H	-0.982533	-0.312583	-0.864139
C108	C	-0.899932	-0.342033	-0.287104
H109	H	-0.915492	-0.315897	-0.208148
H110	H	-0.922328	-0.413554	-0.306495
H111	H	-0.839104	-0.335006	-0.306504
C112	C	-0.635839	-0.282864	0.112684
H113	H	-0.664638	-0.310150	0.049366
H114	H	-0.594620	-0.326934	0.111685
H115	H	-0.676417	-0.279494	0.180334
H116	H	-0.808007	0.508480	-0.000051
C117	C	-0.748918	0.349787	-0.000044
H118	H	-0.742053	0.421911	-0.000051
H119	H	-0.731060	0.341061	0.065520
H120	H	-0.714937	0.314022	-0.065614
H121	H	-1.098176	-0.009361	-0.374137
H122	H	-0.571923	-0.193057	-0.187276
H123	H	-0.597196	-0.299640	-0.114338
H124	H	-0.453954	-0.297943	-0.107168
