data_functionalizedCrystal
_audit_creation_method	'MofGen! by Chris Wilmer'
_symmetry_space_group_name_H-M	'P1'
_symmetry_Int_Tables_number	1
_symmetry_cell_setting	triclinic
loop_
_symmetry_equiv_pos_as_xyz
  x,y,z
_cell_length_a	14.519710
_cell_length_b	14.519731
_cell_length_c	13.596369
_cell_angle_alpha	89.993029
_cell_angle_beta	90.004381
_cell_angle_gamma	96.315501
loop_
_atom_site_label
_atom_site_type_symbol
_atom_site_fract_x
_atom_site_fract_y
_atom_site_fract_z
O1	O	1.223878	-0.120892	0.081772
O2	O	1.723878	0.379108	0.581772
O3	O	0.955402	-0.135128	0.081779
O4	O	1.455402	0.364872	0.581779
O5	O	1.096748	0.006227	0.081766
O6	O	1.596748	0.506227	0.581766
O7	O	1.082532	-0.262247	0.081785
O8	O	1.582532	0.237753	0.581785
O9	O	1.096734	0.006235	-0.081816
O10	O	1.596734	0.506235	0.418184
O11	O	0.955388	-0.135120	-0.081804
O12	O	1.455388	0.364880	0.418196
O13	O	1.223864	-0.120884	-0.081811
O14	O	1.723864	0.379116	0.418189
Zn15	Zn	1.089623	-0.128001	-0.107780
Zn16	Zn	1.589623	0.371999	0.392220
Zn17	Zn	1.089642	-0.128011	0.107748
Zn18	Zn	1.589642	0.371989	0.607748
O19	O	1.082518	-0.262239	-0.081798
O20	O	1.582518	0.237761	0.418202
C21	C	0.921035	-0.134461	-0.000012
C22	C	1.421035	0.365539	0.499988
C23	C	0.818654	-0.132473	-0.000009
C24	C	1.318654	0.367527	0.499991
N25	N	1.089617	-0.127994	-0.254871
N26	N	1.589617	0.372006	0.245129
C27	C	1.096075	0.040591	-0.000025
C28	C	1.596075	0.540591	0.499975
C29	C	1.094079	0.142971	-0.000026
C30	C	1.594079	0.642971	0.499974
C31	C	1.258230	-0.121551	-0.000018
C32	C	1.758230	0.378449	0.499982
C33	C	1.360612	-0.123539	-0.000014
C34	C	1.860612	0.376461	0.499986
C35	C	1.735508	-0.130859	-0.000013
C36	C	2.235508	0.369141	0.499987
C37	C	1.631200	-0.128826	-0.000013
C38	C	2.131200	0.371174	0.499987
C39	C	1.548063	-0.127199	-0.000012
C40	C	2.048063	0.372801	0.499988
C41	C	1.443749	-0.125166	-0.000014
C42	C	1.943749	0.374834	0.499986
C43	C	1.083191	-0.296603	-0.000004
C44	C	1.583191	0.203397	0.499996
C45	C	1.085187	-0.398983	0.000003
C46	C	1.585187	0.101017	0.500003
C47	C	1.092457	0.226115	-0.000023
C48	C	1.592457	0.726115	0.499977
C49	C	1.090430	0.330424	-0.000016
C50	C	1.590430	0.830424	0.499984
C51	C	1.088822	0.413563	-0.000009
C52	C	1.588822	0.913563	0.499991
C53	C	1.086795	0.517878	-0.000004
C54	C	1.586795	1.017878	0.499996
C55	C	1.089641	-0.128012	-0.656162
C56	C	1.589641	0.371988	-0.156162
C57	C	1.089632	-0.128010	-0.544511
C58	C	1.589632	0.371990	-0.044511
C59	C	1.089630	-0.128004	-0.455520
C60	C	1.589630	0.371996	0.044480
C61	C	1.089619	-0.128000	-0.343862
C62	C	1.589619	0.372000	0.156138
N63	N	1.089655	-0.128011	0.254840
N64	N	1.589655	0.371989	0.754840
