data_functionalizedCrystal
_audit_creation_method	'MofGen! by Chris Wilmer'
_symmetry_space_group_name_H-M	'P1'
_symmetry_Int_Tables_number	1
_symmetry_cell_setting	triclinic
loop_
_symmetry_equiv_pos_as_xyz
  x,y,z
_cell_length_a	17.639115
_cell_length_b	18.215404
_cell_length_c	18.215399
_cell_angle_alpha	90.027515
_cell_angle_beta	78.794130
_cell_angle_gamma	78.828295
loop_
_atom_site_label
_atom_site_type_symbol
_atom_site_fract_x
_atom_site_fract_y
_atom_site_fract_z
Zn1	Zn	-1.208241	0.520259	-0.188245
Zn2	Zn	-0.708241	1.020259	0.311755
Zn3	Zn	-1.208145	0.643313	-0.065197
Zn4	Zn	-0.708145	1.143313	0.434803
Zn5	Zn	-1.076077	0.495423	-0.090118
Zn6	Zn	-0.576077	0.995423	0.409882
Zn7	Zn	-1.076043	0.618423	-0.213137
Zn8	Zn	-0.576043	1.118423	0.286863
O9	O	-1.142127	0.569354	-0.139174
O10	O	-0.642127	1.069354	0.360826
O11	O	-1.318825	0.557394	-0.151075
O12	O	-0.818825	1.057394	0.348925
O13	O	-1.190600	0.623717	0.034476
O14	O	-0.690600	1.123717	0.534476
O15	O	-1.093663	0.395743	-0.103147
O16	O	-0.593663	0.895743	0.396853
O17	O	-1.318755	0.647800	-0.060673
O18	O	-0.818755	1.147800	0.439327
O19	O	-1.190764	0.413991	-0.175240
O20	O	-0.690764	0.913991	0.324760
O21	O	-1.093570	0.515063	0.016167
O22	O	-0.593570	1.015063	0.516167
O23	O	-0.965476	0.490928	-0.127284
O24	O	-0.465476	0.990928	0.372716
O25	O	-1.093605	0.605379	-0.312814
O26	O	-0.593605	1.105379	0.187186
O27	O	-0.965451	0.581295	-0.217665
O28	O	-0.465451	1.081295	0.282335
O29	O	-1.190731	0.533259	-0.294526
O30	O	-0.690731	1.033259	0.205474
O31	O	-1.190567	0.742985	-0.084810
O32	O	-0.690567	1.242985	0.415190
O33	O	-1.093512	0.724698	-0.193500
O34	O	-0.593512	1.224698	0.306500
C35	C	-0.936787	0.530716	-0.177880
C36	C	-0.436787	1.030716	0.322120
C37	C	-0.848941	0.514204	-0.194456
C38	C	-0.348941	1.014204	0.305544
C39	C	-0.725163	0.443939	-0.264955
C40	C	-0.225163	0.943939	0.235045
C41	C	-0.807707	0.459460	-0.249374
C42	C	-0.307707	0.959460	0.250626
C43	C	-0.807641	0.553447	-0.155094
C44	C	-0.307641	1.053447	0.344906
C45	C	-0.725096	0.537932	-0.170665
C46	C	-0.225096	1.037932	0.329335
C47	C	-0.683863	0.483177	-0.225596
C48	C	-0.183863	0.983177	0.274404
C49	C	-0.683796	0.577170	-0.131307
C50	C	-0.183796	1.077170	0.368693
C51	C	-0.601257	0.561658	-0.146879
C52	C	-0.101257	1.061658	0.353121
C53	C	-0.560019	0.506908	-0.201809
C54	C	-0.060019	1.006908	0.298191
C55	C	-0.601324	0.467665	-0.241169
C56	C	-0.101324	0.967665	0.258831
C57	C	-0.725030	0.631928	-0.076379
C58	C	-0.225030	1.131928	0.423621
C59	C	-0.683731	0.671167	-0.037021
C60	C	-0.183731	1.171167	0.462979
C61	C	-0.601191	0.655651	-0.052589
C62	C	-0.101191	1.155651	0.447411
C63	C	-0.559952	0.600901	-0.107519
C64	C	-0.059952	1.100901	0.392481
C65	C	-0.559885	0.694894	-0.013230
C66	C	-0.059885	1.194894	0.486770
C67	C	-0.477347	0.679382	-0.028802
C68	C	0.022653	1.179382	0.471198
C69	C	-0.477413	0.585389	-0.123092
C70	C	0.022587	1.085389	0.376908
C71	C	-1.142047	0.760546	-0.139164
C72	C	-0.642047	1.260546	0.360836
C73	C	-1.142085	0.842352	-0.139171
C74	C	-0.642085	1.342352	0.360829
C75	C	-0.348268	0.608132	-0.100311
C76	C	0.151732	1.108132	0.399689
C77	C	-0.436114	0.624627	-0.083733
C78	C	0.063886	1.124627	0.416267
C79	C	-1.192744	1.040066	-0.082649
C80	C	-0.692744	1.540066	0.417351
C81	C	-1.192781	1.116932	-0.082664
C82	C	-0.692781	1.616932	0.417336
C83	C	-1.091630	1.097913	-0.195783
C84	C	-0.591630	1.597913	0.304217
C85	C	-1.091598	1.021050	-0.195770
C86	C	-0.591598	1.521050	0.304230
C87	C	-1.142154	0.992128	-0.139199
C88	C	-0.642154	1.492128	0.360801
C89	C	-1.142223	1.145857	-0.139227
C90	C	-0.642223	1.645857	0.360773
C91	C	-1.142262	1.229198	-0.139243
C92	C	-0.642262	1.729198	0.360757
C93	C	-1.142115	0.908782	-0.139183
C94	C	-0.642115	1.408782	0.360817
C95	C	-1.142175	0.569313	-0.331118
C96	C	-0.642175	1.069313	0.168882
C97	C	-1.142195	0.569295	-0.412913
C98	C	-0.642195	1.069295	0.087087
C99	C	-1.142233	1.377421	-0.139209
C100	C	-0.642233	1.877421	0.360791
C101	C	-1.142291	1.295633	-0.139255
C102	C	-0.642291	1.795633	0.360745
C103	C	-1.192787	0.531701	-0.591582
C104	C	-0.692787	1.031701	-0.091582
C105	C	-1.192796	0.531682	-0.668439
C106	C	-0.692796	1.031682	-0.168439
C107	C	-1.091660	0.606785	-0.687471
C108	C	-0.591660	1.106785	-0.187471
C109	C	-1.091647	0.606800	-0.610616
C110	C	-0.591647	1.106800	-0.110616
C111	C	-1.142215	0.569260	-0.562673
C112	C	-0.642215	1.069260	-0.062673
C113	C	-1.142237	0.569226	-0.716385
C114	C	-0.642237	1.069226	-0.216385
C115	C	-1.142247	0.569204	-0.799717
C116	C	-0.642247	1.069204	-0.299717
C117	C	-1.142204	0.569280	-0.479336
C118	C	-0.642204	1.069280	0.020664
C119	C	-1.142124	0.569351	0.052032
C120	C	-0.642124	1.069351	0.552032
C121	C	-1.142257	0.569191	0.133855
C122	C	-0.642257	1.069191	0.633855
H123	H	-0.691588	0.399344	-0.309677
H124	H	-0.191588	0.899344	0.190323
H125	H	-1.233978	1.155961	-0.036616
H126	H	-0.733978	1.655961	0.463384
H127	H	-1.233976	0.501096	-0.691973
H128	H	-0.733976	1.001096	-0.191973
H129	H	-1.050468	1.121471	-0.241839
H130	H	-0.550468	1.621471	0.258161
H131	H	-1.050401	0.982015	-0.241823
H132	H	-0.550401	1.482015	0.258177
O133	O	-0.852119	0.612495	-0.095842
O134	O	-0.352119	1.112495	0.404158
H135	H	-0.889734	0.657049	-0.121611
H136	H	-0.389734	1.157049	0.378389
O137	O	-1.037096	0.647304	-0.579422
O138	O	-0.537096	1.147304	-0.079422
H139	H	-0.996903	0.606795	-0.551997
H140	H	-0.496903	1.106795	-0.051997
O141	O	-1.037121	0.647275	-0.739180
O142	O	-0.537121	1.147275	-0.239180
H143	H	-1.045629	0.640961	-0.797479
H144	H	-0.545629	1.140961	-0.297479
O145	O	-1.247319	0.491208	-0.539870
O146	O	-0.747319	0.991208	-0.039870
H147	H	-1.282480	0.465082	-0.572889
H148	H	-0.782480	0.965082	-0.072889
H149	H	-0.443839	0.540794	-0.167814
H150	H	0.056161	1.040794	0.332186
H151	H	-1.233911	1.016521	-0.036586
H152	H	-0.733911	1.516521	0.463414
H153	H	-0.492811	0.494281	-0.214489
H154	H	0.007189	0.994281	0.285511
H155	H	-0.567750	0.423070	-0.285891
H156	H	-0.067750	0.923070	0.214109
H157	H	-0.792239	0.644545	-0.063691
H158	H	-0.292239	1.144545	0.436309
O159	O	-0.852255	0.417131	-0.291822
O160	O	-0.352255	0.917131	0.208178
H161	H	-0.809714	0.376448	-0.332629
H162	H	-0.309714	0.876448	0.167371
O163	O	-0.728208	0.730214	0.022232
O164	O	-0.228208	1.230214	0.522232
H165	H	-0.765824	0.774769	-0.003537
H166	H	-0.265824	1.274769	0.496463
O167	O	-0.604360	0.753948	0.046017
O168	O	-0.104360	1.253948	0.546017
H169	H	-0.668693	0.758140	0.050235
H170	H	-0.168693	1.258140	0.550235
H171	H	-0.443719	0.711335	0.003246
H172	H	0.056281	1.211335	0.503246
