data_functionalizedCrystal
_audit_creation_method	'MofGen! by Chris Wilmer'
_symmetry_space_group_name_H-M	'P1'
_symmetry_Int_Tables_number	1
_symmetry_cell_setting	triclinic
loop_
_symmetry_equiv_pos_as_xyz
  x,y,z
_cell_length_a	15.944551
_cell_length_b	10.654550
_cell_length_c	9.130313
_cell_angle_alpha	90.000110
_cell_angle_beta	89.995744
_cell_angle_gamma	83.991821
loop_
_atom_site_label
_atom_site_type_symbol
_atom_site_fract_x
_atom_site_fract_y
_atom_site_fract_z
O1	O	-1.115457	-0.161961	-0.121643
O2	O	-0.871023	-0.181929	-0.121679
O3	O	-0.998860	0.010867	-0.121654
O4	O	-0.987620	-0.354757	-0.121667
O5	O	-0.998858	0.010862	0.121944
O6	O	-0.871021	-0.181935	0.121920
O7	O	-1.115455	-0.161966	0.121956
Cu8	Cu	-0.993238	-0.171951	0.144181
Cu9	Cu	-0.993240	-0.171945	-0.143903
O10	O	-0.987618	-0.354762	0.121932
C11	C	-0.839723	-0.181103	0.000116
C12	C	-0.746463	-0.178618	0.000102
C13	C	-0.998034	0.057652	0.000143
C14	C	-0.995565	0.197063	0.000138
C15	C	-1.146755	-0.162792	0.000158
C16	C	-1.240015	-0.165278	0.000162
C17	C	-0.530880	-0.053173	0.000135
C18	C	-0.470198	-0.111423	-0.119974
C19	C	-0.575711	-0.174122	0.000120
C20	C	-0.470219	-0.111457	0.120195
C21	C	-0.410773	-0.169770	0.000143
C22	C	-0.516257	-0.232405	-0.120088
C23	C	-0.516284	-0.232421	0.120189
C24	C	-0.455620	-0.290759	0.000050
C25	C	-0.670728	-0.176625	0.000105
C26	C	-0.315757	-0.167276	0.000147
C27	C	-0.988444	-0.401547	0.000131
C28	C	-0.990913	-0.540958	0.000127
N29	N	-0.993243	-0.171954	0.346803
C30	C	-1.070833	0.277522	0.000153
C31	C	-1.068508	0.408513	0.000143
C32	C	-0.915639	0.378572	0.000107
C33	C	-0.917965	0.247584	0.000107
C34	C	-1.159090	0.294810	0.000180
C35	C	-1.156765	0.425801	0.000169
N36	N	-0.993242	-0.171931	-0.346526
C37	C	-1.049864	-0.086613	0.423466
C38	C	-1.049861	-0.086598	0.576803
C39	C	-0.936615	-0.257277	0.576801
C40	C	-0.936614	-0.257285	0.423467
C41	C	-1.115248	0.011924	0.423468
C42	C	-1.115246	0.011939	0.576805
H43	H	-0.449792	-0.060264	-0.221514
H44	H	-0.423043	-0.391240	-0.000020
O45	O	-1.096276	0.139564	0.368363
H46	H	-1.149852	0.181866	0.300880
O47	O	-1.196329	0.248080	0.139490
H48	H	-1.214194	0.329238	0.213347
H49	H	-0.536711	-0.283537	0.221734
O50	O	-0.443223	-0.043687	0.254711
H51	H	-0.473656	0.054894	0.254452
O52	O	-1.088255	0.132440	0.639809
H53	H	-1.073946	0.196316	0.549209
O54	O	-0.875556	-0.349329	0.659497
H55	H	-0.836185	-0.408677	0.580423
O56	O	-1.196024	-0.027544	0.360457
H57	H	-1.226964	0.050066	0.292042
O58	O	-0.543122	-0.300108	-0.254746
H59	H	-0.486739	-0.331945	-0.321605
H60	H	-0.856674	0.182077	0.000074
O61	O	-1.200739	-0.015467	0.631965
H62	H	-1.242593	-0.028909	0.537365
H63	H	-1.183439	0.471791	-0.105006
H64	H	-0.563632	0.047204	-0.000010
H65	H	-0.852460	0.419722	0.000081
H66	H	-1.190019	0.467989	0.102118
O67	O	-1.204805	0.256494	-0.134845
H68	H	-1.225334	0.341618	-0.200960
O69	O	-0.875541	-0.349324	0.340773
H70	H	-0.836171	-0.408662	0.419846
