data_functionalizedCrystal
_audit_creation_method	'MofGen! by Chris Wilmer'
_symmetry_space_group_name_H-M	'P1'
_symmetry_Int_Tables_number	1
_symmetry_cell_setting	triclinic
loop_
_symmetry_equiv_pos_as_xyz
  x,y,z
_cell_length_a	19.188930
_cell_length_b	19.188930
_cell_length_c	18.266242
_cell_angle_alpha	90.022918
_cell_angle_beta	89.988525
_cell_angle_gamma	96.855221
loop_
_atom_site_label
_atom_site_type_symbol
_atom_site_fract_x
_atom_site_fract_y
_atom_site_fract_z
O1	O	0.087169	-0.926149	-0.061124
O2	O	0.587169	-0.426149	0.438876
O3	O	0.098903	-0.722838	-0.061075
O4	O	0.598903	-0.222838	0.438925
O5	O	-0.008620	-0.830361	-0.061087
O6	O	0.491380	-0.330361	0.438913
O7	O	0.194691	-0.818627	-0.061113
O8	O	0.694691	-0.318627	0.438887
O9	O	-0.008625	-0.830343	0.060675
O10	O	0.491375	-0.330343	0.560675
O11	O	0.098897	-0.722820	0.060687
O12	O	0.598897	-0.222820	0.560687
O13	O	0.087163	-0.926131	0.060638
O14	O	0.587163	-0.426131	0.560638
Zn15	Zn	0.093029	-0.824473	0.079994
Zn16	Zn	0.593029	-0.324473	0.579994
Zn17	Zn	0.093037	-0.824497	-0.080432
Zn18	Zn	0.593037	-0.324497	0.419568
O19	O	0.194686	-0.818608	0.060649
O20	O	0.694686	-0.318608	0.560649
C21	C	-0.034634	-0.829972	-0.000204
C22	C	0.465366	-0.329972	0.499796
C23	C	-0.112138	-0.828831	-0.000197
C24	C	0.387862	-0.328831	0.499803
C25	C	0.098520	-0.696818	-0.000188
C26	C	0.598520	-0.196818	0.499812
C27	C	0.097380	-0.619313	-0.000169
C28	C	0.597380	-0.119313	0.499831
C29	C	-0.157062	-0.891922	-0.000209
C30	C	0.342938	-0.391922	0.499791
C31	C	-0.229886	-0.890850	-0.000220
C32	C	0.270114	-0.390850	0.499780
C33	C	-0.257782	-0.826684	-0.000206
C34	C	0.242218	-0.326684	0.499794
C35	C	-0.212849	-0.763585	-0.000198
C36	C	0.287151	-0.263585	0.499802
C37	C	-0.140026	-0.764658	-0.000194
C38	C	0.359974	-0.264658	0.499806
N39	N	-0.365789	-0.777631	0.041244
N40	N	0.134211	-0.277631	0.541244
N41	N	-0.434968	-0.776615	0.041242
N42	N	0.065032	-0.276615	0.541242
C43	C	-0.477191	-0.823446	-0.000220
C44	C	0.022809	-0.323446	0.499780
N45	N	-0.447624	-0.871341	-0.041669
N46	N	0.052376	-0.371341	0.458331
N47	N	-0.378439	-0.872359	-0.041664
N48	N	0.121561	-0.372359	0.458336
C49	C	-0.336745	-0.825513	-0.000210
C50	C	0.163255	-0.325513	0.499790
C51	C	-0.601079	-0.885379	-0.000245
C52	C	-0.101079	-0.385379	0.499755
C53	C	-0.673904	-0.884305	-0.000261
C54	C	-0.173904	-0.384305	0.499739
C55	C	-0.656865	-0.757038	-0.000231
C56	C	-0.156865	-0.257038	0.499769
C57	C	-0.584042	-0.758114	-0.000222
C58	C	-0.084042	-0.258114	0.499778
C59	C	-0.556154	-0.822287	-0.000226
C60	C	-0.056154	-0.322287	0.499774
C61	C	0.087546	-0.952151	-0.000252
C62	C	0.587546	-0.452151	0.499748
C63	C	0.088687	-1.029656	-0.000276
C64	C	0.588687	-0.529656	0.499724
C65	C	0.220700	-0.818997	-0.000236
C66	C	0.720700	-0.318997	0.499764
C67	C	0.298204	-0.820138	-0.000247
C68	C	0.798204	-0.320138	0.499753
N69	N	0.093024	-0.824461	0.189481
N70	N	0.593024	-0.324461	0.689481
C71	C	0.160470	-0.574389	-0.000188
C72	C	0.660470	-0.074389	0.499812
C73	C	0.159399	-0.501566	-0.000196
C74	C	0.659399	-0.001566	0.499804
C75	C	0.095233	-0.473669	-0.000199
C76	C	0.595233	0.026331	0.499801
C77	C	0.032133	-0.518603	-0.000175
C78	C	0.532133	-0.018603	0.499825
C79	C	0.033207	-0.591425	-0.000160
C80	C	0.533207	-0.091425	0.499840
N81	N	0.046188	-0.365695	-0.041663
N82	N	0.546188	0.134305	0.458337
N83	N	0.045172	-0.296516	-0.041679
N84	N	0.545172	0.203484	0.458321
C85	C	0.091994	-0.254260	-0.000243
C86	C	0.591994	0.245740	0.499757
N87	N	0.139881	-0.283795	0.041200
N88	N	0.639881	0.216205	0.541200
N89	N	0.140899	-0.352980	0.041213
N90	N	0.640899	0.147020	0.541213
C91	C	0.094062	-0.394707	-0.000215
C92	C	0.594062	0.105293	0.499785
C93	C	0.153928	-0.130372	-0.000270
C94	C	0.653928	0.369628	0.499730
C95	C	0.152853	-0.057547	-0.000274
C96	C	0.652853	0.442453	0.499726
C97	C	0.025586	-0.074586	-0.000261
C98	C	0.525586	0.425414	0.499739
C99	C	0.026662	-0.147409	-0.000250
C100	C	0.526662	0.352591	0.499750
C101	C	0.090835	-0.175298	-0.000258
C102	C	0.590835	0.324702	0.499742
N103	N	0.093037	-0.824513	-0.189919
N104	N	0.593037	-0.324513	0.310081
C105	C	0.045436	-0.872088	0.227785
C106	C	0.545436	-0.372088	0.727785
C107	C	0.045433	-0.872092	0.304430
C108	C	0.545433	-0.372092	0.804430
C109	C	0.093030	-0.824477	0.342768
C110	C	0.593030	-0.324477	0.842768
C111	C	0.140621	-0.776841	0.304455
C112	C	0.640621	-0.276841	0.804455
C113	C	0.140618	-0.776834	0.227812
C114	C	0.640618	-0.276834	0.727812
N115	N	0.154837	-0.815401	0.463094
N116	N	0.654837	-0.315401	0.963094
N117	N	0.154838	-0.815413	0.535902
N118	N	0.654838	-0.315413	1.035902
C119	C	0.093040	-0.824496	0.573691
C120	C	0.593040	-0.324496	1.073691
N121	N	0.031239	-0.833582	0.535920
N122	N	0.531239	-0.333582	1.035920
N123	N	0.031240	-0.833574	0.463106
N124	N	0.531240	-0.333574	0.963106
C125	C	0.093038	-0.824480	0.425875
C126	C	0.593038	-0.324480	0.925875
C127	C	0.045444	-0.872131	0.695101
C128	C	0.545444	-0.372131	1.195101
C129	C	0.045440	-0.872130	0.771748
C130	C	0.545440	-0.372130	1.271748
C131	C	0.140634	-0.776882	0.771772
C132	C	0.640634	-0.276882	1.271772
C133	C	0.140632	-0.776879	0.695127
C134	C	0.640632	-0.276879	1.195127
C135	C	0.093038	-0.824507	0.656796
C136	C	0.593038	-0.324507	1.156796
H137	H	-0.134360	-0.944176	-0.000214
H138	H	0.365640	-0.444176	0.499786
C139	C	-0.042744	-0.196828	-0.000237
C140	C	0.457256	0.303172	0.499763
N141	N	-0.095023	-0.234050	-0.000226
N142	N	0.404977	0.265950	0.499774
C143	C	-0.006916	-0.924515	0.652935
C144	C	0.493084	-0.424515	1.152935
N145	N	-0.046356	-0.963970	0.621178
N146	N	0.453644	-0.463970	1.121178
H147	H	0.006685	-0.910911	0.802935
H148	H	0.506685	-0.410911	1.302935
H149	H	0.206181	-0.153080	-0.000267
H150	H	0.706181	0.346920	0.499733
C151	C	-0.243536	-0.693002	-0.000176
C152	C	0.256464	-0.193002	0.499824
N153	N	-0.266650	-0.639837	-0.000160
N154	N	0.233350	-0.139837	0.499840
C155	C	-0.006926	-0.924473	0.185626
C156	C	0.493074	-0.424473	0.685626
N157	N	-0.046367	-0.963928	0.153870
N158	N	0.453633	-0.463928	0.653870
H159	H	0.006680	-0.910877	0.335623
H160	H	0.506680	-0.410877	0.835623
H161	H	-0.018171	-0.628003	-0.000145
H162	H	0.481829	-0.128003	0.499855
H163	H	-0.547464	-0.706738	-0.000208
H164	H	-0.047464	-0.206738	0.499792
H165	H	-0.710481	-0.935683	-0.000274
H166	H	-0.210481	-0.435683	0.499726
H167	H	-0.679578	-0.704792	-0.000222
H168	H	-0.179578	-0.204792	0.499778
H169	H	0.179374	-0.738071	0.335674
H170	H	0.679374	-0.238071	0.835674
H171	H	-0.103448	-0.713281	-0.000184
H172	H	0.396552	-0.213281	0.499816
C173	C	0.228806	-0.452140	-0.000226
C174	C	0.728806	0.047860	0.499774
N175	N	0.281084	-0.414915	-0.000252
N176	N	0.781084	0.085085	0.499748
C177	C	0.231062	-0.605062	-0.000183
C178	C	0.731062	-0.105062	0.499817
N179	N	0.284233	-0.628166	-0.000174
N180	N	0.784233	-0.128166	0.499826
H181	H	-0.266470	-0.942228	-0.000233
H182	H	0.233530	-0.442228	0.499767
H183	H	0.204232	-0.020970	-0.000285
H184	H	0.704232	0.479030	0.499715
H185	H	-0.020111	-0.495885	-0.000188
H186	H	0.479889	0.004115	0.499812
H187	H	-0.026659	-0.051874	-0.000309
H188	H	0.473341	0.448126	0.499691
H189	H	0.179371	-0.738049	0.196624
H190	H	0.679371	-0.238049	0.696624
C191	C	0.192992	-0.724505	0.813939
C192	C	0.692992	-0.224505	1.313939
N193	N	0.232429	-0.685052	0.845704
N194	N	0.732429	-0.185052	1.345704
H195	H	0.179386	-0.738100	0.663938
H196	H	0.679386	-0.238100	1.163938
H197	H	-0.578372	-0.937632	-0.000251
H198	H	-0.078372	-0.437632	0.499749
