data_functionalizedCrystal
_audit_creation_method	'MofGen! by Chris Wilmer'
_symmetry_space_group_name_H-M	'P1'
_symmetry_Int_Tables_number	1
_symmetry_cell_setting	triclinic
loop_
_symmetry_equiv_pos_as_xyz
  x,y,z
_cell_length_a	8.597340
_cell_length_b	8.559649
_cell_length_c	7.681481
_cell_angle_alpha	94.930900
_cell_angle_beta	76.525094
_cell_angle_gamma	77.625043
loop_
_atom_site_label
_atom_site_type_symbol
_atom_site_fract_x
_atom_site_fract_y
_atom_site_fract_z
O1	O	2.072798	0.220972	-0.168061
O2	O	2.572798	0.720972	0.331939
O3	O	1.605621	0.246431	-0.097179
O4	O	2.105621	0.746431	0.402821
O5	O	1.880368	0.001097	-0.138866
O6	O	2.380368	0.501097	0.361134
O7	O	1.798050	0.466306	-0.126373
O8	O	2.298050	0.966306	0.373627
O9	O	1.914193	-0.029168	-0.436856
O10	O	2.414193	0.470832	0.063144
O11	O	1.639446	0.216166	-0.395169
O12	O	2.139446	0.716166	0.104831
O13	O	2.106623	0.190707	-0.466051
O14	O	2.606623	0.690707	0.033949
Zn15	Zn	1.878405	0.198632	-0.477922
Zn16	Zn	2.378405	0.698632	0.022078
Zn17	Zn	1.833839	0.238507	-0.085307
Zn18	Zn	2.333839	0.738507	0.414693
O19	O	1.831876	0.436041	-0.424363
O20	O	2.331876	0.936041	0.075637
C21	C	1.563278	0.230251	-0.237183
C22	C	2.063278	0.730251	0.262817
C23	C	1.386718	0.227108	-0.210395
C24	C	1.886718	0.727108	0.289605
C25	C	1.903519	-0.073565	-0.288805
C26	C	2.403519	0.426435	0.211195
C27	C	1.922086	-0.250945	-0.291612
C28	C	2.422086	0.249055	0.208388
C29	C	2.148965	0.206888	-0.326042
C30	C	2.648965	0.706888	0.173958
C31	C	2.325524	0.210032	-0.352819
C32	C	2.825524	0.710032	0.147181
C33	C	1.808725	0.510704	-0.274421
C34	C	2.308725	1.010704	0.225579
C35	C	1.790156	0.688085	-0.271602
C36	C	2.290156	1.188085	0.228398
N37	N	1.908832	0.171417	-0.745873
N38	N	2.408832	0.671417	-0.245873
N39	N	1.803426	0.265709	0.182641
N40	N	2.303426	0.765709	0.682641
H41	H	1.408209	0.197804	-0.495256
H42	H	1.908209	0.697804	0.004744
F43	F	2.049493	0.045625	-0.865510
F44	F	2.549493	0.545625	-0.365510
H45	H	1.304027	0.239326	-0.067949
H46	H	1.804027	0.739326	0.432051
F47	F	2.088307	-0.360098	-0.316852
F48	F	2.588307	0.139902	0.183148
F49	F	1.623946	-0.202772	-0.246389
F50	F	2.123946	0.297228	0.253611
H51	H	1.695829	0.361953	-0.725836
H52	H	2.195829	0.861953	-0.225836
