data_functionalizedCrystal
_audit_creation_method	'MofGen! by Chris Wilmer'
_symmetry_space_group_name_H-M	'P1'
_symmetry_Int_Tables_number	1
_symmetry_cell_setting	triclinic
loop_
_symmetry_equiv_pos_as_xyz
  x,y,z
_cell_length_a	12.759401
_cell_length_b	18.215405
_cell_length_c	18.215399
_cell_angle_alpha	89.969449
_cell_angle_beta	89.983380
_cell_angle_gamma	90.025312
loop_
_atom_site_label
_atom_site_type_symbol
_atom_site_fract_x
_atom_site_fract_y
_atom_site_fract_z
Zn1	Zn	1.606160	-0.292983	-0.416039
Zn2	Zn	1.606030	-0.416055	-0.292968
Zn3	Zn	1.430468	-0.293008	-0.292994
Zn4	Zn	1.430420	-0.416014	-0.415999
O5	O	1.518269	-0.354515	-0.354500
O6	O	1.753164	-0.309316	-0.399720
O7	O	1.582707	-0.399759	-0.189987
O8	O	1.453849	-0.190020	-0.309344
O9	O	1.753068	-0.399736	-0.309299
O10	O	1.582929	-0.190002	-0.399745
O11	O	1.453723	-0.309357	-0.190006
O12	O	1.283441	-0.309317	-0.309305
O13	O	1.453766	-0.399666	-0.518989
O14	O	1.283405	-0.399690	-0.399677
O15	O	1.582882	-0.309276	-0.519018
O16	O	1.582659	-0.519034	-0.309260
O17	O	1.453640	-0.519003	-0.399651
C18	C	1.245302	-0.354502	-0.354490
C19	C	1.128525	-0.354515	-0.354503
C20	C	1.518159	-0.545721	-0.354465
C21	C	1.518207	-0.627520	-0.354474
C22	C	1.585546	-0.815705	-0.307494
C23	C	1.585592	-0.892564	-0.307512
C24	C	1.451128	-0.892572	-0.401559
C25	C	1.451087	-0.815715	-0.401544
C26	C	1.518294	-0.777284	-0.354508
C27	C	1.518382	-0.931000	-0.354540
C28	C	1.518433	-1.014333	-0.354560
C29	C	1.518245	-0.693945	-0.354489
C30	C	1.073714	-0.307518	-0.401657
C31	C	0.963990	-0.307525	-0.401662
C32	C	0.963898	-0.401532	-0.307356
C33	C	1.073620	-0.401521	-0.307348
C34	C	0.814091	-0.220783	-0.428127
C35	C	0.759276	-0.173793	-0.475293
C36	C	0.794931	-0.162584	-0.547119
C37	C	0.885401	-0.198376	-0.571795
C38	C	0.940210	-0.245372	-0.524633
C39	C	0.904556	-0.256567	-0.452796
C40	C	1.223522	-0.488264	-0.280891
C41	C	1.278333	-0.535263	-0.233732
C42	C	1.242680	-0.546480	-0.161904
C43	C	1.152207	-0.510701	-0.137231
C44	C	1.097395	-0.463701	-0.184390
C45	C	1.133057	-0.452484	-0.256217
C46	C	1.792303	-0.354528	-0.354511
C47	C	1.909079	-0.354534	-0.354516
C48	C	1.518333	-0.354464	-0.546453
C49	C	1.518361	-0.354443	-0.628252
C50	C	1.518409	-0.162562	-0.354552
C51	C	1.518469	-0.080763	-0.354574
C52	C	1.585616	-0.307333	-0.816463
C53	C	1.585628	-0.307311	-0.893321
C54	C	1.451180	-0.401439	-0.893279
C55	C	1.451163	-0.401456	-0.816422
C56	C	1.518387	-0.354404	-0.778016
C57	C	1.518416	-0.354365	-0.931732
C58	C	1.518429	-0.354342	-1.015065
C59	C	1.518373	-0.354426	-0.694677
C60	C	1.518266	-0.354512	-0.163294
C61	C	1.518442	-0.354327	-0.081495
H62	H	1.640271	-0.784416	-0.269195
H63	H	1.396452	-0.439748	-0.924559
H64	H	1.396410	-0.439786	-0.785118
H65	H	1.118415	-0.269240	-0.440051
H66	H	1.287297	-0.584772	-0.123516
H67	H	1.640371	-0.268980	-0.924621
H68	H	1.396408	-0.923873	-0.439853
H69	H	1.396323	-0.784430	-0.439832
H70	H	1.640357	-0.923843	-0.269230
H71	H	1.352011	-0.564387	-0.253822
H72	H	1.013872	-0.274509	-0.544721
H73	H	0.919181	-0.439804	-0.268965
H74	H	0.750293	-0.124323	-0.585522
H75	H	0.914418	-0.189252	-0.630286
H76	H	0.685615	-0.144652	-0.455195
H77	H	0.785058	-0.229898	-0.369637
H78	H	1.023727	-0.434568	-0.164296
H79	H	1.123172	-0.519838	-0.078744
H80	H	1.252566	-0.479129	-0.339377
H81	H	1.640350	-0.269018	-0.785194
