data_functionalizedCrystal
_audit_creation_method	'MofGen! by Chris Wilmer'
_symmetry_space_group_name_H-M	'P1'
_symmetry_Int_Tables_number	1
_symmetry_cell_setting	triclinic
loop_
_symmetry_equiv_pos_as_xyz
  x,y,z
_cell_length_a	21.395362
_cell_length_b	19.805405
_cell_length_c	21.395355
_cell_angle_alpha	90.017223
_cell_angle_beta	90.043940
_cell_angle_gamma	90.042604
loop_
_atom_site_label
_atom_site_type_symbol
_atom_site_fract_x
_atom_site_fract_y
_atom_site_fract_z
Zn1	Zn	0.957877	-0.269255	0.354591
Zn2	Zn	1.207877	-0.019255	0.604591
Zn3	Zn	1.457877	0.230745	0.854591
Zn4	Zn	1.707877	0.480745	1.104591
Zn5	Zn	0.957787	-0.382425	0.249816
Zn6	Zn	1.207787	-0.132425	0.499816
Zn7	Zn	1.457787	0.117575	0.749816
Zn8	Zn	1.707787	0.367575	0.999816
Zn9	Zn	0.853092	-0.269286	0.249793
Zn10	Zn	1.103092	-0.019286	0.499793
Zn11	Zn	1.353092	0.230714	0.749793
Zn12	Zn	1.603092	0.480714	0.999793
Zn13	Zn	0.853068	-0.382438	0.354521
Zn14	Zn	1.103068	-0.132438	0.604521
Zn15	Zn	1.353068	0.117562	0.854521
Zn16	Zn	1.603068	0.367562	1.104521
O17	O	0.905456	-0.325851	0.302180
O18	O	1.155456	-0.075851	0.552180
O19	O	1.405456	0.174149	0.802180
O20	O	1.655456	0.424149	1.052180
O21	O	1.045543	-0.284248	0.340732
O22	O	1.295543	-0.034248	0.590732
O23	O	1.545543	0.215752	0.840732
O24	O	1.795543	0.465752	1.090732
O25	O	0.943871	-0.367424	0.162135
O26	O	1.193871	-0.117424	0.412135
O27	O	1.443871	0.132576	0.662135
O28	O	1.693871	0.382576	0.912135
O29	O	0.867039	-0.174565	0.263714
O30	O	1.117039	0.075435	0.513714
O31	O	1.367039	0.325435	0.763714
O32	O	1.617039	0.575435	1.013714
O33	O	1.045476	-0.367393	0.263754
O34	O	1.295476	-0.117393	0.513754
O35	O	1.545476	0.132607	0.763754
O36	O	1.795476	0.382607	1.013754
O37	O	0.944024	-0.174542	0.340709
O38	O	1.194024	0.075458	0.590709
O39	O	1.444024	0.325458	0.840709
O40	O	1.694024	0.575458	1.090709
O41	O	0.866952	-0.284302	0.162118
O42	O	1.116952	-0.034302	0.412118
O43	O	1.366952	0.215698	0.662118
O44	O	1.616952	0.465698	0.912118
O45	O	0.765411	-0.284315	0.263646
O46	O	1.015411	-0.034315	0.513646
O47	O	1.265411	0.215685	0.763646
O48	O	1.515411	0.465685	1.013646
O49	O	0.866999	-0.367417	0.442208
O50	O	1.116999	-0.117417	0.692208
O51	O	1.366999	0.132583	0.942208
O52	O	1.616999	0.382583	1.192208
O53	O	0.765393	-0.367448	0.340589
O54	O	1.015393	-0.117448	0.590589
O55	O	1.265393	0.132552	0.840589
O56	O	1.515393	0.382552	1.090589
O57	O	0.944002	-0.284261	0.442260
O58	O	1.194002	-0.034261	0.692260
O59	O	1.444002	0.215739	0.942260
O60	O	1.694002	0.465739	1.192260
O61	O	0.943848	-0.477143	0.263686
O62	O	1.193848	-0.227143	0.513686
O63	O	1.443848	0.022857	0.763686
O64	O	1.693848	0.272857	1.013686
O65	O	0.866912	-0.477153	0.340612
O66	O	1.116912	-0.227153	0.590612
O67	O	1.366912	0.022847	0.840612
O68	O	1.616912	0.272847	1.090612
C69	C	0.742668	-0.325887	0.302107
C70	C	0.992668	-0.075887	0.552107
C71	C	1.242668	0.174113	0.802107
C72	C	1.492668	0.424113	1.052107
C73	C	0.673027	-0.325918	0.302091
C74	C	0.923027	-0.075918	0.552091
C75	C	1.173027	0.174082	0.802091
C76	C	1.423027	0.424082	1.052091
C77	C	0.640321	-0.369263	0.342096
C78	C	0.890321	-0.119263	0.592096
C79	C	1.140321	0.130737	0.842096
C80	C	1.390321	0.380737	1.092096
C81	C	0.574886	-0.369246	0.342124
C82	C	0.824886	-0.119246	0.592124
C83	C	1.074886	0.130754	0.842124
C84	C	1.324886	0.380754	1.092124
C85	C	0.542159	-0.325892	0.302136
C86	C	0.792159	-0.075892	0.552136
C87	C	1.042159	0.174108	0.802136
C88	C	1.292159	0.424108	1.052136
C89	C	0.574872	-0.282539	0.262129
C90	C	0.824872	-0.032539	0.512129
C91	C	1.074872	0.217461	0.762129
C92	C	1.324872	0.467461	1.012129
C93	C	0.640306	-0.282553	0.262106
C94	C	0.890306	-0.032553	0.512106
C95	C	1.140306	0.217447	0.762106
C96	C	1.390306	0.467447	1.012106
C97	C	0.438434	-0.320440	0.245731
C98	C	0.688434	-0.070440	0.495731
C99	C	0.938434	0.179560	0.745731
C100	C	1.188434	0.429560	0.995731
C101	C	0.373001	-0.320431	0.245752
C102	C	0.623001	-0.070431	0.495752
C103	C	0.873001	0.179569	0.745752
C104	C	1.123001	0.429569	0.995752
C105	C	0.340338	-0.325848	0.302205
C106	C	0.590338	-0.075848	0.552205
C107	C	0.840338	0.174152	0.802205
C108	C	1.090338	0.424152	1.052205
C109	C	0.373116	-0.331287	0.358639
C110	C	0.623116	-0.081287	0.608639
C111	C	0.873116	0.168713	0.858639
C112	C	1.123116	0.418713	1.108639
C113	C	0.438550	-0.331301	0.358616
C114	C	0.688550	-0.081301	0.608616
C115	C	0.938550	0.168699	0.858616
C116	C	1.188550	0.418699	1.108616
C117	C	0.471206	-0.325873	0.302156
C118	C	0.721206	-0.075873	0.552156
C119	C	0.971206	0.174127	0.802156
C120	C	1.221206	0.424127	1.052156
C121	C	0.236680	-0.369177	0.342243
C122	C	0.486680	-0.119177	0.592243
C123	C	0.736680	0.130823	0.842243
C124	C	0.986680	0.380823	1.092243
C125	C	0.171243	-0.369156	0.342272
C126	C	0.421243	-0.119156	0.592272
C127	C	0.671243	0.130844	0.842272
C128	C	0.921243	0.380844	1.092272
C129	C	0.171231	-0.282452	0.262272
C130	C	0.421231	-0.032452	0.512272
C131	C	0.671231	0.217548	0.762272
C132	C	0.921231	0.467548	1.012272
C133	C	0.236666	-0.282470	0.262248
C134	C	0.486666	-0.032470	0.512248
C135	C	0.736666	0.217530	0.762248
C136	C	0.986666	0.467530	1.012248
C137	C	0.269387	-0.325836	0.302233
C138	C	0.519387	-0.075836	0.552233
C139	C	0.769387	0.174164	0.802233
C140	C	1.019387	0.424164	1.052233
C141	C	0.905384	-0.501707	0.302157
C142	C	1.155384	-0.251707	0.552157
C143	C	1.405384	-0.001707	0.802157
C144	C	1.655384	0.248293	1.052157
C145	C	0.905411	-0.576939	0.302169
C146	C	1.155411	-0.326939	0.552169
C147	C	1.405411	-0.076939	0.802169
C148	C	1.655411	0.173061	1.052169
C149	C	0.945474	-0.612213	0.342292
C150	C	1.195474	-0.362213	0.592292
C151	C	1.445474	-0.112213	0.842292
C152	C	1.695474	0.137787	1.092292
C153	C	0.945496	-0.682901	0.342303
C154	C	1.195496	-0.432901	0.592303
C155	C	1.445496	-0.182901	0.842303
C156	C	1.695496	0.067099	1.092303
C157	C	0.905459	-0.718315	0.302188
C158	C	1.155459	-0.468315	0.552188
C159	C	1.405459	-0.218315	0.802188
C160	C	1.655459	0.031685	1.052188
C161	C	0.865392	-0.683036	0.262064
C162	C	1.115392	-0.433036	0.512064
C163	C	1.365392	-0.183036	0.762064
C164	C	1.615392	0.066964	1.012064
C165	C	0.865367	-0.612349	0.262056
C166	C	1.115367	-0.362349	0.512056
C167	C	1.365367	-0.112349	0.762056
C168	C	1.615367	0.137651	1.012056
C169	C	0.865493	-0.968109	0.262096
C170	C	1.115493	-0.718109	0.512096
C171	C	1.365493	-0.468109	0.762096
C172	C	1.615493	-0.218109	1.012096
C173	C	0.865523	-1.038801	0.262106
C174	C	1.115523	-0.788801	0.512106
C175	C	1.365523	-0.538801	0.762106
C176	C	1.615523	-0.288801	1.012106
C177	C	0.945622	-1.038662	0.342343
C178	C	1.195622	-0.788662	0.592343
C179	C	1.445622	-0.538662	0.842343
C180	C	1.695622	-0.288662	1.092343
C181	C	0.945597	-0.967975	0.342335
C182	C	1.195597	-0.717975	0.592335
C183	C	1.445597	-0.467975	0.842335
C184	C	1.695597	-0.217975	1.092335
C185	C	0.905528	-0.932702	0.302213
C186	C	1.155528	-0.682702	0.552213
C187	C	1.405528	-0.432702	0.802213
C188	C	1.655528	-0.182702	1.052213
C189	C	0.905503	-0.856053	0.302202
C190	C	1.155503	-0.606053	0.552202
C191	C	1.405503	-0.356053	0.802202
C192	C	1.655503	-0.106053	1.052202
C193	C	0.905487	-0.794962	0.302196
C194	C	1.155487	-0.544962	0.552196
C195	C	1.405487	-0.294962	0.802196
C196	C	1.655487	-0.044962	1.052196
C197	C	1.068879	-0.325816	0.302253
C198	C	1.318879	-0.075816	0.552253
C199	C	1.568879	0.174184	0.802253
C200	C	1.818879	0.424184	1.052253
C201	C	1.138520	-0.325800	0.302285
C202	C	1.388520	-0.075800	0.552285
C203	C	1.638520	0.174200	0.802285
C204	C	1.888520	0.424200	1.052285
C205	C	0.905508	-0.325837	0.465604
C206	C	1.155508	-0.075837	0.715604
C207	C	1.405508	0.174163	0.965604
C208	C	1.655508	0.424163	1.215604
C209	C	0.905530	-0.325831	0.535245
C210	C	1.155530	-0.075831	0.785245
C211	C	1.405530	0.174169	1.035245
C212	C	1.655530	0.424169	1.285245
C213	C	0.905545	-0.149308	0.302217
C214	C	1.155545	0.100692	0.552217
C215	C	1.405545	0.350692	0.802217
C216	C	1.655545	0.600692	1.052217
C217	C	0.905582	-0.074076	0.302232
C218	C	1.155582	0.175924	0.552232
C219	C	1.405582	0.425924	0.802232
C220	C	1.655582	0.675924	1.052232
C221	C	0.905440	-0.325816	0.139393
C222	C	1.155440	-0.075816	0.389393
C223	C	1.405440	0.174184	0.639393
C224	C	1.655440	0.424184	0.889393
C225	C	0.905539	-0.325631	0.069752
C226	C	1.155539	-0.075631	0.319752
C227	C	1.405539	0.174369	0.569752
C228	C	1.655539	0.424369	0.819752
C229	C	0.945623	-0.282530	0.567986
C230	C	1.195623	-0.032530	0.817986
C231	C	1.445623	0.217470	1.067986
C232	C	1.695623	0.467470	1.317986
C233	C	0.945623	-0.282501	0.633421
C234	C	1.195623	-0.032501	0.883421
C235	C	1.445623	0.217499	1.133421
C236	C	1.695623	0.467499	1.383421
C237	C	0.905535	-0.325785	0.666113
C238	C	1.155535	-0.075785	0.916113
C239	C	1.405535	0.174215	1.166113
C240	C	1.655535	0.424215	1.416113
C241	C	0.865434	-0.369089	0.633364
C242	C	1.115434	-0.119089	0.883364
C243	C	1.365434	0.130911	1.133364
C244	C	1.615434	0.380911	1.383364
C245	C	0.865431	-0.369112	0.567930
C246	C	1.115431	-0.119112	0.817930
C247	C	1.365431	0.130888	1.067930
C248	C	1.615431	0.380888	1.317930
C249	C	0.900563	-0.386731	0.769778
C250	C	1.150563	-0.136731	1.019778
C251	C	1.400563	0.113269	1.269778
C252	C	1.650563	0.363269	1.519778
C253	C	0.900570	-0.386709	0.835211
C254	C	1.150570	-0.136709	1.085211
C255	C	1.400570	0.113291	1.335211
C256	C	1.650570	0.363291	1.585211
C257	C	0.905539	-0.325714	0.867934
C258	C	1.155539	-0.075714	1.117934
C259	C	1.405539	0.174286	1.367934
C260	C	1.655539	0.424286	1.617934
C261	C	0.910514	-0.264738	0.835216
C262	C	1.160514	-0.014738	1.085216
C263	C	1.410514	0.235262	1.335216
C264	C	1.660514	0.485262	1.585216
C265	C	0.910512	-0.264762	0.769782
C266	C	1.160512	-0.014762	1.019782
C267	C	1.410512	0.235238	1.269782
C268	C	1.660512	0.485238	1.519782
C269	C	0.905533	-0.325765	0.737066
C270	C	1.155533	-0.075765	0.987066
C271	C	1.405533	0.174235	1.237066
C272	C	1.655533	0.424235	1.487066
C273	C	0.945633	-0.282378	0.971628
C274	C	1.195633	-0.032378	1.221628
C275	C	1.445633	0.217622	1.471628
C276	C	1.695633	0.467622	1.721628
C277	C	0.945628	-0.282347	1.037064
C278	C	1.195628	-0.032347	1.287064
C279	C	1.445628	0.217653	1.537064
C280	C	1.695628	0.467653	1.787064
C281	C	0.865443	-0.368941	1.037006
C282	C	1.115443	-0.118941	1.287006
C283	C	1.365443	0.131059	1.537006
C284	C	1.615443	0.381059	1.787006
C285	C	0.865445	-0.368966	0.971571
C286	C	1.115445	-0.118966	1.221571
C287	C	1.365445	0.131034	1.471571
C288	C	1.615445	0.381034	1.721571
C289	C	0.905543	-0.325685	0.938885
C290	C	1.155543	-0.075685	1.188885
C291	C	1.405543	0.174315	1.438885
C292	C	1.655543	0.424315	1.688885
H293	H	0.666935	-0.247254	0.229530
H294	H	0.916935	0.002746	0.479530
H295	H	1.166935	0.252746	0.729530
H296	H	1.416935	0.502746	0.979530
F297	F	0.822776	-0.720727	0.219376
F298	F	1.072776	-0.470727	0.469376
F299	F	1.322776	-0.220727	0.719376
F300	F	1.572776	0.029273	0.969376
F301	F	0.822843	-0.930578	0.219399
F302	F	1.072843	-0.680578	0.469399
F303	F	1.322843	-0.430578	0.719399
F304	F	1.572843	-0.180578	0.969399
H305	H	0.144585	-0.247150	0.229716
H306	H	0.394585	0.002850	0.479716
H307	H	0.644585	0.252850	0.729716
H308	H	0.894585	0.502850	0.979716
F309	F	0.988212	-0.930289	0.385029
F310	F	1.238212	-0.680289	0.635029
F311	F	1.488212	-0.430289	0.885029
F312	F	1.738212	-0.180289	1.135029
H313	H	0.978270	-0.247237	0.660084
H314	H	1.228270	0.002763	0.910084
H315	H	1.478270	0.252763	1.160084
H316	H	1.728270	0.502763	1.410084
F317	F	0.895280	-0.451604	0.870027
F318	F	1.145280	-0.201604	1.120027
F319	F	1.395280	0.048396	1.370027
F320	F	1.645280	0.298396	1.620027
F321	F	0.895288	-0.451657	0.734959
F322	F	1.145288	-0.201657	0.984959
F323	F	1.395288	0.048343	1.234959
F324	F	1.645288	0.298343	1.484959
F325	F	0.473433	-0.337086	0.418676
F326	F	0.723433	-0.087086	0.668676
F327	F	0.973433	0.162914	0.918676
F328	F	1.223433	0.412914	1.168676
F329	F	0.540041	-0.236397	0.219573
F330	F	0.790041	0.013603	0.469573
F331	F	1.040041	0.263603	0.719573
F332	F	1.290041	0.513603	0.969573
F333	F	0.988130	-0.720439	0.385014
F334	F	1.238130	-0.470439	0.635014
F335	F	1.488130	-0.220439	0.885014
F336	F	1.738130	0.029561	1.135014
F337	F	0.822773	-0.415003	1.071795
F338	F	1.072773	-0.165003	1.321795
F339	F	1.322773	0.084997	1.571795
F340	F	1.572773	0.334997	1.821795
H341	H	0.914561	-0.215070	0.861857
H342	H	1.164561	0.034930	1.111857
H343	H	1.414561	0.284930	1.361857
H344	H	1.664561	0.534930	1.611857
F345	F	0.338360	-0.337050	0.418726
F346	F	0.588360	-0.087050	0.668726
F347	F	0.838360	0.162950	0.918726
F348	F	1.088360	0.412950	1.168726
F349	F	0.822907	-1.076489	0.219409
F350	F	1.072907	-0.826489	0.469409
F351	F	1.322907	-0.576489	0.719409
F352	F	1.572907	-0.326489	0.969409
H353	H	0.832743	-0.583629	0.229385
H354	H	1.082743	-0.333629	0.479385
H355	H	1.332743	-0.083629	0.729385
H356	H	1.582743	0.166371	0.979385
H357	H	0.832779	-0.404372	0.541273
H358	H	1.082779	-0.154372	0.791273
H359	H	1.332779	0.095628	1.041273
H360	H	1.582779	0.345628	1.291273
F361	F	0.473189	-0.314676	0.185641
F362	F	0.723189	-0.064676	0.435641
F363	F	0.973189	0.185324	0.685641
F364	F	1.223189	0.435324	0.935641
F365	F	0.271506	-0.415327	0.384801
F366	F	0.521506	-0.165327	0.634801
F367	F	0.771506	0.084673	0.884801
F368	F	1.021506	0.334673	1.134801
F369	F	0.915804	-0.199869	0.734963
F370	F	1.165804	0.050131	0.984963
F371	F	1.415804	0.300131	1.234963
F372	F	1.665804	0.550131	1.484963
F373	F	0.136435	-0.415288	0.384856
F374	F	0.386435	-0.165288	0.634856
F375	F	0.636435	0.084712	0.884856
F376	F	0.886435	0.334712	1.134856
H377	H	0.666958	-0.404574	0.374656
H378	H	0.916958	-0.154574	0.624656
H379	H	1.166958	0.095426	0.874656
H380	H	1.416958	0.345426	1.124656
H381	H	0.978246	-1.067389	0.375015
H382	H	1.228246	-0.817389	0.625015
H383	H	1.478246	-0.567389	0.875015
H384	H	1.728246	-0.317389	1.125015
F385	F	0.988298	-0.236464	0.533204
F386	F	1.238298	0.013536	0.783204
F387	F	1.488298	0.263536	1.033204
F388	F	1.738298	0.513536	1.283204
H389	H	0.263295	-0.247178	0.229669
H390	H	0.513295	0.002822	0.479669
H391	H	0.763295	0.252822	0.729669
H392	H	1.013295	0.502822	0.979669
F393	F	0.988307	-0.236312	0.936839
F394	F	1.238307	0.013688	1.186839
F395	F	1.488307	0.263688	1.436839
F396	F	1.738307	0.513688	1.686839
H397	H	0.346318	-0.316007	0.199800
H398	H	0.596318	-0.066007	0.449800
H399	H	0.846318	0.183993	0.699800
H400	H	1.096318	0.433993	0.949800
F401	F	0.822773	-0.415055	0.936724
F402	F	1.072773	-0.165055	1.186724
F403	F	1.322773	0.084945	1.436724
F404	F	1.572773	0.334945	1.686724
F405	F	0.988311	-0.236266	1.071910
F406	F	1.238311	0.013734	1.321910
F407	F	1.488311	0.263734	1.571910
F408	F	1.738311	0.513734	1.821910
H409	H	0.548252	-0.404542	0.374702
H410	H	0.798252	-0.154542	0.624702
H411	H	1.048252	0.095458	0.874702
H412	H	1.298252	0.345458	1.124702
H413	H	0.832792	-0.404329	0.659986
H414	H	1.082792	-0.154329	0.909986
H415	H	1.332792	0.095671	1.159986
H416	H	1.582792	0.345671	1.409986
F417	F	0.988091	-0.574530	0.384985
F418	F	1.238091	-0.324530	0.634985
F419	F	1.488091	-0.074530	0.884985
F420	F	1.738091	0.175470	1.134985
