data_functionalizedCrystal
_audit_creation_method	'MofGen! by Chris Wilmer'
_symmetry_space_group_name_H-M	'P1'
_symmetry_Int_Tables_number	1
_symmetry_cell_setting	triclinic
loop_
_symmetry_equiv_pos_as_xyz
  x,y,z
_cell_length_a	14.044220
_cell_length_b	19.288859
_cell_length_c	17.766277
_cell_angle_alpha	89.993887
_cell_angle_beta	89.995720
_cell_angle_gamma	88.161302
loop_
_atom_site_label
_atom_site_type_symbol
_atom_site_fract_x
_atom_site_fract_y
_atom_site_fract_z
O1	O	1.256993	0.167413	-0.062514
O2	O	0.981050	0.161372	-0.062533
O3	O	1.126998	0.063775	-0.062518
O4	O	1.111045	0.265011	-0.062528
O5	O	1.126973	0.063767	0.062670
O6	O	0.981025	0.161365	0.062656
O7	O	1.256968	0.167406	0.062675
Cu8	Cu	1.118994	0.164385	0.074096
Cu9	Cu	1.119024	0.164393	-0.073954
O10	O	1.111020	0.265004	0.062660
C11	C	0.945734	0.158724	0.000059
C12	C	0.840542	0.150836	0.000052
C13	C	1.126473	0.037862	0.000076
C14	C	1.124935	-0.039341	0.000074
C15	C	1.200167	-0.598548	0.000060
C16	C	1.201620	-0.526008	0.000066
C17	C	1.115984	-0.486804	0.000060
C18	C	1.028889	-0.520145	0.000066
C19	C	1.027438	-0.592683	0.000067
C20	C	1.052127	-0.369631	-0.043802
C21	C	1.053581	-0.297094	-0.043807
C22	C	1.120456	-0.263070	0.000061
C23	C	1.185892	-0.301594	0.043926
C24	C	1.184441	-0.374132	0.043926
C25	C	1.117548	-0.408147	0.000060
C26	C	1.209122	-0.151082	0.000068
C27	C	1.210572	-0.078541	0.000079
C28	C	1.037838	-0.072679	0.000072
C29	C	1.036391	-0.145218	0.000068
C30	C	1.122035	-0.184416	0.000062
C31	C	0.647943	0.136416	0.000068
C32	C	0.590069	0.192359	0.000068
C33	C	0.482900	0.184335	0.000077
C34	C	0.755122	0.144439	0.000059
C35	C	1.292284	0.170054	0.000081
C36	C	1.397475	0.177942	0.000084
C37	C	1.111545	0.290917	0.000065
C38	C	1.113083	0.368119	0.000062
N39	N	1.118979	0.164379	0.178226
N40	N	1.119046	0.164394	-0.178084
C41	C	1.183626	0.121187	0.217620
C42	C	1.183632	0.121184	0.296422
C43	C	1.118999	0.164386	0.335827
C44	C	1.054341	0.207580	0.296424
C45	C	1.054331	0.207577	0.217624
C46	C	1.106311	0.226859	0.460661
C47	C	1.106328	0.226863	0.539460
C48	C	1.119025	0.164396	0.578873
C49	C	1.131725	0.101922	0.539478
C50	C	1.131715	0.101919	0.460678
C51	C	1.119003	0.164394	0.421273
C52	C	1.183681	0.121197	0.703713
C53	C	1.183680	0.121193	0.782516
C54	C	1.054393	0.207595	0.782517
C55	C	1.054390	0.207593	0.703715
C56	C	1.119039	0.164395	0.664318
H57	H	1.269906	-0.630458	0.000059
H58	H	1.281489	-0.051403	0.000082
H59	H	1.236265	0.086011	0.185545
H60	H	0.621008	0.246280	0.000062
H61	H	0.617006	0.082499	0.000074
H62	H	1.236276	0.086011	0.328502
H63	H	1.142054	0.051051	0.428605
H64	H	0.965477	-0.172358	0.000064
H65	H	1.001765	0.242768	0.814600
H66	H	1.272537	-0.498863	0.000065
H67	H	0.997657	-0.397326	-0.079520
H68	H	0.968112	-0.040759	0.000073
H69	H	1.237720	-0.405495	0.079643
H70	H	1.142064	0.051055	0.571566
H71	H	1.236319	0.086021	0.671634
H72	H	1.236320	0.086017	0.814591
H73	H	0.959164	-0.488220	0.000064
H74	H	1.001752	0.242767	0.671639
H75	H	1.095992	0.277733	0.571530
H76	H	1.001686	0.242750	0.185549
H77	H	1.095955	0.277729	0.428578
H78	H	1.240342	-0.273893	0.079653
H79	H	1.001715	0.242755	0.328512
H80	H	1.278859	-0.182998	0.000064
H81	H	1.000304	-0.265734	-0.079528
H82	H	0.956521	-0.619822	0.000071
