data_functionalizedCrystal
_audit_creation_method	'MofGen! by Chris Wilmer'
_symmetry_space_group_name_H-M	'P1'
_symmetry_Int_Tables_number	1
_symmetry_cell_setting	triclinic
loop_
_symmetry_equiv_pos_as_xyz
  x,y,z
_cell_length_a	34.490303
_cell_length_b	34.489386
_cell_length_c	34.485816
_cell_angle_alpha	60.004462
_cell_angle_beta	60.008900
_cell_angle_gamma	59.994399
loop_
_atom_site_label
_atom_site_type_symbol
_atom_site_fract_x
_atom_site_fract_y
_atom_site_fract_z
O1	O	0.053846	-0.566517	0.473678
O2	O	0.020329	-0.441078	0.381663
O3	O	0.099768	-0.520436	0.381578
O4	O	-0.025592	-0.487159	0.473762
O5	O	0.126127	-0.494082	0.407849
O6	O	0.046689	-0.414724	0.407933
O7	O	0.080206	-0.540163	0.499949
Zn8	Zn	0.067632	-0.473259	0.458112
Zn9	Zn	0.032903	-0.507982	0.423499
O10	O	0.000767	-0.460805	0.500033
N11	N	0.091336	-0.449565	0.481736
N12	N	0.009203	-0.531680	0.399875
C13	C	0.142510	-0.268211	0.532817
C14	C	0.142641	-0.398441	0.662987
C15	C	0.142524	-0.398421	0.532817
C16	C	0.272762	-0.398394	0.532723
C17	C	0.156853	-0.311177	0.547124
C18	C	0.156928	-0.384109	0.620020
C19	C	0.229794	-0.384081	0.547073
C20	C	0.156863	-0.384097	0.547124
C21	C	0.124253	-0.213522	0.514606
C22	C	0.124277	-0.416652	0.514606
C23	C	0.175110	-0.365866	0.565335
C24	C	0.352285	-0.384669	0.490824
C25	C	0.401998	-0.401229	0.474223
C26	C	0.402027	-0.481671	0.504898
C27	C	0.352316	-0.465109	0.521500
C28	C	0.136220	-0.188652	0.465734
C29	C	0.119621	-0.138936	0.449181
C30	C	0.079092	-0.138961	0.530374
C31	C	0.095691	-0.188678	0.546927
C32	C	0.075398	-0.404656	0.526651
C33	C	0.058814	-0.421229	0.510091
C34	C	0.139984	-0.461794	0.469452
C35	C	0.156570	-0.445221	0.486007
C36	C	0.075593	-0.404694	0.742565
C37	C	0.059066	-0.421281	0.792280
C38	C	0.140274	-0.461856	0.792215
C39	C	0.156800	-0.445269	0.742499
C40	C	0.124458	-0.416687	0.717675
C41	C	0.327446	-0.416608	0.514460
C42	C	-0.023585	-0.564792	0.161919
C43	C	-0.023910	-0.769260	0.366530
C44	C	-0.023880	-0.564780	0.366623
C45	C	-0.228325	-0.564561	0.366222
C46	C	-0.129610	-0.597564	0.333467
C47	C	-0.056729	-0.597644	0.333613
C48	C	-0.074925	-0.615849	0.315324
C49	C	-0.088689	-0.695351	0.357144
C50	C	-0.072155	-0.745068	0.373736
C51	C	0.008283	-0.745150	0.343188
C52	C	-0.008252	-0.695435	0.326596
C53	C	-0.154529	-0.609541	0.382326
C54	C	-0.204241	-0.592916	0.398818
C55	C	-0.204114	-0.552341	0.317588
C56	C	-0.154401	-0.568966	0.301096
C57	C	-0.068707	-0.548770	0.321590
C58	C	-0.052166	-0.532225	0.338221
C59	C	-0.011669	-0.613425	0.378886
C60	C	-0.028210	-0.629972	0.362261
C61	C	-0.068581	-0.548777	0.235758
C62	C	-0.051939	-0.532234	0.186043
C63	C	-0.011379	-0.613438	0.186090
C64	C	-0.028020	-0.629981	0.235806
C65	C	-0.056622	-0.597649	0.260639
C66	C	-0.056739	-0.670537	0.333576
C67	C	-0.005614	-0.545951	0.107238
C68	C	-0.006360	-0.823943	0.385033
C69	C	-0.005995	-0.545937	0.384582
C70	C	-0.283006	-0.545971	0.383725
N71	N	0.426163	-0.449489	0.481488
O72	O	0.588601	-0.457377	0.364497
O73	O	0.588789	-0.549696	0.489801
O74	O	0.588709	-0.549485	0.410335
O75	O	0.588681	-0.457588	0.443963
O76	O	0.509731	-0.523223	0.436741
O77	O	0.509811	-0.523434	0.516207
O78	O	0.509624	-0.431115	0.390903
Zn79	Zn	0.497178	-0.473105	0.457747
Zn80	Zn	0.601234	-0.507706	0.422956
O81	O	0.509704	-0.431326	0.470368
N82	N	0.672250	-0.531322	0.399211
N83	N	0.091303	-0.114798	0.481730
O84	O	-0.025603	0.047729	0.473733
O85	O	0.099703	0.047764	0.381394
O86	O	0.020199	0.047731	0.381655
O87	O	0.053901	0.047761	0.473472
O88	O	0.046564	-0.031252	0.407974
O89	O	0.126068	-0.031219	0.407713
O90	O	0.000762	-0.031254	0.500052
Zn91	Zn	0.067601	-0.043777	0.458061
Zn92	Zn	0.032864	0.060287	0.423385
O93	O	0.080266	-0.031222	0.499791
N94	N	0.009156	0.131307	0.399717
N95	N	0.091635	-0.449614	0.816396
O96	O	0.083664	-0.566502	0.978913
O97	O	-0.008637	-0.441152	0.978954
O98	O	-0.008421	-0.520640	0.978930
O99	O	0.083448	-0.487013	0.978936
O100	O	0.017877	-0.494296	0.899950
O101	O	0.017661	-0.414807	0.899974
O102	O	0.109961	-0.540157	0.899933
Zn103	Zn	0.067986	-0.473299	0.887414
Zn104	Zn	0.033338	-0.508010	0.991473
O105	O	0.109746	-0.460669	0.899956
N106	N	0.009689	-0.531700	1.062491
C107	C	0.030367	-0.412095	0.382120
C108	C	0.128741	-0.510370	0.382016
C109	C	0.070168	-0.569147	0.499490
C110	C	-0.028207	-0.470871	0.499595
C111	C	0.549323	-0.549278	0.518791
C112	C	0.549225	-0.549017	0.420381
C113	C	0.549087	-0.431532	0.361914
C114	C	0.549188	-0.431794	0.460322
C115	C	0.128638	0.008374	0.381806
C116	C	0.030215	0.008236	0.382161
C117	C	-0.028206	0.008233	0.499608
C118	C	0.070250	0.008272	0.499285
C119	C	-0.008199	-0.412187	0.939469
C120	C	-0.007927	-0.510619	0.939425
C121	C	0.109523	-0.569121	0.939417
C122	C	0.109257	-0.470684	0.939444
H123	H	0.019274	-0.411508	0.812539
H124	H	0.549237	-0.577886	0.413185
H125	H	0.549371	-0.578259	0.554780
O126	O	0.143750	-0.462137	0.939375
C127	C	0.183776	-0.467395	0.898455
H128	H	0.183398	-0.491214	0.884813
H129	H	0.217489	-0.484150	0.907644
H130	H	0.182806	-0.431076	0.869820
H131	H	0.549027	-0.402547	0.325928
O132	O	0.084039	-0.212869	0.594394
C133	C	0.059043	-0.241664	0.606441
H134	H	0.042161	-0.226682	0.578458
H135	H	0.030121	-0.242266	0.642559
H136	H	0.084633	-0.279328	0.608049
H137	H	0.138503	-0.605120	0.939399
O138	O	0.021775	-0.369129	0.347626
C139	C	-0.016688	-0.360656	0.336721
H140	H	-0.020460	-0.395933	0.347200
H141	H	-0.009978	-0.341392	0.296978
H142	H	-0.050727	-0.337791	0.357164
H143	H	0.077330	-0.605181	0.528391
H144	H	-0.064192	0.008222	0.528596
O145	O	0.549156	-0.397397	0.468988
C146	C	0.549229	-0.414704	0.515650
H147	H	0.534316	-0.445210	0.538125
H148	H	0.526295	-0.384972	0.531647
H149	H	0.587131	-0.427923	0.514911
H150	H	-0.064213	-0.463781	0.528541
O151	O	0.171498	0.008671	0.347179
C152	C	0.201044	0.008764	0.364223
H153	H	0.178209	0.023559	0.394819
H154	H	0.223603	0.031885	0.334397
H155	H	0.225212	-0.029075	0.377234
H156	H	0.022995	0.008233	0.353314
H157	H	0.077468	0.008281	0.528131
O158	O	-0.042726	-0.369221	0.939504
C159	C	-0.025629	-0.339664	0.939499
H160	H	0.004863	-0.362499	0.954444
H161	H	-0.055469	-0.316916	0.962439
H162	H	-0.012457	-0.315676	0.901611
O163	O	-0.042329	-0.519262	0.939446
C164	C	-0.053249	-0.557716	0.980335
H165	H	-0.021869	-0.580461	0.993990
H166	H	-0.060826	-0.580143	0.971100
H167	H	-0.085883	-0.543640	1.008977
H168	H	0.049253	-0.381417	0.722357
H169	H	0.166612	-0.485121	0.812425
O170	O	0.171726	-0.518898	0.347538
C171	C	0.201240	-0.565564	0.364692
H172	H	0.188361	-0.578142	0.405142
H173	H	0.239292	-0.566160	0.350140
H174	H	0.199931	-0.590123	0.352666
H175	H	0.196592	-0.455039	0.722237
H176	H	0.049100	-0.381393	0.549936
H177	H	0.166284	-0.485062	0.446169
O178	O	0.011318	-0.409555	0.521854
C179	C	-0.013630	-0.380782	0.550643
H180	H	0.010104	-0.387124	0.568692
H181	H	-0.046784	-0.390121	0.578790
H182	H	-0.024384	-0.341836	0.527729
H183	H	0.332093	-0.491119	0.540748
O184	O	0.204061	-0.456845	0.474222
C185	C	0.224657	-0.439811	0.424426
H186	H	0.201065	-0.434947	0.407052
H187	H	0.261230	-0.466440	0.412774
H188	H	0.228333	-0.404275	0.413183
O189	O	0.426134	-0.528786	0.511706
C190	C	0.413974	-0.543968	0.489385
H191	H	0.377864	-0.518763	0.485178
H192	H	0.412296	-0.581374	0.512011
H193	H	0.441929	-0.544044	0.452919
O194	O	0.426109	-0.370174	0.451188
C195	C	0.413911	-0.336418	0.410224
H196	H	0.400229	-0.351739	0.398817
H197	H	0.446588	-0.327310	0.380365
H198	H	0.385055	-0.302908	0.418365
O199	O	0.328104	-0.337548	0.483926
C200	C	0.299309	-0.320326	0.456923
H201	H	0.314278	-0.344481	0.435673
H202	H	0.298724	-0.282808	0.431564
H203	H	0.261643	-0.319763	0.481694
H204	H	0.159477	-0.208876	0.439413
H205	H	0.129365	-0.118686	0.409385
H206	H	-0.061683	-0.492436	0.165791
O207	O	0.051407	-0.114880	0.561816
C208	C	0.076552	-0.127018	0.590519
H209	H	0.105502	-0.163107	0.590982
H210	H	0.051074	-0.128736	0.628232
H211	H	0.093411	-0.099027	0.575554
O212	O	-0.096290	-0.517353	0.259863
C213	C	-0.071179	-0.488641	0.247757
H214	H	-0.031407	-0.507874	0.234142
H215	H	-0.080107	-0.481123	0.280463
H216	H	-0.081717	-0.453711	0.218876
O217	O	0.016342	-0.644893	0.162024
C218	C	-0.008780	-0.673587	0.174115
H219	H	-0.037758	-0.674036	0.210180
H220	H	0.016706	-0.711307	0.175856
H221	H	-0.025601	-0.658622	0.146085
O222	O	-0.016486	-0.677446	0.260028
C223	C	-0.058280	-0.689410	0.288710
H224	H	-0.089509	-0.656624	0.296115
H225	H	-0.053891	-0.718235	0.323694
H226	H	-0.065236	-0.703046	0.269516
H227	H	-0.091926	-0.522444	0.298262
H228	H	0.011557	-0.639751	0.402207
O229	O	-0.063731	-0.484745	0.326458
C230	C	-0.046659	-0.464135	0.276666
H231	H	-0.016000	-0.492476	0.260684
H232	H	-0.033726	-0.434861	0.267178
H233	H	-0.076443	-0.448403	0.261871
H234	H	-0.018458	-0.669769	0.372051
H235	H	0.047765	-0.765423	0.337508
O236	O	0.022848	-0.671402	0.303730
C237	C	0.069189	-0.704041	0.301120
H238	H	0.067255	-0.739465	0.330485
H239	H	0.089580	-0.689701	0.305670
H240	H	0.088206	-0.709349	0.265097
O241	O	-0.228524	-0.604488	0.446267
C242	C	-0.277718	-0.583694	0.453882
H243	H	-0.284449	-0.551783	0.421235
H244	H	-0.296651	-0.571617	0.486098
H245	H	-0.291832	-0.610866	0.460470
O246	O	-0.103255	-0.769099	0.396608
C247	C	-0.126518	-0.756949	0.366160
H248	H	-0.125304	-0.720887	0.337824
H249	H	-0.165071	-0.755169	0.387628
H250	H	-0.107991	-0.784967	0.348408
O251	O	-0.130497	-0.637368	0.413814
C252	C	-0.142682	-0.679040	0.442532
H253	H	-0.178761	-0.672334	0.442956
H254	H	-0.144438	-0.689519	0.480255
H255	H	-0.114699	-0.708964	0.427610
O256	O	-0.228149	-0.524619	0.286101
C257	C	-0.215985	-0.549735	0.257362
H258	H	-0.179910	-0.578705	0.256928
H259	H	-0.214228	-0.524239	0.219645
H260	H	-0.243979	-0.566571	0.272271
H261	H	-0.134111	-0.559208	0.261309
H262	H	-0.128170	-0.675084	0.362831
