data_functionalizedCrystal
_audit_creation_method	'MofGen! by Chris Wilmer'
_symmetry_space_group_name_H-M	'P1'
_symmetry_Int_Tables_number	1
_symmetry_cell_setting	triclinic
loop_
_symmetry_equiv_pos_as_xyz
  x,y,z
_cell_length_a	19.077236
_cell_length_b	10.686203
_cell_length_c	19.076919
_cell_angle_alpha	88.084089
_cell_angle_beta	90.112677
_cell_angle_gamma	92.251081
loop_
_atom_site_label
_atom_site_type_symbol
_atom_site_fract_x
_atom_site_fract_y
_atom_site_fract_z
Zn1	Zn	1.078584	0.455243	0.421946
Zn2	Zn	1.092183	0.656222	0.296229
Zn3	Zn	0.965771	0.454586	0.299752
Zn4	Zn	0.970749	0.672953	0.408284
O5	O	1.026822	0.559751	0.356553
O6	O	1.178422	0.475177	0.409512
O7	O	1.079022	0.622197	0.198663
O8	O	0.972961	0.279175	0.323154
O9	O	1.188413	0.622835	0.317149
O10	O	1.055845	0.279658	0.412928
O11	O	0.986148	0.474056	0.201252
O12	O	0.868397	0.490279	0.309906
O13	O	0.981445	0.651351	0.508130
O14	O	0.872054	0.650713	0.389644
O15	O	1.060672	0.491400	0.518167
O16	O	1.083849	0.833940	0.303901
O17	O	0.994632	0.846232	0.386228
C18	C	0.844807	0.572241	0.348675
C19	C	0.766941	0.577616	0.345321
C20	C	0.725161	0.503396	0.391897
C21	C	0.651997	0.508440	0.388739
C22	C	0.620615	0.587711	0.339008
C23	C	0.662400	0.661934	0.292427
C24	C	0.735562	0.656883	0.295582
C25	C	0.402362	0.611042	0.324406
C26	C	0.329194	0.616090	0.321255
C27	C	0.318796	0.462593	0.417567
C28	C	0.391960	0.457555	0.420720
C29	C	0.433739	0.531773	0.374137
N30	N	0.545830	0.592872	0.335781
N31	N	0.508522	0.526605	0.377362
C32	C	1.041275	0.885590	0.343216
C33	C	1.047521	1.024983	0.337536
C34	C	1.209548	0.547213	0.364461
C35	C	1.287415	0.541870	0.367831
C36	C	1.020097	0.573315	0.539278
C37	C	1.017231	0.579095	0.617145
C38	C	1.012324	1.232640	0.369965
C39	C	1.006128	1.093248	0.375699
C40	C	1.033557	0.546147	0.174544
C41	C	1.036543	0.540004	0.096698
C42	C	1.057132	0.498537	0.658953
C43	C	1.054430	0.503964	0.732117
C44	C	1.011832	0.589956	0.763471
C45	C	0.971926	0.670518	0.721657
C46	C	0.974624	0.665084	0.648494
C47	C	0.999336	0.615132	0.981722
C48	C	0.996642	0.620562	1.054889
C49	C	1.079145	0.454006	1.065345
C50	C	1.081843	0.448585	0.992181
C51	C	1.041935	0.529142	0.950373
N52	N	1.009071	0.595508	0.838256
N53	N	1.044692	0.523583	0.875590
H54	H	0.417506	0.393008	0.461219
F55	F	0.295797	0.700490	0.268335
F56	F	0.953560	1.030256	0.424086
H57	H	0.617983	0.448004	0.426667
H58	H	1.116533	0.378564	0.966658
H59	H	0.436369	0.671477	0.286475
F60	F	1.096924	0.418263	0.776609
H61	H	0.284773	0.402167	0.455491
F62	F	1.100084	1.087980	0.289140
H63	H	1.111635	0.388419	1.099392
H64	H	1.091822	0.428516	0.633431
F65	F	0.628999	0.746295	0.239496
F66	F	0.780027	0.735880	0.246010
H67	H	0.961951	0.690591	1.080415
H68	H	0.966851	0.680745	0.947690
F69	F	0.926586	0.762033	0.755027
F70	F	0.932155	0.750823	0.603998
H71	H	0.750707	0.438848	0.432395
