data_functionalizedCrystal
_audit_creation_method	'MofGen! by Chris Wilmer'
_symmetry_space_group_name_H-M	'P1'
_symmetry_Int_Tables_number	1
_symmetry_cell_setting	triclinic
loop_
_symmetry_equiv_pos_as_xyz
  x,y,z
_cell_length_a	16.959455
_cell_length_b	16.959453
_cell_length_c	16.959447
_cell_angle_alpha	89.972501
_cell_angle_beta	89.982507
_cell_angle_gamma	90.016935
loop_
_atom_site_label
_atom_site_type_symbol
_atom_site_fract_x
_atom_site_fract_y
_atom_site_fract_z
Zn1	Zn	1.208409	-0.314758	-0.446905
Zn2	Zn	1.208324	-0.446942	-0.314724
Zn3	Zn	1.076230	-0.314775	-0.314742
Zn4	Zn	1.076202	-0.446892	-0.446863
O5	O	1.142291	-0.380842	-0.380808
O6	O	1.319009	-0.332307	-0.429381
O7	O	1.190778	-0.429438	-0.204116
O8	O	1.093811	-0.204162	-0.332299
O9	O	1.318946	-0.429422	-0.332268
O10	O	1.190922	-0.204149	-0.429398
O11	O	1.093729	-0.332335	-0.204129
O12	O	0.965616	-0.332286	-0.332258
O13	O	1.093764	-0.429336	-0.557479
O14	O	0.965595	-0.429352	-0.429327
O15	O	1.190895	-0.332258	-0.557510
O16	O	1.190751	-0.557547	-0.332228
O17	O	1.093682	-0.557509	-0.429310
C18	C	0.936925	-0.380816	-0.380790
C19	C	0.849069	-0.380823	-0.380801
C20	C	0.477579	-0.330258	-0.330370
C21	C	0.477607	-0.431490	-0.431292
C22	C	0.560153	-0.431479	-0.431287
C23	C	0.601416	-0.380857	-0.380822
C24	C	0.560133	-0.330247	-0.330362
C25	C	0.601442	-0.482094	-0.481740
C26	C	0.683993	-0.482085	-0.481737
C27	C	0.725257	-0.431459	-0.431275
C28	C	0.683969	-0.380846	-0.380814
C29	C	0.725232	-0.330224	-0.330350
C30	C	0.683946	-0.279607	-0.279892
C31	C	0.601397	-0.279621	-0.279901
C32	C	0.807806	-0.431445	-0.431266
C33	C	0.807786	-0.330213	-0.330341
C34	C	1.142226	-0.586208	-0.380780
C35	C	1.142270	-0.674065	-0.380794
C36	C	1.192922	-1.045475	-0.431463
C37	C	1.091882	-1.045605	-0.330271
C38	C	1.091852	-0.963059	-0.330253
C39	C	1.142358	-0.921717	-0.380842
C40	C	1.192893	-0.962922	-0.431449
C41	C	1.041313	-0.921849	-0.279652
C42	C	1.041281	-0.839298	-0.279633
C43	C	1.091791	-0.797955	-0.330218
C44	C	1.142328	-0.839164	-0.380827
C45	C	1.192834	-0.797822	-0.431415
C46	C	1.243376	-0.839030	-0.482021
C47	C	1.243403	-0.921579	-0.482034
C48	C	1.091764	-0.715406	-0.330205
C49	C	1.192804	-0.715269	-0.431401
C50	C	1.348460	-0.380868	-0.380827
C51	C	1.436316	-0.380880	-0.380835
C52	C	1.142336	-0.380789	-0.586977
C53	C	1.142355	-0.380767	-0.674833
C54	C	1.142379	-0.174673	-0.380855
C55	C	1.142417	-0.086817	-0.380875
C56	C	1.091792	-0.431301	-0.716093
C57	C	1.192930	-0.330206	-0.716127
C58	C	1.192946	-0.330181	-0.798673
C59	C	1.142384	-0.380715	-0.839933
C60	C	1.091806	-0.431275	-0.798647
C61	C	1.243518	-0.279616	-0.839966
C62	C	1.243536	-0.279587	-0.922517
C63	C	1.192977	-0.330126	-0.963778
C64	C	1.142397	-0.380689	-0.922487
C65	C	1.091835	-0.431223	-0.963746
C66	C	1.041259	-0.481790	-0.922456
C67	C	1.041247	-0.481814	-0.839908
C68	C	1.192989	-0.330103	-1.046326
C69	C	1.091848	-0.431197	-1.046300
C70	C	1.142293	-0.380837	-0.175442
C71	C	1.142427	-0.380637	-0.087586
H72	H	0.443960	-0.289044	-0.289291
C73	C	1.247669	-0.670529	-0.486416
C74	C	1.291919	-0.724287	-0.530746
C75	C	1.342460	-0.683102	-0.581442
H76	H	1.282185	-0.638317	-0.456295
H77	H	1.217416	-0.638344	-0.520868
H78	H	1.322170	-0.756458	-0.496299
H79	H	1.257425	-0.756501	-0.560883
H80	H	1.312206	-0.650918	-0.615894
H81	H	1.376970	-0.650892	-0.551316
H82	H	1.372484	-0.719571	-0.611532
H83	H	1.284494	-0.805360	-0.523214
H84	H	1.234074	-1.079030	-0.472663
C85	C	0.986287	-0.794664	-0.224731
C86	C	0.908077	-0.814795	-0.241859
C87	C	0.857398	-0.773701	-0.191291
H88	H	0.993395	-0.739567	-0.231912
H89	H	0.997848	-0.808242	-0.171624
H90	H	0.896520	-0.801211	-0.294954
H91	H	0.900944	-0.869884	-0.234674
H92	H	0.868959	-0.787280	-0.138184
H93	H	0.864513	-0.718607	-0.198476
H94	H	0.804328	-0.787359	-0.202900
C95	C	0.852685	-0.275380	-0.275503
C96	C	0.900059	-0.320063	-0.224767
C97	C	0.941439	-0.269578	-0.174246
H98	H	0.816363	-0.245220	-0.245380
H99	H	0.884953	-0.240989	-0.305775
H100	H	0.867793	-0.354440	-0.194497
H101	H	0.936395	-0.350221	-0.254867
H102	H	0.973708	-0.235188	-0.204519
H103	H	0.905112	-0.239421	-0.144129
H104	H	0.973593	-0.299888	-0.139821
C105	C	1.298546	-0.224798	-0.795282
C106	C	1.376745	-0.241998	-0.815398
C107	C	1.427464	-0.191508	-0.774259
H108	H	1.291413	-0.232002	-0.740192
H109	H	1.287047	-0.171670	-0.808833
H110	H	1.388240	-0.295113	-0.801841
H111	H	1.383903	-0.234788	-0.870481
H112	H	1.415964	-0.138381	-0.787811
H113	H	1.420323	-0.198717	-0.719171
H114	H	1.480526	-0.203166	-0.787908
C115	C	0.432857	-0.486576	-0.485990
C116	C	0.452902	-0.564761	-0.468637
C117	C	0.411686	-0.615527	-0.519009
H118	H	0.446378	-0.475170	-0.539143
H119	H	0.377772	-0.479391	-0.478766
H120	H	0.507975	-0.571942	-0.475868
H121	H	0.439379	-0.576191	-0.415493
H122	H	0.356601	-0.608341	-0.511785
H123	H	0.425211	-0.604114	-0.572159
H124	H	0.425275	-0.668581	-0.507237
C125	C	0.986364	-0.536619	-0.794936
C126	C	0.997157	-0.525806	-0.713813
C127	C	0.946604	-0.576268	-0.672358
H128	H	0.997861	-0.589758	-0.808357
H129	H	0.933245	-0.525033	-0.808415
H130	H	1.050264	-0.537397	-0.700339
H131	H	0.985654	-0.472677	-0.700369
H132	H	0.893485	-0.564682	-0.685837
H133	H	0.958106	-0.629404	-0.685785
H134	H	0.953915	-0.568933	-0.617312
H135	H	0.717553	-0.238394	-0.238800
C136	C	0.556736	-0.536992	-0.536662
C137	C	0.576868	-0.519884	-0.614893
C138	C	0.535701	-0.570442	-0.665515
H139	H	0.501650	-0.529787	-0.529547
H140	H	0.570253	-0.590104	-0.525056
H141	H	0.563346	-0.466786	-0.626496
H142	H	0.631947	-0.527095	-0.622034
H143	H	0.549219	-0.623553	-0.653908
H144	H	0.480617	-0.563233	-0.658392
H145	H	0.549361	-0.558846	-0.718599
C146	C	0.728913	-0.536904	-0.536571
C147	C	0.776341	-0.492203	-0.587297
C148	C	0.817741	-0.542672	-0.637817
H149	H	0.692604	-0.567070	-0.566702
H150	H	0.761148	-0.571289	-0.506298
H151	H	0.744108	-0.457831	-0.617567
H152	H	0.812664	-0.462038	-0.557189
H153	H	0.849976	-0.577057	-0.607544
H154	H	0.781426	-0.572835	-0.667942
H155	H	0.849930	-0.512350	-0.672236
H156	H	1.050616	-0.472474	-0.682471
H157	H	1.050759	-1.079270	-0.289087
C158	C	1.247954	-0.275388	-0.671440
C159	C	1.326155	-0.292590	-0.691543
C160	C	1.376869	-0.242099	-0.650399
H161	H	1.240812	-0.282590	-0.616350
H162	H	1.236457	-0.222261	-0.684995
H163	H	1.337648	-0.345704	-0.677982
H164	H	1.333322	-0.285383	-0.746626
H165	H	1.365372	-0.188972	-0.663955
H166	H	1.369720	-0.249305	-0.595312
H167	H	1.429933	-0.253759	-0.664039
H168	H	1.284551	-0.955137	-0.523234
C169	C	0.986573	-0.966875	-0.224756
C170	C	0.997438	-1.047987	-0.235581
C171	C	0.947035	-1.089493	-0.185011
H172	H	0.933417	-0.953477	-0.236218
H173	H	0.998179	-0.953415	-0.171639
H174	H	0.985826	-1.061441	-0.288685
H175	H	1.050583	-1.061408	-0.224113
H176	H	0.958642	-1.076034	-0.131894
H177	H	0.893883	-1.076089	-0.196477
H178	H	0.954405	-1.144532	-0.192343
H179	H	0.841417	-0.472660	-0.472346
H180	H	1.050610	-0.681859	-0.289007
H181	H	0.567774	-0.238412	-0.238820
H182	H	1.050677	-0.472351	-1.079887
H183	H	1.000087	-0.522931	-0.956061
H184	H	1.284720	-0.238413	-0.956128
H185	H	1.234162	-0.288925	-1.079941
