data_functionalizedCrystal
_audit_creation_method	'MofGen! by Chris Wilmer'
_symmetry_space_group_name_H-M	'P1'
_symmetry_Int_Tables_number	1
_symmetry_cell_setting	triclinic
loop_
_symmetry_equiv_pos_as_xyz
  x,y,z
_cell_length_a	10.489716
_cell_length_b	10.489741
_cell_length_c	14.048226
_cell_angle_alpha	89.993872
_cell_angle_beta	89.993931
_cell_angle_gamma	84.534155
loop_
_atom_site_label
_atom_site_type_symbol
_atom_site_fract_x
_atom_site_fract_y
_atom_site_fract_z
O1	O	1.694075	0.179822	-0.079152
O2	O	1.322876	0.196747	-0.079156
O3	O	1.516922	0.002686	-0.079148
O4	O	1.500029	0.373883	-0.079160
O5	O	1.516898	0.002674	0.079173
O6	O	1.322852	0.196735	0.079165
O7	O	1.694052	0.179810	0.079169
Zn8	Zn	1.508448	0.188271	0.104304
Zn9	Zn	1.508479	0.188286	-0.104291
O10	O	1.500005	0.373871	0.079161
C11	C	1.275332	0.195470	0.000004
C12	C	1.133701	0.191665	0.000003
C13	C	1.515634	-0.044852	0.000012
C14	C	1.511817	-0.186481	0.000010
C15	C	1.036027	0.310669	-0.000003
C16	C	0.958669	0.247779	0.078064
C17	C	0.958699	0.247763	-0.078028
C18	C	1.058208	0.128824	0.078134
C19	C	1.058244	0.128825	-0.078028
C20	C	0.980935	0.065848	0.000058
C21	C	1.388351	-0.254610	0.000002
C22	C	1.446663	-0.346743	0.078063
C23	C	1.446716	-0.346706	-0.078029
C24	C	1.570180	-0.276749	0.078136
C25	C	1.570216	-0.276702	-0.078027
C26	C	1.628618	-0.368808	0.000053
C27	C	1.741596	0.181087	0.000007
C28	C	1.883227	0.184892	0.000002
C29	C	1.501293	0.421409	-0.000001
C30	C	1.505110	0.563038	-0.000005
N31	N	1.508436	0.188260	0.246665
N32	N	1.508501	0.188287	-0.246652
C33	C	1.594387	0.102365	0.296486
C34	C	1.594396	0.102365	0.396144
C35	C	1.508458	0.188265	0.445978
C36	C	1.422498	0.274164	0.396150
C37	C	1.422484	0.274157	0.296494
C38	C	1.422535	0.274173	0.603864
C39	C	1.422550	0.274182	0.703527
C40	C	1.594447	0.102381	0.703514
C41	C	1.594433	0.102374	0.603858
C42	C	1.508474	0.188274	0.554037
H43	H	1.060696	0.414185	0.000067
H44	H	0.915177	0.298011	0.144059
H45	H	1.622366	-0.245926	0.144204
Br46	Br	0.940202	-0.106807	0.000136
Br47	Br	1.130780	0.045178	-0.188031
Br48	Br	1.130378	0.045132	0.188249
H49	H	0.915225	0.298028	-0.144018
H50	H	1.286838	-0.204950	0.000079
H51	H	1.394412	-0.377755	0.144057
Br52	Br	1.797963	-0.451204	0.000120
Br53	Br	1.657235	-0.224955	-0.188028
H54	H	1.394469	-0.377661	-0.144030
H55	H	1.664373	0.032420	0.255917
Br56	Br	1.711041	-0.014212	0.463762
Br57	Br	1.711109	-0.014191	0.771131
H58	H	1.664415	0.032434	0.563283
Br59	Br	1.305915	0.390767	0.771152
Br60	Br	1.305867	0.390749	0.536252
Br61	Br	1.305856	0.390738	0.463779
H62	H	1.352492	0.344099	0.255930
