data_functionalizedCrystal
_audit_creation_method	'MofGen! by Chris Wilmer'
_symmetry_space_group_name_H-M	'P1'
_symmetry_Int_Tables_number	1
_symmetry_cell_setting	triclinic
loop_
_symmetry_equiv_pos_as_xyz
  x,y,z
_cell_length_a	16.974800
_cell_length_b	14.044190
_cell_length_c	15.455313
_cell_angle_alpha	92.904485
_cell_angle_beta	90.973911
_cell_angle_gamma	88.281173
loop_
_atom_site_label
_atom_site_type_symbol
_atom_site_fract_x
_atom_site_fract_y
_atom_site_fract_z
O1	O	1.057573	0.120854	0.002126
O2	O	1.557573	0.620854	0.502126
O3	O	0.829158	0.135332	-0.013917
O4	O	1.329158	0.635332	0.486083
O5	O	0.939933	-0.009900	-0.006120
O6	O	1.439933	0.490100	0.493880
O7	O	0.946798	0.266086	-0.005672
O8	O	1.446798	0.766086	0.494328
O9	O	0.933596	-0.001629	0.137696
O10	O	1.433596	0.498371	0.637696
O11	O	0.822821	0.143603	0.129899
O12	O	1.322821	0.643603	0.629899
O13	O	1.051236	0.129125	0.145942
O14	O	1.551236	0.629125	0.645942
Cu15	Cu	0.936450	0.137119	0.151052
Cu16	Cu	1.436450	0.637119	0.651052
Cu17	Cu	0.943944	0.127338	-0.019027
Cu18	Cu	1.443944	0.627338	0.480973
O19	O	0.940461	0.274357	0.138144
O20	O	1.440461	0.774357	0.638144
C21	C	0.796581	0.138766	0.055925
C22	C	1.296581	0.638766	0.555925
C23	C	0.708952	0.136662	0.049771
C24	C	1.208952	0.636662	0.549771
C25	C	0.664333	0.140180	0.125276
C26	C	1.164333	0.640180	0.625276
C27	C	0.581996	0.138188	0.119496
C28	C	1.081996	0.638188	0.619496
C29	C	0.544279	0.132685	0.038211
C30	C	1.044279	0.632685	0.538211
C31	C	0.588904	0.129164	-0.037300
C32	C	1.088904	0.629164	0.462700
C33	C	0.671239	0.131149	-0.031519
C34	C	1.171239	0.631149	0.468481
C35	C	0.298403	0.126259	0.012516
C36	C	0.798403	0.626259	0.512516
C37	C	0.216061	0.124277	0.006740
C38	C	0.716061	0.624277	0.506740
C39	C	0.209160	0.133299	0.163537
C40	C	0.709160	0.633299	0.663537
C41	C	0.291497	0.135289	0.169311
C42	C	0.791497	0.635289	0.669311
C43	C	0.336114	0.131763	0.093800
C44	C	0.836114	0.631763	0.593800
N45	N	0.460118	0.130652	0.032301
N46	N	0.960118	0.630652	0.532301
N47	N	0.420275	0.133789	0.099711
N48	N	0.920275	0.633789	0.599711
C49	C	0.933763	-0.041087	0.065580
C50	C	1.433763	0.458913	0.565580
C51	C	0.924807	-0.146336	0.064958
C52	C	1.424807	0.353664	0.564958
C53	C	0.971949	-0.396499	0.068236
C54	C	1.471949	0.103501	0.568236
C55	C	0.908449	-0.339039	0.063782
C56	C	1.408449	0.160961	0.563782
C57	C	0.917553	-0.231809	0.064436
C58	C	1.417553	0.268191	0.564436
C59	C	0.962847	-0.503738	0.067581
C60	C	1.462847	-0.003738	0.567581
C61	C	1.083813	0.125692	0.076097
C62	C	1.583813	0.625692	0.576097
C63	C	1.171443	0.127795	0.082245
C64	C	1.671443	0.627795	0.582245
C65	C	0.946632	0.305544	0.066443
C66	C	1.446632	0.805544	0.566443
C67	C	0.955588	0.410793	0.067058
C68	C	1.455588	0.910793	0.567058
N69	N	0.931185	0.143998	0.270677
N70	N	1.431185	0.643998	0.770677
N71	N	0.949215	0.120452	-0.138652
N72	N	1.449215	0.620452	0.361348
C73	C	0.978265	0.082321	0.319385
C74	C	1.478265	0.582321	0.819385
C75	C	0.974291	0.087532	0.409913
C76	C	1.474291	0.587532	0.909913
C77	C	0.923240	0.154425	0.451732
C78	C	1.423240	0.654425	0.951732
C79	C	0.876154	0.216105	0.403017
C80	C	1.376154	0.716105	0.903017
C81	C	0.880125	0.210889	0.312490
C82	C	1.380125	0.710889	0.812490
C83	C	0.906100	0.176915	0.722107
C84	C	1.406100	0.676915	1.222107
C85	C	0.902135	0.182129	0.812640
C86	C	1.402135	0.682129	1.312640
C87	C	1.000271	0.053554	0.819530
C88	C	1.500271	0.553554	1.319530
C89	C	1.004241	0.048347	0.729001
C90	C	1.504241	0.548347	1.229001
C91	C	0.957152	0.110024	0.680294
C92	C	1.457152	0.610024	1.180294
N93	N	0.919178	0.159755	0.544266
N94	N	1.419178	0.659755	1.044266
N95	N	0.961210	0.104688	0.587761
N96	N	1.461210	0.604688	1.087761
H97	H	0.695036	0.144668	0.191468
H98	H	1.195036	0.644668	0.691468
H99	H	0.558188	0.124677	-0.103484
H100	H	1.058188	0.624677	0.396516
H101	H	1.033146	-0.365161	0.072543
H102	H	1.533146	0.134839	0.572543
H103	H	0.172824	0.136168	0.225014
H104	H	0.672824	0.636168	0.725014
H105	H	1.019840	0.027854	0.285343
H106	H	1.519840	0.527854	0.785343
H107	H	0.867760	0.227136	0.682456
H108	H	1.367760	0.727136	1.182456
Br109	Br	1.038184	0.003823	0.476020
Br110	Br	1.538184	0.503823	0.976020
H111	H	1.045810	-0.006122	0.694955
H112	H	1.545810	0.493878	1.194955
Br113	Br	1.064173	-0.030147	0.885635
Br114	Br	1.564173	0.469853	1.385635
Br115	Br	0.806440	-0.391267	0.056613
Br116	Br	1.306440	0.108733	0.556613
H117	H	0.707567	0.128286	-0.093003
H118	H	1.207567	0.628286	0.406997
H119	H	0.860561	0.236605	0.846684
H120	H	1.360561	0.736605	1.346684
H121	H	0.834583	0.270568	0.437070
H122	H	1.334583	0.770568	0.937070
Br123	Br	0.816221	0.294591	0.246385
Br124	Br	1.316221	0.794591	0.746385
H125	H	0.545672	0.141037	0.180981
H126	H	1.045672	0.641037	0.680981
H127	H	0.322201	0.139766	0.235502
H128	H	0.822201	0.639766	0.735502
Br129	Br	0.164874	0.116815	-0.103583
Br130	Br	0.664874	0.616815	0.396417
Br131	Br	0.358945	0.121472	-0.089964
Br132	Br	0.858945	0.621472	0.410036
