data_functionalizedCrystal
_audit_creation_method	'MofGen! by Chris Wilmer'
_symmetry_space_group_name_H-M	'P1'
_symmetry_Int_Tables_number	1
_symmetry_cell_setting	triclinic
loop_
_symmetry_equiv_pos_as_xyz
  x,y,z
_cell_length_a	34.490303
_cell_length_b	34.489386
_cell_length_c	34.485816
_cell_angle_alpha	60.004462
_cell_angle_beta	60.008900
_cell_angle_gamma	59.994399
loop_
_atom_site_label
_atom_site_type_symbol
_atom_site_fract_x
_atom_site_fract_y
_atom_site_fract_z
O1	O	0.053846	-0.566517	0.473678
O2	O	0.020329	-0.441078	0.381663
O3	O	0.099768	-0.520436	0.381578
O4	O	-0.025592	-0.487159	0.473762
O5	O	0.126127	-0.494082	0.407849
O6	O	0.046689	-0.414724	0.407933
O7	O	0.080206	-0.540163	0.499949
Zn8	Zn	0.067632	-0.473259	0.458112
Zn9	Zn	0.032903	-0.507982	0.423499
O10	O	0.000767	-0.460805	0.500033
N11	N	0.091336	-0.449565	0.481736
N12	N	0.009203	-0.531680	0.399875
C13	C	0.142510	-0.268211	0.532817
C14	C	0.142641	-0.398441	0.662987
C15	C	0.142524	-0.398421	0.532817
C16	C	0.272762	-0.398394	0.532723
C17	C	0.156853	-0.311177	0.547124
C18	C	0.156928	-0.384109	0.620020
C19	C	0.229794	-0.384081	0.547073
C20	C	0.156863	-0.384097	0.547124
C21	C	0.124253	-0.213522	0.514606
C22	C	0.124277	-0.416652	0.514606
C23	C	0.175110	-0.365866	0.565335
C24	C	0.352285	-0.384669	0.490824
C25	C	0.401998	-0.401229	0.474223
C26	C	0.402027	-0.481671	0.504898
C27	C	0.352316	-0.465109	0.521500
C28	C	0.136220	-0.188652	0.465734
C29	C	0.119621	-0.138936	0.449181
C30	C	0.079092	-0.138961	0.530374
C31	C	0.095691	-0.188678	0.546927
C32	C	0.075398	-0.404656	0.526651
C33	C	0.058814	-0.421229	0.510091
C34	C	0.139984	-0.461794	0.469452
C35	C	0.156570	-0.445221	0.486007
C36	C	0.075593	-0.404694	0.742565
C37	C	0.059066	-0.421281	0.792280
C38	C	0.140274	-0.461856	0.792215
C39	C	0.156800	-0.445269	0.742499
C40	C	0.124458	-0.416687	0.717675
C41	C	0.327446	-0.416608	0.514460
C42	C	-0.023585	-0.564792	0.161919
C43	C	-0.023910	-0.769260	0.366530
C44	C	-0.023880	-0.564780	0.366623
C45	C	-0.228325	-0.564561	0.366222
C46	C	-0.129610	-0.597564	0.333467
C47	C	-0.056729	-0.597644	0.333613
C48	C	-0.074925	-0.615849	0.315324
C49	C	-0.088689	-0.695351	0.357144
C50	C	-0.072155	-0.745068	0.373736
C51	C	0.008283	-0.745150	0.343188
C52	C	-0.008252	-0.695435	0.326596
C53	C	-0.154529	-0.609541	0.382326
C54	C	-0.204241	-0.592916	0.398818
C55	C	-0.204114	-0.552341	0.317588
C56	C	-0.154401	-0.568966	0.301096
C57	C	-0.068707	-0.548770	0.321590
C58	C	-0.052166	-0.532225	0.338221
C59	C	-0.011669	-0.613425	0.378886
C60	C	-0.028210	-0.629972	0.362261
C61	C	-0.068581	-0.548777	0.235758
C62	C	-0.051939	-0.532234	0.186043
C63	C	-0.011379	-0.613438	0.186090
C64	C	-0.028020	-0.629981	0.235806
C65	C	-0.056622	-0.597649	0.260639
C66	C	-0.056739	-0.670537	0.333576
C67	C	-0.005614	-0.545951	0.107238
C68	C	-0.006360	-0.823943	0.385033
C69	C	-0.005995	-0.545937	0.384582
C70	C	-0.283006	-0.545971	0.383725
N71	N	0.426163	-0.449489	0.481488
O72	O	0.588601	-0.457377	0.364497
O73	O	0.588789	-0.549696	0.489801
O74	O	0.588709	-0.549485	0.410335
O75	O	0.588681	-0.457588	0.443963
O76	O	0.509731	-0.523223	0.436741
O77	O	0.509811	-0.523434	0.516207
O78	O	0.509624	-0.431115	0.390903
Zn79	Zn	0.497178	-0.473105	0.457747
Zn80	Zn	0.601234	-0.507706	0.422956
O81	O	0.509704	-0.431326	0.470368
N82	N	0.672250	-0.531322	0.399211
N83	N	0.091303	-0.114798	0.481730
O84	O	-0.025603	0.047729	0.473733
O85	O	0.099703	0.047764	0.381394
O86	O	0.020199	0.047731	0.381655
O87	O	0.053901	0.047761	0.473472
O88	O	0.046564	-0.031252	0.407974
O89	O	0.126068	-0.031219	0.407713
O90	O	0.000762	-0.031254	0.500052
Zn91	Zn	0.067601	-0.043777	0.458061
Zn92	Zn	0.032864	0.060287	0.423385
O93	O	0.080266	-0.031222	0.499791
N94	N	0.009156	0.131307	0.399717
N95	N	0.091635	-0.449614	0.816396
O96	O	0.083664	-0.566502	0.978913
O97	O	-0.008637	-0.441152	0.978954
O98	O	-0.008421	-0.520640	0.978930
O99	O	0.083448	-0.487013	0.978936
O100	O	0.017877	-0.494296	0.899950
O101	O	0.017661	-0.414807	0.899974
O102	O	0.109961	-0.540157	0.899933
Zn103	Zn	0.067986	-0.473299	0.887414
Zn104	Zn	0.033338	-0.508010	0.991473
O105	O	0.109746	-0.460669	0.899956
N106	N	0.009689	-0.531700	1.062491
C107	C	0.030367	-0.412095	0.382120
C108	C	0.128741	-0.510370	0.382016
C109	C	0.070168	-0.569147	0.499490
C110	C	-0.028207	-0.470871	0.499595
C111	C	0.549323	-0.549278	0.518791
C112	C	0.549225	-0.549017	0.420381
C113	C	0.549087	-0.431532	0.361914
C114	C	0.549188	-0.431794	0.460322
C115	C	0.128638	0.008374	0.381806
C116	C	0.030215	0.008236	0.382161
C117	C	-0.028206	0.008233	0.499608
C118	C	0.070250	0.008272	0.499285
C119	C	-0.008199	-0.412187	0.939469
C120	C	-0.007927	-0.510619	0.939425
C121	C	0.109523	-0.569121	0.939417
C122	C	0.109257	-0.470684	0.939444
H123	H	0.019274	-0.411508	0.812539
H124	H	-0.036776	-0.517804	0.939391
H125	H	-0.064213	-0.463781	0.528541
C126	C	0.026501	-0.668552	0.300951
C127	C	0.060042	-0.680688	0.260292
C128	C	0.092068	-0.655939	0.236658
H129	H	0.009774	-0.635370	0.292019
H130	H	0.042209	-0.676722	0.321431
H131	H	0.044335	-0.672515	0.239816
H132	H	0.076780	-0.713866	0.269210
H133	H	0.107775	-0.664108	0.257139
H134	H	0.075336	-0.622757	0.227730
H135	H	0.114831	-0.664172	0.209071
H136	H	0.077330	-0.605181	0.528391
C137	C	-0.076149	0.008198	0.538331
C138	C	-0.076059	0.008194	0.578888
C139	C	-0.120213	0.008155	0.614571
H140	H	-0.100365	0.035727	0.527520
H141	H	-0.081943	-0.019363	0.545843
H142	H	-0.070271	0.035752	0.571376
H143	H	-0.051852	-0.019333	0.589713
H144	H	-0.126007	-0.019406	0.622082
H145	H	-0.144426	0.035685	0.603755
H146	H	-0.120156	0.008148	0.642094
C147	C	0.020721	-0.364027	0.343634
C148	C	-0.025634	-0.334821	0.360792
C149	C	-0.034539	-0.290540	0.325350
H150	H	0.042604	-0.349702	0.334943
H151	H	0.024235	-0.368126	0.316645
H152	H	-0.029143	-0.330721	0.387772
H153	H	-0.047526	-0.349131	0.369480
H154	H	-0.031025	-0.294639	0.298361
H155	H	-0.012653	-0.276220	0.316661
H156	H	-0.065992	-0.270720	0.336985
H157	H	0.077468	0.008281	0.528131
C158	C	0.020517	0.008186	0.343769
C159	C	-0.025837	0.008151	0.361017
C160	C	-0.034783	0.008090	0.325669
H161	H	0.023998	0.035718	0.316733
H162	H	0.042408	-0.019372	0.335133
H163	H	-0.047722	0.035706	0.369647
H164	H	-0.029330	-0.019379	0.388049
H165	H	-0.012892	-0.019467	0.317033
H166	H	-0.031299	0.035623	0.298635
H167	H	-0.066233	0.008062	0.337368
C168	C	0.176787	-0.519906	0.343483
C169	C	0.206068	-0.566245	0.360568
C170	C	0.250332	-0.575043	0.325088
H171	H	0.172697	-0.516373	0.316485
H172	H	0.191046	-0.497976	0.334830
H173	H	0.191812	-0.588168	0.369215
H174	H	0.210171	-0.569789	0.387562
H175	H	0.264591	-0.553114	0.316435
H176	H	0.246238	-0.571508	0.298091
H177	H	0.270206	-0.606483	0.336676
H178	H	0.049253	-0.381417	0.722357
H179	H	-0.037176	-0.376187	0.939482
H180	H	-0.018278	-0.669778	0.256062
C181	C	0.148097	-0.617161	0.939422
C182	C	0.131078	-0.646476	0.939425
C183	C	0.166596	-0.690735	0.939434
H184	H	0.175096	-0.613062	0.911885
H185	H	0.156732	-0.631400	0.966973
H186	H	0.122450	-0.632240	0.911877
H187	H	0.104084	-0.650589	0.966960
H188	H	0.175231	-0.704974	0.966985
H189	H	0.193593	-0.686631	0.911897
H190	H	0.155052	-0.710632	0.939440
C191	C	0.147759	-0.461033	0.939340
C192	C	0.158547	-0.422844	0.898706
C193	C	0.194017	-0.413943	0.898591
H194	H	0.136847	-0.453468	0.966854
H195	H	0.175421	-0.488467	0.939303
H196	H	0.130890	-0.395416	0.898748
H197	H	0.169467	-0.430398	0.871186
H198	H	0.221678	-0.441377	0.898554
H199	H	0.183100	-0.406380	0.926106
H200	H	0.201343	-0.388034	0.871020
C201	C	0.175408	-0.492963	0.819145
C202	C	0.203919	-0.534351	0.807041
C203	C	0.236283	-0.563026	0.831845
H204	H	0.194844	-0.476153	0.811009
H205	H	0.158581	-0.501156	0.852321
H206	H	0.220744	-0.526158	0.773871
H207	H	0.184495	-0.551173	0.815177
H208	H	0.219457	-0.571219	0.865021
H209	H	0.255716	-0.546212	0.823707
H210	H	0.255629	-0.591113	0.823639
C211	C	0.209852	-0.458356	0.715453
C212	C	0.221721	-0.483211	0.686920
C213	C	0.270588	-0.495280	0.662005
H214	H	0.218042	-0.430275	0.696019
H215	H	0.226762	-0.477774	0.737345
H216	H	0.204817	-0.463793	0.665031
H217	H	0.213543	-0.511297	0.706342
H218	H	0.287498	-0.514697	0.683896
H219	H	0.278773	-0.467196	0.642574
H220	H	0.278648	-0.512148	0.642645
H221	H	0.549237	-0.577886	0.413185
C222	C	0.040313	-0.373556	0.557615
C223	C	0.011773	-0.332160	0.532668
C224	C	-0.020549	-0.303496	0.561175
H225	H	0.020892	-0.390369	0.585739
H226	H	0.057172	-0.365371	0.565743
H227	H	-0.005085	-0.340346	0.524547
H228	H	0.031181	-0.315334	0.504546
H229	H	-0.003691	-0.295311	0.569303
H230	H	-0.039967	-0.320313	0.589298
H231	H	-0.039915	-0.275404	0.544251
C232	C	0.005740	-0.408278	0.523262
C233	C	-0.014672	-0.425213	0.572716
C234	C	-0.063560	-0.413299	0.584866
H235	H	-0.008306	-0.374741	0.511894
H236	H	0.000471	-0.422253	0.509330
H237	H	-0.009407	-0.411236	0.586642
H238	H	-0.000639	-0.458749	0.584096
H239	H	-0.068829	-0.427274	0.570935
H240	H	-0.077602	-0.379762	0.573495
H241	H	-0.077415	-0.424791	0.618422
H242	H	0.549371	-0.578259	0.554780
H243	H	0.196371	-0.454985	0.476195
C244	C	0.175073	-0.492732	0.438323
C245	C	0.203551	-0.467745	0.396921
C246	C	0.235876	-0.496224	0.368230
H247	H	0.194536	-0.520850	0.455110
H248	H	0.158217	-0.500877	0.430152
H249	H	0.220407	-0.459607	0.405093
H250	H	0.184101	-0.439629	0.380121
H251	H	0.219020	-0.504369	0.360058
H252	H	0.255336	-0.524341	0.385021
H253	H	0.255199	-0.479273	0.340133
C254	C	0.325435	-0.499861	0.547131
C255	C	0.357859	-0.545877	0.549727
C256	C	0.333114	-0.577903	0.573330
H257	H	0.306061	-0.498661	0.578299
H258	H	0.306032	-0.491573	0.530206
H259	H	0.377254	-0.554162	0.566653
H260	H	0.377233	-0.547091	0.518566
H261	H	0.313711	-0.569615	0.556404
H262	H	0.313742	-0.576700	0.604496
H263	H	0.355110	-0.609128	0.575090
H264	H	0.422223	-0.375220	0.454977
C265	C	0.429090	-0.534325	0.512569
C266	C	0.457672	-0.551382	0.539384
C267	C	0.482615	-0.599884	0.546453
H268	H	0.407231	-0.551035	0.529042
H269	H	0.448490	-0.538945	0.482699
H270	H	0.438273	-0.546767	0.569249
H271	H	0.479539	-0.534686	0.522919
H272	H	0.502015	-0.604504	0.516583
H273	H	0.460753	-0.616590	0.562925
H274	H	0.502014	-0.611463	0.564644
C275	C	0.548935	-0.392899	0.313935
C276	C	0.508287	-0.382020	0.305555
C277	C	0.508133	-0.346438	0.261360
H278	H	0.548891	-0.365288	0.313839
H279	H	0.576447	-0.403759	0.289733
H280	H	0.480782	-0.371159	0.329750
H281	H	0.508322	-0.409620	0.305641
H282	H	0.535644	-0.357297	0.237158
H283	H	0.508090	-0.318830	0.261268
H284	H	0.480556	-0.339055	0.255666
C285	C	0.325369	-0.331994	0.483157
C286	C	0.357766	-0.307572	0.458915
C287	C	0.332990	-0.259049	0.451848
H288	H	0.305954	-0.320273	0.464942
H289	H	0.306005	-0.327367	0.513028
H290	H	0.377121	-0.312196	0.429049
H291	H	0.377182	-0.319279	0.477123
H292	H	0.313626	-0.254422	0.481718
H293	H	0.313576	-0.247332	0.433633
H294	H	0.354968	-0.242473	0.435403
H295	H	0.164551	0.008603	0.352745
H296	H	0.159477	-0.208876	0.439413
C297	C	0.549151	-0.393352	0.470012
C298	C	0.549199	-0.410572	0.516364
C299	C	0.549159	-0.375170	0.525309
H300	H	0.576661	-0.384651	0.448127
H301	H	0.521575	-0.366357	0.466529
H302	H	0.576773	-0.437558	0.519842
H303	H	0.521692	-0.419268	0.538259
H304	H	0.521582	-0.348175	0.521826
H305	H	0.576669	-0.366472	0.503421
H306	H	0.549187	-0.386847	0.556760
H307	H	0.129365	-0.118686	0.409385
H308	H	0.055841	-0.118733	0.556693
H309	H	0.085944	-0.208923	0.586721
H310	H	-0.091873	-0.522445	0.255974
C311	C	-0.065028	-0.479163	0.159060
C312	C	-0.114472	-0.458667	0.171068
C313	C	-0.126548	-0.409782	0.146216
H314	H	-0.053661	-0.465152	0.167222
H315	H	-0.051053	-0.473917	0.125890
H316	H	-0.128442	-0.463910	0.204230
H317	H	-0.125852	-0.472664	0.162905
H318	H	-0.112572	-0.404536	0.113046
H319	H	-0.115177	-0.395775	0.154380
H320	H	-0.160096	-0.395870	0.154356
C321	C	0.019681	-0.648618	0.159219
C322	C	0.026597	-0.694958	0.191652
C323	C	0.055213	-0.727380	0.166916
H324	H	0.004576	-0.643890	0.139780
H325	H	0.049513	-0.643909	0.139881
H326	H	-0.003229	-0.699666	0.210981
H327	H	0.041708	-0.699701	0.211092
H328	H	0.085044	-0.722670	0.147578
H329	H	0.040105	-0.722647	0.147478
H330	H	0.059913	-0.758825	0.188918
H331	H	-0.091926	-0.522444	0.298262
H332	H	-0.061921	-0.492427	0.328433
H333	H	0.011557	-0.639751	0.402207
H334	H	0.047765	-0.765423	0.337508
C335	C	-0.015134	-0.683054	0.375341
C336	C	0.013394	-0.707825	0.403977
C337	C	0.025455	-0.756725	0.416029
H338	H	-0.043218	-0.691236	0.392184
H339	H	0.001791	-0.691241	0.347243
H340	H	-0.003531	-0.699643	0.432071
H341	H	0.041484	-0.699658	0.387143
H342	H	0.042380	-0.764911	0.387931
H343	H	-0.002631	-0.764902	0.432870
H344	H	0.044816	-0.773538	0.435456
H345	H	-0.098172	-0.765271	0.392919
H346	H	-0.134345	-0.632833	0.408685
C347	C	-0.141344	-0.668407	0.364729
C348	C	-0.165781	-0.700783	0.388903
C349	C	-0.214286	-0.675979	0.395886
H350	H	-0.153099	-0.648997	0.382959
H351	H	-0.145915	-0.649034	0.334833
H352	H	-0.161213	-0.720149	0.418795
H353	H	-0.154040	-0.720195	0.370681
H354	H	-0.218857	-0.656606	0.365989
H355	H	-0.226036	-0.656570	0.414114
H356	H	-0.230872	-0.697942	0.412284
H357	H	-0.224531	-0.602667	0.438605
H358	H	-0.224299	-0.529059	0.291228
H359	H	-0.134111	-0.559208	0.261309
