data_functionalizedCrystal
_audit_creation_method	'MofGen! by Chris Wilmer'
_symmetry_space_group_name_H-M	'P1'
_symmetry_Int_Tables_number	1
_symmetry_cell_setting	triclinic
loop_
_symmetry_equiv_pos_as_xyz
  x,y,z
_cell_length_a	27.731993
_cell_length_b	10.654550
_cell_length_c	9.130313
_cell_angle_alpha	90.000110
_cell_angle_beta	89.988672
_cell_angle_gamma	83.552648
loop_
_atom_site_label
_atom_site_type_symbol
_atom_site_fract_x
_atom_site_fract_y
_atom_site_fract_z
O1	O	-0.641870	-0.149084	-0.121402
O2	O	-0.501215	-0.171875	-0.121491
O3	O	-0.574777	0.022397	-0.121439
O4	O	-0.568309	-0.343356	-0.121454
O5	O	-0.574776	0.022392	0.122160
O6	O	-0.501214	-0.171880	0.122108
O7	O	-0.641869	-0.149089	0.122197
Cu8	Cu	-0.571542	-0.160485	0.144395
Cu9	Cu	-0.571543	-0.160479	-0.143689
O10	O	-0.568308	-0.343362	0.122145
C11	C	-0.483204	-0.171410	0.000297
C12	C	-0.429539	-0.170001	0.000263
C13	C	-0.659880	-0.149555	0.000406
C14	C	-0.713545	-0.150963	0.000430
C15	C	-0.046316	-0.159787	-0.132451
C16	C	-0.248007	-0.165157	-0.132491
O17	O	-0.274084	-0.165798	-0.245423
N18	N	-0.273231	-0.165831	0.000292
C19	C	-0.248029	-0.165155	0.133094
O20	O	-0.274112	-0.165839	0.246033
C21	C	-0.046340	-0.159777	0.133133
C22	C	-0.021118	-0.159115	0.000341
C23	C	-0.021094	-0.159124	-0.265231
C24	C	0.029326	-0.157788	-0.265220
C25	C	0.054524	-0.157116	-0.132428
C26	C	0.029302	-0.157779	0.000352
C27	C	-0.021140	-0.159092	0.265933
C28	C	0.029286	-0.157744	0.265931
C29	C	0.054508	-0.157082	0.133140
C30	C	0.104920	-0.155772	0.133156
N31	N	0.130144	-0.155097	0.000373
C32	C	0.104946	-0.155769	-0.132419
C33	C	-0.353919	-0.167982	0.133065
C34	C	-0.404341	-0.169329	0.133055
C35	C	-0.404315	-0.169328	-0.132530
C36	C	-0.353892	-0.167990	-0.132519
C37	C	-0.328695	-0.167307	0.000282
C38	C	0.210832	-0.152966	-0.132385
C39	C	0.261257	-0.151636	-0.132362
C40	C	0.261226	-0.151630	0.133222
C41	C	0.210806	-0.152967	0.133200
C42	C	0.185610	-0.153630	0.000385
O43	O	0.131028	-0.155115	0.246028
O44	O	0.131037	-0.155057	-0.245341
C45	C	-0.096736	-0.161123	-0.132462
C46	C	-0.121958	-0.161786	0.000318
C47	C	-0.096760	-0.161114	0.133110
C48	C	-0.172380	-0.163133	0.000309
C49	C	-0.197578	-0.163805	-0.132483
C50	C	-0.172354	-0.163130	-0.265265
C51	C	-0.121934	-0.161795	-0.265254
C52	C	-0.121984	-0.161788	0.265893
C53	C	-0.172404	-0.163125	0.265871
C54	C	-0.197602	-0.163797	0.133079
C55	C	-0.574301	0.069173	0.000359
C56	C	-0.572880	0.208555	0.000353
C57	C	-0.568783	-0.390137	0.000344
C58	C	-0.570204	-0.529519	0.000341
N59	N	-0.571544	-0.160489	0.347018
C60	C	-0.616192	0.289884	0.000384
C61	C	-0.614854	0.420848	0.000373
C62	C	-0.526889	0.389142	0.000305
C63	C	-0.528227	0.258180	0.000305
C64	C	-0.660845	0.240259	0.000431
C65	C	-0.704161	0.321589	0.000465
C66	C	-0.702823	0.452552	0.000454
C67	C	-0.658169	0.502187	0.000409
N68	N	-0.571544	-0.160466	-0.346311
C69	C	-0.604126	-0.074494	0.423693
C70	C	-0.604125	-0.074479	0.577029
C71	C	-0.538959	-0.246465	0.577003
C72	C	-0.538958	-0.246473	0.423669
C73	C	-0.636712	0.011491	0.347041
C74	C	-0.669297	0.097492	0.423717
C75	C	-0.669295	0.097507	0.577053
C76	C	-0.636710	0.011521	0.653715
H77	H	0.281790	-0.151100	-0.240501
H78	H	-0.512429	-0.316472	0.639431
H79	H	-0.738092	0.518769	0.000466
F80	F	-0.504279	-0.337997	0.342065
F81	F	-0.431141	-0.170047	-0.273858
F82	F	-0.662273	0.100877	0.000448
H83	H	0.190271	-0.153531	0.241330
H84	H	-0.740516	0.281167	0.000464
F85	F	0.184024	-0.153672	-0.273742
F86	F	0.288053	-0.150919	0.274542
F87	F	0.056163	-0.157075	-0.406556
F88	F	-0.656748	0.641572	0.000446
H89	H	-0.041667	-0.159627	0.374066
H90	H	-0.492959	0.191960	0.000281
H91	H	-0.490534	0.429565	0.000271
F92	F	-0.636717	0.011477	0.183848
H93	H	-0.695824	0.167506	0.361291
H94	H	-0.333359	-0.167451	-0.240650
F95	F	-0.047904	-0.159836	-0.406579
F96	F	-0.431177	-0.170057	0.274390
H97	H	-0.695824	0.167540	0.639481
H98	H	-0.333409	-0.167422	0.241213
F99	F	0.056099	-0.157010	0.407280
H100	H	-0.101403	-0.161256	-0.373387
H101	H	-0.636708	0.011548	0.778572
F102	F	-0.199180	-0.163851	-0.406592
H103	H	-0.192935	-0.163674	0.374014
H104	H	-0.101473	-0.161235	0.374031
