data_functionalizedCrystal
_audit_creation_method	'MofGen! by Chris Wilmer'
_symmetry_space_group_name_H-M	'P1'
_symmetry_Int_Tables_number	1
_symmetry_cell_setting	triclinic
loop_
_symmetry_equiv_pos_as_xyz
  x,y,z
_cell_length_a	19.188930
_cell_length_b	10.967874
_cell_length_c	10.065918
_cell_angle_alpha	111.757653
_cell_angle_beta	99.848379
_cell_angle_gamma	83.943308
loop_
_atom_site_label
_atom_site_type_symbol
_atom_site_fract_x
_atom_site_fract_y
_atom_site_fract_z
O1	O	0.140060	1.730030	0.520398
O2	O	0.640060	2.230030	1.020398
O3	O	0.142272	1.353956	0.431954
O4	O	0.642272	1.853956	0.931954
O5	O	0.039783	1.552842	0.478701
O6	O	0.539783	2.052842	0.978701
O7	O	0.242549	1.531144	0.473652
O8	O	0.742549	2.031144	0.973652
O9	O	0.020757	1.519032	0.243756
O10	O	0.520757	2.019032	0.743756
O11	O	0.123246	1.320147	0.197010
O12	O	0.623246	1.820147	0.697010
O13	O	0.121035	1.696220	0.285454
O14	O	0.621035	2.196220	0.785454
Zn15	Zn	0.119120	1.502816	0.203929
Zn16	Zn	0.619120	2.002816	0.703929
Zn17	Zn	0.144187	1.547361	0.513479
Zn18	Zn	0.644187	2.047361	1.013479
O19	O	0.223524	1.497335	0.238707
O20	O	0.723524	1.997335	0.738707
C21	C	0.131161	1.288938	0.303166
C22	C	0.631161	1.788938	0.803166
C23	C	0.126390	1.145575	0.269449
C24	C	0.626390	1.645575	0.769449
C25	C	0.134118	1.099173	0.376125
C26	C	0.634118	1.599173	0.876125
C27	C	0.129188	0.951000	0.341280
C28	C	0.629188	1.451000	0.841280
C29	C	0.004241	1.535234	0.361059
C30	C	0.504241	2.035234	0.861059
C31	C	-0.073318	1.533122	0.360551
C32	C	0.426682	2.033122	0.860551
C33	C	-0.115287	1.649823	0.387990
C34	C	0.384713	2.149823	0.887990
C35	C	-0.188160	1.647844	0.387546
C36	C	0.311840	2.147844	0.887546
C37	C	-0.219061	1.529153	0.359634
C38	C	0.280939	2.029153	0.859634
C39	C	-0.177082	1.412438	0.332199
C40	C	0.322918	1.912438	0.832199
C41	C	-0.104210	1.414422	0.332658
C42	C	0.395790	1.914422	0.832658
N43	N	-0.335838	1.426922	0.258341
N44	N	0.164162	1.926922	0.758341
N45	N	-0.405064	1.425045	0.257905
N46	N	0.094936	1.925045	0.757905
C47	C	-0.438619	1.523167	0.358254
C48	C	0.061381	2.023167	0.858254
N49	N	-0.400336	1.623256	0.459043
N50	N	0.099664	2.123256	0.959043
N51	N	-0.331105	1.625136	0.459475
N52	N	0.168895	2.125136	0.959475
C53	C	-0.298078	1.526988	0.359135
C54	C	0.201922	2.026988	0.859135
C55	C	-0.559605	1.637731	0.385216
C56	C	-0.059605	2.137731	0.885216
C57	C	-0.632478	1.635748	0.384780
C58	C	-0.132478	2.135748	0.884780
C59	C	-0.621400	1.400337	0.329418
C60	C	-0.121400	1.900337	0.829418
C61	C	-0.548528	1.402325	0.329869
C62	C	-0.048528	1.902325	0.829869
C63	C	-0.517636	1.521025	0.357762
C64	C	-0.017636	2.021025	0.857762
C65	C	0.259066	1.514944	0.356352
C66	C	0.759066	2.014944	0.856352
C67	C	0.336625	1.517057	0.356869
C68	C	0.836625	2.017057	0.856869
C69	C	0.132146	1.761239	0.414245
C70	C	0.632146	2.261239	0.914245
C71	C	0.136918	1.904604	0.447971
C72	C	0.636918	2.404604	0.947971
N73	N	0.102012	1.472424	-0.007328
N74	N	0.602012	1.972424	0.492672
C75	C	0.138234	1.536778	-0.059963
C76	C	0.638234	2.036778	0.440037
C77	C	0.125061	1.513399	-0.222632
C78	C	0.625061	2.013399	0.277368
N79	N	0.161289	1.577763	0.724739
N80	N	0.661289	2.077763	1.224739
H81	H	-0.090140	1.746477	0.410707
H82	H	0.409860	2.246477	0.910707
H83	H	0.178995	1.609188	0.015403
H84	H	0.678995	2.109188	0.515403
Cl85	Cl	-0.051446	1.267700	0.298160
Cl86	Cl	0.448554	1.767700	0.798160
Cl87	Cl	-0.685240	1.782473	0.419287
Cl88	Cl	-0.185240	2.282473	0.919287
H89	H	-0.222337	1.742879	0.409897
H90	H	0.277663	2.242879	0.909897
H91	H	0.144389	1.169143	0.493252
H92	H	0.644389	1.669143	0.993252
Cl93	Cl	0.152780	1.012615	0.628820
Cl94	Cl	0.652780	1.512615	1.128820
Cl95	Cl	0.224226	1.689566	-0.158920
Cl96	Cl	0.724226	2.189566	0.341080
Cl97	Cl	0.110543	1.037553	0.088608
Cl98	Cl	0.610543	1.537553	0.588608
H99	H	0.061247	1.400023	-0.082693
H100	H	0.561247	1.900023	0.417307
Cl101	Cl	-0.520767	1.786948	0.420272
Cl102	Cl	-0.020767	2.286948	0.920272
H103	H	0.118924	0.881032	0.224145
H104	H	0.618924	1.381032	0.724145
H105	H	-0.646559	1.303698	0.306698
H106	H	-0.146559	1.803698	0.806698
Cl107	Cl	-0.495764	1.255606	0.295366
Cl108	Cl	0.004236	1.755606	0.795366
Cl109	Cl	-0.215928	1.263229	0.297121
Cl110	Cl	0.284072	1.763229	0.797121
Cl111	Cl	0.062117	1.401612	-0.338974
Cl112	Cl	0.562117	1.901612	0.161026
