data_functionalizedCrystal
_audit_creation_method	'MofGen! by Chris Wilmer'
_symmetry_space_group_name_H-M	'P1'
_symmetry_Int_Tables_number	1
_symmetry_cell_setting	triclinic
loop_
_symmetry_equiv_pos_as_xyz
  x,y,z
_cell_length_a	16.992694
_cell_length_b	16.053789
_cell_length_c	16.109301
_cell_angle_alpha	87.109773
_cell_angle_beta	92.935148
_cell_angle_gamma	92.715794
loop_
_atom_site_label
_atom_site_type_symbol
_atom_site_fract_x
_atom_site_fract_y
_atom_site_fract_z
O1	O	1.043290	0.069330	-0.179606
O2	O	0.815006	0.069354	-0.177674
O3	O	0.935419	0.069333	-0.058027
O4	O	0.922877	0.069351	-0.299253
O5	O	0.929512	-0.069527	-0.051378
O6	O	0.809100	-0.069505	-0.171025
O7	O	1.037384	-0.069530	-0.172958
Zn8	Zn	0.922304	-0.091564	-0.170936
Zn9	Zn	0.930086	0.091389	-0.179696
O10	O	0.916971	-0.069508	-0.292604
C11	C	0.782841	-0.000072	-0.171861
C12	C	0.695799	-0.000063	-0.164438
C13	C	0.645541	-0.000059	-0.236065
C14	C	0.563755	-0.000071	-0.229084
C15	C	0.532231	-0.000082	-0.150477
C16	C	0.582495	-0.000089	-0.078845
C17	C	0.664279	-0.000083	-0.085826
C18	C	0.288639	-0.000106	-0.121543
C19	C	0.206849	-0.000110	-0.114567
C20	C	0.188115	-0.000093	-0.264807
C21	C	0.269901	-0.000082	-0.271781
C22	C	0.320159	-0.000094	-0.200149
N23	N	0.448633	-0.000091	-0.143340
N24	N	0.403754	-0.000090	-0.207287
N25	N	0.916999	-0.216425	-0.164957
C26	C	0.962682	-0.260117	-0.216481
C27	C	0.958981	-0.347523	-0.212294
C28	C	0.909593	-0.391237	-0.156587
C29	C	0.863908	-0.347539	-0.105057
C30	C	0.867613	-0.260134	-0.109241
C31	C	0.893418	-0.652648	-0.138322
C32	C	0.889714	-0.740059	-0.134144
C33	C	0.984789	-0.740037	-0.241380
C34	C	0.988486	-0.652630	-0.245562
C35	C	0.942805	-0.608940	-0.194030
N36	N	0.905807	-0.480581	-0.152307
N37	N	0.946595	-0.519598	-0.198305
C38	C	1.069549	-0.000101	-0.178770
C39	C	1.156591	-0.000105	-0.186193
C40	C	0.931958	-0.000097	-0.023694
C41	C	0.930434	-0.000098	0.068703
N42	N	0.935397	0.216249	-0.185668
C43	C	0.920432	-0.000076	-0.326937
C44	C	0.921956	-0.000070	-0.419335
C45	C	0.998344	-0.000092	0.286444
C46	C	0.996907	-0.000085	0.373260
C47	C	0.854041	-0.000073	0.362918
C48	C	0.855479	-0.000074	0.276104
C49	C	0.927633	-0.000088	0.237869
C50	C	0.924758	-0.000080	0.411499
C51	C	0.923199	-0.000072	0.505629
C52	C	0.929192	-0.000094	0.143733
H53	H	0.705199	-0.000086	-0.027500
H54	H	0.181186	-0.000118	-0.050552
H55	H	0.147187	-0.000085	-0.323125
H56	H	1.028706	-0.617044	-0.290922
C57	C	1.035042	-0.788103	-0.298056
N58	N	1.072898	-0.824307	-0.340743
H59	H	0.329550	-0.000116	-0.063214
C60	C	0.774675	-0.000074	0.404985
N61	N	0.714895	-0.000082	0.436670
H62	H	0.797894	-0.000068	0.236552
H63	H	0.849492	-0.775648	-0.088781
H64	H	0.671201	-0.000049	-0.300075
H65	H	0.556821	-0.000110	-0.014840
H66	H	0.856221	-0.617085	-0.096360
C67	C	1.074695	-0.000097	0.426689
N68	N	1.133288	-0.000108	0.466931
C69	C	0.508473	-0.000080	-0.307879
N70	N	0.466835	-0.000094	-0.367230
C71	C	0.304571	-0.000083	-0.358255
N72	N	0.330684	-0.000086	-0.423388
H73	H	1.002895	-0.224531	-0.261848
H74	H	0.996183	-0.383093	-0.254248
H75	H	0.823699	-0.383138	-0.059695
C76	C	0.817356	-0.212073	-0.052562
N77	N	0.779502	-0.175875	-0.009869
H78	H	1.057096	-0.000102	0.255316
