data_functionalizedCrystal
_audit_creation_method	'MofGen! by Chris Wilmer'
_symmetry_space_group_name_H-M	'P1'
_symmetry_Int_Tables_number	1
_symmetry_cell_setting	triclinic
loop_
_symmetry_equiv_pos_as_xyz
  x,y,z
_cell_length_a	14.853569
_cell_length_b	14.853559
_cell_length_c	9.130307
_cell_angle_alpha	89.998895
_cell_angle_beta	90.000453
_cell_angle_gamma	83.633509
loop_
_atom_site_label
_atom_site_type_symbol
_atom_site_fract_x
_atom_site_fract_y
_atom_site_fract_z
O1	O	1.196357	0.117710	-0.121725
O2	O	0.933897	0.131730	-0.121742
O3	O	1.072141	-0.006510	-0.121731
O4	O	1.058112	0.255950	-0.121735
O5	O	1.072137	-0.006512	0.121868
O6	O	0.933892	0.131728	0.121857
O7	O	1.196352	0.117709	0.121874
Cu8	Cu	1.065122	0.124718	0.144108
Cu9	Cu	1.065127	0.124720	-0.143976
O10	O	1.058108	0.255949	0.121864
C11	C	0.900306	0.131094	0.000055
C12	C	0.800222	0.129189	0.000049
C13	C	0.763848	0.046178	0.000045
C14	C	0.742554	0.210411	0.000059
C15	C	0.648520	0.208625	0.000061
C16	C	0.612146	0.125614	0.000057
C17	C	0.669806	0.044389	0.000051
C18	C	0.590853	0.289848	0.000081
C19	C	0.496812	0.288065	0.000084
C20	C	0.460437	0.205053	0.000070
C21	C	0.518103	0.123825	0.000063
C22	C	0.481729	0.040813	0.000059
C23	C	0.539394	-0.040416	0.000041
C24	C	0.633430	-0.038623	0.000037
C25	C	0.366401	0.203260	0.000074
C26	C	0.387687	0.039024	0.000065
C27	C	1.071505	-0.040100	0.000065
C28	C	1.069604	-0.140184	0.000057
C29	C	1.061543	-0.563358	-0.132730
C30	C	1.061538	-0.563355	0.132851
C31	C	1.063331	-0.469321	0.132853
C32	C	1.064229	-0.422302	0.000061
C33	C	1.063334	-0.469316	-0.132732
C34	C	1.064218	-0.422299	0.265644
C35	C	1.066010	-0.328260	0.265650
C36	C	1.066914	-0.281240	0.132857
C37	C	1.066020	-0.328260	0.000058
C38	C	1.066918	-0.281240	-0.132734
C39	C	1.066030	-0.328260	-0.265534
C40	C	1.064238	-0.422296	-0.265526
C41	C	1.068706	-0.187203	0.132849
C42	C	1.068709	-0.187198	-0.132736
C43	C	1.229943	0.118345	0.000073
C44	C	1.330027	0.120249	0.000070
C45	C	1.058744	0.289538	0.000064
C46	C	1.060645	0.389622	0.000062
N47	N	1.065125	0.124717	0.346731
N48	N	1.065131	0.124714	-0.346599
C49	C	1.187590	0.002340	0.346730
C50	C	1.248829	-0.058845	0.423396
C51	C	1.248838	-0.058846	0.576730
C52	C	1.187600	0.002344	0.653400
C53	C	1.126361	0.063529	0.576734
C54	C	1.126360	0.063525	0.423397
C55	C	1.003893	0.185900	0.576735
C56	C	1.003887	0.185907	0.423401
C57	C	0.942655	0.247090	0.653406
C58	C	0.881419	0.308281	0.576739
C59	C	0.881413	0.308280	0.423397
C60	C	0.942648	0.247092	0.346735
H61	H	0.358079	-0.028574	0.000054
H62	H	0.680389	-0.104755	0.000025
H63	H	1.187596	0.002342	0.221878
C64	C	0.630404	0.379938	-0.000188
C65	C	0.683750	0.385785	-0.125530
C66	C	0.720197	0.468769	-0.125828
H67	H	0.666711	0.384115	0.084663
H68	H	0.582626	0.428090	-0.000245
H69	H	0.731521	0.337647	-0.125460
H70	H	0.647463	0.381624	-0.210401
H71	H	0.672419	0.516921	-0.125885
H72	H	0.756500	0.472939	-0.040972
H73	H	0.756389	0.472751	-0.210877
C74	C	0.434360	0.376350	0.000016
C75	C	0.486344	0.449428	-0.000017
C76	C	0.428843	0.530770	-0.000105
H77	H	0.397212	0.379193	0.084939
H78	H	0.397248	0.379118	-0.084969
H79	H	0.523440	0.446662	0.084959
H80	H	0.523490	0.446615	-0.084933
H81	H	0.391731	0.533537	-0.085090
H82	H	0.391698	0.533604	0.084819
H83	H	0.464105	0.580363	-0.000141
H84	H	1.298700	-0.108672	0.639152
C85	C	1.315321	-0.125129	0.339889
C86	C	1.302249	-0.112000	0.189196
C87	C	1.363512	-0.173015	0.112230
H88	H	1.305578	-0.185379	0.364802
H89	H	1.375496	-0.115162	0.364972
H90	H	1.242088	-0.121974	0.164123
H91	H	1.311999	-0.051762	0.164239
H92	H	1.423687	-0.163048	0.137313
H93	H	1.353764	-0.233261	0.137155
H94	H	1.354656	-0.164110	0.009978
C95	C	0.814834	0.374745	0.659715
C96	C	0.761189	0.428319	0.559762
C97	C	0.699831	0.489548	0.636151
H98	H	0.847196	0.412421	0.719543
H99	H	0.777225	0.342256	0.719493
H100	H	0.798792	0.460806	0.500009
H101	H	0.728807	0.390669	0.499931
H102	H	0.662222	0.457059	0.695929
H103	H	0.732200	0.527217	0.695976
H104	H	0.663420	0.525899	0.568345
H105	H	0.319454	0.269396	0.000102
H106	H	0.509766	-0.108003	0.000029
H107	H	1.060801	-0.601642	0.240964
H108	H	1.069444	-0.148922	-0.240873
C109	C	0.826557	-0.041940	-0.000201
C110	C	0.881173	-0.045696	-0.125517
C111	C	0.938960	-0.126851	-0.125783
H112	H	0.791537	-0.091707	-0.000276
H113	H	0.863742	-0.044668	0.084698
H114	H	0.843992	-0.042977	-0.210394
H115	H	0.916212	0.004052	-0.125469
H116	H	0.976146	-0.129579	-0.040885
H117	H	0.903933	-0.176612	-0.125855
H118	H	0.976030	-0.129406	-0.210801
C119	C	1.067038	-0.277046	-0.409552
C120	C	1.068807	-0.184632	-0.381117
C121	C	1.069742	-0.137424	-0.513746
H122	H	1.014229	-0.285544	-0.464217
H123	H	1.119298	-0.299205	-0.464137
H124	H	1.016552	-0.162480	-0.326556
H125	H	1.121613	-0.176107	-0.326474
H126	H	1.122001	-0.159583	-0.568330
H127	H	1.016931	-0.145929	-0.568401
H128	H	1.070950	-0.074718	-0.494471
H129	H	1.063514	-0.460587	-0.373644
H130	H	1.060823	-0.601646	-0.240852
C131	C	0.815068	0.374758	0.339977
C132	C	0.863141	0.430030	0.251918
C133	C	0.802054	0.491274	0.175043
H134	H	0.778576	0.411283	0.407436
H135	H	0.777518	0.342278	0.280078
H136	H	0.900676	0.462508	0.311811
H137	H	0.899630	0.393531	0.184432
H138	H	0.764504	0.458794	0.115144
H139	H	0.765566	0.527792	0.242512
H140	H	0.834663	0.528778	0.115276
H141	H	1.187603	0.002332	0.778253
H142	H	1.069409	-0.148922	0.240973
H143	H	0.772176	0.277995	0.000072
H144	H	1.063482	-0.460588	0.373755
H145	H	0.942661	0.247083	0.778258
H146	H	1.066737	-0.289985	0.373784
H147	H	0.942652	0.247089	0.221883
