data_functionalizedCrystal
_audit_creation_method	'MofGen! by Chris Wilmer'
_symmetry_space_group_name_H-M	'P1'
_symmetry_Int_Tables_number	1
_symmetry_cell_setting	triclinic
loop_
_symmetry_equiv_pos_as_xyz
  x,y,z
_cell_length_a	23.096457
_cell_length_b	14.446369
_cell_length_c	23.096457
_cell_angle_alpha	90.000623
_cell_angle_beta	120.000994
_cell_angle_gamma	60.000723
loop_
_atom_site_label
_atom_site_type_symbol
_atom_site_fract_x
_atom_site_fract_y
_atom_site_fract_z
Zr1	Zr	0.633728	-0.121466	-0.557784
O2	O	0.754520	-0.269262	-0.465333
O3	O	0.512940	-0.076164	-0.586123
O4	O	0.633733	-0.269277	-0.586120
O5	O	0.633722	0.076188	-0.465341
O6	O	0.633732	-0.269281	-0.681402
O7	O	0.633727	-0.076150	-0.465336
O8	O	0.417656	0.076162	-0.681408
O9	O	0.849798	-0.269256	-0.465335
O10	O	0.562620	-0.056840	-0.669320
O11	O	0.562616	0.056851	-0.598216
O12	O	0.704834	-0.170514	-0.598212
O13	O	0.704831	-0.056823	-0.527108
Zr14	Zr	0.633718	0.121487	-0.709756
Zr15	Zr	0.633726	-0.121474	-0.709747
Zr16	Zr	0.633719	0.121494	-0.557792
Zr17	Zr	0.785685	-0.121455	-0.557788
Zr18	Zr	0.481761	0.121476	-0.709752
O19	O	0.754506	0.076185	-0.681416
O20	O	0.754517	-0.269273	-0.681405
O21	O	0.754508	0.076196	-0.465344
O22	O	0.512926	0.269283	-0.802207
O23	O	0.512938	-0.076175	-0.802196
O24	O	0.512928	0.269294	-0.586135
O25	O	0.633724	-0.076167	-0.802199
O26	O	0.633713	0.269297	-0.681420
O27	O	0.633714	0.269302	-0.586138
O28	O	0.633718	0.076170	-0.802204
O29	O	0.849796	-0.269262	-0.586125
O30	O	0.417649	0.269283	-0.681414
O31	O	0.417648	0.269277	-0.802205
O32	O	0.417655	0.076156	-0.802198
O33	O	0.849791	-0.076135	-0.465341
O34	O	0.849790	-0.076141	-0.586132
O35	O	0.562612	0.170535	-0.669328
O36	O	0.562615	0.056844	-0.740431
O37	O	0.704829	-0.056830	-0.669324
O38	O	0.704826	0.056861	-0.598220
C39	C	0.443647	-0.000002	-0.633765
C40	C	0.379137	-0.000007	-0.633763
C41	C	0.633725	0.000020	-0.443687
C42	C	0.633725	0.000023	-0.379175
C43	C	0.633712	0.303916	-0.633780
C44	C	0.633709	0.407059	-0.633783
C45	C	0.348838	-0.059356	-0.670874
C46	C	0.288216	-0.059347	-0.670881
C47	C	0.257907	-0.000004	-0.633763
C48	C	0.288210	0.059359	-0.596651
C49	C	0.348825	0.059358	-0.596651
N50	N	0.195512	-0.008229	-0.573358
N51	N	0.137931	-0.008234	-0.573359
C52	C	0.075275	0.000007	-0.633763
N53	N	0.072382	0.008231	-0.694164
N54	N	0.129970	0.008229	-0.694161
C55	C	0.192179	0.000005	-0.633760
C56	C	-0.020759	-0.059336	-0.670884
C57	C	-0.081386	-0.059318	-0.670893
C58	C	-0.081385	0.059381	-0.596657
C59	C	-0.020765	0.059371	-0.596654
C60	C	0.009547	0.000006	-0.633767
C61	C	0.823798	0.000023	-0.633775
C62	C	0.888308	0.000028	-0.633776
C63	C	0.633733	-0.303896	-0.633760
C64	C	0.633737	-0.407039	-0.633756
C65	C	0.544024	0.625420	-0.678398
C66	C	0.543963	0.518188	-0.678654
C67	C	0.678260	0.410392	-0.666495
C68	C	0.677691	0.518161	-0.666817
C69	C	0.679539	0.516787	-0.556385
C70	C	0.677849	0.410818	-0.556512
C71	C	0.633733	0.083931	0.081339
C72	C	0.633727	0.083939	0.020720
C73	C	0.633730	0.000014	-0.009590
C74	C	0.633719	-0.083909	0.020714
C75	C	0.633717	-0.083908	0.081328
N76	N	0.680088	-0.099508	-0.081581
N77	N	0.680092	-0.099505	-0.139161
C78	C	0.633735	0.000008	-0.192216
N79	N	0.587384	0.099523	-0.185512
N80	N	0.587384	0.099519	-0.127925
C81	C	0.633732	0.000004	-0.075315
C82	C	0.633734	0.083939	-0.288246
C83	C	0.633723	0.083948	-0.348869
C84	C	0.633724	-0.083909	-0.348869
C85	C	0.633726	-0.083909	-0.288252
C86	C	0.633736	0.000015	-0.257942
C87	C	0.633722	0.000005	0.176148
C88	C	0.633726	0.000015	0.111638
C89	C	0.443645	-0.000012	-0.823848
C90	C	0.379135	-0.000020	-0.888359
C91	C	0.443637	0.303904	-0.633775
C92	C	0.379123	0.407042	-0.633777
C93	C	0.443635	0.303894	-0.823858
C94	C	0.379121	0.407029	-0.888372
C95	C	0.823811	-0.303873	-0.443682
C96	C	0.888325	-0.407008	-0.379167
C97	C	0.823800	0.000033	-0.443692
C98	C	0.888311	0.000041	-0.379181
C99	C	0.823809	-0.303883	-0.633764
C100	C	0.888322	-0.407021	-0.633763
C101	C	0.348842	-0.059375	-0.881534
C102	C	0.288236	-0.059405	-0.942143
C103	C	0.257920	-0.000072	-1.009576
C104	C	0.288218	0.059285	-1.016399
C105	C	0.348827	0.059308	-0.955791
C106	C	0.348825	0.514829	-0.670897
C107	C	0.288216	0.611748	-0.670896
C108	C	0.257903	0.600878	-0.633779
C109	C	0.288208	0.493079	-0.596654
C110	C	0.348819	0.396163	-0.596651
C111	C	0.348826	0.396117	-0.955791
C112	C	0.288217	0.493014	-1.016414
C113	C	0.257899	0.600823	-1.009618
C114	C	0.288200	0.611733	-0.942193
C115	C	0.348812	0.514836	-0.881571
C116	C	0.918627	-0.396096	-0.311749
C117	C	0.979255	-0.492994	-0.251125
C118	C	1.009576	-0.600802	-0.257921
C119	C	0.979271	-0.611712	-0.325347
C120	C	0.918648	-0.514816	-0.385969
C121	C	0.918609	0.059386	-0.386006
C122	C	0.979232	0.059389	-0.325397
C123	C	1.009551	0.000053	-0.257964
C124	C	0.979250	-0.059300	-0.251141
C125	C	0.918632	-0.059309	-0.311749
C126	C	0.918616	-0.396115	-0.670887
C127	C	0.979225	-0.493015	-0.670900
C128	C	1.009543	-0.600821	-0.633782
C129	C	0.979244	-0.611726	-0.596657
C130	C	0.918631	-0.514826	-0.596649
H131	H	0.373514	-0.107691	-0.701095
Br132	Br	0.877478	0.139920	-0.477514
H133	H	0.373483	0.107649	-0.961357
Br134	Br	0.389947	0.529614	-0.721281
H135	H	0.373471	0.523737	-0.826678
H136	H	0.373496	0.107687	-0.566429
H137	H	1.058939	-0.679692	-0.208553
Br138	Br	0.633743	0.197837	-0.247112
Br139	Br	0.247046	0.758053	-0.932981
Br140	Br	0.247076	-0.139883	-0.721259
H141	H	1.003945	-0.107610	-0.196229
Br142	Br	1.020405	-0.758043	-0.546279
H143	H	0.744248	0.332131	-0.635547
Br144	Br	0.247100	0.758031	-0.721285
Br145	Br	0.633715	-0.197798	-0.390005
Br146	Br	1.091819	0.000077	-0.175716
H147	H	0.893973	-0.523723	-0.566414
Br148	Br	0.624919	0.602079	-0.761712
H149	H	0.893943	-0.308322	-0.306202
Br150	Br	0.633721	-0.197802	-0.247125
Br151	Br	1.020368	-0.478160	-0.159629
Br152	Br	0.247059	0.478346	-0.546284
H153	H	1.003966	-0.699501	-0.330872
H154	H	0.263528	0.107678	-0.566431
Br155	Br	0.389975	-0.139912	-0.790026
Br156	Br	1.091805	-0.732317	-0.633799
H157	H	1.003893	0.107726	-0.330966
Br158	Br	0.175643	0.732421	-0.633789
H159	H	0.893965	-0.107632	-0.306182
Br160	Br	0.020378	-0.139892	-0.721254
H161	H	0.263575	-0.107741	-0.936574
Br162	Br	0.175638	0.732315	-1.091899
H163	H	0.893977	-0.523714	-0.440863
Br164	Br	-0.122506	-0.139875	-0.721261
Br165	Br	0.877484	-0.249818	-0.721267
Br166	Br	1.020337	-0.478189	-0.721285
H167	H	-0.106062	0.107700	-0.566435
H168	H	0.647315	0.408258	-0.722892
H169	H	0.373480	0.308401	-0.566426
H170	H	0.003908	0.107695	-0.566432
H171	H	0.508813	0.679375	-0.656568
Br172	Br	0.485615	0.717076	-0.772952
Br173	Br	0.485702	0.520866	-0.642087
Br174	Br	0.631691	0.600147	-0.510836
H175	H	0.743512	0.491513	-0.636400
Br176	Br	0.485322	0.522276	-0.773788
Br177	Br	0.389962	0.249818	-0.965034
Br178	Br	0.247063	0.139807	-1.107920
Br179	Br	0.787083	0.279091	-0.496476
Br180	Br	0.623699	0.411697	-0.515782
Br181	Br	0.789693	0.471041	-0.500688
Br182	Br	0.633706	-0.197801	0.122451
H183	H	0.633732	0.152276	-0.003954
Br184	Br	0.633741	0.197827	0.122472
Br185	Br	0.247105	0.478181	-1.107911
H186	H	0.633720	-0.152241	-0.003968
Br187	Br	0.633722	0.197851	-0.389997
H188	H	0.208567	-0.000099	-1.058921
