data_functionalizedCrystal
_audit_creation_method	'MofGen! by Chris Wilmer'
_symmetry_space_group_name_H-M	'P1'
_symmetry_Int_Tables_number	1
_symmetry_cell_setting	triclinic
loop_
_symmetry_equiv_pos_as_xyz
  x,y,z
_cell_length_a	12.759401
_cell_length_b	21.295417
_cell_length_c	12.759393
_cell_angle_alpha	89.961673
_cell_angle_beta	89.981503
_cell_angle_gamma	90.029933
loop_
_atom_site_label
_atom_site_type_symbol
_atom_site_fract_x
_atom_site_fract_y
_atom_site_fract_z
Zn1	Zn	1.606134	-0.250567	-0.593965
Zn2	Zn	1.605986	-0.355851	-0.418265
Zn3	Zn	1.430440	-0.250600	-0.418301
Zn4	Zn	1.430379	-0.355803	-0.593903
O5	O	1.518235	-0.303205	-0.506108
O6	O	1.753136	-0.264540	-0.570669
O7	O	1.582663	-0.341924	-0.271248
O8	O	1.453833	-0.162507	-0.441644
O9	O	1.753027	-0.341892	-0.441583
O10	O	1.582916	-0.162482	-0.570704
O11	O	1.453690	-0.264597	-0.271275
O12	O	1.283411	-0.264549	-0.441584
O13	O	1.453730	-0.341809	-0.740932
O14	O	1.283366	-0.341841	-0.570598
O15	O	1.582857	-0.264492	-0.740978
O16	O	1.582604	-0.443934	-0.441523
O17	O	1.453586	-0.443899	-0.570563
C18	C	1.245267	-0.303194	-0.506089
C19	C	1.128491	-0.303204	-0.506105
C20	C	1.518101	-0.466757	-0.506055
C21	C	1.518140	-0.536725	-0.506067
C22	C	1.073576	-0.343417	-0.438798
C23	C	0.963852	-0.343428	-0.438817
C24	C	0.963967	-0.263008	-0.573451
C25	C	1.073689	-0.263001	-0.573438
C26	C	1.073508	-0.389845	-0.361065
C27	C	0.963784	-0.389856	-0.361083
C28	C	1.585314	-0.569522	-0.573317
C29	C	1.585351	-0.635264	-0.573343
C30	C	1.518225	-0.668208	-0.506101
C31	C	1.451037	-0.635403	-0.438846
C32	C	1.450995	-0.569662	-0.438830
N33	N	1.510288	-0.771477	-0.414154
N34	N	1.510334	-0.833928	-0.414173
C35	C	1.518348	-0.866282	-0.506148
N36	N	1.526333	-0.833825	-0.598106
N37	N	1.526292	-0.771368	-0.598086
C38	C	1.518263	-0.739493	-0.506111
C39	C	1.585566	-0.970364	-0.573431
C40	C	1.585596	-1.036108	-0.573459
C41	C	1.451287	-1.036246	-0.438953
C42	C	1.451252	-0.970503	-0.438935
C43	C	1.518397	-0.937566	-0.506172
C44	C	1.792268	-0.303217	-0.506129
C45	C	1.909045	-0.303222	-0.506137
C46	C	1.518303	-0.303141	-0.780142
C47	C	1.518332	-0.303114	-0.896918
C48	C	1.518398	-0.139015	-0.506185
C49	C	1.518467	-0.069047	-0.506217
C50	C	1.451204	-0.262842	-0.951800
C51	C	1.451236	-0.262823	-1.061524
C52	C	1.585533	-0.343350	-1.061475
C53	C	1.585495	-0.343371	-0.951753
C54	C	1.373672	-0.216349	-0.951830
C55	C	1.373704	-0.216330	-1.061554
C56	C	1.518227	-0.303224	-0.233141
C57	C	1.518402	-0.303074	-0.116365
H58	H	1.118397	-0.230262	-0.628256
N59	N	1.657962	-0.934836	-0.645969
H60	H	1.647746	-0.888212	-0.635752
H61	H	1.733015	-0.946295	-0.629697
N62	N	1.112923	-0.454441	-0.389722
H63	H	1.086589	-0.466096	-0.461773
H64	H	1.192077	-0.454418	-0.389657
H65	H	0.929736	-0.436193	-0.390086
N66	N	1.657888	-0.386807	-0.892548
H67	H	1.615136	-0.415981	-0.847010
H68	H	1.700430	-0.412265	-0.943996
N69	N	1.402651	-0.151748	-1.101050
H70	H	1.415553	-0.122943	-1.039533
H71	H	1.468283	-0.154597	-1.145055
N72	N	1.378542	-0.534283	-0.366292
H73	H	1.336019	-0.565126	-0.323697
H74	H	1.421322	-0.507010	-0.317702
H75	H	1.396625	-1.063067	-0.384210
H76	H	1.296399	-0.233781	-1.095575
N77	N	1.658012	-1.071485	-0.646035
H78	H	1.700528	-1.040642	-0.688634
H79	H	1.706681	-1.098770	-0.603351
N80	N	1.657720	-0.533996	-0.645843
H81	H	1.732804	-0.545403	-0.629598
H82	H	1.641275	-0.545425	-0.720867
N83	N	0.904860	-0.219648	-0.646073
H84	H	0.827018	-0.225755	-0.635872
H85	H	0.924059	-0.174677	-0.629858
N86	N	1.378807	-0.935124	-0.366393
H87	H	1.336289	-0.965968	-0.323796
H88	H	1.421588	-0.907850	-0.317805
H89	H	1.640215	-0.376126	-1.106135
H90	H	1.107518	-0.372324	-0.283822
H91	H	0.933977	-0.376741	-0.279757
N92	N	1.657811	-0.670644	-0.645879
H93	H	1.732877	-0.659171	-0.629616
H94	H	1.647561	-0.717278	-0.635652
H95	H	1.292277	-0.229404	-0.922048
N96	N	1.378636	-0.670930	-0.366319
H97	H	1.388860	-0.717554	-0.376529
H98	H	1.395026	-0.659463	-0.291298
H99	H	1.402857	-0.170046	-0.917823
