data_functionalizedCrystal
_audit_creation_method	'MofGen! by Chris Wilmer'
_symmetry_space_group_name_H-M	'P1'
_symmetry_Int_Tables_number	1
_symmetry_cell_setting	triclinic
loop_
_symmetry_equiv_pos_as_xyz
  x,y,z
_cell_length_a	19.805407
_cell_length_b	12.759399
_cell_length_c	19.805399
_cell_angle_alpha	90.023653
_cell_angle_beta	90.019573
_cell_angle_gamma	90.015116
loop_
_atom_site_label
_atom_site_type_symbol
_atom_site_fract_x
_atom_site_fract_y
_atom_site_fract_z
Zn1	Zn	1.034789	-0.418291	0.382738
Zn2	Zn	1.034726	-0.593984	0.269558
Zn3	Zn	0.921603	-0.418320	0.269563
Zn4	Zn	0.921589	-0.593928	0.382704
O5	O	0.978177	-0.506131	0.326141
O6	O	1.129497	-0.441608	0.367736
O7	O	1.019700	-0.570717	0.174842
O8	O	0.936650	-0.271295	0.284592
O9	O	1.129451	-0.570689	0.284583
O10	O	1.019807	-0.271273	0.367741
O11	O	0.936589	-0.441657	0.174845
O12	O	0.826885	-0.441603	0.284559
O13	O	0.936626	-0.570594	0.477425
O14	O	0.826875	-0.570622	0.367684
O15	O	1.019793	-0.441554	0.477450
O16	O	1.019686	-0.740998	0.284551
O17	O	0.936565	-0.740957	0.367679
C18	C	0.802321	-0.506110	0.326119
C19	C	0.727089	-0.506127	0.326126
C20	C	0.691757	-0.573408	0.369339
C21	C	0.621069	-0.573410	0.369348
C22	C	0.585713	-0.506135	0.326141
C23	C	0.621050	-0.438847	0.282926
C24	C	0.691737	-0.438840	0.282920
C25	C	0.335977	-0.438870	0.282948
C26	C	0.265285	-0.438884	0.282956
C27	C	0.265308	-0.573440	0.369376
C28	C	0.335995	-0.573433	0.369370
C29	C	0.371326	-0.506141	0.326158
C30	C	0.447974	-0.506139	0.326149
C31	C	0.509066	-0.506143	0.326146
C32	C	0.978135	-0.779098	0.326125
C33	C	0.978180	-0.895875	0.326141
C34	C	1.021510	-0.950723	0.282906
C35	C	1.021554	-1.060447	0.282928
C36	C	0.934930	-1.060465	0.369424
C37	C	0.934891	-0.950743	0.369405
C38	C	1.101446	-1.210321	0.258846
C39	C	1.144771	-1.265173	0.215599
C40	C	1.155188	-1.229620	0.149559
C41	C	1.122271	-1.139217	0.126751
C42	C	1.078942	-1.084370	0.169994
C43	C	1.068537	-1.119922	0.236044
C44	C	0.854997	-0.800867	0.393480
C45	C	0.811663	-0.746018	0.436720
C46	C	0.801239	-0.781569	0.502762
C47	C	0.834144	-0.871976	0.525567
C48	C	0.877478	-0.926825	0.482327
C49	C	0.887903	-0.891266	0.416286
C50	C	1.154720	-0.506152	0.326163
C51	C	1.229952	-0.506160	0.326173
C52	C	0.978215	-0.506064	0.502684
C53	C	0.978231	-0.506036	0.577916
C54	C	0.978237	-0.232097	0.326171
C55	C	0.978263	-0.115321	0.326184
C56	C	0.978178	-0.506121	0.150285
C57	C	0.978293	-0.505853	0.075053
C58	C	1.021537	-0.438842	0.613274
C59	C	1.021544	-0.438811	0.683962
C60	C	0.978248	-0.505981	0.719291
C61	C	0.934937	-0.573179	0.683928
C62	C	0.934927	-0.573203	0.613241
C63	C	0.934975	-0.573081	0.969002
C64	C	0.934990	-0.573054	1.039694
C65	C	1.021592	-0.438689	1.039723
C66	C	1.021582	-0.438713	0.969036
C67	C	0.978269	-0.505906	0.933679
C68	C	0.978261	-0.505937	0.857030
C69	C	0.978259	-0.505957	0.795938
H70	H	1.056760	-0.906052	0.247679
H71	H	0.899730	-0.627754	1.068457
H72	H	0.904274	-1.000436	0.500902
H73	H	1.190465	-1.274288	0.114348
O74	O	0.586669	-0.638821	0.411227
C75	C	0.545767	-0.706611	0.372613
H76	H	0.535164	-0.669445	0.321363
H77	H	0.496068	-0.720751	0.400168
H78	H	0.572993	-0.784453	0.365083
H79	H	0.720504	-0.384048	0.247735
H80	H	0.592258	-0.384066	0.247749
O81	O	0.892967	-0.638497	0.934699
C82	C	0.907717	-0.743207	0.951975
H83	H	0.961796	-0.748529	0.971400
H84	H	0.901847	-0.795130	0.905484
H85	H	0.871437	-0.770634	0.993007
O86	O	0.892941	-0.638393	0.718349
C87	C	0.902223	-0.623947	0.788322
H88	H	0.954468	-0.589544	0.797991
H89	H	0.897617	-0.702634	0.815176
H90	H	0.862092	-0.567985	0.808381
H91	H	1.056857	-0.383973	1.068519
O92	O	0.892789	-0.638334	0.578866
C93	C	0.849088	-0.578535	0.537963
H94	H	0.844928	-0.495778	0.559271
H95	H	0.796991	-0.616530	0.537151
H96	H	0.870005	-0.574943	0.484394
O97	O	0.759161	-0.728418	0.544852
C98	C	0.757048	-0.779159	0.608043
H99	H	0.772026	-0.864838	0.601584
H100	H	0.703698	-0.774473	0.629423
H101	H	0.793708	-0.739197	0.644220
H102	H	1.056796	-0.384147	0.584514
O103	O	0.370370	-0.638892	0.411247
C104	C	0.411248	-0.706651	0.372637
H105	H	0.389923	-0.713043	0.319323
H106	H	0.412054	-0.787551	0.397031
H107	H	0.464822	-0.674152	0.370335
H108	H	1.092975	-1.239270	0.312623
O109	O	0.725994	-0.638794	0.411375
C110	C	0.679647	-0.698194	0.449507
H111	H	0.629266	-0.655169	0.451900
H112	H	0.700090	-0.709506	0.502822
H113	H	0.672108	-0.777938	0.424634
O114	O	0.231019	-0.638949	0.411290
C115	C	0.248283	-0.743628	0.396391
H116	H	0.267685	-0.748823	0.342309
H117	H	0.201794	-0.795550	0.402175
H118	H	0.289331	-0.771158	0.432641
O119	O	1.047044	-0.996551	0.147749
C120	C	1.065510	-0.976947	0.080177
H121	H	1.116029	-1.016111	0.069064
H122	H	1.070180	-0.888838	0.071868
H123	H	1.025254	-1.010039	0.044957
O124	O	0.231018	-0.373575	0.240887
C125	C	0.248252	-0.396407	0.173401
H126	H	0.299570	-0.436785	0.171950
H127	H	0.250668	-0.320518	0.143138
H128	H	0.208454	-0.450379	0.150542
O129	O	0.370362	-0.373656	0.240935
C130	C	0.411212	-0.433373	0.197134
H131	H	0.421811	-0.513037	0.220917
H132	H	0.460917	-0.390546	0.188102
H133	H	0.383943	-0.444825	0.146968
H134	H	0.784874	-0.672399	0.418148
H135	H	1.130751	-1.110283	0.072972
O136	O	1.176720	-1.352938	0.237872
C137	C	1.158232	-1.372566	0.305435
H138	H	1.140387	-1.296606	0.329932
H139	H	1.203677	-1.404237	0.334272
H140	H	1.115684	-1.432727	0.306736
O141	O	0.892899	-1.113928	0.411380
C142	C	0.902234	-1.222533	0.402138
H143	H	0.924438	-1.237546	0.349926
H144	H	0.851546	-1.264292	0.406687
H145	H	0.938264	-1.253584	0.442324
H146	H	0.825657	-0.900922	0.579344
H147	H	1.056841	-0.384020	0.940274
H148	H	0.863486	-0.771906	0.339705
O149	O	1.063678	-0.373509	0.718204
C150	C	1.101882	-0.314216	0.671864
H151	H	1.104207	-0.357270	0.621472
H152	H	1.155216	-0.303015	0.692300
H153	H	1.077117	-0.234420	0.664349
