data_functionalizedCrystal
_audit_creation_method	'MofGen! by Chris Wilmer'
_symmetry_space_group_name_H-M	'P1'
_symmetry_Int_Tables_number	1
_symmetry_cell_setting	triclinic
loop_
_symmetry_equiv_pos_as_xyz
  x,y,z
_cell_length_a	16.992694
_cell_length_b	16.956995
_cell_length_c	15.455313
_cell_angle_alpha	92.465639
_cell_angle_beta	87.142206
_cell_angle_gamma	83.361347
loop_
_atom_site_label
_atom_site_type_symbol
_atom_site_fract_x
_atom_site_fract_y
_atom_site_fract_z
O1	O	1.033120	0.165135	-0.072020
O2	O	1.533120	0.665135	0.427980
O3	O	0.804956	0.163287	-0.072045
O4	O	1.304956	0.663287	0.427955
O5	O	0.932745	0.049006	-0.072028
O6	O	1.432745	0.549006	0.427972
O7	O	0.905332	0.279416	-0.072037
O8	O	1.405332	0.779416	0.427963
O9	O	0.925439	0.055512	0.072233
O10	O	1.425439	0.555512	0.572233
O11	O	0.797650	0.169793	0.072216
O12	O	1.297650	0.669793	0.572216
O13	O	1.025815	0.171642	0.072241
O14	O	1.525815	0.671642	0.572241
Cu15	Cu	0.911066	0.171311	0.085401
Cu16	Cu	1.411066	0.671311	0.585401
Cu17	Cu	0.919705	0.163617	-0.085205
Cu18	Cu	1.419705	0.663617	0.414795
O19	O	0.898026	0.285922	0.072224
O20	O	1.398026	0.785922	0.572224
C21	C	0.930496	0.022641	0.000102
C22	C	1.430496	0.522641	0.500102
C23	C	0.934669	-0.065614	0.000100
C24	C	1.434669	0.434386	0.500100
C25	C	0.772245	0.164163	0.000082
C26	C	1.272245	0.664163	0.500082
C27	C	0.685661	0.157072	0.000072
C28	C	1.185661	0.657072	0.500072
C29	C	0.965887	-0.562925	0.000100
C30	C	1.465887	-0.062925	0.500100
C31	C	0.961960	-0.480000	0.000105
C32	C	1.461960	0.020000	0.500105
C33	C	0.888248	-0.433609	0.000092
C34	C	1.388248	0.066391	0.500092
C35	C	0.818458	-0.470148	0.000084
C36	C	1.318458	0.029852	0.500084
C37	C	0.822385	-0.553071	0.000085
C38	C	1.322385	-0.053071	0.500085
C39	C	0.868807	-0.185076	0.000093
C40	C	1.368807	0.314924	0.500093
C41	C	0.864884	-0.102147	0.000089
C42	C	1.364884	0.397853	0.500089
C43	C	1.008387	-0.112005	0.000111
C44	C	1.508387	0.387995	0.500111
C45	C	1.012308	-0.194930	0.000107
C46	C	1.512308	0.305070	0.500107
C47	C	0.942518	-0.231460	0.000103
C48	C	1.442518	0.268540	0.500103
N49	N	0.884232	-0.348847	0.000094
N50	N	1.384232	0.151153	0.500094
N51	N	0.946535	-0.316222	0.000107
N52	N	1.446535	0.183778	0.500107
C53	C	0.630986	0.225487	0.000070
C54	C	1.130986	0.725487	0.500070
C55	C	0.549631	0.218820	0.000082
C56	C	1.049631	0.718820	0.500082
C57	C	0.522952	0.143738	0.000090
C58	C	1.022952	0.643738	0.500090
C59	C	0.577633	0.075318	0.000095
C60	C	1.077633	0.575318	0.500095
C61	C	0.658987	0.081986	0.000089
C62	C	1.158987	0.581986	0.500089
C63	C	0.281145	0.116104	0.000115
C64	C	0.781145	0.616104	0.500115
C65	C	0.199785	0.109441	0.000118
C66	C	0.699785	0.609441	0.500118
C67	C	0.171788	0.252944	0.000107
C68	C	0.671788	0.752944	0.500107
C69	C	0.253144	0.259605	0.000096
C70	C	0.753144	0.759605	0.500096
C71	C	0.307818	0.191185	0.000105
C72	C	0.807818	0.691185	0.500105
N73	N	0.439795	0.136922	0.000100
N74	N	0.939795	0.636922	0.500100
N75	N	0.390974	0.198002	0.000101
N76	N	0.890974	0.698002	0.500101
C77	C	1.058526	0.170765	0.000112
C78	C	1.558526	0.670765	0.500112
C79	C	1.145110	0.177856	0.000116
C80	C	1.645110	0.677856	0.500116
C81	C	0.900275	0.312288	0.000092
C82	C	1.400275	0.812288	0.500092
C83	C	0.896103	0.400542	0.000089
C84	C	1.396103	0.900542	0.500089
N85	N	0.904994	0.176723	0.205395
N86	N	1.404994	0.676723	0.705395
N87	N	0.925783	0.158199	-0.205199
N88	N	1.425783	0.658199	0.294801
C89	C	0.959300	0.128193	0.250797
C90	C	1.459300	0.628193	0.750797
C91	C	0.954716	0.132293	0.341604
C92	C	1.454716	0.632293	0.841604
C93	C	0.895828	0.184929	0.387008
C94	C	1.395828	0.684929	0.887008
C95	C	0.841517	0.233461	0.341600
C96	C	1.341517	0.733461	0.841600
C97	C	0.846099	0.229356	0.250795
C98	C	1.346099	0.729356	0.750795
C99	C	0.876054	0.202626	0.658587
C100	C	1.376054	0.702626	1.158587
C101	C	0.871477	0.206730	0.749399
C102	C	1.371477	0.706730	1.249399
C103	C	0.984675	0.105560	0.749397
C104	C	1.484675	0.605560	1.249397
C105	C	0.989255	0.101463	0.658589
C106	C	1.489255	0.601463	1.158589
C107	C	0.934941	0.149993	0.613189
C108	C	1.434941	0.649993	1.113189
N109	N	0.891142	0.189123	0.479828
N110	N	1.391142	0.689123	0.979828
N111	N	0.939624	0.145794	0.520371
N112	N	1.439624	0.645794	1.020371
H113	H	1.025912	-0.600691	0.000103
H114	H	1.525912	-0.100691	0.500103
H115	H	0.505118	0.274531	0.000079
H116	H	1.005118	0.774531	0.500079
H117	H	0.178068	0.048297	0.000124
H118	H	0.678068	0.548297	0.500124
Br119	Br	1.112350	-0.257883	0.000124
Br120	Br	1.612350	0.242117	0.500124
H121	H	0.998935	0.092776	0.378570
H122	H	1.498935	0.592776	0.878570
H123	H	1.037205	0.058604	0.621623
H124	H	1.537205	0.558604	1.121623
H125	H	0.801877	0.268873	0.213829
H126	H	1.301877	0.768873	0.713829
H127	H	0.274860	0.320744	0.000079
H128	H	0.774860	0.820744	0.500079
Br129	Br	1.058382	0.039701	0.811014
Br130	Br	1.558382	0.539701	1.311014
Br131	Br	1.056673	-0.430423	0.000098
Br132	Br	1.556673	0.069577	0.500098
H133	H	0.127265	0.308647	0.000101
H134	H	0.627265	0.808647	0.500101
H135	H	0.758439	-0.432370	0.000079
H136	H	1.258439	0.067630	0.500079
Br137	Br	1.103096	-0.062423	0.000118
Br138	Br	1.603096	0.437577	0.500118
H139	H	0.325651	0.060391	0.000123
H140	H	0.825651	0.560391	0.500123
Br141	Br	0.791555	0.278173	0.811013
Br142	Br	1.291555	0.778173	1.311013
Br143	Br	0.802346	0.268487	0.596977
Br144	Br	1.302346	0.768487	1.096977
H145	H	0.793566	0.276315	0.378573
H146	H	1.293566	0.776315	0.878573
Br147	Br	0.541427	-0.026580	0.000115
Br148	Br	1.041427	0.473420	0.500115
Br149	Br	0.733189	-0.010866	0.000100
Br150	Br	1.233189	0.489134	0.500100
Br151	Br	0.774092	-0.234643	0.000081
Br152	Br	1.274092	0.265357	0.500081
Br153	Br	0.727674	-0.602652	0.000080
Br154	Br	1.227674	-0.102652	0.500080
H155	H	0.652701	0.286627	0.000063
H156	H	1.152701	0.786627	0.500063
H157	H	0.804856	-0.064377	0.000081
H158	H	1.304856	0.435623	0.500081
Br159	Br	1.039228	0.056762	0.189187
Br160	Br	1.539228	0.556762	0.689187
