data_functionalizedCrystal
_audit_creation_method	'MofGen! by Chris Wilmer'
_symmetry_space_group_name_H-M	'P1'
_symmetry_Int_Tables_number	1
_symmetry_cell_setting	triclinic
loop_
_symmetry_equiv_pos_as_xyz
  x,y,z
_cell_length_a	14.908571
_cell_length_b	18.101395
_cell_length_c	14.908308
_cell_angle_alpha	86.733684
_cell_angle_beta	89.824947
_cell_angle_gamma	86.727274
loop_
_atom_site_label
_atom_site_type_symbol
_atom_site_fract_x
_atom_site_fract_y
_atom_site_fract_z
Zn1	Zn	1.345208	-0.386468	0.587575
Zn2	Zn	1.845208	0.113532	1.087575
Zn3	Zn	1.353762	-0.503604	0.437213
Zn4	Zn	1.853762	-0.003604	0.937213
Zn5	Zn	1.203527	-0.372244	0.428573
Zn6	Zn	1.703527	0.127756	0.928573
Zn7	Zn	1.194790	-0.502724	0.578865
Zn8	Zn	1.694790	-0.002724	1.078865
O9	O	1.274322	-0.441260	0.508057
O10	O	1.774322	0.058740	1.008057
O11	O	1.472167	-0.408328	0.574890
O12	O	1.972167	0.091672	1.074890
O13	O	1.341069	-0.480594	0.310243
O14	O	1.841069	0.019406	0.810243
O15	O	1.222397	-0.270503	0.449694
O16	O	1.722397	0.229497	0.949694
O17	O	1.478452	-0.494387	0.464420
O18	O	1.978452	0.005613	0.964420
O19	O	1.326490	-0.280953	0.566512
O20	O	1.826490	0.219047	1.066512
O21	O	1.230692	-0.384085	0.303895
O22	O	1.730692	0.115915	0.803895
O23	O	1.076543	-0.383231	0.441249
O24	O	1.576543	0.116769	0.941249
O25	O	1.207507	-0.492887	0.705845
O26	O	1.707507	0.007113	1.205845
O27	O	1.070124	-0.479094	0.551667
O28	O	1.570124	0.020906	1.051667
O29	O	1.318019	-0.407474	0.712244
O30	O	1.818019	0.092526	1.212244
O31	O	1.332598	-0.607115	0.455974
O32	O	1.832598	-0.107115	0.955974
O33	O	1.215801	-0.606469	0.560045
O34	O	1.715801	-0.106469	1.060045
C35	C	1.040709	-0.429524	0.494576
C36	C	1.540709	0.070476	0.994576
C37	C	0.940767	-0.424523	0.488830
C38	C	1.440767	0.075477	0.988830
C39	C	0.746339	-0.515086	0.592857
C40	C	1.246339	-0.015086	1.092857
C41	C	0.652434	-0.510389	0.587462
C42	C	1.152434	-0.010389	1.087462
C43	C	0.659052	-0.410428	0.472648
C44	C	1.159052	0.089572	0.972648
C45	C	0.752956	-0.415125	0.478044
C46	C	1.252956	0.084875	0.978044
C47	C	0.796596	-0.467457	0.538149
C48	C	1.296596	0.032543	1.038149
C49	C	0.890503	-0.472157	0.543540
C50	C	1.390503	0.027843	1.043540
C51	C	0.897118	-0.372193	0.428731
C52	C	1.397118	0.127807	0.928731
C53	C	0.803213	-0.367496	0.423336
C54	C	1.303213	0.132504	0.923336
C55	C	1.274203	-0.633663	0.508023
C56	C	1.774203	-0.133663	1.008023
C57	C	1.274233	-0.715980	0.508044
C58	C	1.774233	-0.215980	1.008044
C59	C	1.274427	-1.015083	0.508104
C60	C	1.774427	-0.515083	1.008104
C61	C	1.201093	-0.983397	0.573764
C62	C	1.701093	-0.483397	1.073764
C63	C	1.200777	-0.897753	0.573527
C64	C	1.700777	-0.397753	1.073527
C65	C	1.274331	-0.866694	0.508075
C66	C	1.774331	-0.366694	1.008075
C67	C	1.254147	-0.892332	0.411835
C68	C	1.754147	-0.392332	0.911835
C69	C	1.253677	-0.977973	0.412227
C70	C	1.753677	-0.477973	0.912227
C71	C	1.368144	-0.989281	0.537857
C72	C	1.868144	-0.489281	1.037857
C73	C	1.367465	-0.903695	0.539903
C74	C	1.867465	-0.403695	1.039903
C75	C	1.274278	-0.782831	0.508053
C76	C	1.774278	-0.282831	1.008053
C77	C	1.274478	-1.098945	0.508119
C78	C	1.774478	-0.598945	1.008119
C79	C	1.508847	-0.453042	0.521591
C80	C	2.008847	0.046958	1.021591
C81	C	1.608787	-0.458063	0.527358
C82	C	2.108787	0.041937	1.027358
C83	C	1.260834	-0.451669	0.742582
C84	C	1.760834	0.048331	1.242582
C85	C	1.255087	-0.456105	0.842522
C86	C	1.755087	0.043895	1.342522
C87	C	1.274464	-0.248107	0.508111
C88	C	1.774464	0.251893	1.008111
C89	C	1.274525	-0.165797	0.508134
C90	C	1.774525	0.334203	1.008134
C91	C	1.287808	-0.430840	0.274447
C92	C	1.787808	0.069160	0.774447
C93	C	1.293730	-0.426205	0.174517
C94	C	1.793730	0.073795	0.674517
C95	C	1.359359	-0.375483	1.036986
C96	C	1.859359	0.124517	1.536986
C97	C	1.353962	-0.379648	1.130890
C98	C	1.853962	0.120352	1.630890
C99	C	1.238890	-0.468597	1.124234
C100	C	1.738890	0.031403	1.624234
C101	C	1.244288	-0.464432	1.030330
C102	C	1.744288	0.035568	1.530330
C103	C	1.304525	-0.417874	0.986710
C104	C	1.804525	0.082126	1.486710
C105	C	1.309927	-0.413713	0.892805
C106	C	1.809927	0.086287	1.392805
C107	C	1.194851	-0.502657	0.886151
C108	C	1.694851	-0.002657	1.386151
C109	C	1.189453	-0.506822	0.980054
C110	C	1.689453	-0.006822	1.480054
H111	H	0.926033	-0.514769	0.592479
H112	H	1.426033	-0.014769	1.092479
H113	H	1.186561	-0.866562	0.386941
H114	H	1.686561	-0.366562	0.886941
C115	C	0.887353	-0.566676	0.652096
C116	C	1.387353	-0.066676	1.152096
C117	C	0.794316	-0.572611	0.658916
C118	C	1.294316	-0.072611	1.158916
H119	H	0.916969	-0.602194	0.692875
H120	H	1.416969	-0.102194	1.192875
H121	H	0.901999	-0.518301	0.666251
H122	H	1.401999	-0.018301	1.166251
H123	H	0.906187	-0.575521	0.592539
H124	H	1.406187	-0.075521	1.092539
H125	H	0.775481	-0.563760	0.718472
H126	H	1.275481	-0.063760	1.218472
H127	H	0.779663	-0.620997	0.644767
H128	H	1.279663	-0.120997	1.144767
H129	H	0.938048	-0.333411	0.384182
H130	H	1.438048	0.166589	0.884182
H131	H	1.422713	-1.009859	0.490101
H132	H	1.922713	-0.509859	0.990101
H133	H	0.611518	-0.549172	0.632012
H134	H	1.111518	-0.049172	1.132012
C135	C	0.560327	-0.389301	0.345689
C136	C	1.060327	0.110699	0.845689
C137	C	0.611053	-0.352893	0.406618
C138	C	1.111053	0.147107	0.906618
H139	H	0.530694	-0.353775	0.304932
H140	H	1.030694	0.146225	0.804932
H141	H	0.516976	-0.417003	0.377505
H142	H	1.016976	0.082997	0.877505
H143	H	0.598915	-0.421808	0.313299
H144	H	1.098915	0.078192	0.813299
H145	H	0.572464	-0.320390	0.439013
H146	H	1.072464	0.179610	0.939013
H147	H	0.654409	-0.325178	0.374799
H148	H	1.154409	0.174822	0.874799
C149	C	1.143543	-0.829640	0.696984
C150	C	1.643543	-0.329640	1.196984
C151	C	1.216958	-0.874622	0.669627
C152	C	1.716958	-0.374622	1.169627
H153	H	1.153534	-0.815358	0.756312
H154	H	1.653534	-0.315358	1.256312
H155	H	1.090600	-0.856373	0.695793
H156	H	1.590600	-0.356373	1.195793
H157	H	1.136716	-0.786675	0.657406
H158	H	1.636716	-0.286675	1.157406
H159	H	1.223781	-0.917590	0.709201
H160	H	1.723781	-0.417590	1.209201
H161	H	1.269916	-0.847889	0.670825
H162	H	1.769916	-0.347889	1.170825
H163	H	0.767668	-0.324888	0.374402
H164	H	1.267668	0.175112	0.874402
H165	H	1.212915	-1.007887	0.645171
H166	H	1.712915	-0.507887	1.145171
C167	C	1.467968	-0.844518	0.634854
C168	C	1.967968	-0.344518	1.134854
C169	C	1.388163	-0.881755	0.635566
C170	C	1.888163	-0.381755	1.135566
H171	H	1.480747	-0.830987	0.693918
H172	H	1.980747	-0.330987	1.193918
H173	H	1.461428	-0.801205	0.595839
H174	H	1.961428	-0.301205	1.095839
H175	H	1.515855	-0.876116	0.614334
H176	H	2.015855	-0.376116	1.114334
H177	H	1.340275	-0.850155	0.656079
H178	H	1.840275	-0.350155	1.156079
H179	H	1.394697	-0.925074	0.674594
H180	H	1.894697	-0.425074	1.174594
H181	H	1.131935	-1.000760	0.553850
H182	H	1.631935	-0.500760	1.053850
C183	C	1.409607	-0.824343	0.414095
C184	C	1.909607	-0.324343	0.914095
C185	C	1.444538	-0.875644	0.480639
C186	C	1.944538	-0.375644	0.980639
H187	H	1.457188	-0.807030	0.377501
H188	H	1.957188	-0.307030	0.877501
H189	H	1.379760	-0.783733	0.441582
H190	H	1.879760	-0.283733	0.941582
H191	H	1.368192	-0.847481	0.378064
H192	H	1.868192	-0.347481	0.878064
H193	H	1.485948	-0.852504	0.516675
H194	H	1.985948	-0.352504	1.016675
H195	H	1.474399	-0.916261	0.453151
H196	H	1.974399	-0.416261	0.953151
H197	H	1.358977	-0.375804	0.857292
H198	H	1.858977	0.124196	1.357292
H199	H	1.131201	-0.873076	0.553387
H200	H	1.631201	-0.373076	1.053387
C201	C	1.107083	-0.934628	0.359039
C202	C	1.607083	-0.434628	0.859039
C203	C	1.161414	-0.999090	0.379070
C204	C	1.661414	-0.499090	0.879070
H205	H	1.050120	-0.947663	0.338577
H206	H	1.550120	-0.447663	0.838577
H207	H	1.134828	-0.905008	0.313473
H208	H	1.634828	-0.405008	0.813473
H209	H	1.099441	-0.907502	0.411492
H210	H	1.599441	-0.407502	0.911492
H211	H	1.169061	-1.026213	0.326615
H212	H	1.669061	-0.526213	0.826615
H213	H	1.133662	-1.028722	0.424640
H214	H	1.633662	-0.528722	0.924640
H215	H	1.408412	-0.337578	1.001471
H216	H	1.908412	0.162422	1.501471
C217	C	1.468251	-0.291314	1.128033
C218	C	1.968251	0.208686	1.628033
C219	C	1.414241	-0.333055	1.186155
C220	C	1.914241	0.166945	1.686155
H221	H	1.505469	-0.262551	1.162154
H222	H	2.005469	0.237449	1.662154
H223	H	1.431200	-0.259398	1.089158
H224	H	1.931200	0.240602	1.589158
H225	H	1.504726	-0.323688	1.093380
H226	H	2.004726	0.176312	1.593380
H227	H	1.377762	-0.300680	1.220803
H228	H	1.877762	0.199320	1.720803
H229	H	1.451297	-0.364974	1.225045
H230	H	1.951297	0.135026	1.725045
H231	H	1.305069	-0.998720	0.361342
H232	H	1.805069	-0.498720	0.861342
C233	C	1.179506	-0.514451	1.265229
C234	C	1.679506	-0.014451	1.765229
C235	C	1.172667	-0.519757	1.172191
C236	C	1.672667	-0.019757	1.672191
H237	H	1.138622	-0.546036	1.294834
H238	H	1.638622	-0.046036	1.794834
H239	H	1.165507	-0.464718	1.279853
H240	H	1.665507	0.035282	1.779853
H241	H	1.239026	-0.529014	1.284098
H242	H	1.739026	-0.029014	1.784098
H243	H	1.113148	-0.505189	1.153321
H244	H	1.613148	-0.005189	1.653321
H245	H	1.186660	-0.569501	1.157561
H246	H	1.686660	-0.069501	1.657561
C247	C	1.326721	-1.069117	0.663496
C248	C	1.826721	-0.569117	1.163496
C249	C	1.394425	-1.024036	0.631372
C250	C	1.894425	-0.524036	1.131372
H251	H	1.342937	-1.090568	0.721232
H252	H	1.842937	-0.590568	1.221232
H253	H	1.319403	-1.107280	0.623418
H254	H	1.819403	-0.607280	1.123418
H255	H	1.271907	-1.040070	0.667636
H256	H	1.771907	-0.540070	1.167636
H257	H	1.449238	-1.053084	0.627226
H258	H	1.949238	-0.553084	1.127226
H259	H	1.401753	-0.985867	0.671460
H260	H	1.901753	-0.485867	1.171460
H261	H	1.306121	-0.872037	0.361340
H262	H	1.806121	-0.372037	0.861340
C263	C	1.143912	-0.631303	1.006410
C264	C	1.643912	-0.131303	1.506410
C265	C	1.123244	-0.557999	1.028005
C266	C	1.623244	-0.057999	1.528005
H267	H	1.103033	-0.662896	1.036008
H268	H	1.603033	-0.162896	1.536008
H269	H	1.203426	-0.645846	1.025287
H270	H	1.703426	-0.145846	1.525287
H271	H	1.139278	-0.634880	0.943287
H272	H	1.639278	-0.134880	1.443287
H273	H	1.127885	-0.554420	1.091128
H274	H	1.627885	-0.054420	1.591128
H275	H	1.063715	-0.543451	1.009134
H276	H	1.563715	-0.043451	1.509134
H277	H	1.150203	-0.537177	0.845206
H278	H	1.650203	-0.037177	1.345206
