data_functionalizedCrystal
_audit_creation_method	'MofGen! by Chris Wilmer'
_symmetry_space_group_name_H-M	'P1'
_symmetry_Int_Tables_number	1
_symmetry_cell_setting	triclinic
loop_
_symmetry_equiv_pos_as_xyz
  x,y,z
_cell_length_a	21.295420
_cell_length_b	21.295411
_cell_length_c	16.959454
_cell_angle_alpha	89.986811
_cell_angle_beta	90.018326
_cell_angle_gamma	89.975307
loop_
_atom_site_label
_atom_site_type_symbol
_atom_site_fract_x
_atom_site_fract_y
_atom_site_fract_z
Zn1	Zn	0.962401	-0.355951	-0.314808
Zn2	Zn	0.962323	-0.250692	-0.446970
Zn3	Zn	0.857124	-0.250695	-0.314805
Zn4	Zn	0.857113	-0.355923	-0.446945
O5	O	0.909740	-0.303315	-0.380882
O6	O	1.050480	-0.341998	-0.332352
O7	O	0.948340	-0.162603	-0.429447
O8	O	0.871127	-0.264671	-0.204195
O9	O	1.050422	-0.264664	-0.429450
O10	O	0.948473	-0.342001	-0.204197
O11	O	0.871051	-0.162606	-0.332346
O12	O	0.769033	-0.264644	-0.332322
O13	O	0.871107	-0.444016	-0.429408
O14	O	0.769025	-0.341954	-0.429404
O15	O	0.948462	-0.444036	-0.332328
O16	O	0.948329	-0.264638	-0.557577
O17	O	0.871031	-0.341951	-0.557559
C18	C	0.746189	-0.303297	-0.380861
C19	C	0.676220	-0.303304	-0.380870
C20	C	0.176775	-0.343532	-0.431526
C21	C	0.242517	-0.343525	-0.431526
C22	C	0.275381	-0.303335	-0.380900
C23	C	0.242497	-0.263137	-0.330284
C24	C	0.176756	-0.263140	-0.330291
N25	N	0.378612	-0.298594	-0.311691
N26	N	0.441063	-0.298595	-0.311687
C27	C	0.473456	-0.303322	-0.380878
N28	N	0.441038	-0.308060	-0.450075
N29	N	0.378580	-0.308063	-0.450078
C30	C	0.346666	-0.303327	-0.380887
C31	C	0.577617	-0.343506	-0.431495
C32	C	0.643361	-0.343495	-0.431496
C33	C	0.643340	-0.263111	-0.330247
C34	C	0.577597	-0.263119	-0.330252
C35	C	0.544740	-0.303320	-0.380875
C36	C	0.909792	-0.467506	-0.380865
C37	C	0.909815	-0.537474	-0.380858
C38	C	0.950092	-0.570352	-0.330306
C39	C	0.950091	-0.636094	-0.330272
C40	C	0.909820	-0.668956	-0.380804
C41	C	0.869535	-0.636070	-0.431359
C42	C	0.869532	-0.570329	-0.431386
N43	N	0.904973	-0.772180	-0.449950
N44	N	0.904979	-0.834631	-0.449922
C45	C	0.909823	-0.867031	-0.380724
N46	N	0.914674	-0.834620	-0.311553
N47	N	0.914671	-0.772163	-0.311582
C48	C	0.909817	-0.740242	-0.380780
C49	C	0.950102	-0.971195	-0.330130
C50	C	0.950096	-1.036939	-0.330095
C51	C	0.869544	-1.036913	-0.431189
C52	C	0.869546	-0.971170	-0.431217
C53	C	0.909828	-0.938315	-0.380689
C54	C	1.073930	-0.303334	-0.380904
C55	C	1.143898	-0.303342	-0.380913
C56	C	0.909687	-0.303304	-0.586248
C57	C	0.909722	-0.303321	-0.674105
C58	C	0.909724	-0.139764	-0.380842
C59	C	0.909824	-0.069796	-0.380626
C60	C	0.869550	-0.343568	-1.045601
C61	C	0.950106	-0.263127	-1.045560
C62	C	0.950084	-0.263121	-0.963014
C63	C	0.909794	-0.303338	-0.921758
C64	C	0.869525	-0.343562	-0.963047
C65	C	0.990347	-0.222894	-0.921718
C66	C	0.990326	-0.222886	-0.839167
C67	C	0.950038	-0.263107	-0.797910
C68	C	0.909769	-0.303333	-0.839204
C69	C	0.869479	-0.343550	-0.797948
C70	C	0.829212	-0.383779	-0.839241
C71	C	0.829238	-0.383783	-0.921790
C72	C	0.950013	-0.263103	-0.715361
C73	C	0.869454	-0.343544	-0.715394
C74	C	0.909810	-0.303340	-0.174714
C75	C	0.909840	-0.303350	-0.086857
H76	H	0.670128	-0.376221	-0.472717
H77	H	0.982904	-0.230380	-1.079156
N78	N	1.031502	-0.181813	-0.963852
N79	N	1.089584	-0.186029	-0.954580
H80	H	1.118651	-0.157012	-0.984337
N81	N	0.788066	-0.424860	-0.797082
N82	N	0.810185	-0.464982	-0.750976
H83	H	0.781127	-0.493994	-0.721197
N84	N	0.991249	-1.070526	-0.278465
N85	N	1.031350	-1.107229	-0.306271
H86	H	1.060416	-1.130951	-0.269807
H87	H	0.836731	-0.543560	-0.472551
H88	H	0.796454	-0.416535	-0.955418
N89	N	0.544060	-0.384571	-0.483208
N90	N	0.573425	-0.420449	-0.528402
H91	H	0.549727	-0.449452	-0.564926
N92	N	0.676911	-0.222056	-0.278544
N93	N	0.735608	-0.222055	-0.278547
H94	H	0.759321	-0.193057	-0.242033
N95	N	0.828429	-0.384660	-1.087787
N96	N	0.828457	-0.384666	-1.161491
H97	H	0.799416	-0.413688	-1.191287
H98	H	0.269290	-0.376255	-0.472741
H99	H	0.550829	-0.230394	-0.289036
H100	H	0.836647	-0.376297	-0.681809
H101	H	0.836748	-1.063668	-0.472325
H102	H	1.023113	-0.190130	-0.805552
H103	H	0.982892	-0.543605	-0.289161
N104	N	0.991234	-0.669678	-0.278622
N105	N	1.027192	-0.640336	-0.233508
H106	H	1.056249	-0.664052	-0.197028
N107	N	0.143171	-0.222098	-0.278572
N108	N	0.106512	-0.244320	-0.228244
H109	H	0.082792	-0.215335	-0.191713
H110	H	0.150026	-0.376264	-0.472750
H111	H	0.269259	-0.230413	-0.289065
N112	N	0.991137	-0.222006	-0.673194
N113	N	1.027101	-0.186096	-0.710039
H114	H	1.056148	-0.157068	-0.680260
H115	H	0.836744	-0.662830	-0.472500
H116	H	0.982898	-0.944443	-0.288983
H117	H	0.836752	-0.944401	-0.472387
