data_functionalizedCrystal
_audit_creation_method	'MofGen! by Chris Wilmer'
_symmetry_space_group_name_H-M	'P1'
_symmetry_Int_Tables_number	1
_symmetry_cell_setting	triclinic
loop_
_symmetry_equiv_pos_as_xyz
  x,y,z
_cell_length_a	17.038278
_cell_length_b	26.210047
_cell_length_c	17.019294
_cell_angle_alpha	93.874473
_cell_angle_beta	87.243447
_cell_angle_gamma	90.009730
loop_
_atom_site_label
_atom_site_type_symbol
_atom_site_fract_x
_atom_site_fract_y
_atom_site_fract_z
O1	O	1.037228	0.049956	0.171264
O2	O	0.809600	0.049837	0.168547
O3	O	0.929763	0.044868	0.055500
O4	O	0.917065	0.054925	0.284311
O5	O	0.929740	-0.039990	0.055517
O6	O	0.809576	-0.035020	0.168564
O7	O	1.037205	-0.034901	0.171282
Cu8	Cu	0.923388	-0.042709	0.169924
Cu9	Cu	0.923416	0.057645	0.169904
O10	O	0.917041	-0.029932	0.284328
C11	C	0.780462	0.007300	0.166082
C12	C	0.693675	0.006975	0.158702
C13	C	0.203302	0.004985	0.113367
C14	C	0.284846	0.005287	0.120307
C15	C	0.316217	0.008572	0.195006
C16	C	0.266037	0.011551	0.262771
C17	C	0.184495	0.011246	0.255830
C18	C	0.561953	0.009649	0.219526
C19	C	0.643502	0.009956	0.226462
C20	C	0.662306	0.003690	0.083997
C21	C	0.580761	0.003388	0.077063
C22	C	0.530589	0.006364	0.144827
C23	C	0.399568	0.008883	0.202102
C24	C	0.447239	0.006050	0.137731
N25	N	0.923375	-0.113292	0.169939
C26	C	0.976619	-0.468008	0.119859
C27	C	0.976636	-0.681667	0.119849
O28	O	1.021876	-0.711160	0.077270
N29	N	0.923420	-0.706188	0.169887
C30	C	0.870193	-0.677292	0.219927
O31	O	0.824924	-0.703052	0.262482
C32	C	0.870172	-0.463634	0.219932
C33	C	0.923397	-0.439115	0.169897
C34	C	1.029839	-0.443488	0.069826
C35	C	1.029837	-0.390077	0.069832
C36	C	0.976615	-0.361184	0.119871
C37	C	0.923395	-0.385703	0.169903
C38	C	0.816942	-0.434739	0.269968
C39	C	0.816940	-0.381322	0.269964
C40	C	0.870165	-0.356802	0.219928
C41	C	0.870171	-0.303399	0.219947
N42	N	0.923387	-0.278878	0.169909
C43	C	0.976609	-0.307770	0.119871
C44	C	0.870208	-0.789466	0.219922
C45	C	0.870214	-0.842880	0.219922
C46	C	0.976657	-0.847251	0.119842
C47	C	0.976654	-0.793835	0.119847
C48	C	0.923424	-0.764944	0.169884
C49	C	0.976601	-0.195601	0.119888
C50	C	0.976597	-0.142185	0.119900
C51	C	0.870152	-0.137819	0.219977
C52	C	0.870159	-0.191230	0.219967
C53	C	0.923386	-0.220121	0.169916
O54	O	0.824949	-0.273874	0.262497
O55	O	1.021859	-0.282001	0.077310
C56	C	0.976621	-0.521419	0.119853
C57	C	0.923401	-0.545939	0.169885
C58	C	0.870179	-0.517046	0.219923
C59	C	0.923407	-0.599353	0.169885
C60	C	0.976629	-0.628245	0.119846
C61	C	1.029845	-0.603724	0.069808
C62	C	1.029843	-0.550312	0.069814
C63	C	0.816963	-0.541568	0.269961
C64	C	0.816970	-0.594980	0.269951
C65	C	0.870192	-0.623872	0.219913
C66	C	1.066343	0.007637	0.173746
C67	C	1.153129	0.007965	0.181126
C68	C	0.929270	0.001147	0.026088
C69	C	0.927824	-0.002703	-0.061579
N70	N	0.923436	0.128228	0.169884
C71	C	0.927160	0.041743	-0.102770
C72	C	0.925797	0.038124	-0.185141
C73	C	0.925104	-0.009943	-0.226321
C74	C	0.925766	-0.054392	-0.185124
C75	C	0.927124	-0.050773	-0.102754
C76	C	0.921000	-0.023186	-0.475026
C77	C	0.919645	-0.026803	-0.557402
C78	C	0.919674	0.065714	-0.557413
C79	C	0.921036	0.069329	-0.475042
C80	C	0.921694	0.024880	-0.433852
C81	C	0.923713	-0.013643	-0.310518
C82	C	0.923079	0.028581	-0.349656
C83	C	0.917535	0.013790	0.313741
C84	C	0.918980	0.017644	0.401407
H85	H	0.143644	0.013671	0.311007
H86	H	0.521112	0.012075	0.274705
O87	O	0.711012	0.000885	0.018152
C88	C	0.752013	0.039565	-0.101526
C89	C	0.696823	0.042813	-0.026977
H90	H	0.740550	0.073453	-0.138042
H91	H	0.815698	0.040379	-0.083782
H92	H	0.740613	0.002432	-0.137971
H93	H	0.708153	0.079941	0.009502
H94	H	0.633156	0.041970	-0.044776
H95	H	0.669040	0.012624	0.287294
H96	H	0.291585	0.014224	0.323593
O97	O	0.818409	-0.866675	0.268447
C98	C	0.682422	-0.881380	0.305494
C99	C	0.741010	-0.854414	0.250480
H100	H	0.619833	-0.871468	0.290999
H101	H	0.691493	-0.924526	0.296901
H102	H	0.692574	-0.868078	0.369356
H103	H	0.730893	-0.867674	0.186597
H104	H	0.731926	-0.811272	0.259141
H105	H	0.421694	0.003380	0.076911
H106	H	0.826821	-0.114286	0.260720
H107	H	0.773591	-0.357800	0.310709
O108	O	0.921722	0.115989	-0.434946
C109	C	0.990658	0.173579	-0.346092
C110	C	0.990065	0.120739	-0.391518
H111	H	1.045899	0.177432	-0.310956
H112	H	0.989945	0.204791	-0.389574
H113	H	0.936527	0.177621	-0.304072
H114	H	1.044187	0.116647	-0.433539
H115	H	0.990738	0.089553	-0.347990
H116	H	0.927728	0.080884	-0.069247
H117	H	0.919137	0.101902	-0.590959
H118	H	1.073175	-0.370117	0.029087
H119	H	0.826861	-0.765945	0.260670
H120	H	0.425119	0.011560	0.262923
H121	H	1.019993	-0.870784	0.079100
H122	H	0.923152	-0.052779	-0.344056
H123	H	1.019941	-0.122223	0.079156
O124	O	0.918935	-0.073537	-0.597281
C125	C	0.919088	-0.164920	-0.588585
C126	C	0.919873	-0.112030	-0.543323
H127	H	0.919863	-0.196055	-0.544981
H128	H	0.863756	-0.168801	-0.623581
H129	H	0.973127	-0.169057	-0.630716
H130	H	0.865872	-0.107857	-0.501153
H131	H	0.975241	-0.108173	-0.508380
H132	H	0.177767	0.002312	0.052538
H133	H	0.923638	0.067716	-0.316123
H134	H	1.019943	-0.219118	0.079131
H135	H	0.925259	0.074317	-0.218675
H136	H	0.921551	-0.059381	-0.441500
O137	O	0.765371	-0.618814	0.318645
C138	C	0.748578	-0.674471	0.425206
C139	C	0.807104	-0.647502	0.370134
H140	H	0.782296	-0.697681	0.466837
H141	H	0.710550	-0.644661	0.461024
H142	H	0.709551	-0.701067	0.388483
H143	H	0.846182	-0.620908	0.406796
H144	H	0.845077	-0.677339	0.334313
O145	O	1.081620	-0.471472	0.021193
C146	C	1.187173	-0.470153	-0.078094
C147	C	1.128576	-0.438405	-0.023045
H148	H	1.225141	-0.443432	-0.113886
H149	H	1.226248	-0.493529	-0.041433
H150	H	1.153467	-0.497008	-0.119757
H151	H	1.162217	-0.411521	0.018629
H152	H	1.089501	-0.415063	-0.059755
O153	O	1.028381	-0.770102	0.071165
C154	C	1.133991	-0.780088	-0.028064
C155	C	1.075439	-0.807028	0.027020
H156	H	1.172063	-0.809930	-0.063757
H157	H	1.100326	-0.756934	-0.069810
H158	H	1.172969	-0.753449	0.008644
H159	H	1.036447	-0.833692	-0.009624
H160	H	1.109153	-0.830150	0.068769
H161	H	0.773601	-0.454695	0.310711
H162	H	0.925197	-0.093529	-0.218659
O163	O	0.927793	-0.093999	-0.062862
C164	C	0.927548	-0.186144	-0.071534
C165	C	0.926818	-0.137230	-0.116810
H166	H	0.926743	-0.221109	-0.115130
H167	H	0.982875	-0.186962	-0.036534
H168	H	0.873504	-0.186570	-0.029408
H169	H	0.980824	-0.136772	-0.158977
H170	H	0.871456	-0.136432	-0.151758
O171	O	0.818382	-0.214971	0.268595
C172	C	0.712823	-0.204991	0.367879
C173	C	0.771416	-0.178045	0.312846
H174	H	0.674847	-0.175148	0.403683
H175	H	0.673756	-0.231591	0.331206
H176	H	0.746534	-0.228188	0.409533
H177	H	0.737770	-0.154821	0.271182
H178	H	0.810482	-0.151475	0.349569
H179	H	0.325694	0.002858	0.065130
O180	O	0.550257	0.000287	0.004514
C181	C	0.469090	0.040258	-0.085997
C182	C	0.503595	0.043836	-0.003818
H183	H	0.431343	0.075457	-0.092754
H184	H	0.518931	0.038212	-0.133266
H185	H	0.431406	0.004431	-0.092790
H186	H	0.541270	0.079660	0.003052
H187	H	0.453717	0.045853	0.043410
H188	H	0.773622	-0.518048	0.310707
O189	O	1.081435	-0.631823	0.021114
C190	C	1.098181	-0.696831	-0.085447
C191	C	1.039678	-0.665031	-0.030364
H192	H	1.064444	-0.723696	-0.127069
H193	H	1.136213	-0.670163	-0.121274
H194	H	1.137206	-0.720203	-0.048732
H195	H	1.000602	-0.641657	-0.067018
H196	H	1.001702	-0.691727	0.005466
H197	H	1.073183	-0.530352	0.029071
