data_functionalizedCrystal
_audit_creation_method	'MofGen! by Chris Wilmer'
_symmetry_space_group_name_H-M	'P1'
_symmetry_Int_Tables_number	1
_symmetry_cell_setting	triclinic
loop_
_symmetry_equiv_pos_as_xyz
  x,y,z
_cell_length_a	16.109318
_cell_length_b	16.109301
_cell_length_c	14.586319
_cell_angle_alpha	89.994786
_cell_angle_beta	90.000075
_cell_angle_gamma	83.465022
loop_
_atom_site_label
_atom_site_type_symbol
_atom_site_fract_x
_atom_site_fract_y
_atom_site_fract_z
O1	O	1.103122	0.106935	-0.076167
O2	O	0.861062	0.120219	-0.076186
O3	O	0.988741	-0.007454	-0.076167
O4	O	0.975442	0.234607	-0.076186
O5	O	0.988733	-0.007456	0.076314
O6	O	0.861053	0.120217	0.076295
O7	O	1.103113	0.106933	0.076314
Cu8	Cu	0.982082	0.113575	0.090227
Cu9	Cu	0.982093	0.113577	-0.090099
O10	O	0.975433	0.234606	0.076294
C11	C	0.830083	0.119677	0.000052
C12	C	0.737788	0.118057	0.000045
C13	C	0.438719	0.112823	-0.083055
C14	C	0.525441	0.114340	-0.083061
C15	C	0.525450	0.114327	0.083182
C16	C	0.438731	0.112803	0.083187
C17	C	0.395367	0.112056	0.000065
C18	C	0.568807	0.115096	0.000055
C19	C	0.662835	0.116742	0.000049
C20	C	0.301334	0.110409	0.000070
C21	C	0.988198	-0.038430	0.000074
C22	C	0.986583	-0.130725	0.000075
C23	C	1.058590	-0.352993	0.000067
C24	C	1.057066	-0.439713	0.000059
C25	C	0.905579	-0.419848	0.000051
C26	C	0.907104	-0.333130	0.000052
C27	C	0.983612	-0.299704	0.000064
C28	C	0.980563	-0.473144	0.000056
C29	C	0.978910	-0.567170	0.000047
C30	C	0.985265	-0.205672	0.000071
C31	C	1.134092	0.107474	0.000074
C32	C	1.226387	0.109095	0.000075
C33	C	0.975976	0.265581	0.000052
C34	C	0.977592	0.357877	0.000044
N35	N	0.982081	0.113573	0.217059
N36	N	0.982100	0.113573	-0.216931
C37	C	1.038636	0.057058	0.452074
C38	C	1.038638	0.057056	0.548055
C39	C	0.925539	0.170090	0.548047
C40	C	0.925534	0.170087	0.452068
C41	C	0.982087	0.113572	0.404084
C42	C	0.982095	0.113573	0.596044
C43	C	0.982097	0.113571	0.700111
C44	C	0.982084	0.113573	0.300010
H45	H	0.560734	0.114964	-0.150746
H46	H	1.084685	0.011036	0.587126
Cl47	Cl	0.579968	0.115276	0.187671
Cl48	Cl	0.854433	0.241135	0.391731
Cl49	Cl	0.384209	0.111878	-0.187550
H50	H	0.403433	0.112178	0.150877
Cl51	Cl	0.854450	0.241137	0.608375
H52	H	0.846043	-0.289740	0.000047
H53	H	1.120888	-0.325781	0.000075
Cl54	Cl	1.151329	-0.506702	0.000060
H55	H	0.843288	-0.447074	0.000042
Cl56	Cl	1.109728	-0.013992	0.391755
