data_functionalizedCrystal
_audit_creation_method	'MofGen! by Chris Wilmer'
_symmetry_space_group_name_H-M	'P1'
_symmetry_Int_Tables_number	1
_symmetry_cell_setting	triclinic
loop_
_symmetry_equiv_pos_as_xyz
  x,y,z
_cell_length_a	14.519709
_cell_length_b	16.974800
_cell_length_c	16.053810
_cell_angle_alpha	88.912688
_cell_angle_beta	87.418242
_cell_angle_gamma	83.534829
loop_
_atom_site_label
_atom_site_type_symbol
_atom_site_fract_x
_atom_site_fract_y
_atom_site_fract_z
O1	O	0.117559	1.049243	-0.001491
O2	O	0.617559	1.549243	0.498509
O3	O	0.131673	0.819799	0.014020
O4	O	0.631673	1.319799	0.514020
O5	O	-0.009619	0.940604	0.005846
O6	O	0.490381	1.440604	0.505846
O7	O	0.258851	0.928438	0.006683
O8	O	0.758851	1.428438	0.506683
O9	O	-0.001844	0.933982	-0.132565
O10	O	0.498156	1.433982	0.367435
O11	O	0.139448	0.813176	-0.124391
O12	O	0.639448	1.313176	0.375609
O13	O	0.125334	1.042621	-0.139901
O14	O	0.625334	1.542621	0.360099
Zn15	Zn	0.133625	0.926847	-0.154122
Zn16	Zn	0.633625	1.426847	0.345878
Zn17	Zn	0.123382	0.935572	0.028240
Zn18	Zn	0.623382	1.435572	0.528240
O19	O	0.266626	0.921816	-0.131727
O20	O	0.766626	1.421816	0.368273
C21	C	0.134881	0.787123	-0.053200
C22	C	0.634881	1.287123	0.446800
C23	C	0.132847	0.699626	-0.047286
C24	C	0.632847	1.199626	0.452714
C25	C	0.136126	0.654915	-0.119956
C26	C	0.636126	1.154915	0.380044
C27	C	0.134200	0.572704	-0.114401
C28	C	0.634200	1.072704	0.385599
C29	C	0.129000	0.535205	-0.036175
C30	C	0.629000	1.035205	0.463825
C31	C	0.125717	0.579923	0.036502
C32	C	0.625717	1.079923	0.536502
C33	C	0.127637	0.662133	0.030946
C34	C	0.627637	1.162133	0.530946
C35	C	0.122797	0.289721	-0.011468
C36	C	0.622797	0.789721	0.488532
C37	C	0.120880	0.207505	-0.005918
C38	C	0.620880	0.707505	0.494082
C39	C	0.129361	0.200292	-0.156821
C40	C	0.629361	0.700292	0.343179
C41	C	0.131286	0.282503	-0.162370
C42	C	0.631286	0.782503	0.337630
C43	C	0.127999	0.327214	-0.089694
C44	C	0.627999	0.827214	0.410306
N45	N	0.127034	0.451172	-0.030495
N46	N	0.627034	0.951172	0.469505
N47	N	0.129958	0.411247	-0.095375
N48	N	0.629958	0.911247	0.404625
C49	C	-0.040091	0.936726	-0.063321
C50	C	0.459909	1.436726	0.436679
C51	C	-0.142474	0.935027	-0.063207
C52	C	0.357526	1.435027	0.436793
C53	C	-0.517374	0.928772	-0.062762
C54	C	-0.017374	1.428772	0.437238
C55	C	-0.413065	0.930509	-0.062886
C56	C	0.086935	1.430509	0.437114
C57	C	-0.329927	0.931899	-0.062985
C58	C	0.170073	1.431899	0.437015
C59	C	-0.225611	0.933637	-0.063108
C60	C	0.274389	1.433637	0.436892
C61	C	0.297098	0.925694	-0.062558
C62	C	0.797098	1.425694	0.437442
C63	C	0.399480	0.927393	-0.062667
C64	C	0.899480	1.427393	0.437333
C65	C	0.122125	1.075297	-0.072679
C66	C	0.622125	1.575297	0.427321
C67	C	0.124160	1.162794	-0.078588
C68	C	0.624160	1.662794	0.421412
N69	N	0.140616	0.920898	-0.278579
N70	N	0.640616	1.420898	0.221421
C71	C	0.176489	0.890112	-0.800128
C72	C	0.676489	1.390112	-0.300128
C73	C	0.171617	0.894291	-0.713004
C74	C	0.671617	1.394291	-0.213004
C75	C	0.106643	0.949889	-0.673056
C76	C	0.606643	1.449889	-0.173056
C77	C	0.046532	1.001306	-0.720237
C78	C	0.546532	1.501306	-0.220237
C79	C	0.051400	0.997124	-0.807359
C80	C	0.551400	1.497124	-0.307359
C81	C	0.085372	0.968133	-0.412882
C82	C	0.585372	1.468133	0.087118
C83	C	0.080510	0.972314	-0.325753
C84	C	0.580510	1.472314	0.174247
C85	C	0.205595	0.865297	-0.318527
C86	C	0.705595	1.365297	0.181473
C87	C	0.210462	0.861122	-0.405651
C88	C	0.710462	1.361122	0.094349
C89	C	0.150347	0.912536	-0.452824
C90	C	0.650347	1.412536	0.047176
N91	N	0.101663	0.954163	-0.584002
N92	N	0.601663	1.454163	-0.084002
N93	N	0.155323	0.908258	-0.541876
N94	N	0.655323	1.408258	-0.041876
N95	N	0.116384	0.941528	0.152698
N96	N	0.616384	1.441528	0.652698
H97	H	0.120117	0.326116	0.047710
H98	H	0.620117	0.826116	0.547710
H99	H	0.263368	0.815849	-0.438175
H100	H	0.763368	1.315849	0.061825
H101	H	0.036426	1.009998	-0.451283
H102	H	0.536426	1.509998	0.048717
N103	N	0.115271	0.167049	0.078455
N104	N	0.615271	0.667049	0.578455
H105	H	0.170866	0.176622	0.110909
H106	H	0.670866	0.676622	0.610909
H107	H	0.056598	0.189255	0.109977
H108	H	0.556598	0.689255	0.609977
H109	H	0.254537	0.823436	-0.280111
H110	H	0.754537	1.323436	0.219889
H111	H	0.140368	0.685440	-0.183657
H112	H	0.640368	1.185440	0.316343
N113	N	0.132893	0.152076	-0.235207
N114	N	0.632893	0.652076	0.264793
H115	H	0.191597	0.159347	-0.269281
H116	H	0.691597	0.659347	0.230719
H117	H	0.132121	0.094194	-0.219755
H118	H	0.632121	0.594194	0.280245
N119	N	0.136881	0.322956	-0.246739
N120	N	0.636881	0.822956	0.253261
H121	H	0.194983	0.350593	-0.251976
H122	H	0.694983	0.850593	0.248024
H123	H	0.138625	0.282119	-0.291890
H124	H	0.638625	0.782119	0.208110
H125	H	0.121477	0.549386	0.100195
H126	H	0.621477	1.049386	0.600195
H127	H	0.124968	0.698536	0.090122
H128	H	0.624968	1.198536	0.590122
H129	H	0.229402	0.844842	-0.832648
H130	H	0.729402	1.344842	-0.332648
N131	N	0.010431	1.032285	-0.282664
N132	N	0.510431	1.532285	0.217336
H133	H	-0.026914	1.064222	-0.325767
H134	H	0.473086	1.564222	0.174233
H135	H	-0.032452	1.003795	-0.244454
H136	H	0.467548	1.503795	0.255546
N137	N	-0.023571	1.061255	-0.677154
N138	N	0.476429	1.561255	-0.177154
H139	H	-0.017540	1.056101	-0.614803
H140	H	0.482460	1.556101	-0.114803
H141	H	-0.011907	1.116453	-0.696169
H142	H	0.488093	1.616453	-0.196169
H143	H	0.002455	1.038990	-0.845768
H144	H	0.502455	1.538990	-0.345768
N145	N	0.137734	0.524477	-0.192780
N146	N	0.637734	1.024477	0.307220
H147	H	0.140670	0.560775	-0.243184
H148	H	0.640670	1.060775	0.256816
H149	H	0.194587	0.484265	-0.193609
H150	H	0.694587	0.984265	0.306391
N151	N	0.236436	0.838829	-0.662122
N152	N	0.736436	1.338829	-0.162122
H153	H	0.278337	0.802975	-0.700649
H154	H	0.778337	1.302975	-0.200649
H155	H	0.275286	0.870784	-0.628026
H156	H	0.775286	1.370784	-0.128026
