data_functionalizedCrystal
_audit_creation_method	'MofGen! by Chris Wilmer'
_symmetry_space_group_name_H-M	'P1'
_symmetry_Int_Tables_number	1
_symmetry_cell_setting	triclinic
loop_
_symmetry_equiv_pos_as_xyz
  x,y,z
_cell_length_a	19.121102
_cell_length_b	17.077402
_cell_length_c	17.077396
_cell_angle_alpha	89.970216
_cell_angle_beta	87.541651
_cell_angle_gamma	87.577149
loop_
_atom_site_label
_atom_site_type_symbol
_atom_site_fract_x
_atom_site_fract_y
_atom_site_fract_z
Zn1	Zn	-1.073738	0.363784	0.494968
Zn2	Zn	-0.573738	0.863784	0.994968
Zn3	Zn	-1.073655	0.495055	0.363695
Zn4	Zn	-0.573655	0.995055	0.863695
Zn5	Zn	-0.956287	0.358202	0.358123
Zn6	Zn	-0.456287	0.858202	0.858123
Zn7	Zn	-0.956259	0.489402	0.489328
Zn8	Zn	-0.456259	0.989402	0.989328
O9	O	-1.014985	0.426611	0.426529
O10	O	-0.514985	0.926611	0.926529
O11	O	-1.172012	0.385900	0.482247
O12	O	-0.672012	0.885900	0.982247
O13	O	-1.058063	0.476931	0.253108
O14	O	-0.558063	0.976931	0.753108
O15	O	-0.971914	0.249098	0.376304
O16	O	-0.471914	0.749098	0.876304
O17	O	-1.171951	0.482344	0.385801
O18	O	-0.671951	0.982344	0.885801
O19	O	-1.058205	0.253199	0.476844
O20	O	-0.558205	0.753199	0.976844
O21	O	-0.971834	0.376386	0.249014
O22	O	-0.471834	0.876386	0.749014
O23	O	-0.857999	0.370904	0.370835
O24	O	-0.357999	0.870904	0.870835
O25	O	-0.971865	0.472708	0.599924
O26	O	-0.471865	0.972708	1.099924
O27	O	-0.857978	0.467296	0.467231
O28	O	-0.357978	0.967296	0.967231
O29	O	-1.058177	0.380418	0.604068
O30	O	-0.558177	0.880418	1.104068
O31	O	-1.058036	0.604150	0.380332
O32	O	-0.558036	1.104150	0.880332
O33	O	-0.971785	0.599996	0.472634
O34	O	-0.471785	1.099996	0.972634
C35	C	-1.014917	0.630556	0.426494
C36	C	-0.514917	1.130556	0.926494
C37	C	-1.014952	0.717807	0.426509
C38	C	-0.514952	1.217807	0.926509
C39	C	-0.832504	0.417882	0.417817
C40	C	-0.332504	0.917882	0.917817
C41	C	-0.754438	0.414166	0.414109
C42	C	-0.254438	0.914166	0.914109
C43	C	-1.198178	0.435375	0.435275
C44	C	-0.698178	0.935375	0.935275
C45	C	-1.276244	0.439110	0.439002
C46	C	-0.776244	0.939110	0.939002
C47	C	-0.717770	0.462682	0.462476
C48	C	-0.217770	0.962682	0.962476
C49	C	-0.644419	0.459181	0.458996
C50	C	-0.144419	0.959181	0.958996
C51	C	-0.607737	0.407167	0.407143
C52	C	-0.107737	0.907167	0.907143
C53	C	-0.644410	0.358645	0.358774
C54	C	-0.144410	0.858645	0.858774
C55	C	-0.717760	0.362143	0.362259
C56	C	-0.217760	0.862143	0.862259
C57	C	-0.386267	0.394086	0.394118
C58	C	0.113733	0.894086	0.894118
C59	C	-0.312912	0.390594	0.390635
C60	C	0.187088	0.890594	0.890635
C61	C	-0.312926	0.491129	0.490857
C62	C	0.187074	0.991129	0.990857
C63	C	-0.386277	0.494625	0.494334
C64	C	0.113723	0.994625	0.994334
C65	C	-0.422944	0.446101	0.445968
C66	C	0.077056	0.946101	0.945968
C67	C	-0.532760	0.403588	0.403583
C68	C	-0.032760	0.903588	0.903583
C69	C	-0.497920	0.449676	0.449533
C70	C	0.002080	0.949676	0.949533
C71	C	-1.015027	0.426555	0.631275
C72	C	-0.515027	0.926555	1.131275
C73	C	-1.015046	0.426531	0.718526
C74	C	-0.515046	0.926531	1.218526
C75	C	-1.015072	0.221871	0.426581
C76	C	-0.515072	0.721871	0.926581
C77	C	-1.015109	0.134623	0.426604
C78	C	-0.515109	0.634623	0.926604
C79	C	-1.059909	0.760936	0.378503
C80	C	-0.559909	1.260936	0.878503
C81	C	-1.059943	0.842918	0.378525
C82	C	-0.559943	1.342918	0.878525
C83	C	-1.015017	0.881770	0.426548
C84	C	-0.515017	1.381770	0.926548
C85	C	-0.970058	0.838635	0.474559
C86	C	-0.470058	1.338635	0.974559
C87	C	-0.970028	0.756654	0.474541
C88	C	-0.470028	1.256654	0.974541
C89	C	-0.970123	1.009508	0.474592
C90	C	-0.470123	1.509508	0.974592
C91	C	-0.970153	1.091494	0.474610
C92	C	-0.470153	1.591494	0.974610
C93	C	-1.060039	1.095772	0.378576
C94	C	-0.560039	1.595772	0.878576
C95	C	-1.060008	1.013791	0.378558
C96	C	-0.560008	1.513791	0.878558
C97	C	-1.015049	0.970662	0.426568
C98	C	-0.515049	1.470662	0.926568
C99	C	-1.014983	0.426612	0.222581
C100	C	-0.514983	0.926612	0.722581
C101	C	-1.015101	0.426421	0.135337
C102	C	-0.515101	0.926421	0.635337
C103	C	-1.059990	0.378472	0.761675
C104	C	-0.559990	0.878472	1.261675
C105	C	-1.059998	0.378446	0.843656
C106	C	-0.559998	0.878446	1.343656
C107	C	-1.015065	0.426485	0.882486
C108	C	-0.515065	0.926485	1.382486
C109	C	-0.970116	0.474546	0.839331
C110	C	-0.470116	0.974546	1.339331
C111	C	-0.970105	0.474567	0.757352
C112	C	-0.470105	0.974567	1.257352
C113	C	-0.970145	0.474501	1.010203
C114	C	-0.470145	0.974501	1.510203
C115	C	-0.970157	0.474481	1.092188
C116	C	-0.470157	0.974481	1.592188
C117	C	-1.060038	0.378379	1.096507
C118	C	-0.560038	0.878379	1.596507
C119	C	-1.060026	0.378400	1.014527
C120	C	-0.560026	0.878400	1.514527
C121	C	-1.015078	0.426463	0.971378
C122	C	-0.515078	0.926463	1.471378
H123	H	-0.747631	0.505040	0.504697
H124	H	-0.247631	1.005040	1.004697
H125	H	-0.747615	0.322632	0.322877
H126	H	-0.247615	0.822632	0.822877
H127	H	-1.096598	0.339313	0.878784
H128	H	-0.596598	0.839313	1.378784
C129	C	-0.875703	1.179249	0.480948
C130	C	-0.375703	1.679249	0.980948
C131	C	-0.920770	1.134197	0.527402
C132	C	-0.420770	1.634197	1.027402
H133	H	-0.845214	1.205606	0.513542
H134	H	-0.345214	1.705606	1.013542
H135	H	-0.902479	1.216666	0.452364
H136	H	-0.402479	1.716666	0.952364
H137	H	-0.848843	1.146024	0.445441
H138	H	-0.348843	1.646024	0.945441
H139	H	-0.947634	1.167423	0.562906
H140	H	-0.447634	1.667423	1.062906
H141	H	-0.893992	1.096776	0.555999
H142	H	-0.393992	1.596776	1.055999
H143	H	-0.283064	0.530633	0.530235
H144	H	0.216936	1.030633	1.030235
H145	H	-0.283048	0.348228	0.348415
H146	H	0.216952	0.848228	0.848415
C147	C	-0.881277	1.013510	0.569524
C148	C	-0.381277	1.513510	1.069524
C149	C	-0.920706	0.962099	0.527369
C150	C	-0.420706	1.462099	1.027369
H151	H	-0.850767	0.984239	0.602100
H152	H	-0.350767	1.484239	1.102100
H153	H	-0.911874	1.046896	0.601041
H154	H	-0.411874	1.546896	1.101041
H155	H	-0.854440	1.044252	0.534016
H156	H	-0.354440	1.544252	1.034016
H157	H	-0.947548	0.931361	0.562877
H158	H	-0.447548	1.431361	1.062877
H159	H	-0.890105	0.928699	0.495850
H160	H	-0.390105	1.428699	0.995850
H161	H	-0.416113	0.354580	0.354728
H162	H	0.083887	0.854580	0.854728
C163	C	-0.531966	0.308642	0.308931
C164	C	-0.031966	0.808642	0.808931
C165	C	-0.604091	0.301466	0.301780
C166	C	-0.104091	0.801466	0.801780
H167	H	-0.507077	0.273344	0.273740
H168	H	-0.007077	0.773344	0.773740
H169	H	-0.519973	0.296651	0.361118
H170	H	-0.019973	0.796651	0.861118
H171	H	-0.519931	0.360797	0.296772
H172	H	-0.019931	0.860797	0.796772
H173	H	-0.616127	0.249313	0.313945
H174	H	-0.116127	0.749313	0.813945
H175	H	-0.616088	0.313452	0.249581
H176	H	-0.116088	0.813452	0.749581
H177	H	-1.096587	0.982159	0.339449
H178	H	-0.596587	1.482159	0.839449
C179	C	-1.099950	0.335646	1.224089
C180	C	-0.599950	0.835646	1.724089
C181	C	-1.109435	0.325532	1.143933
C182	C	-0.609435	0.825532	1.643933
H183	H	-1.130441	0.303017	1.253368
H184	H	-0.630441	0.803017	1.753368
H185	H	-1.110215	0.388865	1.238005
H186	H	-0.610215	0.888865	1.738005
H187	H	-1.052762	0.321901	1.235255
H188	H	-0.552762	0.821901	1.735255
H189	H	-1.156622	0.339283	1.132766
H190	H	-0.656622	0.839283	1.632766
H191	H	-1.099174	0.272301	1.130012
H192	H	-0.599174	0.772301	1.630012
H193	H	-0.933482	0.870274	0.513665
H194	H	-0.433482	1.370274	1.013665
C195	C	-0.875689	0.480814	1.179858
C196	C	-0.375689	0.980814	1.679858
C197	C	-0.920754	0.527274	1.134868
C198	C	-0.420754	1.027274	1.634868
H199	H	-0.845190	0.513407	1.206208
H200	H	-0.345190	1.013407	1.706208
H201	H	-0.848845	0.445338	1.146599
H202	H	-0.348845	0.945338	1.646599
H203	H	-0.902471	0.452199	1.217289
H204	H	-0.402471	0.952199	1.717289
H205	H	-0.893972	0.555884	1.097433
H206	H	-0.393972	1.055884	1.597433
H207	H	-0.947600	0.562763	1.168130
H208	H	-0.447600	1.062763	1.668130
C209	C	-1.094182	0.737403	0.247243
C210	C	-0.594182	1.237403	0.747243
C211	C	-1.109294	0.718235	0.325712
C212	C	-0.609294	1.218235	0.825712
H213	H	-1.124676	0.711045	0.214654
H214	H	-0.624676	1.211045	0.714654
H215	H	-1.047000	0.721761	0.233462
H216	H	-0.547000	1.221761	0.733462
H217	H	-1.100636	0.792402	0.240395
H218	H	-0.600636	1.292402	0.740395
H219	H	-1.102835	0.663236	0.332560
H220	H	-0.602835	1.163236	0.832560
H221	H	-1.156488	0.733872	0.339497
H222	H	-0.656488	1.233872	0.839497
H223	H	-1.096581	0.339355	0.730065
H224	H	-0.596581	0.839355	1.230065
C225	C	-0.881183	0.760655	0.569468
C226	C	-0.381183	1.260655	1.069468
C227	C	-0.920612	0.709244	0.527312
C228	C	-0.420612	1.209244	1.027312
H229	H	-0.850675	0.731385	0.602046
H230	H	-0.350675	1.231385	1.102046
H231	H	-0.911781	0.794043	0.600983
H232	H	-0.411781	1.294043	1.100983
H233	H	-0.854344	0.791396	0.533961
H234	H	-0.354344	1.291396	1.033961
H235	H	-0.947455	0.678507	0.562819
H236	H	-0.447455	1.178507	1.062819
H237	H	-0.890010	0.675843	0.495795
H238	H	-0.390010	1.175843	0.995795
H239	H	-0.933532	0.513626	0.975072
H240	H	-0.433532	1.013626	1.475072
H241	H	-1.096619	0.339287	0.982914
H242	H	-0.596619	0.839287	1.482914
H243	H	-1.096649	1.130892	0.339487
H244	H	-0.596649	1.630892	0.839487
H245	H	-0.933529	0.513657	0.870953
H246	H	-0.433529	1.013657	1.370953
H247	H	-0.933500	0.513694	0.722220
H248	H	-0.433500	1.013694	1.222220
H249	H	-0.416139	0.536983	0.536556
H250	H	0.083861	1.036983	1.036556
H251	H	-0.614567	0.498688	0.498381
H252	H	-0.114567	0.998688	0.998381
H253	H	-0.527789	0.492023	0.491755
H254	H	-0.027789	0.992023	0.991755
C255	C	-1.154573	0.939387	0.372401
C256	C	-0.654573	1.439387	0.872401
C257	C	-1.109475	0.890259	0.325830
C258	C	-0.609475	1.390259	0.825830
H259	H	-1.185190	0.968589	0.339890
H260	H	-0.685190	1.468589	0.839890
H261	H	-1.127827	0.974312	0.400934
H262	H	-0.627827	1.474312	0.900934
H263	H	-1.181294	0.908574	0.407955
H264	H	-0.681294	1.408574	0.907955
H265	H	-1.082750	0.921073	0.290280
H266	H	-0.582750	1.421073	0.790280
H267	H	-1.136224	0.855330	0.297284
H268	H	-0.636224	1.355330	0.797284
H269	H	-0.502886	0.361239	0.361363
H270	H	-0.002886	0.861239	0.861363
