data_functionalizedCrystal
_audit_creation_method	'MofGen! by Chris Wilmer'
_symmetry_space_group_name_H-M	'P1'
_symmetry_Int_Tables_number	1
_symmetry_cell_setting	triclinic
loop_
_symmetry_equiv_pos_as_xyz
  x,y,z
_cell_length_a	23.532407
_cell_length_b	15.995350
_cell_length_c	15.072220
_cell_angle_alpha	89.993871
_cell_angle_beta	89.990343
_cell_angle_gamma	83.170562
loop_
_atom_site_label
_atom_site_type_symbol
_atom_site_fract_x
_atom_site_fract_y
_atom_site_fract_z
O1	O	0.073404	1.110385	-0.073668
O2	O	0.573404	1.610385	0.426332
O3	O	0.082469	0.866535	-0.073701
O4	O	0.582469	1.366535	0.426299
O5	O	-0.004967	0.995813	-0.073659
O6	O	0.495033	1.495813	0.426341
O7	O	0.160840	0.981107	-0.073711
O8	O	0.660840	1.481107	0.426289
O9	O	-0.004962	0.995781	0.073906
O10	O	0.495038	1.495781	0.573906
O11	O	0.082474	0.866503	0.073864
O12	O	0.582474	1.366503	0.573864
O13	O	0.073409	1.110354	0.073897
O14	O	0.573409	1.610354	0.573897
Zn15	Zn	0.077942	0.988423	0.097310
Zn16	Zn	0.577942	1.488423	0.597310
Zn17	Zn	0.077935	0.988465	-0.097114
Zn18	Zn	0.577935	1.488465	0.402886
O19	O	0.160845	0.981075	0.073855
O20	O	0.660845	1.481075	0.573855
C21	C	0.082096	0.835327	0.000078
C22	C	0.582096	1.335327	0.500078
C23	C	0.080973	0.742386	0.000067
C24	C	0.580973	1.242386	0.500067
C25	C	-0.026182	0.995423	0.000128
C26	C	0.473818	1.495423	0.500128
C27	C	-0.089404	0.994297	0.000141
C28	C	0.410596	1.494297	0.500141
N29	N	0.077946	0.988401	0.229998
N30	N	0.577946	1.488401	0.729998
C31	C	-0.355883	0.913149	0.000075
C32	C	0.144117	1.413149	0.500075
C33	C	-0.296479	0.914195	0.000082
C34	C	0.203521	1.414195	0.500082
O35	O	-0.259982	0.849822	0.000046
O36	O	0.240018	1.349822	0.500046
N37	N	-0.273557	0.991051	0.000103
N38	N	0.226443	1.491051	0.500103
C39	C	-0.310043	1.066866	0.000107
C40	C	0.189957	1.566866	0.500107
O41	O	-0.285091	1.132334	0.000125
O42	O	0.214909	1.632334	0.500125
C43	C	-0.369446	1.065819	0.000094
C44	C	0.130554	1.565819	0.500094
C45	C	-0.392364	0.988958	0.000082
C46	C	0.107636	1.488958	0.500082
C47	C	-0.378802	0.836294	0.000063
C48	C	0.121198	1.336294	0.500063
C49	C	-0.438202	0.835249	0.000058
C50	C	0.061798	1.335249	0.500058
C51	C	-0.474684	0.911058	0.000065
C52	C	0.025316	1.411058	0.500065
C53	C	-0.451765	0.987913	0.000077
C54	C	0.048235	1.487913	0.500077
C55	C	-0.405931	1.141634	0.000092
C56	C	0.094069	1.641634	0.500092
C57	C	-0.465337	1.140580	0.000078
C58	C	0.034663	1.640580	0.500078
C59	C	-0.488256	1.063719	0.000067
C60	C	0.011744	1.563719	0.500067
C61	C	-0.547646	1.062676	0.000079
C62	C	-0.047646	1.562676	0.500079
N63	N	-0.570568	0.985820	0.000059
N64	N	-0.070568	1.485820	0.500059
C65	C	-0.534087	0.910011	0.000051
C66	C	-0.034087	1.410011	0.500051
C67	C	-0.185292	1.069059	0.000134
C68	C	0.314708	1.569059	0.500134
C69	C	-0.125890	1.070107	0.000153
C70	C	0.374110	1.570107	0.500153
C71	C	-0.112330	0.917435	0.000127
C72	C	0.387670	1.417435	0.500127
C73	C	-0.171733	0.916388	0.000113
C74	C	0.328267	1.416388	0.500113
C75	C	-0.208214	0.992203	0.000113
C76	C	0.291786	1.492203	0.500113
C77	C	-0.658832	0.907821	0.000041
C78	C	-0.158832	1.407821	0.500041
C79	C	-0.718238	0.906782	0.000039
C80	C	-0.218238	1.406782	0.500039
C81	C	-0.731792	1.059453	0.000061
C82	C	-0.231792	1.559453	0.500061
C83	C	-0.672392	1.060493	0.000068
C84	C	-0.172392	1.560493	0.500068
C85	C	-0.635912	0.984670	0.000054
C86	C	-0.135912	1.484670	0.500054
O87	O	-0.584177	1.127016	0.000112
O88	O	-0.084177	1.627016	0.500112
O89	O	-0.559047	0.844554	0.000022
O90	O	-0.059047	1.344554	0.500022
C91	C	0.182060	0.981465	0.000066
C92	C	0.682060	1.481465	0.500066
C93	C	0.245281	0.982591	0.000047
C94	C	0.745281	1.482591	0.500047
C95	C	0.073781	1.141561	0.000116
C96	C	0.573781	1.641561	0.500116
C97	C	0.074905	1.234502	0.000122
C98	C	0.574905	1.734502	0.500122
C99	C	0.078939	1.572216	0.000085
C100	C	0.578939	2.072216	0.500085
C101	C	0.141210	1.524264	0.000399
C102	C	0.641210	2.024264	0.500399
C103	C	0.140086	1.427583	0.000076
C104	C	0.640086	1.927583	0.500076
C105	C	0.076938	1.404672	0.000103
C106	C	0.576938	1.904672	0.500103
C107	C	0.046221	1.446006	-0.084155
C108	C	0.546221	1.946006	0.415845
C109	C	0.047785	1.542629	-0.084236
C110	C	0.547785	2.042629	0.415764
C111	C	0.046505	1.542995	0.083574
C112	C	0.546505	2.042995	0.583574
C113	C	0.046520	1.446050	0.084697
C114	C	0.546520	1.946050	0.584697
C115	C	0.075804	1.309984	0.000111
C116	C	0.575804	1.809984	0.500111
C117	C	0.080072	1.666904	0.000071
C118	C	0.580072	2.166904	0.500071
N119	N	0.077927	0.988494	-0.229803
N120	N	0.577927	1.488494	0.270197
C121	C	0.077933	0.988463	0.589200
C122	C	0.577933	1.488463	1.089200
C123	C	0.124562	0.919059	0.551570
C124	C	0.624562	1.419059	1.051570
C125	C	0.124732	0.919216	0.448745
C126	C	0.624732	1.419216	0.948745
C127	C	0.077940	0.988432	0.410996
C128	C	0.577940	1.488432	0.910996
C129	C	0.090918	1.075689	0.448294
C130	C	0.590918	1.575689	0.948294
C131	C	0.091250	1.075299	0.551152
C132	C	0.591250	1.575299	1.051152
C133	C	0.018188	0.971391	0.551316
C134	C	0.518188	1.471391	1.051316
C135	C	0.018587	0.969383	0.448452
C136	C	0.518587	1.469383	0.948452
C137	C	0.077942	0.988419	0.310282
C138	C	0.577942	1.488419	0.810282
C139	C	0.077932	0.988482	0.689913
C140	C	0.577932	1.488482	1.189913
H141	H	-0.736894	0.844190	0.000034
H142	H	-0.236894	1.344190	0.500034
Cl143	Cl	-0.332950	0.740978	0.000052
Cl144	Cl	0.167050	1.240978	0.500052
H145	H	0.070182	1.560745	-0.147236
H146	H	0.570182	2.060745	0.352764
H147	H	-0.190389	0.853801	0.000108
H148	H	0.309611	1.353801	0.500108
H149	H	-0.082616	0.855707	0.000121
H150	H	0.417384	1.355707	0.500121
Cl151	Cl	-0.025407	1.424795	-0.088969
Cl152	Cl	0.474593	1.924795	0.411031
Cl153	Cl	0.179464	1.554192	-0.092396
Cl154	Cl	0.679464	2.054192	0.407604
Cl155	Cl	-0.024579	1.422923	0.092588
Cl156	Cl	0.475421	1.922923	0.592588
Cl157	Cl	-0.097086	1.166736	0.000181
Cl158	Cl	0.402914	1.666736	0.500181
H159	H	0.168648	0.929757	0.577397
H160	H	0.668648	1.429757	1.077397
Cl161	Cl	0.179801	1.553093	0.093279
Cl162	Cl	0.679801	2.053093	0.593279
Cl163	Cl	-0.231148	1.164379	0.000145
Cl164	Cl	0.268852	1.664379	0.500145
Cl165	Cl	0.193190	0.935935	0.410717
Cl166	Cl	0.693190	1.435935	0.910717
H167	H	0.066866	1.563366	0.147433
H168	H	0.566866	2.063366	0.647433
H169	H	-0.629137	0.846079	0.000030
H170	H	-0.129137	1.346079	0.500030
H171	H	0.164387	1.399518	-0.060439
H172	H	0.664387	1.899518	0.439561
H173	H	0.002068	1.575257	-0.088058
H174	H	0.502068	2.075257	0.411942
Cl175	Cl	0.158521	1.098641	0.588164
Cl176	Cl	0.658521	1.598641	1.088164
H177	H	0.008737	0.905198	0.424075
H178	H	0.508737	1.405198	0.924075
Cl179	Cl	-0.035385	1.049540	0.588888
Cl180	Cl	0.464615	1.549540	1.088888
Cl181	Cl	-0.467005	0.738618	0.000032
Cl182	Cl	0.032995	1.238618	0.500032
Cl183	Cl	0.112812	0.818563	0.589770
Cl184	Cl	0.612812	1.318563	1.089770
H185	H	0.058627	1.128531	0.576043
H186	H	0.558627	1.628531	1.076043
Cl187	Cl	-0.643579	1.157119	0.000114
Cl188	Cl	-0.143579	1.657119	0.500114
H189	H	0.067537	1.417425	-0.146870
H190	H	0.567537	1.917425	0.353130
H191	H	-0.761506	1.121175	0.000071
H192	H	-0.261506	1.621175	0.500071
H193	H	-0.387281	1.204222	0.000101
H194	H	0.112719	1.704222	0.500101
H195	H	0.068949	1.418563	0.147030
H196	H	0.568949	1.918563	0.647030
Cl197	Cl	0.039879	1.157302	0.410547
Cl198	Cl	0.539879	1.657302	0.910547
Cl199	Cl	-0.024375	1.592632	0.084482
Cl200	Cl	0.475625	2.092632	0.584482
Cl201	Cl	-0.037497	1.042426	0.408801
Cl202	Cl	0.462503	1.542426	0.908801
H203	H	-0.495038	1.202319	0.000073
H204	H	0.004962	1.702319	0.500073
H205	H	0.116999	0.854341	0.423528
H206	H	0.616999	1.354341	0.923528
Cl207	Cl	0.157423	1.099613	0.408495
Cl208	Cl	0.657423	1.599613	0.908495
Cl209	Cl	0.177374	1.383385	0.093318
Cl210	Cl	0.677374	1.883385	0.593318
H211	H	0.005708	0.909172	0.577303
H212	H	0.505708	1.409172	1.077303
