data_functionalizedCrystal
_audit_creation_method	'MofGen! by Chris Wilmer'
_symmetry_space_group_name_H-M	'P1'
_symmetry_Int_Tables_number	1
_symmetry_cell_setting	triclinic
loop_
_symmetry_equiv_pos_as_xyz
  x,y,z
_cell_length_a	18.101398
_cell_length_b	18.050590
_cell_length_c	18.101390
_cell_angle_alpha	89.966356
_cell_angle_beta	89.989901
_cell_angle_gamma	90.014109
loop_
_atom_site_label
_atom_site_type_symbol
_atom_site_fract_x
_atom_site_fract_y
_atom_site_fract_z
Zn1	Zn	1.132188	-0.295719	-0.418547
Zn2	Zn	1.132110	-0.419925	-0.294704
Zn3	Zn	1.008346	-0.295744	-0.294740
Zn4	Zn	1.008325	-0.419862	-0.418524
O5	O	1.070242	-0.357812	-0.356628
O6	O	1.235811	-0.312211	-0.402113
O7	O	1.115669	-0.403488	-0.191076
O8	O	1.024816	-0.191816	-0.311187
O9	O	1.235754	-0.403465	-0.311126
O10	O	1.115802	-0.191798	-0.402148
O11	O	1.024740	-0.312253	-0.191102
O12	O	0.904711	-0.312192	-0.311165
O13	O	1.024779	-0.403358	-0.522160
O14	O	0.904695	-0.403382	-0.402109
O15	O	1.115781	-0.312151	-0.522177
O16	O	1.115648	-0.523841	-0.311104
O17	O	1.024704	-0.523795	-0.402074
C18	C	0.877832	-0.357783	-0.356639
C19	C	0.795518	-0.357789	-0.356661
C20	C	0.496427	-0.357832	-0.356630
C21	C	0.527767	-0.415484	-0.413567
C22	C	0.613385	-0.415303	-0.413801
C23	C	0.644809	-0.357811	-0.356645
C24	C	0.613738	-0.279588	-0.377974
C25	C	0.528093	-0.279934	-0.378379
C26	C	0.527978	-0.377715	-0.278227
C27	C	0.613628	-0.379431	-0.278646
C28	C	0.728669	-0.357795	-0.356653
C29	C	0.412567	-0.357844	-0.356624
C30	C	1.070185	-0.550765	-0.356599
C31	C	1.070229	-0.633310	-0.356611
C32	C	1.119787	-0.832759	-0.307211
C33	C	1.137877	-0.882087	-0.374798
C34	C	1.070271	-0.784441	-0.356641
C35	C	1.052256	-0.882195	-0.289084
C36	C	1.070313	-0.930426	-0.356663
C37	C	1.088395	-0.832681	-0.424263
C38	C	1.002743	-0.832785	-0.338504
C39	C	1.020807	-0.882090	-0.406138
C40	C	1.070249	-0.700342	-0.356627
C41	C	1.070335	-1.014522	-0.356685
C42	C	1.263404	-0.357842	-0.356619
C43	C	1.345718	-0.357855	-0.356614
C44	C	1.070286	-0.357745	-0.549790
C45	C	1.070305	-0.357716	-0.632105
C46	C	1.070320	-0.164107	-0.356674
C47	C	1.070353	-0.081561	-0.356694
C48	C	1.070345	-0.357669	-0.931196
C49	C	1.127790	-0.300486	-0.899881
C50	C	1.127610	-0.300274	-0.814263
C51	C	1.070326	-0.357692	-0.782813
C52	C	0.992305	-0.336423	-0.813900
C53	C	0.992648	-0.335995	-0.899545
C54	C	1.090235	-0.436269	-0.899604
C55	C	1.091947	-0.435868	-0.813953
C56	C	1.070310	-0.357707	-0.698954
C57	C	1.070356	-0.357653	-1.015055
C58	C	1.070241	-0.357826	-0.164218
C59	C	1.070366	-0.357646	-0.081904
H60	H	0.634393	-0.473310	-0.400433
Br61	Br	0.963692	-0.241721	-0.778183
H62	H	0.507361	-0.235440	-0.338810
Br63	Br	1.187650	-0.462599	-0.780096
Br64	Br	1.026832	-0.918447	-0.193847
H65	H	1.185833	-0.313642	-0.920473
Br66	Br	1.224040	-0.322464	-0.779227
H67	H	0.506377	-0.433780	-0.258844
H68	H	0.633945	-0.436992	-0.262560
Br69	Br	1.106128	-0.203975	-0.935783
Br70	Br	0.649275	-0.314524	-0.204138
Br71	Br	1.113941	-0.796592	-0.519528
H72	H	1.114443	-0.242046	-0.793793
H73	H	0.948342	-0.376790	-0.793528
H74	H	0.508128	-0.263071	-0.435695
Br75	Br	0.647662	-0.206048	-0.311015
Br76	Br	1.027280	-0.510701	-0.778275
H77	H	0.978951	-0.903614	-0.447997
H78	H	1.048399	-0.478877	-0.919860
H79	H	1.195002	-0.903745	-0.390152
H80	H	1.161676	-0.811098	-0.265452
Br81	Br	0.964508	-0.240244	-0.932875
Br82	Br	0.493424	-0.512485	-0.391543
H83	H	0.506254	-0.402495	-0.471322
H84	H	0.507710	-0.335722	-0.235804
H85	H	0.633885	-0.402147	-0.471892
Br86	Br	0.918876	-0.402379	-0.934075
Br87	Br	0.649505	-0.250970	-0.472466
H88	H	0.945635	-0.811111	-0.323129
H89	H	1.146131	-0.455634	-0.921239
