data_functionalizedCrystal
_audit_creation_method	'MofGen! by Chris Wilmer'
_symmetry_space_group_name_H-M	'P1'
_symmetry_Int_Tables_number	1
_symmetry_cell_setting	triclinic
loop_
_symmetry_equiv_pos_as_xyz
  x,y,z
_cell_length_a	21.395362
_cell_length_b	16.120484
_cell_length_c	21.395355
_cell_angle_alpha	87.119279
_cell_angle_beta	90.043940
_cell_angle_gamma	92.942400
loop_
_atom_site_label
_atom_site_type_symbol
_atom_site_fract_x
_atom_site_fract_y
_atom_site_fract_z
Zn1	Zn	0.945244	-0.331659	0.367215
Zn2	Zn	1.445244	0.168341	0.867215
Zn3	Zn	0.939845	-0.471058	0.267746
Zn4	Zn	1.439845	0.028942	0.767746
Zn5	Zn	0.840458	-0.331698	0.262418
Zn6	Zn	1.340458	0.168302	0.762418
Zn7	Zn	0.835126	-0.471075	0.372451
Zn8	Zn	1.335126	0.028925	0.872451
O9	O	0.890168	-0.401372	0.317458
O10	O	1.390168	0.098628	0.817458
O11	O	1.032207	-0.350127	0.354059
O12	O	1.532207	0.149873	0.854059
O13	O	0.926633	-0.452580	0.179362
O14	O	1.426633	0.047420	0.679362
O15	O	0.858849	-0.215024	0.271898
O16	O	1.358849	0.284976	0.771898
O17	O	1.028240	-0.452543	0.280979
O18	O	1.528240	0.047457	0.780979
O19	O	0.935836	-0.214995	0.348892
O20	O	1.435836	0.285005	0.848892
O21	O	0.853614	-0.350193	0.175447
O22	O	1.353614	0.149807	0.675447
O23	O	0.752072	-0.350210	0.276976
O24	O	1.252072	0.149790	0.776976
O25	O	0.849761	-0.452572	0.459434
O26	O	1.349761	0.047428	0.959434
O27	O	0.748154	-0.452609	0.357817
O28	O	1.248154	0.047391	0.857817
O29	O	0.930665	-0.350144	0.455587
O30	O	1.430665	0.149856	0.955587
O31	O	0.921462	-0.587728	0.286057
O32	O	1.421462	-0.087728	0.786057
O33	O	0.844526	-0.587741	0.362983
O34	O	1.344526	-0.087741	0.862983
C35	C	0.727379	-0.401416	0.317387
C36	C	1.227379	0.098584	0.817387
C37	C	0.657736	-0.401455	0.317372
C38	C	1.157736	0.098545	0.817372
C39	C	0.622997	-0.454845	0.359409
C40	C	1.122997	0.045155	0.859409
C41	C	0.557562	-0.454825	0.359436
C42	C	1.057562	0.045175	0.859436
C43	C	0.526869	-0.401423	0.317415
C44	C	1.026869	0.098577	0.817415
C45	C	0.561617	-0.348022	0.275375
C46	C	1.061617	0.151978	0.775375
C47	C	0.627050	-0.348039	0.275354
C48	C	1.127050	0.151961	0.775354
C49	C	0.423400	-0.394707	0.260754
C50	C	0.923400	0.105293	0.760754
C51	C	0.357967	-0.394696	0.260775
C52	C	0.857967	0.105304	0.760775
C53	C	0.325050	-0.401369	0.317482
C54	C	0.825050	0.098631	0.817482
C55	C	0.357574	-0.408069	0.374171
C56	C	0.857574	0.091931	0.874171
C57	C	0.423007	-0.408085	0.374149
C58	C	0.923007	0.091915	0.874149
C59	C	0.455918	-0.401399	0.317434
C60	C	0.955918	0.098601	0.817434
C61	C	0.219359	-0.454740	0.359552
C62	C	0.719359	0.045260	0.859552
C63	C	0.153924	-0.454713	0.359580
C64	C	0.653924	0.045287	0.859580
C65	C	0.157979	-0.347915	0.275514
C66	C	0.657979	0.152085	0.775514
C67	C	0.223414	-0.347937	0.275492
C68	C	0.723414	0.152063	0.775492
C69	C	0.254100	-0.401354	0.317510
C70	C	0.754100	0.098646	0.817510
C71	C	0.881846	-0.617986	0.325680
C72	C	1.381846	-0.117986	0.825680
C73	C	0.878344	-0.710654	0.329218
C74	C	1.378344	-0.210654	0.829218
C75	C	0.871952	-0.880320	0.335692
C76	C	1.371952	-0.380320	0.835692
C77	C	0.908497	-0.921584	0.299234
C78	C	1.408497	-0.421584	0.799234
C79	C	0.904940	-1.015992	0.302836
C80	C	1.404940	-0.515992	0.802836
C81	C	0.875507	-0.785903	0.332091
C82	C	1.375507	-0.285903	0.832091
C83	C	1.053593	-0.401328	0.317529
C84	C	1.553593	0.098672	0.817529
C85	C	1.123235	-0.401310	0.317560
C86	C	1.623235	0.098690	0.817560
C87	C	0.890221	-0.401355	0.480880
C88	C	1.390221	0.098645	0.980880
C89	C	0.890243	-0.401348	0.550521
C90	C	1.390243	0.098652	1.050521
C91	C	0.898540	-0.183913	0.309217
C92	C	1.398540	0.316087	0.809217
C93	C	0.902107	-0.091245	0.305705
C94	C	1.402107	0.408755	0.805705
C95	C	0.890154	-0.401329	0.154668
C96	C	1.390154	0.098671	0.654668
C97	C	0.890262	-0.401101	0.085019
C98	C	1.390262	0.098899	0.585019
C99	C	0.932368	-0.348011	0.581232
C100	C	1.432368	0.151989	1.081232
C101	C	0.932369	-0.347976	0.646666
C102	C	1.432369	0.152024	1.146666
C103	C	0.890250	-0.401291	0.681388
C104	C	1.390250	0.098709	1.181388
C105	C	0.848117	-0.454632	0.650669
C106	C	1.348117	0.045368	1.150669
C107	C	0.848114	-0.454660	0.585236
C108	C	1.348114	0.045340	1.085236
C109	C	0.882419	-0.476362	0.787910
C110	C	1.382419	0.023638	1.287910
C111	C	0.882427	-0.476335	0.853342
C112	C	1.382427	0.023665	1.353342
C113	C	0.890258	-0.401203	0.883205
C114	C	1.390258	0.098797	1.383205
C115	C	0.898094	-0.326096	0.847628
C116	C	1.398094	0.173904	1.347628
C117	C	0.898090	-0.326124	0.782195
C118	C	1.398090	0.173876	1.282195
C119	C	0.890249	-0.401266	0.752339
C120	C	1.390249	0.098734	1.252339
C121	C	0.932385	-0.347823	0.984867
C122	C	1.432385	0.152177	1.484867
C123	C	0.932382	-0.347786	1.050302
C124	C	1.432382	0.152214	1.550302
C125	C	0.848133	-0.454449	1.054304
C126	C	1.348133	0.045551	1.554304
C127	C	0.848134	-0.454479	0.988870
C128	C	1.348134	0.045521	1.488870
C129	C	0.890263	-0.401167	0.954155
C130	C	1.390263	0.098833	1.454155
H131	H	0.655335	-0.304559	0.241122
H132	H	1.155335	0.195441	0.741122
H133	H	0.904469	-0.264969	0.753231
H134	H	1.404469	0.235031	1.253231
H135	H	0.837996	-0.915892	0.369606
H136	H	1.337996	-0.415892	0.869606
N137	N	0.116453	-0.512307	0.404919
N138	N	0.616453	-0.012307	0.904919
H139	H	0.070345	-0.504191	0.398560
H140	H	0.570345	-0.004191	0.898560
H141	H	0.128442	-0.499430	0.449191
H142	H	0.628442	0.000570	0.949191
N143	N	0.977804	-0.290512	0.543790
N144	N	1.477804	0.209488	1.043790
H145	H	1.004490	-0.256717	0.573179
H146	H	1.504490	0.243283	1.073179
H147	H	0.953785	-0.251945	0.515155
H148	H	1.453785	0.248055	1.015155
N149	N	0.977814	-0.290240	1.083420
N150	N	1.477814	0.209760	1.583420
H151	H	1.022083	-0.303182	1.072562
H152	H	1.522083	0.196818	1.572562
H153	H	0.971371	-0.298324	1.130130
H154	H	1.471371	0.201676	1.630130
H155	H	0.450195	-0.389270	0.214573
H156	H	0.950195	0.110730	0.714573
H157	H	0.132990	-0.304430	0.241303
H158	H	0.632990	0.195570	0.741303
N159	N	0.252462	-0.512343	0.404873
N160	N	0.752462	-0.012343	0.904873
H161	H	0.278081	-0.550938	0.380816
H162	H	0.778081	-0.050938	0.880816
H163	H	0.220486	-0.546103	0.431500
H164	H	0.720486	-0.046103	0.931500
N165	N	0.873978	-0.557337	0.891713
N166	N	1.373978	-0.057337	1.391713
H167	H	0.908766	-0.594648	0.881770
H168	H	1.408766	-0.094648	1.381770
H169	H	0.832314	-0.585648	0.881362
H170	H	1.332314	-0.085648	1.381362
N171	N	0.656086	-0.512450	0.404737
N172	N	1.156086	-0.012450	0.904737
H173	H	0.684577	-0.478631	0.432522
H174	H	1.184577	0.021369	0.932522
H175	H	0.681676	-0.551035	0.380643
H176	H	1.181676	-0.051035	0.880643
H177	H	0.942454	-0.886009	0.265316
H178	H	1.442454	-0.386009	0.765316
N179	N	0.977805	-0.290446	0.679801
N180	N	1.477805	0.209554	1.179801
H181	H	1.004492	-0.256677	0.647880
H182	H	1.504492	0.243323	1.147880
H183	H	1.005491	-0.324371	0.708262
H184	H	1.505491	0.175629	1.208262
N185	N	0.906546	-0.245053	0.879826
N186	N	1.406546	0.254947	1.379826
H187	H	0.905358	-0.256428	0.926676
H188	H	1.405358	0.243572	1.426676
H189	H	0.871750	-0.207792	0.866941
H190	H	1.371750	0.292208	1.366941
H191	H	0.966686	-0.304409	0.956601
H192	H	1.466686	0.195591	1.456601
H193	H	0.330774	-0.413500	0.420348
H194	H	0.830774	0.086500	0.920348
H195	H	0.813834	-0.497852	1.082573
H196	H	1.313834	0.002148	1.582573
H197	H	0.875875	-0.537528	0.763601
H198	H	1.375875	-0.037528	1.263601
N199	N	0.322895	-0.387473	0.199634
N200	N	0.822895	0.112527	0.699634
H201	H	0.297737	-0.336095	0.198603
H202	H	0.797737	0.163905	0.698603
H203	H	0.293808	-0.438284	0.195665
H204	H	0.793808	0.061716	0.695665
H205	H	0.251699	-0.304465	0.241258
H206	H	0.751699	0.195535	0.741258
N207	N	0.802683	-0.512201	0.552110
N208	N	1.302683	-0.012201	1.052110
H209	H	0.809075	-0.504131	0.505391
H210	H	1.309075	-0.004131	1.005391
H211	H	0.758434	-0.499232	0.563017
H212	H	1.258434	0.000768	1.063017
H213	H	0.813835	-0.497917	0.963865
H214	H	1.313835	0.002083	1.463865
N215	N	0.802679	-0.512124	0.688113
N216	N	1.302679	-0.012124	1.188113
H217	H	0.809072	-0.504011	0.734225
H218	H	1.309072	-0.004011	1.234225
H219	H	0.810129	-0.571674	0.678953
H220	H	1.310129	-0.071674	1.178953
N221	N	0.528514	-0.290435	0.230046
N222	N	1.028514	0.209565	0.730046
H223	H	0.502884	-0.251844	0.254095
H224	H	1.002884	0.248156	0.754095
H225	H	0.500061	-0.324326	0.202276
H226	H	1.000061	0.175674	0.702276
N227	N	0.520078	-0.512412	0.404773
N228	N	1.020078	-0.012412	0.904773
H229	H	0.532010	-0.499563	0.449066
H230	H	1.032010	0.000437	0.949066
H231	H	0.529158	-0.571941	0.397167
H232	H	1.029158	-0.071941	0.897167
N233	N	0.458087	-0.415309	0.435286
N234	N	0.958087	0.084691	0.935286
H235	H	0.427310	-0.419535	0.471216
H236	H	0.927310	0.080465	0.971216
H237	H	0.487212	-0.364528	0.439227
H238	H	0.987212	0.135472	0.939227
