data_functionalizedCrystal
_audit_creation_method	'MofGen! by Chris Wilmer'
_symmetry_space_group_name_H-M	'P1'
_symmetry_Int_Tables_number	1
_symmetry_cell_setting	triclinic
loop_
_symmetry_equiv_pos_as_xyz
  x,y,z
_cell_length_a	6.817900
_cell_length_b	11.102288
_cell_length_c	16.305550
_cell_angle_alpha	93.871970
_cell_angle_beta	103.455250
_cell_angle_gamma	108.605689
loop_
_atom_site_label
_atom_site_type_symbol
_atom_site_fract_x
_atom_site_fract_y
_atom_site_fract_z
V1	V	-4.052585	-0.176912	-0.263031
O2	O	-4.012740	0.007398	-0.258024
O3	O	-4.029765	-0.349725	-0.261233
O4	O	-4.003658	-0.174675	-0.377749
O5	O	-4.039028	-0.168864	-0.140702
V6	V	-4.532967	-0.154809	-0.248400
O7	O	-4.320734	-0.225396	-0.295127
O8	O	-4.715015	-0.106325	-0.216304
O9	O	-4.332580	0.018004	-0.250199
O10	O	-4.690209	-0.339118	-0.253407
O11	O	-4.663921	-0.162856	-0.370729
O12	O	-4.358687	-0.157046	-0.133683
C13	C	-3.881006	-0.391838	-0.257083
C14	C	-3.943632	-0.533118	-0.256377
C15	C	-4.156118	-0.605982	-0.260254
C16	C	-4.214953	-0.738730	-0.259597
C17	C	-3.848792	-0.725738	-0.251183
C18	C	-3.789964	-0.592993	-0.251846
C19	C	-3.847703	-0.168542	-0.405710
C20	C	-3.889152	-0.167857	-0.499492
C21	C	-4.039844	-0.165201	-0.840237
C22	C	-3.802622	-0.157315	-0.799308
C23	C	-3.759612	-0.158554	-0.701814
C24	C	-3.965082	-0.166518	-0.671189
C25	C	-4.150803	-0.292033	-0.721816
C26	C	-4.192561	-0.291323	-0.819365
C27	C	-4.077235	-0.048574	-0.794394
C28	C	-4.029158	-0.047581	-0.696551
C29	C	-3.922844	-0.167267	-0.575651
C30	C	-4.082092	-0.164460	-0.935776
C31	C	-4.144682	0.060110	-0.254346
C32	C	-4.061295	0.201389	-0.255057
C33	C	-4.177985	-0.163182	-0.105717
C34	C	-4.115773	-0.163861	-0.011935
H35	H	-4.387975	-0.798051	-0.262756
C36	C	-3.846966	0.077839	-0.650116
H37	H	-3.732326	0.057817	-0.615411
H38	H	-3.796668	0.127744	-0.690936
H39	H	-3.899503	0.125323	-0.615335
C40	C	-3.556215	-0.512836	-0.247577
H41	H	-3.473114	-0.567503	-0.244771
H42	H	-3.553075	-0.472592	-0.297084
H43	H	-3.498242	-0.448972	-0.198230
H44	H	-3.723689	-0.774504	-0.247491
H45	H	-4.368036	-0.302331	-0.847357
H46	H	-4.169561	-0.379613	-0.849747
C47	C	-3.570555	-0.036654	-0.654496
H48	H	-3.519399	0.014070	-0.694823
H49	H	-3.617483	0.011669	-0.617854
H50	H	-3.458111	-0.060503	-0.621631
H51	H	-3.682983	-0.066643	-0.811672
H52	H	-3.770006	-0.241106	-0.830821
C53	C	-4.227791	-0.045450	-0.667701
H54	H	-4.274464	-0.117397	-0.639692
H55	H	-4.191607	0.031619	-0.629525
H56	H	-4.339876	-0.049289	-0.716094
C57	C	-3.686935	-0.273056	-0.679797
H58	H	-3.683632	-0.319002	-0.730473
H59	H	-3.547479	-0.242252	-0.641172
H60	H	-3.784897	-0.328576	-0.654175
H61	H	-4.281247	-0.557235	-0.263943
C62	C	-4.359787	-0.306053	-0.696265
H63	H	-4.335570	-0.235317	-0.654392
H64	H	-4.469030	-0.307652	-0.745080
H65	H	-4.403669	-0.383838	-0.673542
C66	C	-4.093687	-0.411340	-0.699113
H67	H	-3.956809	-0.384922	-0.658819
H68	H	-4.198931	-0.464221	-0.675278
H69	H	-4.090036	-0.458470	-0.749241
C70	C	-3.934623	0.079902	-0.812443
H71	H	-3.850934	0.063613	-0.848110
H72	H	-4.022762	0.124359	-0.840196
H73	H	-3.842141	0.130985	-0.760153
H74	H	-4.249994	-0.053235	-0.821209
