data_functionalizedCrystal
_audit_creation_method	'MofGen! by Chris Wilmer'
_symmetry_space_group_name_H-M	'P1'
_symmetry_Int_Tables_number	1
_symmetry_cell_setting	triclinic
loop_
_symmetry_equiv_pos_as_xyz
  x,y,z
_cell_length_a	15.995292
_cell_length_b	15.995350
_cell_length_c	7.540329
_cell_angle_alpha	90.000957
_cell_angle_beta	90.002779
_cell_angle_gamma	83.480495
loop_
_atom_site_label
_atom_site_type_symbol
_atom_site_fract_x
_atom_site_fract_y
_atom_site_fract_z
O1	O	1.111013	0.107693	0.147522
O2	O	0.867231	0.121072	0.147513
O3	O	0.995786	-0.007507	0.147516
O4	O	0.982458	0.236271	0.147519
O5	O	0.995781	-0.007508	-0.147449
O6	O	0.867226	0.121071	-0.147452
O7	O	1.111008	0.107692	-0.147444
Cu8	Cu	0.989117	0.114381	-0.174380
Cu9	Cu	0.989122	0.114383	0.174450
O10	O	0.982453	0.236271	-0.147446
C11	C	0.836033	0.120527	0.000030
C12	C	0.743080	0.118894	0.000027
C13	C	0.405341	0.112893	0.000047
C14	C	0.428654	0.205697	0.000707
C15	C	0.525329	0.207461	0.000034
C16	C	0.572897	0.115871	0.000038
C17	C	0.543793	0.069473	-0.168396
C18	C	0.447002	0.068355	-0.168529
C19	C	0.447152	0.066461	0.166901
C20	C	0.543645	0.069900	0.169120
C21	C	0.667593	0.117549	0.000027
C22	C	0.310646	0.111212	0.000046
C23	C	0.995232	-0.038702	0.000037
C24	C	0.993580	-0.131652	0.000047
C25	C	0.987648	-0.469398	0.000041
C26	C	0.896094	-0.421945	0.000699
C27	C	0.897746	-0.325255	0.000034
C28	C	0.990591	-0.301838	0.000045
C29	C	1.035746	-0.342926	-0.168390
C30	C	1.033446	-0.439561	-0.168531
C31	C	1.035342	-0.439918	0.166899
C32	C	1.035321	-0.342973	0.169125
C33	C	0.992259	-0.207141	0.000041
C34	C	0.985983	-0.564095	0.000032
C35	C	1.142206	0.108237	0.000044
C36	C	1.235159	0.109870	0.000058
C37	C	0.983006	0.267466	0.000037
C38	C	0.984658	0.360416	0.000039
N39	N	0.989119	0.114380	-0.419729
N40	N	0.989126	0.114377	0.419799
H41	H	0.420184	0.100488	-0.294440
F42	F	0.851351	-0.288093	0.157851
F43	F	0.996214	-0.466747	0.333767
H44	H	1.100664	-0.471823	-0.176166
F45	F	0.550203	0.254954	0.157851
H46	H	0.562216	0.103683	0.293726
H47	H	0.543731	0.244017	-0.120911
F48	F	0.392064	0.252457	0.158592
F49	F	0.848350	-0.447827	-0.155872
H50	H	0.575661	0.002074	-0.174656
F51	F	0.390721	0.252196	-0.156285
F52	F	0.851032	-0.288820	-0.158051
F53	F	0.586734	-0.017483	0.182419
F54	F	0.990400	-0.463476	-0.333106
H55	H	0.432452	0.000311	-0.176178
H56	H	0.563850	0.101693	-0.293747
F57	F	0.428867	-0.022826	0.168390
F58	F	0.410145	0.104390	0.333769
F59	F	0.848263	-0.446154	0.158579
H60	H	1.103957	-0.328814	-0.174647
H61	H	1.102845	-0.471693	0.168039
F62	F	0.994749	-0.305824	-0.332236
F63	F	0.992501	-0.306959	0.332016
H64	H	1.103027	-0.327625	0.179303
