data_functionalizedCrystal
_audit_creation_method	'MofGen! by Chris Wilmer'
_symmetry_space_group_name_H-M	'P1'
_symmetry_Int_Tables_number	1
_symmetry_cell_setting	triclinic
loop_
_symmetry_equiv_pos_as_xyz
  x,y,z
_cell_length_a	21.295417
_cell_length_b	16.625548
_cell_length_c	16.625539
_cell_angle_alpha	90.020568
_cell_angle_beta	90.033373
_cell_angle_gamma	90.031575
loop_
_atom_site_label
_atom_site_type_symbol
_atom_site_fract_x
_atom_site_fract_y
_atom_site_fract_z
Zn1	Zn	-0.250590	1.232635	0.455881
Zn2	Zn	0.249410	1.732635	0.955881
Zn3	Zn	-0.355864	1.232520	0.321036
Zn4	Zn	0.144136	1.732520	0.821036
Zn5	Zn	-0.250614	1.097797	0.321061
Zn6	Zn	0.249386	1.597797	0.821061
Zn7	Zn	-0.355827	1.097749	0.455826
Zn8	Zn	0.144173	1.597749	0.955826
O9	O	-0.303224	1.165175	0.388451
O10	O	0.196776	1.665175	0.888451
O11	O	-0.264560	1.345452	0.438006
O12	O	0.235440	1.845452	0.938006
O13	O	-0.341927	1.214620	0.208207
O14	O	0.158073	1.714620	0.708207
O15	O	-0.162522	1.115753	0.338979
O16	O	0.337478	1.615753	0.838979
O17	O	-0.341904	1.345367	0.338936
O18	O	0.158096	1.845367	0.838936
O19	O	-0.162504	1.214818	0.438030
O20	O	0.337496	1.714818	0.938030
O21	O	-0.264601	1.115640	0.208226
O22	O	0.235399	1.615640	0.708226
O23	O	-0.264566	0.984958	0.338926
O24	O	0.235434	1.484958	0.838926
O25	O	-0.341842	1.115670	0.568666
O26	O	0.158158	1.615670	1.068666
O27	O	-0.341866	0.984923	0.437937
O28	O	0.158134	1.484923	0.937937
O29	O	-0.264525	1.214771	0.568706
O30	O	0.235475	1.714771	1.068706
O31	O	-0.443948	1.214573	0.338883
O32	O	0.056052	1.714573	0.838883
O33	O	-0.443922	1.115558	0.437912
O34	O	0.056078	1.615558	0.937912
C35	C	-0.303215	0.955684	0.388429
C36	C	0.196785	1.455684	0.888429
C37	C	-0.303226	0.866063	0.388438
C38	C	0.196774	1.366063	0.888438
C39	C	-0.303230	0.537888	0.388473
C40	C	0.196770	1.037888	0.888473
C41	C	-0.303227	0.629196	0.388460
C42	C	0.196773	1.129196	0.888460
C43	C	-0.303229	0.701973	0.388455
C44	C	0.196771	1.201973	0.888455
C45	C	-0.303225	0.793287	0.388444
C46	C	0.196775	1.293287	0.888444
C47	C	-0.466775	1.165070	0.388407
C48	C	0.033225	1.665070	0.888407
C49	C	-0.536744	1.165098	0.388414
C50	C	-0.036744	1.665098	0.888414
C51	C	-0.569603	1.216701	0.336903
C52	C	-0.069603	1.716701	0.836903
C53	C	-0.635346	1.216739	0.336921
C54	C	-0.135346	1.716739	0.836921
C55	C	-0.668226	1.165159	0.388442
C56	C	-0.168226	1.665159	0.888442
C57	C	-0.635359	1.113552	0.439964
C58	C	-0.135359	1.613552	0.939964
C59	C	-0.569617	1.113522	0.439950
C60	C	-0.069617	1.613522	0.939950
N61	N	-0.771493	1.094624	0.394581
N62	N	-0.271493	1.594624	0.894581
N63	N	-0.833944	1.094656	0.394590
N64	N	-0.333944	1.594656	0.894590
C65	C	-0.866301	1.165250	0.388488
C66	C	-0.366301	1.665250	0.888488
N67	N	-0.833847	1.235813	0.382362
N68	N	-0.333847	1.735813	0.882362
N69	N	-0.771389	1.235780	0.382350
N70	N	-0.271389	1.735780	0.882350
C71	C	-0.739511	1.165187	0.388463
C72	C	-0.239511	1.665187	0.888463
C73	C	-0.970446	1.216898	0.336994
C74	C	-0.470446	1.716898	0.836994
C75	C	-1.036189	1.216937	0.337017
C76	C	-0.536189	1.716937	0.837017
C77	C	-1.036201	1.113743	0.440056
C78	C	-0.536201	1.613743	0.940056
C79	C	-0.970459	1.113711	0.440037
C80	C	-0.470459	1.613711	0.940037
C81	C	-0.937585	1.165288	0.388501
C82	C	-0.437585	1.665288	0.888501
C83	C	-0.139033	1.165303	0.388514
C84	C	0.360967	1.665303	0.888514
C85	C	-0.069065	1.165358	0.388540
C86	C	0.430935	1.665358	0.888540
C87	C	-0.303177	1.165228	0.598760
C88	C	0.196823	1.665228	1.098760
C89	C	-0.303157	1.165250	0.688381
C90	C	0.196843	1.665250	1.188381
C91	C	-0.303233	1.375484	0.388474
C92	C	0.196767	1.875484	0.888474
C93	C	-0.303237	1.465105	0.388484
C94	C	0.196763	1.965105	0.888484
C95	C	-0.303225	1.165169	0.178960
C96	C	0.196775	1.665169	0.678960
C97	C	-0.303068	1.165303	0.089340
C98	C	0.196932	1.665303	0.589340
C99	C	-0.303086	1.165287	1.016557
C100	C	0.196914	1.665287	1.516557
C101	C	-0.303108	1.165275	0.925249
C102	C	0.196892	1.665275	1.425249
C103	C	-0.303122	1.165269	0.852472
C104	C	0.196878	1.665269	1.352472
C105	C	-0.303143	1.165256	0.761158
C106	C	0.196857	1.665256	1.261158
H107	H	-0.542839	1.258700	0.294941
H108	H	-0.042839	1.758700	0.794941
O109	O	-0.667337	1.266744	0.286820
O110	O	-0.167337	1.766744	0.786820
C111	C	-0.705403	1.220859	0.234703
C112	C	-0.205403	1.720859	0.734703
H113	H	-0.715281	1.159754	0.263109
H114	H	-0.215281	1.659754	0.763109
H115	H	-0.751615	1.253721	0.223908
H116	H	-0.251615	1.753721	0.723908
H117	H	-0.680096	1.211998	0.174948
H118	H	-0.180096	1.711998	0.674948
H119	H	-0.662134	1.071557	0.481915
H120	H	-0.162134	1.571557	0.981915
H121	H	-1.062972	1.071750	0.482010
H122	H	-0.562972	1.571750	0.982010
O123	O	-0.537763	1.063429	0.490100
O124	O	-0.037763	1.563429	0.990100
C125	C	-0.553752	1.081027	0.570484
C126	C	-0.053752	1.581027	1.070484
H127	H	-0.601461	1.112045	0.572197
H128	H	-0.101461	1.612045	1.072197
H129	H	-0.556020	1.022817	0.606587
H130	H	-0.056020	1.522817	1.106587
H131	H	-0.516704	1.122449	0.597668
H132	H	-0.016704	1.622449	1.097668
O133	O	-1.068014	1.267212	0.287018
O134	O	-0.568014	1.767212	0.787018
C135	C	-1.051850	1.347536	0.304755
C136	C	-0.551850	1.847536	0.804755
H137	H	-1.004106	1.349111	0.335765
H138	H	-0.504106	1.849111	0.835765
H139	H	-1.049571	1.383738	0.246608
H140	H	-0.549571	1.883738	0.746608
H141	H	-1.088802	1.374712	0.346233
H142	H	-0.588802	1.874712	0.846233
O143	O	-0.938575	1.266961	0.286828
O144	O	-0.438575	1.766961	0.786828
C145	C	-0.954690	1.249380	0.206453
C146	C	-0.454690	1.749380	0.706453
H147	H	-1.002448	1.218413	0.204765
H148	H	-0.502448	1.718413	0.704765
H149	H	-0.956916	1.307593	0.170352
H150	H	-0.456916	1.807593	0.670352
H151	H	-0.917739	1.207919	0.179248
H152	H	-0.417739	1.707919	0.679248
H153	H	-0.943703	1.071688	0.481979
H154	H	-0.443703	1.571688	0.981979
