data_functionalizedCrystal
_audit_creation_method	'MofGen! by Chris Wilmer'
_symmetry_space_group_name_H-M	'P1'
_symmetry_Int_Tables_number	1
_symmetry_cell_setting	triclinic
loop_
_symmetry_equiv_pos_as_xyz
  x,y,z
_cell_length_a	16.120530
_cell_length_b	12.645330
_cell_length_c	16.120297
_cell_angle_alpha	92.874885
_cell_angle_beta	90.128140
_cell_angle_gamma	87.108294
loop_
_atom_site_label
_atom_site_type_symbol
_atom_site_fract_x
_atom_site_fract_y
_atom_site_fract_z
Zn1	Zn	1.247519	-0.537082	-0.534581
Zn2	Zn	1.580853	-0.203749	-0.201248
Zn3	Zn	1.914186	0.129584	0.132085
Zn4	Zn	1.254495	-0.705845	-0.395529
Zn5	Zn	1.587828	-0.372511	-0.062196
Zn6	Zn	1.921162	-0.039178	0.271138
Zn7	Zn	1.115507	-0.519169	-0.388499
Zn8	Zn	1.448840	-0.185835	-0.055166
Zn9	Zn	1.782174	0.147498	0.278168
Zn10	Zn	1.108451	-0.704868	-0.527498
Zn11	Zn	1.441785	-0.371535	-0.194165
Zn12	Zn	1.775118	-0.038202	0.139168
O13	O	1.181493	-0.616741	-0.461527
O14	O	1.514827	-0.283408	-0.128194
O15	O	1.848160	0.049926	0.205140
O16	O	1.364812	-0.567375	-0.522042
O17	O	1.698146	-0.234041	-0.188709
O18	O	2.031479	0.099292	0.144624
O19	O	1.241930	-0.673993	-0.278231
O20	O	1.575264	-0.340660	0.055102
O21	O	1.908597	-0.007327	0.388436
O22	O	1.133052	-0.373201	-0.407899
O23	O	1.466386	-0.039868	-0.074566
O24	O	1.799719	0.293465	0.258767
O25	O	1.369937	-0.691364	-0.419881
O26	O	1.703271	-0.358030	-0.086548
O27	O	2.036604	-0.024697	0.246785
O28	O	1.230041	-0.386362	-0.515225
O29	O	1.563375	-0.053029	-0.181892
O30	O	1.896708	0.280304	0.151441
O31	O	1.139816	-0.536843	-0.273066
O32	O	1.473150	-0.203510	0.060267
O33	O	1.806483	0.129824	0.393601
O34	O	0.998204	-0.535896	-0.401031
O35	O	1.331537	-0.202563	-0.067698
O36	O	1.664870	0.130770	0.265636
O37	O	1.121027	-0.689700	-0.644804
O38	O	1.454360	-0.356366	-0.311470
O39	O	1.787694	-0.023033	0.021863
O40	O	0.993020	-0.672329	-0.503153
O41	O	1.326353	-0.338996	-0.169820
O42	O	1.659687	-0.005663	0.163513
O43	O	1.223200	-0.566428	-0.650008
O44	O	1.556533	-0.233095	-0.316674
O45	O	1.889866	0.100239	0.016659
O46	O	1.235089	-0.854059	-0.413013
O47	O	1.568422	-0.520726	-0.079680
O48	O	1.901755	-0.187392	0.253654
O49	O	1.127791	-0.853342	-0.509970
O50	O	1.461124	-0.520008	-0.176637
O51	O	1.794457	-0.186675	0.156696
C52	C	0.965439	-0.602064	-0.450561
C53	C	1.298772	-0.268730	-0.117228
C54	C	1.632106	0.064603	0.216105
C55	C	0.873009	-0.595812	-0.445890
C56	C	1.206342	-0.262478	-0.112556
C57	C	1.539676	0.070855	0.220777
C58	C	1.181453	-0.892167	-0.461505
C59	C	1.514786	-0.558833	-0.128172
C60	C	1.848119	-0.225500	0.205161
C61	C	1.181510	-1.010002	-0.461528
C62	C	1.514843	-0.676669	-0.128194
C63	C	1.848177	-0.343335	0.205139
C64	C	0.703778	-0.584372	-0.437368
C65	C	1.037111	-0.251039	-0.104035
C66	C	1.370444	0.082294	0.229299
C67	C	0.660046	-0.649192	-0.485747
C68	C	0.993379	-0.315858	-0.152413
C69	C	1.326713	0.017475	0.180920
C70	C	0.565880	-0.642827	-0.481005
C71	C	0.899213	-0.309493	-0.147672
C72	C	1.232547	0.023840	0.185661
C73	C	0.797952	-0.590736	-0.442108
C74	C	1.131286	-0.257402	-0.108775
C75	C	1.464619	0.075931	0.224558
C76	C	1.248914	-1.177958	-0.400396
C77	C	1.582248	-0.844625	-0.067063
C78	C	1.915581	-0.511291	0.266271
C79	C	1.249115	-1.055422	-0.400564
C80	C	1.582449	-0.722088	-0.067231
C81	C	1.915782	-0.388755	0.266102
C82	C	1.200830	-1.061367	-0.550384
C83	C	1.534163	-0.728034	-0.217051
C84	C	1.867497	-0.394701	0.116282
C85	C	1.201356	-1.183979	-0.550068
C86	C	1.534690	-0.850646	-0.216735
C87	C	1.868023	-0.517312	0.116598
C88	C	1.094716	-1.169992	-0.434665
C89	C	1.428050	-0.836658	-0.101332
C90	C	1.761383	-0.503325	0.232002
C91	C	1.095237	-1.047295	-0.432721
C92	C	1.428571	-0.713962	-0.099387
C93	C	1.761904	-0.380629	0.233946
C94	C	1.398391	-0.631476	-0.472536
C95	C	1.731724	-0.298143	-0.139203
C96	C	2.065058	0.035190	0.194131
C97	C	1.490820	-0.637756	-0.477228
C98	C	1.824153	-0.304422	-0.143894
C99	C	2.157487	0.028911	0.189439
C100	C	1.170548	-0.629953	-0.678422
C101	C	1.503881	-0.296620	-0.345088
C102	C	1.837215	0.036713	-0.011755
C103	C	1.165884	-0.635584	-0.770849
C104	C	1.499217	-0.302250	-0.437516
C105	C	1.832551	0.031083	-0.104182
C106	C	1.181556	-0.340242	-0.461568
C107	C	1.514889	-0.006909	-0.128235
C108	C	1.848222	0.326424	0.205098
C109	C	1.181582	-0.222415	-0.461586
C110	C	1.514916	0.110918	-0.128252
C111	C	1.848249	0.444251	0.205081
C112	C	1.157338	-0.645837	-0.940074
C113	C	1.490671	-0.312504	-0.606741
C114	C	1.824004	0.020829	-0.273407
C115	C	1.205813	-0.587338	-0.983840
C116	C	1.539146	-0.254005	-0.650507
C117	C	1.872479	0.079328	-0.317173
C118	C	1.201058	-0.593044	-1.078003
C119	C	1.534391	-0.259710	-0.744669
C120	C	1.867724	0.073623	-0.411336
C121	C	1.162092	-0.640133	-0.845903
C122	C	1.495425	-0.306800	-0.512570
C123	C	1.828758	0.026533	-0.179236
C124	C	1.192444	-0.603507	-0.245479
C125	C	1.525777	-0.270174	0.087855
C126	C	1.859110	0.063160	0.421188
C127	C	1.197269	-0.597589	-0.153060
C128	C	1.530602	-0.264256	0.180274
C129	C	1.863936	0.069078	0.513607
H130	H	0.693327	-0.709464	-0.530727
H131	H	1.026661	-0.376131	-0.197394
H132	H	1.359994	-0.042797	0.135939
Br133	Br	1.280956	-0.496746	-0.928428
Br134	Br	1.614289	-0.163413	-0.595095
Br135	Br	1.947623	0.169920	-0.261762
Br136	Br	1.082221	-0.736452	-0.995489
Br137	Br	1.415554	-0.403119	-0.662155
Br138	Br	1.748887	-0.069785	-0.328822
Br139	Br	1.070815	-0.990347	-0.323696
Br140	Br	1.404148	-0.657014	0.009637
Br141	Br	1.737482	-0.323680	0.342970
H142	H	1.237542	-1.020427	-0.334818
H143	H	1.570876	-0.687094	-0.001485
H144	H	1.904209	-0.353761	0.331849
Br145	Br	0.648310	-0.483917	-0.362403
Br146	Br	0.981643	-0.150584	-0.029070
Br147	Br	1.314977	0.182750	0.304263
Br148	Br	1.229959	-1.218900	-0.290509
Br149	Br	1.563292	-0.885567	0.042825
Br150	Br	1.896626	-0.552234	0.376158
H151	H	1.313002	-1.213986	-0.418372
H152	H	1.646336	-0.880653	-0.085038
H153	H	1.979669	-0.547320	0.248295
H154	H	1.313544	-1.031346	-0.418724
H155	H	1.646878	-0.698012	-0.085390
H156	H	1.980211	-0.364679	0.247943
Br157	Br	1.122757	-1.233456	-0.629034
Br158	Br	1.456090	-0.900123	-0.295701
Br159	Br	1.789423	-0.566790	0.037632
Br160	Br	1.306964	-1.240724	-0.587213
Br161	Br	1.640298	-0.907391	-0.253879
Br162	Br	1.973631	-0.574058	0.079454
H163	H	1.153089	-1.032173	-0.597388
H164	H	1.486423	-0.698840	-0.264054
H165	H	1.819756	-0.365507	0.069279
H166	H	1.263450	-1.036079	-0.572950
H167	H	1.596784	-0.702745	-0.239617
H168	H	1.930117	-0.369412	0.093716
H169	H	1.076289	-1.195686	-0.370767
H170	H	1.409623	-0.862353	-0.037434
H171	H	1.742956	-0.529020	0.295900
H172	H	1.044603	-1.198637	-0.479177
H173	H	1.377936	-0.865304	-0.145844
H174	H	1.711270	-0.531971	0.187489
Br175	Br	1.007707	-0.995025	-0.500958
Br176	Br	1.341040	-0.661692	-0.167625
Br177	Br	1.674373	-0.328359	0.165709
