data_functionalizedCrystal
_audit_creation_method	'MofGen! by Chris Wilmer'
_symmetry_space_group_name_H-M	'P1'
_symmetry_Int_Tables_number	1
_symmetry_cell_setting	triclinic
loop_
_symmetry_equiv_pos_as_xyz
  x,y,z
_cell_length_a	6.817900
_cell_length_b	14.858329
_cell_length_c	14.125465
_cell_angle_alpha	95.625660
_cell_angle_beta	100.398878
_cell_angle_gamma	104.519616
loop_
_atom_site_label
_atom_site_type_symbol
_atom_site_fract_x
_atom_site_fract_y
_atom_site_fract_z
V1	V	-3.996446	-0.127871	-0.300249
V2	V	-3.746446	0.122129	-0.050249
V3	V	-3.496446	0.372129	0.199751
V4	V	-3.246446	0.622129	0.449751
O5	O	-3.979229	0.006967	-0.294251
O6	O	-3.729229	0.256967	-0.044251
O7	O	-3.479229	0.506967	0.205749
O8	O	-3.229229	0.756967	0.455749
O9	O	-3.953274	-0.254337	-0.298467
O10	O	-3.703274	-0.004337	-0.048467
O11	O	-3.453274	0.245663	0.201533
O12	O	-3.203274	0.495663	0.451533
O13	O	-3.932494	-0.125543	-0.431074
O14	O	-3.682494	0.124457	-0.181074
O15	O	-3.432494	0.374457	0.068926
O16	O	-3.182494	0.624457	0.318926
O17	O	-4.000152	-0.122719	-0.160726
O18	O	-3.750152	0.127281	0.089274
O19	O	-3.500152	0.377281	0.339274
O20	O	-3.250152	0.627281	0.589274
V21	V	-4.481411	-0.111785	-0.283528
V22	V	-4.231411	0.138215	-0.033528
V23	V	-3.981411	0.388215	0.216472
V24	V	-3.731411	0.638215	0.466472
O25	O	-4.254540	-0.163156	-0.336928
O26	O	-4.004540	0.086844	-0.086928
O27	O	-3.754540	0.336844	0.163072
O28	O	-3.504540	0.586844	0.413072
O29	O	-4.673514	-0.076500	-0.246849
O30	O	-4.423514	0.173500	0.003151
O31	O	-4.173514	0.423500	0.253151
O32	O	-3.923514	0.673500	0.503151
O33	O	-4.301376	0.014681	-0.285310
O34	O	-4.051376	0.264681	-0.035310
O35	O	-3.801376	0.514681	0.214690
O36	O	-3.551376	0.764681	0.464690
O37	O	-4.616025	-0.246623	-0.289526
O38	O	-4.366025	0.003377	-0.039526
O39	O	-4.116025	0.253377	0.210474
O40	O	-3.866025	0.503377	0.460474
O41	O	-4.595101	-0.116938	-0.423051
O42	O	-4.345101	0.133062	-0.173051
O43	O	-4.095101	0.383062	0.076949
O44	O	-3.845101	0.633062	0.326949
O45	O	-4.322156	-0.114113	-0.152703
O46	O	-4.072156	0.135887	0.097297
O47	O	-3.822156	0.385887	0.347297
O48	O	-3.572156	0.635887	0.597297
C49	C	-3.800050	-0.285178	-0.293800
C50	C	-3.550050	-0.035178	-0.043800
C51	C	-3.300050	0.214822	0.206200
C52	C	-3.050050	0.464822	0.456200
C53	C	-3.845936	-0.388563	-0.293215
C54	C	-3.595936	-0.138563	-0.043215
C55	C	-3.345936	0.111437	0.206785
C56	C	-3.095936	0.361437	0.456785
C57	C	-3.883195	-0.472522	-0.292731
C58	C	-3.633195	-0.222522	-0.042731
C59	C	-3.383195	0.027478	0.207269
C60	C	-3.133195	0.277478	0.457269
C61	C	-3.929957	-0.577854	-0.292128
C62	C	-3.679957	-0.327854	-0.042128
C63	C	-3.429957	-0.077854	0.207872
C64	C	-3.179957	0.172146	0.457872
C65	C	-3.967243	-0.661807	-0.291649
C66	C	-3.717243	-0.411807	-0.041649
C67	C	-3.467243	-0.161807	0.208351
C68	C	-3.217243	0.088193	0.458351
C69	C	-4.014008	-0.767145	-0.291045
C70	C	-3.764008	-0.517145	-0.041045
C71	C	-3.514008	-0.267145	0.208955
C72	C	-3.264008	-0.017145	0.458955
C73	C	-3.773542	-0.120887	-0.462953
C74	C	-3.523542	0.129113	-0.212953
C75	C	-3.273542	0.379113	0.037047
C76	C	-3.023542	0.629113	0.287047
C77	C	-3.802573	-0.119821	-0.569905
C78	C	-3.552573	0.130179	-0.319905
C79	C	-3.302573	0.380179	-0.069905
C80	C	-3.052573	0.630179	0.180095
C81	C	-3.855785	-0.117866	-0.765724
C82	C	-3.605785	0.132134	-0.515724
C83	C	-3.355785	0.382134	-0.265724
C84	C	-3.105785	0.632134	-0.015724
C85	C	-4.041440	-0.121788	-0.818053
C86	C	-3.791440	0.128212	-0.568053
C87	C	-3.541440	0.378212	-0.318053
C88	C	-3.291440	0.628212	-0.068053
C89	C	-4.071050	-0.120700	-0.927014
C90	C	-3.821050	0.129300	-0.677014
C91	C	-3.571050	0.379300	-0.427014
C92	C	-3.321050	0.629300	-0.177014
C93	C	-3.826168	-0.118954	-0.656753
C94	C	-3.576168	0.131046	-0.406753
C95	C	-3.326168	0.381046	-0.156753
C96	C	-3.076168	0.631046	0.093247
C97	C	-4.117942	0.045517	-0.289974
C98	C	-3.867942	0.295517	-0.039974
C99	C	-3.617942	0.545517	0.210026
C100	C	-3.367942	0.795517	0.460026
C101	C	-4.051294	0.148901	-0.290565
C102	C	-3.801294	0.398901	-0.040565
C103	C	-3.551294	0.648901	0.209435
C104	C	-3.301294	0.898901	0.459435
C105	C	-4.144450	-0.118772	-0.120819
C106	C	-3.894450	0.131228	0.129181
C107	C	-3.644450	0.381228	0.379181
C108	C	-3.394450	0.631228	0.629181
C109	C	-4.094658	-0.119833	-0.013866
C110	C	-3.844658	0.130167	0.236134
C111	C	-3.594658	0.380167	0.486134
C112	C	-3.344658	0.630167	0.736134
H113	H	-4.178151	-0.125973	-0.781024
H114	H	-3.928151	0.124027	-0.531024
H115	H	-3.678151	0.374027	-0.281024
H116	H	-3.428151	0.624027	-0.031024
H117	H	-3.719091	-0.113692	-0.802752
H118	H	-3.469091	0.136308	-0.552752
H119	H	-3.219091	0.386308	-0.302752
H120	H	-2.969091	0.636308	-0.052752
