data_functionalizedCrystal
_audit_creation_method	'MofGen! by Chris Wilmer'
_symmetry_space_group_name_H-M	'P1'
_symmetry_Int_Tables_number	1
_symmetry_cell_setting	triclinic
loop_
_symmetry_equiv_pos_as_xyz
  x,y,z
_cell_length_a	10.540510
_cell_length_b	16.053802
_cell_length_c	16.992695
_cell_angle_alpha	92.741074
_cell_angle_beta	87.590767
_cell_angle_gamma	87.392914
loop_
_atom_site_label
_atom_site_type_symbol
_atom_site_fract_x
_atom_site_fract_y
_atom_site_fract_z
O1	O	1.700517	-0.069436	0.107177
O2	O	2.200517	0.430564	0.607177
O3	O	1.332005	-0.069436	0.117618
O4	O	1.832005	0.430564	0.617618
O5	O	1.514783	-0.069429	-0.001753
O6	O	2.014783	0.430571	0.498247
O7	O	1.517739	-0.069442	0.226548
O8	O	2.017739	0.430558	0.726548
O9	O	1.504720	0.069429	0.004790
O10	O	2.004720	0.569429	0.504790
O11	O	1.321942	0.069422	0.124162
O12	O	1.821942	0.569422	0.624162
O13	O	1.690454	0.069423	0.113720
O14	O	2.190454	0.569423	0.613720
Zn15	Zn	1.504600	0.091469	0.119980
Zn16	Zn	2.004600	0.591469	0.619980
Zn17	Zn	1.517859	-0.091483	0.111359
Zn18	Zn	2.017859	0.408517	0.611359
O19	O	1.507676	0.069416	0.233091
O20	O	2.007676	0.569416	0.733091
C21	C	1.279603	-0.000007	0.120112
C22	C	1.779603	0.499993	0.620112
C23	C	1.138451	-0.000007	0.117784
C24	C	1.638451	0.499993	0.617784
C25	C	0.928214	-0.000331	0.200696
C26	C	1.428214	0.499669	0.700696
C27	C	1.075003	-0.000013	0.203194
C28	C	1.575003	0.499987	0.703194
C29	C	1.084150	0.079289	0.077799
C30	C	1.584150	0.579289	0.577799
C31	C	0.937222	0.079350	0.075923
C32	C	1.437222	0.579350	0.575923
C33	C	0.948705	-0.078558	0.066704
C34	C	1.448705	0.421442	0.566704
C35	C	1.095473	-0.079601	0.070706
C36	C	1.595473	0.420399	0.570706
C37	C	1.505951	-0.000000	-0.027715
C38	C	2.005951	0.500000	0.472285
C39	C	1.494610	-0.000000	-0.114822
C40	C	1.994610	0.500000	0.385178
C41	C	1.742857	-0.000008	0.111227
C42	C	2.242857	0.499992	0.611227
C43	C	1.884009	-0.000014	0.113554
C44	C	2.384009	0.499986	0.613554
N45	N	1.495560	0.216329	0.125863
N46	N	1.995560	0.716329	0.625863
N47	N	1.526908	-0.216343	0.105470
N48	N	2.026908	0.283657	0.605470
C49	C	1.573365	0.260026	0.075089
C50	C	2.073365	0.760026	0.575089
C51	C	1.567054	0.347433	0.079212
C52	C	2.067054	0.847433	0.579212
C53	C	1.482944	0.391141	0.134113
C54	C	1.982944	0.891141	0.634113
C55	C	1.405131	0.347438	0.184889
C56	C	1.905131	0.847438	0.684889
C57	C	1.411437	0.260033	0.180762
C58	C	1.911437	0.760033	0.680762
C59	C	1.455400	0.652549	0.152119
C60	C	1.955400	1.152549	0.652119
C61	C	1.449104	0.739961	0.156244
C62	C	1.949104	1.239961	0.656244
C63	C	1.611025	0.739949	0.050564
C64	C	2.111025	1.239949	0.550564
C65	C	1.617328	0.652543	0.046445
C66	C	2.117328	1.152543	0.546445
C67	C	1.539511	0.608847	0.097219
C68	C	2.039511	1.108847	0.597219
N69	N	1.476495	0.480484	0.138330
N70	N	1.976495	0.980484	0.638330
N71	N	1.545955	0.519506	0.092997
N72	N	2.045955	1.019506	0.592997
C73	C	1.604031	0.000001	-0.164457
C74	C	2.104031	0.500001	0.335543
C75	C	1.593368	-0.000007	-0.246303
C76	C	2.093368	0.499993	0.253697
C77	C	1.473284	-0.000010	-0.278512
C78	C	1.973284	0.499990	0.221488
C79	C	1.363855	-0.000014	-0.228871
C80	C	1.863855	0.499986	0.271129
C81	C	1.374519	-0.000012	-0.147026
C82	C	1.874519	0.499988	0.352974
C83	C	1.429085	-0.000022	-0.522355
C84	C	1.929085	0.499978	-0.022355
C85	C	1.418428	-0.000021	-0.604205
C86	C	1.918428	0.499979	-0.104205
C87	C	1.647943	-0.000016	-0.621632
C88	C	2.147943	0.499984	-0.121632
C89	C	1.658597	-0.000009	-0.539785
C90	C	2.158597	0.499991	-0.039785
C91	C	1.549168	-0.000017	-0.490151
C92	C	2.049168	0.499983	0.009849
N93	N	1.462382	-0.000016	-0.362171
N94	N	1.962382	0.499984	0.137829
N95	N	1.560072	-0.000018	-0.406493
N96	N	2.060072	0.499982	0.093507
C97	C	1.516508	-0.000015	0.259053
C98	C	2.016508	0.499985	0.759053
C99	C	1.527849	-0.000020	0.346160
C100	C	2.027849	0.499980	0.846160
H101	H	1.125870	0.082241	0.015061
H102	H	1.625870	0.582241	0.515061
Br103	Br	0.889208	0.085412	-0.030258
Br104	Br	1.389208	0.585412	0.469742
H105	H	1.131103	-0.138263	0.099753
H106	H	1.631103	0.361737	0.599753
H107	H	1.285417	-0.000013	-0.106614
H108	H	1.785417	0.499987	0.393386
Br109	Br	0.869975	-0.095116	0.251696
Br110	Br	1.369975	0.404884	0.751696
H111	H	0.912850	-0.138660	0.090806
H112	H	1.412850	0.361340	0.590806
Br113	Br	0.902583	-0.079443	-0.040220
Br114	Br	1.402583	0.420557	0.459780
Br115	Br	1.135735	-0.094755	0.255743
Br116	Br	1.635735	0.405245	0.755743
H117	H	1.685817	0.616957	0.001740
H118	H	2.185817	1.116957	0.501740
H119	H	1.701817	0.000008	-0.138239
H120	H	2.201817	0.500008	0.361761
H121	H	0.883481	0.056211	0.236443
H122	H	1.383481	0.556211	0.736443
H123	H	1.266079	-0.000022	-0.255102
H124	H	1.766079	0.499978	0.244898
H125	H	1.139477	-0.084386	0.008125
H126	H	1.639477	0.415614	0.508125
H127	H	1.113363	0.138297	0.110943
H128	H	1.613363	0.638297	0.610943
Br129	Br	1.290970	0.406753	0.259395
Br130	Br	1.790970	0.906753	0.759395
H131	H	1.102266	0.056921	0.240289
H132	H	1.602266	0.556921	0.740289
Br133	Br	1.716627	0.799253	-0.018341
Br134	Br	2.216627	1.299253	0.481659
Br135	Br	1.672642	0.406739	0.010300
Br136	Br	2.172642	0.906739	0.510300
H137	H	1.348078	0.224456	0.222107
H138	H	1.848078	0.724456	0.722107
H139	H	1.380608	0.775544	0.200954
H140	H	1.880608	1.275544	0.700954
H141	H	1.641861	0.224445	0.030385
H142	H	2.141861	0.724445	0.530385
H143	H	1.682471	-0.000005	-0.286713
H144	H	2.182471	0.499995	0.213287
Br145	Br	1.349796	0.593253	0.221025
Br146	Br	1.849796	1.093253	0.721025
H147	H	1.756382	-0.000007	-0.513567
H148	H	2.256382	0.499993	-0.013567
H149	H	1.737034	-0.000011	-0.662052
H150	H	2.237034	0.499989	-0.162052
Br151	Br	1.255445	-0.000017	-0.647916
Br152	Br	1.755445	0.499983	-0.147916
H153	H	1.339980	-0.000028	-0.481952
H154	H	1.839980	0.499972	0.018048
Br155	Br	0.867346	0.178137	0.130381
Br156	Br	1.367346	0.678137	0.630381
