data_functionalizedCrystal
_audit_creation_method	'MofGen! by Chris Wilmer'
_symmetry_space_group_name_H-M	'P1'
_symmetry_Int_Tables_number	1
_symmetry_cell_setting	triclinic
loop_
_symmetry_equiv_pos_as_xyz
  x,y,z
_cell_length_a	10.654550
_cell_length_b	9.065215
_cell_length_c	7.540329
_cell_angle_alpha	89.997574
_cell_angle_beta	90.003853
_cell_angle_gamma	95.250200
loop_
_atom_site_label
_atom_site_type_symbol
_atom_site_fract_x
_atom_site_fract_y
_atom_site_fract_z
O1	O	-0.184140	1.959394	-0.147463
O2	O	-0.199250	1.530026	-0.147472
O3	O	-0.008995	1.754582	-0.147454
O4	O	-0.374395	1.734838	-0.147481
O5	O	-0.008992	1.754569	0.147511
O6	O	-0.199247	1.530013	0.147494
O7	O	-0.184138	1.959381	0.147502
Cu8	Cu	-0.191692	1.744696	0.174430
Cu9	Cu	-0.191695	1.744711	-0.174400
O10	O	-0.374393	1.734825	0.147484
C11	C	-0.197797	1.475041	0.000010
C12	C	-0.193458	1.311221	0.000007
C13	C	-0.421198	1.736281	-0.000001
C14	C	-0.560658	1.740618	-0.000012
C15	C	-0.639621	1.608404	0.000003
C16	C	-0.770658	1.612488	0.000015
C17	C	-0.743756	1.881014	0.000007
C18	C	-0.612721	1.876928	-0.000019
C19	C	-0.587558	1.472094	0.000010
C20	C	-0.666522	1.339868	0.000026
C21	C	-0.797559	1.343953	0.000039
C22	C	-0.849632	1.480263	0.000035
C23	C	0.037810	1.753126	0.000028
C24	C	0.177271	1.748789	0.000026
N25	N	-0.191689	1.744695	0.419779
C26	C	-0.185590	2.014366	0.000016
C27	C	-0.189930	2.178186	0.000007
N28	N	-0.191688	1.744724	-0.419749
H29	H	-0.480862	1.468753	0.000001
H30	H	-0.956332	1.483578	0.000038
C31	C	-0.761144	2.111148	0.151633
C32	C	-0.800986	2.030842	0.000014
H33	H	-0.796469	2.203651	0.151631
H34	H	-0.788137	2.056652	0.254479
H35	H	-0.671802	2.127625	0.151595
H36	H	-0.890328	2.014355	0.000058
H37	H	-0.774000	2.085350	-0.102859
H38	H	-0.548427	1.984589	-0.000040
H39	H	-0.861849	1.236288	0.000035
H40	H	-0.624116	1.228890	0.000015
