data_functionalizedCrystal
_audit_creation_method	'MofGen! by Chris Wilmer'
_symmetry_space_group_name_H-M	'P1'
_symmetry_Int_Tables_number	1
_symmetry_cell_setting	triclinic
loop_
_symmetry_equiv_pos_as_xyz
  x,y,z
_cell_length_a	12.645330
_cell_length_b	11.169417
_cell_length_c	11.169409
_cell_angle_alpha	89.979436
_cell_angle_beta	89.967780
_cell_angle_gamma	90.018570
loop_
_atom_site_label
_atom_site_type_symbol
_atom_site_fract_x
_atom_site_fract_y
_atom_site_fract_z
Zn1	Zn	-0.421929	1.834910	-0.678543
Zn2	Zn	-0.599240	1.834771	-0.477860
Zn3	Zn	-0.421994	1.634193	-0.477878
Zn4	Zn	-0.599154	1.634177	-0.678505
O5	O	-0.510579	1.734513	-0.578197
O6	O	-0.445459	2.002841	-0.651931
O7	O	-0.575791	1.808112	-0.309913
O8	O	-0.273638	1.660883	-0.504519
O9	O	-0.575728	2.002739	-0.504490
O10	O	-0.273591	1.808349	-0.651948
O11	O	-0.445569	1.660749	-0.309925
O12	O	-0.445485	1.466241	-0.504483
O13	O	-0.575582	1.660857	-0.846460
O14	O	-0.575644	1.466230	-0.651883
O15	O	-0.445375	1.808334	-0.846488
O16	O	-0.747576	1.808097	-0.504453
O17	O	-0.747513	1.660722	-0.651866
C18	C	-0.510563	1.422688	-0.578181
C19	C	-0.510582	1.289288	-0.578203
C20	C	-0.786009	1.734425	-0.578180
C21	C	-0.903839	1.734498	-0.578213
C22	C	-1.071407	1.642166	-0.671236
C23	C	-0.948848	1.641694	-0.670937
C24	C	-0.948448	1.700252	-0.451730
C25	C	-1.071046	1.699689	-0.452295
C26	C	-1.070923	1.861639	-0.610646
C27	C	-0.948316	1.860860	-0.613412
C28	C	-0.234074	1.734633	-0.578240
C29	C	-0.116244	1.734685	-0.578258
C30	C	-0.510462	1.734609	-0.891239
C31	C	-0.510412	1.734650	-1.024639
C32	C	-0.510596	2.047555	-0.578213
C33	C	-0.510603	2.180955	-0.578220
C34	C	-0.510620	1.734486	-0.266372
C35	C	-0.510371	1.734678	-0.132972
H36	H	-0.918683	1.663120	-0.764723
N37	N	-1.109326	1.952943	-0.520946
H38	H	-1.189140	1.956016	-0.522357
H39	H	-1.079885	2.034275	-0.542256
N40	N	-0.907930	1.578598	-0.414718
H41	H	-0.866333	1.586176	-0.337925
H42	H	-0.860730	1.545557	-0.479757
N43	N	-0.909692	1.895082	-0.736710
H44	H	-0.863573	1.829018	-0.769639
H45	H	-0.867398	1.971622	-0.731546
N46	N	-0.909831	1.786661	-0.357442
H47	H	-0.972381	1.827266	-0.318542
H48	H	-0.862919	1.848920	-0.395983
H49	H	-1.100808	1.663396	-0.765330
H50	H	-1.101756	1.892877	-0.701309
N51	N	-0.910119	1.517031	-0.642497
H52	H	-0.830252	1.516205	-0.642186
H53	H	-0.937034	1.459391	-0.705120
N54	N	-1.109057	1.576758	-0.415959
H55	H	-1.152870	1.541210	-0.482655
H56	H	-1.153545	1.583344	-0.341128
H57	H	-1.100711	1.764151	-0.380657
H58	H	-1.102312	1.548637	-0.650053
H59	H	-0.917671	1.933421	-0.550623
