data_functionalizedCrystal
_audit_creation_method	'MofGen! by Chris Wilmer'
_symmetry_space_group_name_H-M	'P1'
_symmetry_Int_Tables_number	1
_symmetry_cell_setting	triclinic
loop_
_symmetry_equiv_pos_as_xyz
  x,y,z
_cell_length_a	12.827893
_cell_length_b	12.759394
_cell_length_c	12.827885
_cell_angle_alpha	89.968776
_cell_angle_beta	89.980728
_cell_angle_gamma	90.014808
loop_
_atom_site_label
_atom_site_type_symbol
_atom_site_fract_x
_atom_site_fract_y
_atom_site_fract_z
Zn1	Zn	1.597674	-0.418216	-0.590838
Zn2	Zn	1.597569	-0.593932	-0.416094
Zn3	Zn	1.422915	-0.418268	-0.416112
Zn4	Zn	1.422902	-0.593854	-0.590794
O5	O	1.510265	-0.506068	-0.503460
O6	O	1.743896	-0.441537	-0.567669
O7	O	1.574363	-0.570684	-0.269860
O8	O	1.446146	-0.271240	-0.439316
O9	O	1.743819	-0.570634	-0.439285
O10	O	1.574541	-0.271202	-0.567686
O11	O	1.446045	-0.441624	-0.269873
O12	O	1.276677	-0.441548	-0.439273
O13	O	1.446124	-0.570501	-0.737036
O14	O	1.276668	-0.570551	-0.567611
O15	O	1.574528	-0.441461	-0.737069
O16	O	1.574350	-0.740943	-0.439243
O17	O	1.446023	-0.740885	-0.567594
C18	C	1.238755	-0.506047	-0.503440
C19	C	1.122602	-0.506064	-0.503456
C20	C	1.070840	-0.569998	-0.566864
C21	C	0.950790	-0.570017	-0.566882
C22	C	1.510202	-0.779035	-0.503434
C23	C	1.510271	-0.895812	-0.503458
C24	C	1.643999	-0.895818	-0.369906
C25	C	1.710890	-0.950682	-0.303143
C26	C	1.710951	-1.060404	-0.303171
C27	C	1.644116	-1.115264	-0.369973
C28	C	1.577225	-1.060400	-0.436736
C29	C	1.577169	-0.950676	-0.436698
C30	C	1.443504	-1.060393	-0.570292
C31	C	1.443436	-0.950672	-0.570260
C32	C	1.376670	-1.115253	-0.637094
C33	C	1.309772	-1.060389	-0.703854
C34	C	1.309712	-0.950661	-0.703822
C35	C	1.376545	-0.895808	-0.637024
C36	C	1.782835	-0.506089	-0.503480
C37	C	1.898988	-0.506098	-0.503489
C38	C	1.510336	-0.505967	-0.776030
C39	C	1.510366	-0.505924	-0.892183
C40	C	1.510356	-0.232034	-0.503508
C41	C	1.510395	-0.115257	-0.503528
C42	C	1.573912	-0.442058	-0.943984
C43	C	1.573944	-0.442012	-1.064034
C44	C	1.510254	-0.506092	-0.231950
C45	C	1.510426	-0.505839	-0.115797
H46	H	1.078041	-0.451337	-0.449188
H47	H	1.644181	-1.204605	-0.369999
H48	H	1.115402	-0.624717	-0.621140
N49	N	1.438338	-0.578315	-0.951156
H50	H	1.395927	-0.620944	-0.900093
H51	H	1.390043	-0.535488	-0.996446
H52	H	1.376497	-0.806467	-0.636984
N53	N	1.646007	-0.369568	-1.123024
H54	H	1.720680	-0.385876	-1.104086
H55	H	1.635729	-0.379829	-1.200403
N56	N	1.438339	-0.578255	-1.056804
H57	H	1.395951	-0.620839	-1.107847
H58	H	1.480877	-0.626861	-1.011506
H59	H	0.906276	-0.624756	-0.621165
H60	H	0.943496	-0.451362	-0.449197
N61	N	1.645972	-0.369695	-0.885015
H62	H	1.635746	-0.379997	-0.807614
H63	H	1.720612	-0.386059	-0.904056
H64	H	1.765425	-1.105074	-0.248811
N65	N	1.643918	-0.777477	-0.369862
H66	H	1.696402	-0.751048	-0.317413
H67	H	1.663049	-0.751047	-0.441590
N68	N	1.376735	-1.233595	-0.637133
H69	H	1.429248	-1.260029	-0.584701
H70	H	1.305033	-1.260011	-0.617910
H71	H	1.255365	-1.105065	-0.758243
N72	N	1.782980	-0.891514	-0.231101
H73	H	1.772794	-0.813680	-0.241209
H74	H	1.766761	-0.910768	-0.156460
H75	H	1.255246	-0.905997	-0.758193
