data_functionalizedCrystal
_audit_creation_method	'MofGen! by Chris Wilmer'
_symmetry_space_group_name_H-M	'P1'
_symmetry_Int_Tables_number	1
_symmetry_cell_setting	triclinic
loop_
_symmetry_equiv_pos_as_xyz
  x,y,z
_cell_length_a	17.699097
_cell_length_b	23.532407
_cell_length_c	22.010155
_cell_angle_alpha	89.990798
_cell_angle_beta	89.980702
_cell_angle_gamma	83.068554
loop_
_atom_site_label
_atom_site_type_symbol
_atom_site_fract_x
_atom_site_fract_y
_atom_site_fract_z
O1	O	1.003716	0.072053	-0.050582
O2	O	0.783292	0.081415	-0.050573
O3	O	0.900151	-0.006178	-0.050566
O4	O	0.886857	0.159647	-0.050588
O5	O	0.900116	-0.006178	0.050484
O6	O	0.783257	0.081415	0.050478
O7	O	1.003681	0.072053	0.050469
Cu8	Cu	0.893466	0.076734	0.059700
Cu9	Cu	0.893507	0.076734	-0.059804
O10	O	0.886822	0.159646	0.050462
C11	C	0.755079	0.081078	-0.000046
C12	C	0.671067	0.080068	-0.000042
C13	C	0.899795	-0.027395	-0.000040
C14	C	0.898777	-0.090615	-0.000035
C15	C	0.155399	0.073876	-0.055149
C16	C	0.234338	0.074821	-0.055146
C17	C	0.273783	0.075295	-0.000061
C18	C	0.234285	0.074817	0.055025
C19	C	0.155348	0.073868	0.055021
C20	C	0.552630	0.078645	0.055040
C21	C	0.631572	0.079596	0.055040
C22	C	0.631620	0.079599	-0.055127
C23	C	0.552683	0.078649	-0.055130
C24	C	0.513193	0.078169	-0.000045
C25	C	0.427598	0.077143	-0.000049
C26	C	0.359375	0.076325	-0.000056
C27	C	0.961548	-0.489536	-0.000071
C28	C	0.960603	-0.548939	-0.000075
O29	O	1.018792	-0.585514	-0.000100
N30	N	0.891130	-0.571767	-0.000072
C31	C	0.822598	-0.535189	-0.000070
O32	O	0.763419	-0.560060	-0.000069
C33	C	0.823545	-0.475787	-0.000070
C34	C	0.893022	-0.452962	-0.000067
C35	C	1.031020	-0.466710	-0.000069
C36	C	1.031965	-0.407311	-0.000063
C37	C	0.963439	-0.370738	-0.000059
C38	C	0.893967	-0.393563	-0.000062
C39	C	0.755014	-0.439210	-0.000073
C40	C	0.755966	-0.379805	-0.000073
C41	C	0.825443	-0.356980	-0.000070
C42	C	0.826386	-0.297591	-0.000052
N43	N	0.895858	-0.274763	-0.000056
C44	C	0.964385	-0.311336	-0.000059
C45	C	0.820616	-0.659937	-0.000072
C46	C	0.819669	-0.719338	-0.000068
C47	C	0.957674	-0.733084	-0.000074
C48	C	0.958620	-0.673682	-0.000074
C49	C	0.890089	-0.637109	-0.000075
C50	C	0.966365	-0.186594	-0.000047
C51	C	0.967304	-0.127189	-0.000038
C52	C	0.829299	-0.113448	-0.000036
C53	C	0.828360	-0.172848	-0.000041
C54	C	0.896899	-0.209420	-0.000048
O55	O	0.768227	-0.260981	-0.000030
O56	O	1.023554	-0.286456	-0.000069
C57	C	1.031894	0.072390	-0.000059
C58	C	1.115906	0.073400	-0.000067
C59	C	0.887178	0.180864	-0.000066
C60	C	0.888196	0.244084	-0.000075
N61	N	0.893442	0.076734	0.143752
N62	N	0.893537	0.076730	-0.143856
C63	C	0.939151	0.111227	0.563525
C64	C	0.939160	0.111226	0.627133
O65	O	0.977996	0.140550	0.660018
N66	N	0.893522	0.076728	0.658959
C67	C	0.847878	0.042224	0.627175
O68	O	0.809061	0.012880	0.660087
C69	C	0.847874	0.042223	0.563569
C70	C	0.893509	0.076728	0.531745
C71	C	0.984783	0.145729	0.531701
C72	C	0.984772	0.145731	0.468098
C73	C	0.939131	0.111232	0.436319
C74	C	0.893499	0.076730	0.468142
C75	C	0.802235	0.007717	0.531786
C76	C	0.802235	0.007718	0.468175
C77	C	0.847870	0.042223	0.436352
C78	C	0.847847	0.042232	0.372759
N79	N	0.893484	0.076731	0.340932
C80	C	0.939126	0.111230	0.372712
C81	C	0.847892	0.042229	0.760753
C82	C	0.847892	0.042233	0.824358
C83	C	0.939174	0.111234	0.824311
C84	C	0.939170	0.111233	0.760705
C85	C	0.893530	0.076727	0.728926
C86	C	0.939101	0.111232	0.239141
C87	C	0.939084	0.111233	0.175532
C88	C	0.847805	0.042230	0.175585
C89	C	0.847818	0.042231	0.239188
C90	C	0.893472	0.076734	0.270964
O91	O	0.809033	0.012922	0.339833
O92	O	0.977944	0.140564	0.339792
H93	H	0.123288	0.073494	-0.100005
Cl94	Cl	1.045966	-0.644994	-0.000071
H95	H	0.698438	-0.457783	-0.000079
Cl96	Cl	1.043822	-0.779073	-0.000083
Cl97	Cl	0.502992	0.078057	0.124291
H98	H	0.810642	0.014143	0.149698
Cl99	Cl	0.790441	-0.001141	0.279196
H100	H	0.976277	0.139328	0.265006
H101	H	1.021936	0.173826	0.442193
H102	H	0.266490	0.075205	-0.099999
H103	H	1.088540	-0.388734	-0.000063
Cl104	Cl	1.042168	0.189107	0.571641
H105	H	1.022175	-0.216364	-0.000055
H106	H	1.023883	-0.108609	-0.000035
H107	H	0.765069	-0.020382	0.442304
H108	H	0.663685	0.079982	0.099899
Cl109	Cl	1.117180	-0.512679	-0.000072
H110	H	0.763094	-0.737916	-0.000060
H111	H	0.663783	0.079988	-0.099980
Cl112	Cl	0.503100	0.078057	-0.124383
Cl113	Cl	0.734453	-0.613965	-0.000067
H114	H	0.700158	-0.350029	-0.000075
Cl115	Cl	0.283873	0.075411	0.124275
Cl116	Cl	0.105701	0.073264	0.124270
Cl117	Cl	0.996545	0.154609	0.720705
Cl118	Cl	0.741016	-0.201542	-0.000033
H119	H	0.773507	-0.083659	-0.000031
Cl120	Cl	0.996453	0.154618	0.135529
H121	H	0.976338	0.139326	0.850198
H122	H	0.810722	0.014142	0.850264
H123	H	0.810719	0.014132	0.734883
Cl124	Cl	0.744862	-0.035664	0.571777
