data_functionalizedCrystal
_audit_creation_method	'MofGen! by Chris Wilmer'
_symmetry_space_group_name_H-M	'P1'
_symmetry_Int_Tables_number	1
_symmetry_cell_setting	triclinic
loop_
_symmetry_equiv_pos_as_xyz
  x,y,z
_cell_length_a	6.817900
_cell_length_b	10.943632
_cell_length_c	10.943624
_cell_angle_alpha	91.771060
_cell_angle_beta	108.838799
_cell_angle_gamma	108.838880
loop_
_atom_site_label
_atom_site_type_symbol
_atom_site_fract_x
_atom_site_fract_y
_atom_site_fract_z
V1	V	-4.115495	-0.178596	-0.402520
O2	O	-4.073204	0.008617	-0.394890
O3	O	-4.093445	-0.354159	-0.399737
O4	O	-4.093458	-0.175834	-0.578087
O5	O	-4.073192	-0.170943	-0.215305
V6	V	-4.592293	-0.156205	-0.380131
O7	O	-4.391506	-0.227713	-0.451632
O8	O	-4.766479	-0.107088	-0.331020
O9	O	-4.391136	0.019358	-0.382915
O10	O	-4.751980	-0.343418	-0.387762
O11	O	-4.751993	-0.163858	-0.567347
O12	O	-4.391123	-0.158967	-0.204564
C13	C	-3.944003	-0.396958	-0.393379
C14	C	-4.007438	-0.540484	-0.392273
C15	C	-3.852284	-0.617637	-0.384920
C16	C	-3.931120	-0.690292	-0.280695
C17	C	-4.041658	-0.723567	-0.494542
C18	C	-4.085393	-0.611235	-0.287974
C19	C	-4.195950	-0.644516	-0.501916
C20	C	-4.274895	-0.717134	-0.397670
C21	C	-3.944018	-0.169484	-0.620881
C22	C	-4.007457	-0.168388	-0.764408
C23	C	-3.852287	-0.161001	-0.841556
C24	C	-4.041646	-0.270645	-0.947527
C25	C	-3.931164	-0.056801	-0.914178
C26	C	-4.196026	-0.278134	-0.868502
C27	C	-4.085465	-0.064194	-0.835129
C28	C	-4.274960	-0.173869	-0.941070
C29	C	-4.203920	0.062151	-0.389269
C30	C	-4.119726	0.205675	-0.390383
C31	C	-4.203905	-0.165321	-0.161764
C32	C	-4.119703	-0.166411	-0.018236
H33	H	-3.672971	-0.574154	-0.379408
H34	H	-3.819813	-0.711058	-0.187152
H35	H	-3.819816	0.036718	-0.934956
H36	H	-4.103227	-0.562474	-0.200587
C37	C	-4.517048	-0.775541	-0.404903
H38	H	-4.532668	-0.736562	-0.331468
H39	H	-4.611146	-0.758987	-0.482789
H40	H	-4.556704	-0.867117	-0.404884
H41	H	-4.023738	-0.772480	-0.581812
C42	C	-4.346491	-0.404644	-0.840737
H43	H	-4.304918	-0.404608	-0.749090
H44	H	-4.496180	-0.409491	-0.875701
H45	H	-4.331156	-0.477886	-0.880275
H46	H	-4.454274	-0.179336	-0.984314
C47	C	-3.610212	-0.153850	-0.782844
H48	H	-3.594527	-0.227325	-0.821700
H49	H	-3.515914	-0.075999	-0.799326
H50	H	-3.570871	-0.153843	-0.691277
C51	C	-4.109469	0.053714	-0.768962
H52	H	-4.014673	0.132255	-0.784035
H53	H	-4.258529	0.049965	-0.804335
H54	H	-4.069952	0.051682	-0.677676
C55	C	-4.017522	-0.388541	-1.013650
H56	H	-3.867842	-0.383859	-0.979395
H57	H	-4.110195	-0.467066	-0.997210
H58	H	-4.059603	-0.387412	-1.105141
C59	C	-4.346188	-0.616402	-0.628280
H60	H	-4.329857	-0.655128	-0.701577
H61	H	-4.496047	-0.652017	-0.633576
H62	H	-4.305301	-0.524702	-0.627660
