data_functionalizedCrystal
_audit_creation_method	'MofGen! by Chris Wilmer'
_symmetry_space_group_name_H-M	'P1'
_symmetry_Int_Tables_number	1
_symmetry_cell_setting	triclinic
loop_
_symmetry_equiv_pos_as_xyz
  x,y,z
_cell_length_a	15.538191
_cell_length_b	15.944551
_cell_length_c	14.185569
_cell_angle_alpha	76.843158
_cell_angle_beta	97.875798
_cell_angle_gamma	65.385416
loop_
_atom_site_label
_atom_site_type_symbol
_atom_site_fract_x
_atom_site_fract_y
_atom_site_fract_z
O1	O	1.228526	-0.247244	-0.083424
O2	O	0.954273	-0.150258	-0.083426
O3	O	1.098891	-0.323313	-0.083416
O4	O	1.083908	-0.074190	-0.083434
O5	O	1.141613	-0.374430	0.083422
O6	O	0.996995	-0.201376	0.083412
O7	O	1.271248	-0.298362	0.083414
Cu8	Cu	1.138022	-0.254536	0.098646
Cu9	Cu	1.087499	-0.194084	-0.098658
O10	O	1.126630	-0.125307	0.083404
C11	C	0.940539	-0.165670	-0.000007
C12	C	0.835967	-0.135444	-0.000007
C13	C	0.548159	-0.435726	-0.000001
C14	C	0.449895	-0.407303	-0.000004
C15	C	0.427459	-0.247430	-0.000015
C16	C	0.525725	-0.275842	-0.000008
C17	C	0.586068	-0.369990	-0.000002
C18	C	0.563633	-0.210106	-0.000008
C19	C	0.661889	-0.238513	-0.000006
C20	C	0.722237	-0.332657	-0.000003
C21	C	0.684324	-0.398398	0.000001
C22	C	0.503287	-0.115955	-0.000021
C23	C	0.541195	-0.050219	-0.000022
C24	C	0.639455	-0.078629	-0.000012
C25	C	0.699803	-0.172772	-0.000009
C26	C	0.677368	-0.012888	-0.000016
C27	C	0.775625	-0.041296	-0.000013
C28	C	0.798059	-0.201180	-0.000007
C29	C	1.119630	-0.379976	0.000003
C30	C	1.117766	-0.472653	0.000004
C31	C	1.023667	-0.658813	-0.000011
C32	C	1.088426	-0.758358	0.082251
C33	C	1.114392	-0.642349	-0.000004
C34	C	1.046328	-0.707950	-0.082238
C35	C	1.111124	-0.806262	-0.000016
C36	C	1.179193	-0.740694	0.082325
C37	C	1.137063	-0.690253	-0.082237
C38	C	1.201893	-0.789808	0.000044
C39	C	1.116272	-0.547921	0.000004
C40	C	1.109253	-0.900693	-0.000016
C41	C	1.284982	-0.282950	-0.000007
C42	C	1.389552	-0.313173	-0.000014
C43	C	1.105890	-0.068644	-0.000017
C44	C	1.107753	0.024036	-0.000025
N45	N	1.173564	-0.297058	0.237420
N46	N	1.051965	-0.151571	-0.237432
C47	C	0.947542	-0.026679	0.605054
C48	C	0.974471	-0.058885	0.710078
C49	C	1.102556	-0.212090	0.710047
C50	C	1.075635	-0.179898	0.605022
C51	C	0.998128	-0.087192	0.552534
C52	C	1.126220	-0.240411	0.552501
C53	C	1.099304	-0.208220	0.447485
C54	C	1.021802	-0.115516	0.394989
C55	C	0.971211	-0.055001	0.447517
C56	C	1.203732	-0.333115	0.604991
C57	C	1.254318	-0.393628	0.552471
C58	C	1.227397	-0.361440	0.447452
C59	C	1.149895	-0.268736	0.394957
C60	C	1.277988	-0.421956	0.394924
C61	C	1.251071	-0.389765	0.289908
C62	C	1.122978	-0.236545	0.289940
H63	H	0.733460	-0.475065	0.000012
F64	F	1.061550	-0.797200	0.173152
H65	H	1.317427	-0.469110	0.595219
F66	F	0.826810	-0.362890	-0.000006
H67	H	0.419035	-0.460840	-0.000005
F68	F	0.993160	-0.081254	0.283220
F69	F	0.612389	-0.535934	0.000017
F70	F	0.972877	-0.691061	-0.173132
H71	H	1.059858	-0.161058	0.247202
F72	F	1.232379	-0.367369	0.716761
H73	H	0.492050	0.026438	-0.000031
F74	F	0.363227	-0.147231	-0.000028
H75	H	0.628221	0.063771	-0.000031
H76	H	1.165666	-0.287571	0.752795
H77	H	1.341101	-0.497435	0.437674
F78	F	0.398713	-0.085722	-0.000025
H79	H	1.157593	-0.660505	-0.151786
F80	F	0.865040	0.071986	0.549190
F81	F	0.888709	0.043664	0.391653
F82	F	1.300421	-0.863208	0.000102
F83	F	0.925266	-0.585295	0.000091
F84	F	1.304914	-0.454170	0.234011
F85	F	0.920623	0.005533	0.765967
F86	F	0.862289	-0.301388	0.000011
F87	F	0.815971	0.028668	-0.000016
F88	F	1.252612	-0.757733	0.173325
