data_functionalizedCrystal
_audit_creation_method	'MofGen! by Chris Wilmer'
_symmetry_space_group_name_H-M	'P1'
_symmetry_Int_Tables_number	1
_symmetry_cell_setting	triclinic
loop_
_symmetry_equiv_pos_as_xyz
  x,y,z
_cell_length_a	14.908783
_cell_length_b	14.908520
_cell_length_c	14.908308
_cell_angle_alpha	96.360765
_cell_angle_beta	89.788727
_cell_angle_gamma	96.791586
loop_
_atom_site_label
_atom_site_type_symbol
_atom_site_fract_x
_atom_site_fract_y
_atom_site_fract_z
Zn1	Zn	1.325980	-0.317645	-0.605030
Zn2	Zn	1.325877	-0.460296	-0.462395
Zn3	Zn	1.184353	-0.316662	-0.445949
Zn4	Zn	1.165844	-0.477686	-0.604959
O5	O	1.250514	-0.393072	-0.529583
O6	O	1.452212	-0.329701	-0.593023
O7	O	1.314807	-0.433553	-0.333974
O8	O	1.210929	-0.189703	-0.460198
O9	O	1.452137	-0.434506	-0.488229
O10	O	1.314982	-0.190425	-0.577075
O11	O	1.210830	-0.328026	-0.321891
O12	O	1.055652	-0.344889	-0.460128
O13	O	1.179384	-0.464145	-0.731208
O14	O	1.042054	-0.463192	-0.576952
O15	O	1.297035	-0.346564	-0.731260
O16	O	1.296860	-0.589691	-0.488159
O17	O	1.179284	-0.602468	-0.592900
C18	C	1.016119	-0.405822	-0.516749
C19	C	0.915841	-0.411299	-0.511280
C20	C	0.727464	-0.312628	-0.610312
C21	C	0.633244	-0.317772	-0.605177
C22	C	0.633180	-0.426725	-0.495871
C23	C	0.727400	-0.421581	-0.501006
C24	C	0.774539	-0.364532	-0.558229
C25	C	0.868760	-0.359394	-0.563369
C26	C	0.868694	-0.468341	-0.454059
C27	C	0.774474	-0.473485	-0.448924
C28	C	1.236076	-0.629032	-0.542328
C29	C	1.229980	-0.729974	-0.547814
C30	C	1.341070	-0.906289	-0.449158
C31	C	1.335345	-1.001133	-0.454310
C32	C	1.212812	-1.014508	-0.563277
C33	C	1.218536	-0.919664	-0.558124
C34	C	1.282666	-0.865558	-0.501062
C35	C	1.288386	-0.770712	-0.495905
C36	C	1.165857	-0.784088	-0.604875
C37	C	1.160133	-0.878932	-0.610028
C38	C	1.485824	-0.380273	-0.542468
C39	C	1.586099	-0.374819	-0.547959
C40	C	1.236156	-0.407404	-0.764882
C41	C	1.230038	-0.413511	-0.865152
C42	C	1.265031	-0.156190	-0.516810
C43	C	1.271218	-0.055245	-0.511367
C44	C	1.341049	-0.302529	-1.053626
C45	C	1.335303	-0.308264	-1.147839
C46	C	1.212797	-0.430712	-1.147792
C47	C	1.218542	-0.424977	-1.053579
C48	C	1.282672	-0.360884	-1.006499
C49	C	1.288421	-0.355154	-0.912285
C50	C	1.165911	-0.477597	-0.912240
C51	C	1.160165	-0.483332	-1.006452
C52	C	1.264871	-0.378727	-0.295199
C53	C	1.271180	-0.372355	-0.194925
H54	H	0.765845	-0.266181	-0.656909
H55	H	1.160586	-0.482893	-1.186140
H56	H	1.393281	-0.862235	-0.402689
N57	N	1.102918	-0.540516	-0.861405
H58	H	1.061417	-0.581979	-0.905528
H59	H	1.139432	-0.578175	-0.826583
H60	H	0.594785	-0.473160	-0.449272
H61	H	1.340602	-0.726660	-0.449439
H62	H	1.382905	-1.034293	-0.412047
N63	N	0.919477	-0.524320	-0.397880
H64	H	0.907867	-0.507090	-0.331784
H65	H	0.898246	-0.590954	-0.414476
H66	H	0.594920	-0.275504	-0.647585
N67	N	1.090964	-0.937287	-0.671569
H68	H	1.122661	-0.977145	-0.717550
H69	H	1.049070	-0.976671	-0.634656
N70	N	0.919606	-0.297870	-0.625088
H71	H	0.875484	-0.265769	-0.657301
H72	H	0.963499	-0.251421	-0.588290
N73	N	0.723631	-0.535005	-0.387200
H74	H	0.656800	-0.530387	-0.391846
H75	H	0.735285	-0.599839	-0.405541
H76	H	1.393270	-0.250347	-1.015294
H77	H	1.160606	-1.058577	-0.609740
N78	N	1.102854	-0.740158	-0.660856
H79	H	1.116207	-0.671864	-0.648933
H80	H	1.111906	-0.759861	-0.726963
H81	H	1.340639	-0.302968	-0.873955
H82	H	1.382838	-0.260744	-1.186205
N83	N	1.090983	-0.552440	-1.057231
H84	H	1.096195	-0.547214	-1.124065
H85	H	1.102045	-0.615541	-1.045041
