data_functionalizedCrystal
_audit_creation_method	'MofGen! by Chris Wilmer'
_symmetry_space_group_name_H-M	'P1'
_symmetry_Int_Tables_number	1
_symmetry_cell_setting	triclinic
loop_
_symmetry_equiv_pos_as_xyz
  x,y,z
_cell_length_a	18.215407
_cell_length_b	29.839131
_cell_length_c	18.215407
_cell_angle_alpha	90.015142
_cell_angle_beta	90.010236
_cell_angle_gamma	90.041868
loop_
_atom_site_label
_atom_site_type_symbol
_atom_site_fract_x
_atom_site_fract_y
_atom_site_fract_z
Zn1	Zn	1.124918	-0.178922	0.416101
Zn2	Zn	1.124811	-0.254031	0.293028
Zn3	Zn	1.001871	-0.178916	0.293048
Zn4	Zn	1.001781	-0.254027	0.416053
O5	O	1.063345	-0.216474	0.354557
O6	O	1.227888	-0.188890	0.399786
O7	O	1.108496	-0.244066	0.190047
O8	O	1.018276	-0.116050	0.309400
O9	O	1.227810	-0.244072	0.309366
O10	O	1.108678	-0.116054	0.399806
O11	O	1.018172	-0.188880	0.190061
O12	O	0.898875	-0.188876	0.309353
O13	O	1.018122	-0.244065	0.519044
O14	O	0.898808	-0.244059	0.399724
O15	O	1.108590	-0.188886	0.519079
O16	O	1.108409	-0.316898	0.309319
O17	O	1.018019	-0.316894	0.399705
C18	C	0.872139	-0.216466	0.354536
C19	C	0.790340	-0.216474	0.354545
C20	C	0.602131	-0.245253	0.401542
C21	C	0.525272	-0.245254	0.401551
C22	C	0.525311	-0.187703	0.307589
C23	C	0.602169	-0.187700	0.307584
C24	C	0.640576	-0.216477	0.354559
C25	C	0.486860	-0.216482	0.354574
C26	C	0.403527	-0.216483	0.354583
C27	C	0.723915	-0.216476	0.354551
C28	C	1.063212	-0.333197	0.354521
C29	C	1.063223	-0.383131	0.354530
C30	C	1.110497	-0.692764	0.307562
C31	C	1.110588	-0.880437	0.307591
O32	O	1.150676	-0.904692	0.267629
N33	N	1.063498	-0.903916	0.354613
C34	C	1.016385	-0.880475	0.401635
O35	O	0.976340	-0.904752	0.441636
C36	C	1.016299	-0.692802	0.401609
C37	C	1.063386	-0.669325	0.354579
C38	C	1.157581	-0.669286	0.260536
C39	C	1.157555	-0.622371	0.260527
C40	C	1.110445	-0.598933	0.307543
C41	C	1.063360	-0.622410	0.354569
C42	C	0.969190	-0.669362	0.448634
C43	C	0.969174	-0.622441	0.448625
C44	C	1.016262	-0.598964	0.401594
C45	C	1.016224	-0.552056	0.401576
N46	N	1.063314	-0.528577	0.354554
C47	C	1.110424	-0.552015	0.307538
C48	C	1.016433	-0.979005	0.401644
C49	C	1.016453	-1.025923	0.401649
C50	C	1.110657	-1.025882	0.307606
C51	C	1.110632	-0.978963	0.307597
C52	C	1.063523	-0.955526	0.354622
C53	C	1.110365	-0.453489	0.307521
C54	C	1.110333	-0.406569	0.307513
C55	C	1.016133	-0.406615	0.401559
C56	C	1.016162	-0.453530	0.401564
C57	C	1.063284	-0.476966	0.354542
O58	O	0.976162	-0.527772	0.441523
O59	O	1.150475	-0.527730	0.267554
C60	C	1.110523	-0.739679	0.307572
C61	C	1.063438	-0.763156	0.354598
C62	C	1.016328	-0.739718	0.401614
C63	C	1.063459	-0.810074	0.354603
C64	C	1.110569	-0.833512	0.307587
C65	C	1.157659	-0.810033	0.260565
C66	C	1.157633	-0.763117	0.260555
C67	C	0.969238	-0.763197	0.448636
C68	C	0.969267	-0.810113	0.448641
C69	C	1.016378	-0.833551	0.401625
C70	C	1.255298	-0.216482	0.354579
C71	C	1.337097	-0.216486	0.354588
C72	C	1.063358	-0.216475	0.546510
C73	C	1.063363	-0.216476	0.628309
C74	C	1.063498	-0.099296	0.354610
C75	C	1.063564	-0.049361	0.354633
C76	C	1.110455	-0.187749	0.816523
C77	C	1.110451	-0.187749	0.893381
C78	C	1.016247	-0.245209	0.893334
C79	C	1.016248	-0.245207	0.816476
C80	C	1.063356	-0.216477	0.778073
C81	C	1.063351	-0.216480	0.931789
C82	C	1.063346	-0.216480	1.015122
C83	C	1.063360	-0.216477	0.694734
C84	C	1.063333	-0.216483	1.163351
C85	C	1.063344	-0.216481	1.081552
H86	H	0.493973	-0.268686	0.439810
F87	F	0.643004	-0.275879	0.451539
H88	H	0.930876	-0.744118	0.486924
F89	F	0.966033	-0.478517	0.451605
H90	H	0.494031	-0.164275	0.269342
F91	F	0.643088	-0.157069	0.257580
F92	F	0.965999	-0.381662	0.451597
H93	H	0.930843	-0.688469	0.486928
F94	F	1.207796	-0.834986	0.210524
F95	F	0.966116	-0.275785	0.934212
F96	F	0.919144	-0.835094	0.498700
H97	H	0.977889	-0.268601	0.785170
H98	H	0.978103	-1.045034	0.439939
F99	F	1.160590	-0.157171	0.775653
H100	H	1.148677	-0.387456	0.269213
H101	H	1.148739	-0.472565	0.269233
H102	H	1.195900	-0.603258	0.222233
H103	H	1.195948	-0.688365	0.222250
F104	F	1.160749	-0.953981	0.257542
H105	H	1.149016	-1.044973	0.269324
F106	F	0.966288	-0.954067	0.451696
H107	H	0.930813	-0.603360	0.486920
H108	H	1.195977	-0.744005	0.222259
H109	H	1.148803	-0.164354	0.924684
