data_functionalizedCrystal
_audit_creation_method	'MofGen! by Chris Wilmer'
_symmetry_space_group_name_H-M	'P1'
_symmetry_Int_Tables_number	1
_symmetry_cell_setting	triclinic
loop_
_symmetry_equiv_pos_as_xyz
  x,y,z
_cell_length_a	19.288862
_cell_length_b	15.500227
_cell_length_c	19.288865
_cell_angle_alpha	87.186965
_cell_angle_beta	96.864237
_cell_angle_gamma	87.148777
loop_
_atom_site_label
_atom_site_type_symbol
_atom_site_fract_x
_atom_site_fract_y
_atom_site_fract_z
O1	O	-0.924606	0.072288	0.083390
O2	O	-0.424606	0.572288	0.583390
O3	O	-0.722342	0.072218	0.095083
O4	O	-0.222342	0.572218	0.595083
O5	O	-0.829318	0.072238	-0.011893
O6	O	-0.329318	0.572238	0.488107
O7	O	-0.817630	0.072268	0.190366
O8	O	-0.317630	0.572268	0.690366
O9	O	-0.822826	-0.071652	-0.005427
O10	O	-0.322826	0.428348	0.494573
O11	O	-0.715850	-0.071672	0.101550
O12	O	-0.215850	0.428328	0.601550
O13	O	-0.918114	-0.071601	0.089856
O14	O	-0.418114	0.428399	0.589856
Cu15	Cu	-0.816390	-0.084775	0.096293
Cu16	Cu	-0.316390	0.415225	0.596293
Cu17	Cu	-0.824067	0.085392	0.088646
Cu18	Cu	-0.324067	0.585392	0.588646
O19	O	-0.811139	-0.071621	0.196832
O20	O	-0.311139	0.428379	0.696832
C21	C	-0.693219	0.000264	0.097941
C22	C	-0.193219	0.500264	0.597941
C23	C	-0.616114	0.000237	0.096814
C24	C	-0.116114	0.500237	0.596814
N25	N	-0.810995	-0.204461	0.101671
N26	N	-0.310995	0.295539	0.601671
C27	C	-0.571419	0.000257	0.159581
C28	C	-0.071419	0.500257	0.659581
C29	C	-0.498972	0.000262	0.158521
C30	C	0.001028	0.500262	0.658521
C31	C	-0.471225	0.000264	0.094689
C32	C	0.028775	0.500264	0.594689
C33	C	-0.515930	0.000239	0.031913
C34	C	-0.015930	0.500239	0.531913
C35	C	-0.588374	0.000225	0.032976
C36	C	-0.088374	0.500225	0.532976
C37	C	-0.365237	0.050690	0.042245
C38	C	0.134763	0.550690	0.542245
C39	C	-0.292794	0.050709	0.041184
C40	C	0.207206	0.550709	0.541184
C41	C	-0.247780	0.000302	0.091409
C42	C	0.252220	0.500302	0.591409
C43	C	-0.275219	-0.050112	0.142706
C44	C	0.224781	0.449888	0.642706
C45	C	-0.347664	-0.050126	0.143768
C46	C	0.152336	0.449874	0.643768
C47	C	-0.392671	0.000278	0.093530
C48	C	0.107329	0.500278	0.593530
C49	C	-0.124529	0.000327	0.153031
C50	C	0.375471	0.500327	0.653031
C51	C	-0.052081	0.000326	0.151969
C52	C	0.447919	0.500326	0.651969
C53	C	-0.069041	0.000312	0.025359
C54	C	0.430959	0.500312	0.525359
C55	C	-0.141487	0.000303	0.026424
C56	C	0.358513	0.500303	0.526424
C57	C	-0.169227	0.000315	0.090262
C58	C	0.330773	0.500315	0.590262
C59	C	-0.856340	-0.249729	0.056358
C60	C	-0.356340	0.250271	0.556358
C61	C	-0.852267	-0.340303	0.060432
C62	C	-0.352267	0.159697	0.560432
C63	C	-0.802851	-0.385606	0.109823
C64	C	-0.302851	0.114394	0.609823
C65	C	-0.757502	-0.340332	0.155138
C66	C	-0.257502	0.159668	0.655138
C67	C	-0.761572	-0.249760	0.151060
C68	C	-0.261572	0.250240	0.651060
C69	C	-0.788187	-0.659076	0.124500
C70	C	-0.288187	-0.159076	0.624500
C71	C	-0.784122	-0.749654	0.128576
C72	C	-0.284122	-0.249654	0.628576
C73	C	-0.878887	-0.749619	0.033868
C74	C	-0.378887	-0.249619	0.533868
C75	C	-0.882956	-0.659045	0.029798
C76	C	-0.382956	-0.159045	0.529798
C77	C	-0.837603	-0.613778	0.075111
C78	C	-0.337603	-0.113778	0.575111
C79	C	-0.798688	-0.478187	0.113989
C80	C	-0.298688	0.021813	0.613989
C81	C	-0.841764	-0.521199	0.070940
C82	C	-0.341764	-0.021199	0.570940
C83	C	0.052764	0.000339	0.087001
C84	C	0.552764	0.500339	0.587001
C85	C	-0.024338	0.000327	0.088136
C86	C	0.475662	0.500327	0.588136
C87	C	-0.825696	0.000291	-0.034536
C88	C	-0.325696	0.500291	0.465464
C89	C	-0.824566	0.000283	-0.111640
C90	C	-0.324566	0.500283	0.388360
N91	N	-0.829467	0.205078	0.083262
N92	N	-0.329467	0.705078	0.583262
C93	C	-0.887335	0.000300	-0.156337
C94	C	-0.387335	0.500300	0.343663
C95	C	-0.886275	0.000313	-0.228785
C96	C	-0.386275	0.500313	0.271215
C97	C	-0.822442	0.000292	-0.256531
C98	C	-0.322442	0.500292	0.243469
C99	C	-0.759665	0.000279	-0.211824
C100	C	-0.259665	0.500279	0.288176
C101	C	-0.760727	0.000275	-0.139378
C102	C	-0.260727	0.500275	0.360622
C103	C	-0.769988	-0.050127	-0.362552
C104	C	-0.269988	0.449873	0.137448
C105	C	-0.768928	-0.050128	-0.434997
C106	C	-0.268928	0.449872	0.065003
C107	C	-0.819163	0.000310	-0.479977
C108	C	-0.319163	0.500310	0.020023
C109	C	-0.870469	0.050737	-0.452506
C110	C	-0.370469	0.550737	0.047494
C111	C	-0.871532	0.050733	-0.380060
C112	C	-0.371532	0.550733	0.119940
C113	C	-0.821283	0.000297	-0.335085
C114	C	-0.321283	0.500297	0.164915
C115	C	-0.880787	0.000343	-0.603232
C116	C	-0.380787	0.500343	-0.103232
C117	C	-0.879724	0.000362	-0.675681
C118	C	-0.379724	0.500362	-0.175681
C119	C	-0.753112	0.000319	-0.658717
C120	C	-0.253112	0.500319	-0.158717
C121	C	-0.754177	0.000309	-0.586270
C122	C	-0.254177	0.500309	-0.086270
C123	C	-0.818016	0.000317	-0.558532
C124	C	-0.318016	0.500317	-0.058532
C125	C	-0.814761	0.000328	0.219476
C126	C	-0.314761	0.500328	0.719476
C127	C	-0.815890	0.000342	0.296578
C128	C	-0.315890	0.500342	0.796578
H129	H	-0.462574	0.000276	0.209635
H130	H	0.037426	0.500276	0.709635
N131	N	-0.264754	0.102201	-0.011202
N132	N	0.235246	0.602201	0.488798
N133	N	-0.224188	0.159925	0.006252
N134	N	0.275812	0.659925	0.506252
H135	H	-0.204384	0.196291	-0.030747
H136	H	0.295616	0.696291	0.469253
N137	N	-0.741865	-0.612863	0.170800
N138	N	-0.241865	-0.112863	0.670800
N139	N	-0.742160	-0.622966	0.235454
N140	N	-0.242160	-0.122966	0.735454
H141	H	-0.709442	-0.590328	0.268157
H142	H	-0.209442	-0.090328	0.768157
H143	H	-0.717263	-0.377223	0.195350
H144	H	-0.217263	0.122777	0.695350
N145	N	-0.375705	-0.101614	0.196155
N146	N	0.124295	0.398386	0.696155
N147	N	-0.412072	-0.066402	0.237446
N148	N	0.087928	0.433598	0.737446
H149	H	-0.431878	-0.102768	0.274444
H150	H	0.068122	0.397232	0.774444
H151	H	-0.707692	0.000264	-0.234419
H152	H	-0.207692	0.500264	0.265581
H153	H	-0.238570	-0.091159	0.183603
H154	H	0.261430	0.408841	0.683603
N155	N	-0.952543	0.000301	-0.128005
N156	N	-0.452543	0.500301	0.371995
N157	N	-0.992072	-0.060341	-0.139059
N158	N	-0.492072	0.439659	0.360941
H159	H	-1.038126	-0.060341	-0.119048
H160	H	-0.538126	0.439659	0.380952
H161	H	-0.147115	0.000324	0.205013
H162	H	0.352885	0.500324	0.705013
N163	N	-0.748205	-0.524456	0.164438
N164	N	-0.248205	-0.024456	0.664438
N165	N	-0.684462	-0.514384	0.163195
N166	N	-0.184462	-0.014384	0.663195
H167	H	-0.648806	-0.547064	0.198822
H168	H	-0.148806	-0.047064	0.698822
N169	N	-0.906777	-0.203441	0.005874
N170	N	-0.406777	0.296559	0.505874
N171	N	-0.905523	-0.213583	-0.057862
N172	N	-0.405523	0.286417	0.442138
H173	H	-0.941129	-0.180884	-0.093529
H174	H	-0.441129	0.319116	0.406471
N175	N	-0.715245	-0.203530	0.197349
N176	N	-0.215245	0.296470	0.697349
N177	N	-0.671126	-0.243987	0.241444
N178	N	-0.171126	0.256013	0.741444
H179	H	-0.638404	-0.211339	0.274136
H180	H	-0.138404	0.288661	0.774136
H181	H	-0.015690	0.000338	0.203084
H182	H	0.484310	0.500338	0.703084
H183	H	-0.881996	-0.484310	0.030724
H184	H	-0.381996	0.015690	0.530724
H185	H	-0.937391	0.000331	-0.265185
H186	H	-0.437391	0.500331	0.234815
H187	H	-0.401883	0.091742	0.001344
H188	H	0.098117	0.591742	0.501344
N189	N	-0.921786	0.102279	-0.498433
N190	N	-0.421786	0.602279	0.001567
N191	N	-0.967585	0.147303	-0.473896
N192	N	-0.467585	0.647303	0.026104
H193	H	-1.003827	0.183703	-0.506333
H194	H	-0.503827	0.683703	-0.006333
H195	H	-0.743880	-0.786536	0.168798
H196	H	-0.243880	-0.286536	0.668798
H197	H	-0.703063	0.000290	-0.549876
H198	H	-0.203063	0.500290	-0.049876
N199	N	-0.923940	0.102243	-0.352009
N200	N	-0.423940	0.602243	0.147991
N201	N	-0.968793	0.147273	-0.392171
N202	N	-0.468793	0.647273	0.107829
H203	H	-1.005807	0.183656	-0.372361
H204	H	-0.505807	0.683656	0.127639
N205	N	-0.040718	0.000322	-0.039851
N206	N	0.459282	0.500322	0.460149
N207	N	-0.080638	0.000313	-0.095891
N208	N	0.419362	0.500313	0.404109
H209	H	-0.060634	0.000319	-0.141949
H210	H	0.439366	0.500319	0.358051
N211	N	-0.187136	0.000285	-0.037699
N212	N	0.312864	0.500285	0.462301
N213	N	-0.162356	0.000283	-0.094688
N214	N	0.337644	0.500283	0.405312
H215	H	-0.194596	0.000267	-0.139979
H216	H	0.305404	0.500267	0.360021
N217	N	-0.487578	0.000232	-0.033283
N218	N	0.012422	0.500232	0.466717
N219	N	-0.422895	0.000244	-0.034224
N220	N	0.077105	0.500244	0.465776
H221	H	-0.402871	0.000235	-0.080271
H222	H	0.097129	0.500235	0.419729
H223	H	-0.932768	0.000354	-0.580646
H224	H	-0.432768	0.500354	-0.080646
N225	N	-0.718678	-0.101669	-0.316612
N226	N	-0.218678	0.398331	0.183388
N227	N	-0.737314	-0.159381	-0.276372
N228	N	-0.237314	0.340619	0.223628
H229	H	-0.701078	-0.195783	-0.243928
H230	H	-0.201078	0.304217	0.256072
N231	N	-0.634024	0.000200	-0.031149
N232	N	-0.134024	0.500200	0.468851
N233	N	-0.609245	0.000193	-0.088139
N234	N	-0.109245	0.500193	0.411861
H235	H	-0.641485	0.000176	-0.133428
H236	H	-0.141485	0.500176	0.366572
N237	N	-0.898588	-0.386529	0.014137
N238	N	-0.398588	0.113471	0.514137
N239	N	-0.942708	-0.346069	-0.029956
N240	N	-0.442708	0.153931	0.470044
H241	H	-0.975425	-0.378716	-0.062655
H242	H	-0.475425	0.121284	0.437345
H243	H	-0.923194	-0.622160	-0.010420
H244	H	-0.423194	-0.122160	0.489580
H245	H	-0.930840	0.000381	-0.712074
H246	H	-0.430840	0.500381	-0.212074
N247	N	-0.716539	-0.101675	-0.463045
N248	N	-0.216539	0.398325	0.036955
N249	N	-0.671696	-0.146714	-0.422879
N250	N	-0.171696	0.353286	0.077121
H251	H	-0.634702	-0.183132	-0.442687
H252	H	-0.134702	0.316868	0.057313
N253	N	-0.687912	0.000289	-0.687061
N254	N	-0.187912	0.500289	-0.187061
N255	N	-0.670460	-0.060365	-0.722880
N256	N	-0.170460	0.439635	-0.222880
H257	H	-0.624411	-0.060384	-0.742901
H258	H	-0.124411	0.439616	-0.242901
N259	N	-0.599742	0.000272	0.224794
N260	N	-0.099742	0.500272	0.724794
N261	N	-0.559821	0.000291	0.280832
N262	N	-0.059821	0.500291	0.780832
H263	H	-0.579825	0.000302	0.326890
H264	H	-0.079825	0.500302	0.826890
N265	N	-0.925204	-0.795871	-0.012409
N266	N	-0.425204	-0.295871	0.487591
N267	N	-0.921567	-0.876738	-0.008764
N268	N	-0.421567	-0.376738	0.491236
H269	H	-0.954279	-0.909405	-0.041451
H270	H	-0.454279	-0.409405	0.458549
N271	N	-0.696608	0.000270	-0.093716
N272	N	-0.196608	0.500270	0.406284
N273	N	-0.656843	0.060914	-0.098842
N274	N	-0.156843	0.560914	0.401158
H275	H	-0.611558	0.060911	-0.066591
H276	H	-0.111558	0.560911	0.433409
