data_functionalizedCrystal
_audit_creation_method	'MofGen! by Chris Wilmer'
_symmetry_space_group_name_H-M	'P1'
_symmetry_Int_Tables_number	1
_symmetry_cell_setting	triclinic
loop_
_symmetry_equiv_pos_as_xyz
  x,y,z
_cell_length_a	25.639242
_cell_length_b	25.639239
_cell_length_c	12.759393
_cell_angle_alpha	89.962948
_cell_angle_beta	89.977361
_cell_angle_gamma	90.030990
loop_
_atom_site_label
_atom_site_type_symbol
_atom_site_fract_x
_atom_site_fract_y
_atom_site_fract_z
Zn1	Zn	0.799268	-0.208227	-0.594057
Zn2	Zn	1.299268	0.291773	-0.094057
Zn3	Zn	0.799179	-0.295674	-0.418360
Zn4	Zn	1.299179	0.204326	0.081640
Zn5	Zn	0.711831	-0.208243	-0.418384
Zn6	Zn	1.211831	0.291757	0.081616
Zn7	Zn	0.711789	-0.295622	-0.593989
Zn8	Zn	1.211789	0.204378	-0.093989
O9	O	0.755517	-0.251941	-0.506198
O10	O	1.255517	0.248059	-0.006198
O11	O	0.872421	-0.219843	-0.570769
O12	O	1.372421	0.280157	-0.070769
O13	O	0.787572	-0.284104	-0.271342
O14	O	1.287572	0.215896	0.228658
O15	O	0.723485	-0.135075	-0.441726
O16	O	1.223485	0.364925	0.058274
O17	O	0.872356	-0.284089	-0.441686
O18	O	1.372356	0.215911	0.058314
O19	O	0.787724	-0.135064	-0.570792
O20	O	1.287724	0.364936	-0.070792
O21	O	0.723399	-0.219869	-0.271360
O22	O	1.223399	0.280131	0.228640
O23	O	0.638661	-0.219818	-0.441660
O24	O	1.138661	0.280182	0.058340
O25	O	0.723413	-0.284000	-0.741019
O26	O	1.223413	0.216000	-0.241019
O27	O	0.638630	-0.284015	-0.570676
O28	O	1.138630	0.215985	-0.070676
O29	O	0.787683	-0.219792	-0.741069
O30	O	1.287683	0.280208	-0.241069
O31	O	0.787531	-0.368832	-0.441620
O32	O	1.287531	0.131168	0.058380
O33	O	0.723327	-0.368794	-0.570653
O34	O	1.223327	0.131206	-0.070653
C35	C	0.619674	-0.251913	-0.506164
C36	C	1.119674	0.248087	-0.006164
C37	C	0.561560	-0.251914	-0.506174
C38	C	1.061560	0.248086	-0.006174
C39	C	0.310409	-0.218548	-0.573534
C40	C	0.810409	0.281452	-0.073534
C41	C	0.365013	-0.218542	-0.573528
C42	C	0.865013	0.281458	-0.073528
O43	O	0.393286	-0.190151	-0.630793
O44	O	0.893286	0.309849	-0.130793
N45	N	0.392286	-0.251935	-0.506210
N46	N	0.892286	0.248065	-0.006210
C47	C	0.364952	-0.285339	-0.438900
C48	C	0.864952	0.214661	0.061100
O49	O	0.393164	-0.313743	-0.381641
O50	O	0.893164	0.186257	0.118359
C51	C	0.310349	-0.285347	-0.438912
C52	C	0.810349	0.214653	0.061088
C53	C	0.283079	-0.251948	-0.506228
C54	C	0.783079	0.248052	-0.006228
C55	C	0.283139	-0.185152	-0.640845
C56	C	0.783139	0.314848	-0.140845
C57	C	0.228538	-0.185156	-0.640849
C58	C	0.728538	0.314844	-0.140849
C59	C	0.201208	-0.218557	-0.573543
C60	C	0.701208	0.281443	-0.073543
C61	C	0.228478	-0.251953	-0.506232
C62	C	0.728478	0.248047	-0.006232
C63	C	0.283016	-0.318753	-0.371609
C64	C	0.783016	0.181247	0.128391
C65	C	0.228409	-0.318758	-0.371628
C66	C	0.728409	0.181242	0.128372
C67	C	0.201139	-0.285359	-0.438943
C68	C	0.701139	0.214641	0.061057
C69	C	0.146547	-0.285358	-0.438930
C70	C	0.646547	0.214642	0.061070
N71	N	0.119274	-0.251965	-0.506249
N72	N	0.619274	0.248035	-0.006249
C73	C	0.146604	-0.218564	-0.573555
C74	C	0.646604	0.281436	-0.073555
C75	C	0.479623	-0.285322	-0.438882
C76	C	0.979623	0.214678	0.061118
C77	C	0.534225	-0.285312	-0.438863
C78	C	1.034225	0.214688	0.061137
C79	C	0.534282	-0.218516	-0.573493
C80	C	1.034282	0.281484	-0.073493
C81	C	0.479679	-0.218523	-0.573505
C82	C	0.979679	0.281477	-0.073505
C83	C	0.452350	-0.251929	-0.506200
C84	C	0.952350	0.248071	-0.006200
C85	C	0.031939	-0.218576	-0.573558
C86	C	0.531939	0.281424	-0.073558
C87	C	-0.022666	-0.218582	-0.573554
C88	C	0.477334	0.281418	-0.073554
C89	C	-0.022718	-0.285380	-0.438929
C90	C	0.477282	0.214620	0.061071
C91	C	0.031882	-0.285373	-0.438929
C92	C	0.531882	0.214627	0.061071
C93	C	0.059210	-0.251969	-0.506252
C94	C	0.559210	0.248031	-0.006252
O95	O	0.118240	-0.313736	-0.381698
O96	O	0.618240	0.186264	0.118302
O97	O	0.118386	-0.190171	-0.630814
O98	O	0.618386	0.309829	-0.130814
C99	C	0.755429	-0.387784	-0.506150
C100	C	1.255429	0.112216	-0.006150
C101	C	0.755439	-0.445898	-0.506164
C102	C	1.255439	0.054102	-0.006164
C103	C	0.789035	-0.806268	-0.439124
C104	C	1.289035	-0.306268	0.060876
C105	C	0.789056	-0.860873	-0.439138
C106	C	1.289056	-0.360873	0.060862
O107	O	0.817529	-0.889116	-0.382086
O108	O	1.317529	-0.389116	0.117914
N109	N	0.755609	-0.888180	-0.506267
N110	N	1.255609	-0.388180	-0.006267
C111	C	0.722143	-0.860881	-0.573394
C112	C	1.222143	-0.360881	-0.073394
O113	O	0.693696	-0.889122	-0.630494
O114	O	1.193696	-0.389122	-0.130494
C115	C	0.722126	-0.806278	-0.573385
C116	C	1.222126	-0.306278	-0.073385
C117	C	0.755571	-0.778973	-0.506244
C118	C	1.255571	-0.278973	-0.006244
C119	C	0.822478	-0.778964	-0.371990
C120	C	1.322478	-0.278964	0.128010
C121	C	0.822457	-0.724363	-0.371975
C122	C	1.322457	-0.224363	0.128025
C123	C	0.788993	-0.697067	-0.439094
C124	C	1.288993	-0.197067	0.060906
C125	C	0.755550	-0.724372	-0.506229
C126	C	1.255550	-0.224372	-0.006229
C127	C	0.688663	-0.778979	-0.640516
C128	C	1.188663	-0.278979	-0.140516
C129	C	0.688649	-0.724372	-0.640501
C130	C	1.188649	-0.224372	-0.140501
C131	C	0.722094	-0.697067	-0.573360
C132	C	1.222094	-0.197067	-0.073360
C133	C	0.722065	-0.642476	-0.573333
C134	C	1.222065	-0.142476	-0.073333
N135	N	0.755512	-0.615168	-0.506204
N136	N	1.255512	-0.115168	-0.006204
C137	C	0.788976	-0.642464	-0.439084
C138	C	1.288976	-0.142464	0.060916
C139	C	0.722182	-0.975552	-0.573410
C140	C	1.222182	-0.475552	-0.073410
C141	C	0.722197	-1.030154	-0.573415
C142	C	1.222197	-0.530154	-0.073415
C143	C	0.789110	-1.030142	-0.439161
C144	C	1.289110	-0.530142	0.060839
C145	C	0.789093	-0.975539	-0.439151
C146	C	1.289093	-0.475539	0.060849
C147	C	0.755629	-0.948244	-0.506281
C148	C	1.255629	-0.448244	-0.006281
C149	C	0.788929	-0.527799	-0.439057
C150	C	1.288929	-0.027799	0.060943
C151	C	0.788903	-0.473194	-0.439045
C152	C	1.288903	0.026806	0.060955
C153	C	0.721992	-0.473210	-0.573303
C154	C	1.221992	0.026790	-0.073303
C155	C	0.722015	-0.527811	-0.573312
C156	C	1.222015	-0.027811	-0.073312
C157	C	0.755488	-0.555104	-0.506185
C158	C	1.255488	-0.055104	-0.006185
O159	O	0.693607	-0.614198	-0.630359
O160	O	1.193607	-0.114198	-0.130359
O161	O	0.817423	-0.614216	-0.382003
O162	O	1.317423	-0.114216	0.117997
C163	C	0.891890	-0.251970	-0.506232
C164	C	1.391890	0.248030	-0.006232
C165	C	0.950004	-0.251982	-0.506247
C166	C	1.450004	0.248018	-0.006247
C167	C	0.755553	-0.251889	-0.780231
C168	C	1.255553	0.248111	-0.280231
C169	C	0.755569	-0.251866	-0.897008
C170	C	1.255569	0.248134	-0.397008
C171	C	0.755619	-0.115568	-0.506269
C172	C	1.255619	0.384432	-0.006269
C173	C	0.755663	-0.057454	-0.506299
C174	C	1.255663	0.442546	-0.006299
C175	C	0.789039	-0.218430	-0.951898
C176	C	1.289039	0.281570	-0.451898
C177	C	0.789052	-0.218411	-1.061622
C178	C	1.289052	0.281589	-0.561622
C179	C	0.722122	-0.285269	-1.061557
C180	C	1.222122	0.214731	-0.561557
C181	C	0.722108	-0.285285	-0.951835
C182	C	1.222108	0.214715	-0.451835
C183	C	0.822500	-0.185011	-0.897071
C184	C	1.322500	0.314989	-0.397071
C185	C	0.855974	-0.151572	-0.951961
C186	C	1.355974	0.348428	-0.451961
C187	C	0.855986	-0.151553	-1.061685
C188	C	1.355986	0.348447	-0.561685
C189	C	0.822525	-0.184973	-1.116519
C190	C	1.322525	0.315027	-0.616519
C191	C	0.755510	-0.251956	-0.233230
C192	C	1.255510	0.248044	0.266770
C193	C	0.755596	-0.251831	-0.116454
C194	C	1.255596	0.248169	0.383546
H195	H	-0.044981	-0.312572	-0.384125
H196	H	0.455019	0.187428	0.115875
O197	O	-0.052078	-0.182555	-0.646157
O198	O	0.447922	0.317445	-0.146157
H199	H	-0.076959	-0.205986	-0.699524
H200	H	0.423041	0.294014	-0.199524
H201	H	0.556545	-0.191320	-0.628298
H202	H	1.056545	0.308680	-0.128298
H203	H	0.054087	-0.312564	-0.384106
H204	H	0.554087	0.187436	0.115894
O205	O	0.450272	-0.182501	-0.646117
O206	O	0.950272	0.317499	-0.146117
H207	H	0.425397	-0.155872	-0.599199
H208	H	0.925397	0.344128	-0.099199
O209	O	0.822534	-0.184945	-1.234866
O210	O	1.322534	0.315055	-0.734866
H211	H	0.793642	-0.213798	-1.263770
H212	H	1.293642	0.286202	-0.763770
O213	O	0.824981	-0.443742	-0.366634
O214	O	1.324981	0.056258	0.133366
H215	H	0.848259	-0.471900	-0.319976
H216	H	1.348259	0.028100	0.180024
O217	O	0.686035	-0.321316	-1.120692
O218	O	1.186035	0.178684	-0.620692
H219	H	0.691672	-0.315690	-1.206210
H220	H	1.191672	0.184310	-0.706210
O221	O	0.825026	-0.557233	-0.366650
O222	O	1.325026	-0.057233	0.133350
H223	H	0.848270	-0.529066	-0.319963
H224	H	1.348270	-0.029066	0.180037
H225	H	0.457375	-0.312524	-0.384065
H226	H	0.957375	0.187476	0.115935
O227	O	0.858538	-0.694915	-0.299574
O228	O	1.358538	-0.194915	0.200426
H229	H	0.881813	-0.723076	-0.252921
H230	H	1.381813	-0.223076	0.247079
O231	O	0.858571	-0.808400	-0.299584
O232	O	1.358571	-0.308400	0.200416
H233	H	0.881817	-0.780231	-0.252901
H234	H	1.381817	-0.280231	0.247099
H235	H	0.206160	-0.345963	-0.316821
H236	H	0.706160	0.154037	0.183179
O237	O	0.686116	-1.059597	-0.645824
O238	O	1.186116	-0.559597	-0.145824
H239	H	0.659532	-1.084512	-0.598759
H240	H	1.159532	-0.584512	-0.098759
H241	H	0.816360	-1.052376	-0.384512
H242	H	1.316360	-0.552376	0.115488
H243	H	0.054183	-0.191375	-0.628379
H244	H	0.554183	0.308625	-0.128379
O245	O	0.686073	-0.946118	-0.645798
O246	O	1.186073	-0.446118	-0.145798
H247	H	0.695012	-0.956565	-0.728275
H248	H	1.195012	-0.456565	-0.228275
O249	O	0.825171	-0.946089	-0.366748
O250	O	1.325171	-0.446089	0.133252
H251	H	0.848444	-0.974248	-0.320086
H252	H	1.348444	-0.474248	0.179914
H253	H	0.694845	-0.312504	-0.907142
H254	H	1.194845	0.187496	-0.407142
O255	O	0.199127	-0.149137	-0.713461
O256	O	0.699127	0.350863	-0.213461
H257	H	0.227313	-0.125917	-0.760262
H258	H	0.727313	0.374083	-0.260262
O259	O	0.652593	-0.808422	-0.712939
O260	O	1.152593	-0.308422	-0.212939
H261	H	0.629330	-0.780260	-0.759613
H262	H	1.129330	-0.280260	-0.259613
O263	O	0.312609	-0.149116	-0.713435
O264	O	0.812609	0.350884	-0.213435
H265	H	0.302140	-0.158125	-0.795862
H266	H	0.802140	0.341875	-0.295862
O267	O	0.312421	-0.354776	-0.299002
O268	O	0.812421	0.145224	0.200998
H269	H	0.284235	-0.378002	-0.252217
H270	H	0.784235	0.121998	0.247783
O271	O	0.563637	-0.321329	-0.366247
O272	O	1.063637	0.178671	0.133753
H273	H	0.535453	-0.344554	-0.319453
H274	H	1.035453	0.155446	0.180547
H275	H	0.661400	-0.702152	-0.695170
H276	H	1.161400	-0.202152	-0.195170
H277	H	0.694783	-0.550044	-0.627986
H278	H	1.194783	-0.050044	-0.127986
O279	O	0.685901	-0.443766	-0.645700
O280	O	1.185901	0.056234	-0.145700
H281	H	0.691514	-0.401210	-0.634413
H282	H	1.191514	0.098790	-0.134413
H283	H	0.822495	-0.185023	-0.807728
H284	H	1.322495	0.314977	-0.307728
O285	O	0.892064	-0.115529	-0.892828
O286	O	1.392064	0.384471	-0.392828
H287	H	0.886438	-0.121162	-0.807309
H288	H	1.386438	0.378838	-0.307309
O289	O	0.892086	-0.115490	-1.120894
O290	O	1.392086	0.384510	-0.620894
H291	H	0.915353	-0.092259	-1.064332
H292	H	1.415353	0.407741	-0.564332
