data_functionalizedCrystal
_audit_creation_method	'MofGen! by Chris Wilmer'
_symmetry_space_group_name_H-M	'P1'
_symmetry_Int_Tables_number	1
_symmetry_cell_setting	triclinic
loop_
_symmetry_equiv_pos_as_xyz
  x,y,z
_cell_length_a	17.640112
_cell_length_b	16.120484
_cell_length_c	17.640968
_cell_angle_alpha	82.192558
_cell_angle_beta	92.139080
_cell_angle_gamma	103.499326
loop_
_atom_site_label
_atom_site_type_symbol
_atom_site_fract_x
_atom_site_fract_y
_atom_site_fract_z
Zn1	Zn	1.246898	-0.023860	-0.196404
Zn2	Zn	1.214806	-0.195187	-0.078925
Zn3	Zn	1.092236	-0.077878	-0.098046
Zn4	Zn	1.113950	-0.184256	-0.230901
O5	O	1.166972	-0.120295	-0.151069
O6	O	1.349575	-0.028555	-0.158380
O7	O	1.176029	-0.206807	0.023304
O8	O	1.117096	0.045508	-0.104658
O9	O	1.325997	-0.154428	-0.072070
O10	O	1.230725	0.085195	-0.176921
O11	O	1.085978	-0.120621	0.009256
O12	O	0.988182	-0.110021	-0.138109
O13	O	1.154104	-0.135798	-0.331090
O14	O	1.004135	-0.188177	-0.235717
O15	O	1.251780	-0.017955	-0.305745
O16	O	1.197083	-0.309958	-0.105520
O17	O	1.122985	-0.301927	-0.217176
C18	C	0.968432	-0.153775	-0.192732
C19	C	0.883498	-0.168113	-0.210574
C20	C	0.562620	-0.011353	-0.015528
C21	C	0.482814	-0.024840	-0.032305
C22	C	0.499439	-0.106413	-0.133786
C23	C	0.579249	-0.092929	-0.117021
C24	C	0.610833	-0.045399	-0.057890
C25	C	0.627462	-0.126975	-0.159383
C26	C	0.707264	-0.113496	-0.142616
C27	C	0.738854	-0.065971	-0.083486
C28	C	0.690635	-0.031920	-0.041123
C29	C	0.595875	-0.174510	-0.218510
C30	C	0.644088	-0.208556	-0.260872
C31	C	0.723893	-0.195072	-0.244108
C32	C	0.755483	-0.147546	-0.184979
C33	C	0.772112	-0.229122	-0.286472
C34	C	0.851914	-0.215643	-0.269705
C35	C	0.835285	-0.134067	-0.168212
C36	C	1.158932	-0.336069	-0.163028
C37	C	1.155568	-0.428360	-0.168155
C38	C	1.149433	-0.597332	-0.177530
C39	C	1.184651	-0.642392	-0.124592
C40	C	1.181238	-0.736414	-0.129808
C41	C	1.152846	-0.503302	-0.172315
C42	C	1.366289	-0.086685	-0.109244
C43	C	1.451225	-0.072363	-0.091421
C44	C	1.208944	-0.069632	-0.346341
C45	C	1.226829	-0.048042	-0.429555
C46	C	1.175068	0.096329	-0.139075
C47	C	1.178518	0.188641	-0.133963
C48	C	1.031408	-0.283809	-0.769207
C49	C	1.048230	-0.263509	-0.847394
C50	C	1.149932	-0.140810	-0.820995
C51	C	1.133115	-0.161098	-0.742803
C52	C	1.073853	-0.232599	-0.716916
C53	C	1.175560	-0.109887	-0.690513
C54	C	1.158747	-0.130176	-0.612328
C55	C	1.099489	-0.201675	-0.586434
C56	C	1.057040	-0.252888	-0.638731
C57	C	1.234826	-0.038390	-0.716401
C58	C	1.277271	0.012820	-0.664110
C59	C	1.260455	-0.007464	-0.585924
C60	C	1.201197	-0.078964	-0.560030
C61	C	1.302904	0.043748	-0.533627
C62	C	1.286092	0.023459	-0.455442
C63	C	1.184384	-0.099252	-0.481846
C64	C	1.125211	-0.170694	0.043456
C65	C	1.107482	-0.192025	0.126714
H66	H	0.861005	-0.095349	-0.120072
H67	H	0.746382	-0.267828	-0.334611
H68	H	1.008765	-0.311094	-0.617656
C69	C	0.464692	-0.158688	-0.198828
H70	H	0.410261	-0.161835	-0.202752
H71	H	0.473329	-0.215122	-0.188139
H72	H	0.489047	-0.131340	-0.245730
H73	H	1.136109	-0.157459	-0.460770
H74	H	1.325525	0.071035	-0.685199
C75	C	0.609342	-0.260830	-0.325914
H76	H	0.554910	-0.263978	-0.329837
H77	H	0.617978	-0.317265	-0.315225
H78	H	0.633696	-0.233483	-0.372815
C79	C	1.368090	0.122391	-0.562110
H80	H	1.372022	0.127141	-0.616164
H81	H	1.416222	0.115572	-0.539188
H82	H	1.356230	0.172986	-0.548559
H83	H	0.891171	-0.243366	-0.304201
C84	C	1.105238	-0.640601	-0.244042
H85	H	1.083591	-0.599966	-0.276576
H86	H	1.064603	-0.687534	-0.224197
H87	H	1.140261	-0.660992	-0.272396
H88	H	0.530894	-0.185483	-0.232159
H89	H	0.803834	-0.054999	-0.069834
C90	C	1.228819	-0.599129	-0.058057
H91	H	1.225332	-0.540701	-0.063224
H92	H	1.282018	-0.601716	-0.059024
H93	H	1.206332	-0.628277	-0.010867
H94	H	0.983133	-0.342016	-0.748131
H95	H	1.085804	-0.218196	-0.522770
C96	C	1.001535	-0.319844	-0.904913
H97	H	0.963831	-0.365328	-0.878295
H98	H	1.035973	-0.343186	-0.931281
H99	H	0.975981	-0.285771	-0.940643
C100	C	0.725385	0.020375	0.023911
H101	H	0.685243	0.038725	0.046741
H102	H	0.764030	0.069208	0.003754
H103	H	0.748312	-0.014556	0.061366
H104	H	1.198185	-0.082596	-0.842083
C105	C	1.253323	-0.016068	-0.802402
H106	H	1.294703	0.033842	-0.810329
H107	H	1.208354	-0.005427	-0.829647
H108	H	1.268340	-0.062849	-0.820282
C109	C	1.332772	0.079795	-0.397921
H110	H	1.370467	0.125290	-0.424537
H111	H	1.358322	0.045730	-0.362187
H112	H	1.298323	0.103136	-0.371560
H113	H	0.588340	0.027365	0.032612
H114	H	0.443562	0.002895	0.002191
