data_functionalizedCrystal
_audit_creation_method	'MofGen! by Chris Wilmer'
_symmetry_space_group_name_H-M	'P1'
_symmetry_Int_Tables_number	1
_symmetry_cell_setting	triclinic
loop_
_symmetry_equiv_pos_as_xyz
  x,y,z
_cell_length_a	14.971486
_cell_length_b	16.109301
_cell_length_c	14.048226
_cell_angle_alpha	89.992144
_cell_angle_beta	89.998499
_cell_angle_gamma	83.537805
loop_
_atom_site_label
_atom_site_type_symbol
_atom_site_fract_x
_atom_site_fract_y
_atom_site_fract_z
O1	O	1.186791	0.108348	-0.079054
O2	O	1.686791	0.608348	0.420946
O3	O	0.926372	0.121323	-0.079081
O4	O	1.426372	0.621323	0.420919
O5	O	1.063735	-0.006187	-0.079057
O6	O	1.563735	0.493813	0.420943
O7	O	1.049427	0.235857	-0.079078
O8	O	1.549427	0.735857	0.420922
O9	O	1.063719	-0.006194	0.079264
O10	O	1.563719	0.493806	0.579264
O11	O	0.926355	0.121315	0.079241
O12	O	1.426355	0.621315	0.579241
O13	O	1.186774	0.108340	0.079267
O14	O	1.686774	0.608340	0.579267
Zn15	Zn	1.056562	0.114826	0.104391
Zn16	Zn	1.556562	0.614826	0.604391
Zn17	Zn	1.056584	0.114836	-0.104204
Zn18	Zn	1.556584	0.614836	0.395796
O19	O	1.049411	0.235850	0.079244
O20	O	1.549411	0.735850	0.579244
C21	C	0.893040	0.120739	0.000077
C22	C	1.393040	0.620739	0.500077
C23	C	0.793745	0.119000	0.000067
C24	C	1.293745	0.619000	0.500067
C25	C	0.736412	0.193908	0.000062
C26	C	1.236412	0.693908	0.500062
C27	C	0.643115	0.192269	0.000076
C28	C	1.143115	0.692269	0.500076
C29	C	0.607153	0.115721	0.000089
C30	C	1.107153	0.615721	0.500089
C31	C	0.664494	0.040807	0.000097
C32	C	1.164494	0.540807	0.500097
C33	C	0.757789	0.042447	0.000089
C34	C	1.257789	0.542447	0.500089
C35	C	0.470036	0.037395	0.000110
C36	C	0.970036	0.537395	0.500110
C37	C	0.376734	0.035755	0.000116
C38	C	0.876734	0.535755	0.500116
C39	C	0.355362	0.187217	0.000097
C40	C	0.855362	0.687217	0.500097
C41	C	0.448657	0.188857	0.000090
C42	C	0.948657	0.688857	0.500090
C43	C	0.505991	0.113942	0.000096
C44	C	1.005991	0.613942	0.500096
C45	C	1.063147	-0.037166	0.000104
C46	C	1.563147	0.462834	0.500104
C47	C	1.061410	-0.129464	0.000105
C48	C	1.561410	0.370536	0.500105
C49	C	1.138878	-0.351640	0.000098
C50	C	1.638878	0.148360	0.500098
C51	C	1.137239	-0.438362	0.000090
C52	C	1.637239	0.061638	0.500090
C53	C	0.974262	-0.418691	0.000077
C54	C	1.474262	0.081309	0.500077
C55	C	0.975902	-0.331970	0.000078
C56	C	1.475902	0.168030	0.500078
C57	C	1.058213	-0.298447	0.000094
C58	C	1.558213	0.201553	0.500094
C59	C	1.054933	-0.471890	0.000085
C60	C	1.554933	0.028110	0.500085
C61	C	1.053155	-0.565918	0.000076
C62	C	1.553155	-0.065918	0.500076
C63	C	1.059992	-0.204413	0.000101
C64	C	1.559992	0.295587	0.500101
C65	C	1.220106	0.108924	0.000108
C66	C	1.720106	0.608924	0.500108
C67	C	1.319401	0.110663	0.000111
C68	C	1.819401	0.610663	0.500111
C69	C	1.049999	0.266829	0.000080
C70	C	1.549999	0.766829	0.500080
C71	C	1.051736	0.359127	0.000073
C72	C	1.551736	0.859127	0.500073
N73	N	1.056554	0.114819	0.246752
N74	N	1.556554	0.614819	0.746752
N75	N	1.056599	0.114837	-0.246565
N76	N	1.556599	0.614837	0.253435
C77	C	1.117397	0.058381	0.296580
C78	C	1.617397	0.558381	0.796580
C79	C	1.117403	0.058381	0.396238
C80	C	1.617403	0.558381	0.896238
C81	C	1.056570	0.114823	0.446065
C82	C	1.556570	0.614823	0.946065
C83	C	0.995719	0.171263	0.396230
C84	C	1.495719	0.671263	0.896230
C85	C	0.995710	0.171259	0.296574
C86	C	1.495710	0.671259	0.796574
C87	C	0.995745	0.171269	0.603944
C88	C	1.495745	0.671269	1.103944
C89	C	0.995756	0.171275	0.703607
C90	C	1.495756	0.671275	1.203607
C91	C	1.117439	0.058391	0.703608
C92	C	1.617439	0.558391	1.203608
C93	C	1.117429	0.058387	0.603952
C94	C	1.617429	0.558387	1.103952
C95	C	1.056580	0.114829	0.554123
C96	C	1.556580	0.614829	1.054123
H97	H	0.308675	0.248215	0.000097
H98	H	0.808675	0.748215	0.500097
H99	H	0.907247	-0.445996	0.000067
H100	H	1.407247	0.054004	0.500067
Cl101	Cl	0.919245	0.242225	0.541306
Cl102	Cl	1.419245	0.742225	1.041306
Cl103	Cl	1.238651	-0.505230	0.000094
Cl104	Cl	1.738651	-0.005230	0.500094
Cl105	Cl	1.193884	-0.012575	0.233950
Cl106	Cl	1.693884	0.487425	0.733950
Cl107	Cl	0.874486	-0.265094	0.000065
Cl108	Cl	1.374486	0.234906	0.500065
H109	H	1.166946	0.012424	0.436808
H110	H	1.666946	0.512424	0.936808
Cl111	Cl	1.193912	-0.012564	0.541310
Cl112	Cl	1.693912	0.487436	1.041310
Cl113	Cl	0.919273	0.242232	0.766239
Cl114	Cl	1.419273	0.742232	1.266239
H115	H	0.804470	-0.018551	0.000093
H116	H	1.304470	0.481449	0.500093
Cl117	Cl	0.331526	-0.060478	0.000164
Cl118	Cl	0.831526	0.439522	0.500164
H119	H	1.166984	0.012434	0.744184
H120	H	1.666984	0.512434	1.244184
H121	H	0.946183	0.217217	0.436805
H122	H	1.446183	0.717217	0.936805
Cl123	Cl	0.919214	0.242210	0.233933
Cl124	Cl	1.419214	0.742210	0.733933
Cl125	Cl	0.542112	-0.056785	0.000120
Cl126	Cl	1.042112	0.443215	0.500120
Cl127	Cl	1.242354	-0.309499	0.000115
Cl128	Cl	1.742354	0.190501	0.500115
H129	H	0.596437	0.253267	0.000071
H130	H	1.096437	0.753267	0.500071
Cl131	Cl	0.781611	0.290146	0.000040
Cl132	Cl	1.281611	0.790146	0.500040
H133	H	0.635206	-0.021520	0.000121
H134	H	1.135206	0.478480	0.500121
Cl135	Cl	0.493865	0.285090	0.000064
Cl136	Cl	0.993865	0.785090	0.500064
