data_functionalizedCrystal
_audit_creation_method	'MofGen! by Chris Wilmer'
_symmetry_space_group_name_H-M	'P1'
_symmetry_Int_Tables_number	1
_symmetry_cell_setting	triclinic
loop_
_symmetry_equiv_pos_as_xyz
  x,y,z
_cell_length_a	18.101397
_cell_length_b	29.839134
_cell_length_c	29.839125
_cell_angle_alpha	90.012189
_cell_angle_beta	90.017467
_cell_angle_gamma	90.001037
loop_
_atom_site_label
_atom_site_type_symbol
_atom_site_fract_x
_atom_site_fract_y
_atom_site_fract_z
Zn1	Zn	-0.295317	0.686785	0.254008
Zn2	Zn	0.038016	1.020118	0.587342
Zn3	Zn	0.371349	1.353452	0.920675
Zn4	Zn	-0.419135	0.686745	0.178879
Zn5	Zn	-0.085802	1.020078	0.512212
Zn6	Zn	0.247531	1.353411	0.845545
Zn7	Zn	-0.295270	0.611668	0.178891
Zn8	Zn	0.038063	0.945001	0.512224
Zn9	Zn	0.371397	1.278334	0.845557
Zn10	Zn	-0.419080	0.611643	0.253980
Zn11	Zn	-0.085746	0.944976	0.587313
Zn12	Zn	0.247587	1.278310	0.920647
O13	O	-0.357201	0.649210	0.216439
O14	O	-0.023867	0.982543	0.549773
O15	O	0.309466	1.315877	0.883106
O16	O	-0.311785	0.749647	0.244049
O17	O	0.021548	1.082980	0.577382
O18	O	0.354882	1.416313	0.910716
O19	O	-0.402708	0.676779	0.116013
O20	O	-0.069374	1.010112	0.449346
O21	O	0.263959	1.343446	0.782680
O22	O	-0.191643	0.621660	0.188872
O23	O	0.141690	0.954993	0.522206
O24	O	0.475023	1.288326	0.855539
O25	O	-0.402754	0.749617	0.188852
O26	O	-0.069420	1.082950	0.522185
O27	O	0.263913	1.416284	0.855518
O28	O	-0.191678	0.676848	0.244061
O29	O	0.141655	1.010181	0.577394
O30	O	0.474988	1.343514	0.910728
O31	O	-0.311705	0.621620	0.116022
O32	O	0.021629	0.954954	0.449355
O33	O	0.354962	1.288287	0.782689
O34	O	-0.311651	0.548797	0.188845
O35	O	0.021683	0.882131	0.522178
O36	O	0.355016	1.215464	0.855511
O37	O	-0.402659	0.621617	0.316851
O38	O	-0.069325	0.954951	0.650184
O39	O	0.264008	1.288284	0.983517
O40	O	-0.402613	0.548779	0.244012
O41	O	-0.069280	0.882113	0.577346
O42	O	0.264054	1.215446	0.910679
O43	O	-0.311731	0.676824	0.316872
O44	O	0.021602	1.010157	0.650205
O45	O	0.354936	1.343490	0.983538
O46	O	-0.522761	0.676755	0.188824
O47	O	-0.189427	1.010088	0.522157
O48	O	0.143906	1.343422	0.855491
O49	O	-0.522720	0.621578	0.244001
O50	O	-0.189386	0.954911	0.577334
O51	O	0.143947	1.288245	0.910667
C52	C	-0.357121	0.532488	0.216427
C53	C	-0.023788	0.865821	0.549760
C54	C	0.309546	1.199154	0.883094
C55	C	-0.357105	0.482553	0.216432
C56	C	-0.023772	0.815886	0.549766
C57	C	0.309562	1.149220	0.883099
C58	C	-0.309932	0.125977	0.245237
C59	C	0.023401	0.459311	0.578571
C60	C	0.356735	0.792644	0.911904
C61	C	-0.309872	0.313650	0.245227
C62	C	0.023461	0.646984	0.578560
C63	C	0.356794	0.980317	0.911894
O64	O	-0.269670	0.337925	0.269716
O65	O	0.063663	0.671258	0.603049
O66	O	0.396997	1.004591	0.936383
N67	N	-0.357154	0.337108	0.216443
N68	N	-0.023820	0.670441	0.549776
N69	N	0.309513	1.003775	0.883110
C70	C	-0.404456	0.313644	0.187661
C71	C	-0.071123	0.646978	0.520995
C72	C	0.262210	0.980311	0.854328
O73	O	-0.444676	0.337903	0.163182
O74	O	-0.111343	0.671236	0.496515
O75	O	0.221991	1.004570	0.829848
C76	C	-0.404519	0.125972	0.187674
C77	C	-0.071186	0.459306	0.521008
C78	C	0.262148	0.792639	0.854341
C79	C	-0.357230	0.102517	0.216457
C80	C	-0.023896	0.435850	0.549790
C81	C	0.309437	0.769184	0.883124
C82	C	-0.262647	0.102522	0.274018
C83	C	0.070686	0.435855	0.607351
C84	C	0.404020	0.769189	0.940685
C85	C	-0.262659	0.055607	0.274019
C86	C	0.070674	0.388940	0.607352
C87	C	0.404007	0.722273	0.940685
C88	C	-0.309957	0.032146	0.245238
C89	C	0.023376	0.365480	0.578572
C90	C	0.356710	0.698813	0.911905
C91	C	-0.357242	0.055602	0.216458
C92	C	-0.023909	0.388935	0.549791
C93	C	0.309425	0.722268	0.883124
C94	C	-0.451825	0.102510	0.158896
C95	C	-0.118492	0.435843	0.492229
C96	C	0.214842	0.769176	0.825562
C97	C	-0.451838	0.055589	0.158902
C98	C	-0.118505	0.388922	0.492235
C99	C	0.214829	0.722255	0.825569
C100	C	-0.404548	0.032133	0.187685
C101	C	-0.071215	0.365467	0.521018
C102	C	0.262118	0.698800	0.854352
C103	C	-0.404552	-0.014774	0.187678
C104	C	-0.071219	0.318559	0.521011
C105	C	0.262114	0.651893	0.854345
N106	N	-0.357271	-0.038232	0.216462
N107	N	-0.023938	0.295102	0.549796
N108	N	0.309396	0.628435	0.883129
C109	C	-0.309974	-0.014771	0.245242
C110	C	0.023360	0.318562	0.578576
C111	C	0.356693	0.651895	0.911909
C112	C	-0.404419	0.412175	0.187656
C113	C	-0.071086	0.745508	0.520989
C114	C	0.262248	1.078842	0.854323
C115	C	-0.404403	0.459093	0.187652
C116	C	-0.071069	0.792426	0.520985
C117	C	0.262264	1.125760	0.854319
C118	C	-0.309819	0.459096	0.245218
C119	C	0.023514	0.792429	0.578552
C120	C	0.356847	1.125762	0.911885
C121	C	-0.309833	0.412177	0.245220
C122	C	0.023501	0.745510	0.578553
C123	C	0.356834	1.078844	0.911886
C124	C	-0.357138	0.388717	0.216440
C125	C	-0.023805	0.722051	0.549773
C126	C	0.309529	1.055384	0.883107
C127	C	-0.310003	-0.113297	0.245241
C128	C	0.023330	0.220036	0.578574
C129	C	0.356664	0.553369	0.911908
C130	C	-0.310017	-0.160217	0.245238
C131	C	0.023316	0.173116	0.578571
C132	C	0.356649	0.506450	0.911905
C133	C	-0.404603	-0.160215	0.187673
C134	C	-0.071270	0.173118	0.521007
C135	C	0.262064	0.506451	0.854340
C136	C	-0.404586	-0.113300	0.187675
C137	C	-0.071253	0.220033	0.521008
C138	C	0.262081	0.553367	0.854342
C139	C	-0.357284	-0.089842	0.216462
C140	C	-0.023950	0.243491	0.549796
C141	C	0.309383	0.576825	0.883129
O142	O	-0.444740	-0.039077	0.163206
O143	O	-0.111406	0.294256	0.496539
O144	O	0.221927	0.627589	0.829872
O145	O	-0.269772	-0.039038	0.269725
O146	O	0.063562	0.294295	0.603059
O147	O	0.396895	0.627629	0.936392
C148	C	-0.309919	0.172893	0.245237
C149	C	0.023414	0.506226	0.578570
C150	C	0.356747	0.839559	0.911903
C151	C	-0.357205	0.196348	0.216456
C152	C	-0.023871	0.529681	0.549789
C153	C	0.309462	0.863015	0.883123
C154	C	-0.404502	0.172888	0.187676
C155	C	-0.071169	0.506221	0.521009
C156	C	0.262165	0.839554	0.854342
C157	C	-0.357188	0.243266	0.216452
C158	C	-0.023855	0.576599	0.549785
C159	C	0.309479	0.909932	0.883119
C160	C	-0.309891	0.266726	0.245232
C161	C	0.023443	0.600059	0.578566
C162	C	0.356776	0.933393	0.911899
C163	C	-0.262609	0.243268	0.274016
C164	C	0.070724	0.576602	0.607350
C165	C	0.404057	0.909935	0.940683
C166	C	-0.262622	0.196353	0.274017
C167	C	0.070711	0.529686	0.607350
C168	C	0.404045	0.863020	0.940684
C169	C	-0.451783	0.196345	0.158892
C170	C	-0.118450	0.529679	0.492225
C171	C	0.214883	0.863012	0.825558
C172	C	-0.451766	0.243261	0.158893
C173	C	-0.118433	0.576594	0.492226
C174	C	0.214900	0.909928	0.825560
C175	C	-0.404469	0.266721	0.187673
C176	C	-0.071135	0.600054	0.521007
C177	C	0.262198	0.933388	0.854340
C178	C	-0.549611	0.649172	0.216418
C179	C	-0.216278	0.982505	0.549751
C180	C	0.117056	1.315838	0.883084
C181	C	-0.631925	0.649196	0.216423
C182	C	-0.298592	0.982530	0.549757
C183	C	0.034741	1.315863	0.883090
C184	C	-0.931016	0.649254	0.216464
C185	C	-0.597683	0.982587	0.549798
C186	C	-0.264349	1.315920	0.883131
C187	C	-0.899686	0.683873	0.181656
C188	C	-0.566352	1.017206	0.514989
C189	C	-0.233019	1.350539	0.848322
C190	C	-0.814067	0.683993	0.181746
C191	C	-0.480734	1.017326	0.515079
C192	C	-0.147401	1.350659	0.848413
C193	C	-0.782634	0.649225	0.216444
C194	C	-0.449300	0.982559	0.549777
C195	C	-0.115967	1.315892	0.883110
C196	C	-0.813666	0.662054	0.263798
C197	C	-0.480333	0.995387	0.597131
C198	C	-0.146999	1.328720	0.930464
C199	C	-0.899311	0.662321	0.263608
C200	C	-0.565978	0.995655	0.596942
C201	C	-0.232644	1.328988	0.930275
C202	C	-0.899494	0.601714	0.204329
C203	C	-0.566161	0.935047	0.537662
C204	C	-0.232827	1.268381	0.870995
C205	C	-0.813844	0.601949	0.203272
C206	C	-0.480511	0.935282	0.536605
C207	C	-0.147178	1.268616	0.869938
C208	C	-0.698774	0.649208	0.216435
C209	C	-0.365441	0.982542	0.549768
C210	C	-0.032107	1.315875	0.883101
C211	C	-1.014876	0.649272	0.216476
C212	C	-0.681542	0.982605	0.549810
C213	C	-0.348209	1.315938	0.883143
C214	C	-0.164039	0.649261	0.216471
C215	C	0.169295	0.982594	0.549804
C216	C	0.502628	1.315928	0.883138
C217	C	-0.081725	0.649283	0.216485
C218	C	0.251609	0.982616	0.549818
C219	C	0.584942	1.315949	0.883151
C220	C	-0.357194	0.649222	0.333618
C221	C	-0.023861	0.982556	0.666951
C222	C	0.309473	1.315889	1.000284
C223	C	-0.357191	0.649227	0.383552
C224	C	-0.023858	0.982561	0.716886
C225	C	0.309476	1.315894	1.050219
C226	C	-0.357281	0.766388	0.216452
C227	C	-0.023947	1.099722	0.549786
C228	C	0.309386	1.433055	0.883119
C229	C	-0.357315	0.816323	0.216458
C230	C	-0.023982	1.149656	0.549791
C231	C	0.309352	1.482990	0.883124
C232	C	-0.357154	0.649224	0.099717
C233	C	-0.023820	0.982557	0.433050
C234	C	0.309513	1.315891	0.766384
C235	C	-0.356948	0.649306	0.049783
C236	C	-0.023615	0.982639	0.383116
C237	C	0.309719	1.315972	0.716449
C238	C	-0.309721	0.678004	0.693210
C239	C	0.023612	1.011337	1.026543
C240	C	0.356946	1.344670	1.359876
C241	C	-0.309658	0.678026	0.880883
C242	C	0.023675	1.011359	1.214216
C243	C	0.357009	1.344693	1.547549
O244	O	-0.269367	0.702459	0.905159
O245	O	0.063966	1.035792	1.238493
O246	O	0.397299	1.369126	1.571826
N247	N	-0.356993	0.649287	0.904338
N248	N	-0.023659	0.982620	1.237671
N249	N	0.309674	1.315954	1.571004
C250	C	-0.404343	0.620538	0.880871
C251	C	-0.071010	0.953872	1.214204
C252	C	0.262323	1.287205	1.547538
O253	O	-0.444598	0.596091	0.905127
O254	O	-0.111264	0.929425	1.238460
O255	O	0.222069	1.262758	1.571794
C256	C	-0.404402	0.620514	0.693199
C257	C	-0.071069	0.953847	1.026532
C258	C	0.262265	1.287181	1.359866
C259	C	-0.357070	0.649258	0.669747
C260	C	-0.023736	0.982592	1.003080
C261	C	0.309597	1.315925	1.336413
C262	C	-0.262392	0.706745	0.669757
C263	C	0.070942	1.040078	1.003091
C264	C	0.404275	1.373412	1.336424
C265	C	-0.262411	0.706741	0.622842
C266	C	0.070922	1.040074	0.956175
C267	C	0.404256	1.373408	1.289509
C268	C	-0.309759	0.677995	0.599379
C269	C	0.023574	1.011329	0.932712
C270	C	0.356907	1.344662	1.266045
C271	C	-0.357089	0.649254	0.622831
C272	C	-0.023755	0.982587	0.956164
C273	C	0.309578	1.315921	1.289498
C274	C	-0.451748	0.591764	0.669733
C275	C	-0.118415	0.925097	1.003067
C276	C	0.214918	1.258430	1.336400
C277	C	-0.451758	0.591759	0.622812
C278	C	-0.118424	0.925093	0.956146
C279	C	0.214909	1.258426	1.289479
C280	C	-0.404425	0.620503	0.599360
C281	C	-0.071092	0.953837	0.932693
C282	C	0.262242	1.287170	1.266027
C283	C	-0.404456	0.620504	0.552452
C284	C	-0.071123	0.953838	0.885786
C285	C	0.262210	1.287171	1.219119
N286	N	-0.357121	0.649243	0.528998
N287	N	-0.023788	0.982577	0.862331
N288	N	0.309545	1.315910	1.195664
C289	C	-0.309773	0.677989	0.552461
C290	C	0.023560	1.011322	0.885794
C291	C	0.356894	1.344656	1.219128
C292	C	-0.404310	0.620554	0.979402
C293	C	-0.070977	0.953887	1.312735
C294	C	0.262357	1.287220	1.646068
C295	C	-0.404296	0.620560	1.026320
C296	C	-0.070963	0.953894	1.359653
C297	C	0.262370	1.287227	1.692986
C298	C	-0.309610	0.678047	1.026328
C299	C	0.023723	1.011381	1.359661
C300	C	0.357057	1.344714	1.692995
C301	C	-0.309628	0.678043	0.979409
C302	C	0.023705	1.011376	1.312743
C303	C	0.357039	1.344709	1.646076
C304	C	-0.356975	0.649293	0.955947
C305	C	-0.023642	0.982626	1.289280
C306	C	0.309691	1.315959	1.622614
C307	C	-0.309817	0.677978	0.453935
C308	C	0.023516	1.011312	0.787268
C309	C	0.356850	1.344645	1.120602
C310	C	-0.309843	0.677973	0.407015
C311	C	0.023491	1.011306	0.740349
C312	C	0.356824	1.344640	1.073682
C313	C	-0.404526	0.620484	0.407011
C314	C	-0.071193	0.953818	0.740344
C315	C	0.262141	1.287151	1.073678
C316	C	-0.404504	0.620491	0.453927
C317	C	-0.071170	0.953824	0.787260
C318	C	0.262163	1.287158	1.120593
C319	C	-0.357143	0.649240	0.477387
C320	C	-0.023810	0.982573	0.810721
C321	C	0.309523	1.315906	1.144054
O322	O	-0.444720	0.596080	0.528147
O323	O	-0.111386	0.929414	0.861480
O324	O	0.221947	1.262747	1.194814
O325	O	-0.269513	0.702425	0.528197
O326	O	0.063820	1.035759	0.861530
O327	O	0.397154	1.369092	1.194863
C328	C	-0.309702	0.678008	0.740125
C329	C	0.023631	1.011341	1.073458
C330	C	0.356965	1.344674	1.406792
C331	C	-0.357031	0.649266	0.763578
C332	C	-0.023698	0.982600	1.096911
C333	C	0.309635	1.315933	1.430244
C334	C	-0.404380	0.620521	0.740114
C335	C	-0.071046	0.953854	1.073448
C336	C	0.262287	1.287188	1.406781
C337	C	-0.357018	0.649273	0.810495
C338	C	-0.023684	0.982606	1.143829
C339	C	0.309649	1.315940	1.477162
C340	C	-0.309669	0.678018	0.833958
C341	C	0.023664	1.011352	1.167292
C342	C	0.356997	1.344685	1.500625
C343	C	-0.262334	0.706757	0.810504
C344	C	0.070999	1.040091	1.143837
C345	C	0.404332	1.373424	1.477170
C346	C	-0.262354	0.706753	0.763588
C347	C	0.070980	1.040087	1.096922
C348	C	0.404313	1.373420	1.430255
C349	C	-0.451715	0.591782	0.763569
C350	C	-0.118381	0.925115	1.096902
C351	C	0.214952	1.258449	1.430236
C352	C	-0.451692	0.591789	0.810485
C353	C	-0.118359	0.925122	1.143818
C354	C	0.214974	1.258455	1.477151
C355	C	-0.404344	0.620534	0.833948
C356	C	-0.071010	0.953868	1.167281
C357	C	0.262323	1.287201	1.500614
H358	H	-0.271306	0.478205	0.268651
H359	H	0.062027	0.811538	0.601985
H360	H	0.395361	1.144872	0.935318
O361	O	-0.211302	0.737757	0.738297
O362	O	0.122032	1.071091	1.071631
O363	O	0.455365	1.404424	1.404964
H364	H	-0.173616	0.717661	0.716919
H365	H	0.159717	1.050995	1.050252
H366	H	0.493051	1.384328	1.383585
O367	O	-0.928148	0.730265	0.192169
O368	O	-0.594814	1.063598	0.525502
O369	O	-0.261481	1.396932	0.858835
H370	H	-0.905705	0.754439	0.167400
H371	H	-0.572372	1.087772	0.500734
H372	H	-0.239038	1.421106	0.834067
O373	O	-0.502816	0.560744	0.597505
O374	O	-0.169483	0.894077	0.930839
O375	O	0.163850	1.227410	1.264172
H376	H	-0.535723	0.540759	0.621699
H377	H	-0.202389	0.874093	0.955032
H378	H	0.130944	1.207426	1.288366
O379	O	-0.258573	0.709042	0.954115
O380	O	0.074760	1.042375	1.287448
O381	O	0.408094	1.375709	1.620781
H382	H	-0.225647	0.729028	0.978317
H383	H	0.107686	1.062362	1.311650
H384	H	0.441020	1.395695	1.644984
H385	H	-0.271325	0.393083	0.268657
H386	H	0.062009	0.726416	0.601990
H387	H	0.395342	1.059749	0.935323
H388	H	-0.490300	0.177249	0.135455
H389	H	-0.156967	0.510582	0.468789
H390	H	0.176366	0.843915	0.802122
H391	H	-0.490292	0.568357	0.688820
H392	H	-0.156958	0.901690	1.022154
H393	H	0.176375	1.235024	1.355487
O394	O	-0.211248	0.737754	0.835814
O395	O	0.122085	1.071087	1.169147
O396	O	0.455418	1.404420	1.502481
H397	H	-0.219184	0.732919	0.872378
H398	H	0.114149	1.066252	1.205711
H399	H	0.447482	1.399585	1.539045
O400	O	-0.258727	0.708985	0.479228
O401	O	0.074606	1.042318	0.812561
O402	O	0.407940	1.375652	1.145895
H403	H	-0.221016	0.688890	0.500596
H404	H	0.112318	1.022224	0.833930
H405	H	0.445651	1.355557	1.167263
O406	O	-0.455398	0.484390	0.156603
O407	O	-0.122065	0.817723	0.489936
O408	O	0.211269	1.151056	0.823270
H409	H	-0.488291	0.460189	0.136595
H410	H	-0.154958	0.793523	0.469928
H411	H	0.178376	1.126856	0.803262
H412	H	-0.919755	0.575920	0.229681
H413	H	-0.586422	0.909254	0.563015
H414	H	-0.253088	1.242587	0.896348
H415	H	-0.793088	0.675968	0.146634
H416	H	-0.459755	1.009301	0.479967
H417	H	-0.126421	1.342634	0.813300
H418	H	-0.793567	0.592276	0.168423
H419	H	-0.460234	0.925609	0.501756
H420	H	-0.126900	1.258943	0.835089
H421	H	-0.490333	0.121599	0.135457
H422	H	-0.157000	0.454932	0.468791
H423	H	0.176333	0.788265	0.802124
O424	O	-0.211618	0.127819	0.305058
O425	O	0.121715	0.461153	0.638391
O426	O	0.455049	0.794486	0.971724
H427	H	-0.224397	0.118821	0.340304
H428	H	0.108936	0.452154	0.673637
H429	H	0.442269	0.785488	1.006971
H430	H	-0.490243	0.568383	0.829576
H431	H	-0.156910	0.901716	1.162909
H432	H	0.176424	1.235049	1.496242
O433	O	-0.455433	0.386874	0.156607
O434	O	-0.122100	0.720208	0.489940
O435	O	0.211233	1.053541	0.823274
H436	H	-0.488296	0.411073	0.136589
H437	H	-0.154963	0.744406	0.469923
H438	H	0.178371	1.077739	0.803256
O439	O	-0.259006	-0.185513	0.276283
O440	O	0.074327	0.147821	0.609617
O441	O	0.407660	0.481154	0.942950
H442	H	-0.266951	-0.222079	0.271448
H443	H	0.066382	0.111254	0.604781
H444	H	0.399715	0.444587	0.938114
H445	H	-0.490362	0.036490	0.135467
H446	H	-0.157029	0.369824	0.468800
H447	H	0.176304	0.703157	0.802134
H448	H	-0.443086	-0.094202	0.164234
H449	H	-0.109753	0.239132	0.497567
H450	H	0.223580	0.572465	0.830900
O451	O	-0.258982	-0.088000	0.276288
O452	O	0.074352	0.245333	0.609622
O453	O	0.407685	0.578666	0.942955
H454	H	-0.221252	-0.066632	0.256220
H455	H	0.112082	0.266702	0.589553
H456	H	0.445415	0.600035	0.922887
H457	H	-0.919253	0.697071	0.273888
H458	H	-0.585920	1.030404	0.607221
H459	H	-0.252587	1.363737	0.940555
O460	O	-0.502761	0.560762	0.738265
O461	O	-0.169428	0.894095	1.071598
O462	O	0.163906	1.227428	1.404932
H463	H	-0.535662	0.540777	0.762461
H464	H	-0.202329	0.874110	1.095794
H465	H	0.131005	1.207444	1.429127
H466	H	-0.792453	0.574768	0.226768
H467	H	-0.459119	0.908102	0.560101
H468	H	-0.125786	1.241435	0.893435
O469	O	-0.455616	-0.185523	0.156632
O470	O	-0.122282	0.147811	0.489965
O471	O	0.211051	0.481144	0.823299
H472	H	-0.447681	-0.222087	0.161474
H473	H	-0.114347	0.111246	0.494808
H474	H	0.218986	0.444579	0.828141
O475	O	-0.455550	0.589487	0.479225
O476	O	-0.122217	0.922821	0.812558
O477	O	0.211116	1.256154	1.145891
H478	H	-0.493239	0.609581	0.500604
H479	H	-0.159905	0.942914	0.833937
H480	H	0.173428	1.276248	1.167271
O481	O	-0.786874	0.730637	0.192382
O482	O	-0.453541	1.063970	0.525715
O483	O	-0.120207	1.397304	0.859048
H484	H	-0.834897	0.753195	0.197486
H485	H	-0.501563	1.086528	0.530819
H486	H	-0.168230	1.419862	0.864152
H487	H	-0.443078	0.597082	0.387899
H488	H	-0.109745	0.930415	0.721232
H489	H	0.223588	1.263748	1.054566
O490	O	-0.258789	0.708976	0.381719
O491	O	0.074545	1.042309	0.715052
O492	O	0.407878	1.375643	1.048386
H493	H	-0.225857	0.728961	0.405920
H494	H	0.107476	1.062294	0.739253
H495	H	0.440809	1.395628	1.072587
H496	H	-0.224155	0.036514	0.297459
H497	H	0.109179	0.369847	0.630792
H498	H	0.442512	0.703180	0.964125
O499	O	-0.211356	0.737741	0.597549
O500	O	0.121978	1.071074	0.930882
O501	O	0.455311	1.404408	1.264216
H502	H	-0.178428	0.757725	0.621753
H503	H	0.154905	1.091058	0.955086
H504	H	0.488238	1.424392	1.288420
H505	H	-0.223831	0.730153	0.688856
H506	H	0.109503	1.063487	1.022189
H507	H	0.442836	1.396820	1.355523
H508	H	-0.224114	0.177260	0.297455
H509	H	0.109220	0.510593	0.630788
H510	H	0.442553	0.843927	0.964121
H511	H	-0.224095	0.262378	0.297448
H512	H	0.109238	0.595711	0.630782
H513	H	0.442572	0.929045	0.964115
O514	O	-0.926778	0.630375	0.299133
O515	O	-0.593445	0.963709	0.632466
O516	O	-0.260112	1.297042	0.965799
H517	H	-0.906114	0.641270	0.332423
H518	H	-0.572781	0.974603	0.665756
H519	H	-0.239447	1.307936	0.999090
O520	O	-0.502771	0.268558	0.127845
O521	O	-0.169438	0.601891	0.461178
O522	O	0.163895	0.935224	0.794512
H523	H	-0.535663	0.244357	0.107837
H524	H	-0.202330	0.577691	0.441170
H525	H	0.131003	0.911024	0.774503
O526	O	-0.927614	0.673427	0.135126
O527	O	-0.594281	1.006760	0.468459
O528	O	-0.260947	1.340094	0.801793
H529	H	-0.909576	0.639265	0.125281
H530	H	-0.576243	0.972598	0.458614
H531	H	-0.242910	1.305931	0.791947
O532	O	-0.786691	0.629681	0.299081
O533	O	-0.453358	0.963015	0.632415
O534	O	-0.120025	1.296348	0.965748
H535	H	-0.750792	0.604045	0.283202
H536	H	-0.417459	0.937379	0.616536
H537	H	-0.084125	1.270712	0.949869
O538	O	-0.785223	0.707570	0.277647
O539	O	-0.451889	1.040903	0.610981
O540	O	-0.118556	1.374237	0.944314
H541	H	-0.748993	0.721128	0.250883
H542	H	-0.415660	1.054461	0.584216
H543	H	-0.082327	1.387795	0.917550
O544	O	-0.928145	0.586253	0.159379
O545	O	-0.594811	0.919586	0.492712
O546	O	-0.261478	1.252919	0.826046
H547	H	-0.965176	0.612283	0.145186
H548	H	-0.631842	0.945616	0.478519
H549	H	-0.298509	1.278950	0.811852
O550	O	-0.258525	0.709045	1.051638
O551	O	0.074808	1.042378	1.384971
O552	O	0.408141	1.375711	1.718305
H553	H	-0.266465	0.704212	1.088202
H554	H	0.066869	1.037546	1.421535
H555	H	0.400202	1.370879	1.754869
O556	O	-0.455375	0.589544	0.954092
O557	O	-0.122042	0.922877	1.287426
O558	O	0.211292	1.256211	1.620759
H559	H	-0.422210	0.566693	0.932723
H560	H	-0.088877	0.900026	1.266056
H561	H	0.244457	1.233360	1.599389
O562	O	-0.455349	0.589559	1.051613
O563	O	-0.122016	0.922893	1.384947
O564	O	0.211317	1.256226	1.718280
H565	H	-0.488266	0.569567	1.027411
H566	H	-0.154933	0.902901	1.360744
H567	H	0.178400	1.236234	1.694078
