data_functionalizedCrystal
_audit_creation_method	'MofGen! by Chris Wilmer'
_symmetry_space_group_name_H-M	'P1'
_symmetry_Int_Tables_number	1
_symmetry_cell_setting	triclinic
loop_
_symmetry_equiv_pos_as_xyz
  x,y,z
_cell_length_a	16.109302
_cell_length_b	18.366186
_cell_length_c	19.288865
_cell_angle_alpha	89.988521
_cell_angle_beta	83.299014
_cell_angle_gamma	89.989012
loop_
_atom_site_label
_atom_site_type_symbol
_atom_site_fract_x
_atom_site_fract_y
_atom_site_fract_z
O1	O	1.102831	-0.060591	0.089284
O2	O	0.860732	-0.060586	0.100394
O3	O	0.988777	-0.060574	-0.006274
O4	O	0.974786	-0.060603	0.195953
O5	O	0.988755	0.060525	-0.006280
O6	O	0.860710	0.060513	0.100389
O7	O	1.102810	0.060509	0.089279
Zn8	Zn	0.981756	0.079738	0.094833
Zn9	Zn	0.981785	-0.079816	0.094840
O10	O	0.974764	0.060497	0.195947
C11	C	0.829747	-0.000036	0.099941
C12	C	0.737457	-0.000033	0.098592
C13	C	0.525115	0.065971	0.095469
C14	C	0.438399	0.065969	0.094193
C15	C	0.438433	-0.066060	0.094202
C16	C	0.525148	-0.066057	0.095473
C17	C	0.568486	-0.000039	0.096109
C18	C	0.395055	-0.000045	0.093564
C19	C	0.301034	-0.000048	0.092181
C20	C	0.662513	-0.000036	0.097491
C21	C	0.988316	-0.000022	-0.032155
C22	C	0.986965	-0.000016	-0.109261
C23	C	1.133794	-0.000044	0.089732
C24	C	1.226085	-0.000051	0.091081
N25	N	0.981743	0.188629	0.094828
N26	N	0.981805	-0.188707	0.094840
C27	C	1.038460	0.226735	0.047618
C28	C	1.038465	0.302963	0.047615
C29	C	0.981761	0.341082	0.094834
C30	C	0.925034	0.302967	0.142047
C31	C	0.925025	0.226741	0.142044
C32	C	0.970632	0.461833	0.158095
C33	C	0.970647	0.538058	0.158099
C34	C	0.981785	0.576189	0.094842
C35	C	0.992926	0.538086	0.031580
C36	C	0.992917	0.461860	0.031577
C37	C	0.981765	0.423737	0.094842
C38	C	1.038511	0.696950	0.047625
C39	C	1.038510	0.773179	0.047621
C40	C	0.925083	0.773182	0.142059
C41	C	0.925079	0.696954	0.142057
C42	C	0.981798	0.658843	0.094841
C43	C	1.062096	-0.000014	-0.153778
C44	C	1.060826	-0.000025	-0.226228
C45	C	0.984421	-0.000024	-0.254158
C46	C	0.909280	-0.000031	-0.209632
C47	C	0.910552	-0.000026	-0.137183
C48	C	0.924350	0.042395	-0.362591
C49	C	0.923082	0.042396	-0.435039
C50	C	0.980495	-0.000041	-0.477613
C51	C	1.039192	-0.042468	-0.447733
C52	C	1.040464	-0.042463	-0.375285
C53	C	0.983034	-0.000029	-0.332716
C54	C	1.054255	-0.000052	-0.600689
C55	C	1.052983	-0.000068	-0.673141
C56	C	0.901434	-0.000066	-0.656542
C57	C	0.902709	-0.000057	-0.584093
C58	C	0.979122	-0.000047	-0.556171
C59	C	0.975225	-0.000057	0.221828
C60	C	0.976577	-0.000068	0.298934
H61	H	0.403137	-0.119810	0.093685
H62	H	1.001986	0.430839	-0.019934
F63	F	0.571236	0.136233	0.096143
F64	F	0.571310	-0.136318	0.096151
H65	H	1.084652	0.333994	0.009170
F66	F	0.392244	0.136226	0.093512
H67	H	1.001995	0.569131	-0.019930
F68	F	0.822743	-0.000056	-0.536713
F69	F	0.864717	0.656396	0.192307
F70	F	1.098872	0.656388	-0.002629
H71	H	1.084641	0.195707	0.009170
H72	H	0.877595	0.076956	-0.327932
H73	H	1.084694	0.804205	0.009174
F74	F	1.140794	-0.000024	-0.273615
F75	F	0.958837	0.421259	0.225427
H76	H	0.878910	0.804218	0.180503
H77	H	0.839223	-0.000069	-0.679282
F78	F	0.958795	0.578604	0.225428
F79	F	0.864656	0.186184	0.192293
F80	F	1.135579	-0.000037	-0.570970
H81	H	0.878863	0.334007	0.180492
H82	H	1.124317	-0.000008	-0.131049
H83	H	1.088255	-0.077010	-0.350959
H84	H	1.085944	-0.077024	-0.482396
H85	H	1.114166	-0.000070	-0.709386
H86	H	0.875284	0.076938	-0.459361
H87	H	0.847070	-0.000031	-0.232377
F88	F	0.830583	-0.000029	-0.089803
