data_functionalizedCrystal
_audit_creation_method	'MofGen! by Chris Wilmer'
_symmetry_space_group_name_H-M	'P1'
_symmetry_Int_Tables_number	1
_symmetry_cell_setting	triclinic
loop_
_symmetry_equiv_pos_as_xyz
  x,y,z
_cell_length_a	12.759401
_cell_length_b	21.295417
_cell_length_c	12.759393
_cell_angle_alpha	90.038095
_cell_angle_beta	90.019676
_cell_angle_gamma	90.030933
loop_
_atom_site_label
_atom_site_type_symbol
_atom_site_fract_x
_atom_site_fract_y
_atom_site_fract_z
Zn1	Zn	1.606151	-0.250572	0.593929
Zn2	Zn	2.106151	0.249428	1.093929
Zn3	Zn	1.605994	-0.355854	0.418226
Zn4	Zn	2.105994	0.144146	0.918226
Zn5	Zn	1.430450	-0.250603	0.418268
Zn6	Zn	1.930450	0.249397	0.918268
Zn7	Zn	1.430393	-0.355808	0.593867
Zn8	Zn	1.930393	0.144192	1.093867
O9	O	1.518247	-0.303209	0.506073
O10	O	2.018247	0.196791	1.006073
O11	O	1.753151	-0.264544	0.570630
O12	O	2.253151	0.235456	1.070630
O13	O	1.582665	-0.341924	0.271210
O14	O	2.082665	0.158076	0.771210
O15	O	1.453846	-0.162509	0.441614
O16	O	1.953846	0.337491	0.941614
O17	O	1.753035	-0.341894	0.441542
O18	O	2.253035	0.158106	0.941542
O19	O	1.582933	-0.162486	0.570671
O20	O	2.082933	0.337514	1.070671
O21	O	1.453694	-0.264597	0.271242
O22	O	1.953694	0.235403	0.771242
O23	O	1.283421	-0.264553	0.441553
O24	O	1.783421	0.235447	0.941553
O25	O	1.453750	-0.341815	0.740896
O26	O	1.953750	0.158185	1.240896
O27	O	1.283380	-0.341846	0.570565
O28	O	1.783380	0.158154	1.070565
O29	O	1.582878	-0.264499	0.740942
O30	O	2.082878	0.235501	1.240942
O31	O	1.582610	-0.443937	0.441482
O32	O	2.082610	0.056063	0.941482
O33	O	1.453597	-0.443903	0.570524
O34	O	1.953597	0.056097	1.070524
C35	C	1.245279	-0.303198	0.506058
C36	C	1.745279	0.196802	1.006058
C37	C	1.128503	-0.303209	0.506076
C38	C	1.628503	0.196791	1.006076
C39	C	1.073702	-0.263005	0.573396
C40	C	1.573702	0.236995	1.073396
C41	C	0.963978	-0.263012	0.573403
C42	C	1.463978	0.236988	1.073403
C43	C	0.963866	-0.343430	0.438767
C44	C	1.463866	0.156570	0.938767
C45	C	1.073588	-0.343420	0.438756
C46	C	1.573588	0.156580	0.938756
C47	C	1.518109	-0.466761	0.506014
C48	C	2.018109	0.033239	1.006014
C49	C	1.518146	-0.536729	0.506025
C50	C	2.018146	-0.036729	1.006025
C51	C	1.585383	-0.569592	0.438901
C52	C	2.085383	-0.069592	0.938901
C53	C	1.585432	-0.635335	0.438925
C54	C	2.085432	-0.135335	0.938925
C55	C	1.518226	-0.668211	0.506061
C56	C	2.018226	-0.168211	1.006061
C57	C	1.450985	-0.635340	0.573198
C58	C	1.950985	-0.135340	1.073198
C59	C	1.450945	-0.569599	0.573180
C60	C	1.950945	-0.069599	1.073180
N61	N	1.426319	-0.771477	0.514065
N62	N	1.926319	-0.271477	1.014065
N63	N	1.426360	-0.833928	0.514076
N64	N	1.926360	-0.333928	1.014076
C65	C	1.518344	-0.866286	0.506121
C66	C	2.018344	-0.366286	1.006121
N67	N	1.610287	-0.833833	0.498134
N68	N	2.110287	-0.333833	0.998134
N69	N	1.610245	-0.771376	0.498117
N70	N	2.110245	-0.271376	0.998117
C71	C	1.518262	-0.739497	0.506089
C72	C	2.018262	-0.239497	1.006089
C73	C	1.585639	-0.970435	0.439019
C74	C	2.085639	-0.470435	0.939019
C75	C	1.585690	-1.036178	0.439050
C76	C	2.085690	-0.536178	0.939050
C77	C	1.451233	-1.036183	0.573318
C78	C	1.951233	-0.536183	1.073318
C79	C	1.451192	-0.970440	0.573293
C80	C	1.951192	-0.470440	1.073293
C81	C	1.518393	-0.937570	0.506138
C82	C	2.018393	-0.437570	1.006138
C83	C	1.792280	-0.303220	0.506088
C84	C	2.292280	0.196780	1.006088
C85	C	1.909057	-0.303225	0.506095
C86	C	2.409057	0.196775	1.006095
C87	C	1.518325	-0.303149	0.780106
C88	C	2.018325	0.196851	1.280106
C89	C	1.518359	-0.303123	0.896883
C90	C	2.018359	0.196877	1.396883
C91	C	1.518414	-0.139019	0.506154
C92	C	2.018414	0.360981	1.006154
C93	C	1.518485	-0.069051	0.506189
C94	C	2.018485	0.430949	1.006189
C95	C	1.518229	-0.303224	0.233105
C96	C	2.018229	0.196776	0.733105
C97	C	1.518399	-0.303072	0.116329
C98	C	2.018399	0.196928	0.616329
C99	C	1.585601	-0.262858	0.951770
C100	C	2.085601	0.237142	1.451770
C101	C	1.585619	-0.262831	1.061494
C102	C	2.085619	0.237169	1.561494
C103	C	1.451149	-0.343339	1.061434
C104	C	1.951149	0.156661	1.561434
C105	C	1.451127	-0.343363	0.951712
C106	C	1.951127	0.156637	1.451712
H107	H	0.919140	-0.376170	0.383959
H108	H	1.419140	0.123830	0.883959
H109	H	1.118410	-0.230260	0.628210
H110	H	1.618410	0.269740	1.128210
H111	H	1.396192	-0.542841	0.627841
H112	H	1.896192	-0.042841	1.127841
C113	C	1.645346	-0.227036	1.229714
C114	C	2.145346	0.272964	1.729714
C115	C	1.659528	-0.218567	1.121828
C116	C	2.159528	0.281433	1.621828
H117	H	1.690970	-0.199703	1.266959
H118	H	2.190970	0.300297	1.766959
H119	H	1.660687	-0.269321	1.247678
H120	H	2.160687	0.230679	1.747678
H121	H	1.574763	-0.217816	1.247674
H122	H	2.074763	0.282184	1.747674
H123	H	1.730109	-0.227791	1.103867
H124	H	2.230109	0.272209	1.603867
H125	H	1.644194	-0.176272	1.103857
H126	H	2.144194	0.323728	1.603857
H127	H	1.396437	-0.943681	0.627947
H128	H	1.896437	-0.443681	1.127947
H129	H	1.118208	-0.376160	0.383930
H130	H	1.618208	0.123840	0.883930
H131	H	1.640343	-0.230090	0.907132
H132	H	2.140343	0.269910	1.407132
H133	H	1.396414	-0.376102	1.106089
H134	H	1.896414	0.123898	1.606089
C135	C	0.930293	-0.232489	0.751408
C136	C	1.430293	0.267511	1.251408
C137	C	0.903739	-0.218822	0.647409
C138	C	1.403739	0.281178	1.147409
H139	H	0.893099	-0.205208	0.797096
H140	H	1.393099	0.294792	1.297096
H141	H	1.003490	-0.226727	0.761028
H142	H	1.503490	0.273273	1.261028
H143	H	0.912282	-0.274798	0.766635
H144	H	1.412282	0.225202	1.266635
H145	H	0.921758	-0.176514	0.632179
H146	H	1.421758	0.323486	1.132179
H147	H	0.830525	-0.224578	0.637784
H148	H	1.330525	0.275422	1.137784
C149	C	1.718297	-0.576197	0.306193
C150	C	2.218297	-0.076197	0.806193
C151	C	1.659265	-0.533462	0.365100
C152	C	2.159265	-0.033462	0.865100
H153	H	1.763915	-0.553889	0.260640
H154	H	2.263915	-0.053889	0.760640
H155	H	1.672559	-0.601878	0.265970
H156	H	2.172559	-0.101878	0.765970
H157	H	1.758467	-0.601798	0.352023
H158	H	2.258467	-0.101798	0.852023
H159	H	1.619089	-0.507864	0.319270
H160	H	2.119089	-0.007864	0.819270
H161	H	1.705010	-0.507770	0.405326
H162	H	2.205010	-0.007770	0.905326
C163	C	1.726779	-0.709221	0.424419
C164	C	2.226779	-0.209221	0.924419
C165	C	1.659315	-0.671476	0.365119
C166	C	2.159315	-0.171476	0.865119
H167	H	1.772385	-0.731530	0.378847
H168	H	2.272385	-0.231530	0.878847
H169	H	1.686760	-0.738196	0.464415
H170	H	2.186760	-0.238196	0.964415
H171	H	1.766957	-0.683530	0.470199
H172	H	2.266957	-0.183530	0.970199
H173	H	1.619130	-0.697167	0.319343
H174	H	2.119130	-0.197167	0.819343
H175	H	1.699337	-0.642497	0.325104
H176	H	2.199337	-0.142497	0.825104
H177	H	1.396363	-0.376151	0.907021
H178	H	1.896363	0.123849	1.407021
C179	C	1.436357	-0.709215	0.714514
C180	C	1.936357	-0.209215	1.214514
C181	C	1.377110	-0.671477	0.646993
C182	C	1.877110	-0.171477	1.146993
H183	H	1.390748	-0.731526	0.760071
H184	H	1.890748	-0.231526	1.260071
H185	H	1.482085	-0.683524	0.754733
H186	H	1.982085	-0.183524	1.254733
H187	H	1.476405	-0.738195	0.674526
H188	H	1.976405	-0.238195	1.174526
H189	H	1.337067	-0.642494	0.686981
H190	H	1.837067	-0.142494	1.186981
H191	H	1.331363	-0.697170	0.606771
H192	H	1.831363	-0.197170	1.106771
C193	C	1.636902	-0.950257	0.261153
C194	C	2.136902	-0.450257	0.761153
C195	C	1.659511	-0.934298	0.365213
C196	C	2.159511	-0.434298	0.865213
H197	H	1.682511	-0.927951	0.215590
H198	H	2.182511	-0.427951	0.715590
H199	H	1.566320	-0.939530	0.245720
H200	H	2.066320	-0.439530	0.745720
H201	H	1.646558	-0.994115	0.251574
H202	H	2.146558	-0.494115	0.751574
H203	H	1.649848	-0.890441	0.374794
H204	H	2.149848	-0.390441	0.874794
H205	H	1.730109	-0.945022	0.380651
H206	H	2.230109	-0.445022	0.880651
C207	C	1.763651	-1.056266	0.388067
C208	C	2.263651	-0.556266	0.888067
C209	C	1.659654	-1.072269	0.365265
C210	C	2.159654	-0.572269	0.865265
H211	H	1.809326	-1.078535	0.342510
H212	H	2.309326	-0.578535	0.842510
H213	H	1.778982	-1.067009	0.458662
H214	H	2.278982	-0.567009	0.958662
H215	H	1.773177	-1.012401	0.378475
H216	H	2.273177	-0.512401	0.878475
H217	H	1.650127	-1.116134	0.374864
H218	H	2.150127	-0.616134	0.874864
H219	H	1.644318	-1.061531	0.294653
H220	H	2.144318	-0.561531	0.794653
H221	H	1.396517	-1.062950	0.627986
H222	H	1.896517	-0.562950	1.127986
