data_functionalizedCrystal
_audit_creation_method	'MofGen! by Chris Wilmer'
_symmetry_space_group_name_H-M	'P1'
_symmetry_Int_Tables_number	1
_symmetry_cell_setting	triclinic
loop_
_symmetry_equiv_pos_as_xyz
  x,y,z
_cell_length_a	13.897449
_cell_length_b	18.101395
_cell_length_c	13.897441
_cell_angle_alpha	89.970274
_cell_angle_beta	89.978743
_cell_angle_gamma	90.031931
loop_
_atom_site_label
_atom_site_type_symbol
_atom_site_fract_x
_atom_site_fract_y
_atom_site_fract_z
Zn1	Zn	1.474592	-0.294797	-0.545449
Zn2	Zn	1.474455	-0.418650	-0.384150
Zn3	Zn	1.313288	-0.294829	-0.384160
Zn4	Zn	1.313226	-0.418603	-0.545395
O5	O	1.393890	-0.356720	-0.464789
O6	O	1.609556	-0.311233	-0.524071
O7	O	1.453044	-0.402258	-0.249170
O8	O	1.334769	-0.191192	-0.405582
O9	O	1.609455	-0.402227	-0.405565
O10	O	1.453279	-0.191168	-0.524080
O11	O	1.334635	-0.311287	-0.249177
O12	O	1.178298	-0.311241	-0.405530
O13	O	1.334663	-0.402146	-0.680384
O14	O	1.178252	-0.402177	-0.523989
O15	O	1.453218	-0.311187	-0.680424
O16	O	1.452984	-0.522277	-0.405513
O17	O	1.334529	-0.522242	-0.523979
C18	C	1.143276	-0.356708	-0.464755
C19	C	1.036062	-0.356721	-0.464763
C20	C	0.948992	-0.356724	-0.464779
C21	C	0.839760	-0.356729	-0.464809
C22	C	1.393761	-0.549130	-0.464760
C23	C	1.393794	-0.631444	-0.464780
C24	C	1.394006	-0.930535	-0.464832
C25	C	1.319650	-0.899219	-0.539553
C26	C	1.319297	-0.813601	-0.539319
C27	C	1.393901	-0.782153	-0.464807
C28	C	1.366379	-0.813308	-0.363147
C29	C	1.365899	-0.898953	-0.363594
C30	C	1.496046	-0.898877	-0.490877
C31	C	1.495446	-0.813226	-0.493106
C32	C	1.393843	-0.698293	-0.464787
C33	C	1.394061	-1.014395	-0.464846
C34	C	1.645483	-0.356732	-0.464823
C35	C	1.752697	-0.356737	-0.464837
C36	C	1.393949	-0.356658	-0.716382
C37	C	1.393974	-0.356631	-0.823596
C38	C	1.394046	-0.163558	-0.464838
C39	C	1.394112	-0.081244	-0.464859
C40	C	1.393994	-0.356610	-0.910665
C41	C	1.394022	-0.356577	-1.019898
C42	C	1.393887	-0.356728	-0.214174
C43	C	1.394048	-0.356546	-0.106961
H44	H	1.336516	-0.792534	-0.614699
O45	O	1.525870	-0.924491	-0.577889
C46	C	1.459833	-0.902678	-0.649450
H47	H	1.418446	-0.852019	-0.623799
H48	H	1.407266	-0.949730	-0.664018
C49	C	1.565445	-0.945942	-0.774098
C50	C	1.514619	-0.883718	-0.742596
H51	H	1.599237	-0.934250	-0.831556
H52	H	1.609934	-0.960641	-0.725886
H53	H	1.521630	-0.985147	-0.786230
H54	H	1.558434	-0.844518	-0.730452
H55	H	1.470138	-0.869012	-0.790808
O56	O	1.229114	-0.789106	-0.518787
C57	C	1.228442	-0.711217	-0.518472
H58	H	1.290925	-0.689757	-0.563733
H59	H	1.236177	-0.690388	-0.441458
C60	C	1.056113	-0.709621	-0.505429
C61	C	1.132851	-0.683263	-0.561027
H62	H	0.997147	-0.692376	-0.531674
H63	H	1.056565	-0.762096	-0.505637
H64	H	1.062572	-0.692261	-0.441255
H65	H	1.126397	-0.700630	-0.625196
H66	H	1.132395	-0.630790	-0.560830
O67	O	1.429009	-0.788915	-0.295025
C68	C	1.498865	-0.743229	-0.338401
H69	H	1.469119	-0.719802	-0.408490
H70	H	1.566271	-0.776989	-0.354179
C71	C	1.560832	-0.708139	-0.183706
C72	C	1.524294	-0.679361	-0.269787
H73	H	1.576522	-0.668744	-0.141381
H74	H	1.513771	-0.738921	-0.154483
H75	H	1.616999	-0.736272	-0.196868
H76	H	1.468122	-0.651237	-0.256626
H77	H	1.571346	-0.648573	-0.299007
H78	H	1.553775	-0.791814	-0.442650
O79	O	1.278254	-0.787892	-0.336469
C80	C	1.208945	-0.810880	-0.404213
H81	H	1.236334	-0.861839	-0.443824
H82	H	1.195520	-0.764512	-0.458097
C83	C	1.080732	-0.767201	-0.303263
C84	C	1.114369	-0.829794	-0.351908
H85	H	1.022391	-0.778865	-0.271001
H86	H	1.127427	-0.751711	-0.257624
H87	H	1.069553	-0.728567	-0.348175
H88	H	1.125559	-0.868423	-0.306995
H89	H	1.067673	-0.845291	-0.397538
H90	H	1.516200	-0.792860	-0.567922
O91	O	1.562138	-0.923162	-0.426037
C92	C	1.565377	-1.001000	-0.427767
H93	H	1.537594	-1.021721	-0.500056
H94	H	1.518407	-1.023999	-0.367507
C95	C	1.704015	-1.001518	-0.324623
C96	C	1.669900	-1.026968	-0.413413
H97	H	1.768489	-1.017537	-0.315764
H98	H	1.701832	-0.949077	-0.323453
H99	H	1.664865	-1.020686	-0.274416
H100	H	1.709043	-1.007792	-0.463618
H101	H	1.672092	-1.079406	-0.414590
O102	O	1.339871	-0.923633	-0.629843
C103	C	1.271962	-0.894617	-0.695029
H104	H	1.239030	-0.842222	-0.663679
H105	H	1.212852	-0.937136	-0.708091
C106	C	1.362564	-0.940616	-0.829442
C107	C	1.322122	-0.876260	-0.790941
H108	H	1.393502	-0.929295	-0.888607
H109	H	1.408314	-0.960168	-0.785526
H110	H	1.313298	-0.976043	-0.840319
H111	H	1.371389	-0.840838	-0.780054
H112	H	1.276382	-0.856702	-0.834859
H113	H	1.244475	-0.920807	-0.522518
H114	H	1.291308	-0.918997	-0.341532
H115	H	1.417707	-0.919671	-0.306023
