data_functionalizedCrystal
_audit_creation_method	'MofGen! by Chris Wilmer'
_symmetry_space_group_name_H-M	'P1'
_symmetry_Int_Tables_number	1
_symmetry_cell_setting	triclinic
loop_
_symmetry_equiv_pos_as_xyz
  x,y,z
_cell_length_a	18.215407
_cell_length_b	13.031981
_cell_length_c	18.215399
_cell_angle_alpha	97.211043
_cell_angle_beta	90.017368
_cell_angle_gamma	97.189335
loop_
_atom_site_label
_atom_site_type_symbol
_atom_site_fract_x
_atom_site_fract_y
_atom_site_fract_z
Zn1	Zn	1.087911	-0.416191	0.378823
Zn2	Zn	1.072212	-0.590982	0.240115
Zn3	Zn	0.964841	-0.416216	0.255774
Zn4	Zn	0.949208	-0.590914	0.363151
O5	O	1.018543	-0.503576	0.309466
O6	O	1.188811	-0.439395	0.360429
O7	O	1.057942	-0.567837	0.139204
O8	O	0.994279	-0.269950	0.285208
O9	O	1.177277	-0.567813	0.258521
O10	O	1.084698	-0.269931	0.375612
O11	O	0.979057	-0.439437	0.150709
O12	O	0.859785	-0.439372	0.270012
O13	O	0.967635	-0.567698	0.468218
O14	O	0.848299	-0.567722	0.348902
O15	O	1.069539	-0.439329	0.479732
O16	O	1.042783	-0.737235	0.243324
O17	O	0.952413	-0.737186	0.333718
C18	C	0.827340	-0.503543	0.309456
C19	C	0.745540	-0.503555	0.309467
C20	C	0.563338	-0.436825	0.362592
C21	C	0.486479	-0.436834	0.362594
C22	C	0.474498	-0.570355	0.256350
C23	C	0.551356	-0.570340	0.256345
C24	C	0.595774	-0.503577	0.309471
C25	C	0.442056	-0.503601	0.309477
C26	C	0.358722	-0.503611	0.309478
C27	C	0.679114	-0.503565	0.309469
C28	C	0.994218	-0.775135	0.285138
C29	C	0.983879	-0.891309	0.274755
C30	C	1.023978	-0.943011	0.314900
C31	C	1.013293	-1.063083	0.304169
C32	C	1.210493	-0.503609	0.309476
C33	C	1.292291	-0.503623	0.309481
C34	C	1.018594	-0.503503	0.501425
C35	C	1.018616	-0.503473	0.583227
C36	C	1.042983	-0.230956	0.333905
C37	C	1.053398	-0.114782	0.344320
C38	C	1.018541	-0.503572	0.118260
C39	C	1.018688	-0.503308	0.036485
C40	C	1.071700	-0.436569	0.777423
C41	C	1.071712	-0.436538	0.854285
C42	C	0.965599	-0.570215	0.842283
C43	C	0.965585	-0.570240	0.765424
C44	C	1.018639	-0.503418	0.732995
C45	C	1.018665	-0.503363	0.886717
C46	C	1.018677	-0.503331	0.970053
C47	C	1.018627	-0.503449	0.649654
H48	H	0.438323	-0.624713	0.213097
O49	O	1.074378	-0.889940	0.365440
C50	C	1.166734	-0.901024	0.457881
C51	C	1.109672	-0.961252	0.400679
H52	H	1.195296	-0.958654	0.486376
H53	H	1.137467	-0.849952	0.500912
H54	H	1.209723	-0.849867	0.428659
H55	H	1.066667	-1.012466	0.429836
H56	H	1.138991	-1.012259	0.357651
O57	O	1.123293	-0.371801	0.745875
C58	C	1.223865	-0.357759	0.660338
C59	C	1.165485	-0.431234	0.696020
H60	H	1.257982	-0.405780	0.620012
H61	H	1.261842	-0.309989	0.705262
H62	H	1.194950	-0.303098	0.629286
H63	H	1.194337	-0.485958	0.727067
H64	H	1.127512	-0.478931	0.651063
O65	O	0.582945	-0.635241	0.204838
C66	C	0.657061	-0.776357	0.182135
C67	C	0.621341	-0.702916	0.240542
H68	H	0.688099	-0.831106	0.210979
H69	H	0.697373	-0.728351	0.148019
H70	H	0.612103	-0.824035	0.144158
H71	H	0.666247	-0.655222	0.278569
H72	H	0.581012	-0.750982	0.274605
H73	H	0.971047	-1.107708	0.261856
O74	O	0.454877	-0.372141	0.414222
C75	C	0.369416	-0.358279	0.514877
C76	C	0.405134	-0.431665	0.456430
H77	H	0.329203	-0.406376	0.549028
H78	H	0.338266	-0.303585	0.486097
H79	H	0.414384	-0.310539	0.552811
H80	H	0.360213	-0.479472	0.418479
H81	H	0.436301	-0.486290	0.485259
O82	O	1.103714	-1.061603	0.394905
C83	C	1.142377	-1.027896	0.523109
C84	C	1.085334	-1.088165	0.465903
H85	H	1.127546	-1.049365	0.580521
H86	H	1.142016	-0.940529	0.522837
H87	H	1.199835	-1.049231	0.508305
H88	H	1.027848	-1.066917	0.480668
H89	H	1.085760	-1.175517	0.466186
O90	O	1.123329	-0.371570	0.897330
C91	C	1.228552	-0.238943	0.901121
C92	C	1.170147	-0.312488	0.852284
H93	H	1.266410	-0.191141	0.864723
H94	H	1.262790	-0.286872	0.932794
H95	H	1.199654	-0.184316	0.942015
H96	H	1.198984	-0.367130	0.811349
H97	H	1.135912	-0.264494	0.820664
H98	H	0.941635	-0.935938	0.232445
O99	O	0.606592	-0.372065	0.414159
C100	C	0.730310	-0.312816	0.461213
C101	C	0.681413	-0.386231	0.402782
H102	H	0.790813	-0.324227	0.452025
H103	H	0.713623	-0.331276	0.518897
H104	H	0.722689	-0.228529	0.455941
H105	H	0.689009	-0.470542	0.407986
H106	H	0.698111	-0.367680	0.345121
H107	H	0.922371	-0.624675	0.729249
H108	H	0.922405	-0.624621	0.868696
