data_functionalizedCrystal
_audit_creation_method	'MofGen! by Chris Wilmer'
_symmetry_space_group_name_H-M	'P1'
_symmetry_Int_Tables_number	1
_symmetry_cell_setting	triclinic
loop_
_symmetry_equiv_pos_as_xyz
  x,y,z
_cell_length_a	14.971506
_cell_length_b	14.185328
_cell_length_c	14.971486
_cell_angle_alpha	104.763431
_cell_angle_beta	83.618258
_cell_angle_gamma	104.763280
loop_
_atom_site_label
_atom_site_type_symbol
_atom_site_fract_x
_atom_site_fract_y
_atom_site_fract_z
O1	O	1.205057	0.083430	0.134772
O2	O	0.944659	0.083430	0.148712
O3	O	1.081836	0.083423	0.011541
O4	O	1.067880	0.083437	0.271943
O5	O	1.045581	-0.083422	-0.024706
O6	O	0.908404	-0.083414	0.112465
O7	O	1.168802	-0.083415	0.098525
Cu8	Cu	1.035293	-0.098649	0.102185
Cu9	Cu	1.078168	0.098664	0.145051
O10	O	1.031625	-0.083407	0.235696
C11	C	0.893207	0.000008	0.129962
C12	C	0.793911	0.000008	0.128084
N13	N	1.005143	-0.237428	0.072035
C14	C	0.355632	0.000022	0.201505
C15	C	0.448933	0.000027	0.203263
C16	C	0.506151	0.000018	0.122669
C17	C	0.470066	0.000015	0.040313
C18	C	0.376768	0.000018	0.038557
C19	C	0.664527	0.000007	0.043978
C20	C	0.757831	0.000002	0.045734
C21	C	0.736692	0.000016	0.208684
C22	C	0.643394	0.000019	0.206928
C23	C	0.607315	0.000014	0.124572
C24	C	1.196832	-0.605025	0.263802
C25	C	1.174015	-0.710053	0.240950
C26	C	1.065422	-0.710044	0.132270
C27	C	1.088227	-0.605014	0.155116
C28	C	1.153933	-0.552513	0.220882
C29	C	1.045328	-0.552502	0.112196
C30	C	1.068135	-0.447481	0.135038
C31	C	1.133841	-0.394972	0.200799
C32	C	1.176740	-0.447492	0.243724
C33	C	0.979627	-0.605005	0.046426
C34	C	0.936728	-0.552493	0.003506
C35	C	0.959529	-0.447470	0.026352
C36	C	1.025235	-0.394961	0.092113
C37	C	0.916630	-0.394950	-0.016573
C38	C	0.939437	-0.289929	0.006269
C39	C	1.048042	-0.289940	0.114955
C40	C	1.220254	0.000010	0.117275
C41	C	1.319552	0.000016	0.119155
C42	C	1.063084	0.000001	-0.039908
C43	C	1.061214	0.000002	-0.139205
N44	N	1.108325	0.237444	0.175195
C45	C	1.141802	0.000001	-0.196424
C46	C	1.140041	0.000011	-0.289722
C47	C	1.057689	0.000015	-0.325799
C48	C	0.977095	0.000019	-0.268571
C49	C	0.978859	0.000016	-0.175274
C50	C	0.973425	0.000022	-0.463033
C51	C	0.971661	0.000023	-0.556337
C52	C	1.134607	0.000018	-0.577481
C53	C	1.136371	0.000015	-0.484184
C54	C	1.055776	0.000017	-0.426963
C55	C	1.050377	0.000017	0.287145
C56	C	1.052249	0.000023	0.386443
H57	H	0.309049	0.000022	0.267133
Cl58	Cl	0.331410	0.000010	-0.064973
H59	H	1.208861	-0.000008	-0.167059
Cl60	Cl	0.950963	-0.737033	0.017703
H61	H	1.205664	0.000008	-0.336307
H62	H	0.766072	0.000019	0.275742
Cl63	Cl	0.877544	0.000021	-0.103339
H64	H	0.596807	0.000019	0.272554
Cl65	Cl	0.494287	0.000040	0.306795
H66	H	0.883232	-0.595253	-0.050044
Cl67	Cl	0.619170	-0.000007	-0.059559
H68	H	1.203427	0.000004	-0.454814
H69	H	0.804418	0.000003	-0.019892
Cl70	Cl	0.541998	0.000006	-0.061006
H71	H	1.152411	-0.309457	0.219394
Cl72	Cl	1.235927	0.000020	-0.649414
H73	H	1.101537	-0.247191	0.168517
Cl74	Cl	1.259354	-0.381482	0.326394
Cl75	Cl	1.279446	-0.539015	0.346472
Cl76	Cl	0.834038	-0.460964	-0.099254
H77	H	0.904600	0.000010	-0.585712
H78	H	0.904502	-0.247173	-0.028680
Cl79	Cl	0.873569	0.000036	-0.313923
Cl80	Cl	1.227958	-0.776065	0.294910
Cl81	Cl	0.982822	-0.776055	0.049596
Cl82	Cl	0.872105	0.000025	-0.391100
