data_functionalizedCrystal
_audit_creation_method	'MofGen! by Chris Wilmer'
_symmetry_space_group_name_H-M	'P1'
_symmetry_Int_Tables_number	1
_symmetry_cell_setting	triclinic
loop_
_symmetry_equiv_pos_as_xyz
  x,y,z
_cell_length_a	19.077269
_cell_length_b	19.077068
_cell_length_c	19.076919
_cell_angle_alpha	94.470751
_cell_angle_beta	94.669058
_cell_angle_gamma	89.938054
loop_
_atom_site_label
_atom_site_type_symbol
_atom_site_fract_x
_atom_site_fract_y
_atom_site_fract_z
Zn1	Zn	1.047527	-0.337126	-0.369359
Zn2	Zn	1.547527	0.162874	0.130641
Zn3	Zn	1.047440	-0.450276	-0.256207
Zn4	Zn	1.547440	0.049724	0.243793
Zn5	Zn	0.934764	-0.328056	-0.255847
Zn6	Zn	1.434764	0.171944	0.244153
Zn7	Zn	0.924872	-0.450240	-0.378788
Zn8	Zn	1.424872	0.049760	0.121212
O9	O	0.988651	-0.391424	-0.315050
O10	O	1.488651	0.108576	0.184950
O11	O	1.146002	-0.355946	-0.350553
O12	O	1.646002	0.144054	0.149447
O13	O	1.036597	-0.430282	-0.157353
O14	O	1.536597	0.069718	0.342647
O15	O	0.953899	-0.230771	-0.266808
O16	O	1.453899	0.269229	0.233192
O17	O	1.145938	-0.439076	-0.267421
O18	O	1.645938	0.060924	0.232579
O19	O	1.036745	-0.237434	-0.350205
O20	O	1.536745	0.262566	0.149795
O21	O	0.953814	-0.340488	-0.157089
O22	O	1.453814	0.159512	0.342911
O23	O	0.834965	-0.340454	-0.275952
O24	O	1.334965	0.159546	0.224048
O25	O	0.937039	-0.439016	-0.476343
O26	O	1.437039	0.060984	0.023657
O27	O	0.827698	-0.430222	-0.366275
O28	O	1.327698	0.069778	0.133725
O29	O	1.027153	-0.355911	-0.469415
O30	O	1.527153	0.144089	0.030585
O31	O	1.027005	-0.548759	-0.276564
O32	O	1.527005	-0.048759	0.223436
O33	O	0.936955	-0.548733	-0.366624
O34	O	1.436955	-0.048733	0.133376
C35	C	0.805795	-0.384350	-0.322098
C36	C	1.305795	0.115650	0.177902
C37	C	0.727567	-0.381342	-0.325131
C38	C	1.227567	0.118658	0.174869
C39	C	0.690785	-0.423134	-0.283203
C40	C	1.190785	0.076866	0.216797
C41	C	0.617282	-0.420308	-0.286061
C42	C	1.117282	0.079692	0.213939
C43	C	0.580561	-0.375685	-0.330845
C44	C	1.080561	0.124315	0.169155
C45	C	0.617348	-0.333891	-0.372778
C46	C	1.117348	0.166109	0.127222
C47	C	0.690851	-0.336721	-0.369922
C48	C	1.190851	0.163279	0.130078
C49	C	0.360736	-0.362589	-0.344038
C50	C	0.860736	0.137411	0.155962
C51	C	0.287229	-0.359761	-0.346888
C52	C	0.787229	0.140239	0.153112
C53	C	0.287167	-0.446179	-0.260173
C54	C	0.787167	0.053821	0.239827
C55	C	0.360671	-0.449003	-0.257318
C56	C	0.860671	0.050997	0.242682
C57	C	0.397451	-0.407211	-0.299253
C58	C	0.897451	0.092789	0.200747
N59	N	0.505429	-0.372793	-0.333766
N60	N	1.005429	0.127207	0.166234
N61	N	0.472582	-0.410107	-0.296335
N62	N	0.972582	0.089893	0.203665
C63	C	0.980916	-0.574284	-0.322671
C64	C	1.480916	-0.074284	0.177329
C65	C	0.977670	-0.652516	-0.325952
C66	C	1.477670	-0.152516	0.174048
C67	C	1.023062	-0.689262	-0.280640
C68	C	1.523062	-0.189262	0.219360
C69	C	1.020014	-0.762769	-0.283730
C70	C	1.520014	-0.262769	0.216270
C71	C	0.971568	-0.799528	-0.332129
C72	C	1.471568	-0.299528	0.167871
C73	C	0.926174	-0.762777	-0.377446
C74	C	1.426174	-0.262777	0.122554
C75	C	0.929226	-0.689271	-0.374359
C76	C	1.429226	-0.189271	0.125641
C77	C	0.957410	-1.019368	-0.346390
C78	C	1.457410	-0.519368	0.153610
C79	C	0.954359	-1.092878	-0.349473
C80	C	1.454359	-0.592878	0.150527
C81	C	1.048201	-1.092865	-0.255757
C82	C	1.548201	-0.592865	0.244243
C83	C	1.051246	-1.019358	-0.252672
C84	C	1.551246	-0.519358	0.247328
C85	C	1.005854	-0.982613	-0.297991
C86	C	1.505854	-0.482613	0.202009
N87	N	0.968449	-0.874664	-0.335288
N88	N	1.468449	-0.374664	0.164712
N89	N	1.008977	-0.907479	-0.294835
N90	N	1.508977	-0.407479	0.205165
C91	C	1.172221	-0.398527	-0.307975
C92	C	1.672221	0.101473	0.192025
C93	C	1.250447	-0.401553	-0.304960
C94	C	1.750447	0.098447	0.195040
C95	C	0.981003	-0.398471	-0.499215
C96	C	1.481003	0.101529	0.000785
C97	C	0.977744	-0.401474	-0.577694
C98	C	1.477744	0.098526	-0.077694
C99	C	0.996435	-0.207852	-0.307415
C100	C	1.496435	0.292148	0.192585
C101	C	0.999752	-0.129624	-0.304161
C102	C	1.499752	0.370376	0.195839
C103	C	1.023127	-0.359619	-0.610959
C104	C	1.523127	0.140381	-0.110959
C105	C	1.020057	-0.362437	-0.684699
C106	C	1.520057	0.137563	-0.184699
C107	C	0.971605	-0.407116	-0.725174
C108	C	1.471605	0.092884	-0.225174
C109	C	0.926216	-0.448973	-0.691905
C110	C	1.426216	0.051027	-0.191905
C111	C	0.929284	-0.446150	-0.618165
C112	C	1.429284	0.053850	-0.118165
C113	C	0.957395	-0.420194	-0.946097
C114	C	1.457395	0.079806	-0.446097
C115	C	0.954332	-0.423015	-1.019841
C116	C	1.454332	0.076985	-0.519841
C117	C	1.048172	-0.336479	-1.012631
C118	C	1.548172	0.163521	-0.512631
C119	C	1.051239	-0.333663	-0.938891
C120	C	1.551239	0.166337	-0.438891
C121	C	1.005847	-0.375517	-0.905628
C122	C	1.505847	0.124483	-0.405628
N123	N	0.968466	-0.409999	-0.800549
N124	N	1.468466	0.090001	-0.300549
N125	N	1.008983	-0.372629	-0.830254
N126	N	1.508983	0.127371	-0.330254
C127	C	0.996312	-0.384356	-0.131599
C128	C	1.496312	0.115644	0.368401
C129	C	0.999716	-0.381160	-0.053106
C130	C	1.499716	0.118840	0.446894
H131	H	0.720678	-0.459469	-0.246732
H132	H	1.220678	0.040531	0.253268
H133	H	0.587445	-0.297561	-0.409245
H134	H	1.087445	0.202439	0.090755
C135	C	1.075549	-0.649310	-0.228006
C136	C	1.575549	-0.149310	0.271994
C137	C	1.039367	-0.603906	-0.182470
C138	C	1.539367	-0.103906	0.317530
C139	C	1.087696	-0.567100	-0.133970
C140	C	1.587696	-0.067100	0.366030
H141	H	1.106281	-0.622755	-0.252568
H142	H	1.606281	-0.122755	0.247432
H143	H	1.102138	-0.681700	-0.201422
H144	H	1.602138	-0.181700	0.298578
H145	H	1.012790	-0.571520	-0.209051
H146	H	1.512790	-0.071520	0.290949
H147	H	1.008637	-0.630443	-0.157892
H148	H	1.508637	-0.130443	0.342108
H149	H	1.114284	-0.599491	-0.107385
H150	H	1.614284	-0.099491	0.392615
H151	H	1.118426	-0.540550	-0.158538
H152	H	1.618426	-0.040550	0.341462
H153	H	1.063153	-0.536294	-0.103063
H154	H	1.563153	-0.036294	0.396937
H155	H	1.057015	-0.328356	-0.711780
H156	H	1.557015	0.171644	-0.211780
H157	H	0.920444	-0.454286	-0.919024
H158	H	1.420444	0.045714	-0.419024
H159	H	0.587337	-0.454340	-0.251919
H160	H	1.087337	0.045660	0.248081
H161	H	0.257334	-0.323417	-0.383354
H162	H	0.757334	0.176583	0.116646
H163	H	0.390674	-0.328561	-0.378185
H164	H	0.890674	0.171439	0.121815
C165	C	1.069468	-0.802520	-0.234563
C166	C	1.569468	-0.302520	0.265437
C167	C	1.139164	-0.787764	-0.246596
C168	C	1.639164	-0.287764	0.253404
C169	C	1.184769	-0.824335	-0.201308
C170	C	1.684769	-0.324335	0.298692
H171	H	1.060870	-0.851588	-0.243246
H172	H	1.560870	-0.351588	0.256754
H173	H	1.061732	-0.788259	-0.186992
H174	H	1.561732	-0.288259	0.313008
H175	H	1.146897	-0.802030	-0.294156
H176	H	1.646897	-0.302030	0.205844
H177	H	1.147785	-0.738704	-0.237908
H178	H	1.647785	-0.238704	0.262092
H179	H	1.177033	-0.810074	-0.153736
H180	H	1.677033	-0.310074	0.346264
H181	H	1.176165	-0.873401	-0.209995
H182	H	1.676165	-0.373401	0.290005
H183	H	1.232063	-0.814323	-0.209461
H184	H	1.732063	-0.314323	0.290539
C185	C	0.901675	-1.132817	-0.401913
C186	C	1.401675	-0.632817	0.098087
C187	C	0.856490	-1.171780	-0.365409
C188	C	1.356490	-0.671780	0.134591
C189	C	0.807944	-1.208572	-0.413689
C190	C	1.307944	-0.708572	0.086311
H191	H	0.926021	-1.163730	-0.432882
H192	H	1.426021	-0.663730	0.067118
H193	H	0.875039	-1.100424	-0.428451
H194	H	1.375039	-0.600424	0.071549
H195	H	0.883124	-1.204170	-0.338883
H196	H	1.383124	-0.704170	0.161117
H197	H	0.832128	-1.140884	-0.334443
H198	H	1.332128	-0.640884	0.165557
H199	H	0.781308	-1.176179	-0.440227
H200	H	1.281308	-0.676179	0.059773
H201	H	0.832296	-1.239481	-0.444655
H202	H	1.332296	-0.739481	0.055345
H203	H	0.777276	-1.235008	-0.388928
H204	H	1.277276	-0.735008	0.111072
H205	H	0.257213	-0.480204	-0.226032
H206	H	0.757213	0.019796	0.273968
H207	H	0.390564	-0.485339	-0.220850
H208	H	0.890564	0.014661	0.279150
H209	H	1.090695	-0.297283	-0.905941
H210	H	1.590695	0.202717	-0.405941
H211	H	0.920449	-0.989456	-0.383289
H212	H	1.420449	-0.489456	0.116711
H213	H	0.886763	-0.485348	-0.724865
H214	H	1.386763	0.014652	-0.224865
H215	H	1.085126	-0.302402	-1.039722
H216	H	1.585126	0.197598	-0.539722
H217	H	0.914874	-0.459399	-1.052794
H218	H	1.414874	0.040601	-0.552794
H219	H	0.720798	-0.302689	-0.404064
H220	H	1.220798	0.197311	0.095936
C221	C	1.103925	-0.979579	-0.200106
C222	C	1.603925	-0.479579	0.299894
C223	C	1.143041	-1.027495	-0.161098
C224	C	1.643041	-0.527495	0.338902
C225	C	1.191581	-0.990878	-0.112674
C226	C	1.691581	-0.490878	0.387326
H227	H	1.079580	-0.948719	-0.169086
H228	H	1.579580	-0.448719	0.330914
H229	H	1.134673	-0.953104	-0.224742
H230	H	1.634673	-0.453104	0.275258
H231	H	1.112297	-1.053959	-0.136463
H232	H	1.612297	-0.553959	0.363537
H233	H	1.167400	-1.058357	-0.192098
H234	H	1.667400	-0.558357	0.307902
H235	H	1.222330	-0.964402	-0.137311
H236	H	1.722330	-0.464402	0.362689
H237	H	1.167231	-0.960019	-0.081660
H238	H	1.667231	-0.460019	0.418340
H239	H	1.218132	-1.023383	-0.086206
H240	H	1.718132	-0.523383	0.413794
C241	C	1.097456	-1.132890	-0.206650
C242	C	1.597456	-0.632890	0.293350
C243	C	1.084432	-1.205132	-0.219725
C244	C	1.584432	-0.705132	0.280275
C245	C	1.129805	-1.242024	-0.174509
C246	C	1.629805	-0.742024	0.325491
H247	H	1.089714	-1.118749	-0.159063
H248	H	1.589714	-0.618749	0.340937
H249	H	1.144817	-1.123060	-0.214708
H250	H	1.644817	-0.623060	0.285292
H251	H	1.037082	-1.214957	-0.211661
H252	H	1.537082	-0.714957	0.288339
H253	H	1.092179	-1.219293	-0.267303
H254	H	1.592179	-0.719293	0.232697
H255	H	1.177166	-1.232194	-0.182567
H256	H	1.677166	-0.732194	0.317433
H257	H	1.122059	-1.227878	-0.126925
H258	H	1.622059	-0.727878	0.373075
H259	H	1.120979	-1.291045	-0.183379
H260	H	1.620979	-0.791045	0.316621
C261	C	0.873599	-0.802810	-0.429922
C262	C	1.373599	-0.302810	0.070078
C263	C	0.880625	-0.875047	-0.422914
C264	C	1.380625	-0.375047	0.077086
C265	C	0.832196	-0.911944	-0.471235
C266	C	1.332196	-0.411944	0.028765
H267	H	0.882341	-0.793032	-0.476502
H268	H	1.382341	-0.293032	0.023498
H269	H	0.827233	-0.788622	-0.420862
H270	H	1.327233	-0.288622	0.079138
H271	H	0.926981	-0.889230	-0.431978
H272	H	1.426981	-0.389230	0.068022
H273	H	0.871877	-0.884846	-0.376344
H274	H	1.371877	-0.384846	0.123656
H275	H	0.785831	-0.897756	-0.462176
H276	H	1.285831	-0.397756	0.037824
H277	H	0.840943	-0.902161	-0.517813
H278	H	1.340943	-0.402161	-0.017813
H279	H	0.836953	-0.960961	-0.466483
H280	H	1.336953	-0.460961	0.033517
H281	H	0.892321	-0.480226	-0.591083
H282	H	1.392321	0.019774	-0.091083
H283	H	0.892264	-0.659353	-0.411257
H284	H	1.392264	-0.159353	0.088743
H285	H	1.062584	-0.323239	-0.578009
H286	H	1.562584	0.176761	-0.078009
