data_functionalizedCrystal
_audit_creation_method	'MofGen! by Chris Wilmer'
_symmetry_space_group_name_H-M	'P1'
_symmetry_Int_Tables_number	1
_symmetry_cell_setting	triclinic
loop_
_symmetry_equiv_pos_as_xyz
  x,y,z
_cell_length_a	21.295418
_cell_length_b	25.639239
_cell_length_c	21.295411
_cell_angle_alpha	89.980474
_cell_angle_beta	89.956262
_cell_angle_gamma	90.054499
loop_
_atom_site_label
_atom_site_type_symbol
_atom_site_fract_x
_atom_site_fract_y
_atom_site_fract_z
Zn1	Zn	0.962320	-0.207990	-0.356243
Zn2	Zn	1.462320	0.292010	0.143757
Zn3	Zn	0.962207	-0.295410	-0.250972
Zn4	Zn	1.462207	0.204590	0.249028
Zn5	Zn	0.857043	-0.208014	-0.250953
Zn6	Zn	1.357043	0.291986	0.249047
Zn7	Zn	0.856998	-0.295420	-0.356169
Zn8	Zn	1.356998	0.204580	0.143831
O9	O	0.909642	-0.251708	-0.303584
O10	O	1.409642	0.248292	0.196416
O11	O	1.050395	-0.219572	-0.342318
O12	O	1.550395	0.280428	0.157682
O13	O	0.948229	-0.283822	-0.162880
O14	O	1.448229	0.216178	0.337120
O15	O	0.871075	-0.134846	-0.264943
O16	O	1.371075	0.365154	0.235057
O17	O	1.050312	-0.283799	-0.264976
O18	O	1.550312	0.216201	0.235024
O19	O	0.948421	-0.134828	-0.342299
O20	O	1.448421	0.365172	0.157701
O21	O	0.870965	-0.219613	-0.162866
O22	O	1.370965	0.280387	0.337134
O23	O	0.768948	-0.219623	-0.264871
O24	O	1.268948	0.280377	0.235129
O25	O	0.870997	-0.283816	-0.444268
O26	O	1.370997	0.216184	0.055732
O27	O	0.768914	-0.283840	-0.342172
O28	O	1.268914	0.216160	0.157828
O29	O	0.948377	-0.219582	-0.444322
O30	O	1.448377	0.280418	0.055678
O31	O	0.948185	-0.368576	-0.264904
O32	O	1.448185	0.131424	0.235096
O33	O	0.870888	-0.368584	-0.342191
O34	O	1.370888	0.131416	0.157809
C35	C	0.746090	-0.251736	-0.303512
C36	C	1.246090	0.248264	0.196488
C37	C	0.676122	-0.251760	-0.303496
C38	C	1.176122	0.248240	0.196504
C39	C	0.643255	-0.285242	-0.343686
C40	C	1.143255	0.214758	0.156314
C41	C	0.577512	-0.285229	-0.343715
C42	C	1.077512	0.214771	0.156285
C43	C	0.544640	-0.251740	-0.303541
C44	C	1.044640	0.248260	0.196459
C45	C	0.577515	-0.218252	-0.263347
C46	C	1.077515	0.281748	0.236653
C47	C	0.643257	-0.218262	-0.263325
C48	C	1.143257	0.281738	0.236675
N49	N	0.441365	-0.247648	-0.248483
N50	N	0.941365	0.252352	0.251517
N51	N	0.378913	-0.247641	-0.248506
N52	N	0.878913	0.252359	0.251494
C53	C	0.346565	-0.251707	-0.303608
C54	C	0.846565	0.248293	0.196392
N55	N	0.379028	-0.255789	-0.358686
N56	N	0.879028	0.244211	0.141314
N57	N	0.441485	-0.255799	-0.358662
N58	N	0.941485	0.244201	0.141338
C59	C	0.473354	-0.251725	-0.303561
C60	C	0.973354	0.248275	0.196439
C61	C	0.242412	-0.285176	-0.343832
C62	C	0.742412	0.214824	0.156168
C63	C	0.176668	-0.285160	-0.343862
C64	C	0.676668	0.214840	0.156138
C65	C	0.176673	-0.218185	-0.263489
C66	C	0.676673	0.281815	0.236511
C67	C	0.242415	-0.218199	-0.263465
C68	C	0.742415	0.281801	0.236535
C69	C	0.275281	-0.251697	-0.303636
C70	C	0.775281	0.248303	0.196364
C71	C	0.909536	-0.387551	-0.303555
C72	C	1.409536	0.112449	0.196445
C73	C	0.909548	-0.445665	-0.303564
C74	C	1.409548	0.054335	0.196436
C75	C	0.949996	-0.806011	-0.263409
C76	C	1.449996	-0.306011	0.236591
C77	C	0.950020	-0.860616	-0.263418
C78	C	1.450020	-0.360616	0.236582
O79	O	0.984300	-0.888838	-0.229245
O80	O	1.484300	-0.388838	0.270755
N81	N	0.909753	-0.887947	-0.303626
N82	N	1.409753	-0.387947	0.196374
C83	C	0.869463	-0.860672	-0.343833
C84	C	1.369463	-0.360672	0.156167
O85	O	0.835215	-0.888934	-0.378034
O86	O	1.335215	-0.388934	0.121966
C87	C	0.869442	-0.806069	-0.343827
C88	C	1.369442	-0.306069	0.156173
C89	C	0.909708	-0.778740	-0.303612
C90	C	1.409708	-0.278740	0.196388
C91	C	0.990259	-0.778683	-0.223198
C92	C	1.490259	-0.278683	0.276802
C93	C	0.990233	-0.724082	-0.223188
C94	C	1.490233	-0.224082	0.276812
C95	C	0.949945	-0.696810	-0.263391
C96	C	1.449945	-0.196810	0.236609
C97	C	0.909682	-0.724139	-0.303603
C98	C	1.409682	-0.224139	0.196397
C99	C	0.829156	-0.778794	-0.384037
C100	C	1.329156	-0.278794	0.115963
C101	C	0.829139	-0.724187	-0.384028
C102	C	1.329139	-0.224187	0.115972
C103	C	0.869404	-0.696858	-0.343812
C104	C	1.369404	-0.196858	0.156188
C105	C	0.869369	-0.642267	-0.343796
C106	C	1.369369	-0.142267	0.156204
N107	N	0.909636	-0.614935	-0.303588
N108	N	1.409636	-0.114935	0.196412
C109	C	0.949924	-0.642207	-0.263385
C110	C	1.449924	-0.142207	0.236615
C111	C	0.869510	-0.975343	-0.343842
C112	C	1.369510	-0.475343	0.156158
C113	C	0.869527	-1.029945	-0.343845
C114	C	1.369527	-0.529945	0.156155
C115	C	0.950086	-1.029885	-0.263431
C116	C	1.450086	-0.529885	0.236569
C117	C	0.950065	-0.975282	-0.263425
C118	C	1.450065	-0.475282	0.236575
C119	C	0.909778	-0.948011	-0.303634
C120	C	1.409778	-0.448011	0.196366
C121	C	0.949868	-0.527542	-0.263369
C122	C	1.449868	-0.027542	0.236631
C123	C	0.949837	-0.472937	-0.263361
C124	C	1.449837	0.027063	0.236639
C125	C	0.869281	-0.473001	-0.343778
C126	C	1.369281	0.026999	0.156222
C127	C	0.869309	-0.527602	-0.343783
C128	C	1.369309	-0.027602	0.156217
C129	C	0.909607	-0.554871	-0.303577
C130	C	1.409607	-0.054871	0.196423
O131	O	0.835108	-0.614010	-0.377953
O132	O	1.335108	-0.114010	0.122047
O133	O	0.984172	-0.613939	-0.229195
O134	O	1.484172	-0.113939	0.270805
C135	C	1.073832	-0.251681	-0.303657
C136	C	1.573832	0.248319	0.196343
C137	C	1.143801	-0.251670	-0.303688
C138	C	1.643801	0.248330	0.196312
C139	C	0.909694	-0.251697	-0.467774
C140	C	1.409694	0.248303	0.032226
C141	C	0.909717	-0.251693	-0.537743
C142	C	1.409717	0.248307	-0.037743
C143	C	0.909766	-0.115335	-0.303627
C144	C	1.409766	0.384665	0.196373
C145	C	0.909818	-0.057221	-0.303645
C146	C	1.409818	0.442779	0.196355
C147	C	0.950007	-0.218244	-0.570639
C148	C	1.450007	0.281756	-0.070639
C149	C	0.950006	-0.218221	-0.636381
C150	C	1.450006	0.281779	-0.136381
C151	C	0.909721	-0.251657	-0.669225
C152	C	1.409721	0.248343	-0.169225
C153	C	0.869424	-0.285108	-0.636321
C154	C	1.369424	0.214892	-0.136321
C155	C	0.869421	-0.285126	-0.570580
C156	C	1.369421	0.214874	-0.070580
N157	N	0.904857	-0.297396	-0.772441
N158	N	1.404857	0.202604	-0.272441
N159	N	0.904863	-0.297377	-0.834892
N160	N	1.404863	0.202623	-0.334892
C161	C	0.909725	-0.251604	-0.867300
C162	C	1.409725	0.248396	-0.367300
N163	N	0.914594	-0.205848	-0.834897
N164	N	1.414594	0.294152	-0.334897
N165	N	0.914591	-0.205867	-0.772440
N166	N	1.414591	0.294133	-0.272440
C167	C	0.909719	-0.251641	-0.740511
C168	C	1.409719	0.248359	-0.240511
C169	C	0.950017	-0.218128	-0.971482
C170	C	1.450017	0.281872	-0.471482
C171	C	0.950011	-0.218104	-1.037225
C172	C	1.450011	0.281896	-0.537225
C173	C	0.869433	-0.284995	-1.037164
C174	C	1.369433	0.215005	-0.537164
C175	C	0.869435	-0.285014	-0.971422
C176	C	1.369435	0.214986	-0.471422
C177	C	0.909730	-0.251581	-0.938584
C178	C	1.409730	0.248419	-0.438584
C179	C	0.909626	-0.251682	-0.140032
C180	C	1.409626	0.248318	0.359968
C181	C	0.909726	-0.251539	-0.070065
C182	C	1.409726	0.248461	0.429935
H183	H	0.670010	-0.312519	-0.376398
H184	H	1.170010	0.187481	0.123602
H185	H	0.982626	-0.450687	-0.230611
H186	H	1.482626	0.049313	0.269389
O187	O	0.989030	-0.553945	-0.224251
O188	O	1.489030	-0.053945	0.275749
C189	C	1.024568	-0.518106	-0.188772
C190	C	1.524568	-0.018106	0.311228
H191	H	0.998763	-0.479214	-0.186563
H192	H	1.498763	0.020786	0.313437
H193	H	1.072364	-0.512236	-0.211881
H194	H	1.572364	-0.012236	0.288119
C195	C	1.065376	-0.587192	-0.124500
C196	C	1.565376	-0.087192	0.375500
C197	C	1.033678	-0.539425	-0.121782
C198	C	1.533678	-0.039425	0.378218
H199	H	1.070998	-0.600343	-0.083177
H200	H	1.570998	-0.100343	0.416823
H201	H	1.041435	-0.611338	-0.148403
H202	H	1.541435	-0.111338	0.351597
H203	H	1.105202	-0.582293	-0.143760
H204	H	1.605202	-0.082293	0.356240
H205	H	0.993850	-0.544325	-0.102529
H206	H	1.493850	-0.044325	0.397471
H207	H	1.057612	-0.515280	-0.097873
H208	H	1.557612	-0.015280	0.402127
O209	O	0.830335	-0.948797	-0.382811
O210	O	1.330335	-0.448797	0.117189
C211	C	0.789669	-0.917279	-0.346918
C212	C	1.289669	-0.417279	0.153082
H213	H	0.811892	-0.909086	-0.299242
H214	H	1.311892	-0.409086	0.200758
H215	H	0.743035	-0.938379	-0.339940
H216	H	1.243035	-0.438379	0.160060
C217	C	0.750929	-0.875478	-0.440095
C218	C	1.250929	-0.375478	0.059905
C219	C	0.778226	-0.865412	-0.381540
C220	C	1.278226	-0.365412	0.118460
H221	H	0.743868	-0.843485	-0.461452
H222	H	1.243868	-0.343485	0.038548
H223	H	0.778324	-0.896713	-0.464277
H224	H	1.278324	-0.396713	0.035723
H225	H	0.712070	-0.893063	-0.434271
H226	H	1.212070	-0.393063	0.065729
H227	H	0.817088	-0.847833	-0.387364
H228	H	1.317088	-0.347833	0.112636
H229	H	0.750837	-0.844172	-0.357360
H230	H	1.250837	-0.344172	0.142640
O231	O	0.675215	-0.185683	-0.224368
O232	O	1.175215	0.314317	0.275632
C233	C	0.713345	-0.151974	-0.260265
C234	C	1.213345	0.348026	0.239735
H235	H	0.693595	-0.148800	-0.309858
H236	H	1.193595	0.351200	0.190142
H237	H	0.763148	-0.168153	-0.262379
H238	H	1.263148	0.331847	0.237621
C239	C	0.738657	-0.101482	-0.168717
C240	C	1.238657	0.398518	0.331283
C241	C	0.714396	-0.097581	-0.229627
C242	C	1.214396	0.402419	0.270373
H243	H	0.739308	-0.067930	-0.149817
H244	H	1.239308	0.432070	0.350183
H245	H	0.712970	-0.124194	-0.144532
H246	H	1.212970	0.375806	0.355468
H247	H	0.780157	-0.114967	-0.170487
H248	H	1.280157	0.385033	0.329513
H249	H	0.672894	-0.084103	-0.227855
H250	H	1.172894	0.415897	0.272145
H251	H	0.740076	-0.074865	-0.253811
H252	H	1.240076	0.425135	0.246189
O253	O	0.274249	-0.185661	-0.224359
O254	O	0.774249	0.314339	0.275641
C255	C	0.231141	-0.156089	-0.188917
C256	C	0.731141	0.343911	0.311083
H257	H	0.184246	-0.177494	-0.186707
H258	H	0.684246	0.322506	0.313293
H259	H	0.224229	-0.116407	-0.212059
H260	H	0.724229	0.383593	0.287941
C261	C	0.314332	-0.122185	-0.124644
C262	C	0.814332	0.377815	0.375356
C263	C	0.256736	-0.148477	-0.121924
C264	C	0.756736	0.351523	0.378076
H265	H	0.330120	-0.117487	-0.083320
H266	H	0.830120	0.382513	0.416680
H267	H	0.343375	-0.142106	-0.148523
H268	H	0.843375	0.357894	0.351477
H269	H	0.308564	-0.089119	-0.143931
H270	H	0.808564	0.410881	0.356069
H271	H	0.262506	-0.181544	-0.102644
H272	H	0.762506	0.318456	0.397356
H273	H	0.227694	-0.128561	-0.098040
H274	H	0.727694	0.371439	0.401960
H275	H	1.023023	-0.701834	-0.190444
H276	H	1.523023	-0.201834	0.309556
O277	O	0.789970	-0.697641	-0.423001
O278	O	1.289970	-0.197641	0.076999
C279	C	0.749300	-0.666125	-0.387111
C280	C	1.249300	-0.166125	0.112889
H281	H	0.771517	-0.657934	-0.339432
H282	H	1.271517	-0.157934	0.160568
H283	H	0.702665	-0.687225	-0.380140
H284	H	1.202665	-0.187225	0.119860
C285	C	0.710572	-0.624320	-0.480290
C286	C	1.210572	-0.124320	0.019710
C287	C	0.737862	-0.614256	-0.421732
C288	C	1.237862	-0.114256	0.078268
H289	H	0.703513	-0.592325	-0.501646
H290	H	1.203513	-0.092325	-0.001646
H291	H	0.737970	-0.645554	-0.504470
H292	H	1.237970	-0.145554	-0.004470
H293	H	0.671712	-0.641905	-0.474473
H294	H	1.171712	-0.141905	0.025527
H295	H	0.776724	-0.596677	-0.427550
H296	H	1.276724	-0.096677	0.072450
H297	H	0.710470	-0.593017	-0.397553
H298	H	1.210470	-0.093017	0.102447
O299	O	0.830240	-0.446479	-0.382897
O300	O	1.330240	0.053521	0.117103
C301	C	0.866058	-0.414831	-0.423575
C302	C	1.366058	0.085169	0.076425
H303	H	0.915639	-0.431239	-0.427523
H304	H	1.415639	0.068761	0.072477
H305	H	0.868225	-0.373456	-0.404103
H306	H	1.368225	0.126544	0.095897
C307	C	0.774386	-0.393838	-0.484132
C308	C	1.274386	0.106162	0.015868
C309	C	0.835280	-0.413993	-0.488985
C310	C	1.335280	0.086007	0.011015
H311	H	0.755400	-0.393318	-0.524479
H312	H	1.255400	0.106682	-0.024479
H313	H	0.750254	-0.415158	-0.456725
H314	H	1.250254	0.084842	0.043275
H315	H	0.776200	-0.359360	-0.467903
H316	H	1.276200	0.140640	0.032097
H317	H	0.833465	-0.448472	-0.505207
H318	H	1.333465	0.051528	-0.005207
H319	H	0.859412	-0.392679	-0.516396
H320	H	1.359412	0.107321	-0.016396
H321	H	1.023070	-0.800881	-0.190460
H322	H	1.523070	-0.300881	0.309540
O323	O	0.545642	-0.317727	-0.382845
O324	O	1.045642	0.182273	0.117155
C325	C	0.561775	-0.306374	-0.445607
C326	C	1.061775	0.193626	0.054393
H327	H	0.609539	-0.286289	-0.446944
H328	H	1.109539	0.213711	0.053056
H329	H	0.524837	-0.279510	-0.466877
H330	H	1.024837	0.220490	0.033123
C331	C	0.506108	-0.382062	-0.481981
C332	C	1.006108	0.117938	0.018019
C333	C	0.564776	-0.357397	-0.483624
C334	C	1.064776	0.142603	0.016376
H335	H	0.507957	-0.413534	-0.505434
H336	H	1.007957	0.086466	-0.005434
H337	H	0.495237	-0.389710	-0.439698
H338	H	0.995237	0.110290	0.060302
H339	H	0.475333	-0.359670	-0.499706
H340	H	0.975333	0.140330	0.000294
H341	H	0.595548	-0.379786	-0.465893
H342	H	1.095548	0.120214	0.034107
H343	H	0.575653	-0.349754	-0.525906
H344	H	1.075653	0.150246	-0.025906
O345	O	0.830392	-0.317534	-1.069086
O346	O	1.330392	0.182466	-0.569086
C347	C	0.866204	-0.351278	-1.107148
C348	C	1.366204	0.148722	-0.607148
H349	H	0.915780	-0.354499	-1.087375
H350	H	1.415780	0.145501	-0.587375
H351	H	0.868384	-0.335102	-1.156976
H352	H	1.368384	0.164898	-0.656976
C353	C	0.774518	-0.401683	-1.132414
C354	C	1.274518	0.098317	-0.632414
C355	C	0.835407	-0.405642	-1.108125
C356	C	1.335407	0.094358	-0.608125
H357	H	0.755520	-0.435217	-1.133020
H358	H	1.255520	0.064783	-0.633020
H359	H	0.750390	-0.378948	-1.106773
H360	H	1.250390	0.121052	-0.606773
H361	H	0.776343	-0.388201	-1.173935
H362	H	1.276343	0.111799	-0.673935
H363	H	0.833580	-0.419118	-1.066602
H364	H	1.333580	0.080882	-0.566602
H365	H	0.859534	-0.428381	-1.133760
H366	H	1.359534	0.071619	-0.633760
H367	H	0.982853	-0.953034	-0.230679
H368	H	1.482853	-0.453034	0.269321
H369	H	0.982818	-0.191020	-0.543907
H370	H	1.482818	0.308980	-0.043907
O371	O	0.989249	-1.056463	-0.224482
O372	O	1.489249	-0.556463	0.275518
C373	C	0.980641	-1.110516	-0.233128
C374	C	1.480641	-0.610516	0.266872
H375	H	0.959943	-1.117960	-0.281661
H376	H	1.459943	-0.617960	0.218339
H377	H	0.947202	-1.126094	-0.195717
H378	H	1.447202	-0.626094	0.304283
C379	C	1.069793	-1.129321	-0.167942
C380	C	1.569793	-0.629321	0.332058
C381	C	1.044376	-1.138464	-0.227553
C382	C	1.544376	-0.638464	0.272447
H383	H	1.109106	-1.146561	-0.164500
H384	H	1.609106	-0.646561	0.335500
H385	H	1.075591	-1.092904	-0.162114
H386	H	1.575591	-0.592904	0.337886
H387	H	1.041921	-1.142302	-0.136772
H388	H	1.541921	-0.642302	0.363228
H389	H	1.072243	-1.125477	-0.258721
H390	H	1.572243	-0.625477	0.241279
H391	H	1.038584	-1.174879	-0.233386
H392	H	1.538584	-0.674879	0.266614
O393	O	0.830389	-0.317537	-0.939395
O394	O	1.330389	0.182463	-0.439395
C395	C	0.866196	-0.351320	-0.901405
C396	C	1.366196	0.148680	-0.401405
H397	H	0.913917	-0.332874	-0.891590
H398	H	1.413917	0.167126	-0.391590
H399	H	0.873079	-0.390057	-0.926747
H400	H	1.373079	0.109943	-0.426747
C401	C	0.772938	-0.383466	-0.850988
C402	C	1.272938	0.116534	-0.350988
C403	C	0.831548	-0.360809	-0.838929
C404	C	1.331548	0.139191	-0.338929
H405	H	0.751564	-0.389322	-0.812451
H406	H	1.251564	0.110678	-0.312451
H407	H	0.748813	-0.360707	-0.876584
H408	H	1.248813	0.139293	-0.376584
H409	H	0.778682	-0.415745	-0.872108
H410	H	1.278682	0.084255	-0.372108
H411	H	0.825803	-0.328528	-0.817817
H412	H	1.325803	0.171472	-0.317817
H413	H	0.855671	-0.383563	-0.813328
H414	H	1.355671	0.116437	-0.313328
O415	O	0.545560	-0.185797	-0.224251
O416	O	1.045560	0.314203	0.275749
C417	C	0.507439	-0.215510	-0.183551
C418	C	1.007439	0.284490	0.316449
H419	H	0.527191	-0.256687	-0.179569
H420	H	1.027191	0.243313	0.320431
H421	H	0.457632	-0.217328	-0.203023
H422	H	0.957632	0.282672	0.296977
C423	C	0.482136	-0.139315	-0.123055
C424	C	0.982136	0.360685	0.376945
C425	C	0.506399	-0.189888	-0.118161
C426	C	1.006399	0.310112	0.381839
H427	H	0.481492	-0.123509	-0.082721
H428	H	0.981492	0.376491	0.417279
H429	H	0.507816	-0.119296	-0.150477
H430	H	1.007816	0.380704	0.349523
H431	H	0.440633	-0.140836	-0.139285
H432	H	0.940633	0.359164	0.360715
H433	H	0.547904	-0.188366	-0.101940
H434	H	1.047904	0.311634	0.398060
H435	H	0.480725	-0.209907	-0.090735
H436	H	0.980725	0.290093	0.409265
H437	H	0.836733	-1.052191	-0.376587
H438	H	1.336733	-0.552191	0.123413
O439	O	0.989207	-0.185713	-0.668248
O440	O	1.489207	0.314287	-0.168248
C441	C	1.024758	-0.156198	-0.625168
C442	C	1.524758	0.343802	-0.125168
H443	H	1.026915	-0.177624	-0.578304
H444	H	1.526915	0.322376	-0.078304
H445	H	1.001748	-0.116492	-0.618163
H446	H	1.501748	0.383508	-0.118163
C447	C	1.089115	-0.122338	-0.708434
C448	C	1.589115	0.377662	-0.208434
C449	C	1.091768	-0.148655	-0.650877
C450	C	1.591768	0.351345	-0.150877
H451	H	1.130449	-0.117682	-0.724294
H452	H	1.630449	0.382318	-0.224294
H453	H	1.065162	-0.142221	-0.737459
H454	H	1.565162	0.357779	-0.237459
H455	H	1.069937	-0.089253	-0.702589
H456	H	1.569937	0.410747	-0.202589
H457	H	1.110938	-0.181742	-0.656725
H458	H	1.610938	0.318258	-0.156725
H459	H	1.115726	-0.128777	-0.621854
H460	H	1.615726	0.371223	-0.121854
H461	H	0.269173	-0.312450	-0.376545
H462	H	0.769173	0.187550	0.123455
O463	O	0.830324	-0.317661	-0.668153
O464	O	1.330324	0.182339	-0.168153
C465	C	0.844042	-0.369773	-0.652107
C466	C	1.344042	0.130227	-0.152107
H467	H	0.868237	-0.370865	-0.604391
H468	H	1.368237	0.129135	-0.104391
H469	H	0.876392	-0.387369	-0.689129
H470	H	1.376392	0.112631	-0.189129
C471	C	0.752929	-0.400113	-0.707630
C472	C	1.252929	0.099887	-0.207630
C473	C	0.782641	-0.401454	-0.649022
C474	C	1.282641	0.098546	-0.149022
H475	H	0.715054	-0.419657	-0.705729
H476	H	1.215054	0.080343	-0.205729
H477	H	0.743687	-0.365004	-0.718443
H478	H	1.243687	0.134996	-0.218443
H479	H	0.779894	-0.414776	-0.738475
H480	H	1.279894	0.085224	-0.238475
H481	H	0.755679	-0.386786	-0.618180
H482	H	1.255679	0.113214	-0.118180
H483	H	0.791876	-0.436561	-0.638204
H484	H	1.291876	0.063439	-0.138204
H485	H	0.796364	-0.801036	-0.416781
H486	H	1.296364	-0.301036	0.083219
H487	H	0.982824	-0.190902	-0.944744
H488	H	1.482824	0.309098	-0.444744
O489	O	0.144809	-0.317661	-0.382993
O490	O	0.644809	0.182339	0.117007
C491	C	0.160950	-0.306313	-0.445753
C492	C	0.660950	0.193687	0.054247
H493	H	0.208711	-0.286223	-0.447087
H494	H	0.708711	0.213777	0.052913
H495	H	0.124011	-0.279455	-0.467033
H496	H	0.624011	0.220545	0.032967
C497	C	0.105299	-0.382009	-0.482125
C498	C	0.605299	0.117991	0.017875
C499	C	0.163963	-0.357339	-0.483763
C500	C	0.663963	0.142661	0.016237
H501	H	0.107156	-0.413484	-0.505573
H502	H	0.607156	0.086516	-0.005573
H503	H	0.094423	-0.389655	-0.439843
H504	H	0.594423	0.110345	0.060157
H505	H	0.074523	-0.359622	-0.499857
H506	H	0.574523	0.140378	0.000143
H507	H	0.194737	-0.379723	-0.466025
H508	H	0.694737	0.120277	0.033975
H509	H	0.174845	-0.349699	-0.526044
H510	H	0.674845	0.150301	-0.026044
H511	H	0.836524	-0.549854	-0.376532
H512	H	1.336524	-0.049854	0.123468
H513	H	0.836609	-0.312363	-0.543796
H514	H	1.336609	0.187637	-0.043796
H515	H	0.149909	-0.190915	-0.230781
H516	H	0.649909	0.309085	0.269219
H517	H	0.982819	-0.190863	-1.064008
H518	H	1.482819	0.309137	-0.564008
