data_functionalizedCrystal
_audit_creation_method	'MofGen! by Chris Wilmer'
_symmetry_space_group_name_H-M	'P1'
_symmetry_Int_Tables_number	1
_symmetry_cell_setting	triclinic
loop_
_symmetry_equiv_pos_as_xyz
  x,y,z
_cell_length_a	12.759395
_cell_length_b	12.759394
_cell_length_c	12.759387
_cell_angle_alpha	90.032817
_cell_angle_beta	90.018815
_cell_angle_gamma	90.016374
loop_
_atom_site_label
_atom_site_type_symbol
_atom_site_fract_x
_atom_site_fract_y
_atom_site_fract_z
Zn1	Zn	1.606250	-0.418156	0.593999
Zn2	Zn	1.606146	-0.593877	0.418317
Zn3	Zn	1.430554	-0.418217	0.418336
Zn4	Zn	1.430540	-0.593798	0.593956
O5	O	1.518372	-0.506012	0.506152
O6	O	1.753257	-0.441473	0.570704
O7	O	1.582815	-0.570633	0.271298
O8	O	1.453909	-0.271188	0.441664
O9	O	1.753180	-0.570574	0.441631
O10	O	1.582993	-0.271143	0.570723
O11	O	1.453808	-0.441577	0.271312
O12	O	1.283531	-0.441501	0.441622
O13	O	1.453887	-0.570441	0.740983
O14	O	1.283521	-0.570500	0.570649
O15	O	1.582980	-0.441397	0.741014
O16	O	1.582802	-0.740887	0.441590
O17	O	1.453785	-0.740830	0.570631
C18	C	1.518309	-0.778979	0.506126
C19	C	1.518378	-0.895756	0.506151
C20	C	1.245405	-0.505999	0.506134
C21	C	1.128628	-0.506019	0.506151
C22	C	1.652824	-0.895763	0.371881
C23	C	1.720074	-0.950627	0.304758
C24	C	1.720136	-1.060348	0.304786
C25	C	1.652942	-1.115208	0.371947
C26	C	1.585692	-1.060344	0.439070
C27	C	1.585636	-0.950620	0.439032
C28	C	1.451253	-1.060338	0.573343
C29	C	1.451185	-0.950616	0.573311
C30	C	1.384060	-1.115198	0.640504
C31	C	1.316803	-1.060334	0.707623
C32	C	1.316743	-0.950606	0.707591
C33	C	1.383935	-0.895752	0.640434
C34	C	1.128657	-0.640563	0.640290
C35	C	1.073810	-0.707843	0.707362
C36	C	0.964088	-0.707856	0.707375
C37	C	0.909211	-0.640579	0.640310
C38	C	0.964057	-0.573299	0.573238
C39	C	1.073782	-0.573296	0.573230
C40	C	0.964029	-0.438751	0.439106
C41	C	1.073751	-0.438742	0.439086
C42	C	0.909151	-0.371474	0.372042
C43	C	0.963998	-0.304198	0.304962
C44	C	1.073726	-0.304189	0.304951
C45	C	1.128597	-0.371462	0.372014
C46	C	1.792406	-0.506026	0.506170
C47	C	1.909182	-0.506031	0.506178
C48	C	1.518444	-0.505903	0.780185
C49	C	1.518474	-0.505857	0.896962
C50	C	1.518464	-0.231979	0.506200
C51	C	1.518503	-0.115202	0.506221
C52	C	1.518362	-0.506044	0.233184
C53	C	1.518535	-0.505794	0.116408
C54	C	1.384148	-0.371462	0.896996
C55	C	1.317004	-0.304243	0.951873
C56	C	1.317036	-0.304205	1.061595
C57	C	1.384216	-0.371395	1.116441
C58	C	1.451360	-0.438614	1.061564
C59	C	1.451323	-0.438642	0.951840
C60	C	1.585679	-0.573013	1.061530
C61	C	1.585654	-0.573047	0.951809
C62	C	1.652859	-0.640203	1.116377
C63	C	1.720010	-0.707418	1.061500
C64	C	1.719976	-0.707453	0.951771
C65	C	1.652798	-0.640266	0.896931
H66	H	1.652767	-0.806422	0.371837
H67	H	1.118503	-0.762617	0.761966
H68	H	0.919433	-0.762636	0.761996
H69	H	1.262104	-1.105009	0.762305
H70	H	1.261984	-0.905941	0.762254
C71	C	0.903631	-0.230197	0.231204
C72	C	0.918747	-0.110771	0.239996
C73	C	0.858374	-0.036769	0.166238
C74	C	0.782886	-0.082193	0.083687
C75	C	0.767767	-0.201625	0.074892
C76	C	0.828139	-0.275627	0.148650
H77	H	0.974631	-0.077140	0.301108
H78	H	0.869566	0.051643	0.172749
H79	H	0.738194	-0.027412	0.029087
H80	H	0.711883	-0.235256	0.013780
H81	H	0.816947	-0.364039	0.142139
H82	H	1.774698	-0.762123	1.106164
C83	C	1.793837	-0.781396	0.891409
C84	C	1.867726	-0.855296	0.951743
C85	C	1.941588	-0.929241	0.891386
C86	C	1.941561	-0.929286	0.770696
C87	C	1.867670	-0.855384	0.710356
C88	C	1.793808	-0.781439	0.770713
H89	H	1.867748	-0.855265	1.041091
H90	H	1.996287	-0.983948	0.936054
H91	H	1.996238	-0.984025	0.726016
H92	H	1.867648	-0.855415	0.621007
H93	H	1.739109	-0.726731	0.726044
C94	C	1.243177	-0.230267	1.121967
C95	C	1.169279	-0.156365	1.061649
C96	C	1.095421	-0.082428	1.122021
C97	C	1.095461	-0.082395	1.242711
C98	C	1.169362	-0.156300	1.303036
C99	C	1.243220	-0.230236	1.242664
H100	H	1.169247	-0.156387	0.972301
H101	H	1.040714	-0.027719	1.077364
H102	H	1.040786	-0.027663	1.287402
H103	H	1.169394	-0.156277	1.392384
H104	H	1.297927	-0.284946	1.287321
H105	H	1.652768	-0.640284	0.807590
H106	H	1.383886	-0.806411	0.640394
H107	H	1.774785	-0.905950	0.250078
H108	H	1.384124	-0.371477	0.807654
H109	H	1.774902	-1.105018	0.250135
H110	H	1.653007	-1.204549	0.371973
H111	H	1.384119	-1.204539	0.640527
H112	H	1.217998	-0.640567	0.640278
H113	H	0.819870	-0.640586	0.640336
H114	H	1.384226	-0.371368	1.205783
H115	H	0.819810	-0.371485	0.372061
H116	H	1.118376	-0.249393	0.250340
H117	H	1.262305	-0.249541	0.907205
H118	H	1.217938	-0.371464	0.372008
H119	H	1.652875	-0.640173	1.205718
