data_functionalizedCrystal
_audit_creation_method	'MofGen! by Chris Wilmer'
_symmetry_space_group_name_H-M	'P1'
_symmetry_Int_Tables_number	1
_symmetry_cell_setting	triclinic
loop_
_symmetry_equiv_pos_as_xyz
  x,y,z
_cell_length_a	13.033293
_cell_length_b	12.759394
_cell_length_c	13.033109
_cell_angle_alpha	97.153824
_cell_angle_beta	74.800007
_cell_angle_gamma	97.184672
loop_
_atom_site_label
_atom_site_type_symbol
_atom_site_fract_x
_atom_site_fract_y
_atom_site_fract_z
Zn1	Zn	1.700300	-0.304416	-0.807184
Zn2	Zn	2.200300	0.195584	-0.307184
Zn3	Zn	1.677637	-0.460336	-0.629559
Zn4	Zn	2.177637	0.039664	-0.129559
Zn5	Zn	1.500104	-0.304435	-0.606987
Zn6	Zn	2.000104	0.195565	-0.106987
Zn7	Zn	1.522639	-0.499823	-0.784533
Zn8	Zn	2.022639	0.000177	-0.284533
O9	O	1.600170	-0.392252	-0.707066
O10	O	2.100170	0.107748	-0.207066
O11	O	1.845944	-0.308565	-0.802548
O12	O	2.345944	0.191435	-0.302548
O13	O	1.635172	-0.423138	-0.477924
O14	O	2.135172	0.076862	0.022076
O15	O	1.526713	-0.157409	-0.633576
O16	O	2.026713	0.342591	-0.133576
O17	O	1.829294	-0.423119	-0.672048
O18	O	2.329294	0.076881	-0.172048
O19	O	1.673796	-0.157394	-0.780660
O20	O	2.173796	0.342606	-0.280660
O21	O	1.504739	-0.308598	-0.461340
O22	O	2.004739	0.191402	0.038660
O23	O	1.354443	-0.346887	-0.611612
O24	O	1.854443	0.153113	-0.111612
O25	O	1.565121	-0.490419	-0.936179
O26	O	2.065121	0.009581	-0.436179
O27	O	1.370999	-0.490438	-0.742055
O28	O	1.870999	0.009562	-0.242055
O29	O	1.695648	-0.346854	-0.952820
O30	O	2.195648	0.153146	-0.452820
O31	O	1.657023	-0.612598	-0.650084
O32	O	2.157023	-0.112598	-0.150084
O33	O	1.543146	-0.641609	-0.763943
O34	O	2.043146	-0.141609	-0.263943
C35	C	1.324178	-0.422950	-0.671927
C36	C	1.824178	0.077050	-0.171927
C37	C	1.206110	-0.436111	-0.656920
C38	C	1.706110	0.063889	-0.156920
C39	C	1.161723	-0.385410	-0.714898
C40	C	1.661723	0.114590	-0.214898
C41	C	1.039694	-0.399011	-0.699389
C42	C	1.539694	0.100989	-0.199389
C43	C	1.600103	-0.665224	-0.707032
C44	C	2.100103	-0.165224	-0.207032
C45	C	1.600176	-0.781996	-0.707065
C46	C	2.100176	-0.281996	-0.207065
C47	C	1.718871	-0.751733	-0.588619
C48	C	2.218871	-0.251733	-0.088619
C49	C	1.778247	-0.791461	-0.529412
C50	C	2.278247	-0.291461	-0.029412
C51	C	1.778313	-0.901179	-0.529448
C52	C	2.278313	-0.401179	-0.029448
C53	C	1.718999	-0.971173	-0.588701
C54	C	2.218999	-0.471173	-0.088701
C55	C	1.659622	-0.931445	-0.647909
C56	C	2.159622	-0.431445	-0.147909
C57	C	1.659560	-0.821723	-0.647863
C58	C	2.159560	-0.321723	-0.147863
C59	C	1.540935	-0.961707	-0.766360
C60	C	2.040935	-0.461707	-0.266360
C61	C	1.540861	-0.851990	-0.766318
C62	C	2.040861	-0.351990	-0.266318
C63	C	1.481620	-1.031702	-0.825613
C64	C	1.981620	-0.531702	-0.325613
C65	C	1.422236	-0.991974	-0.884815
C66	C	1.922236	-0.491974	-0.384815
C67	C	1.422172	-0.882249	-0.884775
C68	C	1.922172	-0.382249	-0.384775
C69	C	1.481485	-0.812262	-0.825526
C70	C	1.981485	-0.312262	-0.325526
C71	C	1.877240	-0.361435	-0.742342
C72	C	2.377240	0.138565	-0.242342
C73	C	1.995310	-0.348303	-0.757375
C74	C	2.495310	0.151697	-0.257375
C75	C	1.635426	-0.423039	-0.984118
C76	C	2.135426	0.076961	-0.484118
C77	C	1.650450	-0.436159	-1.102181
C78	C	2.150450	0.063841	-0.602181
C79	C	1.600269	-0.118214	-0.707127
C80	C	2.100269	0.381786	-0.207127
C81	C	1.600311	-0.001435	-0.707153
C82	C	2.100311	0.498565	-0.207153
C83	C	1.592613	-0.385336	-1.146612
C84	C	2.092613	0.114664	-0.646612
C85	C	1.608139	-0.398894	-1.268636
C86	C	2.108139	0.101106	-0.768636
C87	C	1.565112	-0.361503	-0.431099
C88	C	2.065112	0.138497	0.068901
C89	C	1.550294	-0.348064	-0.313063
C90	C	2.050294	0.151936	0.186937
H91	H	0.987358	-0.452489	-0.638263
H92	H	1.487358	0.047511	-0.138263
F93	F	1.063710	-0.278391	-0.837262
F94	F	1.563710	0.221609	-0.337262
F95	F	1.359124	-1.066470	-0.947877
F96	F	1.859124	-0.566470	-0.447877
F97	F	1.841513	-0.943461	-0.466440
F98	F	2.341513	-0.443461	0.033560
F99	F	1.481295	-1.148472	-0.825254
F100	F	1.981295	-0.648472	-0.325254
F101	F	1.470518	-0.278089	-1.244712
F102	F	1.970518	0.221911	-0.744712
H103	H	1.718807	-0.662394	-0.588568
H104	H	2.218807	-0.162394	-0.088568
H105	H	1.531597	-0.331792	-1.094312
H106	H	2.031597	0.168208	-0.594312
H107	H	1.153771	-0.489585	-0.595799
H108	H	1.653771	0.010415	-0.095799
F109	F	1.358980	-0.839977	-0.947799
F110	F	1.858980	-0.339977	-0.447799
F111	F	1.718675	-1.087943	-0.588340
F112	F	2.218675	-0.587943	-0.088340
F113	F	1.481693	-0.695489	-0.825750
F114	F	1.981693	-0.195489	-0.325750
H115	H	1.711461	-0.489709	-1.154480
H116	H	2.211461	0.010291	-0.654480
F117	F	1.687887	-0.468898	-1.336985
F118	F	2.187887	0.031102	-0.836985
H119	H	1.826543	-0.734462	-0.481171
H120	H	2.326543	-0.234462	0.018829
H121	H	1.214062	-0.331929	-0.776013
H122	H	1.714062	0.168071	-0.276013
