data_functionalizedCrystal
_audit_creation_method	'MofGen! by Chris Wilmer'
_symmetry_space_group_name_H-M	'P1'
_symmetry_Int_Tables_number	1
_symmetry_cell_setting	triclinic
loop_
_symmetry_equiv_pos_as_xyz
  x,y,z
_cell_length_a	11.026607
_cell_length_b	10.489741
_cell_length_c	10.065875
_cell_angle_alpha	98.879541
_cell_angle_beta	79.302338
_cell_angle_gamma	96.562595
loop_
_atom_site_label
_atom_site_type_symbol
_atom_site_fract_x
_atom_site_fract_y
_atom_site_fract_z
O1	O	1.632468	0.520484	-0.113500
O2	O	1.278630	0.459543	-0.113501
O3	O	1.463599	0.306188	-0.113492
O4	O	1.447499	0.673839	-0.113509
O5	O	1.428329	0.335581	0.113495
O6	O	1.243360	0.488935	0.113486
O7	O	1.597198	0.549877	0.113487
Zn8	Zn	1.414679	0.524073	0.149526
Zn9	Zn	1.461149	0.485347	-0.149540
O10	O	1.412229	0.703232	0.113478
C11	C	1.215686	0.462996	-0.000008
C12	C	1.080679	0.429482	-0.000008
C13	C	1.007682	0.522021	-0.000013
C14	C	0.868146	0.487384	-0.000013
C15	C	1.444748	0.273085	0.000000
C16	C	1.441110	0.130655	-0.000002
C17	C	1.323420	0.036624	-0.000012
C18	C	1.361626	-0.028776	0.111904
C19	C	1.396427	-0.057724	-0.111887
C20	C	1.479350	0.067142	0.112007
C21	C	1.514151	0.038187	-0.111885
C22	C	1.552438	-0.027164	0.000059
C23	C	1.660143	0.546423	-0.000009
C24	C	1.795151	0.579937	-0.000018
C25	C	1.431080	0.736334	-0.000017
C26	C	1.434720	0.878763	-0.000024
N27	N	1.382974	0.550504	0.353630
N28	N	1.492864	0.458908	-0.353644
C29	C	1.450110	0.494533	0.421412
C30	C	1.425718	0.514887	0.578578
H31	H	0.827348	0.382504	-0.000043
H32	H	1.568400	0.395910	0.588039
H33	H	0.835951	0.684814	-0.000014
H34	H	1.039875	0.324609	-0.000038
H35	H	1.226637	0.065005	0.000100
H36	H	1.307434	0.613486	0.411952
C37	C	1.323665	0.599986	0.657349
C38	C	1.330370	0.743517	0.637830
C39	C	1.228320	0.828614	0.716603
C40	C	1.119566	0.770181	0.814895
C41	C	1.112857	0.626643	0.834418
C42	C	1.214907	0.541545	0.755646
H43	H	1.410880	0.786780	0.565065
H44	H	1.233286	0.934871	0.702149
H45	H	1.044022	0.833175	0.873207
H46	H	1.032347	0.583380	0.907184
H47	H	1.209940	0.435289	0.770099
C48	C	1.274497	-0.068931	0.239722
C49	C	1.136489	-0.044627	0.264309
C50	C	1.049353	-0.084779	0.392120
C51	C	1.100225	-0.149236	0.495345
C52	C	1.238241	-0.173544	0.470760
C53	C	1.325377	-0.133392	0.342949
H54	H	1.098824	0.003091	0.187894
H55	H	0.947185	-0.066785	0.410319
H56	H	1.035722	-0.178960	0.589958
H57	H	1.275905	-0.221262	0.547176
H58	H	1.427545	-0.151386	0.324751
H59	H	1.048490	0.626890	-0.000010
H60	H	1.514387	0.121184	0.206730
H61	H	1.525641	0.431539	0.363091
H62	H	1.649281	-0.055275	0.000121
C63	C	1.601230	0.078376	-0.239709
C64	C	1.574068	0.021822	-0.382780
C65	C	1.661138	0.062012	-0.510616
C66	C	1.775369	0.158755	-0.495381
C67	C	1.802536	0.215314	-0.352304
C68	C	1.715466	0.175125	-0.224468
H69	H	1.489503	-0.049798	-0.394063
H70	H	1.641026	0.020142	-0.616531
H71	H	1.839823	0.188505	-0.590013
H72	H	1.887101	0.286934	-0.341021
H73	H	1.735577	0.216994	-0.118553
H74	H	1.361318	-0.111898	-0.206513
