data_functionalizedCrystal
_audit_creation_method	'MofGen! by Chris Wilmer'
_symmetry_space_group_name_H-M	'P1'
_symmetry_Int_Tables_number	1
_symmetry_cell_setting	triclinic
loop_
_symmetry_equiv_pos_as_xyz
  x,y,z
_cell_length_a	16.959454
_cell_length_b	10.686220
_cell_length_c	10.686551
_cell_angle_alpha	89.691918
_cell_angle_beta	85.595422
_cell_angle_gamma	85.598365
loop_
_atom_site_label
_atom_site_type_symbol
_atom_site_fract_x
_atom_site_fract_y
_atom_site_fract_z
Zn1	Zn	-0.192706	-1.972261	-0.562392
Zn2	Zn	0.307294	-1.472261	-0.062392
Zn3	Zn	-0.335773	-1.956011	-0.352638
Zn4	Zn	0.164227	-1.456011	0.147362
Zn5	Zn	-0.212926	-1.746376	-0.368710
Zn6	Zn	0.287074	-1.246376	0.131290
Zn7	Zn	-0.334171	-1.762442	-0.578415
Zn8	Zn	0.165829	-1.262442	-0.078415
O9	O	-0.268894	-1.859272	-0.465539
O10	O	0.231106	-1.359272	0.034461
O11	O	-0.203892	-2.145648	-0.521135
O12	O	0.296108	-1.645648	-0.021135
O13	O	-0.328610	-1.914679	-0.179225
O14	O	0.171390	-1.414679	0.320775
O15	O	-0.099628	-1.776417	-0.394423
O16	O	0.400372	-1.276417	0.105577
O17	O	-0.309003	-2.133710	-0.367030
O18	O	0.190997	-1.633710	0.132970
O19	O	-0.084773	-1.942373	-0.536720
O20	O	0.415227	-1.442373	-0.036720
O21	O	-0.238355	-1.760661	-0.191033
O22	O	0.261645	-1.260661	0.308967
O23	O	-0.236801	-1.572964	-0.409960
O24	O	0.263199	-1.072964	0.090040
O25	O	-0.306273	-1.803798	-0.751835
O26	O	0.193727	-1.303798	-0.251835
O27	O	-0.325880	-1.584768	-0.564030
O28	O	0.174120	-1.084768	-0.064030
O29	O	-0.202339	-1.957951	-0.740063
O30	O	0.297661	-1.457951	-0.240063
O31	O	-0.446176	-1.930257	-0.382567
O32	O	0.053824	-1.430257	0.117433
O33	O	-0.444999	-1.788042	-0.548445
O34	O	0.055001	-1.288042	-0.048445
C35	C	-0.283361	-1.533350	-0.490478
C36	C	0.216639	-1.033350	0.009522
C37	C	-0.289568	-1.393921	-0.501177
C38	C	0.210432	-0.893921	-0.001177
C39	C	-0.474266	-1.859166	-0.465525
C40	C	0.025734	-1.359166	0.034475
C41	C	-0.562118	-1.859238	-0.465553
C42	C	-0.062118	-1.359238	0.034447
C43	C	-0.251872	-1.884480	-0.792738
C44	C	0.248128	-1.384480	-0.292738
C45	C	-0.244618	-1.895221	-0.932171
C46	C	0.255382	-1.395221	-0.432171
C47	C	-0.933005	-1.785337	-0.551894
C48	C	-0.433005	-1.285337	-0.051894
C49	C	-0.934158	-1.933567	-0.379285
C50	C	-0.434158	-1.433567	0.120715
C51	C	-0.851615	-1.933522	-0.379276
C52	C	-0.351615	-1.433522	0.120724
C53	C	-0.809763	-1.859382	-0.465577
C54	C	-0.309763	-1.359382	0.034423
C55	C	-0.850454	-1.785287	-0.551886
C56	C	-0.350454	-1.285287	-0.051886
C57	C	-0.810918	-2.007607	-0.292961
C58	C	-0.310918	-1.507607	0.207039
C59	C	-0.728369	-2.007564	-0.292948
C60	C	-0.228369	-1.507564	0.207052
C61	C	-0.686515	-1.933430	-0.379256
C62	C	-0.186515	-1.433430	0.120744
C63	C	-0.727212	-1.859333	-0.465569
C64	C	-0.227212	-1.359333	0.034431
C65	C	-0.685360	-1.785193	-0.551870
C66	C	-0.185360	-1.285193	-0.051870
C67	C	-0.726054	-1.711101	-0.638190
C68	C	-0.226054	-1.211101	-0.138190
C69	C	-0.808600	-1.711153	-0.638193
C70	C	-0.308600	-1.211153	-0.138193
C71	C	-0.603970	-1.933378	-0.379252
C72	C	-0.103970	-1.433378	0.120748
C73	C	-0.602809	-1.785143	-0.551862
C74	C	-0.102809	-1.285143	-0.051862
C75	C	-0.062717	-1.859416	-0.465577
C76	C	0.437283	-1.359416	0.034423
C77	C	0.025143	-1.859477	-0.465593
C78	C	0.525143	-1.359477	0.034407
C79	C	-0.254371	-2.186468	-0.440502
C80	C	0.245629	-1.686468	0.059498
C81	C	-0.248182	-2.325899	-0.429834
C82	C	0.251818	-1.825899	0.070166
C83	C	-0.285790	-1.834236	-0.139606
C84	C	0.214210	-1.334236	0.360394
C85	C	-0.292810	-1.823737	-0.000156
C86	C	0.207190	-1.323737	0.499844
H87	H	-0.568738	-1.724774	-0.622143
H88	H	-0.068738	-1.224774	-0.122143
C89	C	-0.980199	-2.015103	-0.284348
C90	C	-0.480199	-1.515103	0.215652
N91	N	-1.014880	-2.076518	-0.212837
N92	N	-0.514880	-1.576518	0.287163
H93	H	-0.197809	-1.964650	-0.980643
H94	H	0.302191	-1.464650	-0.480643
H95	H	-0.570841	-1.993696	-0.308966
H96	H	-0.070841	-1.493696	0.191034
C97	C	-0.856961	-2.089135	-0.198020
C98	C	-0.356961	-1.589135	0.301980
N99	N	-0.891645	-2.150542	-0.126504
N100	N	-0.391645	-1.650542	0.373496
C101	C	-0.853371	-1.629645	-0.733123
C102	C	-0.353371	-1.129645	-0.233123
N103	N	-0.887097	-1.568246	-0.804618
N104	N	-0.387097	-1.068246	-0.304618
C105	C	-0.680007	-1.629549	-0.733117
C106	C	-0.180007	-1.129549	-0.233117
N107	N	-0.645320	-1.568127	-0.804614
N108	N	-0.145320	-1.068127	-0.304614
H109	H	-0.208002	-1.374330	-0.360567
H110	H	0.291998	-0.874330	0.139433
C111	C	-0.343858	-1.328489	-0.594755
C112	C	0.156142	-0.828489	-0.094755
N113	N	-0.384747	-1.279205	-0.665239
N114	N	0.115253	-0.779205	-0.165239
C115	C	-0.683614	-2.089057	-0.197989
C116	C	-0.183614	-1.589057	0.302011
N117	N	-0.649904	-2.150436	-0.126462
N118	N	-0.149904	-1.650436	0.373538
C119	C	-0.977769	-1.703835	-0.646837
C120	C	-0.477769	-1.203835	-0.146837
N121	N	-1.011487	-1.642443	-0.718345
N122	N	-0.511487	-1.142443	-0.218345
H123	H	-0.339621	-1.754322	-0.951689
H124	H	0.160379	-1.254322	-0.451689
