data_functionalizedCrystal
_audit_creation_method	'MofGen! by Chris Wilmer'
_symmetry_space_group_name_H-M	'P1'
_symmetry_Int_Tables_number	1
_symmetry_cell_setting	triclinic
loop_
_symmetry_equiv_pos_as_xyz
  x,y,z
_cell_length_a	19.805407
_cell_length_b	25.639239
_cell_length_c	25.639233
_cell_angle_alpha	89.981253
_cell_angle_beta	89.985655
_cell_angle_gamma	90.038686
loop_
_atom_site_label
_atom_site_type_symbol
_atom_site_fract_x
_atom_site_fract_y
_atom_site_fract_z
Zn1	Zn	1.034643	-0.208214	-0.295633
Zn2	Zn	1.367976	0.125119	0.037700
Zn3	Zn	1.701310	0.458452	0.371034
Zn4	Zn	1.034544	-0.295633	-0.208197
Zn5	Zn	1.367877	0.037700	0.125136
Zn6	Zn	1.701211	0.371033	0.458469
Zn7	Zn	0.921468	-0.208214	-0.208209
Zn8	Zn	1.254801	0.125120	0.125124
Zn9	Zn	1.588135	0.458453	0.458458
Zn10	Zn	0.921397	-0.295621	-0.295599
Zn11	Zn	1.254730	0.037713	0.037734
Zn12	Zn	1.588064	0.371046	0.371067
O13	O	0.978013	-0.251920	-0.251910
O14	O	1.311346	0.081413	0.081424
O15	O	1.644680	0.414746	0.414757
O16	O	1.129346	-0.219816	-0.284044
O17	O	1.462680	0.113517	0.049289
O18	O	1.796013	0.446850	0.382623
O19	O	1.019532	-0.284042	-0.135034
O20	O	1.352866	0.049292	0.198300
O21	O	1.686199	0.382625	0.531633
O22	O	0.936552	-0.135048	-0.219825
O23	O	1.269885	0.198285	0.113508
O24	O	1.603219	0.531618	0.446841
O25	O	1.129274	-0.284043	-0.219805
O26	O	1.462607	0.049291	0.113528
O27	O	1.795940	0.382624	0.446861
O28	O	1.019701	-0.135049	-0.284055
O29	O	1.353035	0.198284	0.049278
O30	O	1.686368	0.531618	0.382611
O31	O	0.936456	-0.219815	-0.135042
O32	O	1.269789	0.113518	0.198291
O33	O	1.603123	0.446852	0.531624
O34	O	0.826742	-0.219803	-0.219792
O35	O	1.160075	0.113531	0.113541
O36	O	1.493409	0.446864	0.446874
O37	O	0.936431	-0.284021	-0.368769
O38	O	1.269764	0.049312	-0.035436
O39	O	1.603098	0.382646	0.297898
O40	O	0.826690	-0.284020	-0.283998
O41	O	1.160023	0.049313	0.049336
O42	O	1.493356	0.382646	0.382669
O43	O	1.019632	-0.219804	-0.368794
O44	O	1.352966	0.113529	-0.035461
O45	O	1.686299	0.446863	0.297873
O46	O	1.019463	-0.368797	-0.219773
O47	O	1.352797	-0.035463	0.113561
O48	O	1.686130	0.297870	0.446894
O49	O	0.936335	-0.368788	-0.283986
O50	O	1.269668	-0.035454	0.049347
O51	O	1.603002	0.297879	0.382680
C52	C	0.802157	-0.251910	-0.251893
C53	C	1.135490	0.081423	0.081440
C54	C	1.468824	0.414756	0.414774
C55	C	0.726925	-0.251919	-0.251898
C56	C	1.060258	0.081415	0.081435
C57	C	1.393592	0.414748	0.414769
C58	C	0.977899	-0.387763	-0.251886
C59	C	1.311232	-0.054430	0.081447
C60	C	1.644566	0.278904	0.414781
C61	C	0.977912	-0.445877	-0.251893
C62	C	1.311246	-0.112544	0.081440
C63	C	1.644579	0.220790	0.414774
C64	C	0.691571	-0.285407	-0.285276
C65	C	1.024905	0.047926	0.048058
C66	C	1.358238	0.381259	0.381391
C67	C	0.620883	-0.285408	-0.285283
C68	C	0.954216	0.047925	0.048050
C69	C	1.287550	0.381259	0.381384
C70	C	0.585549	-0.251923	-0.251910
C71	C	0.918883	0.081410	0.081424
C72	C	1.252216	0.414744	0.414757
C73	C	0.620908	-0.218431	-0.218531
C74	C	0.954241	0.114903	0.114803
C75	C	1.287575	0.448236	0.448136
C76	C	0.691595	-0.218428	-0.218526
C77	C	1.024928	0.114906	0.114807
C78	C	1.358262	0.448239	0.448140
C79	C	0.335835	-0.218442	-0.218548
C80	C	0.669168	0.114891	0.114785
C81	C	1.002501	0.448224	0.448119
C82	C	0.265143	-0.218449	-0.218554
C83	C	0.598476	0.114884	0.114779
C84	C	0.931809	0.448217	0.448113
C85	C	0.265122	-0.285423	-0.285305
C86	C	0.598456	0.047911	0.048029
C87	C	0.931789	0.381244	0.381362
C88	C	0.335810	-0.285420	-0.285300
C89	C	0.669143	0.047914	0.048033
C90	C	1.002476	0.381247	0.381366
C91	C	0.371162	-0.251926	-0.251923
C92	C	0.704495	0.081407	0.081410
C93	C	1.037829	0.414741	0.414743
C94	C	0.447810	-0.251925	-0.251917
C95	C	0.781144	0.081409	0.081417
C96	C	1.114477	0.414742	0.414750
C97	C	0.508902	-0.251926	-0.251914
C98	C	0.842236	0.081407	0.081420
C99	C	1.175569	0.414740	0.414753
C100	C	1.021411	-0.806232	-0.218531
C101	C	1.354744	-0.472899	0.114803
C102	C	1.688078	-0.139566	0.448136
C103	C	1.021437	-0.860837	-0.218538
C104	C	1.354770	-0.527503	0.114796
C105	C	1.688104	-0.194170	0.448129
O106	O	1.058303	-0.889067	-0.190145
O107	O	1.391636	-0.555733	0.143188
O108	O	1.724970	-0.222400	0.476521
N109	N	0.978132	-0.888159	-0.251944
N110	N	1.311465	-0.554826	0.081389
N111	N	1.644799	-0.221493	0.414722
C112	C	0.934802	-0.860875	-0.285350
C113	C	1.268136	-0.527542	0.047983
C114	C	1.601469	-0.194209	0.381317
O115	O	0.897971	-0.889129	-0.313766
O116	O	1.231304	-0.555796	0.019567
O117	O	1.564637	-0.222463	0.352900
C118	C	0.934780	-0.806272	-0.285345
C119	C	1.268113	-0.472939	0.047988
C120	C	1.601447	-0.139605	0.381321
C121	C	0.978083	-0.778952	-0.251933
C122	C	1.311417	-0.445619	0.081401
C123	C	1.644750	-0.112285	0.414734
C124	C	1.064711	-0.778912	-0.185121
C125	C	1.398045	-0.445579	0.148212
C126	C	1.731378	-0.112246	0.481546
C127	C	1.064684	-0.724312	-0.185114
C128	C	1.398017	-0.390978	0.148220
C129	C	1.731351	-0.057645	0.481553
C130	C	1.021356	-0.697031	-0.218516
C131	C	1.354690	-0.363698	0.114818
C132	C	1.688023	-0.030365	0.448151
C133	C	0.978056	-0.724351	-0.251925
C134	C	1.311389	-0.391018	0.081408
C135	C	1.644723	-0.057685	0.414742
C136	C	0.891455	-0.778989	-0.318753
C137	C	1.224788	-0.445655	0.014580
C138	C	1.558121	-0.112322	0.347913
C139	C	0.891436	-0.724382	-0.318746
C140	C	1.224770	-0.391048	0.014587
C141	C	1.558103	-0.057715	0.347921
C142	C	0.934740	-0.697062	-0.285333
C143	C	1.268073	-0.363728	0.048000
C144	C	1.601406	-0.030395	0.381333
C145	C	0.934701	-0.642470	-0.285320
C146	C	1.268035	-0.309137	0.048014
C147	C	1.601368	0.024196	0.381347
N148	N	0.978006	-0.615148	-0.251913
N149	N	1.311340	-0.281814	0.081420
N150	N	1.644673	0.051519	0.414754
C151	C	1.021334	-0.642428	-0.218511
C152	C	1.354667	-0.309095	0.114823
C153	C	1.688001	0.024239	0.448156
C154	C	0.934853	-0.975546	-0.285358
C155	C	1.268187	-0.642212	0.047975
C156	C	1.601520	-0.308879	0.381308
C157	C	0.934872	-1.030148	-0.285361
C158	C	1.268205	-0.696815	0.047973
C159	C	1.601538	-0.363481	0.381306
C160	C	1.021508	-1.030106	-0.218549
C161	C	1.354841	-0.696772	0.114785
C162	C	1.688174	-0.363439	0.448118
C163	C	1.021485	-0.975502	-0.218544
C164	C	1.354819	-0.642169	0.114789
C165	C	1.688152	-0.308836	0.448123
C166	C	0.978159	-0.948223	-0.251951
C167	C	1.311492	-0.614890	0.081382
C168	C	1.644825	-0.281556	0.414715
C169	C	1.021273	-0.527763	-0.218497
C170	C	1.354606	-0.194430	0.114836
C171	C	1.687940	0.138904	0.448169
C172	C	1.021240	-0.473158	-0.218491
C173	C	1.354573	-0.139824	0.114842
C174	C	1.687907	0.193509	0.448176
C175	C	0.934607	-0.473205	-0.285305
C176	C	1.267940	-0.139871	0.048029
C177	C	1.601274	0.193462	0.381362
C178	C	0.934637	-0.527805	-0.285309
C179	C	1.267971	-0.194472	0.048024
C180	C	1.601304	0.138861	0.381358
C181	C	0.977976	-0.555083	-0.251904
C182	C	1.311309	-0.221750	0.081430
C183	C	1.644642	0.111584	0.414763
O184	O	0.897856	-0.614206	-0.313699
O185	O	1.231189	-0.280872	0.019634
O186	O	1.564523	0.052461	0.352968
O187	O	1.058166	-0.614167	-0.190104
O188	O	1.391499	-0.280834	0.143229
O189	O	1.724832	0.052500	0.476562
C190	C	1.154556	-0.251931	-0.251927
C191	C	1.487889	0.081402	0.081406
C192	C	1.821222	0.414736	0.414740
C193	C	1.229788	-0.251935	-0.251934
C194	C	1.563121	0.081398	0.081399
C195	C	1.896454	0.414731	0.414732
C196	C	0.978035	-0.251911	-0.388283
C197	C	1.311368	0.081422	-0.054949
C198	C	1.644701	0.414755	0.278384
C199	C	0.978044	-0.251907	-0.446397
C200	C	1.311377	0.081426	-0.113064
C201	C	1.644711	0.414759	0.220270
C202	C	0.978146	-0.115547	-0.251945
C203	C	1.311479	0.217786	0.081388
C204	C	1.644812	0.551119	0.414721
C205	C	0.978202	-0.057433	-0.251960
C206	C	1.311536	0.275900	0.081373
C207	C	1.644869	0.609233	0.414706
C208	C	1.021422	-0.218370	-0.806779
C209	C	1.354755	0.114963	-0.473445
C210	C	1.688089	0.448296	-0.140112
C211	C	1.021430	-0.218356	-0.861383
C212	C	1.354764	0.114978	-0.528050
C213	C	1.688097	0.448311	-0.194716
O214	O	1.058257	-0.189903	-0.889636
O215	O	1.391590	0.143430	-0.556302
O216	O	1.724924	0.476764	-0.222969
N217	N	0.978119	-0.251785	-0.888680
N218	N	1.311452	0.081549	-0.555346
N219	N	1.644785	0.414882	-0.222013
C220	C	0.934791	-0.285227	-0.861369
C221	C	1.268124	0.048107	-0.528036
C222	C	1.601458	0.381440	-0.194702
O223	O	0.897951	-0.313659	-0.889601
O224	O	1.231285	0.019674	-0.556267
O225	O	1.564618	0.353008	-0.222934
C226	C	0.934780	-0.285238	-0.806766
C227	C	1.268113	0.048095	-0.473432
C228	C	1.601446	0.381429	-0.140099
C229	C	0.978099	-0.251811	-0.779472
C230	C	1.311432	0.081523	-0.446139
C231	C	1.644766	0.414856	-0.112805
C232	C	1.064737	-0.184945	-0.779485
C233	C	1.398071	0.148388	-0.446152
C234	C	1.731404	0.481722	-0.112818
C235	C	1.064730	-0.184960	-0.724884
C236	C	1.398063	0.148373	-0.391551
C237	C	1.731396	0.481706	-0.058218
C238	C	1.021407	-0.218401	-0.697578
C239	C	1.354740	0.114933	-0.364244
C240	C	1.688073	0.448266	-0.030911
C241	C	0.978091	-0.251826	-0.724871
C242	C	1.311425	0.081507	-0.391538
C243	C	1.644758	0.414841	-0.058205
C244	C	0.891449	-0.318677	-0.779456
C245	C	1.224782	0.014656	-0.446123
C246	C	1.558116	0.347990	-0.112789
C247	C	0.891441	-0.318685	-0.724849
C248	C	1.224775	0.014648	-0.391516
C249	C	1.558108	0.347981	-0.058182
C250	C	0.934761	-0.285258	-0.697555
C251	C	1.268094	0.048076	-0.364222
C252	C	1.601427	0.381409	-0.030889
C253	C	0.934761	-0.285282	-0.642964
C254	C	1.268094	0.048052	-0.309631
C255	C	1.601428	0.381385	0.023703
N256	N	0.978073	-0.251853	-0.615667
N257	N	1.311406	0.081481	-0.282334
N258	N	1.644739	0.414814	0.050999
C259	C	1.021395	-0.218412	-0.642974
C260	C	1.354729	0.114921	-0.309641
C261	C	1.688062	0.448254	0.023692
C262	C	0.934817	-0.285200	-0.976040
C263	C	1.268150	0.048134	-0.642706
C264	C	1.601484	0.381467	-0.309373
C265	C	0.934831	-0.285191	-1.030642
C266	C	1.268165	0.048142	-0.697309
C267	C	1.601498	0.381476	-0.363975
C268	C	1.021470	-0.218319	-1.030652
C269	C	1.354803	0.115014	-0.697319
C270	C	1.688137	0.448347	-0.363986
C271	C	1.021459	-0.218331	-0.976049
C272	C	1.354792	0.115003	-0.642716
C273	C	1.688125	0.448336	-0.309382
C274	C	0.978129	-0.251770	-0.948743
C275	C	1.311462	0.081563	-0.615410
C276	C	1.644795	0.414896	-0.282076
C277	C	1.021376	-0.218447	-0.528309
C278	C	1.354710	0.114886	-0.194976
C279	C	1.688043	0.448219	0.138358
C280	C	1.021367	-0.218467	-0.473704
C281	C	1.354700	0.114866	-0.140370
C282	C	1.688034	0.448200	0.192963
C283	C	0.934726	-0.285337	-0.473698
C284	C	1.268060	0.047997	-0.140365
C285	C	1.601393	0.381330	0.192969
C286	C	0.934738	-0.285319	-0.528299
C287	C	1.268071	0.048014	-0.194965
C288	C	1.601405	0.381348	0.138368
C289	C	0.978065	-0.251870	-0.555603
C290	C	1.311399	0.081463	-0.222270
C291	C	1.644732	0.414797	0.111064
O292	O	0.897951	-0.313718	-0.614677
O293	O	1.231284	0.019615	-0.281343
O294	O	1.564618	0.352948	0.051990
O295	O	1.058223	-0.189980	-0.614736
O296	O	1.391556	0.143353	-0.281402
O297	O	1.724889	0.476687	0.051931
C298	C	0.978030	-0.251892	-0.116067
C299	C	1.311363	0.081441	0.217266
C300	C	1.644697	0.414775	0.550599
C301	C	0.978152	-0.251748	-0.057954
C302	C	1.311485	0.081585	0.275380
C303	C	1.644819	0.414918	0.608713
H304	H	0.592101	-0.312678	-0.312462
H305	H	0.925434	0.020655	0.020872
H306	H	1.258768	0.353988	0.354205
H307	H	0.720335	-0.312677	-0.312450
H308	H	1.053668	0.020657	0.020883
H309	H	1.387001	0.353990	0.354216
H310	H	1.056732	-0.191110	-0.953830
H311	H	1.390065	0.142223	-0.620497
H312	H	1.723399	0.475556	-0.287163
N313	N	0.371890	-0.319631	-0.319390
N314	N	0.705224	0.013702	0.013944
N315	N	1.038557	0.347036	0.347277
N316	N	0.340316	-0.349529	-0.349190
N317	N	0.673649	-0.016196	-0.015856
N318	N	1.006982	0.317137	0.317477
H319	H	0.365797	-0.373691	-0.373268
H320	H	0.699130	-0.040358	-0.039934
H321	H	1.032463	0.292975	0.293399
N322	N	0.890550	-0.319358	-0.948150
N323	N	1.223884	0.013976	-0.614817
N324	N	1.557217	0.347309	-0.281483
N325	N	0.828100	-0.315884	-0.954249
N326	N	1.161433	0.017449	-0.620916
N327	N	1.494766	0.350782	-0.287582
H328	H	0.796834	-0.340007	-0.934554
H329	H	1.130168	-0.006674	-0.601221
H330	H	1.463501	0.326659	-0.267888
N331	N	0.584817	-0.184218	-0.184449
N332	N	0.918151	0.149115	0.148885
N333	N	1.251484	0.482449	0.482218
N334	N	0.545408	-0.150931	-0.202908
N335	N	0.878742	0.182403	0.130425
N336	N	1.212075	0.515736	0.463758
H337	H	0.519920	-0.126767	-0.178837
H338	H	0.853253	0.206566	0.154497
H339	H	1.186587	0.539900	0.487830
H340	H	0.236330	-0.312693	-0.312484
H341	H	0.569663	0.020640	0.020850
H342	H	0.902997	0.353973	0.354183
H343	H	0.899566	-0.953337	-0.312561
H344	H	1.232899	-0.620004	0.020772
H345	H	1.566233	-0.286671	0.354106
H346	H	0.236376	-0.191178	-0.191377
H347	H	0.569709	0.142155	0.141956
H348	H	0.903043	0.475488	0.475289
N349	N	0.371930	-0.184230	-0.184449
N350	N	0.705263	0.149103	0.148884
N351	N	1.038596	0.482436	0.482217
N352	N	0.340371	-0.154340	-0.154652
N353	N	0.673705	0.178994	0.178681
N354	N	1.007038	0.512327	0.512014
H355	H	0.365865	-0.130177	-0.130567
H356	H	0.699198	0.203156	0.202767
H357	H	1.032532	0.536490	0.536100
N358	N	0.847180	-0.352838	-0.696949
N359	N	1.180514	-0.019505	-0.363616
N360	N	1.513847	0.313828	-0.030283
N361	N	0.804064	-0.334447	-0.666477
N362	N	1.137397	-0.001113	-0.333144
N363	N	1.470730	0.332220	0.000190
H364	H	0.772806	-0.358567	-0.646772
H365	H	1.106139	-0.025234	-0.313439
H366	H	1.439472	0.308100	0.019894
N367	N	0.890485	-0.319494	-0.445791
N368	N	1.223818	0.013839	-0.112458
N369	N	1.557151	0.347172	0.220876
N370	N	0.890489	-0.319498	-0.397039
N371	N	1.223822	0.013835	-0.063705
N372	N	1.557155	0.347168	0.269628
H373	H	0.859241	-0.343621	-0.377327
H374	H	1.192574	-0.010288	-0.043994
H375	H	1.525908	0.323046	0.289340
N376	N	0.847206	-0.352836	-0.807319
N377	N	1.180540	-0.019502	-0.473985
N378	N	1.513873	0.313831	-0.140652
N379	N	0.808536	-0.382690	-0.782921
N380	N	1.141870	-0.049357	-0.449587
N381	N	1.475203	0.283976	-0.116254
H382	H	0.777290	-0.406820	-0.802597
H383	H	1.110624	-0.073487	-0.469264
H384	H	1.443957	0.259847	-0.135931
H385	H	1.100003	-0.157739	-0.702667
H386	H	1.433337	0.175594	-0.369333
H387	H	1.766670	0.508927	-0.036000
H388	H	1.056656	-0.191208	-0.550534
H389	H	1.389989	0.142125	-0.217200
H390	H	1.723322	0.475458	0.116133
H391	H	0.899378	-0.550050	-0.312518
H392	H	1.232712	-0.216717	0.020815
H393	H	1.566045	0.116616	0.354149
H394	H	1.099947	-0.702071	-0.157908
H395	H	1.433280	-0.368738	0.175426
H396	H	1.766614	-0.035404	0.508759
N397	N	0.890473	-0.319457	-0.556174
N398	N	1.223807	0.013876	-0.222840
N399	N	1.557140	0.347209	0.110493
N400	N	0.851785	-0.349304	-0.531783
N401	N	1.185119	-0.015971	-0.198450
N402	N	1.518452	0.317362	0.134883
H403	H	0.820511	-0.373407	-0.551466
H404	H	1.153844	-0.040074	-0.218133
H405	H	1.487177	0.293260	0.115200
H406	H	1.100016	-0.157711	-0.801712
H407	H	1.433349	0.175622	-0.468379
H408	H	1.766683	0.508956	-0.135046
N409	N	0.890361	-0.445323	-0.319422
N410	N	1.223694	-0.111990	0.013911
N411	N	1.557028	0.221344	0.347244
N412	N	0.914142	-0.414818	-0.352747
N413	N	1.247475	-0.081485	-0.019414
N414	N	1.580809	0.251849	0.313920
H415	H	0.882896	-0.395124	-0.376845
H416	H	1.216230	-0.061791	-0.043512
H417	H	1.549563	0.271543	0.289822
N418	N	0.727700	-0.184212	-0.184434
N419	N	1.061033	0.149122	0.148900
N420	N	1.394367	0.482455	0.482233
N421	N	0.696146	-0.154314	-0.154641
N422	N	1.029480	0.179019	0.178693
N423	N	1.362813	0.512353	0.512026
H424	H	0.721644	-0.130145	-0.130564
H425	H	1.054977	0.203189	0.202770
H426	H	1.388311	0.536522	0.536103
N427	N	1.065711	-0.947591	-0.184415
N428	N	1.399045	-0.614258	0.148919
N429	N	1.732378	-0.280924	0.482252
N430	N	1.041915	-0.917155	-0.151077
N431	N	1.375248	-0.583821	0.182257
N432	N	1.708581	-0.250488	0.515590
H433	H	1.073150	-0.897444	-0.126971
H434	H	1.406484	-0.564111	0.206362
H435	H	1.739817	-0.230777	0.539696
N436	N	1.065476	-0.445260	-0.184353
N437	N	1.398809	-0.111926	0.148980
N438	N	1.732143	0.221407	0.482314
N439	N	1.104157	-0.469628	-0.154533
N440	N	1.437491	-0.136295	0.178800
N441	N	1.770824	0.197039	0.512133
H442	H	1.135399	-0.449927	-0.130424
H443	H	1.468732	-0.116594	0.202910
H444	H	1.802066	0.216739	0.536243
N445	N	0.847177	-0.696525	-0.352879
N446	N	1.180511	-0.363192	-0.019545
N447	N	1.513844	-0.029859	0.313788
N448	N	0.808523	-0.720929	-0.382707
N449	N	1.141856	-0.387596	-0.049374
N450	N	1.475189	-0.054262	0.283960
H451	H	0.777264	-0.701257	-0.406813
H452	H	1.110597	-0.367924	-0.073480
H453	H	1.443931	-0.034590	0.259854
N454	N	1.065782	-1.057970	-0.184433
N455	N	1.399115	-0.724637	0.148900
N456	N	1.732449	-0.391303	0.482234
N457	N	1.104450	-1.033575	-0.154607
N458	N	1.437783	-0.700242	0.178726
N459	N	1.771117	-0.366909	0.512059
H460	H	1.135718	-1.053255	-0.130515
H461	H	1.469051	-0.719921	0.202818
H462	H	1.802385	-0.386588	0.536152
N463	N	1.065544	-0.555613	-0.184371
N464	N	1.398878	-0.222280	0.148963
N465	N	1.732211	0.111054	0.482296
N466	N	1.104197	-0.531205	-0.154544
N467	N	1.437530	-0.197872	0.178789
N468	N	1.770863	0.135462	0.512123
H469	H	1.135461	-0.550873	-0.130439
H470	H	1.468794	-0.217540	0.202894
H471	H	1.802127	0.115793	0.536228
N472	N	1.108981	-0.806765	-0.150998
N473	N	1.442314	-0.473432	0.182335
N474	N	1.775648	-0.140098	0.515669
N475	N	1.147636	-0.782355	-0.121175
N476	N	1.480970	-0.449022	0.212158
N477	N	1.814303	-0.115688	0.545492
H478	H	1.178903	-0.802022	-0.097071
H479	H	1.512236	-0.468689	0.236262
H480	H	1.845569	-0.135355	0.569596
H481	H	1.056645	-0.191246	-0.451484
H482	H	1.389979	0.142087	-0.118150
H483	H	1.723312	0.475421	0.215183
N484	N	0.847221	-0.806893	-0.352879
N485	N	1.180554	-0.473560	-0.019546
N486	N	1.513888	-0.140226	0.313787
N487	N	0.804113	-0.837403	-0.334464
N488	N	1.137446	-0.504070	-0.001131
N489	N	1.470779	-0.170736	0.332202
H490	H	0.772870	-0.857110	-0.358568
H491	H	1.106203	-0.523777	-0.025234
H492	H	1.439537	-0.190443	0.308099
N493	N	0.890623	-1.058043	-0.319486
N494	N	1.223957	-0.724710	0.013847
N495	N	1.557290	-0.391377	0.347181
N496	N	0.851941	-1.033673	-0.349303
N497	N	1.185274	-0.700339	-0.015969
N498	N	1.518607	-0.367006	0.317364
H499	H	0.820690	-1.053371	-0.373407
H500	H	1.154023	-0.720038	-0.040073
H501	H	1.487356	-0.386705	0.293260
N502	N	1.065721	-0.184163	-1.058559
N503	N	1.399054	0.149170	-0.725226
N504	N	1.732387	0.482504	-0.391893
N505	N	1.065717	-0.184160	-1.107312
N506	N	1.399050	0.149174	-0.773979
N507	N	1.732384	0.482507	-0.440645
H508	H	1.096967	-0.160039	-1.127023
H509	H	1.430301	0.173295	-0.793690
H510	H	1.763634	0.506628	-0.460357
N511	N	0.890587	-0.319347	-1.058510
N512	N	1.223920	0.013986	-0.725177
N513	N	1.557254	0.347320	-0.391844
N514	N	0.851913	-0.349202	-1.034116
N515	N	1.185246	-0.015869	-0.700783
N516	N	1.518580	0.317465	-0.367449
H517	H	0.820661	-0.373325	-1.053796
H518	H	1.153994	-0.039991	-0.720463
H519	H	1.487328	0.293342	-0.387129
