data_functionalizedCrystal
_audit_creation_method	'MofGen! by Chris Wilmer'
_symmetry_space_group_name_H-M	'P1'
_symmetry_Int_Tables_number	1
_symmetry_cell_setting	triclinic
loop_
_symmetry_equiv_pos_as_xyz
  x,y,z
_cell_length_a	27.732046
_cell_length_b	14.185251
_cell_length_c	15.625429
_cell_angle_alpha	87.173065
_cell_angle_beta	96.521191
_cell_angle_gamma	75.126104
loop_
_atom_site_label
_atom_site_type_symbol
_atom_site_fract_x
_atom_site_fract_y
_atom_site_fract_z
O1	O	-0.628125	-0.113336	0.082636
O2	O	-0.486759	-0.118865	0.097746
O3	O	-0.566397	-0.071839	-0.031481
O4	O	-0.548487	-0.160363	0.211863
O5	O	-0.584541	0.082788	0.002112
O6	O	-0.504903	0.035761	0.131340
O7	O	-0.646269	0.041291	0.116229
Cu8	Cu	-0.577243	0.052645	0.126852
Cu9	Cu	-0.555785	-0.130220	0.087123
O10	O	-0.566631	-0.005736	0.245457
C11	C	-0.477835	-0.041441	0.114225
C12	C	-0.424215	-0.041105	0.113268
N13	N	-0.592338	0.181262	0.154794
C14	C	-0.636683	0.308958	0.236830
C15	C	-0.625248	0.211622	0.215679
C16	C	-0.570852	0.248235	0.115033
C17	C	-0.582285	0.345577	0.136173
C18	C	-0.615200	0.375929	0.197072
C19	C	-0.560802	0.412548	0.096415
C20	C	-0.572231	0.509880	0.117556
C21	C	-0.605144	0.540240	0.178455
C22	C	-0.626629	0.473261	0.218214
C23	C	-0.527884	0.382192	0.035520
C24	C	-0.506401	0.449164	-0.004237
C25	C	-0.517833	0.546499	0.016899
C26	C	-0.550746	0.576859	0.077798
C27	C	-0.496347	0.613479	-0.022859
C28	C	-0.507777	0.710810	-0.001717
C29	C	-0.562175	0.674191	0.098940
C30	C	-0.082754	-0.066665	0.183630
C31	C	0.118772	-0.065372	0.180088
O32	O	0.152446	-0.088734	0.244428
N33	N	0.135010	-0.037498	0.103460
C34	C	0.100862	-0.009940	0.027713
O35	O	0.119297	0.013807	-0.037543
C36	C	-0.100663	-0.011227	0.031257
C37	C	-0.116897	-0.039111	0.107888
C38	C	-0.098989	-0.094546	0.260255
C39	C	-0.149367	-0.094874	0.261138
C40	C	-0.183510	-0.067321	0.185397
C41	C	-0.167275	-0.039440	0.108772
C42	C	-0.134811	0.016338	-0.044487
C43	C	-0.185195	0.016016	-0.043594
C44	C	-0.201429	-0.011869	0.033037
C45	C	-0.251796	-0.012214	0.033914
N46	N	-0.268034	-0.040088	0.110542
C47	C	-0.233891	-0.067641	0.186283
C48	C	0.206667	-0.009268	0.025857
C49	C	0.257048	-0.008948	0.024970
C50	C	0.274954	-0.064378	0.177346
C51	C	0.224573	-0.064704	0.178231
C52	C	0.190429	-0.037142	0.102485
C53	C	-0.339689	-0.068329	0.188133
C54	C	-0.390072	-0.068658	0.189009
C55	C	-0.407974	-0.013223	0.036635
C56	C	-0.357595	-0.012899	0.035757
C57	C	-0.323453	-0.040451	0.111514
O58	O	-0.285498	0.011146	-0.030390
O59	O	-0.252338	-0.091364	0.251535
C60	C	-0.032376	-0.066337	0.182746
C61	C	-0.016141	-0.038455	0.106121
C62	C	-0.050284	-0.010902	0.030380
C63	C	0.034240	-0.038135	0.105234
C64	C	0.068383	-0.065689	0.180976
C65	C	0.052145	-0.093562	0.257604
C66	C	0.001767	-0.093890	0.258488
C67	C	-0.034046	0.016971	-0.046249
C68	C	0.016333	0.017296	-0.047126
C69	C	0.050476	-0.010257	0.028615
C70	C	0.344809	-0.036142	0.099751
C71	C	0.291192	-0.036501	0.100712
C72	C	-0.576457	0.016794	-0.045808
C73	C	-0.579396	0.050522	-0.138545
N74	N	-0.540692	0.741163	0.059182
C75	C	-0.539600	-0.259950	-0.535099
C76	C	-0.542363	-0.228228	-0.622233
C77	C	-0.562143	-0.059665	-0.585598
C78	C	-0.559384	-0.091372	-0.498460
C79	C	-0.548112	-0.191516	-0.473218
C80	C	-0.567896	-0.022938	-0.436578
C81	C	-0.565135	-0.054644	-0.349447
C82	C	-0.553862	-0.154784	-0.324197
C83	C	-0.545351	-0.223222	-0.386087
C84	C	-0.579164	0.077205	-0.461821
C85	C	-0.587676	0.145639	-0.399940
C86	C	-0.584918	0.113934	-0.312808
C87	C	-0.573645	0.013794	-0.287558
C88	C	-0.593429	0.182372	-0.250918
C89	C	-0.590668	0.150666	-0.163787
C90	C	-0.570884	-0.017911	-0.200427
C91	C	-0.556570	-0.094371	0.259783
C92	C	-0.553631	-0.128105	0.352519
H93	H	-0.588981	0.698907	0.148525
H94	H	-0.530426	-0.341497	-0.514548
H95	H	-0.544051	0.223507	0.065450
H96	H	-0.469544	0.588748	-0.072437
Cl97	Cl	-0.465022	0.410995	-0.080792
H98	H	0.178870	0.013178	-0.035827
Cl99	Cl	-0.296776	-0.102967	0.283371
H100	H	-0.121603	0.039045	-0.106888
Cl101	Cl	0.277453	0.026085	-0.071375
Cl102	Cl	-0.582634	0.117063	-0.571359
H103	H	-0.490282	0.765341	-0.034090
Cl104	Cl	-0.576308	0.066226	-0.617339
H105	H	-0.536177	-0.304768	-0.365535
H106	H	-0.535426	-0.283963	-0.672616
H107	H	-0.596852	0.227176	-0.420504
Cl108	Cl	-0.619512	0.662601	0.205038
H109	H	0.079954	-0.116001	0.319275
H110	H	-0.602602	0.263909	-0.271483
H111	H	-0.663489	0.333673	0.286415
H112	H	-0.518576	0.302935	0.018314
H113	H	-0.642743	0.157093	0.248063
H114	H	0.029545	0.039998	-0.109535
H115	H	-0.212993	0.038462	-0.105276
Cl116	Cl	-0.410476	-0.103719	0.285352
Cl117	Cl	-0.668016	0.511430	0.294763
Cl118	Cl	-0.601371	0.236698	-0.085989
Cl119	Cl	-0.169767	-0.129925	0.357482
H120	H	-0.344375	0.009794	-0.026645
H121	H	-0.071193	-0.116981	0.321937
H122	H	0.211359	-0.087405	0.240631
Cl123	Cl	0.317886	-0.099013	0.272564
Cl124	Cl	-0.556721	-0.143809	-0.168689
H125	H	-0.435782	0.009206	-0.025033
Cl126	Cl	-0.018633	-0.128946	0.354830
H127	H	-0.061842	0.039412	-0.107928
Cl128	Cl	-0.550393	-0.194645	-0.214660
