data_functionalizedCrystal
_audit_creation_method	'MofGen! by Chris Wilmer'
_symmetry_space_group_name_H-M	'P1'
_symmetry_Int_Tables_number	1
_symmetry_cell_setting	triclinic
loop_
_symmetry_equiv_pos_as_xyz
  x,y,z
_cell_length_a	13.032831
_cell_length_b	13.033768
_cell_length_c	13.033109
_cell_angle_alpha	90.915089
_cell_angle_beta	103.334486
_cell_angle_gamma	74.827794
loop_
_atom_site_label
_atom_site_type_symbol
_atom_site_fract_x
_atom_site_fract_y
_atom_site_fract_z
Zn1	Zn	-1.782994	0.734668	-0.723743
Zn2	Zn	-1.777173	0.884003	-0.529323
Zn3	Zn	-1.577084	0.683838	-0.529356
Zn4	Zn	-1.622177	0.883911	-0.684377
O5	O	-1.689857	0.796605	-0.616700
O6	O	-1.933262	0.775789	-0.714414
O7	O	-1.729322	0.836217	-0.383085
O8	O	-1.587962	0.544353	-0.571630
O9	O	-1.928985	0.885505	-0.571574
O10	O	-1.739244	0.581697	-0.714446
O11	O	-1.582318	0.689157	-0.383109
O12	O	-1.432025	0.689067	-0.533459
O13	O	-1.664818	0.885348	-0.835842
O14	O	-1.465155	0.836060	-0.647352
O15	O	-1.782969	0.775700	-0.864764
O16	O	-1.773048	1.030219	-0.533403
O17	O	-1.659173	1.030152	-0.647321
C18	C	-1.409427	0.757039	-0.586138
C19	C	-1.289465	0.740141	-0.573085
C20	C	-1.720405	1.068108	-0.586112
C21	C	-1.733577	1.184278	-0.573073
C22	C	-1.729573	0.836183	-0.889282
C23	C	-1.746497	0.853049	-1.005440
C24	C	-1.971382	0.836327	-0.647382
C25	C	-2.091351	0.853254	-0.660456
C26	C	-1.252399	0.805424	-0.623512
C27	C	-1.128412	0.787961	-0.610023
C28	C	-1.696648	1.356120	-0.610078
C29	C	-1.683041	1.236055	-0.623564
C30	C	-1.659210	1.524049	-0.647441
C31	C	-1.646118	1.407900	-0.660562
C32	C	-1.681308	0.787806	-1.057239
C33	C	-1.698799	0.805236	-1.177295
C34	C	-1.650349	0.757114	-0.345193
C35	C	-1.633600	0.739984	-0.229091
H36	H	-1.312457	0.874241	-0.676674
C37	C	-1.768703	1.416303	-0.538204
H38	H	-1.768403	1.489107	-0.538575
H39	H	-1.740737	1.386085	-0.468244
H40	H	-1.841437	1.410859	-0.563467
H41	H	-1.629698	1.191502	-0.676769
H42	H	-1.786913	1.228828	-0.519861
C43	C	-1.574070	1.347719	-0.732442
H44	H	-1.574383	1.274918	-0.732083
H45	H	-1.501340	1.353164	-0.707197
H46	H	-1.602054	1.377941	-0.802406
C47	C	-1.588419	0.694912	-0.997089
H48	H	-1.588854	0.695379	-0.924290
H49	H	-1.520196	0.702539	-1.005297
H50	H	-1.598914	0.629500	-1.024565
C51	C	-1.791696	0.898131	-1.237443
H52	H	-1.791271	0.897655	-1.310244
H53	H	-1.781217	0.963543	-1.209969
H54	H	-1.859920	0.890489	-1.229236
H55	H	-1.068357	0.719133	-0.556865
H56	H	-1.151405	0.922074	-0.713626
H57	H	-1.564833	0.671219	-1.184563
C58	C	-1.208346	0.647166	-0.501273
H59	H	-1.247679	0.608467	-0.471391
H60	H	-1.162217	0.674294	-0.446428
H61	H	-1.165109	0.601360	-0.541707
H62	H	-1.815256	0.921811	-1.049974
