data_functionalizedCrystal
_audit_creation_method	'MofGen! by Chris Wilmer'
_symmetry_space_group_name_H-M	'P1'
_symmetry_Int_Tables_number	1
_symmetry_cell_setting	triclinic
loop_
_symmetry_equiv_pos_as_xyz
  x,y,z
_cell_length_a	23.532407
_cell_length_b	7.088929
_cell_length_c	23.532407
_cell_angle_alpha	83.810936
_cell_angle_beta	82.848678
_cell_angle_gamma	96.169690
loop_
_atom_site_label
_atom_site_type_symbol
_atom_site_fract_x
_atom_site_fract_y
_atom_site_fract_z
O1	O	0.749388	-0.158773	0.075014
O2	O	1.249388	0.341227	0.575014
O3	O	0.583522	-0.158831	0.085020
O4	O	1.083522	0.341169	0.585020
O5	O	0.671458	-0.158765	-0.002916
O6	O	1.171458	0.341235	0.497084
O7	O	0.661452	-0.158839	0.162950
O8	O	1.161452	0.341161	0.662950
O9	O	0.683210	0.159219	-0.014694
O10	O	1.183210	0.659219	0.485306
O11	O	0.595274	0.159153	0.073242
O12	O	1.095274	0.659153	0.573242
O13	O	0.761140	0.159211	0.063236
O14	O	1.261140	0.659211	0.563236
Cu15	Cu	0.679280	0.188217	0.067164
Cu16	Cu	1.179280	0.688217	0.567164
Cu17	Cu	0.665382	-0.187836	0.081093
Cu18	Cu	1.165382	0.312164	0.581093
O19	O	0.673204	0.159145	0.151172
O20	O	1.173204	0.659145	0.651172
C21	C	0.568182	0.000154	0.078876
C22	C	1.068182	0.500154	0.578876
C23	C	0.504964	0.000133	0.078111
C24	C	1.004964	0.500133	0.578111
N25	N	0.689059	0.452712	0.057366
N26	N	1.189059	0.952712	0.557366
N27	N	0.655607	-0.452332	0.090885
N28	N	1.155607	0.047668	0.590885
C29	C	0.105864	0.000198	0.125342
C30	C	0.605864	0.500198	0.625342
C31	C	0.046464	0.000210	0.124630
C32	C	0.546464	0.500210	0.624630
O33	O	0.009721	0.000260	0.168414
O34	O	0.509721	0.500260	0.668414
N35	N	0.023838	0.000230	0.072353
N36	N	0.523838	0.500230	0.572353
C37	C	0.060617	0.000258	0.020784
C38	C	0.560617	0.500258	0.520784
O39	O	0.035918	0.000278	-0.023747
O40	O	0.535918	0.500278	0.476253
C41	C	0.120016	0.000259	0.021496
C42	C	0.620016	0.500259	0.521496
C43	C	0.142637	0.000220	0.073777
C44	C	0.642637	0.500220	0.573777
C45	C	0.128485	0.000161	0.177619
C46	C	0.628485	0.500161	0.677619
C47	C	0.187881	0.000145	0.178331
C48	C	0.687881	0.500145	0.678331
C49	C	0.224655	0.000167	0.126766
C50	C	0.724655	0.500167	0.626766
C51	C	0.202033	0.000204	0.074489
C52	C	0.702033	0.500204	0.574489
C53	C	0.156794	0.000301	-0.030073
C54	C	0.656794	0.500301	0.469927
C55	C	0.216197	0.000304	-0.029357
C56	C	0.716197	0.500304	0.470643
C57	C	0.238818	0.000264	0.022924
C58	C	0.738818	0.500264	0.522924
C59	C	0.298202	0.000211	0.023636
C60	C	0.798202	0.500211	0.523636
N61	N	0.320828	0.000191	0.075913
N62	N	0.820828	0.500191	0.575913
C63	C	0.284054	0.000169	0.127478
C64	C	0.784054	0.500169	0.627478
C65	C	-0.064126	0.000258	0.019293
C66	C	0.435874	0.500258	0.519293
C67	C	-0.123524	0.000242	0.018580
C68	C	0.376476	0.500242	0.518580
C69	C	-0.137673	0.000198	0.122427
C70	C	0.362327	0.500198	0.622427
C71	C	-0.078274	0.000200	0.123139
C72	C	0.421726	0.500200	0.623139
C73	C	-0.041500	0.000238	0.071570
C74	C	0.458500	0.500238	0.571570
C75	C	0.408789	0.000134	0.128969
C76	C	0.908789	0.500134	0.628969
C77	C	0.468190	0.000111	0.129676
C78	C	0.968190	0.500111	0.629676
C79	C	0.482335	0.000165	0.025830
C80	C	0.982335	0.500165	0.525830
C81	C	0.422938	0.000178	0.025122
C82	C	0.922938	0.500178	0.525122
C83	C	0.386167	0.000170	0.076696
C84	C	0.886167	0.500170	0.576696
O85	O	0.334980	0.000168	-0.020126
O86	O	0.834980	0.500168	0.479874
O87	O	0.308762	0.000174	0.172001
O88	O	0.808762	0.500174	0.672001
C89	C	0.776480	0.000222	0.069380
C90	C	1.276480	0.500222	0.569380
C91	C	0.839697	0.000231	0.070145
C92	C	1.339697	0.500231	0.570145
C93	C	0.677079	0.000232	-0.030021
C94	C	1.177079	0.500232	0.469979
C95	C	0.676314	0.000246	-0.093239
C96	C	1.176314	0.500246	0.406761
C97	C	0.723544	0.000158	-0.492339
C98	C	1.223544	0.500158	0.007661
C99	C	0.722832	0.000143	-0.551738
C100	C	1.222832	0.500143	-0.051738
O101	O	0.766616	0.000088	-0.588481
O102	O	1.266616	0.500088	-0.088481
N103	N	0.670555	0.000126	-0.574364
N104	N	1.170555	0.500126	-0.074364
C105	C	0.618986	0.000104	-0.537585
C106	C	1.118986	0.500104	-0.037585
O107	O	0.574455	0.000086	-0.562284
O108	O	1.074455	0.500086	-0.062284
C109	C	0.619698	0.000105	-0.478186
C110	C	1.119698	0.500105	0.021814
C111	C	0.671980	0.000142	-0.455565
C112	C	1.171980	0.500142	0.044435
C113	C	0.775821	0.000192	-0.469717
C114	C	1.275821	0.500192	0.030283
C115	C	0.776533	0.000211	-0.410321
C116	C	1.276533	0.500211	0.089679
C117	C	0.724968	0.000195	-0.373548
C118	C	1.224968	0.500195	0.126452
C119	C	0.672691	0.000160	-0.396170
C120	C	1.172691	0.500160	0.103830
C121	C	0.568130	0.000070	-0.441409
C122	C	1.068130	0.500070	0.058591
C123	C	0.568846	0.000069	-0.382006
C124	C	1.068846	0.500069	0.117994
C125	C	0.621127	0.000106	-0.359385
C126	C	1.121127	0.500106	0.140615
C127	C	0.621838	0.000162	-0.300001
C128	C	1.121838	0.500162	0.199999
N129	N	0.674115	0.000180	-0.277375
N130	N	1.174115	0.500180	0.222625
C131	C	0.725680	0.000196	-0.314149
C132	C	1.225680	0.500196	0.185851
C133	C	0.617495	0.000099	-0.662328
C134	C	1.117495	0.500099	-0.162328
C135	C	0.616783	0.000111	-0.721726
C136	C	1.116783	0.500111	-0.221726
C137	C	0.720629	0.000147	-0.735875
C138	C	1.220629	0.500147	-0.235875
C139	C	0.721341	0.000148	-0.676476
C140	C	1.221341	0.500148	-0.176476
C141	C	0.669772	0.000116	-0.639702
C142	C	1.169772	0.500116	-0.139702
C143	C	0.727171	0.000236	-0.189413
C144	C	1.227171	0.500236	0.310587
C145	C	0.727879	0.000262	-0.130012
C146	C	1.227879	0.500262	0.369988
C147	C	0.624033	0.000217	-0.115868
C148	C	1.124033	0.500217	0.384132
C149	C	0.623325	0.000200	-0.175265
C150	C	1.123325	0.500200	0.324735
C151	C	0.674899	0.000204	-0.212036
C152	C	1.174899	0.500204	0.287964
O153	O	0.578077	0.000210	-0.263223
O154	O	1.078077	0.500210	0.236777
O155	O	0.770203	0.000188	-0.289440
O156	O	1.270203	0.500188	0.210560
C157	C	0.667582	0.000144	0.178277
C158	C	1.167582	0.500144	0.678277
C159	C	0.668347	0.000117	0.241495
C160	C	1.168347	0.500117	0.741495
H161	H	0.486605	0.000078	0.172252
H162	H	0.986605	0.500078	0.672252
H163	H	0.723735	0.534394	0.022632
H164	H	1.223735	1.034394	0.522632
H165	H	0.770454	0.000297	-0.111598
H166	H	1.270454	0.500297	0.388402
O167	O	0.609682	0.439488	0.136896
O168	O	1.109682	0.939488	0.636896
H169	H	0.586422	0.542546	0.160211
H170	H	1.086422	1.042546	0.660211
H171	H	0.769167	0.000231	-0.219346
H172	H	1.269167	0.500231	0.280654
H173	H	0.819105	0.000233	-0.391909
H174	H	1.319105	0.500233	0.108091
H175	H	-0.141938	0.000244	-0.023991
H176	H	0.358062	0.500244	0.476009
O177	O	0.369131	0.000122	0.184592
O178	O	0.869131	0.500122	0.684592
H179	H	0.372343	-0.129510	0.214422
H180	H	0.872343	0.370490	0.714422
H181	H	-0.059860	0.000179	0.165710
H182	H	0.440140	0.500179	0.665710
H183	H	0.817814	0.000199	-0.499652
H184	H	1.317814	0.500199	0.000348
O185	O	0.398535	0.000223	-0.031265
O186	O	0.898535	0.500223	0.468735
H187	H	0.408532	-0.129363	-0.051231
H188	H	0.908532	0.370637	0.448769
H189	H	0.582050	0.000210	-0.085917
H190	H	1.082050	0.500210	0.414083
H191	H	0.763913	0.000176	-0.658062
H192	H	1.263913	0.500176	-0.158062
H193	H	0.580756	0.000224	-0.193686
H194	H	1.080756	0.500224	0.306314
H195	H	-0.034187	0.000271	-0.022703
H196	H	0.465813	0.500271	0.477297
H197	H	0.762615	0.000152	-0.765827
H198	H	1.262615	0.500152	-0.265827
O199	O	0.132405	0.000383	-0.086464
O200	O	0.632405	0.500383	0.413536
H201	H	0.167965	0.000434	-0.122196
H202	H	0.667965	0.500434	0.377804
O203	O	0.513222	0.000056	-0.342347
O204	O	1.013222	0.500056	0.157653
H205	H	0.506267	-0.129548	-0.310140
H206	H	1.006267	0.370452	0.189860
O207	O	0.560395	0.000097	-0.746124
O208	O	1.060395	0.500097	-0.246124
H209	H	0.524662	0.000078	-0.710568
H210	H	1.024662	0.500078	-0.210568
H211	H	0.575499	0.000089	-0.632390
H212	H	1.075499	0.500089	-0.132390
O213	O	0.511740	0.000024	-0.465799
O214	O	1.011740	0.500024	0.034201
H215	H	0.476009	-0.000011	-0.430240
H216	H	0.976009	0.499989	0.069760
H217	H	0.206293	0.000113	0.220903
H218	H	0.706293	0.500113	0.720903
H219	H	0.098550	0.000150	0.219612
H220	H	0.598550	0.500150	0.719612
H221	H	0.512286	0.000175	-0.016153
H222	H	1.012286	0.500175	0.483847
O223	O	-0.177340	0.000207	0.178046
O224	O	0.322660	0.500207	0.678046
H225	H	-0.222442	0.000240	0.168762
H226	H	0.277558	0.500240	0.668762
H227	H	0.246136	0.000336	-0.071352
H228	H	0.746136	0.500336	0.428648
