data_functionalizedCrystal
_audit_creation_method	'MofGen! by Chris Wilmer'
_symmetry_space_group_name_H-M	'P1'
_symmetry_Int_Tables_number	1
_symmetry_cell_setting	triclinic
loop_
_symmetry_equiv_pos_as_xyz
  x,y,z
_cell_length_a	10.723023
_cell_length_b	10.723023
_cell_length_c	9.130313
_cell_angle_alpha	89.996944
_cell_angle_beta	90.002609
_cell_angle_gamma	95.532452
loop_
_atom_site_label
_atom_site_type_symbol
_atom_site_fract_x
_atom_site_fract_y
_atom_site_fract_z
O1	O	-0.175022	1.657187	-0.121778
O2	O	0.324978	2.157187	0.378222
O3	O	-0.191777	1.294034	-0.121783
O4	O	0.308223	1.794034	0.378217
O5	O	-0.001823	1.483988	-0.121778
O6	O	0.498177	1.983988	0.378222
O7	O	-0.364976	1.467233	-0.121783
O8	O	0.135024	1.967233	0.378217
O9	O	-0.001818	1.483975	0.121821
O10	O	0.498182	1.983975	0.621821
O11	O	-0.191771	1.294021	0.121816
O12	O	0.308229	1.794021	0.621816
O13	O	-0.175017	1.657174	0.121821
O14	O	0.324983	2.157174	0.621821
Cu15	Cu	-0.183393	1.475596	0.144061
Cu16	Cu	0.316607	1.975596	0.644061
Cu17	Cu	-0.183400	1.475612	-0.144023
Cu18	Cu	0.316600	1.975612	0.355977
O19	O	-0.364970	1.467220	0.121816
O20	O	0.135030	1.967220	0.621816
C21	C	-0.190555	1.247528	0.000015
C22	C	0.309445	1.747528	0.500015
C23	C	-0.186908	1.108974	0.000013
C24	C	0.313092	1.608974	0.500013
C25	C	-0.185279	1.047195	0.126203
C26	C	0.314721	1.547195	0.626203
C27	C	-0.181509	0.903992	0.126204
C28	C	0.318491	1.403992	0.626204
C29	C	-0.411473	1.468446	0.000015
C30	C	0.088527	1.968446	0.500015
C31	C	-0.550027	1.472093	0.000013
C32	C	-0.050027	1.972093	0.500013
C33	C	-0.611796	1.473712	0.126203
C34	C	-0.111796	1.973712	0.626203
C35	C	-0.754999	1.477482	0.126204
C36	C	-0.254999	1.977482	0.626204
C37	C	0.044679	1.482762	0.000019
C38	C	0.544679	1.982762	0.500019
C39	C	0.183233	1.479115	0.000012
C40	C	0.683233	1.979115	0.500012
C41	C	-0.176239	1.703680	0.000019
C42	C	0.323761	2.203680	0.500019
C43	C	-0.179886	1.842234	0.000012
C44	C	0.320114	2.342234	0.500012
N45	N	-0.183388	1.475594	0.346684
N46	N	0.316612	1.975594	0.846684
N47	N	-0.183396	1.475623	-0.346646
N48	N	0.316604	1.975623	0.153354
C49	C	-0.099312	1.559735	0.423338
C50	C	0.400688	2.059735	0.923338
C51	C	-0.099313	1.559746	0.576675
C52	C	0.400687	2.059746	1.076675
C53	C	-0.267475	1.391474	0.576689
C54	C	0.232525	1.891474	1.076689
C55	C	-0.267468	1.391457	0.423355
C56	C	0.232532	1.891457	0.923355
H57	H	-0.181294	0.895354	-0.108030
H58	H	0.318706	1.395354	0.391970
H59	H	-0.185508	1.055848	-0.108023
H60	H	0.314492	1.555848	0.391977
H61	H	-0.808118	1.478881	0.234240
H62	H	-0.308118	1.978881	0.734240
H63	H	-0.335933	1.322973	0.639131
H64	H	0.164067	1.822973	1.139131
H65	H	-0.558662	1.472302	0.234239
H66	H	-0.058662	1.972302	0.734239
H67	H	-0.763654	1.477728	-0.108030
H68	H	-0.263654	1.977728	0.391970
H69	H	-0.335933	1.322934	0.360939
H70	H	0.164067	1.822934	0.860939
H71	H	-0.603163	1.473487	-0.108023
H72	H	-0.103163	1.973487	0.391977
H73	H	-0.030848	1.628242	0.360915
H74	H	0.469152	2.128242	0.860915
H75	H	-0.030849	1.628259	0.639082
H76	H	0.469151	2.128259	1.139082
H77	H	-0.186668	1.100322	0.234239
H78	H	0.313332	1.600322	0.734239
H79	H	-0.180115	0.850863	0.234240
H80	H	0.319885	1.350863	0.734240
