data_functionalizedCrystal
_audit_creation_method	'MofGen! by Chris Wilmer'
_symmetry_space_group_name_H-M	'P1'
_symmetry_Int_Tables_number	1
_symmetry_cell_setting	triclinic
loop_
_symmetry_equiv_pos_as_xyz
  x,y,z
_cell_length_a	29.999520
_cell_length_b	29.998686
_cell_length_c	29.995014
_cell_angle_alpha	60.005185
_cell_angle_beta	60.010401
_cell_angle_gamma	59.993433
loop_
_atom_site_label
_atom_site_type_symbol
_atom_site_fract_x
_atom_site_fract_y
_atom_site_fract_z
O1	O	0.061772	-0.651300	0.544623
O2	O	0.561772	-0.151300	1.044623
O3	O	0.023267	-0.507084	0.438819
O4	O	0.523267	-0.007084	0.938819
O5	O	0.114589	-0.598332	0.438743
O6	O	0.614589	-0.098332	0.938743
O7	O	-0.029550	-0.560051	0.544699
O8	O	0.470450	-0.060051	1.044699
O9	O	0.144886	-0.568039	0.468961
O10	O	0.644886	-0.068039	0.968961
O11	O	0.053564	-0.476791	0.469038
O12	O	0.553564	0.023209	0.969038
O13	O	0.092069	-0.621007	0.574841
O14	O	0.592069	-0.121007	1.074841
Zn15	Zn	0.077627	-0.544089	0.526737
Zn16	Zn	0.577627	-0.044089	1.026737
Zn17	Zn	0.037709	-0.584002	0.486923
Zn18	Zn	0.537709	-0.084002	0.986923
O19	O	0.000748	-0.529758	0.574918
O20	O	0.500748	-0.029758	1.074918
N21	N	0.104871	-0.516854	0.553912
N22	N	0.604871	-0.016854	1.053912
N23	N	0.010470	-0.611242	0.459748
N24	N	0.510470	-0.111242	0.959748
C25	C	0.143162	-0.478782	0.827124
C26	C	0.643162	0.021218	1.327124
C27	C	0.378203	-0.478734	0.591892
C28	C	0.878203	0.021266	1.091892
C29	C	0.143005	-0.478752	0.591997
C30	C	0.643005	0.021248	1.091997
C31	C	0.142986	-0.243586	0.592008
C32	C	0.642986	0.256414	1.092008
C33	C	0.180857	-0.357087	0.629814
C34	C	0.680857	0.142913	1.129814
C35	C	0.180866	-0.440920	0.629807
C36	C	0.680866	0.059080	1.129807
C37	C	0.201840	-0.419964	0.650755
C38	C	0.701840	0.080036	1.150755
C39	C	0.293272	-0.404201	0.602606
C40	C	0.793272	0.095799	1.102606
C41	C	0.350426	-0.423248	0.583534
C42	C	0.850426	0.076752	1.083534
C43	C	0.350451	-0.515727	0.618798
C44	C	0.850451	-0.015727	1.118798
C45	C	0.293297	-0.496678	0.637872
C46	C	0.793297	0.003322	1.137872
C47	C	0.194628	-0.328499	0.573626
C48	C	0.694628	0.171501	1.073626
C49	C	0.175551	-0.271340	0.554591
C50	C	0.675551	0.228660	1.054591
C51	C	0.128936	-0.271362	0.647935
C52	C	0.628936	0.228638	1.147935
C53	C	0.148014	-0.328521	0.666970
C54	C	0.648014	0.171479	1.166970
C55	C	0.124672	-0.427119	0.643641
C56	C	0.624672	0.072881	1.143641
C57	C	0.105611	-0.446170	0.624592
C58	C	0.605611	0.053830	1.124592
C59	C	0.198934	-0.492820	0.577889
C60	C	0.698934	0.007180	1.077889
C61	C	0.217998	-0.473770	0.596931
C62	C	0.717998	0.026230	1.096931
C63	C	0.124740	-0.427136	0.742229
C64	C	0.624740	0.072864	1.242229
C65	C	0.105728	-0.446202	0.799386
C66	C	0.605728	0.053798	1.299386
C67	C	0.199085	-0.492863	0.799337
C68	C	0.699085	0.007137	1.299337
C69	C	0.218096	-0.473798	0.742178
C70	C	0.718096	0.026202	1.242178
C71	C	0.180923	-0.440933	0.713626
C72	C	0.680923	0.059067	1.213626
C73	C	0.264710	-0.440915	0.629773
C74	C	0.764710	0.059085	1.129773
C75	C	0.121509	-0.499370	0.889991
C76	C	0.621509	0.000630	1.389991
C77	C	0.441068	-0.498953	0.570621
C78	C	0.941068	0.001047	1.070621
C79	C	0.121297	-0.499349	0.571429
C80	C	0.621297	0.000651	1.071429
C81	C	0.121653	-0.180715	0.571802
C82	C	0.621653	0.319285	1.071802
C83	C	-0.111071	-0.648912	0.421584
C84	C	0.388929	-0.148912	0.921584
C85	C	-0.027286	-0.649018	0.421777
C86	C	0.472714	-0.149018	0.921777
C87	C	-0.048200	-0.669944	0.400740
C88	C	0.451800	-0.169944	0.900740
C89	C	-0.064036	-0.761340	0.448814
C90	C	0.435964	-0.261340	0.948814
C91	C	-0.045033	-0.818500	0.467893
C92	C	0.454967	-0.318500	0.967893
C93	C	0.047447	-0.818609	0.432797
C94	C	0.547447	-0.318609	0.932797
C95	C	0.028444	-0.761451	0.413717
C96	C	0.528444	-0.261451	0.913717
C97	C	-0.139731	-0.662677	0.477755
C98	C	0.360269	-0.162677	0.977755
C99	C	-0.196885	-0.643554	0.496701
C100	C	0.303115	-0.143554	0.996701
C101	C	-0.196717	-0.596907	0.403303
C102	C	0.303283	-0.096907	0.903303
C103	C	-0.139562	-0.616030	0.384357
C104	C	0.360438	-0.116030	0.884357
C105	C	-0.041053	-0.592827	0.407952
C106	C	0.458947	-0.092827	0.907952
C107	C	-0.022041	-0.573809	0.427083
C108	C	0.477959	-0.073809	0.927083
C109	C	0.024504	-0.667167	0.473848
C110	C	0.524504	-0.167167	0.973848
C111	C	0.005492	-0.686188	0.454725
C112	C	0.505492	-0.186188	0.954725
C113	C	-0.040886	-0.592836	0.309259
C114	C	0.459114	-0.092836	0.809259
C115	C	-0.021740	-0.573821	0.252102
C116	C	0.478260	-0.073821	0.752102
C117	C	0.024886	-0.667185	0.252163
C118	C	0.524886	-0.167185	0.752163
C119	C	0.005743	-0.686199	0.309322
C120	C	0.505743	-0.186199	0.809322
C121	C	-0.027145	-0.649023	0.337868
C122	C	0.472855	-0.149023	0.837868
C123	C	-0.027299	-0.732818	0.421728
C124	C	0.472701	-0.232818	0.921728
N125	N	0.492511	-0.516826	0.553742
N126	N	0.992511	-0.016826	1.053742
O127	O	0.679283	-0.525926	0.419277
O128	O	1.179283	-0.025926	0.919277
O129	O	0.679465	-0.632059	0.563349
O130	O	1.179465	-0.132059	1.063349
O131	O	0.679393	-0.631817	0.471975
O132	O	1.179393	-0.131817	0.971975
O133	O	0.679355	-0.526168	0.510650
O134	O	1.179355	-0.026168	1.010650
O135	O	0.588593	-0.601610	0.502313
O136	O	1.088593	-0.101610	1.002313
O137	O	0.588665	-0.601852	0.593686
O138	O	1.088665	-0.101852	1.093686
O139	O	0.588483	-0.495720	0.449614
O140	O	1.088483	0.004280	0.949614
Zn141	Zn	0.574158	-0.543990	0.526467
Zn142	Zn	1.074158	-0.043990	1.026467
Zn143	Zn	0.693790	-0.583788	0.486496
Zn144	Zn	1.193790	-0.083788	0.986496
O145	O	0.588555	-0.495962	0.540987
O146	O	1.088555	0.004038	1.040987
N147	N	0.775436	-0.610952	0.459215
N148	N	1.275436	-0.110952	0.959215
N149	N	0.104844	-0.129269	0.553931
N150	N	0.604844	0.370731	1.053931
O151	O	-0.029548	0.057600	0.544709
O152	O	0.470452	0.557600	1.044709
O153	O	0.114530	0.057617	0.438578
O154	O	0.614530	0.557617	0.938578
O155	O	0.023130	0.057594	0.438850
O156	O	0.523130	0.557594	0.938850
O157	O	0.061852	0.057623	0.544437
O158	O	0.561852	0.557623	1.044437
O159	O	0.053431	-0.033213	0.469115
O160	O	0.553431	0.466787	0.969115
O161	O	0.144831	-0.033190	0.468843
O162	O	0.644831	0.466810	0.968843
O163	O	0.000753	-0.033207	0.574974
O164	O	0.500753	0.466793	1.074974
Zn165	Zn	0.077603	-0.047616	0.526714
Zn166	Zn	0.577603	0.452384	1.026714
Zn167	Zn	0.037680	0.072026	0.486838
Zn168	Zn	0.537680	0.572026	0.986838
O169	O	0.092153	-0.033184	0.574702
O170	O	0.592153	0.466816	1.074702
N171	N	0.010432	0.153679	0.459622
N172	N	0.510432	0.653679	0.959622
N173	N	0.105130	-0.516904	0.941437
N174	N	0.605130	-0.016904	1.441437
O175	O	0.095923	-0.651280	1.128292
O176	O	0.595923	-0.151280	1.628292
O177	O	-0.010184	-0.507155	1.128318
O178	O	0.489816	-0.007155	1.628318
O179	O	-0.009938	-0.598539	1.128284
O180	O	0.490062	-0.098539	1.628284
O181	O	0.095677	-0.559897	1.128326
O182	O	0.595677	-0.059897	1.628326
O183	O	0.020315	-0.568257	1.037481
O184	O	0.520315	-0.068257	1.537481
O185	O	0.020068	-0.476874	1.037515
O186	O	0.520068	0.023126	1.537515
O187	O	0.126176	-0.620999	1.037489
O188	O	0.626176	-0.120999	1.537489
Zn189	Zn	0.077925	-0.544128	1.023085
Zn190	Zn	0.577925	-0.044128	1.523085
Zn191	Zn	0.038066	-0.584026	1.142722
Zn192	Zn	0.538066	-0.084026	1.642722
O193	O	0.125929	-0.529616	1.037523
O194	O	0.625929	-0.029616	1.537523
N195	N	0.010860	-0.611256	1.224371
N196	N	0.510860	-0.111256	1.724371
C197	C	0.034807	-0.473765	0.439352
C198	C	0.534807	0.026235	0.939352
C199	C	0.147897	-0.586765	0.439257
C200	C	0.647897	-0.086765	0.939257
C201	C	0.080529	-0.654326	0.574308
C202	C	0.580529	-0.154326	1.074308
C203	C	-0.032561	-0.541326	0.574403
C204	C	0.467439	-0.041326	1.074403
C205	C	0.634087	-0.631571	0.596668
C206	C	1.134087	-0.131571	1.096668
C207	C	0.633999	-0.631272	0.483513
C208	C	1.133999	-0.131272	0.983513
C209	C	0.633858	-0.496206	0.416295
C210	C	1.133858	0.003794	0.916295
C211	C	0.633949	-0.496507	0.529449
C212	C	1.133949	0.003493	1.029449
C213	C	0.147793	0.012327	0.439058
C214	C	0.647793	0.512327	0.939058
C215	C	0.034644	0.012187	0.439432
C216	C	0.534644	0.512187	0.939432
C217	C	-0.032548	0.012195	0.574457
C218	C	0.467452	0.512195	1.074457
C219	C	0.080639	0.012222	0.574120
C220	C	0.580639	0.512222	1.074120
C221	C	-0.009670	-0.473857	1.082920
C222	C	0.490330	0.026143	1.582920
C223	C	-0.009359	-0.587018	1.082860
C224	C	0.490641	-0.087018	1.582860
C225	C	0.125662	-0.654297	1.082887
C226	C	0.625662	-0.154297	1.582887
C227	C	0.125358	-0.541129	1.082927
C228	C	0.625358	-0.041129	1.582927
H229	H	0.059977	-0.434960	0.822668
H230	H	0.559977	0.065040	1.322668
H231	H	0.088930	0.012231	0.607291
H232	H	0.588930	0.512231	1.107291
C233	C	0.170184	-0.529961	1.082935
C234	C	0.670184	-0.029961	1.582935
N235	N	0.203948	-0.521548	1.082940
N236	N	0.703948	-0.021548	1.582940
H237	H	-0.042525	-0.595273	1.082811
H238	H	0.457475	-0.095273	1.582811
H239	H	0.158977	-0.695688	1.082873
H240	H	0.658977	-0.195688	1.582873
C241	C	0.261830	-0.342859	0.593697
C242	C	0.761830	0.157141	1.093697
N243	N	0.238147	-0.296655	0.586987
N244	N	0.738147	0.203345	1.086987
C245	C	0.083843	-0.390979	0.710824
C246	C	0.583843	0.109021	1.210824
N247	N	0.053040	-0.363746	0.687170
N248	N	0.553040	0.136254	1.187170
C249	C	-0.054675	-0.417937	1.082928
C250	C	0.445325	0.082063	1.582928
N251	N	-0.088572	-0.375817	1.082934
N252	N	0.411428	0.124183	1.582934
H253	H	0.229358	-0.519614	0.822579
H254	H	0.729358	-0.019614	1.322579
C255	C	0.203825	-0.597786	0.394306
C256	C	0.703825	-0.097786	0.894306
N257	N	0.245951	-0.606087	0.360449
N258	N	0.745951	-0.106087	0.860449
C259	C	0.279903	-0.488979	0.710719
C260	C	0.779903	0.011021	1.210719
N261	N	0.326456	-0.500413	0.687025
N262	N	0.826456	-0.000413	1.187025
C263	C	0.091640	-0.710293	0.619202
C264	C	0.591640	-0.210293	1.119202
N265	N	0.100008	-0.752448	0.653015
N266	N	0.600008	-0.252448	1.153015
C267	C	0.043794	-0.430990	0.639807
C268	C	0.543794	0.069010	1.139807
N269	N	-0.002766	-0.419556	0.651268
N270	N	0.497234	0.080444	1.151268
C271	C	0.203575	0.012678	0.393930
C272	C	0.703575	0.512678	0.893930
N273	N	0.245591	0.012944	0.359939
N274	N	0.745591	0.512944	0.859939
H275	H	-0.073962	-0.533167	0.607674
H276	H	0.426038	-0.033167	1.107674
C277	C	0.023695	-0.417799	0.394457
C278	C	0.523695	0.082201	0.894457
N279	N	0.015325	-0.375646	0.360642
N280	N	0.515325	0.124354	0.860642
C281	C	0.633702	-0.451163	0.360425
C282	C	1.133702	0.048837	0.860425
N283	N	0.633557	-0.417227	0.318353
N284	N	1.133557	0.082773	0.818353
C285	C	0.023449	0.012165	0.394622
C286	C	0.523449	0.512165	0.894622
N287	N	0.015019	0.012143	0.360873
N288	N	0.515019	0.512143	0.860873
H289	H	0.094434	-0.400372	0.670409
H290	H	0.594434	0.099628	1.170409
H291	H	0.633941	-0.463320	0.537725
H292	H	1.133941	0.036680	1.037725
C293	C	0.239784	-0.528959	0.541729
C294	C	0.739784	-0.028959	1.041729
N295	N	0.270554	-0.556177	0.514490
N296	N	0.770554	-0.056177	1.014490
H297	H	0.263756	-0.485001	0.585661
H298	H	0.763756	0.014999	1.085661
C299	C	0.261880	-0.537069	0.667755
C300	C	0.761880	-0.037069	1.167755
N301	N	0.238216	-0.567493	0.690263
N302	N	0.738216	-0.067493	1.190263
H303	H	-0.073925	0.012190	0.607776
H304	H	0.426075	0.512190	1.107776
H305	H	0.634015	-0.664461	0.475235
H306	H	1.134015	-0.164461	0.975235
C307	C	0.381844	-0.382859	0.553646
C308	C	0.881844	0.117141	1.053646
N309	N	0.405510	-0.352437	0.531133
N310	N	0.905510	0.147563	1.031133
C311	C	0.230753	-0.359922	0.532752
C312	C	0.730753	0.140078	1.032752
N313	N	0.257962	-0.383589	0.501965
N314	N	0.757962	0.116411	1.001965
C315	C	0.381899	-0.577070	0.627701
C316	C	0.881899	-0.077070	1.127701
N317	N	0.405586	-0.623273	0.634408
N318	N	0.905586	-0.123273	1.134408
H319	H	0.186762	-0.248063	0.508836
H320	H	0.686762	0.251937	1.008836
C321	C	0.061055	-0.708083	0.220769
C322	C	0.561055	-0.208083	0.720769
N323	N	0.088301	-0.738890	0.197123
N324	N	0.588301	-0.238890	0.697123
C325	C	0.092788	-0.239936	0.688809
C326	C	0.592788	0.260064	1.188809
N327	N	0.065549	-0.216268	0.719595
N328	N	0.565549	0.283732	1.219595
H329	H	0.136793	-0.351798	0.712725
H330	H	0.636793	0.148202	1.212725
H331	H	-0.032937	-0.528066	0.228816
H332	H	0.467063	-0.028066	0.728816
H333	H	0.634133	-0.664888	0.638048
H334	H	1.134133	-0.164888	1.138048
H335	H	-0.067667	-0.562559	0.332499
H336	H	0.432333	-0.062559	0.832499
H337	H	0.016937	-0.731954	0.332612
H338	H	0.516937	-0.231954	0.832612
H339	H	0.058362	-0.738230	0.391661
H340	H	0.558362	-0.238230	0.891661
C341	C	-0.077111	-0.551936	0.371713
C342	C	0.422889	-0.051936	0.871713
N343	N	-0.104271	-0.521136	0.344415
N344	N	0.395729	-0.021136	0.844415
H345	H	0.051198	-0.697438	0.500669
H346	H	0.551198	-0.197438	1.000669
C347	C	0.020637	-0.748000	0.469926
C348	C	0.520637	-0.248000	0.969926
N349	N	0.032047	-0.794556	0.481374
N350	N	0.532047	-0.294556	0.981374
C351	C	0.108767	-0.850107	0.423987
C352	C	0.608767	-0.350107	0.923987
N353	N	0.154953	-0.873831	0.417349
N354	N	0.654953	-0.373831	0.917349
C355	C	-0.037181	-0.511997	0.411876
C356	C	0.462819	-0.011997	0.911876
N357	N	-0.048583	-0.465441	0.400420
N358	N	0.451417	0.034559	0.900420
H359	H	-0.109425	-0.738032	0.455342
H360	H	0.390575	-0.238032	0.955342
C361	C	-0.108391	-0.698846	0.518706
C362	C	0.391609	-0.198846	1.018706
N363	N	-0.084787	-0.726089	0.549552
N364	N	0.415213	-0.226089	1.049552
C365	C	-0.228412	-0.658696	0.558495
C366	C	0.271588	-0.158696	1.058495
N367	N	-0.252157	-0.670103	0.605038
N368	N	0.247843	-0.170103	1.105038
C369	C	-0.228059	-0.560742	0.362352
C370	C	0.271941	-0.060742	0.862352
N371	N	-0.251664	-0.533500	0.331507
N372	N	0.248336	-0.033500	0.831507
C373	C	-0.108035	-0.600888	0.322562
C374	C	0.391965	-0.100888	0.822562
N375	N	-0.084290	-0.589483	0.276019
N376	N	0.415710	-0.089483	0.776019
C377	C	-0.085449	-0.849873	0.497702
C378	C	0.414551	-0.349873	0.997702
N379	N	-0.115892	-0.873505	0.520159
N380	N	0.384108	-0.373505	1.020159
