data_functionalizedCrystal
_audit_creation_method	'MofGen! by Chris Wilmer'
_symmetry_space_group_name_H-M	'P1'
_symmetry_Int_Tables_number	1
_symmetry_cell_setting	triclinic
loop_
_symmetry_equiv_pos_as_xyz
  x,y,z
_cell_length_a	12.837942
_cell_length_b	12.811438
_cell_length_c	10.066280
_cell_angle_alpha	105.160480
_cell_angle_beta	98.906416
_cell_angle_gamma	89.413151
loop_
_atom_site_label
_atom_site_type_symbol
_atom_site_fract_x
_atom_site_fract_y
_atom_site_fract_z
O1	O	0.147106	1.414835	0.061642
O2	O	0.157695	1.105680	0.023373
O3	O	0.001367	1.253403	0.041667
O4	O	0.303433	1.267111	0.043348
O5	O	0.029076	1.284103	0.272440
O6	O	0.185403	1.136379	0.254145
O7	O	0.174814	1.445534	0.292415
Zn8	Zn	0.184508	1.295831	0.309920
Zn9	Zn	0.148001	1.255383	0.005867
O10	O	0.331142	1.297811	0.274120
C11	C	0.170105	1.081184	0.133827
C12	C	0.165790	0.962456	0.119130
C13	C	0.144606	0.778380	-0.027363
C14	C	0.148658	0.889934	-0.013566
C15	C	0.178867	0.923419	0.238037
C16	C	0.174815	0.811865	0.224239
C17	C	0.157685	0.739349	0.091535
C18	C	0.153640	0.627793	0.077739
C19	C	0.183842	0.661281	0.329340
C20	C	0.187894	0.772834	0.343138
C21	C	-0.023488	1.264121	0.156480
C22	C	-0.138829	1.250307	0.154767
C23	C	-0.376616	1.416368	0.175295
C24	C	-0.484990	1.403393	0.173687
C25	C	-0.463955	1.211384	0.149933
C26	C	-0.355581	1.224358	0.151541
C27	C	-0.311915	1.326854	0.164225
C28	C	-0.203538	1.339828	0.165843
C29	C	-0.182506	1.147819	0.142079
C30	C	-0.290880	1.134844	0.140470
C31	C	0.355996	1.287092	0.159305
C32	C	0.471337	1.300905	0.161008
C33	C	0.162404	1.470030	0.181958
C34	C	0.166718	1.588756	0.196646
N35	N	0.209423	1.323443	0.517429
N36	N	0.123078	1.227779	-0.201641
C37	C	0.175838	1.286246	0.737787
C38	C	0.156655	1.264967	0.577997
H39	H	0.194497	0.629491	0.426156
C40	C	-0.338484	1.023667	0.126786
C41	C	-0.447238	1.031465	0.127779
C42	C	-0.491120	0.929072	0.115200
H43	H	-0.326172	0.975543	0.041708
H44	H	-0.306799	0.997050	0.202681
H45	H	-0.478914	1.058067	0.051891
H46	H	-0.459580	1.079568	0.212849
H47	H	-0.459435	0.902455	0.191095
H48	H	-0.478801	0.880956	0.030121
H49	H	-0.564912	0.934350	0.115885
C50	C	-0.112243	1.050622	0.129773
C51	C	-0.063677	1.036643	0.011258
C52	C	0.001043	0.947111	-0.000127
H53	H	-0.059788	1.062293	0.210279
H54	H	-0.153750	0.987690	0.121911
H55	H	-0.022173	1.099560	0.019131
H56	H	-0.116107	1.024953	-0.069269
H57	H	-0.040463	0.884178	-0.007990
H58	H	0.053492	0.958791	0.080384
H59	H	0.033996	0.937608	-0.080546
C60	C	-0.329109	1.527657	0.189355
C61	C	-0.253274	1.556520	0.309719
C62	C	-0.209502	1.659039	0.322726
H63	H	-0.296844	1.526131	0.110109
H64	H	-0.383128	1.579155	0.195803
H65	H	-0.199264	1.505035	0.303260
H66	H	-0.285513	1.558070	0.388986
H67	H	-0.263522	1.710538	0.329174
H68	H	-0.177243	1.657503	0.243474
H69	H	-0.158051	1.678640	0.404399
H70	H	-0.167987	1.423286	0.176176
H71	H	0.235212	1.352051	0.804226
H72	H	-0.537667	1.476285	0.182697
H73	H	0.063713	1.161966	0.731920
C74	C	0.077630	1.177046	0.489483
C75	C	0.108453	1.077056	0.511767
C76	C	0.035691	0.996037	0.430240
H77	H	0.009741	1.192619	0.514699
H78	H	0.075268	1.174330	0.393835
H79	H	0.110804	1.079773	0.607394
H80	H	0.176331	1.061448	0.486543
H81	H	0.033329	0.993321	0.334592
H82	H	-0.032193	1.011621	0.455462
H83	H	0.056600	0.928183	0.445338
C84	C	0.206449	0.851398	0.487332
C85	C	0.217013	0.793336	0.588505
C86	C	0.234094	0.865671	0.721354
H87	H	0.269037	0.893650	0.497891
H88	H	0.148266	0.897591	0.498268
H89	H	0.275190	0.747162	0.577574
H90	H	0.154435	0.751088	0.577992
H91	H	0.175911	0.911864	0.732290
H92	H	0.296681	0.907919	0.731898
H93	H	0.241254	0.826287	0.790016
C94	C	0.134981	0.549234	-0.066456
C95	C	0.124366	0.607300	-0.167627
C96	C	0.107160	0.534971	-0.300476
H97	H	0.193107	0.502998	-0.077518
H98	H	0.072367	0.507028	-0.076891
H99	H	0.186972	0.649487	-0.157197
H100	H	0.066239	0.653532	-0.156610
H101	H	0.044546	0.492765	-0.310911
H102	H	0.165288	0.488738	-0.311524
H103	H	0.099945	0.574358	-0.369136
C104	C	0.134643	0.932457	-0.142538
C105	C	0.225147	0.992600	-0.142316
C106	C	0.212267	1.031801	-0.261097
H107	H	0.123905	0.873396	-0.223645
H108	H	0.075254	0.977333	-0.142140
H109	H	0.284518	0.947727	-0.142727
H110	H	0.235901	1.051677	-0.061236
H111	H	0.152879	1.076677	-0.260700
H112	H	0.201528	0.972733	-0.342195
H113	H	0.273668	1.072620	-0.260956
H114	H	0.268805	1.389249	0.583861
H115	H	-0.499529	1.127935	0.139591
H116	H	0.130669	0.719336	-0.135417
H117	H	0.192801	0.982480	0.346079
