data_functionalizedCrystal
_audit_creation_method	'MofGen! by Chris Wilmer'
_symmetry_space_group_name_H-M	'P1'
_symmetry_Int_Tables_number	1
_symmetry_cell_setting	triclinic
loop_
_symmetry_equiv_pos_as_xyz
  x,y,z
_cell_length_a	19.077442
_cell_length_b	19.077367
_cell_length_c	19.076919
_cell_angle_alpha	85.521998
_cell_angle_beta	90.066548
_cell_angle_gamma	89.883403
loop_
_atom_site_label
_atom_site_type_symbol
_atom_site_fract_x
_atom_site_fract_y
_atom_site_fract_z
Zn1	Zn	-0.251017	-1.072176	-0.344928
Zn2	Zn	-0.363414	-1.081533	-0.222349
Zn3	Zn	-0.251034	-0.959032	-0.231779
Zn4	Zn	-0.373189	-0.959371	-0.344505
O5	O	-0.309664	-1.018028	-0.285890
O6	O	-0.261829	-1.171894	-0.324898
O7	O	-0.344423	-1.069057	-0.125123
O8	O	-0.152871	-0.969983	-0.250912
O9	O	-0.344406	-1.178769	-0.234840
O10	O	-0.152859	-1.053110	-0.334042
O11	O	-0.261858	-0.979056	-0.132051
O12	O	-0.271336	-0.860600	-0.250502
O13	O	-0.361067	-0.970560	-0.443038
O14	O	-0.361083	-0.860849	-0.333321
O15	O	-0.271307	-1.053438	-0.443348
O16	O	-0.462871	-1.069386	-0.234430
O17	O	-0.470053	-0.979633	-0.324178
C18	C	-0.317273	-0.835191	-0.292889
C19	C	-0.320546	-0.756972	-0.295899
C20	C	-0.275293	-0.720069	-0.254271
C21	C	-0.278374	-0.646575	-0.257098
C22	C	-0.326705	-0.609984	-0.301559
C23	C	-0.371964	-0.646893	-0.343190
C24	C	-0.368885	-0.720386	-0.340358
C25	C	-0.340933	-0.390200	-0.314642
C26	C	-0.344007	-0.316701	-0.317472
C27	C	-0.250417	-0.316388	-0.231380
C28	C	-0.247340	-0.389883	-0.228555
C29	C	-0.292601	-0.426785	-0.270182
N30	N	-0.329855	-0.534861	-0.304453
N31	N	-0.289454	-0.501907	-0.267285
C32	C	-0.491914	-1.025580	-0.278249
C33	C	-0.569880	-1.028874	-0.275001
C34	C	-1.008340	-1.052454	-0.251688
C35	C	-0.935083	-1.049352	-0.254741
C36	C	-0.902221	-1.001042	-0.302962
C37	C	-0.942621	-0.955825	-0.348127
C38	C	-1.015876	-0.958924	-0.345070
C39	C	-0.683535	-0.986757	-0.317109
C40	C	-0.610274	-0.983663	-0.320164
C41	C	-0.602741	-1.077189	-0.226777
C42	C	-0.675998	-1.080287	-0.223727
C43	C	-0.716391	-1.035068	-0.268890
N44	N	-0.827341	-0.997872	-0.306085
N45	N	-0.791270	-1.038235	-0.265762
C46	C	-0.126701	-1.010465	-0.293576
C47	C	-0.048734	-1.007242	-0.296851
C48	C	-0.317275	-1.010993	-0.469441
C49	C	-0.320519	-1.007996	-0.547659
C50	C	-0.302021	-0.201579	-0.278858
C51	C	-0.298753	-0.279798	-0.275844
C52	C	-0.275312	-1.049735	-0.584569
C53	C	-0.278358	-1.046910	-0.658064
C54	C	-0.326614	-1.002348	-0.694647
C55	C	-0.371823	-0.960604	-0.657732
C56	C	-0.368773	-0.963426	-0.584239
C57	C	-0.340742	-0.989277	-0.914431
C58	C	-0.343789	-0.986460	-0.987929
C59	C	-0.250323	-1.072765	-0.988256
C60	C	-0.247281	-1.075586	-0.914761
C61	C	-0.292487	-1.033840	-0.877853
N62	N	-0.329729	-0.999461	-0.769771
N63	N	-0.289367	-1.036724	-0.802731
C64	C	-0.302029	-1.025074	-0.103054
C65	C	-0.298582	-1.028199	-0.024839
H66	H	-0.235930	-0.749855	-0.218071
Br67	Br	-0.217034	-1.103593	-0.708151
Br68	Br	-0.409600	-0.267043	-0.377820
H69	H	-0.383087	-0.950170	-1.017713
Br70	Br	-0.565677	-0.918096	-0.385613
H71	H	-1.048765	-0.922111	-0.381850
Br72	Br	-0.188996	-0.266303	-0.174888
H73	H	-0.207987	-1.111875	-0.884980
Br74	Br	-0.216954	-0.596494	-0.200602
Br75	Br	-0.188974	-1.129417	-1.038350
Br76	Br	-0.738345	-0.925399	-0.378413
H77	H	-0.411319	-0.617096	-0.379388
Br78	Br	-0.209823	-1.110220	-0.534927
H79	H	-0.377562	-0.955295	-0.884388
H80	H	-0.207988	-0.419670	-0.192345
H81	H	-0.411111	-0.924318	-0.687524
H82	H	-0.377787	-0.420237	-0.348538
H83	H	-0.702749	-1.119625	-0.184460
Br84	Br	-0.430307	-0.770471	-0.396851
Br85	Br	-0.430124	-0.906773	-0.534146
Br86	Br	-1.052930	-1.118026	-0.186247
H87	H	-0.569846	-1.114004	-0.190007
Br88	Br	-0.880264	-1.110720	-0.193452
Br89	Br	-0.898024	-0.890259	-0.413569
