data_functionalizedCrystal
_audit_creation_method	'MofGen! by Chris Wilmer'
_symmetry_space_group_name_H-M	'P1'
_symmetry_Int_Tables_number	1
_symmetry_cell_setting	triclinic
loop_
_symmetry_equiv_pos_as_xyz
  x,y,z
_cell_length_a	10.967926
_cell_length_b	11.792254
_cell_length_c	9.482900
_cell_angle_alpha	99.398945
_cell_angle_beta	92.549900
_cell_angle_gamma	84.460570
loop_
_atom_site_label
_atom_site_type_symbol
_atom_site_fract_x
_atom_site_fract_y
_atom_site_fract_z
O1	O	1.611521	0.200404	0.282842
O2	O	1.262324	0.202894	0.195354
O3	O	1.445387	0.036809	0.241229
O4	O	1.428458	0.366489	0.236967
O5	O	1.408203	0.070687	0.473704
O6	O	1.225140	0.236771	0.427829
O7	O	1.574338	0.234282	0.515317
Cu8	Cu	1.396344	0.238620	0.492799
Cu9	Cu	1.440317	0.198556	0.217871
O10	O	1.391274	0.400366	0.469442
C11	C	1.199027	0.217091	0.300391
C12	C	1.065820	0.208911	0.267017
C13	C	0.987170	0.222813	0.372567
C14	C	0.849493	0.214358	0.338076
C15	C	1.425729	0.011416	0.357199
C16	C	1.422536	-0.114721	0.356398
C17	C	1.419943	-0.217159	0.355743
C18	C	1.416702	-0.345673	0.354917
C19	C	1.637635	0.220083	0.410277
C20	C	1.770843	0.228263	0.443641
C21	C	1.410933	0.425759	0.353469
C22	C	1.414127	0.551895	0.354261
N23	N	1.365424	0.266798	0.686171
N24	N	1.471247	0.170368	0.024502
C25	C	1.431189	0.206861	0.774851
C26	C	1.405472	0.230315	0.935824
H27	H	1.031229	0.190746	0.151118
N28	N	1.525695	0.120696	0.720583
N29	N	1.546448	0.101762	0.589895
H30	H	1.613194	0.040905	0.551569
N31	N	1.310942	0.316465	0.990080
N32	N	1.290181	0.335392	1.120766
H33	H	1.223419	0.396233	1.159088
H34	H	1.546590	0.101681	0.981259
H35	H	0.805427	0.246422	0.559549
H36	H	1.290076	0.335473	0.729419
H37	H	1.021761	0.240968	0.488466
H38	H	0.814908	0.196193	0.222170
