data_functionalizedCrystal
_audit_creation_method	'MofGen! by Chris Wilmer'
_symmetry_space_group_name_H-M	'P1'
_symmetry_Int_Tables_number	1
_symmetry_cell_setting	triclinic
loop_
_symmetry_equiv_pos_as_xyz
  x,y,z
_cell_length_a	15.944551
_cell_length_b	23.532407
_cell_length_c	15.021413
_cell_angle_alpha	89.999348
_cell_angle_beta	89.997174
_cell_angle_gamma	83.173708
loop_
_atom_site_label
_atom_site_type_symbol
_atom_site_fract_x
_atom_site_fract_y
_atom_site_fract_z
O1	O	1.113910	0.073442	-0.073949
O2	O	0.869284	0.082498	-0.073972
O3	O	0.998974	-0.004933	-0.073943
O4	O	0.984220	0.160873	-0.073977
O5	O	0.998953	-0.004921	0.074121
O6	O	0.869263	0.082510	0.074092
O7	O	1.113889	0.073455	0.074116
Zn8	Zn	0.991573	0.077985	0.097612
Zn9	Zn	0.991600	0.077968	-0.097469
O10	O	0.984200	0.160886	0.074087
C11	C	0.837983	0.082128	0.000057
C12	C	0.744746	0.081001	0.000049
C13	C	0.530369	0.024113	0.000078
C14	C	0.469137	0.050524	-0.072931
C15	C	0.574038	0.078962	0.000060
C16	C	0.469138	0.050549	0.073049
C17	C	0.409142	0.076989	0.000075
C18	C	0.514033	0.105388	-0.073009
C19	C	0.514041	0.105405	0.073036
C20	C	0.452826	0.131856	0.000010
C21	C	0.669030	0.080097	0.000051
C22	C	0.314150	0.075858	0.000077
C23	C	0.998588	-0.026144	0.000091
C24	C	0.997458	-0.089366	0.000098
C25	C	1.067121	-0.488199	0.000056
C26	C	1.066072	-0.547603	0.000049
O27	O	1.130650	-0.584098	0.000022
N28	N	0.988971	-0.570528	0.000042
C29	C	0.912915	-0.534045	0.000033
O30	O	0.847239	-0.558999	0.000026
C31	C	0.913965	-0.474642	0.000034
C32	C	0.991071	-0.451721	0.000049
C33	C	1.144220	-0.465277	0.000070
C34	C	1.145269	-0.405877	0.000079
C35	C	1.069219	-0.369399	0.000073
C36	C	0.992120	-0.392320	0.000058
C37	C	0.837910	-0.438160	0.000018
C38	C	0.838967	-0.378754	0.000018
C39	C	0.916072	-0.355832	0.000034
C40	C	0.917118	-0.296442	0.000060
N41	N	0.994219	-0.273517	0.000067
C42	C	1.070269	-0.309995	0.000073
C43	C	0.910716	-0.658796	0.000031
C44	C	0.909664	-0.718198	0.000037
C45	C	1.062821	-0.731752	0.000050
C46	C	1.063872	-0.672349	0.000051
C47	C	0.987816	-0.635871	0.000037
C48	C	1.072466	-0.185250	0.000092
C49	C	1.073508	-0.125844	0.000104
C50	C	0.920352	-0.112295	0.000085
C51	C	0.919309	-0.171696	0.000078
C52	C	0.995373	-0.208173	0.000078
O53	O	0.852574	-0.259913	0.000083
O54	O	1.135935	-0.285033	0.000069
C55	C	1.145190	0.073824	0.000084
C56	C	1.238427	0.074951	0.000087
C57	C	0.984586	0.182097	0.000051
C58	C	0.985715	0.245318	0.000038
N59	N	0.991561	0.077995	0.230750
N60	N	0.991619	0.077953	-0.230606
C61	C	0.931583	0.118404	0.470420
C62	C	1.007390	0.129461	0.529759
C63	C	0.991582	0.077981	0.412357
C64	C	0.915796	0.066938	0.529760
C65	C	0.991596	0.077969	0.587781
C66	C	1.067428	0.089063	0.470389
C67	C	0.975783	0.026518	0.470385
C68	C	1.051645	0.037552	0.529697
C69	C	0.991573	0.077990	0.311300
C70	C	0.991614	0.077960	0.688836
H71	H	0.419284	0.177423	-0.000040
O72	O	0.537803	0.132981	0.146753
C73	C	0.515186	0.103928	0.223582
H74	H	0.508813	0.057497	0.206100
H75	H	0.566096	0.105323	0.276556
H76	H	0.452363	0.125471	0.250215
O77	O	0.839368	0.055826	0.561019
C78	C	0.840682	0.055444	0.654870
H79	H	0.891901	0.081493	0.679584
H80	H	0.776674	0.075039	0.681275
H81	H	0.854531	0.009494	0.679641
O82	O	0.445511	0.022794	0.146658
C83	C	0.485382	-0.033991	0.146375
H84	H	0.544811	-0.036725	0.103640
H85	H	0.503194	-0.047639	0.217375
H86	H	0.440383	-0.063529	0.117883
H87	H	1.102446	0.003360	0.555561
H88	H	0.564086	-0.021407	-0.000003
H89	H	0.449230	0.027320	-0.134645
H90	H	1.136300	-0.107185	0.000119
H91	H	1.208056	-0.387220	0.000088
O92	O	0.537797	0.132997	-0.146702
C93	C	0.626088	0.133716	-0.145827
H94	H	0.656588	0.097161	-0.102555
H95	H	0.651591	0.128326	-0.216608
H96	H	0.641480	0.176240	-0.117611
H97	H	1.134405	-0.214943	0.000089
H98	H	1.020766	0.172977	0.555839
H99	H	1.206153	-0.494973	0.000072
H100	H	0.880895	0.152617	0.444393
O101	O	1.138845	-0.650180	0.000018
C102	C	1.205737	-0.695122	0.000048
H103	H	1.182535	-0.735478	-0.027981
H104	H	1.259606	-0.682706	-0.042937
H105	H	1.229163	-0.703523	0.071084
O106	O	1.136622	-0.767275	0.000006
C107	C	1.119153	-0.824619	0.000019
H108	H	1.053197	-0.826898	-0.028012
H109	H	1.167656	-0.851525	-0.042972
H110	H	1.122479	-0.841802	0.071050
O111	O	0.765029	-0.343377	-0.000112
C112	C	0.718213	-0.353759	-0.076817
H113	H	0.739234	-0.398815	-0.102384
H114	H	0.648119	-0.349594	-0.059582
H115	H	0.729427	-0.321263	-0.130508
H116	H	0.848778	-0.629098	0.000027
O117	O	0.834690	-0.740366	-0.000008
C118	C	0.767798	-0.695424	0.000012
H119	H	0.791007	-0.655068	-0.028011
H120	H	0.713940	-0.707840	-0.042982
H121	H	0.744355	-0.687024	0.071045
O122	O	0.763060	-0.460482	-0.000125
C123	C	0.757873	-0.494420	-0.076828
H124	H	0.824207	-0.509214	-0.102374
H125	H	0.724703	-0.533317	-0.059599
H126	H	0.720515	-0.468172	-0.130532
O127	O	0.844337	-0.193871	0.000026
C128	C	0.777439	-0.148933	0.000049
H129	H	0.800645	-0.108572	-0.027964
H130	H	0.723587	-0.161348	-0.042955
H131	H	0.753989	-0.140540	0.071080
H132	H	0.858434	-0.082584	0.000084
H133	H	1.131539	0.098450	0.444420
H134	H	0.962383	-0.016985	0.444284
