data_functionalizedCrystal
_audit_creation_method	'MofGen! by Chris Wilmer'
_symmetry_space_group_name_H-M	'P1'
_symmetry_Int_Tables_number	1
_symmetry_cell_setting	triclinic
loop_
_symmetry_equiv_pos_as_xyz
  x,y,z
_cell_length_a	8.559649
_cell_length_b	16.109301
_cell_length_c	15.186229
_cell_angle_alpha	90.005167
_cell_angle_beta	90.003029
_cell_angle_gamma	76.620073
loop_
_atom_site_label
_atom_site_type_symbol
_atom_site_fract_x
_atom_site_fract_y
_atom_site_fract_z
O1	O	-2.120140	0.028207	-0.073213
O2	O	-1.654914	-0.014732	-0.073219
O3	O	-1.900307	0.128583	-0.073207
O4	O	-1.874747	-0.115108	-0.073225
O5	O	-1.900291	0.128584	0.073250
O6	O	-1.654898	-0.014731	0.073238
O7	O	-2.120124	0.028208	0.073244
Zn8	Zn	-1.887508	0.006738	0.096494
Zn9	Zn	-1.887530	0.006737	-0.096469
O10	O	-1.874731	-0.115107	0.073232
C11	C	-1.595374	-0.017985	0.000009
C12	C	-1.417989	-0.027671	0.000007
C13	C	-1.899264	0.159492	0.000022
C14	C	-1.896160	0.251590	0.000023
C15	C	-2.179664	0.031461	0.000014
C16	C	-2.357049	0.041147	0.000011
C17	C	-1.875774	-0.146016	0.000001
C18	C	-1.878878	-0.238114	-0.000006
N19	N	-1.887505	0.006740	0.228187
C20	C	-2.034553	0.482679	0.000011
C21	C	-2.031624	0.569213	0.000004
C22	C	-1.740473	0.530789	0.000004
C23	C	-1.743404	0.444257	0.000005
C24	C	-1.890449	0.420205	0.000013
C25	C	-1.884589	0.593271	0.000005
C26	C	-1.881412	0.687094	-0.000003
C27	C	-1.893627	0.326376	0.000019
N28	N	-1.887545	0.006743	-0.228162
C29	C	-1.996202	0.070183	0.453915
C30	C	-1.996207	0.070186	0.546105
C31	C	-1.778837	-0.056704	0.546103
C32	C	-1.778825	-0.056702	0.453915
C33	C	-1.887517	0.006741	0.407824
C34	C	-1.887534	0.006742	0.592201
C35	C	-1.887538	0.006744	0.692158
C36	C	-1.887511	0.006741	0.307861
H37	H	-1.334449	-0.094004	-0.000003
H38	H	-2.154287	0.463099	0.000016
H39	H	-1.440580	0.107476	0.000011
H40	H	-2.148969	0.620077	0.000001
O41	O	-1.597781	0.554304	0.000043
C42	C	-1.464229	0.670581	-0.000004
C43	C	-1.625942	0.644073	-0.000032
H44	H	-1.486941	0.743161	-0.000084
H45	H	-1.392994	0.644156	0.061303
H46	H	-1.393021	0.644040	-0.061281
H47	H	-1.697280	0.670606	0.061203
H48	H	-1.697055	0.670486	-0.061380
H49	H	-1.626050	0.393387	0.000003
H50	H	-2.084703	0.121844	0.416390
O51	O	-2.101942	0.131853	0.590742
C52	C	-2.317482	0.257737	0.581008
C53	C	-2.197847	0.187934	0.530349
H54	H	-2.395030	0.303107	0.532203
H55	H	-2.397396	0.226963	0.624137
H56	H	-2.248496	0.294851	0.624199
H57	H	-2.266702	0.150796	0.487110
H58	H	-2.117934	0.218759	0.487276
O59	O	-1.673424	-0.118292	0.591015
C60	C	-1.577048	-0.174507	0.733034
C61	C	-1.696536	-0.104716	0.682285
H62	H	-1.595670	-0.163544	0.806835
H63	H	-1.597832	-0.239795	0.714962
H64	H	-1.449089	-0.171816	0.714867
H65	H	-1.824541	-0.107327	0.700425
H66	H	-1.675612	-0.039458	0.700362
H67	H	-1.690313	-0.108364	0.416385
