data_functionalizedCrystal
_audit_creation_method	'MofGen! by Chris Wilmer'
_symmetry_space_group_name_H-M	'P1'
_symmetry_Int_Tables_number	1
_symmetry_cell_setting	triclinic
loop_
_symmetry_equiv_pos_as_xyz
  x,y,z
_cell_length_a	19.121063
_cell_length_b	19.805407
_cell_length_c	19.805399
_cell_angle_alpha	89.979591
_cell_angle_beta	92.411105
_cell_angle_gamma	92.471006
loop_
_atom_site_label
_atom_site_type_symbol
_atom_site_fract_x
_atom_site_fract_y
_atom_site_fract_z
Zn1	Zn	-0.279595	1.023235	-0.394216
Zn2	Zn	0.220405	1.523235	0.105784
Zn3	Zn	-0.397047	1.018319	-0.285851
Zn4	Zn	0.102953	1.518319	0.214149
Zn5	Zn	-0.279618	0.910049	-0.281040
Zn6	Zn	0.220382	1.410049	0.218960
Zn7	Zn	-0.397014	0.905184	-0.398995
Zn8	Zn	0.102986	1.405184	0.101005
O9	O	-0.338318	0.964197	-0.340026
O10	O	0.161682	1.464197	0.159974
O11	O	-0.295179	1.117299	-0.379855
O12	O	0.204821	1.617299	0.120145
O13	O	-0.381494	1.003935	-0.190497
O14	O	0.118506	1.503935	0.309503
O15	O	-0.181330	0.929157	-0.292040
O16	O	0.318670	1.429157	0.207960
O17	O	-0.381471	1.113687	-0.300240
O18	O	0.118529	1.613687	0.199760
O19	O	-0.181313	1.012314	-0.375190
O20	O	0.318687	1.512314	0.124810
O21	O	-0.295219	0.924390	-0.186963
O22	O	0.204781	1.424390	0.313037
O23	O	-0.295187	0.814687	-0.296674
O24	O	0.204813	1.314687	0.203326
O25	O	-0.381414	0.920865	-0.493077
O26	O	0.118586	1.420865	0.006923
O27	O	-0.381437	0.811113	-0.383334
O28	O	0.118563	1.311113	0.116666
O29	O	-0.295147	1.007597	-0.489566
O30	O	0.204853	1.507597	0.010434
O31	O	-0.495328	0.999218	-0.304873
O32	O	0.004672	1.499218	0.195127
O33	O	-0.495303	0.916098	-0.388000
O34	O	0.004697	1.416098	0.112000
C35	C	-0.338311	0.788341	-0.340001
C36	C	0.161689	1.288341	0.159999
C37	C	-0.338325	0.713108	-0.340007
C38	C	0.161675	1.213108	0.159993
C39	C	-0.293470	0.253198	-0.381577
C40	C	0.206530	0.753198	0.118423
C41	C	-0.293472	0.323887	-0.381572
C42	C	0.206528	0.823887	0.118428
C43	C	-0.338329	0.357347	-0.340048
C44	C	0.161671	0.857347	0.159952
C45	C	-0.383193	0.320114	-0.298531
C46	C	0.116807	0.820114	0.201469
C47	C	-0.383195	0.249427	-0.298540
C48	C	0.116805	0.749427	0.201460
C49	C	-0.383188	0.605187	-0.298495
C50	C	0.116812	1.105187	0.201505
C51	C	-0.383181	0.675880	-0.298487
C52	C	0.116819	1.175880	0.201513
C53	C	-0.293464	0.679648	-0.381528
C54	C	0.206536	1.179648	0.118472
C55	C	-0.293466	0.608960	-0.381536
C56	C	0.206534	1.108960	0.118464
C57	C	-0.338333	0.571734	-0.340022
C58	C	0.161667	1.071734	0.159978
C59	C	-0.338332	0.495085	-0.340029
C60	C	0.161668	0.995085	0.159971
C61	C	-0.338327	0.433994	-0.340037
C62	C	0.161673	0.933994	0.159963
C63	C	-0.520800	0.956615	-0.347492
C64	C	-0.020800	1.456615	0.152508
C65	C	-0.598866	0.953433	-0.350708
C66	C	-0.098866	1.453433	0.149292
C67	C	-0.635531	0.995248	-0.308976
C68	C	-0.135531	1.495248	0.191024
C69	C	-0.708882	0.992259	-0.312005
C70	C	-0.208882	1.492259	0.187995
C71	C	-0.745567	0.947452	-0.356764
C72	C	-0.245567	1.447452	0.143236
C73	C	-0.708897	0.905635	-0.398501
C74	C	-0.208897	1.405635	0.101499
C75	C	-0.635547	0.908628	-0.395475
C76	C	-0.135547	1.408628	0.104525
C77	C	-0.967038	0.936254	-0.368068
C78	C	-0.467038	1.436254	0.131932
C79	C	-1.040393	0.933263	-0.371090
C80	C	-0.540393	1.433263	0.128910
C81	C	-1.040374	1.019889	-0.284595
C82	C	-0.540374	1.519889	0.215405
C83	C	-0.967022	1.022874	-0.281570
C84	C	-0.467022	1.522874	0.218430
C85	C	-0.930358	0.981060	-0.323309
C86	C	-0.430358	1.481060	0.176691
C87	C	-0.820544	0.944395	-0.359860
C88	C	-0.320544	1.444395	0.140140
C89	C	-0.855382	0.984121	-0.320216
C90	C	-0.355382	1.484121	0.179784
C91	C	-0.155125	0.971827	-0.332545
C92	C	0.344875	1.471827	0.167455
C93	C	-0.077058	0.975078	-0.329357
C94	C	0.422942	1.475078	0.170643
C95	C	-0.338274	0.964236	-0.516567
C96	C	0.161726	1.464236	-0.016567
C97	C	-0.338255	0.964253	-0.591798
C98	C	0.161745	1.464253	-0.091798
C99	C	-0.338326	1.140739	-0.340051
C100	C	0.161674	1.640739	0.159949
C101	C	-0.338330	1.215971	-0.340062
C102	C	0.161670	1.715971	0.159938
C103	C	-0.293334	1.009416	-0.625315
C104	C	0.206666	1.509416	-0.125315
C105	C	-0.293313	1.009424	-0.696003
C106	C	0.206687	1.509424	-0.196003
C107	C	-0.338219	0.964272	-0.733172
C108	C	0.161781	1.464272	-0.233172
C109	C	-0.383142	0.919104	-0.699650
C110	C	0.116858	1.419104	-0.199650
C111	C	-0.383159	0.919094	-0.628964
C112	C	0.116841	1.419094	-0.128964
C113	C	-0.383077	0.919145	-0.984721
C114	C	0.116923	1.419145	-0.484721
C115	C	-0.383059	0.919161	-1.055412
C116	C	0.116941	1.419161	-0.555412
C117	C	-0.293232	1.009475	-1.051760
C118	C	0.206768	1.509475	-0.551760
C119	C	-0.293248	1.009465	-0.981073
C120	C	0.206752	1.509465	-0.481073
C121	C	-0.338169	0.964295	-0.947557
C122	C	0.161831	1.464295	-0.447557
C123	C	-0.338189	0.964286	-0.870910
C124	C	0.161811	1.464286	-0.370910
C125	C	-0.338202	0.964283	-0.809819
C126	C	0.161798	1.464283	-0.309819
C127	C	-0.338312	0.964198	-0.164169
C128	C	0.161688	1.464198	0.335831
C129	C	-0.338133	0.964320	-0.088930
C130	C	0.161867	1.464320	0.411070
H131	H	-0.256936	0.581721	-0.415347
H132	H	0.243064	1.081721	0.084653
H133	H	-0.256934	0.709966	-0.415333
H134	H	0.243066	1.209966	0.084667
C135	C	-0.791337	0.892815	-0.492934
C136	C	-0.291337	1.392815	0.007066
C137	C	-0.749222	0.856383	-0.447700
C138	C	-0.249222	1.356383	0.052300
H139	H	-0.816234	0.862405	-0.523303
H140	H	-0.316234	1.362405	-0.023303
H141	H	-0.762679	0.923451	-0.517670
H142	H	-0.262679	1.423451	-0.017670
H143	H	-0.823668	0.917288	-0.468504
H144	H	-0.323668	1.417288	0.031496
H145	H	-0.716887	0.831913	-0.472130
H146	H	-0.216887	1.331913	0.027870
H147	H	-0.777883	0.825734	-0.422961
H148	H	-0.277883	1.325734	0.077039
C149	C	-0.471885	0.665058	-0.216413
C150	C	0.028115	1.165058	0.283587
C151	C	-0.432499	0.712660	-0.252847
C152	C	0.067501	1.212660	0.247153
H153	H	-0.502332	0.687766	-0.188242
H154	H	-0.002332	1.187766	0.311758
H155	H	-0.441256	0.638750	-0.189317
H156	H	0.058744	1.138750	0.310683
H157	H	-0.498787	0.636382	-0.246975
H158	H	0.001213	1.136382	0.253025
H159	H	-0.405593	0.741333	-0.222285
H160	H	0.094407	1.241333	0.277715
H161	H	-0.463132	0.738979	-0.279946
H162	H	0.036868	1.238979	0.220054
H163	H	-0.419719	0.574886	-0.264689
H164	H	0.080281	1.074886	0.235311
C165	C	-1.032985	1.105813	-0.198796
C166	C	-0.532985	1.605813	0.301204
C167	C	-1.080675	1.065853	-0.238721
C168	C	-0.580675	1.565853	0.261279
H169	H	-1.057867	1.134188	-0.170473
H170	H	-0.557867	1.634188	0.329527
H171	H	-1.004334	1.132852	-0.227130
H172	H	-0.504334	1.632852	0.272870
H173	H	-1.004419	1.077496	-0.171701
H174	H	-0.504419	1.577496	0.328299
H175	H	-1.109238	1.094170	-0.265820
H176	H	-0.609238	1.594170	0.234180
H177	H	-1.109338	1.038812	-0.210383
H178	H	-0.609338	1.538812	0.289617
C179	C	-0.422925	0.879083	-1.165393
C180	C	0.077075	1.379083	-0.665393
C181	C	-0.432423	0.869527	-1.096272
C182	C	0.067577	1.369527	-0.596272
H183	H	-0.453404	0.848447	-1.190617
H184	H	0.046596	1.348447	-0.690617
H185	H	-0.375737	0.871145	-1.175047
H186	H	0.124263	1.371145	-0.675047
H187	H	-0.433205	0.924137	-1.177394
H188	H	0.066795	1.424137	-0.677394
H189	H	-0.422137	0.824474	-1.084270
H190	H	0.077863	1.324474	-0.584270
H191	H	-0.479621	0.877460	-1.086614
H192	H	0.020379	1.377460	-0.586614
H193	H	-0.256735	1.046201	-0.723289
H194	H	0.243265	1.546201	-0.223289
H195	H	-0.256938	0.225961	-0.415387
H196	H	0.243062	0.725961	0.084613
C197	C	-0.174410	1.047331	-0.598706
C198	C	0.325590	1.547331	-0.098706
C199	C	-0.243969	1.059047	-0.584461
C200	C	0.256031	1.559047	-0.084461
H201	H	-0.143934	1.077970	-0.573482
H202	H	0.356066	1.577970	-0.073482
H203	H	-0.167978	1.053802	-0.645596
H204	H	0.332022	1.553802	-0.145596
H205	H	-0.164143	1.002279	-0.586688
H206	H	0.335857	1.502279	-0.086688
H207	H	-0.254238	1.104099	-0.596484
H208	H	0.245762	1.604099	-0.096484
H209	H	-0.250405	1.052582	-0.537561
H210	H	0.249595	1.552582	-0.037561
C211	C	-0.204446	1.098735	-0.984565
C212	C	0.295554	1.598735	-0.484565
C213	C	-0.243884	1.059094	-0.940217
C214	C	0.256116	1.559094	-0.440217
H215	H	-0.173967	1.129370	-0.959341
H216	H	0.326033	1.629370	-0.459341
H217	H	-0.235040	1.123357	-1.013387
H218	H	0.264960	1.623357	-0.513387
H219	H	-0.177576	1.070361	-1.011035
H220	H	0.322424	1.570361	-0.511035
H221	H	-0.270758	1.087469	-0.913750
H222	H	0.229242	1.587469	-0.413750
H223	H	-0.213286	1.034471	-0.911384
H224	H	0.286714	1.534471	-0.411384
C225	C	-0.477576	0.905775	-0.909094
C226	C	0.022424	1.405775	-0.409094
C227	C	-0.432458	0.869495	-0.947893
C228	C	0.067542	1.369495	-0.447893
H229	H	-0.508060	0.875119	-0.886356
H230	H	-0.008060	1.375119	-0.386356
H231	H	-0.504432	0.934149	-0.937770
H232	H	-0.004432	1.434149	-0.437770
H233	H	-0.450831	0.932656	-0.876836
H234	H	0.049169	1.432656	-0.376836
H235	H	-0.459202	0.842618	-0.980155
H236	H	0.040798	1.342618	-0.480155
H237	H	-0.405598	0.841110	-0.919215
H238	H	0.094402	1.341110	-0.419215
H239	H	-0.419720	0.347362	-0.264723
H240	H	0.080280	0.847362	0.235277
C241	C	-1.033049	0.847948	-0.456301
C242	C	-0.533049	1.347948	0.043699
C243	C	-1.080719	0.884014	-0.420299
C244	C	-0.580719	1.384014	0.079701
H245	H	-1.057947	0.817549	-0.486681
H246	H	-0.557947	1.317549	0.013319
H247	H	-1.004485	0.823235	-0.425614
H248	H	-0.504485	1.323235	0.074386
H249	H	-1.004394	0.878601	-0.481032
H250	H	-0.504394	1.378601	0.018968
H251	H	-1.109371	0.853361	-0.395563
H252	H	-0.609371	1.353361	0.104437
H253	H	-1.109296	0.908728	-0.450990
H254	H	-0.609296	1.408728	0.049010
H255	H	-0.419726	0.219117	-0.264735
H256	H	0.080274	0.719117	0.235265
C257	C	-0.854574	1.065918	-0.238522
C258	C	-0.354574	1.565918	0.261478
C259	C	-0.926699	1.072126	-0.232368
C260	C	-0.426699	1.572126	0.267632
H261	H	-0.829682	1.096320	-0.208141
H262	H	-0.329682	1.596320	0.291859
H263	H	-0.842515	1.076293	-0.283504
H264	H	-0.342515	1.576293	0.216496
H265	H	-0.842611	1.020931	-0.228081
H266	H	-0.342611	1.520931	0.271919
H267	H	-0.938663	1.117112	-0.242814
H268	H	-0.438663	1.617112	0.257186
H269	H	-0.938763	1.061755	-0.187376
H270	H	-0.438763	1.561755	0.312624
H271	H	-0.605667	1.031732	-0.272526
H272	H	-0.105667	1.531732	0.227474
H273	H	-0.419703	0.882339	-0.729919
H274	H	0.080297	1.382339	-0.229919
H275	H	-0.825511	1.020606	-0.283776
H276	H	-0.325511	1.520606	0.216224
C277	C	-0.471969	0.829838	-0.639670
C278	C	0.028031	1.329838	-0.139670
C279	C	-0.432550	0.869461	-0.592120
C280	C	0.067450	1.369461	-0.092120
H281	H	-0.502466	0.799200	-0.616923
H282	H	-0.002466	1.299200	-0.116923
H283	H	-0.441364	0.805219	-0.665980
H284	H	0.058636	1.305219	-0.165980
H285	H	-0.498820	0.858224	-0.668349
H286	H	0.001180	1.358224	-0.168349
H287	H	-0.405695	0.841076	-0.563444
H288	H	0.094305	1.341076	-0.063444
H289	H	-0.463159	0.894082	-0.565798
H290	H	0.036841	1.394082	-0.065798
H291	H	-0.256945	0.354194	-0.415381
H292	H	0.243055	0.854194	0.084619
H293	H	-0.738732	1.026309	-0.278022
H294	H	-0.238732	1.526309	0.221978
C295	C	-0.884625	0.848571	-0.373981
C296	C	-0.384625	1.348571	0.126019
C297	C	-0.926737	0.890289	-0.413939
C298	C	-0.426737	1.390289	0.086061
H299	H	-0.859738	0.820196	-0.402301
H300	H	-0.359738	1.320196	0.097699
H301	H	-0.913283	0.821531	-0.345655
H302	H	-0.413283	1.321531	0.154345
H303	H	-0.852284	0.875695	-0.346896
H304	H	-0.352284	1.375695	0.153104
H305	H	-0.959081	0.863165	-0.441021
H306	H	-0.459081	1.363165	0.058979
H307	H	-0.898076	0.917331	-0.442277
H308	H	-0.398076	1.417331	0.057723
C309	C	-0.642930	0.822703	-0.481274
C310	C	-0.142930	1.322703	0.018726
C311	C	-0.595242	0.862665	-0.441349
C312	C	-0.095242	1.362665	0.058651
H313	H	-0.618046	0.794326	-0.509595
H314	H	-0.118046	1.294326	-0.009595
H315	H	-0.671495	0.851013	-0.508366
H316	H	-0.171495	1.351013	-0.008366
H317	H	-0.671581	0.795658	-0.452936
H318	H	-0.171581	1.295658	0.047064
H319	H	-0.566594	0.889713	-0.469688
H320	H	-0.066594	1.389713	0.030312
H321	H	-0.566664	0.834351	-0.414255
H322	H	-0.066664	1.334351	0.085745
C323	C	-0.253304	1.049594	-1.158495
C324	C	0.246696	1.549594	-0.658495
C325	C	-0.243844	1.059120	-1.088602
C326	C	0.256156	1.559120	-0.588602
H327	H	-0.222812	1.080240	-1.181237
H328	H	0.277188	1.580240	-0.681237
H329	H	-0.300485	1.057537	-1.172008
H330	H	0.199515	1.557537	-0.672008
H331	H	-0.243017	1.004544	-1.169642
H332	H	0.256983	1.504544	-0.669642
H333	H	-0.254135	1.104168	-1.077455
H334	H	0.245865	1.604168	-0.577455
H335	H	-0.196651	1.051181	-1.075085
H336	H	0.303349	1.551181	-0.575085
H337	H	-0.850422	0.907911	-0.396301
H338	H	-0.350422	1.407911	0.103699
