data_functionalizedCrystal
_audit_creation_method	'MofGen! by Chris Wilmer'
_symmetry_space_group_name_H-M	'P1'
_symmetry_Int_Tables_number	1
_symmetry_cell_setting	triclinic
loop_
_symmetry_equiv_pos_as_xyz
  x,y,z
_cell_length_a	17.699077
_cell_length_b	10.967829
_cell_length_c	16.176319
_cell_angle_alpha	102.131306
_cell_angle_beta	90.005422
_cell_angle_gamma	84.011537
loop_
_atom_site_label
_atom_site_type_symbol
_atom_site_fract_x
_atom_site_fract_y
_atom_site_fract_z
O1	O	1.005078	0.157757	0.091208
O2	O	0.784828	0.178295	0.094137
O3	O	0.900031	-0.013639	0.066789
O4	O	0.889875	0.349691	0.118556
O5	O	0.900017	-0.013639	-0.070704
O6	O	0.784815	0.178295	-0.043356
O7	O	1.005064	0.157757	-0.046285
Cu8	Cu	0.894938	0.168026	-0.057375
Cu9	Cu	0.894954	0.168026	0.105227
O10	O	0.889861	0.349691	-0.018937
C11	C	0.756620	0.177560	0.025287
C12	C	0.672588	0.175356	0.024974
C13	C	0.633106	0.174318	-0.050122
C14	C	0.554150	0.172227	-0.050421
C15	C	0.514677	0.171184	0.024379
C16	C	0.554164	0.172219	0.099480
C17	C	0.633119	0.174301	0.099777
C18	C	0.235748	0.163822	0.098286
C19	C	0.156787	0.161743	0.097984
C20	C	0.156779	0.161748	-0.051913
C21	C	0.235734	0.163830	-0.051616
C22	C	0.275215	0.164858	0.023484
C23	C	0.360828	0.167123	0.023807
C24	C	0.429065	0.168928	0.024058
C25	C	0.899284	-0.060126	-0.008579
C26	C	0.897070	-0.198644	-0.028309
C27	C	0.896090	-0.260393	0.034121
C28	C	0.893802	-0.403558	0.013730
C29	C	1.033272	0.158492	0.022567
C30	C	1.117305	0.160696	0.022885
C31	C	0.890608	0.396178	0.056433
C32	C	0.892822	0.534696	0.076169
N33	N	0.894932	0.168025	-0.171740
C34	C	0.941225	0.243612	-0.204232
C35	C	0.941233	0.243607	-0.290780
C36	C	0.894944	0.168021	-0.344833
C37	C	0.848649	0.092425	-0.312337
C38	C	0.848646	0.092424	-0.225791
C39	C	0.848663	0.092426	-0.661365
C40	C	0.848669	0.092436	-0.747915
C41	C	0.941251	0.243610	-0.726353
C42	C	0.941247	0.243609	-0.639808
C43	C	0.894956	0.168008	-0.607319
C44	C	0.894949	0.168012	-0.513475
C45	C	0.894946	0.168022	-0.438676
N46	N	0.894966	0.168018	0.219591
H47	H	0.665239	0.175177	-0.111032
H48	H	0.665264	0.175149	0.160929
H49	H	0.892942	-0.456676	-0.054819
O50	O	0.114315	0.160774	-0.132980
H51	H	0.123277	0.246255	-0.156612
H52	H	0.522010	0.171360	-0.111575
H53	H	0.896942	-0.207269	0.102665
H54	H	0.896210	-0.251766	-0.096854
H55	H	0.893668	-0.412185	0.144718
O56	O	0.991151	0.325138	-0.145932
H57	H	1.023347	0.377689	-0.183071
H58	H	0.978931	0.305156	-0.317230
O59	O	0.278309	0.164983	-0.132288
H60	H	0.237590	0.163908	-0.184559
H61	H	0.124650	0.160893	0.158898
O62	O	0.511596	0.171077	0.180159
H63	H	0.520453	0.256482	0.228275
O64	O	0.991172	0.325141	-0.581511
H65	H	0.983387	0.312450	-0.515870
H66	H	0.978945	0.305164	-0.752816
H67	H	0.810973	0.030880	-0.791925
O68	O	0.798729	0.010905	-0.626325
H69	H	0.766535	-0.041638	-0.678452
H70	H	0.810949	0.030873	-0.199339
O71	O	0.798722	0.010888	-0.370628
H72	H	0.758349	0.070792	-0.401521
O73	O	0.278326	0.164944	0.179284
H74	H	0.237609	0.163885	0.231246
