data_functionalizedCrystal
_audit_creation_method	'MofGen! by Chris Wilmer'
_symmetry_space_group_name_H-M	'P1'
_symmetry_Int_Tables_number	1
_symmetry_cell_setting	triclinic
loop_
_symmetry_equiv_pos_as_xyz
  x,y,z
_cell_length_a	16.120530
_cell_length_b	16.120484
_cell_length_c	16.120339
_cell_angle_alpha	89.785998
_cell_angle_beta	89.818868
_cell_angle_gamma	90.167327
loop_
_atom_site_label
_atom_site_type_symbol
_atom_site_fract_x
_atom_site_fract_y
_atom_site_fract_z
Zn1	Zn	1.228138	-0.365914	-0.552155
Zn2	Zn	1.227280	-0.512076	-0.420096
Zn3	Zn	1.096044	-0.366735	-0.406101
Zn4	Zn	1.082026	-0.497908	-0.551396
O5	O	1.158372	-0.435658	-0.482437
O6	O	1.344095	-0.390888	-0.540812
O7	O	1.215378	-0.499069	-0.302165
O8	O	1.119792	-0.250561	-0.419936
O9	O	1.343465	-0.498272	-0.443788
O10	O	1.216841	-0.249958	-0.527241
O11	O	1.118960	-0.392288	-0.291883
O12	O	0.978113	-0.378550	-0.419200
O13	O	1.095901	-0.474126	-0.667571
O14	O	0.967815	-0.474922	-0.525948
O15	O	1.203249	-0.377151	-0.668128
O16	O	1.201786	-0.626261	-0.443052
O17	O	1.095069	-0.615853	-0.539518
C18	C	0.942868	-0.425289	-0.470974
C19	C	0.850673	-0.420871	-0.466090
C20	C	0.681870	-0.412787	-0.457180
C21	C	0.635708	-0.458587	-0.507757
C22	C	0.541781	-0.454089	-0.502800
C23	C	0.775806	-0.417284	-0.462137
C24	C	1.146835	-0.651152	-0.492741
C25	C	1.141974	-0.743343	-0.497181
C26	C	1.133103	-0.912137	-0.505304
C27	C	1.183789	-0.958346	-0.459592
C28	C	1.178853	-1.052268	-0.464112
C29	C	1.138038	-0.818205	-0.500785
C30	C	1.374717	-0.446069	-0.493946
C31	C	1.466911	-0.450505	-0.498850
C32	C	1.148107	-0.423966	-0.698788
C33	C	1.143733	-0.418984	-0.790984
C34	C	1.169976	-0.219324	-0.472112
C35	C	1.174920	-0.127135	-0.467713
C36	C	1.168648	-0.447247	-0.266928
C37	C	1.173195	-0.452004	-0.174730
C38	C	1.135427	-0.410305	0.040209
C39	C	1.181499	-0.460680	-0.005927
C40	C	1.176878	-0.455851	-0.099858
C41	C	1.140047	-0.415133	0.134148
H42	H	0.666729	-0.501176	-0.554782
H43	H	1.086007	-0.943113	-0.547830
C44	C	0.639964	-0.355258	-0.393654
N45	N	0.608391	-0.311931	-0.345804
H46	H	1.092514	-0.363555	0.009166
H47	H	1.230888	-0.927368	-0.417061
H48	H	1.224414	-0.507435	0.025118
