data_functionalizedCrystal
_audit_creation_method	'MofGen! by Chris Wilmer'
_symmetry_space_group_name_H-M	'P1'
_symmetry_Int_Tables_number	1
_symmetry_cell_setting	triclinic
loop_
_symmetry_equiv_pos_as_xyz
  x,y,z
_cell_length_a	6.817900
_cell_length_b	17.982959
_cell_length_c	10.943624
_cell_angle_alpha	94.170339
_cell_angle_beta	108.838799
_cell_angle_gamma	102.451857
loop_
_atom_site_label
_atom_site_type_symbol
_atom_site_fract_x
_atom_site_fract_y
_atom_site_fract_z
V1	V	-4.083161	-0.105393	-0.403090
O2	O	-4.074764	0.005085	-0.394862
O3	O	-4.029326	-0.208995	-0.400867
O4	O	-4.061624	-0.103762	-0.578648
O5	O	-4.042243	-0.100876	-0.215850
V6	V	-4.564012	-0.092179	-0.380630
O7	O	-4.350280	-0.134377	-0.452359
O8	O	-4.747091	-0.063195	-0.331362
O9	O	-4.394641	0.011424	-0.382853
O10	O	-4.689806	-0.202657	-0.388858
O11	O	-4.722327	-0.096695	-0.567870
O12	O	-4.362343	-0.093809	-0.205072
C13	C	-3.872136	-0.234252	-0.394646
C14	C	-3.909586	-0.318949	-0.393998
C15	C	-4.110085	-0.362619	-0.400154
C16	C	-4.145265	-0.442201	-0.399553
C17	C	-3.979938	-0.478110	-0.392787
C18	C	-3.779424	-0.434434	-0.386635
C19	C	-3.744252	-0.354854	-0.387245
C20	C	-3.921268	-0.755370	-0.384176
C21	C	-3.956456	-0.834955	-0.383562
C22	C	-4.322281	-0.842717	-0.396483
C23	C	-4.287109	-0.763137	-0.397093
C24	C	-4.086603	-0.719468	-0.390948
C25	C	-4.048460	-0.633177	-0.391602
C26	C	-4.018073	-0.564399	-0.392124
C27	C	-3.913333	-0.100016	-0.621422
C28	C	-3.976972	-0.099368	-0.764945
C29	C	-3.823139	-0.095009	-0.842070
C30	C	-3.992647	-0.159712	-0.948391
C31	C	-3.920881	-0.033519	-0.914359
C32	C	-4.145672	-0.164132	-0.869390
C33	C	-4.073843	-0.037882	-0.835334
C34	C	-4.243482	-0.102603	-0.941625
C35	C	-4.215172	0.036676	-0.389071
C36	C	-4.156962	0.121372	-0.389727
C37	C	-4.173975	-0.097559	-0.162292
C38	C	-4.089575	-0.098202	-0.018767
H39	H	-3.758005	-0.719823	-0.379164
O40	O	-3.952667	-0.221239	-1.006992
C41	C	-4.023901	-0.359588	-1.049439
C42	C	-4.069344	-0.289982	-0.982991
H43	H	-4.118243	-0.415184	-1.030082
H44	H	-3.845347	-0.356348	-1.008302
H45	H	-4.074581	-0.358758	-1.159217
H46	H	-4.018793	-0.290767	-0.873209
H47	H	-4.247902	-0.293248	-1.024232
H48	H	-3.644819	-0.463678	-0.381134
H49	H	-4.485548	-0.878282	-0.401489
H50	H	-3.644897	-0.091885	-0.798606
H51	H	-3.821819	-0.864190	-0.378061
H52	H	-3.826463	0.021668	-0.934839
O53	O	-4.270609	-0.327672	-0.406894
C54	C	-4.498227	-0.252712	-0.527548
C55	C	-4.316375	-0.292236	-0.520055
H56	H	-4.535315	-0.224066	-0.619047
H57	H	-4.446598	-0.207256	-0.437403
H58	H	-4.647511	-0.297608	-0.531782
H59	H	-4.167023	-0.247397	-0.515864
H60	H	-4.368181	-0.337706	-0.610199
O61	O	-4.339846	-0.484677	-0.405321
C62	C	-4.536940	-0.568629	-0.299605
C63	C	-4.316433	-0.520577	-0.292936
H64	H	-4.518092	-0.597654	-0.208740
H65	H	-4.606995	-0.614481	-0.390391
H66	H	-4.649015	-0.529273	-0.304586
H67	H	-4.204196	-0.559871	-0.287905
H68	H	-4.246553	-0.474717	-0.202164
H69	H	-4.107423	0.013626	-0.786087
O70	O	-4.456131	-0.106310	-0.993266
C71	C	-4.725191	-0.044416	-1.109803
C72	C	-4.484304	-0.040108	-1.051348
H73	H	-4.748049	0.009094	-1.156801
H74	H	-4.797164	-0.047558	-1.029078
H75	H	-4.808709	-0.098009	-1.186891
H76	H	-4.400606	0.013481	-0.974276
H77	H	-4.412493	-0.037007	-1.132146
O78	O	-3.549333	-0.312441	-0.381027
C79	C	-3.170963	-0.271152	-0.257784
C80	C	-3.391584	-0.319200	-0.264638
H81	H	-3.043357	-0.276613	-0.163705
H82	H	-3.174059	-0.208088	-0.259298
H83	H	-3.132130	-0.293230	-0.345339
H84	H	-3.430553	-0.297189	-0.177102
H85	H	-3.388374	-0.382256	-0.263188
H86	H	-4.421735	-0.733904	-0.402596
O87	O	-4.258649	-0.230011	-0.845288
C88	C	-4.607168	-0.308868	-0.869988
C89	C	-4.479498	-0.234226	-0.897348
H90	H	-4.785750	-0.312307	-0.912089
H91	H	-4.557493	-0.308863	-0.760022
H92	H	-4.572761	-0.360723	-0.917680
H93	H	-4.513841	-0.182330	-0.849737
H94	H	-4.529192	-0.234298	-1.007329
