data_functionalizedCrystal
_audit_creation_method	'MofGen! by Chris Wilmer'
_symmetry_space_group_name_H-M	'P1'
_symmetry_Int_Tables_number	1
_symmetry_cell_setting	triclinic
loop_
_symmetry_equiv_pos_as_xyz
  x,y,z
_cell_length_a	6.817900
_cell_length_b	15.300992
_cell_length_c	19.551833
_cell_angle_alpha	95.690861
_cell_angle_beta	101.663477
_cell_angle_gamma	104.175078
loop_
_atom_site_label
_atom_site_type_symbol
_atom_site_fract_x
_atom_site_fract_y
_atom_site_fract_z
V1	V	-4.009808	-0.125704	-0.218070
O2	O	-3.994104	0.005068	-0.213702
O3	O	-3.964845	-0.248315	-0.216787
O4	O	-3.952460	-0.124198	-0.313083
O5	O	-4.006575	-0.119909	-0.116740
V6	V	-4.494150	-0.110012	-0.205925
O7	O	-4.269270	-0.160127	-0.244712
O8	O	-4.684885	-0.075590	-0.179283
O9	O	-4.315906	0.012599	-0.207208
O10	O	-4.627251	-0.240784	-0.210292
O11	O	-4.614779	-0.115808	-0.307255
O12	O	-4.328291	-0.111519	-0.110912
C13	C	-3.810972	-0.278192	-0.213400
C14	C	-3.855437	-0.378430	-0.212985
C15	C	-3.841714	-0.412367	-0.148780
C16	C	-3.883513	-0.506553	-0.148391
C17	C	-3.939020	-0.566800	-0.212208
C18	C	-3.952749	-0.532857	-0.276418
C19	C	-3.910965	-0.438673	-0.276806
C20	C	-4.039834	-0.729165	-0.275605
C21	C	-4.081618	-0.823355	-0.275218
C22	C	-4.012382	-0.797044	-0.147191
C23	C	-3.970597	-0.702861	-0.147578
C24	C	-3.984326	-0.668924	-0.211788
C25	C	-3.795172	-0.119866	-0.336235
C26	C	-3.829590	-0.119446	-0.413909
C27	C	-4.027660	-0.123774	-0.453964
C28	C	-4.060000	-0.123379	-0.526948
C29	C	-3.894267	-0.118673	-0.559876
C30	C	-3.696167	-0.114339	-0.519812
C31	C	-3.663828	-0.114725	-0.446828
C32	C	-3.832839	-0.167702	-0.679271
C33	C	-3.865188	-0.167322	-0.752254
C34	C	-3.994001	-0.117478	-0.784981
C35	C	-4.090501	-0.068027	-0.744719
C36	C	-4.058163	-0.068413	-0.671735
C37	C	-3.929313	-0.118254	-0.639014
C38	C	-4.227150	-0.121377	-0.904173
C39	C	-4.259480	-0.120976	-0.977158
C40	C	-3.895645	-0.111945	-0.970021
C41	C	-3.863316	-0.112337	-0.897037
C42	C	-4.029078	-0.117058	-0.864118
C43	C	-4.133122	0.042470	-0.210592
C44	C	-4.067895	0.142708	-0.211013
C45	C	-4.148922	-0.115853	-0.087756
C46	C	-4.093742	-0.116269	-0.010081
H47	H	-3.796500	-0.363319	-0.096812
H48	H	-3.872340	-0.534179	-0.096110
N49	N	-3.910620	-0.637875	-0.078748
H50	H	-3.908237	-0.673662	-0.038011
H51	H	-4.015441	-0.601334	-0.078476
H52	H	-4.195397	-0.027442	-0.771363
N53	N	-3.517404	-0.109257	-0.555321
H54	H	-3.567945	-0.109672	-0.607635
H55	H	-3.460558	-0.163539	-0.547883
H56	H	-3.922163	-0.411045	-0.329089
N57	N	-4.206433	-0.128857	-0.418458
H58	H	-4.336819	-0.131537	-0.454911
H59	H	-4.172687	-0.073023	-0.381456
N60	N	-3.450189	-0.110070	-0.403625
H61	H	-3.454855	-0.111032	-0.352395
H62	H	-3.348149	-0.051841	-0.407943
H63	H	-4.001197	-0.824679	-0.094908
H64	H	-4.126811	-0.872406	-0.327183
N65	N	-4.054652	-0.692559	-0.344859
H66	H	-4.096149	-0.745014	-0.385228
H67	H	-3.915107	-0.650922	-0.345431
N68	N	-3.716943	-0.106908	-1.005552
H69	H	-3.660087	-0.161201	-0.998169
H70	H	-3.603615	-0.048792	-0.984417
H71	H	-3.997961	-0.581918	-0.328379
N72	N	-4.273654	-0.128061	-0.570161
H73	H	-4.268984	-0.127102	-0.621391
H74	H	-4.319211	-0.073917	-0.552089
N75	N	-4.162207	-0.015076	-0.628303
H76	H	-4.318243	-0.038314	-0.646180
H77	H	-4.115761	0.051700	-0.632541
N78	N	-4.405917	-0.126465	-0.868661
H79	H	-4.536304	-0.129140	-0.905112
H80	H	-4.372172	-0.070637	-0.831654
N81	N	-4.473135	-0.125645	-1.020355
H82	H	-4.522908	-0.181870	-1.057675
H83	H	-4.466274	-0.069458	-1.043866
H84	H	-3.702032	-0.108822	-0.864425
N85	N	-3.761123	-0.220659	-0.795678
H86	H	-3.674593	-0.252285	-0.763871
H87	H	-3.668485	-0.177641	-0.819296
H88	H	-3.727923	-0.208285	-0.652630
