data_functionalizedCrystal
_audit_creation_method	'MofGen! by Chris Wilmer'
_symmetry_space_group_name_H-M	'P1'
_symmetry_Int_Tables_number	1
_symmetry_cell_setting	triclinic
loop_
_symmetry_equiv_pos_as_xyz
  x,y,z
_cell_length_a	13.032831
_cell_length_b	18.101396
_cell_length_c	13.032268
_cell_angle_alpha	97.146132
_cell_angle_beta	89.113023
_cell_angle_gamma	97.158357
loop_
_atom_site_label
_atom_site_type_symbol
_atom_site_fract_x
_atom_site_fract_y
_atom_site_fract_z
Zn1	Zn	1.498248	0.500110	0.780795
Zn2	Zn	1.831581	0.833443	1.114128
Zn3	Zn	2.164914	1.166777	1.447462
Zn4	Zn	1.519939	0.610443	0.608806
Zn5	Zn	1.853272	0.943776	0.942140
Zn6	Zn	2.186605	1.277109	1.275473
Zn7	Zn	1.348120	0.469175	0.587038
Zn8	Zn	1.681454	0.802508	0.920372
Zn9	Zn	2.014787	1.135841	1.253705
Zn10	Zn	1.326189	0.606439	0.758932
Zn11	Zn	1.659522	0.939772	1.092265
Zn12	Zn	1.992855	1.273106	1.425598
O13	O	1.423124	0.546542	0.683893
O14	O	1.756457	0.879875	1.017226
O15	O	2.089791	1.213208	1.350560
O16	O	1.645039	0.529368	0.776240
O17	O	1.978372	0.862701	1.109573
O18	O	2.311705	1.196035	1.442907
O19	O	1.515403	0.580432	0.462003
O20	O	1.848736	0.913766	0.795336
O21	O	2.182070	1.247099	1.128670
O22	O	1.368136	0.369658	0.612781
O23	O	1.701469	0.702991	0.946114
O24	O	2.034802	1.036325	1.279447
O25	O	1.660975	0.610429	0.649881
O26	O	1.994309	0.943762	0.983214
O27	O	2.327642	1.277096	1.316547
O28	O	1.478434	0.392386	0.755133
O29	O	1.811767	0.725719	1.088466
O30	O	2.145100	1.059053	1.421799
O31	O	1.389169	0.476643	0.446010
O32	O	1.722502	0.809977	0.779344
O33	O	2.055835	1.143310	1.112677
O34	O	1.201297	0.472761	0.591581
O35	O	1.534631	0.806094	0.924914
O36	O	1.867964	1.139427	1.258247
O37	O	1.330756	0.603605	0.905748
O38	O	1.664090	0.936938	1.239081
O39	O	1.997423	1.270272	1.572414
O40	O	1.185184	0.573608	0.717870
O41	O	1.518518	0.906942	1.051203
O42	O	1.851851	1.240275	1.384537
O43	O	1.457167	0.525486	0.921811
O44	O	1.790501	0.858819	1.255144
O45	O	2.123834	1.192152	1.588477
O46	O	1.494137	0.713532	0.628681
O47	O	1.827470	1.046865	0.962014
O48	O	2.160803	1.380199	1.295347
O49	O	1.351790	0.710590	0.738977
O50	O	1.685123	1.043924	1.072311
O51	O	2.018456	1.377257	1.405644
C52	C	1.155925	0.519394	0.649991
C53	C	1.489259	0.852727	0.983325
C54	C	1.822592	1.186060	1.316658
C55	C	1.041614	0.507800	0.635513
C56	C	1.374947	0.841133	0.968846
C57	C	1.708280	1.174466	1.302179
C58	C	0.982717	0.552593	0.691449
C59	C	1.316050	0.885926	1.024783
C60	C	1.649383	1.219259	1.358116
C61	C	0.864569	0.540611	0.676486
C62	C	1.197903	0.873944	1.009820
C63	C	1.531236	1.207277	1.343153
C64	C	1.422962	0.738933	0.683845
C65	C	1.756295	1.072267	1.017178
C66	C	2.089629	1.405600	1.350511
C67	C	1.422983	0.821251	0.683870
C68	C	1.756316	1.154585	1.017204
C69	C	2.089649	1.487918	1.350537
C70	C	1.423158	1.120366	0.683953
C71	C	1.756491	1.453699	1.017287
C72	C	2.089824	1.787032	1.350620
C73	C	1.333760	1.087255	0.753570
C74	C	1.667094	1.420588	1.086903
C75	C	2.000427	1.753922	1.420236
C76	C	1.333428	1.001580	0.753273
C77	C	1.666761	1.334914	1.086606
C78	C	2.000095	1.668247	1.419940
C79	C	1.423071	0.971972	0.683913
C80	C	1.756404	1.305305	1.017246
C81	C	2.089737	1.638638	1.350580
C82	C	1.407497	0.991635	0.571808
C83	C	1.740831	1.324969	0.905142
C84	C	2.074164	1.658302	1.238475
C85	C	1.406913	1.077265	0.572220
C86	C	1.740247	1.410598	0.905553
C87	C	2.073580	1.743932	1.238887
C88	C	1.528428	1.101936	0.725510
C89	C	1.861761	1.435269	1.058843
C90	C	2.195095	1.768603	1.392176
C91	C	1.527499	1.016408	0.727806
C92	C	1.860832	1.349741	1.061139
C93	C	2.194165	1.683074	1.394473
C94	C	1.423024	0.888105	0.683884
C95	C	1.756358	1.221439	1.017217
C96	C	2.089691	1.554772	1.350550
C97	C	1.423203	1.204231	0.683975
C98	C	1.756536	1.537564	1.017308
C99	C	2.089869	1.870898	1.350642
C100	C	1.691366	0.573796	0.717927
C101	C	2.024699	0.907129	1.051261
C102	C	2.358032	1.240463	1.384594
C103	C	1.805674	0.585410	0.732431
C104	C	2.139008	0.918743	1.065764
C105	C	2.472341	1.252077	1.399097
C106	C	1.389096	0.567549	0.952138
C107	C	1.722429	0.900883	1.285472
C108	C	2.055763	1.234216	1.618805
C109	C	1.374595	0.576502	1.066449
C110	C	1.707929	0.909835	1.399782
C111	C	2.041262	1.243168	1.733115
C112	C	1.423275	1.353400	0.683967
C113	C	1.756608	1.686733	1.017300
C114	C	2.089942	2.020066	1.350633
C115	C	1.423246	1.271086	0.683996
C116	C	1.756579	1.604419	1.017330
C117	C	2.089913	1.937752	1.350663
C118	C	1.457079	0.525568	0.416698
C119	C	1.790412	0.858901	0.750032
C120	C	2.123745	1.192235	1.083365
C121	C	1.471779	0.516427	0.302414
C122	C	1.805112	0.849761	0.635747
C123	C	2.138445	1.183094	0.969081
C124	C	1.430676	0.541841	1.125359
C125	C	1.764009	0.875174	1.458693
C126	C	2.097343	1.208508	1.792026
C127	C	1.415690	0.551093	1.243505
C128	C	1.749023	0.884426	1.576838
C129	C	2.082357	1.217759	1.910172
H130	H	1.004569	0.460577	0.576550
H131	H	1.337902	0.793911	0.909883
H132	H	1.671235	1.127244	1.243216
Cl133	Cl	1.505808	0.961565	0.488607
Cl134	Cl	1.839141	1.294898	0.821940
Cl135	Cl	2.172475	1.628231	1.155273
Cl136	Cl	1.212536	0.955173	0.709100
Cl137	Cl	1.545869	1.288506	1.042433
Cl138	Cl	1.879203	1.621840	1.375766
H139	H	1.530885	0.479896	1.265388
H140	H	1.864218	0.813230	1.598722
H141	H	2.197551	1.146563	1.932055
Cl142	Cl	1.283329	0.632889	1.123612
Cl143	Cl	1.616663	0.966222	1.456945
Cl144	Cl	1.949996	1.299556	1.790278
H145	H	1.596529	0.997087	0.681894
H146	H	1.929862	1.330421	1.015228
H147	H	2.263195	1.663754	1.348561
Cl148	Cl	1.039901	0.625502	0.782489
Cl149	Cl	1.373235	0.958835	1.115822
Cl150	Cl	1.706568	1.292169	1.449155
Cl151	Cl	0.807389	0.467697	0.585444
Cl152	Cl	1.140722	0.801031	0.918777
Cl153	Cl	1.474056	1.134364	1.252110
H154	H	1.356572	0.587614	1.280531
H155	H	1.689905	0.920947	1.613864
H156	H	2.023239	1.254280	1.947198
H157	H	1.341687	1.115977	0.836500
H158	H	1.675021	1.449310	1.169834
H159	H	2.008354	1.782644	1.503167
H160	H	0.842712	0.632629	0.791408
H161	H	1.176045	0.965963	1.124742
H162	H	1.509379	1.299296	1.458075
H163	H	1.331858	0.960382	0.537893
H164	H	1.665191	1.293715	0.871226
H165	H	1.998524	1.627049	1.204559
H166	H	1.341576	0.988689	0.835967
H167	H	1.674909	1.322022	1.169300
H168	H	2.008243	1.655356	1.502633
H169	H	1.330371	1.087386	0.538619
H170	H	1.663705	1.420720	0.871952
H171	H	1.997038	1.754053	1.205286
Cl172	Cl	1.504222	1.110473	0.488254
Cl173	Cl	1.837555	1.443806	0.821587
Cl174	Cl	2.170888	1.777139	1.154920
Cl175	Cl	1.213572	1.105834	0.709869
Cl176	Cl	1.546905	1.439167	1.043202
Cl177	Cl	1.880239	1.772501	1.376535
H178	H	1.545304	1.132298	0.806588
H179	H	1.878637	1.465632	1.139922
H180	H	2.211971	1.798965	1.473255
H181	H	1.539492	1.004553	0.810376
H182	H	1.872825	1.337886	1.143710
H183	H	2.206159	1.671220	1.477043
H184	H	1.489779	0.505314	1.088328
H185	H	1.823113	0.838648	1.421661
H186	H	2.156446	1.171981	1.754994
Cl187	Cl	1.631002	1.135444	0.647504
Cl188	Cl	1.964336	1.468777	0.980837
Cl189	Cl	2.297669	1.802111	1.314170
