data_functionalizedCrystal
_audit_creation_method	'MofGen! by Chris Wilmer'
_symmetry_space_group_name_H-M	'P1'
_symmetry_Int_Tables_number	1
_symmetry_cell_setting	triclinic
loop_
_symmetry_equiv_pos_as_xyz
  x,y,z
_cell_length_a	18.100771
_cell_length_b	18.101398
_cell_length_c	16.625539
_cell_angle_alpha	89.984069
_cell_angle_beta	89.716699
_cell_angle_gamma	89.690946
loop_
_atom_site_label
_atom_site_type_symbol
_atom_site_fract_x
_atom_site_fract_y
_atom_site_fract_z
Zn1	Zn	0.294883	1.130693	-0.457555
Zn2	Zn	0.544883	1.380693	-0.207555
Zn3	Zn	0.794883	1.630693	0.042445
Zn4	Zn	1.044883	1.880693	0.292445
Zn5	Zn	0.418739	1.129981	-0.323456
Zn6	Zn	0.668739	1.379981	-0.073456
Zn7	Zn	0.918739	1.629981	0.176544
Zn8	Zn	1.168739	1.879981	0.426544
Zn9	Zn	0.294905	1.006848	-0.322747
Zn10	Zn	0.544905	1.256848	-0.072747
Zn11	Zn	0.794905	1.506848	0.177253
Zn12	Zn	1.044905	1.756848	0.427253
Zn13	Zn	0.418691	1.006198	-0.458256
Zn14	Zn	0.668691	1.256198	-0.208256
Zn15	Zn	0.918691	1.506198	0.041744
Zn16	Zn	1.168691	1.756198	0.291744
O17	O	0.356804	1.068430	-0.390503
O18	O	0.606804	1.318430	-0.140503
O19	O	0.856804	1.568430	0.109497
O20	O	1.106804	1.818430	0.359497
O21	O	0.311324	1.234231	-0.439770
O22	O	0.561324	1.484231	-0.189770
O23	O	0.811324	1.734231	0.060230
O24	O	1.061324	1.984231	0.310230
O25	O	0.402342	1.113621	-0.210529
O26	O	0.652342	1.363621	0.039471
O27	O	0.902342	1.613621	0.289471
O28	O	1.152342	1.863621	0.539471
O29	O	0.191263	1.023847	-0.340039
O30	O	0.441263	1.273847	-0.090039
O31	O	0.691263	1.523847	0.159961
O32	O	0.941263	1.773847	0.409961
O33	O	0.402321	1.233708	-0.341247
O34	O	0.652321	1.483708	-0.091247
O35	O	0.902321	1.733708	0.158753
O36	O	1.152321	1.983708	0.408753
O37	O	0.191247	1.114835	-0.439083
O38	O	0.441247	1.364835	-0.189083
O39	O	0.691247	1.614835	0.060917
O40	O	0.941247	1.864835	0.310917
O41	O	0.311361	1.023156	-0.210008
O42	O	0.561361	1.273156	0.039992
O43	O	0.811361	1.523156	0.289992
O44	O	1.061361	1.773156	0.539992
O45	O	0.311314	0.903129	-0.340719
O46	O	0.561314	1.153129	-0.090719
O47	O	0.811314	1.403129	0.159281
O48	O	1.061314	1.653129	0.409281
O49	O	0.402238	1.022739	-0.570995
O50	O	0.652238	1.272739	-0.320995
O51	O	0.902238	1.522739	-0.070995
O52	O	1.152238	1.772739	0.179005
O53	O	0.402259	0.902652	-0.440277
O54	O	0.652259	1.152652	-0.190277
O55	O	0.902259	1.402652	0.059723
O56	O	1.152259	1.652652	0.309723
O57	O	0.311277	1.114205	-0.570480
O58	O	0.561277	1.364205	-0.320480
O59	O	0.811277	1.614205	-0.070480
O60	O	1.061277	1.864205	0.179520
O61	O	0.522372	1.112991	-0.341927
O62	O	0.772372	1.362991	-0.091927
O63	O	1.022372	1.612991	0.158073
O64	O	1.272372	1.862991	0.408073
O65	O	0.522336	1.022048	-0.440964
O66	O	0.772336	1.272048	-0.190964
O67	O	1.022336	1.522048	0.059036
O68	O	1.272336	1.772048	0.309036
C69	C	0.356784	0.876020	-0.390498
C70	C	0.606784	1.126020	-0.140498
C71	C	0.856784	1.376020	0.109502
C72	C	1.106784	1.626020	0.359502
C73	C	0.356793	0.793706	-0.390514
C74	C	0.606793	1.043706	-0.140514
C75	C	0.856793	1.293706	0.109486
C76	C	1.106793	1.543706	0.359486
C77	C	0.163631	1.069493	-0.389404
C78	C	0.413631	1.319493	-0.139404
C79	C	0.663631	1.569493	0.110596
C80	C	0.913631	1.819493	0.360596
C81	C	0.081312	1.069946	-0.388935
C82	C	0.331312	1.319946	-0.138935
C83	C	0.581312	1.569946	0.111065
C84	C	0.831312	1.819946	0.361065
C85	C	0.356807	0.642997	-0.390513
C86	C	0.606807	0.892997	-0.140513
C87	C	0.856807	1.142997	0.109487
C88	C	1.106807	1.392997	0.359487
C89	C	0.414115	0.611367	-0.453057
C90	C	0.664115	0.861367	-0.203057
C91	C	0.914115	1.111367	0.046943
C92	C	1.164115	1.361367	0.296943
C93	C	0.414347	0.525748	-0.452874
C94	C	0.664347	0.775748	-0.202874
C95	C	0.914347	1.025748	0.047126
C96	C	1.164347	1.275748	0.297126
C97	C	0.356821	0.494614	-0.390513
C98	C	0.606821	0.744614	-0.140513
C99	C	0.856821	0.994614	0.109487
C100	C	1.106821	1.244614	0.359487
C101	C	0.377650	0.525563	-0.305559
C102	C	0.627650	0.775563	-0.055559
C103	C	0.877650	1.025563	0.194441
C104	C	1.127650	1.275563	0.444441
C105	C	0.378058	0.611206	-0.305921
C106	C	0.628058	0.861206	-0.055921
C107	C	0.878058	1.111206	0.194079
C108	C	1.128058	1.361206	0.444079
C109	C	0.278527	0.611859	-0.412181
C110	C	0.528527	0.861859	-0.162181
C111	C	0.778527	1.111859	0.087819
C112	C	1.028527	1.361859	0.337819
C113	C	0.278956	0.526206	-0.414057
C114	C	0.528956	0.776206	-0.164057
C115	C	0.778956	1.026206	0.085943
C116	C	1.028956	1.276206	0.335943
C117	C	0.356827	0.410755	-0.390508
C118	C	0.606827	0.660755	-0.140508
C119	C	0.856827	0.910755	0.109492
C120	C	1.106827	1.160755	0.359492
C121	C	0.356802	0.726857	-0.390513
C122	C	0.606802	0.976857	-0.140513
C123	C	0.856802	1.226857	0.109487
C124	C	1.106802	1.476857	0.359487
C125	C	-0.217757	1.067997	-0.391052
C126	C	0.032243	1.317997	-0.141052
C127	C	0.282243	1.567997	0.108948
C128	C	0.532243	1.817997	0.358948
C129	C	-0.186440	1.125252	-0.453355
C130	C	0.063560	1.375252	-0.203355
C131	C	0.313560	1.625252	0.046645
C132	C	0.563560	1.875252	0.296645
C133	C	-0.100832	1.126035	-0.452567
C134	C	0.149168	1.376035	-0.202567
C135	C	0.399168	1.626035	0.047433
C136	C	0.649168	1.876035	0.297433
C137	C	-0.069386	1.068964	-0.390002
C138	C	0.180614	1.318964	-0.140002
C139	C	0.430614	1.568964	0.109998
C140	C	0.680614	1.818964	0.359998
C141	C	-0.101610	1.089934	-0.305263
C142	C	0.148390	1.339934	-0.055263
C143	C	0.398390	1.589934	0.194737
C144	C	0.648390	1.839934	0.444737
C145	C	-0.187249	1.089790	-0.306231
C146	C	0.062751	1.339790	-0.056231
C147	C	0.312751	1.589790	0.193769
C148	C	0.562751	1.839790	0.443769
C149	C	-0.185039	0.989838	-0.412519
C150	C	0.064961	1.239838	-0.162519
C151	C	0.314961	1.489838	0.087481
C152	C	0.564961	1.739838	0.337481
C153	C	-0.099380	0.990809	-0.413790
C154	C	0.150620	1.240809	-0.163790
C155	C	0.400620	1.490809	0.086210
C156	C	0.650620	1.740809	0.336210
C157	C	0.014468	1.069509	-0.389404
C158	C	0.264468	1.319509	-0.139404
C159	C	0.514468	1.569509	0.110596
C160	C	0.764468	1.819509	0.360596
C161	C	-0.301610	1.067454	-0.391645
C162	C	-0.051610	1.317454	-0.141645
C163	C	0.198390	1.567454	0.108355
C164	C	0.448390	1.817454	0.358355
C165	C	0.549227	1.067392	-0.391616
C166	C	0.799227	1.317392	-0.141616
C167	C	1.049227	1.567392	0.108384
C168	C	1.299227	1.817392	0.358384
C169	C	0.631546	1.067015	-0.392119
C170	C	0.881546	1.317015	-0.142119
C171	C	1.131546	1.567015	0.107881
C172	C	1.381546	1.817015	0.357881
C173	C	0.356749	1.068479	-0.600812
C174	C	0.606749	1.318479	-0.350812
C175	C	0.856749	1.568479	-0.100812
C176	C	1.106749	1.818479	0.149188
C177	C	0.356726	1.068499	-0.690433
C178	C	0.606726	1.318499	-0.440433
C179	C	0.856726	1.568499	-0.190433
C180	C	1.106726	1.818499	0.059567
C181	C	0.356825	1.261592	-0.390510
C182	C	0.606825	1.511592	-0.140510
C183	C	0.856825	1.761592	0.109490
C184	C	1.106825	2.011592	0.359490
C185	C	0.356834	1.343906	-0.390512
C186	C	0.606834	1.593906	-0.140512
C187	C	0.856834	1.843906	0.109488
C188	C	1.106834	2.093906	0.359488
C189	C	0.356643	1.068534	-1.018608
C190	C	0.606643	1.318534	-0.768608
C191	C	0.856643	1.568534	-0.518608
C192	C	1.106643	1.818534	-0.268608
C193	C	0.356668	1.068522	-0.927300
C194	C	0.606668	1.318522	-0.677300
C195	C	0.856668	1.568522	-0.427300
C196	C	1.106668	1.818522	-0.177300
C197	C	0.356685	1.068517	-0.854524
C198	C	0.606685	1.318517	-0.604524
C199	C	0.856685	1.568517	-0.354524
C200	C	1.106685	1.818517	-0.104524
C201	C	0.356709	1.068504	-0.763209
C202	C	0.606709	1.318504	-0.513209
C203	C	0.856709	1.568504	-0.263209
C204	C	1.106709	1.818504	-0.013209
C205	C	0.356806	1.068425	-0.181013
C206	C	0.606806	1.318425	0.068987
C207	C	0.856806	1.568425	0.318987
C208	C	1.106806	1.818425	0.568987
C209	C	0.356621	1.068549	-0.091391
C210	C	0.606621	1.318549	0.158609
C211	C	0.856621	1.568549	0.408609
C212	C	1.106621	1.818549	0.658609
H213	H	0.401354	0.504818	-0.515870
H214	H	0.651354	0.754818	-0.265870
H215	H	0.901354	1.004818	-0.015870
H216	H	1.151354	1.254818	0.234130
H217	H	-0.077903	0.946167	-0.371418
H218	H	0.172097	1.196167	-0.121418
H219	H	0.422097	1.446167	0.128582
H220	H	0.672097	1.696167	0.378582
H221	H	-0.081182	1.184229	-0.438064
H222	H	0.168818	1.434229	-0.188064
H223	H	0.418818	1.684229	0.061936
H224	H	0.668818	1.934229	0.311936
F225	F	0.222724	0.638630	-0.352637
F226	F	0.472724	0.888630	-0.102637
F227	F	0.722724	1.138630	0.147363
F228	F	0.972724	1.388630	0.397363
H229	H	0.434237	0.503807	-0.286870
H230	H	0.684237	0.753807	-0.036870
H231	H	0.934237	1.003807	0.213130
H232	H	1.184237	1.253807	0.463130
F233	F	-0.215658	1.200528	-0.435027
F234	F	0.034342	1.450528	-0.185027
F235	F	0.284342	1.700528	0.064973
F236	F	0.534342	1.950528	0.314973
H237	H	-0.208094	1.146943	-0.287989
H238	H	0.041906	1.396943	-0.037989
H239	H	0.291906	1.646943	0.212011
H240	H	0.541906	1.896943	0.462011
H241	H	-0.206212	1.112019	-0.516699
H242	H	0.043788	1.362019	-0.266699
H243	H	0.293788	1.612019	-0.016699
H244	H	0.543788	1.862019	0.233301
F245	F	-0.071722	0.970111	-0.495323
F246	F	0.178278	1.220111	-0.245323
F247	F	0.428278	1.470111	0.004677
F248	F	0.678278	1.720111	0.254677
H249	H	0.471791	0.632573	-0.438893
H250	H	0.721791	0.882573	-0.188893
H251	H	0.971791	1.132573	0.061107
H252	H	1.221791	1.382573	0.311107
F253	F	-0.214393	1.037671	-0.243450
F254	F	0.035607	1.287671	0.006550
F255	F	0.285607	1.537671	0.256550
F256	F	0.535607	1.787671	0.506550
F257	F	0.324766	0.499227	-0.243000
F258	F	0.574766	0.749227	0.007000
F259	F	0.824766	0.999227	0.257000
F260	F	1.074766	1.249227	0.507000
H261	H	0.435269	0.630869	-0.287554
H262	H	0.685269	0.880869	-0.037554
H263	H	0.935269	1.130869	0.212446
H264	H	1.185269	1.380869	0.462446
F265	F	-0.075042	1.037475	-0.242534
F266	F	0.174958	1.287475	0.007466
F267	F	0.424958	1.537475	0.257466
F268	F	0.674958	1.787475	0.507466
F269	F	-0.074710	1.164170	-0.280611
F270	F	0.175290	1.414170	-0.030611
F271	F	0.425290	1.664170	0.219389
F272	F	0.675290	1.914170	0.469389
H273	H	0.472356	0.504942	-0.438534
H274	H	0.722356	0.754942	-0.188534
H275	H	0.972356	1.004942	0.061466
H276	H	1.222356	1.254942	0.311466
F277	F	-0.212138	0.964463	-0.492301
F278	F	0.037862	1.214463	-0.242301
F279	F	0.287862	1.464463	0.007699
F280	F	0.537862	1.714463	0.257699
H281	H	0.401273	0.632052	-0.516250
H282	H	0.651273	0.882052	-0.266250
H283	H	0.901273	1.132052	-0.016250
H284	H	1.151273	1.382052	0.233750
F285	F	0.325852	0.638570	-0.242936
F286	F	0.575852	0.888570	0.007064
F287	F	0.825852	1.138570	0.257064
F288	F	1.075852	1.388570	0.507064
H289	H	-0.205282	0.947198	-0.367124
H290	H	0.044718	1.197198	-0.117124
H291	H	0.294718	1.447198	0.132876
H292	H	0.544718	1.697198	0.382876
H293	H	0.263244	0.505992	-0.476577
H294	H	0.513244	0.755992	-0.226577
H295	H	0.763244	1.005992	0.023423
H296	H	1.013244	1.255992	0.273423
F297	F	0.253654	0.640247	-0.491757
F298	F	0.503654	0.890247	-0.241757
F299	F	0.753654	1.140247	0.008243
F300	F	1.003654	1.390247	0.258243
H301	H	0.234004	0.505044	-0.371824
H302	H	0.484004	0.755044	-0.121824
H303	H	0.734004	1.005044	0.128176
H304	H	0.984004	1.255044	0.378176
F305	F	-0.072293	1.108937	-0.534727
F306	F	0.177707	1.358937	-0.284727
F307	F	0.427707	1.608937	-0.034727
F308	F	0.677707	1.858937	0.215273
