data_functionalizedCrystal
_audit_creation_method	'MofGen! by Chris Wilmer'
_symmetry_space_group_name_H-M	'P1'
_symmetry_Int_Tables_number	1
_symmetry_cell_setting	triclinic
loop_
_symmetry_equiv_pos_as_xyz
  x,y,z
_cell_length_a	10.654550
_cell_length_b	8.559649
_cell_length_c	9.130313
_cell_angle_alpha	89.997262
_cell_angle_beta	89.999724
_cell_angle_gamma	77.131797
loop_
_atom_site_label
_atom_site_type_symbol
_atom_site_fract_x
_atom_site_fract_y
_atom_site_fract_z
O1	O	1.644682	0.224185	-0.121684
O2	O	1.276997	0.245544	-0.121710
O3	O	1.493232	0.002621	-0.121693
O4	O	1.428446	0.467107	-0.121701
O5	O	1.493220	0.002614	0.121906
O6	O	1.276984	0.245537	0.121889
O7	O	1.644669	0.224178	0.121915
Cu8	Cu	1.460826	0.234857	0.144144
Cu9	Cu	1.460840	0.234865	-0.143939
O10	O	1.428433	0.467100	0.121898
C11	C	1.230355	0.243972	0.000086
C12	C	1.091396	0.239280	0.000076
C13	C	0.997136	0.382309	0.000078
C14	C	0.866571	0.377890	0.000103
C15	C	0.924541	0.087402	0.000119
C16	C	1.055103	0.091822	0.000104
C17	C	1.498136	-0.056858	0.000104
C18	C	1.512750	-0.234076	0.000097
C19	C	1.691311	0.225750	0.000116
C20	C	1.830270	0.230442	0.000116
C21	C	1.423530	0.526579	0.000098
C22	C	1.408915	0.703797	0.000095
N23	N	1.460824	0.234850	0.346767
N24	N	1.460853	0.234859	-0.346562
C25	C	1.556598	0.127329	0.423426
C26	C	1.556610	0.127330	0.576763
C27	C	1.365070	0.342385	0.576768
C28	C	1.365054	0.342375	0.423434
H29	H	1.131856	-0.024657	0.000106
H30	H	1.634596	0.039775	0.639175
C31	C	1.264724	0.617834	0.376191
C32	C	1.259775	0.460577	0.339158
H33	H	1.199735	0.690797	0.324154
H34	H	1.251023	0.633222	0.478470
H35	H	1.346768	0.636137	0.351039
H36	H	1.177734	0.442269	0.364319
H37	H	1.273466	0.445182	0.236856
H38	H	1.026680	0.502378	0.000066
C39	C	1.206758	-0.214357	0.125302
C40	C	1.273808	-0.184990	0.000079
H41	H	1.123351	-0.145684	0.125293
H42	H	1.199186	-0.322842	0.125297
H43	H	1.252260	-0.194435	0.210242
H44	H	1.228311	-0.204924	-0.084862
H45	H	1.281375	-0.076480	0.000071
C46	C	1.138886	0.433525	0.624020
C47	C	1.259807	0.460574	0.661051
H48	H	1.073904	0.506487	0.676061
H49	H	1.125173	0.448917	0.521742
H50	H	1.135570	0.326829	0.649168
H51	H	1.263127	0.567267	0.635893
H52	H	1.273523	0.445195	0.763352
H53	H	0.789827	0.494359	0.000108
H54	H	1.612835	-0.316473	0.000116
C55	C	0.750138	-0.048358	0.000134
C56	C	0.884642	-0.074679	0.000131
H57	H	0.725512	-0.148424	0.000129
H58	H	0.716846	0.010580	0.085078
H59	H	0.716841	0.010600	-0.084820
H60	H	0.917940	-0.133626	0.085090
H61	H	0.917948	-0.133642	-0.084822
C62	C	1.745917	-0.085255	0.438829
C63	C	1.661857	0.009124	0.339153
H64	H	1.810894	-0.158240	0.386802
H65	H	1.784631	-0.018277	0.498615
H66	H	1.699234	-0.143277	0.498653
H67	H	1.708539	0.067154	0.279335
H68	H	1.623141	-0.057863	0.279341
