data_functionalizedCrystal
_audit_creation_method	'MofGen! by Chris Wilmer'
_symmetry_space_group_name_H-M	'P1'
_symmetry_Int_Tables_number	1
_symmetry_cell_setting	triclinic
loop_
_symmetry_equiv_pos_as_xyz
  x,y,z
_cell_length_a	20.875492
_cell_length_b	20.875641
_cell_length_c	20.875641
_cell_angle_alpha	89.845060
_cell_angle_beta	55.988504
_cell_angle_gamma	55.998966
loop_
_atom_site_label
_atom_site_type_symbol
_atom_site_fract_x
_atom_site_fract_y
_atom_site_fract_z
Zr1	Zr	0.702145	0.599726	-0.102511
O2	O	0.861809	0.480245	-0.222016
O3	O	0.554453	0.641888	-0.060327
O4	O	0.708131	0.627976	-0.208083
O5	O	0.699234	0.498835	0.035979
O6	O	0.699235	0.738214	-0.203405
O7	O	0.708131	0.494156	-0.074261
O8	O	0.424333	0.763099	0.060903
O9	O	0.974136	0.473950	-0.228329
O10	O	0.604128	0.735453	-0.045550
O11	O	0.604127	0.656675	0.033230
O12	O	0.785063	0.640296	-0.140734
O13	O	0.785063	0.561518	-0.061954
Zr14	Zr	0.673767	0.783006	0.080769
Zr15	Zr	0.687956	0.775543	-0.095050
Zr16	Zr	0.687956	0.607188	0.073308
Zr17	Zr	0.881294	0.589687	-0.112579
Zr18	Zr	0.494618	0.793045	0.090837
O19	O	0.821459	0.740844	0.038585
O20	O	0.841634	0.730234	-0.211407
O21	O	0.841634	0.490855	0.027976
O22	O	0.514103	0.902487	0.200274
O23	O	0.534278	0.891877	-0.049718
O24	O	0.534278	0.652498	0.189665
O25	O	0.676678	0.883897	-0.057721
O26	O	0.667781	0.754756	0.186341
O27	O	0.676677	0.644518	0.181663
O28	O	0.667781	0.888576	0.052519
O29	O	0.962858	0.613701	-0.222398
O30	O	0.413054	0.769031	0.200656
O31	O	0.401776	0.908782	0.206587
O32	O	0.413054	0.902850	0.066834
O33	O	0.962858	0.479882	-0.088576
O34	O	0.951579	0.619633	-0.082645
O35	O	0.590849	0.742436	0.118992
O36	O	0.590849	0.821214	0.040212
O37	O	0.771785	0.726057	-0.054972
O38	O	0.771784	0.647279	0.023807
C39	C	0.463868	0.703924	0.001723
C40	C	0.387815	0.708186	0.005997
C41	C	0.423792	0.643407	-0.058796
C42	C	0.352347	0.647413	-0.054810
C43	C	0.244926	0.716194	0.013974
C44	C	0.208948	0.780978	0.078771
C45	C	0.280392	0.776976	0.074780
C46	C	0.023564	0.735328	0.033067
C47	C	-0.047880	0.739325	0.037054
C48	C	0.095525	0.605759	-0.096527
C49	C	0.166964	0.601760	-0.100509
C50	C	0.130980	0.666547	-0.035715
N51	N	0.171896	0.720288	0.018052
N52	N	0.204010	0.662455	-0.039797
C53	C	0.705704	0.471446	-0.020204
C54	C	0.711728	0.396807	-0.023372
C55	C	0.620114	0.411409	0.024821
C56	C	0.625780	0.341275	0.021843
C57	C	0.723061	0.256538	-0.029334
C58	C	0.814682	0.241937	-0.077528
C59	C	0.809014	0.312071	-0.074544
C60	C	0.750138	0.041458	-0.043581
C61	C	0.755798	-0.028677	-0.046563
C62	C	0.566895	0.070666	0.052809
C63	C	0.561237	0.140797	0.055784
C64	C	0.652857	0.126189	0.007594
N65	N	0.728855	0.184848	-0.032382
N66	N	0.647062	0.197879	0.010647
C67	C	0.912044	0.678808	-0.023465
C68	C	0.988097	0.674546	-0.027739
C69	C	0.705704	0.682032	-0.230794
C70	C	0.711728	0.678864	-0.305434
C71	C	0.670208	0.911286	-0.001538
C72	C	0.664184	0.985925	0.001630
C73	C	0.620114	0.727047	-0.290817
C74	C	0.625780	0.724063	-0.360953
C75	C	0.723062	0.672901	-0.445704
C76	C	0.814683	0.624712	-0.460320
C77	C	0.809016	0.627692	-0.390186
C78	C	0.750138	0.658659	-0.660789
C79	C	0.755798	0.655685	-0.730925
C80	C	0.566895	0.755035	-0.631552
C81	C	0.561236	0.758014	-0.561421
C82	C	0.652858	0.709822	-0.576042
N83	N	0.728856	0.669852	-0.517395
N84	N	0.647063	0.712867	-0.504352
C85	C	0.670208	0.700700	0.209052
C86	C	0.664184	0.703868	0.283692
C87	C	0.446120	0.923844	0.011056
C88	C	0.364043	1.002745	0.018497
C89	C	0.446120	0.713258	0.221646
C90	C	0.364042	0.720688	0.300560
C91	C	0.428371	0.933178	0.230979
C92	C	0.340271	1.015247	0.313060
C93	C	0.947541	0.449554	-0.252721
C94	C	1.035641	0.367485	-0.334802
C95	C	0.929792	0.458888	-0.032798
C96	C	1.011869	0.379987	-0.040239
C97	C	0.929792	0.669474	-0.243388
C98	C	1.011870	0.662044	-0.322302
C99	C	0.332431	0.995031	-0.022782
C100	C	0.255322	1.069159	-0.015807
C101	C	0.209822	1.151001	0.032453
C102	C	0.241442	1.158713	0.073733
C103	C	0.318554	1.084585	0.066753
C104	C	0.318566	0.768944	0.382393
C105	C	0.241456	0.775921	0.456547
C106	C	0.209818	0.734648	0.448867
C107	C	0.255302	0.686386	0.367025
C108	C	0.332416	0.679403	0.292872
C109	C	0.298897	1.094916	0.310485
C110	C	0.216127	1.172034	0.387603
C111	C	0.174727	1.169482	0.467295
C112	C	0.216109	1.089804	0.469867
C113	C	0.298882	1.012688	0.392751
C114	C	1.077024	0.287815	-0.332228
C115	C	1.159816	0.210696	-0.409346
C116	C	1.201219	0.213248	-0.489039
C117	C	1.159833	0.292926	-0.491611
C118	C	1.077047	0.370043	-0.414494
C119	C	1.043489	0.387700	0.001032
C120	C	1.120619	0.313570	-0.005963
C121	C	1.166122	0.231728	-0.054226
C122	C	1.134499	0.224017	-0.095502
C123	C	1.057376	0.298145	-0.088512
C124	C	1.043482	0.703329	-0.314594
C125	C	1.120591	0.696364	-0.388734
C126	C	1.166091	0.648110	-0.470582
C127	C	1.134472	0.606825	-0.478288
C128	C	1.057359	0.613795	-0.404148
H129	H	0.124812	0.553014	-0.149280
H130	H	1.031629	0.580171	-0.410437
H131	H	0.251091	0.829725	0.127542
Br132	Br	0.159912	1.086355	0.578029
H133	H	0.540896	0.768712	-0.221812
H134	H	0.824743	0.619422	-0.672705
H135	H	0.551178	0.763299	-0.349044
Br136	Br	1.216034	0.296375	-0.599773
H137	H	0.893890	0.172938	-0.119192
H138	H	0.511258	0.587390	-0.114800
H139	H	0.147033	1.211353	0.038130
Br140	Br	0.981748	0.768822	-0.203524
Br141	Br	0.355069	1.098404	0.202342
Br142	Br	0.933352	0.292251	-0.139945
H143	H	0.482021	0.209790	0.097442
Br144	Br	0.488083	0.526406	0.094271
Br145	Br	0.429209	0.827414	-0.446404
H146	H	0.369434	0.640112	0.226243
Br147	Br	1.313573	0.108579	-0.593692
Br148	Br	1.014468	0.287662	-0.144526
H149	H	0.107328	1.232282	0.530082
Br150	Br	0.179678	1.269791	0.139229
Br151	Br	0.159982	1.280156	0.384090
Br152	Br	-0.193673	0.832677	0.130410
H153	H	0.332558	0.947821	0.394860
H154	H	0.344282	1.090879	0.100373
H155	H	1.146352	0.319866	0.027654
Br156	Br	1.020849	0.284328	-0.224085
Br157	Br	1.163490	0.752396	-0.378255
H158	H	1.006446	0.454333	0.040338
Br159	Br	1.270789	0.131133	-0.063704
H160	H	0.893892	0.583051	-0.529332
Br161	Br	0.361480	0.824971	0.392841
H162	H	0.492302	0.794269	-0.619657
H163	H	1.228881	0.642442	-0.530945
Br164	Br	0.887833	-0.143683	-0.116034
Br165	Br	1.215963	0.102574	-0.405834
Br166	Br	1.196260	0.112939	-0.160996
H167	H	1.043355	0.434911	-0.416600
H168	H	0.381650	0.594663	-0.107571
Br169	Br	0.312750	0.508404	-0.193855
Br170	Br	1.196241	0.541331	-0.589376
H171	H	0.369477	0.928398	-0.062091
H172	H	0.147025	0.740340	0.509254
Br173	Br	0.063160	0.874329	0.172118
Br174	Br	-0.025280	0.823249	0.121008
Br175	Br	0.212353	0.630377	0.356616
Br176	Br	0.501439	0.361099	0.087262
Br177	Br	0.874481	0.021625	-0.108984
Br178	Br	0.442560	0.090484	0.118210
H179	H	0.835021	0.614019	-0.799936
H180	H	0.883619	0.588453	-0.402093
H181	H	0.204430	0.815224	0.523179
Br182	Br	0.212425	1.058672	-0.071834
