data_functionalizedCrystal
_audit_creation_method	'MofGen! by Chris Wilmer'
_symmetry_space_group_name_H-M	'P1'
_symmetry_Int_Tables_number	1
_symmetry_cell_setting	triclinic
loop_
_symmetry_equiv_pos_as_xyz
  x,y,z
_cell_length_a	15.698487
_cell_length_b	20.875641
_cell_length_c	20.875625
_cell_angle_alpha	64.253531
_cell_angle_beta	92.971181
_cell_angle_gamma	57.583265
loop_
_atom_site_label
_atom_site_type_symbol
_atom_site_fract_x
_atom_site_fract_y
_atom_site_fract_z
Zr1	Zr	0.782144	0.702284	-0.058571
O2	O	0.632843	0.836132	-0.156110
O3	O	0.832230	0.568435	-0.032056
O4	O	0.816779	0.702287	-0.160994
O5	O	0.655572	0.702279	0.078389
O6	O	0.956960	0.702289	-0.160996
O7	O	0.648295	0.702281	-0.027172
O8	O	0.984599	0.462854	0.069652
O9	O	0.627933	0.941715	-0.152259
O10	O	0.952991	0.623491	-0.016658
O11	O	0.853807	0.623488	0.062122
O12	O	0.835615	0.781081	-0.089687
O13	O	0.736431	0.781078	-0.010907
Zr14	Zr	1.017324	0.702285	0.109783
Zr15	Zr	1.005717	0.702288	-0.058574
Zr16	Zr	0.793752	0.702281	0.109785
Zr17	Zr	0.774313	0.870676	-0.052429
Zr18	Zr	1.025155	0.533894	0.103641
O19	O	0.967238	0.836134	0.083268
O20	O	0.950734	0.836138	-0.156114
O21	O	0.649347	0.836128	0.083271
O22	O	1.166625	0.568437	0.207322
O23	O	1.150121	0.568441	-0.032059
O24	O	0.848734	0.568431	0.207325
O25	O	1.143896	0.702290	-0.027177
O26	O	0.982690	0.702283	0.212206
O27	O	0.842509	0.702280	0.212208
O28	O	1.151174	0.702288	0.078383
O29	O	0.805643	0.941718	-0.152261
O30	O	0.993825	0.462852	0.203473
O31	O	1.171535	0.462855	0.203471
O32	O	1.162309	0.462857	0.069650
O33	O	0.637159	0.941713	-0.018438
O34	O	0.814869	0.941716	-0.018440
O35	O	0.963853	0.623489	0.140899
O36	O	1.063038	0.623492	0.062119
O37	O	0.945662	0.781081	-0.010910
O38	O	0.846477	0.781078	0.067870
C39	C	0.909530	0.491652	0.017923
C40	C	0.912855	0.420166	0.015315
C41	C	0.862623	0.386594	0.055197
C42	C	0.865696	0.319462	0.052708
C43	C	0.919008	0.285899	0.010341
C44	C	0.969241	0.319477	-0.029545
C45	C	0.966161	0.386612	-0.027060
C46	C	0.933766	0.085118	-0.001505
C47	C	0.936845	0.017976	-0.003985
C48	C	0.833298	0.017966	0.078267
C49	C	0.830228	0.085099	0.080752
C50	C	0.880456	0.118675	0.040863
N51	N	0.922154	0.217277	0.007798
N52	N	0.877303	0.187300	0.043402
C53	C	0.620079	0.702280	0.025609
C54	C	0.525167	0.702278	0.025610
C55	C	0.351380	0.702294	0.025603
C56	C	0.448085	0.702289	0.025605
C57	C	1.179389	0.702290	0.025603
C58	C	1.274301	0.702292	0.025602
C59	C	0.885215	0.702288	-0.184982
C60	C	0.880288	0.702290	-0.256454
C61	C	0.889938	0.912917	0.033289
C62	C	0.886613	0.984404	0.035897
C63	C	0.955199	0.702292	-0.290032
C64	C	0.950572	0.702286	-0.357184
C65	C	0.871029	0.702282	-0.390759
C66	C	0.796114	0.702277	-0.357175
C67	C	0.800746	0.702277	-0.290021
C68	C	0.848898	0.702275	-0.591596
C69	C	0.844269	0.702277	-0.658756
C70	C	0.998730	0.702284	-0.658760
C71	C	1.003351	0.702290	-0.591607
C72	C	0.928440	0.702280	-0.558027
N73	N	0.866296	0.702278	-0.459400
N74	N	0.933178	0.702277	-0.489384
C75	C	0.914253	0.702281	0.236194
C76	C	0.919181	0.702280	0.307666
C77	C	1.189185	0.491657	0.017920
C78	C	1.287422	0.420172	0.015311
C79	C	0.924049	0.491649	0.228511
C80	C	0.932301	0.420161	0.297375
C81	C	1.203704	0.491654	0.228508
C82	C	1.306868	0.420168	0.297371
C83	C	0.595764	0.912916	-0.177296
C84	C	0.492600	0.984402	-0.246159
C85	C	0.610283	0.912912	0.033292
C86	C	0.512046	0.984397	0.035901
C87	C	0.875419	0.912921	-0.177299
C88	C	0.867167	0.984409	-0.246164
C89	C	1.276112	0.386602	-0.027042
C90	C	1.368406	0.319444	-0.029508
C91	C	1.472010	0.285852	0.010383
C92	C	1.483318	0.319429	0.052738
C93	C	1.391025	0.386591	0.055199
C94	C	0.993620	0.386590	0.370843
C95	C	1.001370	0.319429	0.435555
C96	C	0.947807	0.285835	0.426797
C97	C	0.886480	0.319413	0.353322
C98	C	0.878725	0.386578	0.288612
C99	C	1.407098	0.386599	0.288588
C100	C	1.504040	0.319439	0.353286
C101	C	1.500750	0.285845	0.426767
C102	C	1.400509	0.319421	0.435549
C103	C	1.303570	0.386584	0.370851
C104	C	0.392370	1.017979	-0.237376
C105	C	0.295427	1.085159	-0.302073
C106	C	0.298717	1.118757	-0.375554
C107	C	0.398958	1.085177	-0.384336
C108	C	0.495898	1.018002	-0.319639
C109	C	0.523356	1.017975	0.078247
C110	C	0.431060	1.085152	0.080695
C111	C	0.327455	1.118745	0.040802
C112	C	0.316147	1.085165	-0.001550
C113	C	0.408442	1.017994	-0.004002
C114	C	0.920744	1.017981	-0.237382
C115	C	0.913011	1.085142	-0.302081
C116	C	0.851695	1.118735	-0.375561
C117	C	0.798117	1.085157	-0.384341
C118	C	0.805856	1.017992	-0.319643
H119	H	1.007063	0.413947	-0.059536
H120	H	0.607708	0.990628	0.110739
H121	H	0.819212	0.413915	0.089697
Br122	Br	0.765140	-0.027607	0.132402
Br123	Br	0.841201	1.209890	-0.463359
Br124	Br	0.393074	0.972428	-0.061474
H125	H	0.824792	0.292130	0.085183
H126	H	0.252312	1.173440	0.042805
Br127	Br	1.597256	0.194703	0.007034
Br128	Br	0.175533	1.130764	-0.055685
H129	H	0.731351	0.702268	-0.384513
H130	H	0.440288	1.112481	0.115186
H131	H	1.011572	0.702287	-0.384523
H132	H	1.037240	0.413934	0.377988
Br133	Br	1.084605	0.273872	0.535261
Br134	Br	0.958343	0.194683	0.514628
H135	H	0.762222	0.990665	-0.326804
H136	H	1.059720	0.702291	-0.686106
H137	H	0.748193	1.112518	-0.444177
H138	H	0.842871	0.292052	0.346203
H139	H	1.567685	0.292069	0.085215
H140	H	0.739747	0.702273	-0.262682
H141	H	0.219774	1.173454	-0.428228
Br142	Br	1.111299	0.702300	-0.546043
H143	H	1.409798	0.413941	0.228762
Br144	Br	0.757891	0.130632	0.138263
H145	H	0.389671	0.990628	-0.177550
Br146	Br	1.135517	0.432178	-0.081190
H147	H	0.970674	0.990640	-0.177557
Br148	Br	0.985727	1.130702	-0.290147
H149	H	0.980262	-0.009349	-0.038486
Br150	Br	0.795503	0.432127	0.188908
H151	H	1.400249	0.413915	0.089692
Br152	Br	1.041584	0.273936	-0.087050
Br153	Br	1.001930	0.130679	-0.055642
Br154	Br	0.736303	0.702279	-0.704321
H155	H	0.401623	1.112541	-0.444171
Br156	Br	1.353033	0.273887	-0.086991
H157	H	0.577506	0.990664	-0.326800
Br158	Br	1.063150	0.702307	-0.244478
Br159	Br	1.632322	0.194695	0.514564
Br160	Br	1.640065	0.273884	0.341350
Br161	Br	1.396063	0.273820	0.535278
Br162	Br	0.747234	0.702263	-0.546028
H163	H	0.213817	1.112489	-0.294908
Br164	Br	1.167548	0.432130	0.382785
