data_functionalizedCrystal
_audit_creation_method	'MofGen! by Chris Wilmer'
_symmetry_space_group_name_H-M	'P1'
_symmetry_Int_Tables_number	1
_symmetry_cell_setting	triclinic
loop_
_symmetry_equiv_pos_as_xyz
  x,y,z
_cell_length_a	18.101398
_cell_length_b	18.101395
_cell_length_c	18.101389
_cell_angle_alpha	90.016841
_cell_angle_beta	90.024327
_cell_angle_gamma	90.026371
loop_
_atom_site_label
_atom_site_type_symbol
_atom_site_fract_x
_atom_site_fract_y
_atom_site_fract_z
Zn1	Zn	1.132121	-0.295001	0.418847
Zn2	Zn	1.632121	0.204999	0.918847
Zn3	Zn	1.132017	-0.418826	0.295009
Zn4	Zn	1.632017	0.081174	0.795009
Zn5	Zn	1.008280	-0.294993	0.295008
Zn6	Zn	1.508280	0.205007	0.795008
Zn7	Zn	1.008231	-0.418795	0.418797
Zn8	Zn	1.508231	0.081205	0.918797
O9	O	1.070162	-0.356904	0.356915
O10	O	1.570162	0.143096	0.856915
O11	O	1.235740	-0.311443	0.402440
O12	O	1.735740	0.188557	0.902440
O13	O	1.115580	-0.402410	0.191376
O14	O	1.615580	0.097590	0.691376
O15	O	1.024772	-0.191361	0.311456
O16	O	1.524772	0.308639	0.811456
O17	O	1.235664	-0.402417	0.311457
O18	O	1.735664	0.097583	0.811457
O19	O	1.115757	-0.191367	0.402440
O20	O	1.615757	0.308633	0.902440
O21	O	1.024671	-0.311430	0.191375
O22	O	1.524671	0.188570	0.691375
O23	O	0.904641	-0.311399	0.311408
O24	O	1.404641	0.188601	0.811408
O25	O	1.024688	-0.402363	0.522437
O26	O	1.524688	0.097637	1.022437
O27	O	0.904604	-0.402356	0.402355
O28	O	1.404604	0.097644	0.902355
O29	O	1.115710	-0.311412	0.522473
O30	O	1.615710	0.188588	1.022473
O31	O	1.115532	-0.522455	0.311409
O32	O	1.615532	-0.022455	0.811409
O33	O	1.024587	-0.522432	0.402356
O34	O	1.524587	-0.022432	0.902356
C35	C	0.877752	-0.356874	0.356877
C36	C	1.377752	0.143126	0.856877
C37	C	0.795437	-0.356879	0.356878
C38	C	1.295437	0.143121	0.856878
C39	C	0.496347	-0.356925	0.356940
C40	C	0.996347	0.143075	0.856940
C41	C	0.527670	-0.299412	0.299997
C42	C	1.027670	0.200588	0.799997
C43	C	0.613288	-0.299566	0.299754
C44	C	1.113288	0.200434	0.799754
C45	C	0.644729	-0.356901	0.356909
C46	C	1.144729	0.143099	0.856909
C47	C	0.613611	-0.434909	0.335587
C48	C	1.113611	0.065091	0.835587
C49	C	0.527966	-0.434590	0.335191
C50	C	1.027966	0.065410	0.835191
C51	C	0.527961	-0.337109	0.435339
C52	C	1.027961	0.162891	0.935339
C53	C	0.613612	-0.335371	0.434911
C54	C	1.113612	0.164629	0.934911
C55	C	0.728589	-0.356893	0.356893
C56	C	1.228589	0.143107	0.856893
C57	C	0.412487	-0.356939	0.356954
C58	C	0.912487	0.143061	0.856954
C59	C	1.070063	-0.549314	0.356893
C60	C	1.570063	-0.049314	0.856893
C61	C	1.070088	-0.631628	0.356909
C62	C	1.570088	-0.131628	0.856909
C63	C	1.070251	-0.930719	0.356949
C64	C	1.570251	-0.430719	0.856949
C65	C	1.013163	-0.899410	0.414312
C66	C	1.513163	-0.399410	0.914312
C67	C	1.012892	-0.813792	0.414133
C68	C	1.512892	-0.313792	0.914133
C69	C	1.070170	-0.782337	0.356930
C70	C	1.570170	-0.282337	0.856930
C71	C	1.049041	-0.813472	0.278878
C72	C	1.549041	-0.313472	0.778878
C73	C	1.048673	-0.899117	0.279221
C74	C	1.548673	-0.399117	0.779221
C75	C	1.148593	-0.899073	0.376950
C76	C	1.648593	-0.399073	0.876950
C77	C	1.148132	-0.813422	0.378661
C78	C	1.648132	-0.313422	0.878661
C79	C	1.070126	-0.698477	0.356914
C80	C	1.570126	-0.198477	0.856914
C81	C	1.070293	-1.014579	0.356959
C82	C	1.570293	-0.514579	0.856959
C83	C	1.263324	-0.356934	0.356954
C84	C	1.763324	0.143066	0.856954
C85	C	1.345638	-0.356948	0.356971
C86	C	1.845638	0.143052	0.856971
C87	C	1.070205	-0.356885	0.550077
C88	C	1.570205	0.143115	1.050077
C89	C	1.070223	-0.356877	0.632391
C90	C	1.570223	0.143123	1.132391
C91	C	1.070282	-0.163742	0.356953
C92	C	1.570282	0.336258	0.856953
C93	C	1.070333	-0.081428	0.356970
C94	C	1.570333	0.418572	0.856970
C95	C	1.070162	-0.356869	0.164505
C96	C	1.570162	0.143131	0.664505
C97	C	1.070287	-0.356668	0.082191
C98	C	1.570287	0.143332	0.582191
C99	C	1.070266	-0.356738	0.931482
C100	C	1.570266	0.143262	1.431482
C101	C	1.012801	-0.413780	0.900134
C102	C	1.512801	0.086220	1.400134
C103	C	1.012956	-0.414045	0.814516
C104	C	1.512956	0.085955	1.314516
C105	C	1.070244	-0.356807	0.783100
C106	C	1.570244	0.143193	1.283100
C107	C	1.148270	-0.377998	0.814206
C108	C	1.648270	0.122002	1.314206
C109	C	1.147949	-0.378372	0.899851
C110	C	1.647949	0.121628	1.399851
C111	C	1.050385	-0.278379	0.899905
C112	C	1.550385	0.221621	1.399905
C113	C	1.048649	-0.278832	0.814254
C114	C	1.548649	0.221168	1.314254
C115	C	1.070237	-0.356845	0.699240
C116	C	1.570237	0.143155	1.199240
C117	C	1.070279	-0.356702	1.015342
C118	C	1.570279	0.143298	1.515342
H119	H	0.635026	-0.452008	0.278892
H120	H	1.135026	0.047992	0.778892
O121	O	1.030385	-0.785924	0.490805
O122	O	1.530385	-0.285924	0.990805
H123	H	1.081251	-0.751707	0.489004
H124	H	1.581251	-0.251707	0.989004
H125	H	1.191125	-0.919319	0.335170
H126	H	1.691125	-0.419319	0.835170
H127	H	0.633975	-0.478909	0.375763
H128	H	1.133975	0.021091	0.875763
O129	O	0.501126	-0.392587	0.491547
O130	O	1.001126	0.107413	0.991547
H131	H	0.465446	-0.434076	0.463827
H132	H	0.965446	0.065924	0.963827
O133	O	0.499397	-0.263070	0.461023
O134	O	0.999397	0.236930	0.961023
H135	H	0.462344	-0.239569	0.418191
H136	H	0.962344	0.260431	0.918191
H137	H	0.635017	-0.374209	0.479611
H138	H	1.135017	0.125791	0.979611
O139	O	0.976324	-0.252814	0.928489
O140	O	1.476324	0.247186	1.428489
H141	H	0.983468	-0.200477	0.959653
H142	H	1.483468	0.299523	1.459653
O143	O	1.174107	-0.927623	0.451060
O144	O	1.674107	-0.427623	0.951060
H145	H	1.229454	-0.904515	0.463892
H146	H	1.729454	-0.404515	0.963892
H147	H	0.506120	-0.312363	0.242242
H148	H	1.006120	0.187637	0.742242
O149	O	0.972597	-0.257648	0.787312
O150	O	1.472597	0.242352	1.287312
H151	H	0.950266	-0.302461	0.751878
H152	H	1.450266	0.197539	1.251878
H153	H	0.633741	-0.312665	0.241661
H154	H	1.133741	0.187335	0.741661
H155	H	0.954768	-0.400655	0.920720
H156	H	1.454768	0.099345	1.420720
O157	O	0.936711	-0.927988	0.396979
O158	O	1.436711	-0.427988	0.896979
H159	H	0.915501	-0.959825	0.444889
H160	H	1.415501	-0.459825	0.944889
O161	O	0.640558	-0.259334	0.456219
O162	O	1.140558	0.240666	0.956219
H163	H	0.675970	-0.236964	0.411449
H164	H	1.175970	0.263036	0.911449
H165	H	1.026252	-0.919970	0.472374
H166	H	1.526252	-0.419970	0.972374
H167	H	1.164065	-0.793071	0.436103
H168	H	1.664065	-0.293071	0.936103
O169	O	1.207455	-0.785090	0.327335
O170	O	1.707455	-0.285090	0.827335
H171	H	1.182185	-0.748246	0.285347
H172	H	1.682185	-0.248246	0.785347
H173	H	1.087450	-0.234076	0.792868
H174	H	1.587450	0.265924	1.292868
H175	H	0.507954	-0.451397	0.277877
H176	H	1.007954	0.048603	0.777877
O177	O	1.030000	-0.490238	0.928681
O178	O	1.530000	0.009762	1.428681
H179	H	1.086355	-0.506467	0.910817
H180	H	1.586355	-0.006467	1.410817
H181	H	1.192236	-0.337757	0.793859
H182	H	1.692236	0.162243	1.293859
O183	O	0.936319	-0.396458	0.786657
O184	O	1.436319	0.103542	1.286657
H185	H	0.896935	-0.438728	0.807208
H186	H	1.396935	0.061272	1.307208
O187	O	1.030247	-0.491000	0.787376
O188	O	1.530247	0.009000	1.287376
H189	H	1.038553	-0.528166	0.835424
H190	H	1.538553	-0.028166	1.335424
O191	O	0.500507	-0.493265	0.387734
O192	O	1.000507	0.006735	0.887734
H193	H	0.548402	-0.521748	0.413308
H194	H	1.048402	-0.021748	0.913308
O195	O	1.170262	-0.454249	0.926333
O196	O	1.670262	0.045751	1.426333
H197	H	1.181176	-0.490330	0.877968
H198	H	1.681176	0.009670	1.377968
H199	H	0.954823	-0.793362	0.400884
H200	H	1.454823	-0.293362	0.900884
O201	O	0.972817	-0.925666	0.256787
O202	O	1.472817	-0.425666	0.756787
H203	H	0.936741	-0.877333	0.245799
H204	H	1.436741	-0.377333	0.745799
H205	H	1.192217	-0.338629	0.920590
H206	H	1.692217	0.161371	1.420590
H207	H	0.992380	-0.792080	0.261633
H208	H	1.492380	-0.292080	0.761633
H209	H	1.088449	-0.919830	0.235023
H210	H	1.588449	-0.419830	0.735023
O211	O	1.170987	-0.453070	0.785818
O212	O	1.670987	0.046930	1.285818
H213	H	1.126836	-0.475409	0.749563
H214	H	1.626836	0.024591	1.249563
H215	H	0.507099	-0.241388	0.313215
H216	H	1.007099	0.258612	0.813215
O217	O	0.641168	-0.222939	0.317433
O218	O	1.141168	0.277061	0.817433
H219	H	0.593479	-0.185437	0.326232
H220	H	1.093479	0.314563	0.826232
O221	O	1.102379	-0.786489	0.220711
O222	O	1.602379	-0.286489	0.720711
H223	H	1.100975	-0.725225	0.218592
H224	H	1.600975	-0.225225	0.718592
O225	O	1.105826	-0.222083	0.926759
O226	O	1.605826	0.277917	1.426759
H227	H	1.091421	-0.166916	0.904226
H228	H	1.591421	0.333084	1.404226
