data_functionalizedCrystal
_audit_creation_method	'MofGen! by Chris Wilmer'
_symmetry_space_group_name_H-M	'P1'
_symmetry_Int_Tables_number	1
_symmetry_cell_setting	triclinic
loop_
_symmetry_equiv_pos_as_xyz
  x,y,z
_cell_length_a	15.944499
_cell_length_b	14.421503
_cell_length_c	15.944551
_cell_angle_alpha	90.003340
_cell_angle_beta	96.511826
_cell_angle_gamma	90.010221
loop_
_atom_site_label
_atom_site_type_symbol
_atom_site_fract_x
_atom_site_fract_y
_atom_site_fract_z
O1	O	1.114556	0.077169	-0.108114
O2	O	0.870001	0.077159	-0.121515
O3	O	0.998957	0.077156	0.007462
O4	O	0.985600	0.077172	-0.237090
O5	O	0.998935	-0.077067	0.007442
O6	O	0.869979	-0.077064	-0.121534
O7	O	1.114535	-0.077054	-0.108133
Cu8	Cu	0.992255	-0.091141	-0.114835
Cu9	Cu	0.992281	0.091246	-0.114813
O10	O	0.985579	-0.077051	-0.237110
C11	C	0.838695	0.000046	-0.120976
C12	C	0.745447	0.000042	-0.119331
N13	N	0.992244	-0.219422	-0.114851
C14	C	0.453911	0.000061	-0.194263
C15	C	0.514951	0.076100	-0.155302
C16	C	0.409810	0.000063	-0.113355
C17	C	0.514916	-0.075952	-0.155299
C18	C	0.574719	0.000051	-0.116296
C19	C	0.469622	0.076165	-0.074371
C20	C	0.469581	-0.075955	-0.074380
C21	C	0.530603	0.000102	-0.035360
C22	C	0.314810	0.000071	-0.111663
C23	C	0.669718	0.000050	-0.117981
C24	C	0.932604	-0.469075	-0.174463
C25	C	1.008506	-0.530873	-0.190756
C26	C	0.992264	-0.408584	-0.114831
C27	C	0.916382	-0.530879	-0.098557
C28	C	0.992277	-0.591305	-0.114813
C29	C	1.068204	-0.469021	-0.131162
C30	C	0.976030	-0.469022	-0.038930
C31	C	1.051987	-0.530793	-0.055191
C32	C	0.992255	-0.303323	-0.114843
C33	C	0.992294	-0.696564	-0.114800
C34	C	1.145840	0.000061	-0.108672
C35	C	1.239089	0.000071	-0.110317
C36	C	0.998392	0.000044	0.038746
C37	C	0.996729	0.000044	0.131992
N38	N	0.992299	0.219527	-0.114791
C39	C	0.986144	0.000063	-0.268394
C40	C	0.987806	0.000069	-0.361640
C41	C	0.912823	0.000053	0.346833
C42	C	0.951776	-0.075987	0.407848
C43	C	0.993722	0.000051	0.302717
C44	C	0.951816	0.076065	0.407850
C45	C	0.990811	0.000061	0.467629
C46	C	1.032697	-0.076052	0.362504
C47	C	1.032726	0.076069	0.362500
C48	C	1.071737	0.000010	0.423497
C49	C	0.995397	0.000044	0.207715
C50	C	0.989143	0.000062	0.562630
H51	H	0.420581	0.000139	-0.261409
N52	N	0.574573	0.000138	0.053652
H53	H	0.557342	-0.056744	0.084448
H54	H	0.558108	0.057631	0.084039
H55	H	0.535058	0.140386	-0.189518
H56	H	1.138946	-0.000030	0.456668
H57	H	0.962264	-0.441833	0.025230
H58	H	0.449652	0.140523	-0.040174
N59	N	0.906452	-0.161144	0.434481
H60	H	0.936404	-0.218572	0.417178
H61	H	0.846436	-0.161013	0.406307
H62	H	1.132396	-0.441964	-0.144995
H63	H	1.022248	-0.558040	-0.254936
H64	H	1.066922	0.140360	0.342384
N65	N	1.077976	-0.161299	0.336033
H66	H	1.078794	-0.160792	0.272788
H67	H	1.047616	-0.218617	0.352964
N68	N	0.865841	-0.433159	-0.241303
H69	H	0.808626	-0.456629	-0.229603
H70	H	0.878294	-0.455664	-0.298583
H71	H	1.102500	-0.557722	-0.004751
N72	N	0.831377	-0.566881	-0.080331
H73	H	0.786354	-0.544432	-0.125422
H74	H	0.818719	-0.543412	-0.023427
N75	N	0.906490	0.161213	0.434469
H76	H	0.846472	0.161138	0.406293
H77	H	0.936510	0.218602	0.417169
N78	N	0.823877	-0.000039	0.302695
H79	H	0.793420	-0.057535	0.319061
H80	H	0.825693	0.000585	0.239588
H81	H	0.449455	-0.140247	-0.040195
N82	N	0.541496	-0.161101	-0.200655
H83	H	0.524186	-0.218537	-0.170710
H84	H	0.604801	-0.160702	-0.200969
