data_functionalizedCrystal
_audit_creation_method	'MofGen! by Chris Wilmer'
_symmetry_space_group_name_H-M	'P1'
_symmetry_Int_Tables_number	1
_symmetry_cell_setting	triclinic
loop_
_symmetry_equiv_pos_as_xyz
  x,y,z
_cell_length_a	12.759395
_cell_length_b	17.640280
_cell_length_c	12.759387
_cell_angle_alpha	78.768503
_cell_angle_beta	89.979491
_cell_angle_gamma	78.802277
loop_
_atom_site_label
_atom_site_type_symbol
_atom_site_fract_x
_atom_site_fract_y
_atom_site_fract_z
Zn1	Zn	1.690820	-0.314594	-0.509546
Zn2	Zn	1.726239	-0.446788	-0.298376
Zn3	Zn	1.515129	-0.314637	-0.333871
Zn4	Zn	1.550624	-0.446732	-0.474030
O5	O	1.620703	-0.380688	-0.403956
O6	O	1.842541	-0.332135	-0.481542
O7	O	1.698204	-0.429300	-0.156052
O8	O	1.508757	-0.204025	-0.386893
O9	O	1.868563	-0.429258	-0.326397
O10	O	1.637836	-0.203994	-0.515961
O11	O	1.543102	-0.332209	-0.182130
O12	O	1.372815	-0.332154	-0.352455
O13	O	1.569253	-0.429162	-0.625774
O14	O	1.398893	-0.429204	-0.455429
O15	O	1.672254	-0.332081	-0.651867
O16	O	1.732621	-0.557387	-0.291959
O17	O	1.603597	-0.557346	-0.421011
C18	C	1.347733	-0.380678	-0.403940
C19	C	1.230960	-0.380693	-0.403954
C20	C	1.258197	-0.481915	-0.510919
C21	C	1.216957	-0.532532	-0.564404
C22	C	1.107238	-0.532541	-0.564414
C23	C	1.038755	-0.481927	-0.510937
C24	C	1.079995	-0.431310	-0.457453
C25	C	1.189719	-0.431307	-0.457446
C26	C	1.052757	-0.330086	-0.350495
C27	C	1.162477	-0.330079	-0.350477
C28	C	0.984275	-0.279471	-0.297017
C29	C	1.025516	-0.228857	-0.243526
C30	C	1.135242	-0.228850	-0.243516
C31	C	1.203718	-0.279462	-0.296992
C32	C	1.675833	-0.586045	-0.348802
C33	C	1.699514	-0.673898	-0.325242
C34	C	1.441233	-0.962865	-0.583319
C35	C	1.463487	-1.045416	-0.561148
C36	C	1.597922	-1.045394	-0.426902
C37	C	1.575683	-0.962841	-0.449066
C38	C	1.497337	-0.921583	-0.527275
C39	C	1.631787	-0.921559	-0.393021
C40	C	1.609546	-0.839013	-0.415179
C41	C	1.531201	-0.797750	-0.493383
C42	C	1.475095	-0.839038	-0.549433
C43	C	1.710128	-0.962818	-0.314807
C44	C	1.766232	-0.921536	-0.258762
C45	C	1.743997	-0.838989	-0.280925
C46	C	1.665651	-0.797726	-0.359129
C47	C	1.800102	-0.797702	-0.224875
C48	C	1.777861	-0.715156	-0.247033
C49	C	1.643410	-0.715180	-0.381287
C50	C	1.894739	-0.380698	-0.403972
C51	C	2.011517	-0.380703	-0.403979
C52	C	1.620761	-0.380610	-0.678010
C53	C	1.620786	-0.380577	-0.794796
C54	C	1.565386	-0.174529	-0.459348
C55	C	1.541814	-0.086676	-0.482953
C56	C	1.728052	-0.279493	-0.821985
C57	C	1.781697	-0.228939	-0.890443
C58	C	1.781715	-0.228910	-1.000173
C59	C	1.728080	-0.279439	-1.041445
C60	C	1.674435	-0.329993	-0.972987
C61	C	1.674426	-0.330018	-0.863256
C62	C	1.567164	-0.431072	-0.945799
C63	C	1.567151	-0.431106	-0.836068
C64	C	1.513529	-0.481601	-0.987072
C65	C	1.459890	-0.532160	-0.918612
C66	C	1.459875	-0.532188	-0.808876
C67	C	1.513507	-0.481660	-0.767610
C68	C	1.620690	-0.380708	-0.130983
C69	C	1.620809	-0.380518	-0.014258
H70	H	1.579620	-0.681586	-0.444981
H71	H	1.825389	-0.187740	-1.055914
H72	H	1.411305	-0.805444	-0.613127
C73	C	0.806927	-0.204325	-0.344178
C74	C	0.863670	-0.279483	-0.297030
H75	H	0.732471	-0.204336	-0.344187
H76	H	0.821683	-0.166943	-0.304671
H77	H	0.828134	-0.190730	-0.415659
H78	H	0.842469	-0.293075	-0.225546
H79	H	0.848906	-0.316876	-0.336535
C80	C	1.328361	-1.037145	-0.696094
C81	C	1.401819	-1.090794	-0.622769
H82	H	1.290298	-1.065161	-0.734138
H83	H	1.279534	-1.004997	-0.658914
H84	H	1.365439	-1.004901	-0.744972
H85	H	1.364741	-1.123035	-0.573886
H86	H	1.450653	-1.122956	-0.659952
C87	C	1.560491	-0.556759	-1.124048
C88	C	1.513546	-0.481573	-1.107687
H89	H	1.560496	-0.556743	-1.198511
H90	H	1.631945	-0.570433	-1.095564
H91	H	1.520857	-0.594090	-1.089177
H92	H	1.553185	-0.444243	-1.142551
H93	H	1.442080	-0.467890	-1.136185
C94	C	1.395218	-0.406751	-0.558035
C95	C	1.378805	-0.481913	-0.510899
H96	H	1.469677	-0.406753	-0.558015
H97	H	1.366787	-0.393158	-0.629514
H98	H	1.360332	-0.369368	-0.518528
H99	H	1.413683	-0.519295	-0.550410
H100	H	1.407248	-0.495515	-0.439407
H101	H	1.728237	-1.030032	-0.296771
H102	H	1.661709	-1.078997	-0.363221
H103	H	0.969749	-0.187647	-0.199995
H104	H	1.272727	-0.573739	-0.607946
H105	H	1.728055	-0.279519	-0.732637
C106	C	1.860005	-1.048063	-0.165160
C107	C	1.852336	-0.966892	-0.172783
H108	H	1.913164	-1.076060	-0.112081
H109	H	1.793082	-1.061628	-0.146087
H110	H	1.878989	-1.061551	-0.232143
H111	H	1.833344	-0.953402	-0.105803
H112	H	1.919274	-0.953322	-0.191851
H113	H	1.863884	-0.831306	-0.161190
C114	C	1.618850	-0.501850	-0.605034
C115	C	1.513501	-0.481685	-0.646996
H116	H	1.618847	-0.501856	-0.530574
H117	H	1.650683	-0.552850	-0.616143
H118	H	1.658463	-0.464509	-0.639918
H119	H	1.473891	-0.519029	-0.612117
H120	H	1.481654	-0.430677	-0.635878
C121	C	0.896413	-0.537050	-0.569189
C122	C	0.918150	-0.481936	-0.510949
H123	H	0.821956	-0.537058	-0.569188
H124	H	0.917608	-0.523440	-0.640661
H125	H	0.934922	-0.588034	-0.537202
H126	H	0.879646	-0.430951	-0.542941
H127	H	0.896943	-0.495542	-0.439464
H128	H	1.513086	-0.730536	-0.511415
C129	C	1.097288	-0.128797	-0.137783
C130	C	1.180570	-0.173214	-0.184716
H131	H	1.125272	-0.094454	-0.101475
H132	H	1.046416	-0.098609	-0.191742
H133	H	1.063706	-0.163208	-0.088287
H134	H	1.214147	-0.138803	-0.234219
H135	H	1.231461	-0.203403	-0.130751
C136	C	1.444607	-0.665983	-0.916429
C137	C	1.400937	-0.587697	-0.963977
H138	H	1.408207	-0.700269	-0.944435
H139	H	1.518292	-0.677545	-0.931324
H140	H	1.436920	-0.673230	-0.841281
H141	H	1.408632	-0.580449	-1.039125
H142	H	1.327234	-0.576131	-0.949090
C143	C	1.346066	-0.224341	-0.238746
C144	C	1.324324	-0.279456	-0.296981
H145	H	1.420525	-0.224342	-0.238739
H146	H	1.307569	-0.173362	-0.270731
H147	H	1.324864	-0.237950	-0.167265
H148	H	1.345519	-0.265843	-0.368464
H149	H	1.362834	-0.330446	-0.264999
C150	C	1.145170	-0.632596	-0.670151
C151	C	1.061899	-0.588175	-0.623210
H152	H	1.117177	-0.666943	-0.706446
H153	H	1.178747	-0.598195	-0.719649
H154	H	1.196052	-0.662788	-0.616188
H155	H	1.011020	-0.557979	-0.677175
H156	H	1.028305	-0.622581	-0.573709
H157	H	1.377442	-0.929271	-0.647013
C158	C	1.912994	-0.723417	-0.112107
C159	C	1.839528	-0.669773	-0.185429
H160	H	1.951065	-0.695397	-0.074077
H161	H	1.875930	-0.755658	-0.063227
H162	H	1.961823	-0.755569	-0.149297
H163	H	1.790694	-0.637624	-0.148239
H164	H	1.876595	-0.637519	-0.234316
C165	C	1.829330	-0.184109	-0.734302
C166	C	1.840662	-0.173406	-0.845073
H167	H	1.865740	-0.149828	-0.706296
H168	H	1.755642	-0.172530	-0.719423
H169	H	1.858942	-0.237226	-0.702063
H170	H	1.811043	-0.120290	-0.877313
H171	H	1.914365	-0.184980	-0.859961
H172	H	1.728088	-0.279405	-1.130796
H173	H	1.416177	-0.573347	-0.753145
