data_functionalizedCrystal
_audit_creation_method	'MofGen! by Chris Wilmer'
_symmetry_space_group_name_H-M	'P1'
_symmetry_Int_Tables_number	1
_symmetry_cell_setting	triclinic
loop_
_symmetry_equiv_pos_as_xyz
  x,y,z
_cell_length_a	16.959455
_cell_length_b	25.639239
_cell_length_c	16.959447
_cell_angle_alpha	89.966842
_cell_angle_beta	89.983056
_cell_angle_gamma	90.035633
loop_
_atom_site_label
_atom_site_type_symbol
_atom_site_fract_x
_atom_site_fract_y
_atom_site_fract_z
Zn1	Zn	1.208302	-0.208183	-0.446894
Zn2	Zn	1.208175	-0.295623	-0.314709
Zn3	Zn	1.076124	-0.208199	-0.314731
Zn4	Zn	1.076052	-0.295584	-0.446847
O5	O	1.142164	-0.251897	-0.380795
O6	O	1.318896	-0.219791	-0.429369
O7	O	1.190636	-0.284050	-0.204101
O8	O	1.093741	-0.135032	-0.332291
O9	O	1.318803	-0.284034	-0.332253
O10	O	1.190851	-0.135020	-0.429391
O11	O	1.093619	-0.219820	-0.204117
O12	O	0.965504	-0.219781	-0.332247
O13	O	1.093618	-0.283967	-0.557464
O14	O	0.965451	-0.283983	-0.429312
O15	O	1.190781	-0.219753	-0.557498
O16	O	1.190566	-0.368783	-0.332208
O17	O	1.093495	-0.368755	-0.429290
C18	C	0.936797	-0.251880	-0.380777
C19	C	0.848941	-0.251885	-0.380788
C20	C	0.477468	-0.218440	-0.330359
C21	C	0.477462	-0.285397	-0.431277
C22	C	0.560008	-0.285390	-0.431272
C23	C	0.601288	-0.251908	-0.380809
C24	C	0.560022	-0.218433	-0.330351
C25	C	0.601280	-0.318868	-0.481723
C26	C	0.683831	-0.318862	-0.481720
C27	C	0.725112	-0.285377	-0.431260
C28	C	0.683841	-0.251900	-0.380801
C29	C	0.725121	-0.218418	-0.330338
C30	C	0.683852	-0.184938	-0.279882
C31	C	0.601303	-0.184948	-0.279891
C32	C	0.807661	-0.285368	-0.431251
C33	C	0.807675	-0.218411	-0.330330
C34	C	1.142031	-0.387740	-0.380759
C35	C	1.142046	-0.445854	-0.380770
C36	C	1.192840	-0.806219	-0.330331
C37	C	1.192871	-0.860824	-0.330341
O38	O	1.235920	-0.889063	-0.287417
N39	N	1.142302	-0.888136	-0.380847
C40	C	1.091706	-0.860842	-0.431352
O41	O	1.048697	-0.889087	-0.474313
C42	C	1.091680	-0.806239	-0.431345
C43	C	1.142246	-0.778929	-0.380830
C44	C	1.243402	-0.778910	-0.279820
C45	C	1.243370	-0.724309	-0.279809
C46	C	1.192776	-0.697018	-0.330308
C47	C	1.142214	-0.724328	-0.380818
C48	C	1.041088	-0.778945	-0.481853
C49	C	1.041067	-0.724338	-0.481842
C50	C	1.091633	-0.697028	-0.431326
C51	C	1.091588	-0.642437	-0.431306
N52	N	1.142156	-0.615124	-0.380800
C53	C	1.192750	-0.642415	-0.330301
C54	C	1.091766	-0.975513	-0.431364
C55	C	1.091787	-1.030115	-0.431368
C56	C	1.192953	-1.030093	-0.330358
C57	C	1.192927	-0.975490	-0.330351
C58	C	1.142334	-0.948200	-0.380858
C59	C	1.192679	-0.527750	-0.330280
C60	C	1.192640	-0.473145	-0.330271
C61	C	1.091478	-0.473171	-0.431283
C62	C	1.091513	-0.527772	-0.431290
C63	C	1.142120	-0.555060	-0.380786
O64	O	1.048563	-0.614164	-0.474211
O65	O	1.235759	-0.614163	-0.287355
C66	C	1.348332	-0.251915	-0.380814
C67	C	1.436188	-0.251923	-0.380822
C68	C	1.142206	-0.251854	-0.586963
C69	C	1.142224	-0.251835	-0.674820
C70	C	1.142318	-0.115524	-0.380849
C71	C	1.142385	-0.057410	-0.380872
C72	C	1.091781	-0.218339	-1.046311
C73	C	1.192806	-0.285222	-1.046281
C74	C	1.192792	-0.285234	-0.963735
C75	C	1.142271	-0.251799	-0.922473
C76	C	1.091764	-0.218351	-0.963757
C77	C	1.243293	-0.318685	-0.922445
C78	C	1.243281	-0.318699	-0.839894
C79	C	1.192763	-0.285260	-0.798631
C80	C	1.142254	-0.251811	-0.839920
C81	C	1.091734	-0.218375	-0.798658
C82	C	1.041228	-0.184923	-0.839945
C83	C	1.041247	-0.184912	-0.922494
C84	C	1.192745	-0.285271	-0.716082
C85	C	1.091717	-0.218388	-0.716104
C86	C	1.142167	-0.251903	-0.175429
C87	C	1.142302	-0.251774	-0.087573
H88	H	0.841259	-0.312628	-0.472329
N89	N	1.297972	-0.808342	-0.225348
H90	H	1.354436	-0.798797	-0.237670
H91	H	1.285650	-0.798855	-0.168885
H92	H	0.567664	-0.346131	-0.522802
N93	N	0.432964	-0.182340	-0.275926
H94	H	0.374405	-0.187426	-0.283582
H95	H	0.447374	-0.190443	-0.219457
N96	N	1.247211	-0.321351	-0.671558
H97	H	1.303699	-0.313236	-0.685937
H98	H	1.239473	-0.316271	-0.613016
H99	H	1.050579	-0.191157	-0.682514
N100	N	1.247188	-0.443688	-0.275793
H101	H	1.215080	-0.421072	-0.239125
H102	H	1.279235	-0.469298	-0.243861
N103	N	0.432943	-0.321514	-0.485695
H104	H	0.374387	-0.316440	-0.478041
H105	H	0.447396	-0.313421	-0.542169
H106	H	1.284404	-0.345939	-0.806285
N107	N	0.728340	-0.354970	-0.536136
H108	H	0.689662	-0.376182	-0.568103
H109	H	0.762618	-0.333714	-0.572772
H110	H	1.233890	-0.549961	-0.289157
N111	N	1.297785	-0.354747	-0.966938
H112	H	1.285460	-0.392105	-0.952553
H113	H	1.290115	-0.349619	-1.025484
H114	H	0.841279	-0.191142	-0.289241
H115	H	0.717473	-0.157679	-0.238791
H116	H	1.050604	-1.052346	-0.472495
N117	N	0.556793	-0.148857	-0.225450
H118	H	0.498235	-0.153950	-0.233103
H119	H	0.571209	-0.156964	-0.168984
N120	N	0.986745	-0.148861	-0.795430
H121	H	0.999069	-0.111502	-0.809810
H122	H	0.930281	-0.157015	-0.809800
H123	H	1.234102	-0.953257	-0.289218
N124	N	1.297921	-0.694857	-0.225337
H125	H	1.329977	-0.720438	-0.193357
H126	H	1.334469	-0.672169	-0.257550
N127	N	1.247523	-1.059537	-0.275893
H128	H	1.284141	-1.082153	-0.308058
H129	H	1.279504	-1.033922	-0.243900
N130	N	1.036917	-0.443725	-0.485748
H131	H	1.049168	-0.453192	-0.542237
H132	H	0.980471	-0.453275	-0.473364
H133	H	1.050560	-0.953296	-0.472491
H134	H	0.999869	-0.702121	-0.522973
N135	N	0.986544	-0.808392	-0.536333
H136	H	0.954497	-0.782810	-0.568320
H137	H	1.018706	-0.831010	-0.572949
N138	N	1.036968	-0.557232	-0.485763
H139	H	1.004910	-0.531655	-0.517750
H140	H	1.069135	-0.579845	-0.522379
H141	H	1.050663	-0.191101	-1.079931
N142	N	0.986753	-0.148850	-0.967023
H143	H	0.994420	-0.153924	-1.025578
H144	H	0.930298	-0.157001	-0.952570
H145	H	1.233932	-0.312448	-1.079881
