data_functionalizedCrystal
_audit_creation_method	'MofGen! by Chris Wilmer'
_symmetry_space_group_name_H-M	'P1'
_symmetry_Int_Tables_number	1
_symmetry_cell_setting	triclinic
loop_
_symmetry_equiv_pos_as_xyz
  x,y,z
_cell_length_a	11.792254
_cell_length_b	12.837942
_cell_length_c	11.295483
_cell_angle_alpha	85.469583
_cell_angle_beta	85.866602
_cell_angle_gamma	90.486231
loop_
_atom_site_label
_atom_site_type_symbol
_atom_site_fract_x
_atom_site_fract_y
_atom_site_fract_z
O1	O	1.528219	-0.135290	-0.099017
O2	O	2.028219	0.364710	0.400983
O3	O	1.199364	-0.149928	-0.099021
O4	O	1.699364	0.350072	0.400979
O5	O	1.356499	0.008335	-0.099012
O6	O	1.856499	0.508335	0.400988
O7	O	1.371084	-0.293552	-0.099027
O8	O	1.871084	0.206448	0.400973
O9	O	1.342695	-0.005544	0.099038
O10	O	1.842695	0.494456	0.599038
O11	O	1.185560	-0.163807	0.099029
O12	O	1.685560	0.336193	0.599029
O13	O	1.514415	-0.149169	0.099033
O14	O	2.014415	0.350831	0.599033
Cu15	Cu	1.348727	-0.157755	0.117114
Cu16	Cu	1.848727	0.342245	0.617114
Cu17	Cu	1.365052	-0.141342	-0.117103
Cu18	Cu	1.865052	0.358658	0.382897
O19	O	1.357280	-0.307431	0.099023
O20	O	1.857280	0.192569	0.599023
C21	C	1.344670	0.040044	0.000012
C22	C	1.844670	0.540044	0.500012
C23	C	1.329977	0.155204	0.000010
C24	C	1.829977	0.655204	0.500010
C25	C	1.150078	-0.155945	0.000003
C26	C	1.650078	0.344055	0.500003
C27	C	1.023785	-0.153185	0.000002
C28	C	1.523785	0.346815	0.500002
C29	C	1.563701	-0.143151	0.000005
C30	C	2.063701	0.356849	0.500005
C31	C	1.689994	-0.145911	-0.000001
C32	C	2.189994	0.354089	0.499999
C33	C	1.792559	-0.148153	-0.000003
C34	C	2.292559	0.351847	0.499997
C35	C	1.921229	-0.150958	-0.000001
C36	C	2.421229	0.349042	0.499999
C37	C	1.369109	-0.339140	-0.000003
C38	C	1.869109	0.160860	0.499997
C39	C	1.383803	-0.454300	-0.000009
C40	C	1.883803	0.045700	0.499991
N41	N	1.337254	-0.169299	0.281850
N42	N	1.837254	0.330701	0.781850
C43	C	1.506624	0.395164	-0.000013
C44	C	2.006624	0.895164	0.499987
C45	C	1.492823	0.503368	-0.000015
C46	C	1.992823	1.003368	0.499985
C47	C	1.288576	0.479819	-0.000005
C48	C	1.788576	0.979819	0.499995
C49	C	1.302377	0.371615	-0.000003
C50	C	1.802377	0.871615	0.499997
C51	C	1.411404	0.329292	-0.000005
C52	C	1.911404	0.829292	0.499995
C53	C	1.425203	0.221085	0.000006
C54	C	1.925203	0.721085	0.500006
C55	C	1.220958	0.197539	0.000007
C56	C	1.720958	0.697539	0.500007
C57	C	1.207157	0.305743	0.000005
C58	C	1.707157	0.805743	0.500005
N59	N	1.376533	-0.129790	-0.281838
N60	N	1.876533	0.370210	0.218162
C61	C	1.459121	-0.046633	0.531146
C62	C	1.959121	0.453367	1.031146
C63	C	1.450459	-0.055364	0.655810
C64	C	1.950459	0.444636	1.155810
C65	C	1.311263	-0.195487	0.655842
C66	C	1.811263	0.304513	1.155842
C67	C	1.319924	-0.186756	0.531178
C68	C	1.819924	0.313244	1.031178
C69	C	1.393857	-0.112327	0.468835
C70	C	1.893857	0.387673	0.968835
C71	C	1.402524	-0.103602	0.344170
C72	C	1.902524	0.396398	0.844170
C73	C	1.263323	-0.243719	0.344204
C74	C	1.763323	0.256281	0.844204
C75	C	1.254661	-0.252450	0.468867
C76	C	1.754661	0.247550	0.968867
H77	H	1.513978	0.186627	0.000009
H78	H	2.013978	0.686627	0.500009
H79	H	1.519328	0.013962	0.480386
H80	H	2.019328	0.513962	0.980386
H81	H	1.570362	0.556999	-0.000025
H82	H	2.070362	1.056999	0.499975
O83	O	1.192918	-0.314573	0.276993
O84	O	1.692918	0.185427	0.776993
H85	H	1.250124	-0.361296	0.220179
H86	H	1.750124	0.138704	0.720179
H87	H	1.595397	0.360703	-0.000003
H88	H	2.095397	0.860703	0.499997
H89	H	1.503602	-0.001868	0.706540
H90	H	2.003602	0.498132	1.206540
H91	H	1.199812	0.514299	-0.000016
H92	H	1.699812	1.014299	0.499984
H93	H	1.251060	-0.256078	0.706618
H94	H	1.751060	0.243922	1.206618
H95	H	1.118391	0.340218	0.000002
H96	H	1.618391	0.840218	0.500002
H97	H	1.194463	-0.313046	0.519641
H98	H	1.694463	0.186954	1.019641
O99	O	1.482254	-0.023324	0.276920
O100	O	1.982254	0.476676	0.776920
H101	H	1.526169	0.020898	0.341198
H102	H	2.026169	0.520898	0.841198
H103	H	1.143422	0.143892	0.000023
H104	H	1.643422	0.643892	0.500023
