data_functionalizedCrystal
_audit_creation_method	'MofGen! by Chris Wilmer'
_symmetry_space_group_name_H-M	'P1'
_symmetry_Int_Tables_number	1
_symmetry_cell_setting	triclinic
loop_
_symmetry_equiv_pos_as_xyz
  x,y,z
_cell_length_a	14.519709
_cell_length_b	10.540539
_cell_length_c	13.596369
_cell_angle_alpha	89.996161
_cell_angle_beta	90.000291
_cell_angle_gamma	84.102818
loop_
_atom_site_label
_atom_site_type_symbol
_atom_site_fract_x
_atom_site_fract_y
_atom_site_fract_z
O1	O	1.224765	0.166400	-0.081658
O2	O	0.956394	0.185995	-0.081688
O3	O	1.096702	-0.008572	-0.081671
O4	O	1.084457	0.360966	-0.081675
O5	O	1.096688	-0.008582	0.081912
O6	O	0.956380	0.185985	0.081895
O7	O	1.224751	0.166389	0.081924
Zn8	Zn	1.090563	0.176185	0.107882
Zn9	Zn	1.090582	0.176199	-0.107646
O10	O	1.084442	0.360956	0.081908
C11	C	0.922022	0.185077	0.000100
C12	C	0.819626	0.182340	0.000088
C13	C	1.095777	-0.055870	0.000118
C14	C	1.093029	-0.196790	0.000113
C15	C	0.444676	0.172265	0.000133
C16	C	0.548999	0.175063	0.000120
C17	C	0.632148	0.177303	0.000110
C18	C	0.736477	0.180101	0.000099
C19	C	0.987750	-0.379142	-0.000266
C20	C	0.990535	-0.232553	0.000102
C21	C	1.142346	-0.258957	0.093532
C22	C	1.138848	-0.405466	0.093610
C23	C	1.140949	-0.405994	-0.092414
C24	C	1.141893	-0.259022	-0.093649
C25	C	1.259123	0.167308	0.000135
C26	C	1.361519	0.170044	0.000140
C27	C	1.085368	0.408255	0.000116
C28	C	1.088115	0.549175	0.000115
N29	N	1.090557	0.176175	0.254974
N30	N	1.090595	0.176199	-0.254737
C31	C	1.090580	0.176200	0.656265
C32	C	1.090571	0.176198	0.544613
C33	C	1.090569	0.176189	0.455623
C34	C	1.090559	0.176184	0.343964
H35	H	0.947268	-0.407325	-0.067259
H36	H	0.951729	-0.189549	-0.066865
O37	O	1.101522	-0.443169	-0.176981
C38	C	1.150464	-0.401476	-0.258408
H39	H	1.223774	-0.385669	-0.234879
H40	H	1.113632	-0.308215	-0.287404
C41	C	1.064613	-0.522684	-0.368868
C42	C	1.154655	-0.503279	-0.339971
H43	H	1.067195	-0.585476	-0.419183
H44	H	1.031636	-0.550769	-0.314011
H45	H	1.033928	-0.444958	-0.393025
H46	H	1.185333	-0.581000	-0.315804
H47	H	1.187637	-0.475208	-0.394827
H48	H	1.108076	-0.216013	0.163044
H49	H	0.947421	-0.408942	0.066343
O50	O	1.098826	-0.209573	-0.176004
C51	C	1.024798	-0.119151	-0.149015
H52	H	1.037651	-0.081492	-0.072161
H53	H	0.957485	-0.166112	-0.149364
C54	C	1.001715	-0.054066	-0.317275
C55	C	1.017505	-0.007805	-0.222885
H56	H	0.997212	0.014615	-0.362843
H57	H	1.051586	-0.114989	-0.335459
H58	H	0.945622	-0.093200	-0.317551
H59	H	1.073603	0.031313	-0.222607
H60	H	0.967642	0.053127	-0.204702
O61	O	1.231037	-0.230971	-0.100202
C62	C	1.251257	-0.154036	-0.019799
H63	H	1.201756	-0.168824	0.043285
H64	H	1.242825	-0.049538	-0.042970
C65	C	1.412399	-0.173017	-0.063369
C66	C	1.351606	-0.191188	0.014115
H67	H	1.474300	-0.195929	-0.042451
H68	H	1.398776	-0.224846	-0.117541
H69	H	1.405361	-0.085935	-0.082671
H70	H	1.358637	-0.278271	0.033407
H71	H	1.365232	-0.139375	0.068291
H72	H	1.217615	-0.237372	0.097013
O73	O	1.226734	-0.463739	0.098824
C74	C	1.236432	-0.539538	0.184375
H75	H	1.165510	-0.565131	0.208692
H76	H	1.268269	-0.484199	0.245483
C77	C	1.386929	-0.631086	0.132567
C78	C	1.299822	-0.662529	0.162428
H79	H	1.426035	-0.706950	0.119031
H80	H	1.380398	-0.580016	0.074931
H81	H	1.413448	-0.584968	0.183494
H82	H	1.273300	-0.708631	0.111496
H83	H	1.306351	-0.713610	0.220055
O84	O	1.229224	-0.463389	-0.093038
C85	C	1.243251	-0.543631	-0.010263
H86	H	1.173729	-0.571445	0.016646
H87	H	1.277525	-0.491133	0.050796
C88	C	1.391574	-0.630465	-0.071726
C89	C	1.306187	-0.664636	-0.038680
H90	H	1.430399	-0.705104	-0.089252
H91	H	1.382126	-0.576402	-0.127491
H92	H	1.420123	-0.586715	-0.020838
H93	H	1.277634	-0.708370	-0.089572
H94	H	1.315631	-0.718710	0.017076
H95	H	0.951446	-0.190402	0.067172
O96	O	1.095248	-0.438811	0.176804
C97	C	1.015823	-0.498033	0.151288
H98	H	1.024251	-0.538777	0.073768
H99	H	0.952351	-0.424849	0.154040
C100	C	0.993064	-0.556504	0.319625
C101	C	1.003420	-0.606556	0.224416
H102	H	0.985410	-0.623442	0.364736
H103	H	1.046572	-0.516601	0.336817
H104	H	0.940172	-0.495518	0.321904
H105	H	1.056317	-0.667529	0.222135
H106	H	0.949920	-0.646472	0.207226
