data_functionalizedCrystal
_audit_creation_method	'MofGen! by Chris Wilmer'
_symmetry_space_group_name_H-M	'P1'
_symmetry_Int_Tables_number	1
_symmetry_cell_setting	triclinic
loop_
_symmetry_equiv_pos_as_xyz
  x,y,z
_cell_length_a	10.654550
_cell_length_b	10.540510
_cell_length_c	9.730223
_cell_angle_alpha	90.002822
_cell_angle_beta	90.004202
_cell_angle_gamma	84.499107
loop_
_atom_site_label
_atom_site_type_symbol
_atom_site_fract_x
_atom_site_fract_y
_atom_site_fract_z
O1	O	1.667878	0.178305	0.114395
O2	O	1.302404	0.195292	0.114372
O3	O	1.493498	0.002086	0.114383
O4	O	1.476783	0.371510	0.114383
O5	O	1.493496	0.002077	-0.114197
O6	O	1.302401	0.195283	-0.114208
O7	O	1.667876	0.178295	-0.114185
Zn8	Zn	1.485138	0.186787	-0.150489
Zn9	Zn	1.485141	0.186800	0.150675
O10	O	1.476781	0.371501	-0.114197
C11	C	1.255604	0.194040	0.000079
C12	C	1.116160	0.190308	0.000071
C13	C	1.036702	0.304065	0.000091
C14	C	0.905681	0.300551	0.000115
C15	C	0.933587	0.069514	0.000104
C16	C	1.064606	0.073029	0.000070
C17	C	1.088256	0.421344	0.000091
C18	C	1.008797	0.535110	0.000113
C19	C	0.877775	0.531596	0.000137
C20	C	0.826213	0.414316	0.000139
C21	C	1.492252	-0.045222	0.000096
C22	C	1.488525	-0.186170	0.000104
C23	C	1.621278	-0.403673	-0.000411
C24	C	1.625253	-0.257079	0.000111
C25	C	1.418535	-0.230898	0.130627
C26	C	1.415528	-0.377658	0.130729
C27	C	1.412678	-0.377476	-0.129209
C28	C	1.419163	-0.231138	-0.130927
C29	C	1.714675	0.179547	0.000111
C30	C	1.854119	0.183279	0.000128
C31	C	1.478028	0.418809	0.000094
C32	C	1.481754	0.559757	0.000095
N33	N	1.485144	0.186799	0.356212
N34	N	1.485145	0.186778	-0.356025
C35	C	1.569920	0.101416	0.428143
C36	C	1.569924	0.101408	0.572026
C37	C	1.400365	0.272170	0.572034
C38	C	1.400368	0.272184	0.428154
C39	C	1.654696	0.016032	0.356201
C40	C	1.739478	-0.069360	0.428132
C41	C	1.739482	-0.069368	0.572015
C42	C	1.654704	0.016015	0.643967
H43	H	0.813083	0.624229	0.000140
N44	N	0.684897	0.410521	0.000145
H45	H	0.642381	0.500382	0.000150
H46	H	0.658937	0.364268	0.084888
H47	H	1.050789	0.630595	0.000099
N48	N	1.482922	-0.190072	0.259313
H49	H	1.421448	-0.132485	0.315497
H50	H	1.557414	-0.142665	0.233251
N51	N	1.280075	-0.408078	0.138598
H52	H	1.277069	-0.503559	0.138728
H53	H	1.232126	-0.370016	0.056547
H54	H	1.317878	-0.183473	0.135475
H55	H	0.891594	-0.025970	0.000128
N56	N	1.830929	-0.161450	0.649603
H57	H	1.884631	-0.215534	0.582191
H58	H	1.782468	-0.218129	0.709289
H59	H	1.654698	0.016028	0.239044
N60	N	1.486606	-0.193264	-0.258840
H61	H	1.561776	-0.147168	-0.232039
H62	H	1.427051	-0.135220	-0.316751
H63	H	1.194939	0.424218	0.000078
N64	N	1.698215	-0.219458	0.124265
H65	H	1.727911	-0.298148	0.178873
H66	H	1.642002	-0.159442	0.183639
H67	H	1.654723	0.016010	0.761126
N68	N	1.308941	0.364280	0.350558
H69	H	1.255230	0.418363	0.417963
H70	H	1.253096	0.315051	0.290842
H71	H	1.463362	-0.417886	0.228304
N72	N	1.697771	-0.218252	-0.123842
H73	H	1.786576	-0.261325	-0.120461
H74	H	1.700409	-0.122727	-0.123688
N75	N	1.830918	-0.161436	0.350530
H76	H	1.815837	-0.251720	0.375558
H77	H	1.920092	-0.145690	0.375611
N78	N	1.308928	0.364253	0.649631
H79	H	1.321788	0.351286	0.751694
H80	H	1.219754	0.348579	0.624467
N81	N	1.691446	-0.461292	0.122890
H82	H	1.766050	-0.520307	0.091028
H83	H	1.633163	-0.510922	0.179028
N84	N	1.150318	-0.049661	0.000042
H85	H	1.097780	-0.124490	0.000057
H86	H	1.205313	-0.053232	0.084764
H87	H	1.456127	-0.419678	-0.228147
H88	H	1.674545	-0.445652	-0.094016
H89	H	1.319341	-0.182035	-0.138815
H90	H	1.310021	-0.399589	-0.130095
