data_functionalizedCrystal
_audit_creation_method	'MofGen! by Chris Wilmer'
_symmetry_space_group_name_H-M	'P1'
_symmetry_Int_Tables_number	1
_symmetry_cell_setting	triclinic
loop_
_symmetry_equiv_pos_as_xyz
  x,y,z
_cell_length_a	19.188905
_cell_length_b	13.185408
_cell_length_c	12.376457
_cell_angle_alpha	97.388518
_cell_angle_beta	78.739884
_cell_angle_gamma	67.554028
loop_
_atom_site_label
_atom_site_type_symbol
_atom_site_fract_x
_atom_site_fract_y
_atom_site_fract_z
O1	O	0.918208	0.115113	-0.094190
O2	O	1.418208	0.615113	0.405810
O3	O	0.711471	0.133495	-0.094151
O4	O	1.211471	0.633495	0.405849
O5	O	0.850258	-0.034618	-0.094169
O6	O	1.350258	0.465382	0.405831
O7	O	0.779421	0.283226	-0.094172
O8	O	1.279421	0.783226	0.405828
O9	O	0.815581	0.007353	0.093847
O10	O	1.315581	0.507353	0.593847
O11	O	0.676794	0.175466	0.093865
O12	O	1.176794	0.675466	0.593865
O13	O	0.883531	0.157084	0.093826
O14	O	1.383531	0.657084	0.593826
Zn15	Zn	0.774657	0.172939	0.123698
Zn16	Zn	1.274657	0.672939	0.623698
Zn17	Zn	0.820345	0.117640	-0.124022
Zn18	Zn	1.320345	0.617640	0.375978
O19	O	0.744744	0.325198	0.093844
O20	O	1.244744	0.825198	0.593844
C21	C	0.668230	0.153891	-0.000138
C22	C	1.168230	0.653891	0.499862
C23	C	0.591051	0.152122	-0.000123
C24	C	1.091051	0.652122	0.499877
C25	C	0.573720	0.128392	-0.102614
C26	C	1.073720	0.628392	0.397386
C27	C	0.501211	0.126711	-0.102628
C28	C	1.001211	0.626711	0.397372
C29	C	0.446041	0.148740	-0.000145
C30	C	0.946041	0.648740	0.499855
C31	C	0.463376	0.172480	0.102359
C32	C	0.963376	0.672480	0.602359
C33	C	0.535881	0.174171	0.102370
C34	C	1.035881	0.674171	0.602370
N35	N	0.334997	0.100999	0.076123
N36	N	0.834997	0.600999	0.576123
N37	N	0.266122	0.099389	0.076106
N38	N	0.766122	0.599389	0.576106
C39	C	0.227585	0.143649	-0.000173
C40	C	0.727585	0.643649	0.499827
N41	N	0.260531	0.189563	-0.076450
N42	N	0.760531	0.689563	0.423550
N43	N	0.329414	0.191168	-0.076436
N44	N	0.829414	0.691168	0.423564
C45	C	0.367419	0.146910	-0.000146
C46	C	0.867419	0.646910	0.499854
C47	C	0.131632	0.118097	-0.102686
C48	C	0.631632	0.618097	0.397314
C49	C	0.059119	0.116424	-0.102695
C50	C	0.559119	0.616424	0.397305
C51	C	0.021287	0.162182	0.102295
C52	C	0.521287	0.662182	0.602295
C53	C	0.093797	0.163866	0.102301
C54	C	0.593797	0.663866	0.602301
C55	C	0.148967	0.141817	-0.000192
C56	C	0.648967	0.641817	0.499808
C57	C	0.840101	-0.054297	-0.000163
C58	C	1.340101	0.445703	0.499837
C59	C	0.861492	-0.175463	-0.000168
C60	C	1.361492	0.324537	0.499832
C61	C	0.926773	0.136688	-0.000190
C62	C	1.426773	0.636688	0.499810
C63	C	1.003953	0.138455	-0.000212
C64	C	1.503953	0.638455	0.499788
C65	C	0.937654	-0.245710	-0.000180
C66	C	1.437654	0.254290	0.499820
C67	C	0.957756	-0.359554	-0.000194
C68	C	1.457756	0.140446	0.499806
C69	C	0.901697	-0.403161	-0.000187
C70	C	1.401697	0.096839	0.499813
C71	C	0.825532	-0.332912	-0.000166
C72	C	1.325532	0.167088	0.499834
C73	C	0.805429	-0.219059	-0.000161
C74	C	1.305429	0.280941	0.499839
C75	C	0.769472	-0.376510	-0.000168
C76	C	1.269472	0.123490	0.499832
C77	C	0.693307	-0.306262	-0.000148
C78	C	1.193307	0.193738	0.499852
C79	C	0.673208	-0.192419	-0.000142
C80	C	1.173208	0.307581	0.499858
C81	C	0.729268	-0.148812	-0.000149
C82	C	1.229268	0.351188	0.499851
C83	C	0.789574	-0.490364	-0.000173
C84	C	1.289574	0.009636	0.499827
C85	C	0.657350	-0.463713	-0.000155
C86	C	1.157350	0.036287	0.499845
C87	C	0.637248	-0.349869	-0.000141
C88	C	1.137248	0.150131	0.499859
C89	C	0.754901	0.344876	-0.000165
C90	C	1.254901	0.844876	0.499835
C91	C	0.733512	0.466040	-0.000167
C92	C	1.233512	0.966040	0.499833
N93	N	0.743482	0.210678	0.292760
N94	N	1.243482	0.710678	0.792760
N95	N	0.851528	0.079892	-0.293085
N96	N	1.351528	0.579892	0.206915
C97	C	0.923900	-0.007734	0.647721
C98	C	1.423900	0.492266	1.147721
C99	C	0.945716	-0.034148	0.529379
C100	C	1.445716	0.465852	1.029379
C101	C	0.895159	0.027056	0.470218
C102	C	1.395159	0.527056	0.970218
C103	C	0.822783	0.114679	0.529412
C104	C	1.322783	0.614679	1.029412
C105	C	0.800967	0.141101	0.647766
C106	C	1.300967	0.641101	1.147766
C107	C	0.772226	0.175892	0.470263
C108	C	1.272226	0.675892	0.970263
C109	C	0.699850	0.263515	0.529457
C110	C	1.199850	0.763515	1.029457
C111	C	0.678038	0.289932	0.647800
C112	C	1.178038	0.789932	1.147800
C113	C	0.728595	0.228728	0.706960
C114	C	1.228595	0.728728	1.206960
C115	C	0.794042	0.149469	0.351909
C116	C	1.294042	0.649469	0.851909
C117	C	0.671109	0.298305	0.351954
C118	C	1.171109	0.798305	0.851954
C119	C	0.649293	0.324719	0.470296
C120	C	1.149293	0.824719	0.970296
H121	H	-0.023634	0.180126	0.185738
H122	H	0.476366	0.680126	0.685738
Br123	Br	0.206507	0.088182	-0.241780
Br124	Br	0.706507	0.588182	0.258220
Br125	Br	0.602495	0.381380	0.271673
Br126	Br	1.102495	0.881380	0.771673
Br127	Br	1.013729	-0.186528	-0.000210
Br128	Br	1.513729	0.313472	0.499790
H129	H	0.045011	0.097105	-0.186159
H130	H	0.545011	0.597105	0.313841
H131	H	0.712904	-0.056111	-0.000134
H132	H	1.212904	0.443889	0.499866
H133	H	0.611702	-0.499217	-0.000152
H134	H	1.111702	0.000783	0.499848
H135	H	0.618637	0.110438	-0.186072
H136	H	1.118637	0.610438	0.313928
Br137	Br	0.569848	-0.097090	-0.000146
Br138	Br	1.069848	0.402910	0.499854
H139	H	0.619109	0.361288	0.695995
H140	H	1.119109	0.861288	1.195995
Br141	Br	0.117320	0.196070	0.241404
Br142	Br	0.617320	0.696070	0.741404
H143	H	0.851589	-0.547550	-0.000192
H144	H	1.351589	-0.047550	0.499808
H145	H	0.575234	-0.292656	-0.000125
H146	H	1.075234	0.207344	0.499875
H147	H	0.852971	0.078127	0.303724
H148	H	1.352971	0.578127	0.803724
Br149	Br	0.928984	-0.557673	-0.000231
Br150	Br	1.428984	-0.057673	0.499769
H151	H	1.019769	-0.416743	-0.000209
H152	H	1.519769	0.083257	0.499791
H153	H	0.487097	0.107388	-0.186091
H154	H	0.987097	0.607388	0.313909
H155	H	0.912925	0.005546	0.373858
H156	H	1.412925	0.505546	0.873858
Br157	Br	0.388500	0.202389	0.241444
Br158	Br	0.888500	0.702389	0.741444
Br159	Br	0.992512	-0.090776	0.728010
Br160	Br	1.492512	0.409224	1.228010
H161	H	0.549988	0.193497	0.185833
H162	H	1.049988	0.693497	0.685833
Br163	Br	0.698982	0.264571	0.867575
Br164	Br	1.198982	0.764571	1.367575
H165	H	0.590363	0.396064	0.518507
H166	H	1.090363	0.896064	1.018507
H167	H	1.004644	-0.105489	0.481187
H168	H	1.504644	0.394511	0.981187
