data_functionalizedCrystal
_audit_creation_method	'MofGen! by Chris Wilmer'
_symmetry_space_group_name_H-M	'P1'
_symmetry_Int_Tables_number	1
_symmetry_cell_setting	triclinic
loop_
_symmetry_equiv_pos_as_xyz
  x,y,z
_cell_length_a	21.295419
_cell_length_b	16.120530
_cell_length_c	16.120256
_cell_angle_alpha	90.128265
_cell_angle_beta	87.112362
_cell_angle_gamma	92.901750
loop_
_atom_site_label
_atom_site_type_symbol
_atom_site_fract_x
_atom_site_fract_y
_atom_site_fract_z
Zn1	Zn	0.318941	1.247593	-0.534665
Zn2	Zn	0.419151	1.254592	-0.395637
Zn3	Zn	0.308300	1.115578	-0.388579
Zn4	Zn	0.418574	1.108548	-0.527607
O5	O	0.366241	1.181578	-0.461622
O6	O	0.336928	1.364890	-0.522130
O7	O	0.400235	1.242023	-0.278334
O8	O	0.221622	1.133104	-0.407957
O9	O	0.410553	1.370032	-0.419987
O10	O	0.229440	1.230094	-0.515286
O11	O	0.318792	1.139890	-0.273148
O12	O	0.318233	0.998277	-0.401114
O13	O	0.409570	1.121121	-0.644910
O14	O	0.399252	0.993112	-0.503257
O15	O	0.336369	1.223277	-0.650096
O16	O	0.507164	1.235206	-0.413144
O17	O	0.506740	1.127908	-0.510101
C18	C	0.357526	0.965522	-0.450654
C19	C	0.353813	0.873091	-0.445981
C20	C	0.347020	0.703858	-0.437458
C21	C	0.385512	0.660135	-0.485847
C22	C	0.381732	0.565968	-0.481104
C23	C	0.350799	0.798034	-0.442199
C24	C	0.202052	1.181602	-0.461621
C25	C	0.132084	1.181613	-0.461621
C26	C	0.095147	1.131125	-0.405743
C27	C	0.029405	1.131123	-0.405753
C28	C	0.000603	1.181625	-0.461633
C29	C	0.037549	1.232116	-0.517522
C30	C	0.103290	1.232110	-0.517516
N31	N	-0.099451	1.254104	-0.471714
N32	N	-0.161902	1.254108	-0.471715
C33	C	-0.197470	1.181645	-0.461655
N34	N	-0.168229	1.109177	-0.451579
N35	N	-0.105772	1.109175	-0.451574
C36	C	-0.070682	1.181637	-0.461646
C37	C	-0.305693	1.131151	-0.405784
C38	C	-0.371437	1.131147	-0.405800
C39	C	-0.363291	1.232148	-0.517565
C40	C	-0.297549	1.232144	-0.517554
C41	C	-0.268754	1.181646	-0.461659
C42	C	0.529794	1.181575	-0.461642
C43	C	0.599766	1.181649	-0.461682
C44	C	0.374092	1.170634	-0.678519
C45	C	0.377438	1.165971	-0.770948
C46	C	0.374992	1.398478	-0.472633
C47	C	0.378721	1.490908	-0.477326
C48	C	0.348779	1.205896	-0.983923
C49	C	0.383518	1.157429	-0.940170
C50	C	0.380134	1.162183	-0.846006
C51	C	0.352163	1.201143	-1.078096
C52	C	0.358378	1.192527	-0.245571
C53	C	0.354862	1.197351	-0.153151
H54	H	0.421304	0.693425	-0.530836
H55	H	0.415798	1.112359	-0.973431
C56	C	-0.412068	1.075609	-0.344329
H57	H	-0.385501	1.045542	-0.311036
H58	H	-0.438021	1.037769	-0.374296
H59	H	-0.437745	1.109259	-0.309716
H60	H	0.014095	1.273234	-0.563022
H61	H	0.311231	0.670571	-0.392472
C62	C	0.305176	1.266778	-0.938997
H63	H	0.308601	1.262030	-0.880685
H64	H	0.262887	1.253924	-0.952544
H65	H	0.317153	1.321948	-0.956029
H66	H	-0.000675	1.090008	-0.360248
C67	C	0.126818	1.075571	-0.344269
H68	H	0.095399	1.045496	-0.310996
H69	H	0.152435	1.109204	-0.309649
H70	H	0.152153	1.037725	-0.374243
H71	H	0.133364	1.273223	-0.563022
C72	C	-0.274013	1.075603	-0.344311
H73	H	-0.229569	1.082839	-0.352302
H74	H	-0.286595	1.019116	-0.353644
H75	H	-0.286325	1.090599	-0.289055
C76	C	-0.394965	1.287699	-0.579034
H77	H	-0.439409	1.280476	-0.571032
H78	H	-0.382655	1.272711	-0.634287
H79	H	-0.382381	1.344189	-0.569693
H80	H	-0.267474	1.273262	-0.563052
