data_functionalizedCrystal
_audit_creation_method	'MofGen! by Chris Wilmer'
_symmetry_space_group_name_H-M	'P1'
_symmetry_Int_Tables_number	1
_symmetry_cell_setting	triclinic
loop_
_symmetry_equiv_pos_as_xyz
  x,y,z
_cell_length_a	27.440280
_cell_length_b	14.809436
_cell_length_c	27.440280
_cell_angle_alpha	112.567360
_cell_angle_beta	89.999642
_cell_angle_gamma	52.841672
loop_
_atom_site_label
_atom_site_type_symbol
_atom_site_fract_x
_atom_site_fract_y
_atom_site_fract_z
Zr1	Zr	0.410082	1.000496	0.004557
O2	O	0.320936	1.191202	0.071040
O3	O	0.445263	0.809788	-0.007970
O4	O	0.433936	1.000474	0.082369
O5	O	0.332265	1.000533	-0.099494
O6	O	0.514139	1.000460	0.082373
O7	O	0.332263	1.000515	-0.019299
O8	O	0.534401	0.659356	-0.079228
O9	O	0.312003	1.341636	0.062108
O10	O	0.510633	0.888219	-0.022798
O11	O	0.450780	0.888243	-0.082649
O12	O	0.437444	1.112752	0.023715
O13	O	0.377591	1.112776	-0.036137
Zr14	Zr	0.537998	1.000501	-0.123337
Zr15	Zr	0.537996	1.000472	0.004564
Zr16	Zr	0.410084	1.000524	-0.123343
Zr17	Zr	0.395834	1.240421	-0.009689
Zr18	Zr	0.552246	0.760575	-0.109091
O19	O	0.502817	1.191209	-0.110810
O20	O	0.502814	1.191169	0.071049
O21	O	0.320940	1.191242	-0.110818
O22	O	0.627144	0.809795	-0.189820
O23	O	0.627140	0.809755	-0.007962
O24	O	0.445266	0.809828	-0.189829
O25	O	0.615815	1.000463	-0.019286
O26	O	0.514144	1.000522	-0.201149
O27	O	0.433941	1.000537	-0.201153
O28	O	0.615817	1.000481	-0.099480
O29	O	0.413677	1.341618	0.062112
O30	O	0.534403	0.659379	-0.180892
O31	O	0.636077	0.659360	-0.180888
O32	O	0.636075	0.659338	-0.079223
O33	O	0.312005	1.341659	-0.039556
O34	O	0.413679	1.341640	-0.039552
O35	O	0.510636	0.888245	-0.142494
O36	O	0.570489	0.888221	-0.082643
O37	O	0.497300	1.112754	-0.036131
O38	O	0.437446	1.112778	-0.095982
C39	C	0.491862	0.700388	-0.041569
C40	C	0.497910	0.598533	-0.035521
C41	C	0.314039	1.000527	-0.059398
C42	C	0.259736	1.000537	-0.059400
C43	C	0.477164	0.447864	-0.056266
C44	C	0.470912	0.553135	-0.062518
C45	C	-0.076959	1.000460	-0.015208
C46	C	-0.127976	1.000451	-0.015207
O47	O	-0.154349	1.000394	0.022357
N48	N	-0.153493	1.000463	-0.059386
C49	C	-0.127986	1.000471	-0.103572
O50	O	-0.154375	1.000479	-0.141150
C51	C	-0.076967	1.000471	-0.103574
C52	C	-0.051456	1.000472	-0.059389
C53	C	-0.051448	1.000459	0.028973
C54	C	-0.000435	1.000471	0.028973
C55	C	0.025067	1.000483	-0.015209
C56	C	-0.000443	1.000483	-0.059390
C57	C	-0.051457	1.000470	-0.147761
C58	C	-0.000434	1.000469	-0.147760
C59	C	0.025076	1.000470	-0.103575
C60	C	0.076072	1.000507	-0.103572
N61	N	0.101589	1.000495	-0.059392
C62	C	0.076087	1.000483	-0.015211
C63	C	-0.235130	1.000469	-0.103564
C64	C	-0.286151	1.000478	-0.103560
C65	C	-0.286137	1.000455	-0.015196
C66	C	-0.235118	1.000455	-0.015198
C67	C	-0.209613	1.000456	-0.059385
C68	C	0.183218	1.000508	-0.015215
C69	C	0.234233	1.000525	-0.015219
C70	C	0.234217	1.000541	-0.103584
C71	C	0.183203	1.000531	-0.103580
C72	C	0.157706	1.000510	-0.059392
O73	O	0.102479	1.000558	-0.141117
O74	O	0.102487	1.000458	0.022357
C75	C	0.634041	1.000469	-0.059382
C76	C	0.688344	1.000459	-0.059380
C77	C	0.474037	1.000463	0.100595
C78	C	0.474036	1.000451	0.154892
C79	C	0.456218	1.300609	-0.077210
C80	C	0.450170	1.402463	-0.083259
C81	C	0.435830	1.117723	0.515901
C82	C	0.435830	1.117731	0.566923
O83	O	0.403357	1.217408	0.613959
N84	N	0.474033	1.000528	0.568161
C85	C	0.512242	0.883311	0.518373
O86	O	0.544737	0.783621	0.524111
C87	C	0.512245	0.883305	0.467353
C88	C	0.474035	1.000515	0.466119
C89	C	0.397624	1.234924	0.514665
C90	C	0.397622	1.234917	0.463647
C91	C	0.435828	1.117708	0.413864
C92	C	0.474034	1.000508	0.415100
C93	C	0.550457	0.766089	0.417566
C94	C	0.550457	0.766093	0.366544
C95	C	0.512247	0.883303	0.365310
C96	C	0.512238	0.883292	0.314299
N97	N	0.474035	1.000494	0.313061
C98	C	0.435830	1.117702	0.362844
C99	C	0.512234	0.883332	0.625522
C100	C	0.512229	0.883336	0.676541
C101	C	0.435817	1.117757	0.725088
C102	C	0.435820	1.117751	0.674067
C103	C	0.474032	1.000534	0.624284
C104	C	0.435830	1.117678	0.255699
C105	C	0.435831	1.117659	0.204674
C106	C	0.512244	0.883240	0.156133
C107	C	0.512242	0.883257	0.207153
C108	C	0.474033	1.000486	0.256937
O109	O	0.544696	0.783665	0.267241
O110	O	0.403347	1.217375	0.357096
C111	C	0.474038	1.000533	0.780626
C112	C	0.474026	1.000545	0.726328
C113	C	0.651863	0.700359	-0.041562
C114	C	0.712214	0.598494	-0.035511
C115	C	0.491865	0.700423	-0.201554
C116	C	0.497914	0.598580	-0.249803
C117	C	0.651866	0.700394	-0.201546
C118	C	0.712219	0.598541	-0.249793
C119	C	0.296214	1.300603	0.082766
C120	C	0.235861	1.402455	0.131013
C121	C	0.296217	1.300638	-0.077218
C122	C	0.235866	1.402502	-0.083269
C123	C	0.456215	1.300573	0.082774
C124	C	0.450166	1.402416	0.131023
C125	C	0.709312	0.550656	-0.001426
C126	C	0.766013	0.454957	0.004271
C127	C	0.825616	0.407090	-0.024122
C128	C	0.828517	0.454938	-0.058209
C129	C	0.771816	0.550642	-0.063902
C130	C	0.531999	0.550755	-0.303705
C131	C	0.537680	0.455076	-0.349046
C132	C	0.509280	0.407218	-0.340483
C133	C	0.475191	0.455053	-0.286576
C134	C	0.469506	0.550736	-0.241236
C135	C	0.771809	0.550697	-0.241208
C136	C	0.828521	0.455009	-0.286537
C137	C	0.825641	0.407160	-0.340450
C138	C	0.766044	0.455013	-0.349033
C139	C	0.709333	0.550706	-0.303706
C140	C	0.176270	1.450311	0.122428
C141	C	0.119557	1.546029	0.167755
C142	C	0.122436	1.593883	0.221667
C143	C	0.182033	1.546024	0.230251
C144	C	0.238745	1.450314	0.184924
C145	C	0.238767	1.450350	-0.117349
C146	C	0.182065	1.546076	-0.123033
C147	C	0.122462	1.593946	-0.094639
C148	C	0.119561	1.546094	-0.060554
C149	C	0.176263	1.450376	-0.054868
C150	C	0.478574	1.450244	0.122443
C151	C	0.472902	1.545924	0.167774
C152	C	0.438818	1.593780	0.221684
C153	C	0.410409	1.545943	0.230264
C154	C	0.416085	1.450258	0.184934
H155	H	0.504900	0.408804	-0.028525
F156	F	0.552902	0.758510	0.208467
H157	H	0.452069	0.416072	-0.279611
F158	F	-0.207972	1.000454	0.031829
F159	F	0.056136	1.596943	0.158607
F160	F	0.891942	0.404093	-0.277390
F161	F	0.503138	1.596824	0.158631
H162	H	0.871823	0.329240	-0.377354
H163	H	0.763709	0.416040	-0.392935
F164	F	0.302165	1.399385	0.194070
H165	H	0.382658	1.584922	0.274164
H166	H	0.162464	1.000489	0.020766
H167	H	0.255001	1.000530	0.020764
H168	H	0.287294	1.411382	-0.140476
F169	F	0.891957	0.403978	-0.088425
F170	F	0.185165	1.596982	-0.159313
F171	F	0.432781	1.695619	0.269924
F172	F	0.514852	1.399329	0.065071
F173	F	0.385841	1.399376	0.194074
F174	F	0.395165	1.242446	0.308677
F175	F	0.261365	1.000558	-0.150603
H176	H	-0.072206	1.000445	0.064952
H177	H	0.076296	1.671885	-0.099274
H178	H	0.525648	0.559476	-0.007779
F179	F	0.645915	0.601609	-0.312850
F180	F	0.056121	1.597051	-0.030339
H181	H	0.774188	0.589579	-0.091661
H182	H	0.173914	1.411353	0.078534
F183	F	0.515336	0.305381	-0.388743
F184	F	0.552887	0.758585	0.677848
H185	H	0.404706	1.213194	0.673068
F186	F	-0.207994	1.000483	-0.150594
F187	F	0.645884	0.601585	0.028799
H188	H	0.173891	1.411421	-0.027117
H189	H	0.443168	0.592203	-0.090255
H190	H	0.076253	1.671815	0.258570
F191	F	0.413908	0.453528	-0.119512
F192	F	0.185088	1.596964	0.287633
H193	H	-0.072220	1.000468	-0.183740
F194	F	0.026713	1.000463	0.075998
H195	H	0.555127	0.589710	-0.310688
F196	F	-0.313304	1.000501	-0.150583
F197	F	0.026708	1.000466	-0.194792
F198	F	-0.313287	1.000439	0.031826
H199	H	0.162426	1.000549	-0.139555
F200	F	0.433230	0.601620	-0.183870
F201	F	0.356946	1.359669	0.462341
F202	F	0.395157	1.242416	0.203366
H203	H	0.366512	1.330375	0.555196
H204	H	0.871781	0.329161	-0.019482
F205	F	0.395158	1.242501	0.778079
H206	H	0.543349	0.787874	0.584987
F207	F	0.591126	0.641335	0.418866
H208	H	0.543348	0.787812	0.115591
F209	F	0.591133	0.641331	0.313562
H210	H	0.763639	0.416011	0.032027
F211	F	0.573965	0.404181	-0.406414
F212	F	0.774888	0.601611	-0.183835
