data_functionalizedCrystal
_audit_creation_method	'MofGen! by Chris Wilmer'
_symmetry_space_group_name_H-M	'P1'
_symmetry_Int_Tables_number	1
_symmetry_cell_setting	triclinic
loop_
_symmetry_equiv_pos_as_xyz
  x,y,z
_cell_length_a	25.639242
_cell_length_b	16.959454
_cell_length_c	16.959447
_cell_angle_alpha	90.026818
_cell_angle_beta	89.973163
_cell_angle_gamma	89.984397
loop_
_atom_site_label
_atom_site_type_symbol
_atom_site_fract_x
_atom_site_fract_y
_atom_site_fract_z
Zn1	Zn	0.799317	0.314760	-0.447137
Zn2	Zn	1.299317	0.814760	0.052863
Zn3	Zn	0.799262	0.446952	-0.314967
Zn4	Zn	1.299262	0.946952	0.185033
Zn5	Zn	0.711886	0.314781	-0.314952
Zn6	Zn	1.211886	0.814781	0.185048
Zn7	Zn	0.711867	0.446890	-0.447082
Zn8	Zn	1.211867	0.946890	0.052918
O9	O	0.755583	0.380846	-0.381034
O10	O	1.255583	0.880846	0.118966
O11	O	0.872475	0.332312	-0.429633
O12	O	1.372475	0.832312	0.070367
O13	O	0.787656	0.429455	-0.204354
O14	O	1.287656	0.929455	0.295646
O15	O	0.723515	0.204167	-0.332503
O16	O	1.223515	0.704167	0.167497
O17	O	0.872434	0.429434	-0.332528
O18	O	1.372434	0.929434	0.167472
O19	O	0.787750	0.204152	-0.429619
O20	O	1.287750	0.704152	0.070381
O21	O	0.723462	0.332349	-0.204343
O22	O	1.223462	0.832349	0.295657
O23	O	0.638718	0.332289	-0.332450
O24	O	1.138718	0.832289	0.167550
O25	O	0.723482	0.429327	-0.557701
O26	O	1.223482	0.929327	-0.057701
O27	O	0.638704	0.429348	-0.429526
O28	O	1.138704	0.929348	0.070474
O29	O	0.787731	0.332252	-0.557741
O30	O	1.287731	0.832252	-0.057741
O31	O	0.787637	0.557555	-0.332476
O32	O	1.287637	1.057555	0.167524
O33	O	0.723429	0.557509	-0.429541
O34	O	1.223429	1.057509	0.070459
C35	C	0.755539	0.586212	-0.381021
C36	C	1.255539	1.086212	0.118979
C37	C	0.755568	0.674068	-0.381042
C38	C	1.255568	1.174068	0.118958
C39	C	0.619740	0.380814	-0.380981
C40	C	1.119740	0.880814	0.119019
C41	C	0.561626	0.380820	-0.380977
C42	C	1.061626	0.880820	0.119023
C43	C	0.755611	0.380780	-0.587203
C44	C	1.255611	0.880780	-0.087203
C45	C	0.755623	0.380752	-0.675059
C46	C	1.255623	0.880752	-0.175059
C47	C	0.201265	0.431469	-0.431534
C48	C	0.701265	0.931469	0.068466
C49	C	0.146660	0.431474	-0.431546
C50	C	0.646660	0.931474	0.068454
O51	O	0.118425	0.474499	-0.474487
O52	O	0.618425	0.974499	0.025513
N53	N	0.119344	0.380867	-0.381086
N54	N	0.619344	0.880867	0.118914
C55	C	0.146634	0.330247	-0.330616
C56	C	0.646634	0.830247	0.169384
O57	O	0.118385	0.287202	-0.287697
O58	O	0.618385	0.787202	0.212303
C59	C	0.201238	0.330239	-0.330608
C60	C	0.701238	0.830239	0.169392
C61	C	0.228551	0.380854	-0.381066
C62	C	0.728551	0.880854	0.118934
C63	C	0.228578	0.482080	-0.481989
C64	C	0.728578	0.982080	0.018011
C65	C	0.283179	0.482076	-0.481975
C66	C	0.783179	0.982076	0.018025
C67	C	0.310466	0.431461	-0.431507
C68	C	0.810466	0.931461	0.068493
C69	C	0.283152	0.380850	-0.381052
C70	C	0.783152	0.880850	0.118948
C71	C	0.228527	0.279615	-0.280142
C72	C	0.728527	0.779615	0.219858
C73	C	0.283134	0.279611	-0.280139
C74	C	0.783134	0.779611	0.219861
C75	C	0.310448	0.330226	-0.330597
C76	C	0.810448	0.830226	0.169403
C77	C	0.365039	0.330232	-0.330570
C78	C	0.865039	0.830232	0.169430
N79	N	0.392356	0.380838	-0.381030
N80	N	0.892356	0.880838	0.118970
C81	C	0.365069	0.431453	-0.431499
C82	C	0.865069	0.931453	0.068501
C83	C	0.031964	0.330267	-0.330637
C84	C	0.531964	0.830267	0.169363
C85	C	-0.022639	0.330279	-0.330640
C86	C	0.477361	0.830279	0.169360
C87	C	-0.022609	0.431505	-0.431572
C88	C	0.477391	0.931505	0.068428
C89	C	0.031994	0.431497	-0.431565
C90	C	0.531994	0.931497	0.068435
C91	C	0.059280	0.380874	-0.381097
C92	C	0.559280	0.880874	0.118903
C93	C	0.479734	0.431441	-0.431466
C94	C	0.979734	0.931441	0.068534
C95	C	0.534339	0.431435	-0.431445
C96	C	1.034339	0.931435	0.068555
C97	C	0.534305	0.330206	-0.330516
C98	C	1.034305	0.830206	0.169484
C99	C	0.479704	0.330215	-0.330533
C100	C	0.979704	0.830215	0.169467
C101	C	0.452420	0.380835	-0.381014
C102	C	0.952420	0.880835	0.118986
O103	O	0.393309	0.287227	-0.287654
O104	O	0.893309	0.787227	0.212346
O105	O	0.393325	0.474483	-0.474418
O106	O	0.893325	0.974483	0.025582
C107	C	0.891956	0.380877	-0.381089
C108	C	1.391956	0.880877	0.118911
C109	C	0.950070	0.380891	-0.381112
C110	C	1.450070	0.880891	0.118888
C111	C	0.755641	0.174677	-0.381065
C112	C	1.255641	0.674677	0.118935
C113	C	0.755666	0.086821	-0.381078
C114	C	1.255666	0.586821	0.118922
C115	C	0.722198	1.045550	-0.431571
C116	C	1.222198	1.545550	0.068429
C117	C	0.789113	1.045538	-0.330579
C118	C	1.289113	1.545538	0.169421
C119	C	0.789095	0.962992	-0.330571
C120	C	1.289095	1.462992	0.169429
C121	C	0.755627	0.921721	-0.381064
C122	C	1.255627	1.421721	0.118936
C123	C	0.722177	0.962997	-0.431563
C124	C	1.222177	1.462997	0.068437
C125	C	0.822540	0.921711	-0.280067
C126	C	1.322540	1.421711	0.219933
C127	C	0.822523	0.839160	-0.280057
C128	C	1.322523	1.339160	0.219943
C129	C	0.789057	0.797888	-0.330554
C130	C	1.289057	1.297888	0.169446
C131	C	0.755607	0.839168	-0.381056
C132	C	1.255607	1.339168	0.118944
C133	C	0.722139	0.797897	-0.431549
C134	C	1.222139	1.297897	0.068451
C135	C	0.688690	0.839176	-0.482056
C136	C	1.188690	1.339176	0.017944
C137	C	0.688712	0.921724	-0.482060
C138	C	1.188712	1.421724	0.017940
C139	C	0.789036	0.715339	-0.330549
C140	C	1.289036	1.215339	0.169451
C141	C	0.722118	0.715344	-0.431541
C142	C	1.222118	1.215344	0.068459
C143	C	0.722246	0.330110	-1.046536
C144	C	1.222246	0.830110	-0.546536
C145	C	0.789092	0.431227	-1.046535
C146	C	1.289092	0.931227	-0.546535
C147	C	0.789083	0.431245	-0.963989
C148	C	1.289083	0.931245	-0.463989
C149	C	0.755654	0.380696	-0.922713
C150	C	1.255654	0.880696	-0.422713
C151	C	0.722234	0.330129	-0.963982
C152	C	1.222234	0.830129	-0.463982
C153	C	0.822498	0.481818	-0.922713
C154	C	1.322498	0.981818	-0.422713
C155	C	0.822490	0.481839	-0.840162
C156	C	1.322490	0.981839	-0.340162
C157	C	0.789063	0.431285	-0.798884
C158	C	1.289063	0.931285	-0.298884
C159	C	0.755643	0.380715	-0.840159
C160	C	1.255643	0.880715	-0.340159
C161	C	0.722214	0.330166	-0.798883
C162	C	1.222214	0.830166	-0.298883
C163	C	0.688796	0.279591	-0.840156
C164	C	1.188796	0.779591	-0.340156
C165	C	0.688808	0.279575	-0.922704
C166	C	1.188808	0.779575	-0.422704
C167	C	0.789051	0.431301	-0.716336
C168	C	1.289051	0.931301	-0.216336
C169	C	0.722203	0.330184	-0.716329
C170	C	1.222203	0.830184	-0.216329
C171	C	0.755585	0.380854	-0.175668
C172	C	1.255585	0.880854	0.324332
C173	C	0.755674	0.380659	-0.087812
C174	C	1.255674	0.880659	0.412188
H175	H	0.556576	0.472655	-0.472535
H176	H	1.056576	0.972655	0.027465
H177	H	0.661576	0.238437	-0.806538
H178	H	1.161576	0.738437	-0.306538
N179	N	0.688104	0.278453	-1.088677
N180	N	1.188104	0.778453	-0.588677
N181	N	0.658259	0.233328	-1.051811
N182	N	1.158259	0.733328	-0.551811
H183	H	0.634145	0.196845	-1.081573
H184	H	1.134145	0.696845	-0.581573
N185	N	0.200703	0.533793	-0.533529
N186	N	0.700703	1.033793	-0.033529
N187	N	0.151951	0.533812	-0.533535
N188	N	0.651951	1.033812	-0.033535
H189	H	0.132266	0.570343	-0.569932
H190	H	0.632266	1.070343	-0.069932
N191	N	0.059900	0.483195	-0.483099
N192	N	0.559900	0.983195	0.016901
N193	N	0.090354	0.533525	-0.455201
N194	N	0.590354	1.033525	0.044799
H195	H	0.110061	0.570039	-0.491599
H196	H	0.610061	1.070039	0.008401
H197	H	0.849784	0.955319	-0.238953
H198	H	1.349784	1.455319	0.261047
N199	N	0.856679	0.796994	-0.228459
N200	N	1.356679	1.296994	0.271541
N201	N	0.838287	0.750983	-0.178056
N202	N	1.338287	1.250983	0.321944
H203	H	0.862408	0.721203	-0.141610
H204	H	1.362408	1.221203	0.358390
H205	H	-0.044836	0.472716	-0.472669
H206	H	0.455164	0.972716	0.027331
H207	H	0.816264	0.472473	-0.682735
H208	H	1.316264	0.972473	-0.182735
H209	H	0.816267	0.681734	-0.289424
H210	H	1.316267	1.181734	0.210576
N211	N	-0.050527	0.278584	-0.279081
N212	N	0.449473	0.778584	0.220919
N213	N	-0.026151	0.233402	-0.234023
N214	N	0.473849	0.733402	0.265977
H215	H	-0.045845	0.196888	-0.197609
H216	H	0.454155	0.696888	0.302391
N217	N	0.654512	0.797014	-0.533642
N218	N	1.154512	1.297014	-0.033642
N219	N	0.657957	0.806178	-0.606586
N220	N	1.157957	1.306178	-0.106586
H221	H	0.633820	0.776399	-0.643020
H222	H	1.133820	1.276399	-0.143020
H223	H	0.054176	0.289045	-0.289535
H224	H	0.554176	0.789045	0.210465
H225	H	0.849701	0.523021	-0.806564
H226	H	1.349701	1.023021	-0.306564
H227	H	0.694983	0.289017	-0.682728
H228	H	1.194983	0.789017	-0.182728
H229	H	0.305413	0.523290	-0.523065
H230	H	0.805413	1.023290	-0.023065
N231	N	0.451877	0.483150	-0.483037
N232	N	0.951877	0.983150	0.016963
N233	N	0.476280	0.528331	-0.528078
N234	N	0.976280	1.028331	-0.028078
H235	H	0.456607	0.564853	-0.564498
H236	H	0.956607	1.064853	-0.064498
H237	H	0.661479	0.955341	-0.523179
H238	H	1.161479	1.455341	-0.023179
H239	H	0.661600	0.238401	-0.956316
H240	H	1.161600	0.738401	-0.456316
H241	H	0.206298	0.238401	-0.239051
H242	H	0.706298	0.738401	0.260949
N243	N	0.310997	0.227887	-0.228588
N244	N	0.810997	0.727887	0.271412
N245	N	0.286599	0.182700	-0.183548
N246	N	0.786599	0.682700	0.316452
H247	H	0.306275	0.146169	-0.147140
H248	H	0.806275	0.646169	0.352860
N249	N	0.451809	0.278517	-0.278980
N250	N	0.951809	0.778517	0.221020
N251	N	0.476181	0.233332	-0.233921
N252	N	0.976181	0.733332	0.266079
H253	H	0.456484	0.196814	-0.197514
H254	H	0.956484	0.696814	0.302486
H255	H	0.694966	1.079163	-0.472694
H256	H	1.194966	1.579163	0.027306
N257	N	0.823228	0.482861	-1.088706
N258	N	1.323228	0.982861	-0.588706
N259	N	0.823230	0.482842	-1.162410
N260	N	1.323230	0.982842	-0.662410
H261	H	0.847340	0.519310	-1.192198
H262	H	1.347340	1.019310	-0.692198
N263	N	0.823290	1.087704	-0.279003
N264	N	1.323290	1.587704	0.220997
N265	N	0.823300	1.161408	-0.279013
N266	N	1.323300	1.661408	0.220987
H267	H	0.847439	1.191191	-0.242586
H268	H	1.347439	1.691191	0.257414
N269	N	0.562194	0.278505	-0.278981
N270	N	1.062194	0.778505	0.221019
N271	N	0.592682	0.228178	-0.306888
N272	N	1.092682	0.728178	0.193112
H273	H	0.612381	0.191660	-0.270496
H274	H	1.112381	0.691660	0.229504
H275	H	0.849708	0.522981	-0.956326
H276	H	1.349708	1.022981	-0.456326
H277	H	0.694866	0.681746	-0.472662
H278	H	1.194866	1.181746	0.027338
