data_functionalizedCrystal
_audit_creation_method	'MofGen! by Chris Wilmer'
_symmetry_space_group_name_H-M	'P1'
_symmetry_Int_Tables_number	1
_symmetry_cell_setting	triclinic
loop_
_symmetry_equiv_pos_as_xyz
  x,y,z
_cell_length_a	18.050589
_cell_length_b	12.594517
_cell_length_c	12.594509
_cell_angle_alpha	89.978673
_cell_angle_beta	90.027696
_cell_angle_gamma	89.971979
loop_
_atom_site_label
_atom_site_type_symbol
_atom_site_fract_x
_atom_site_fract_y
_atom_site_fract_z
Zn1	Zn	-0.295641	-1.627177	0.601864
Zn2	Zn	-0.419845	-1.627030	0.423887
Zn3	Zn	-0.295673	-1.449181	0.423893
Zn4	Zn	-0.419793	-1.449125	0.601817
O5	O	-0.357738	-1.538128	0.512865
O6	O	-0.312125	-1.776103	0.578272
O7	O	-0.403408	-1.603400	0.274942
O8	O	-0.191744	-1.472877	0.447523
O9	O	-0.403377	-1.775995	0.447513
O10	O	-0.191721	-1.603650	0.578278
O11	O	-0.312179	-1.472735	0.274946
O12	O	-0.312129	-1.300228	0.447478
O13	O	-0.403289	-1.472782	0.750769
O14	O	-0.403320	-1.300187	0.578198
O15	O	-0.312075	-1.603596	0.750804
O16	O	-0.523763	-1.603346	0.447468
O17	O	-0.523725	-1.472640	0.578192
C18	C	-0.357723	-1.261587	0.512834
C19	C	-0.357735	-1.143282	0.512846
C20	C	-0.550690	-1.538000	0.512848
C21	C	-0.633236	-1.538042	0.512876
C22	C	-0.357673	-1.538200	0.790486
C23	C	-0.357645	-1.538230	0.908792
C24	C	-0.832693	-1.467034	0.583939
C25	C	-0.882138	-1.441086	0.486814
C26	C	-0.784366	-1.538147	0.512889
C27	C	-0.882003	-1.564147	0.610026
C28	C	-0.930351	-1.538246	0.512911
C29	C	-0.832724	-1.512147	0.415713
C30	C	-0.832585	-1.635254	0.538990
C31	C	-0.882007	-1.609343	0.441799
C32	C	-0.700268	-1.538087	0.512878
C33	C	-1.014448	-1.538306	0.512912
C34	C	-0.164032	-1.538286	0.512906
C35	C	-0.081487	-1.538354	0.512924
C36	C	-0.357753	-1.815749	0.512897
C37	C	-0.357760	-1.934055	0.512911
C38	C	-0.308068	-1.074020	0.441883
C39	C	-0.375810	-1.003188	0.415704
C40	C	-0.290026	-1.003314	0.539043
C41	C	-0.425512	-1.074008	0.486616
C42	C	-0.339682	-1.074141	0.610001
C43	C	-0.407471	-1.003341	0.583858
C44	C	-0.357749	-1.538119	0.236324
C45	C	-0.357568	-1.538294	0.118019
C46	C	-0.407228	-1.467103	0.978026
C47	C	-0.425374	-1.564218	1.048817
C48	C	-0.339455	-1.441191	1.048800
C49	C	-0.375826	-1.635396	0.978024
C50	C	-0.289876	-1.512303	0.978001
C51	C	-0.307996	-1.609485	1.048760
H52	H	-0.811039	-1.406808	0.643938
H53	H	-0.903649	-1.586099	0.692164
H54	H	-0.232762	-0.972205	0.561137
Br55	Br	-0.796801	-1.475406	0.278769
H56	H	-0.391245	-1.717511	0.947065
Br57	Br	-0.520997	-1.125542	0.449573
Br58	Br	-0.238130	-1.125749	0.341744
Br59	Br	-0.477570	-0.951937	0.683931
Br60	Br	-0.194434	-1.475650	0.926114
H61	H	-0.324102	-1.359099	1.079890
Br62	Br	-0.477220	-1.366925	0.926257
H63	H	-0.324376	-1.105330	0.692110
H64	H	-0.903921	-1.359012	0.464757
Br65	Br	-0.401289	-0.951245	0.278811
H66	H	-0.810804	-1.717310	0.561093
Br67	Br	-0.917871	-1.709653	0.341562
H68	H	-0.482652	-1.586182	1.079923
Br69	Br	-0.238052	-1.709895	1.100207
