data_functionalizedCrystal
_audit_creation_method	'MofGen! by Chris Wilmer'
_symmetry_space_group_name_H-M	'P1'
_symmetry_Int_Tables_number	1
_symmetry_cell_setting	triclinic
loop_
_symmetry_equiv_pos_as_xyz
  x,y,z
_cell_length_a	12.759401
_cell_length_b	12.645330
_cell_length_c	12.759393
_cell_angle_alpha	90.030048
_cell_angle_beta	90.018496
_cell_angle_gamma	90.017853
loop_
_atom_site_label
_atom_site_type_symbol
_atom_site_fract_x
_atom_site_fract_y
_atom_site_fract_z
Zn1	Zn	1.606234	-0.421972	0.593992
Zn2	Zn	1.606119	-0.599276	0.418317
Zn3	Zn	1.430536	-0.422028	0.418332
Zn4	Zn	1.430515	-0.599195	0.593959
O5	O	1.518351	-0.510618	0.506150
O6	O	1.753239	-0.445503	0.570697
O7	O	1.582788	-0.575821	0.271298
O8	O	1.453899	-0.273673	0.441654
O9	O	1.753155	-0.575767	0.441629
O10	O	1.582983	-0.273632	0.570711
O11	O	1.453788	-0.445598	0.271309
O12	O	1.283512	-0.445518	0.441621
O13	O	1.453864	-0.575628	0.740984
O14	O	1.283497	-0.575682	0.570653
O15	O	1.582964	-0.445424	0.741009
O16	O	1.582768	-0.747613	0.441596
O17	O	1.453753	-0.747553	0.570639
C18	C	1.245383	-0.510598	0.506136
C19	C	1.128607	-0.510615	0.506155
C20	C	1.518274	-0.786048	0.506135
C21	C	1.518337	-0.903878	0.506164
C22	C	1.073764	-0.578500	0.573231
C23	C	0.964040	-0.578514	0.573242
C24	C	0.964011	-0.442755	0.439092
C25	C	1.073733	-0.442737	0.439087
C26	C	1.073781	-0.656883	0.650678
C27	C	0.964056	-0.656896	0.650689
C28	C	1.437509	-1.071448	0.587595
C29	C	1.437095	-0.948888	0.587334
C30	C	1.488364	-0.948482	0.395443
C31	C	1.487871	-1.071080	0.395937
C32	C	1.629634	-1.070964	0.534556
C33	C	1.628952	-0.948357	0.536977
C34	C	1.792384	-0.510638	0.506165
C35	C	1.909161	-0.510647	0.506171
C36	C	1.518424	-0.510511	0.780183
C37	C	1.518456	-0.510465	0.896960
C38	C	1.518456	-0.234112	0.506188
C39	C	1.518501	-0.116282	0.506204
C40	C	1.518338	-0.510648	0.233183
C41	C	1.518510	-0.510395	0.116407
C42	C	1.585687	-0.442661	0.951837
C43	C	1.585712	-0.442623	1.061561
C44	C	1.451271	-0.578202	1.061522
C45	C	1.451242	-0.578234	0.951800
C46	C	1.663309	-0.364389	0.951860
C47	C	1.663334	-0.364351	1.061584
H48	H	0.919319	-0.387489	0.384489
N49	N	0.921391	-0.620109	0.747707
N50	N	0.863533	-0.540372	0.749152
H51	H	0.833401	-0.514380	0.817667
N52	N	1.129737	-0.373375	0.370577
N53	N	1.080727	-0.312778	0.310703
H54	H	1.120279	-0.263787	0.262314
H55	H	1.406632	-1.099774	0.371918
N56	N	1.635970	-0.261410	0.914527
N57	N	1.549401	-0.221812	0.938200
H58	H	1.530085	-0.149087	0.911831
H59	H	1.103590	-0.634988	0.732084
N60	N	1.382611	-0.647429	1.117526
N61	N	1.322582	-0.707958	1.068512
H62	H	1.274085	-0.756849	1.108061
N63	N	1.760245	-0.401314	0.909170
N64	N	1.832863	-0.428937	0.968955
H65	H	1.901324	-0.455019	0.938805
H66	H	1.634224	-0.286344	1.095630
H67	H	1.107791	-0.734832	0.621395
N68	N	0.926680	-0.759869	0.623175
N69	N	0.990326	-0.832404	0.603773
H70	H	0.963931	-0.905126	0.584341
H71	H	1.544302	-1.100743	0.333226
N72	N	1.460623	-0.911060	0.690329
N73	N	1.477462	-0.975204	0.762908
H74	H	1.494075	-0.948493	0.835655
H75	H	1.744703	-0.386340	1.091363
N76	N	1.460879	-1.108266	0.690938
N77	N	1.537494	-1.167987	0.705812
H78	H	1.554022	-1.193970	0.778805
H79	H	1.656976	-1.101800	0.613922
N80	N	1.334803	-1.110225	0.564331
N81	N	1.320998	-1.170736	0.488068
H82	H	1.248463	-1.198126	0.471634
H83	H	1.354706	-0.919656	0.568550
H84	H	1.545485	-0.919329	0.333143
N85	N	1.387514	-0.910077	0.364773
N86	N	1.337542	-0.849871	0.424267
H87	H	1.266314	-0.822747	0.402612
N88	N	1.382570	-0.647494	0.895740
N89	N	1.419478	-0.715072	0.834497
H90	H	1.370975	-0.763987	0.794902
N91	N	1.657300	-0.911775	0.639200
N92	N	1.596323	-0.853159	0.689232
H93	H	1.616339	-0.827318	0.761429
H94	H	1.692473	-0.917711	0.482013
N95	N	1.705322	-1.107333	0.460180
N96	N	1.677680	-1.166371	0.386583
H97	H	1.731126	-1.192061	0.334049
