data_functionalizedCrystal
_audit_creation_method	'MofGen! by Chris Wilmer'
_symmetry_space_group_name_H-M	'P1'
_symmetry_Int_Tables_number	1
_symmetry_cell_setting	triclinic
loop_
_symmetry_equiv_pos_as_xyz
  x,y,z
_cell_length_a	15.995350
_cell_length_b	15.944551
_cell_length_c	15.072220
_cell_angle_alpha	89.997918
_cell_angle_beta	89.991149
_cell_angle_gamma	83.495557
loop_
_atom_site_label
_atom_site_type_symbol
_atom_site_fract_x
_atom_site_fract_y
_atom_site_fract_z
O1	O	1.111002	0.108264	-0.073709
O2	O	0.867227	0.121634	-0.073728
O3	O	0.995772	-0.007326	-0.073710
O4	O	0.982458	0.237224	-0.073727
O5	O	0.995740	-0.007319	0.073855
O6	O	0.867196	0.121641	0.073837
O7	O	1.110970	0.108271	0.073856
Zn8	Zn	0.989078	0.114957	0.097276
Zn9	Zn	0.989120	0.114948	-0.097148
O10	O	0.982426	0.237232	0.073838
C11	C	0.836017	0.121085	0.000053
C12	C	0.743066	0.119428	0.000046
C13	C	0.405318	0.113477	0.000065
C14	C	0.452747	0.021634	0.000400
C15	C	0.549438	0.023291	0.000061
C16	C	0.572879	0.116429	0.000056
C17	C	0.531813	0.161725	-0.084211
C18	C	0.435177	0.159417	-0.084275
C19	C	0.434802	0.161323	0.083534
C20	C	0.531747	0.161301	0.084642
C21	C	0.667577	0.118102	0.000048
C22	C	0.310620	0.111806	0.000067
C23	C	0.995203	-0.038616	0.000073
C24	C	0.993546	-0.131862	0.000073
C25	C	0.909908	-0.346714	0.000054
C26	C	0.948731	-0.407730	0.072816
C27	C	0.990548	-0.302588	0.000066
C28	C	0.948781	-0.407721	-0.072672
C29	C	0.987647	-0.467501	0.000055
C30	C	1.029394	-0.362376	0.072888
C31	C	1.029433	-0.362360	-0.072665
C32	C	1.068315	-0.423358	0.000114
C33	C	0.992217	-0.207586	0.000073
C34	C	0.985984	-0.562502	0.000055
C35	C	1.142181	0.108821	0.000074
C36	C	1.235131	0.110478	0.000075
C37	C	0.982995	0.268522	0.000053
C38	C	0.984652	0.361768	0.000047
N39	N	0.989055	0.114963	0.229965
N40	N	0.989149	0.114935	-0.229836
C41	C	0.989118	0.114945	0.589166
C42	C	0.920105	0.183717	0.551550
C43	C	0.920264	0.183968	0.448724
C44	C	0.989086	0.114954	0.410962
C45	C	1.076452	0.134096	0.448258
C46	C	1.076065	0.134585	0.551116
C47	C	0.971544	0.026826	0.551271
C48	C	0.969539	0.027414	0.448407
C49	C	0.989074	0.114958	0.310249
C50	C	0.989136	0.114943	0.689879
H51	H	0.559048	0.128236	0.146982
H52	H	0.577307	-0.012561	-0.060445
C53	C	1.075488	-0.335167	-0.155767
N54	N	1.110172	-0.314684	-0.218366
C55	C	1.147490	0.068229	0.415210
N56	N	1.200995	0.018617	0.390316
H57	H	1.135309	-0.456521	0.000160
C58	C	0.887328	0.001977	0.586345
N59	N	0.823892	-0.016730	0.612763
H60	H	0.931487	0.249360	0.424107
H61	H	1.091551	0.198850	0.575095
H62	H	0.905272	0.012886	0.424031
H63	H	0.545942	0.230150	-0.087348
H64	H	0.560199	0.130258	-0.146920
H65	H	0.914610	-0.427834	0.134325
C66	C	1.147544	0.069511	0.584733
N67	N	1.201390	0.020508	0.610049
C68	C	1.075412	-0.335371	0.156085
N69	N	1.110069	-0.315028	0.218749
H70	H	1.016539	-0.026161	0.422706
C71	C	0.902703	-0.434857	-0.155773
N72	N	0.867992	-0.455292	-0.218361
H73	H	0.547115	0.229220	0.089727
C74	C	1.039529	-0.042315	0.584140
N75	N	1.090737	-0.094386	0.608902
C76	C	0.832527	0.168576	0.414657
N77	N	0.766439	0.156987	0.389003
H78	H	0.577852	-0.012314	0.060467
C79	C	0.832090	0.168579	0.585016
N80	N	0.765795	0.157180	0.610235
C81	C	0.410458	0.114776	-0.169363
N82	N	0.391844	0.081147	-0.233451
C83	C	0.819484	-0.301705	0.000147
N84	N	0.751379	-0.267801	0.000222
C85	C	0.407047	0.120758	0.169823
N86	N	0.386144	0.090194	0.234811
H87	H	0.434210	-0.015075	0.060831
C88	C	0.426280	-0.027746	-0.080772
N89	N	0.406341	-0.064938	-0.141911
H90	H	1.092308	0.197628	0.422486
C91	C	0.391615	0.250509	-0.089465
N92	N	0.358808	0.319118	-0.093384
C93	C	0.391896	0.252802	0.084301
N94	N	0.359574	0.321700	0.084873
C95	C	0.935056	0.271563	0.586450
N96	N	0.946320	0.337727	0.612738
