data_functionalizedCrystal
_audit_creation_method	'MofGen! by Chris Wilmer'
_symmetry_space_group_name_H-M	'P1'
_symmetry_Int_Tables_number	1
_symmetry_cell_setting	triclinic
loop_
_symmetry_equiv_pos_as_xyz
  x,y,z
_cell_length_a	15.944545
_cell_length_b	15.021413
_cell_length_c	15.944551
_cell_angle_alpha	90.000443
_cell_angle_beta	96.502545
_cell_angle_gamma	89.990408
loop_
_atom_site_label
_atom_site_type_symbol
_atom_site_fract_x
_atom_site_fract_y
_atom_site_fract_z
O1	O	1.114514	0.073976	-0.108301
O2	O	1.614514	0.573976	0.391699
O3	O	0.869964	0.073991	-0.121663
O4	O	1.369964	0.573991	0.378337
O5	O	0.998917	0.073975	0.007293
O6	O	1.498917	0.573975	0.507293
O7	O	0.985561	0.073992	-0.237257
O8	O	1.485561	0.573992	0.262743
O9	O	0.998932	-0.074089	0.007285
O10	O	1.498932	0.425911	0.507285
O11	O	0.869979	-0.074073	-0.121671
O12	O	1.369979	0.425927	0.378329
O13	O	1.114529	-0.074088	-0.108309
O14	O	1.614529	0.425912	0.391691
Zn15	Zn	0.992257	-0.097589	-0.114991
Zn16	Zn	1.492257	0.402411	0.385009
Zn17	Zn	0.992237	0.097492	-0.114981
Zn18	Zn	1.492237	0.597492	0.385019
O19	O	0.985576	-0.074072	-0.237265
O20	O	1.485576	0.425928	0.262735
C21	C	0.838677	-0.000039	-0.121113
C22	C	1.338677	0.499961	0.378887
C23	C	0.745431	-0.000034	-0.119453
C24	C	1.245431	0.499966	0.380547
N25	N	0.992276	-0.230727	-0.114998
N26	N	1.492276	0.269273	0.385002
C27	C	0.474798	-0.000049	-0.034559
C28	C	0.974798	0.499951	0.465441
C29	C	0.525387	-0.073052	-0.075492
C30	C	1.025387	0.426948	0.424508
C31	C	0.409787	-0.000050	-0.113532
C32	C	0.909787	0.499950	0.386468
C33	C	0.525353	0.072928	-0.075505
C34	C	1.025353	0.572928	0.424495
C35	C	0.574701	-0.000040	-0.116437
C36	C	1.074701	0.499960	0.383563
C37	C	0.459148	-0.073113	-0.154444
C38	C	0.959148	0.426887	0.345556
C39	C	0.459110	0.072933	-0.154446
C40	C	0.959110	0.572933	0.345554
C41	C	0.509667	-0.000088	-0.195436
C42	C	1.009667	0.499912	0.304564
C43	C	0.314785	-0.000056	-0.111856
C44	C	0.814785	0.499944	0.388144
C45	C	0.669700	-0.000041	-0.118119
C46	C	1.169700	0.499959	0.381881
C47	C	1.051916	-0.470393	-0.055355
C48	C	1.551916	0.029607	0.444645
C49	C	0.976016	-0.529719	-0.039039
C50	C	1.476016	-0.029719	0.460961
C51	C	0.992257	-0.412333	-0.114987
C52	C	1.492257	0.087667	0.385013
C53	C	1.068138	-0.529749	-0.131253
C54	C	1.568138	-0.029749	0.368747
C55	C	0.992245	-0.587757	-0.114975
C56	C	1.492245	-0.087757	0.385025
C57	C	0.916318	-0.470353	-0.098634
C58	C	1.416318	0.029647	0.401366
C59	C	1.008490	-0.470378	-0.190881
C60	C	1.508490	0.029622	0.309119
C61	C	0.932536	-0.529677	-0.174598
C62	C	1.432536	-0.029677	0.325402
C63	C	0.992265	-0.311276	-0.114992
C64	C	1.492265	0.188724	0.385008
C65	C	0.992228	-0.688813	-0.114971
C66	C	1.492228	-0.188813	0.385029
C67	C	1.145816	-0.000056	-0.108859
C68	C	1.645816	0.499944	0.391141
C69	C	1.239062	-0.000055	-0.110519
C70	C	1.739062	0.499945	0.389481
C71	C	0.998370	-0.000057	0.038583
C72	C	1.498370	0.499943	0.538583
C73	C	0.996708	-0.000057	0.131829
C74	C	1.496708	0.499943	0.631829
N75	N	0.992224	0.230630	-0.114967
N76	N	1.492224	0.730630	0.385033
C77	C	0.986123	-0.000038	-0.268555
C78	C	1.486123	0.499962	0.231445
C79	C	0.987785	-0.000032	-0.361801
C80	C	1.487785	0.499968	0.138199
C81	C	0.912803	-0.000040	0.346684
C82	C	1.412803	0.499960	0.846684
C83	C	0.951773	-0.073047	0.407698
C84	C	1.451773	0.426953	0.907698
C85	C	0.993701	-0.000050	0.302555
C86	C	1.493701	0.499950	0.802555
C87	C	0.951778	0.072933	0.407689
C88	C	1.451778	0.572933	0.907689
C89	C	0.990790	-0.000040	0.467468
C90	C	1.490790	0.499960	0.967468
C91	C	1.032693	-0.073118	0.362341
C92	C	1.532693	0.426882	0.862341
C93	C	1.032686	0.072928	0.362326
C94	C	1.532686	0.572928	0.862326
C95	C	1.071715	-0.000097	0.423322
C96	C	1.571715	0.499903	0.923322
C97	C	0.995375	-0.000057	0.207553
C98	C	1.495375	0.499943	0.707553
C99	C	0.989122	-0.000039	0.562469
C100	C	1.489122	0.499961	1.062469
H101	H	0.459145	-0.000125	0.033453
H102	H	0.959145	0.499875	0.533453
C103	C	0.564407	0.156303	-0.030427
C104	C	1.064407	0.656303	0.469573
N105	N	0.593820	0.219099	0.003531
N106	N	1.093820	0.719099	0.503531
H107	H	0.845655	-0.000109	0.313375
H108	H	1.345655	0.499891	0.813375
C109	C	1.162505	-0.000160	0.468129
C110	C	1.662505	0.499840	0.968129
N111	N	1.230887	-0.000213	0.501880
N112	N	1.730887	0.499787	1.001880
C113	C	1.078884	-0.156595	0.335334
C114	C	1.578884	0.343405	0.835334
N115	N	1.113671	-0.219471	0.314989
N116	N	1.613671	0.280529	0.814989
H117	H	0.882023	-0.555543	-0.225025
H118	H	1.382023	-0.055543	0.274975
H119	H	0.430345	-0.134897	-0.187775
H120	H	0.930345	0.365103	0.312225
C121	C	1.027090	-0.435130	-0.277565
C122	C	1.527090	0.064870	0.222435
N123	N	1.041109	-0.408578	-0.342855
N124	N	1.541109	0.091422	0.157145
H125	H	1.132315	-0.555840	-0.145017
H126	H	1.632315	-0.055840	0.354983
C127	C	0.564484	-0.156435	-0.030439
C128	C	1.064484	0.343565	0.469561
N129	N	0.593930	-0.219236	0.003500
N130	N	1.093930	0.280764	0.503500
C131	C	0.957464	-0.564956	0.047670
C132	C	1.457464	-0.064956	0.547670
N133	N	0.943501	-0.591501	0.112980
N134	N	1.443501	-0.091501	0.612980
C135	C	0.905557	-0.156422	0.434863
C136	C	1.405557	0.343578	0.934863
N137	N	0.870741	-0.219217	0.455321
N138	N	1.370741	0.280783	0.955321
H139	H	0.525159	-0.000126	-0.263501
H140	H	1.025159	0.499874	0.236499
C141	C	0.419989	0.156321	-0.199455
C142	C	0.919989	0.656321	0.300545
N143	N	0.390521	0.219137	-0.233350
N144	N	0.890521	0.719137	0.266650
C145	C	1.120000	-0.435219	0.012809
C146	C	1.620000	0.064781	0.512809
N147	N	1.171277	-0.408723	0.064151
N148	N	1.671277	0.091277	0.564151
H149	H	0.852127	-0.444372	-0.084798
H150	H	1.352127	0.055628	0.415202
H151	H	1.066867	0.134648	0.342200
H152	H	1.566867	0.634648	0.842200
H153	H	0.917544	0.134659	0.427769
H154	H	1.417544	0.634659	0.927769
