data_functionalizedCrystal
_audit_creation_method	'MofGen! by Chris Wilmer'
_symmetry_space_group_name_H-M	'P1'
_symmetry_Int_Tables_number	1
_symmetry_cell_setting	triclinic
loop_
_symmetry_equiv_pos_as_xyz
  x,y,z
_cell_length_a	12.645331
_cell_length_b	12.759400
_cell_length_c	12.759393
_cell_angle_alpha	89.970715
_cell_angle_beta	89.979289
_cell_angle_gamma	90.013008
loop_
_atom_site_label
_atom_site_type_symbol
_atom_site_fract_x
_atom_site_fract_y
_atom_site_fract_z
Zn1	Zn	1.620738	-0.418244	-0.594085
Zn2	Zn	1.620637	-0.593959	-0.418409
Zn3	Zn	1.443458	-0.418292	-0.418414
Zn4	Zn	1.443445	-0.593878	-0.594040
O5	O	1.532070	-0.506093	-0.506237
O6	O	1.769072	-0.441567	-0.570798
O7	O	1.597097	-0.570711	-0.271389
O8	O	1.467023	-0.271265	-0.441738
O9	O	1.768997	-0.570664	-0.441730
O10	O	1.597269	-0.271229	-0.570803
O11	O	1.466925	-0.441649	-0.271392
O12	O	1.295109	-0.441570	-0.441695
O13	O	1.467000	-0.570526	-0.741067
O14	O	1.295100	-0.570572	-0.570726
O15	O	1.597256	-0.441488	-0.741100
O16	O	1.597084	-0.740970	-0.441686
O17	O	1.466902	-0.740910	-0.570721
C18	C	1.532010	-0.779061	-0.506221
C19	C	1.532081	-0.895837	-0.506249
C20	C	1.256640	-0.506068	-0.506207
C21	C	1.138810	-0.506083	-0.506219
C22	C	1.599923	-1.060328	-0.573533
C23	C	1.599869	-0.950604	-0.573509
C24	C	1.464351	-0.950801	-0.439001
C25	C	1.464412	-1.060523	-0.439021
C26	C	1.724788	-0.800532	-0.611134
C27	C	1.792506	-0.745573	-0.678391
C28	C	1.808744	-0.781100	-0.780927
C29	C	1.757249	-0.871586	-0.816226
C30	C	1.689524	-0.926539	-0.748975
C31	C	1.673306	-0.891013	-0.646424
C32	C	1.339491	-1.210597	-0.401407
C33	C	1.271759	-1.265552	-0.334160
C34	C	1.255510	-1.230027	-0.231623
C35	C	1.306986	-1.139538	-0.196327
C36	C	1.374718	-1.084582	-0.263574
C37	C	1.390969	-1.120115	-0.366110
C38	C	0.971216	-0.424554	-0.425493
C39	C	1.093776	-0.424765	-0.425137
C40	C	1.094298	-0.616761	-0.475976
C41	C	0.971699	-0.616315	-0.475425
C42	C	0.971655	-0.477987	-0.617499
C43	C	1.094260	-0.475515	-0.616881
C44	C	1.808575	-0.506119	-0.506268
C45	C	1.926405	-0.506130	-0.506281
C46	C	1.532138	-0.505992	-0.780271
C47	C	1.532167	-0.505949	-0.897047
C48	C	1.532158	-0.232060	-0.506276
C49	C	1.532196	-0.115283	-0.506293
C50	C	1.464366	-0.573108	-0.951894
C51	C	1.464404	-0.573069	-1.061618
C52	C	1.600047	-0.438704	-1.061639
C53	C	1.600014	-0.438749	-0.951917
C54	C	1.426530	-0.696908	-1.211554
C55	C	1.358712	-0.764058	-1.266404
C56	C	1.255257	-0.780191	-1.230785
C57	C	1.219598	-0.729160	-1.140318
C58	C	1.287410	-0.662003	-1.085473
C59	C	1.390881	-0.645889	-1.121090
C60	C	1.637877	-0.314908	-0.801980
C61	C	1.705685	-0.247745	-0.747133
C62	C	1.809142	-0.231600	-0.782750
C63	C	1.844797	-0.282613	-0.873221
C64	C	1.776989	-0.349776	-0.928067
C65	C	1.673533	-0.365922	-0.892443
C66	C	1.532062	-0.506118	-0.233270
C67	C	1.532238	-0.505865	-0.116494
H68	H	1.647591	-1.000206	-0.777717
H69	H	1.864345	-0.176897	-0.738091
H70	H	1.770466	-0.900497	-0.899726
H71	H	0.942057	-0.679154	-0.531702
H72	H	1.655284	-0.383990	-1.106328
H73	H	1.676642	-0.206200	-0.673473
N74	N	1.134890	-0.648931	-0.369432
H75	H	1.214686	-0.652019	-0.370899
H76	H	1.111301	-0.596051	-0.315394
H77	H	1.123469	-0.679166	-0.532972
H78	H	1.229829	-1.339222	-0.362913
H79	H	1.293747	-1.110605	-0.112837
N80	N	1.132563	-0.449403	-0.315965
H81	H	1.105549	-0.520577	-0.293914
H82	H	1.212429	-0.449581	-0.315349
N83	N	0.933238	-0.556661	-0.697245
H84	H	0.962550	-0.538179	-0.768543
H85	H	0.957998	-0.629043	-0.676643
N86	N	1.956387	-0.265205	-0.911634
H87	H	1.995468	-0.334220	-0.912768
H88	H	1.954436	-0.234775	-0.984694
H89	H	1.135349	-0.742291	-1.111331
H90	H	1.510775	-0.683790	-1.240556
N91	N	0.930722	-0.372953	-0.653942
H92	H	0.882423	-0.342547	-0.598719
H93	H	0.992222	-0.323895	-0.666034
N94	N	1.815439	-0.404800	-1.025648
H95	H	1.891269	-0.384384	-1.039894
H96	H	1.810809	-0.483130	-1.015174
H97	H	1.387755	-0.805607	-1.340063
H98	H	1.553634	-0.328052	-0.772969
H99	H	1.834432	-0.671898	-0.649641
H100	H	1.655113	-1.104911	-0.628315
H101	H	1.863881	-0.736344	-0.835688
H102	H	1.711584	-0.771604	-0.527638
H103	H	1.409161	-0.906203	-0.384231
H104	H	1.200342	-1.274772	-0.176877
H105	H	1.416626	-1.010896	-0.234831
H106	H	1.352722	-1.239535	-0.484900
H107	H	1.123871	-0.342693	-0.444093
H108	H	0.941746	-0.342236	-0.444245
N109	N	1.132813	-0.367638	-0.647102
H110	H	1.103909	-0.348413	-0.718343
H111	H	1.107713	-0.314953	-0.593544
H112	H	1.124919	-0.530596	-0.680294
H113	H	0.940372	-0.442949	-0.343561
H114	H	0.943058	-0.640181	-0.394120
N115	N	1.391187	-0.645579	-0.892710
H116	H	1.348240	-0.688116	-0.944109
H117	H	1.434300	-0.694225	-0.847178
N118	N	1.248971	-0.606975	-0.987896
H119	H	1.173139	-0.627384	-0.973650
H120	H	1.294551	-0.628078	-0.926427
H121	H	1.200038	-0.834866	-1.275452
