data_functionalizedCrystal
_audit_creation_method	'MofGen! by Chris Wilmer'
_symmetry_space_group_name_H-M	'P1'
_symmetry_Int_Tables_number	1
_symmetry_cell_setting	triclinic
loop_
_symmetry_equiv_pos_as_xyz
  x,y,z
_cell_length_a	6.394989
_cell_length_b	8.559649
_cell_length_c	7.681481
_cell_angle_alpha	94.913240
_cell_angle_beta	95.906187
_cell_angle_gamma	101.861812
loop_
_atom_site_label
_atom_site_type_symbol
_atom_site_fract_x
_atom_site_fract_y
_atom_site_fract_z
O1	O	0.048509	2.104046	-0.146402
O2	O	-0.059017	1.641007	-0.146408
O3	O	0.299864	1.879099	-0.146406
O4	O	-0.310373	1.865954	-0.146404
O5	O	0.344125	1.908402	0.146452
O6	O	-0.014756	1.670310	0.146450
O7	O	0.092770	2.133349	0.146456
Zn8	Zn	0.046035	1.906482	0.192951
Zn9	Zn	-0.012282	1.867874	-0.192902
O10	O	-0.266111	1.895257	0.146454
C11	C	-0.045035	1.596293	0.000021
C12	C	-0.069291	1.419401	0.000018
C13	C	0.399398	1.891151	0.000016
C14	C	0.634359	1.883208	0.000015
C15	C	0.078787	2.178063	0.000024
C16	C	0.103041	2.354954	0.000015
N17	N	0.085837	1.932843	0.456285
N18	N	-0.052066	1.841525	-0.456237
H19	H	-0.235400	1.339239	0.000009
C20	C	-0.242219	1.715588	0.442195
H21	H	-0.324767	1.660943	0.523380
H22	H	-0.188838	1.640552	0.370282
H23	H	-0.330396	1.767587	0.370271
C24	C	0.275998	2.058784	0.557869
H25	H	0.271668	2.055917	0.680830
H26	H	0.266051	2.162573	0.527721
H27	H	0.407602	2.035534	0.527745
C28	C	0.327430	1.463224	0.000019
H29	H	0.314847	1.571900	0.000035
H30	H	0.387507	1.432077	-0.102105
H31	H	0.418364	1.452514	0.102160
