data_functionalizedCrystal
_audit_creation_method	'MofGen! by Chris Wilmer'
_symmetry_space_group_name_H-M	'P1'
_symmetry_Int_Tables_number	1
_symmetry_cell_setting	triclinic
loop_
_symmetry_equiv_pos_as_xyz
  x,y,z
_cell_length_a	23.532407
_cell_length_b	23.532407
_cell_length_c	10.868271
_cell_angle_alpha	89.990218
_cell_angle_beta	90.001021
_cell_angle_gamma	82.848678
loop_
_atom_site_label
_atom_site_type_symbol
_atom_site_fract_x
_atom_site_fract_y
_atom_site_fract_z
O1	O	0.755259	0.069135	-0.102181
O2	O	1.005259	0.319135	0.147819
O3	O	1.255259	0.569135	0.397819
O4	O	1.505259	0.819135	0.647819
O5	O	0.589396	0.079138	-0.102219
O6	O	0.839396	0.329138	0.147781
O7	O	1.089396	0.579138	0.397781
O8	O	1.339396	0.829138	0.647781
O9	O	0.677329	-0.008795	-0.102176
O10	O	0.927329	0.241205	0.147824
O11	O	1.177329	0.491205	0.397824
O12	O	1.427329	0.741205	0.647824
O13	O	0.667326	0.157068	-0.102224
O14	O	0.917326	0.407068	0.147776
O15	O	1.167326	0.657068	0.397776
O16	O	1.417326	0.907068	0.647776
O17	O	0.677322	-0.008798	0.102468
O18	O	0.927322	0.241202	0.352468
O19	O	1.177322	0.491202	0.602468
O20	O	1.427322	0.741202	0.852468
O21	O	0.589389	0.079135	0.102426
O22	O	0.839389	0.329135	0.352426
O23	O	1.089389	0.579135	0.602426
O24	O	1.339389	0.829135	0.852426
O25	O	0.755252	0.069132	0.102464
O26	O	1.005252	0.319132	0.352464
O27	O	1.255252	0.569132	0.602464
O28	O	1.505252	0.819132	0.852464
Zn29	Zn	0.672319	0.074133	0.134936
Zn30	Zn	0.922319	0.324133	0.384936
Zn31	Zn	1.172319	0.574133	0.634936
Zn32	Zn	1.422319	0.824133	0.884936
Zn33	Zn	0.672329	0.074137	-0.134692
Zn34	Zn	0.922329	0.324137	0.115308
Zn35	Zn	1.172329	0.574137	0.365308
Zn36	Zn	1.422329	0.824137	0.615308
O37	O	0.667319	0.157065	0.102421
O38	O	0.917319	0.407065	0.352421
O39	O	1.167319	0.657065	0.602421
O40	O	1.417319	0.907065	0.852421
C41	C	0.568176	0.078882	0.000099
C42	C	0.818176	0.328882	0.250099
C43	C	1.068176	0.578882	0.500099
C44	C	1.318176	0.828882	0.750099
C45	C	0.504959	0.078116	0.000085
C46	C	0.754959	0.328116	0.250085
C47	C	1.004959	0.578116	0.500085
C48	C	1.254959	0.828116	0.750085
C49	C	0.105856	0.125350	0.000128
C50	C	0.355856	0.375350	0.250128
C51	C	0.605856	0.625350	0.500128
C52	C	0.855856	0.875350	0.750128
C53	C	0.046456	0.124638	0.000135
C54	C	0.296456	0.374638	0.250135
C55	C	0.546456	0.624638	0.500135
C56	C	0.796456	0.874638	0.750135
O57	O	0.009711	0.168424	0.000168
O58	O	0.259711	0.418424	0.250168
O59	O	0.509711	0.668424	0.500168
O60	O	0.759711	0.918424	0.750168
N61	N	0.023830	0.072362	0.000148
N62	N	0.273830	0.322362	0.250148
N63	N	0.523830	0.572362	0.500148
N64	N	0.773830	0.822362	0.750148
C65	C	0.060607	0.020794	0.000166
C66	C	0.310607	0.270794	0.250166
C67	C	0.560607	0.520794	0.500166
C68	C	0.810607	0.770794	0.750166
O69	O	0.035908	-0.023737	0.000179
O70	O	0.285908	0.226263	0.250179
O71	O	0.535908	0.476263	0.500179
O72	O	0.785908	0.726263	0.750179
C73	C	0.120006	0.021506	0.000167
C74	C	0.370006	0.271506	0.250167
C75	C	0.620006	0.521506	0.500167
C76	C	0.870006	0.771506	0.750167
C77	C	0.142629	0.073785	0.000142
C78	C	0.392629	0.323785	0.250142
C79	C	0.642629	0.573785	0.500142
C80	C	0.892629	0.823785	0.750142
C81	C	0.128479	0.177625	0.000104
C82	C	0.378479	0.427625	0.250104
C83	C	0.628479	0.677625	0.500104
C84	C	0.878479	0.927625	0.750104
C85	C	0.187876	0.178336	0.000094
C86	C	0.437876	0.428336	0.250094
C87	C	0.687876	0.678336	0.500094
C88	C	0.937876	0.928336	0.750094
C89	C	0.224649	0.126772	0.000108
C90	C	0.474649	0.376772	0.250108
C91	C	0.724649	0.626772	0.500108
C92	C	0.974649	0.876772	0.750108
C93	C	0.202025	0.074496	0.000132
C94	C	0.452025	0.324496	0.250132
C95	C	0.702025	0.574496	0.500132
C96	C	0.952025	0.824496	0.750132
C97	C	0.156783	-0.030062	0.000193
C98	C	0.406783	0.219938	0.250193
C99	C	0.656783	0.469938	0.500193
C100	C	0.906783	0.719938	0.750193
C101	C	0.216185	-0.029345	0.000195
C102	C	0.466185	0.220655	0.250195
C103	C	0.716185	0.470655	0.500195
C104	C	0.966185	0.720655	0.750195
C105	C	0.238808	0.022934	0.000170
C106	C	0.488808	0.272934	0.250170
C107	C	0.738808	0.522934	0.500170
C108	C	0.988808	0.772934	0.750170
C109	C	0.298194	0.023643	0.000136
C110	C	0.548194	0.273643	0.250136
C111	C	0.798194	0.523643	0.500136
C112	C	1.048194	0.773643	0.750136
N113	N	0.320820	0.075920	0.000123
N114	N	0.570820	0.325920	0.250123
N115	N	0.820820	0.575920	0.500123
N116	N	1.070820	0.825920	0.750123
C117	C	0.284048	0.127484	0.000109
C118	C	0.534048	0.377484	0.250109
C119	C	0.784048	0.627484	0.500109
C120	C	1.034048	0.877484	0.750109
C121	C	-0.064135	0.019302	0.000166
C122	C	0.185865	0.269302	0.250166
C123	C	0.435865	0.519302	0.500166
C124	C	0.685865	0.769302	0.750166
C125	C	-0.123533	0.018589	0.000156
C126	C	0.126467	0.268589	0.250156
C127	C	0.376467	0.518589	0.500156
C128	C	0.626467	0.768589	0.750156
C129	C	-0.137680	0.122434	0.000128
C130	C	0.112320	0.372434	0.250128
C131	C	0.362320	0.622434	0.500128
C132	C	0.612320	0.872434	0.750128
C133	C	-0.078281	0.123146	0.000129
C134	C	0.171719	0.373146	0.250129
C135	C	0.421719	0.623146	0.500129
C136	C	0.671719	0.873146	0.750129
C137	C	-0.041509	0.071578	0.000153
C138	C	0.208491	0.321578	0.250153
C139	C	0.458491	0.571578	0.500153
C140	C	0.708491	0.821578	0.750153
C141	C	0.408784	0.128974	0.000087
C142	C	0.658784	0.378974	0.250087
C143	C	0.908784	0.628974	0.500087
C144	C	1.158784	0.878974	0.750087
C145	C	0.468186	0.129680	0.000071
C146	C	0.718186	0.379680	0.250071
C147	C	0.968186	0.629680	0.500071
C148	C	1.218186	0.879680	0.750071
C149	C	0.482329	0.025836	0.000106
C150	C	0.732329	0.275836	0.250106
C151	C	0.982329	0.525836	0.500106
C152	C	1.232329	0.775836	0.750106
C153	C	0.422932	0.025129	0.000115
C154	C	0.672932	0.275129	0.250115
C155	C	0.922932	0.525129	0.500115
C156	C	1.172932	0.775129	0.750115
C157	C	0.386160	0.076702	0.000109
C158	C	0.636160	0.326702	0.250109
C159	C	0.886160	0.576702	0.500109
C160	C	1.136160	0.826702	0.750109
O161	O	0.334974	-0.020119	0.000108
O162	O	0.584974	0.229881	0.250108
O163	O	0.834974	0.479881	0.500108
O164	O	1.084974	0.729881	0.750108
O165	O	0.308755	0.172007	0.000112
O166	O	0.558755	0.422007	0.250112
O167	O	0.808755	0.672007	0.500112
O168	O	1.058755	0.922007	0.750112
C169	C	0.677071	-0.030013	0.000149
C170	C	0.927071	0.219987	0.250149
C171	C	1.177071	0.469987	0.500149
C172	C	1.427071	0.719987	0.750149
C173	C	0.676305	-0.093230	0.000158
C174	C	0.926305	0.156770	0.250158
C175	C	1.176305	0.406770	0.500158
C176	C	1.426305	0.656770	0.750158
C177	C	0.723539	-0.492333	0.000102
C178	C	0.973539	-0.242333	0.250102
C179	C	1.223539	0.007667	0.500102
C180	C	1.473539	0.257667	0.750102
C181	C	0.722827	-0.551733	0.000092
C182	C	0.972827	-0.301733	0.250092
C183	C	1.222827	-0.051733	0.500092
C184	C	1.472827	0.198267	0.750092
O185	O	0.766613	-0.588478	0.000057
O186	O	1.016613	-0.338478	0.250057
O187	O	1.266613	-0.088478	0.500057
O188	O	1.516613	0.161522	0.750057
N189	N	0.670551	-0.574359	0.000081
N190	N	0.920551	-0.324359	0.250081
N191	N	1.170551	-0.074359	0.500081
N192	N	1.420551	0.175641	0.750081
C193	C	0.618983	-0.537582	0.000067
C194	C	0.868983	-0.287582	0.250067
C195	C	1.118983	-0.037582	0.500067
C196	C	1.368983	0.212418	0.750067
O197	O	0.574452	-0.562281	0.000056
O198	O	0.824452	-0.312281	0.250056
O199	O	1.074452	-0.062281	0.500056
O200	O	1.324452	0.187719	0.750056
C201	C	0.619695	-0.478182	0.000068
C202	C	0.869695	-0.228182	0.250068
C203	C	1.119695	0.021818	0.500068
C204	C	1.369695	0.271818	0.750068
C205	C	0.671974	-0.455560	0.000091
C206	C	0.921974	-0.205560	0.250091
C207	C	1.171974	0.044440	0.500091
C208	C	1.421974	0.294440	0.750091
C209	C	0.775814	-0.469710	0.000124
C210	C	1.025814	-0.219710	0.250124
C211	C	1.275814	0.030290	0.500124
C212	C	1.525814	0.280290	0.750124
C213	C	0.776525	-0.410313	0.000136
C214	C	1.026525	-0.160313	0.250136
C215	C	1.276525	0.089687	0.500136
C216	C	1.526525	0.339687	0.750136
C217	C	0.724961	-0.373540	0.000125
C218	C	0.974961	-0.123540	0.250125
C219	C	1.224961	0.126460	0.500125
C220	C	1.474961	0.376460	0.750125
C221	C	0.672685	-0.396164	0.000103
C222	C	0.922685	-0.146164	0.250103
C223	C	1.172685	0.103836	0.500103
C224	C	1.422685	0.353836	0.750103
C225	C	0.568127	-0.441406	0.000045
C226	C	0.818127	-0.191406	0.250045
C227	C	1.068127	0.058594	0.500045
C228	C	1.318127	0.308594	0.750045
C229	C	0.568844	-0.382004	0.000045
C230	C	0.818844	-0.132004	0.250045
C231	C	1.068844	0.117996	0.500045
C232	C	1.318844	0.367996	0.750045
C233	C	0.621123	-0.359381	0.000068
C234	C	0.871123	-0.109381	0.250068
C235	C	1.121123	0.140619	0.500068
C236	C	1.371123	0.390619	0.750068
C237	C	0.621832	-0.299995	0.000105
C238	C	0.871832	-0.049995	0.250105
C239	C	1.121832	0.200005	0.500105
C240	C	1.371832	0.450005	0.750105
N241	N	0.674109	-0.277368	0.000116
N242	N	0.924109	-0.027368	0.250116
N243	N	1.174109	0.222632	0.500116
N244	N	1.424109	0.472632	0.750116
C245	C	0.725673	-0.314141	0.000126
C246	C	0.975673	-0.064141	0.250126
C247	C	1.225673	0.185859	0.500126
C248	C	1.475673	0.435859	0.750126
C249	C	0.617491	-0.662324	0.000063
C250	C	0.867491	-0.412324	0.250063
C251	C	1.117491	-0.162324	0.500063
C252	C	1.367491	0.087676	0.750063
C253	C	0.616778	-0.721722	0.000072
C254	C	0.866778	-0.471722	0.250072
C255	C	1.116778	-0.221722	0.500072
C256	C	1.366778	0.028278	0.750072
C257	C	0.720623	-0.735869	0.000094
C258	C	0.970623	-0.485869	0.250094
C259	C	1.220623	-0.235869	0.500094
C260	C	1.470623	0.014131	0.750094
C261	C	0.721335	-0.676470	0.000095
C262	C	0.971335	-0.426470	0.250095
C263	C	1.221335	-0.176470	0.500095
C264	C	1.471335	0.073530	0.750095
C265	C	0.669767	-0.639698	0.000075
C266	C	0.919767	-0.389698	0.250075
C267	C	1.169767	-0.139698	0.500075
C268	C	1.419767	0.110302	0.750075
C269	C	0.727163	-0.189405	0.000152
C270	C	0.977163	0.060595	0.250152
C271	C	1.227163	0.310595	0.500152
C272	C	1.477163	0.560595	0.750152
C273	C	0.727869	-0.130003	0.000169
C274	C	0.977869	0.119997	0.250169
C275	C	1.227869	0.369997	0.500169
C276	C	1.477869	0.619997	0.750169
C277	C	0.624025	-0.115860	0.000139
C278	C	0.874025	0.134140	0.250139
C279	C	1.124025	0.384140	0.500139
C280	C	1.374025	0.634140	0.750139
C281	C	0.623318	-0.175257	0.000129
C282	C	0.873318	0.074743	0.250129
C283	C	1.123318	0.324743	0.500129
C284	C	1.373318	0.574743	0.750129
C285	C	0.674891	-0.212029	0.000131
C286	C	0.924891	0.037971	0.250131
C287	C	1.174891	0.287971	0.500131
C288	C	1.424891	0.537971	0.750131
O289	O	0.578070	-0.263215	0.000135
O290	O	0.828070	-0.013215	0.250135
O291	O	1.078070	0.236785	0.500135
O292	O	1.328070	0.486785	0.750135
O293	O	0.770196	-0.289433	0.000121
O294	O	1.020196	-0.039433	0.250121
O295	O	1.270196	0.210567	0.500121
O296	O	1.520196	0.460567	0.750121
C297	C	0.776472	0.069388	0.000143
C298	C	1.026472	0.319388	0.250143
C299	C	1.276472	0.569388	0.500143
C300	C	1.526472	0.819388	0.750143
C301	C	0.839689	0.070154	0.000148
C302	C	1.089689	0.320154	0.250148
C303	C	1.339689	0.570154	0.500148
C304	C	1.589689	0.820154	0.750148
C305	C	0.667577	0.178283	0.000093
C306	C	0.917577	0.428283	0.250093
C307	C	1.167577	0.678283	0.500093
C308	C	1.417577	0.928283	0.750093
C309	C	0.668343	0.241500	0.000075
C310	C	0.918343	0.491500	0.250075
C311	C	1.168343	0.741500	0.500075
C312	C	1.418343	0.991500	0.750075
N313	N	0.672317	0.074129	0.318950
N314	N	0.922317	0.324129	0.568950
N315	N	1.172317	0.574129	0.818950
N316	N	1.422317	0.824129	1.068950
N317	N	0.672336	0.074136	-0.318706
N318	N	0.922336	0.324136	-0.068706
N319	N	1.172336	0.574136	0.181294
N320	N	1.422336	0.824136	0.431294
C321	C	0.672326	0.074136	0.569956
C322	C	0.922326	0.324136	0.819956
C323	C	1.172326	0.574136	1.069956
C324	C	1.422326	0.824136	1.319956
C325	C	0.672319	0.074134	0.430279
C326	C	0.922319	0.324134	0.680279
C327	C	1.172319	0.574134	0.930279
C328	C	1.422319	0.824134	1.180279
H329	H	-0.167632	0.164421	0.000122
H330	H	0.082368	0.414421	0.250122
H331	H	0.332368	0.664421	0.500122
H332	H	0.582368	0.914421	0.750122
Br333	Br	0.545825	-0.752416	0.000069
Br334	Br	0.795825	-0.502416	0.250069
Br335	Br	1.045825	-0.252416	0.500069
Br336	Br	1.295825	-0.002416	0.750069
Br337	Br	0.547499	-0.612424	0.000046
Br338	Br	0.797499	-0.362424	0.250046
Br339	Br	1.047499	-0.112424	0.500046
Br340	Br	1.297499	0.137576	0.750046
H341	H	-0.059867	0.165717	0.000115
H342	H	0.190133	0.415717	0.250115
H343	H	0.440133	0.665717	0.500115
H344	H	0.690133	0.915717	0.750115
Br345	Br	0.497171	-0.472092	0.000008
Br346	Br	0.747171	-0.222092	0.250008
Br347	Br	0.997171	0.027908	0.500008
Br348	Br	1.247171	0.277908	0.750008
Br349	Br	0.554048	-0.065943	0.000126
Br350	Br	0.804048	0.184057	0.250126
Br351	Br	1.054048	0.434057	0.500126
Br352	Br	1.304048	0.684057	0.750126
H353	H	0.246123	-0.071339	0.000216
H354	H	0.496123	0.178661	0.250216
H355	H	0.746123	0.428661	0.500216
H356	H	0.996123	0.678661	0.750216
H357	H	-0.034198	-0.022693	0.000175
H358	H	0.215802	0.227307	0.250175
H359	H	0.465802	0.477307	0.500175
H360	H	0.715802	0.727307	0.750175
Br361	Br	0.798825	-0.099305	0.000202
Br362	Br	1.048825	0.150695	0.250202
Br363	Br	1.298825	0.400695	0.500202
Br364	Br	1.548825	0.650695	0.750202
H365	H	-0.141947	-0.023982	0.000157
H366	H	0.108053	0.226018	0.250157
H367	H	0.358053	0.476018	0.500157
H368	H	0.608053	0.726018	0.750157
H369	H	0.098544	0.219617	0.000097
H370	H	0.348544	0.469617	0.250097
H371	H	0.598544	0.719617	0.500097
H372	H	0.848544	0.969617	0.750097
Br373	Br	0.845804	-0.519606	0.000137
Br374	Br	1.095804	-0.269606	0.250137
Br375	Br	1.345804	-0.019606	0.500137
Br376	Br	1.595804	0.230394	0.750137
H377	H	0.378851	0.170970	0.000086
H378	H	0.628851	0.420970	0.250086
H379	H	0.878851	0.670970	0.500086
H380	H	1.128851	0.920970	0.750086
H381	H	0.138375	-0.072634	0.000215
H382	H	0.388375	0.177366	0.250215
H383	H	0.638375	0.427366	0.500215
H384	H	0.888375	0.677366	0.750215
H385	H	0.404512	-0.017441	0.000117
H386	H	0.654512	0.232559	0.250117
H387	H	0.904512	0.482559	0.500117
H388	H	1.154512	0.732559	0.750117
H389	H	0.512280	-0.016146	0.000113
H390	H	0.762280	0.233854	0.250113
H391	H	1.012280	0.483854	0.500113
H392	H	1.262280	0.733854	0.750113
Br393	Br	0.797156	-0.239299	0.000153
Br394	Br	1.047156	0.010701	0.250153
Br395	Br	1.297156	0.260701	0.500153
Br396	Br	1.547156	0.510701	0.750153
Br397	Br	0.218568	0.249291	0.000065
Br398	Br	0.468568	0.499291	0.250065
Br399	Br	0.718568	0.749291	0.500065
Br400	Br	0.968568	0.999291	0.750065
H401	H	0.526850	-0.352066	0.000026
H402	H	0.776850	-0.102066	0.250026
H403	H	1.026850	0.147934	0.500026
H404	H	1.276850	0.397934	0.750026
H405	H	0.580748	-0.193677	0.000144
H406	H	0.830748	0.056323	0.250144
H407	H	1.080748	0.306323	0.500144
H408	H	1.330748	0.556323	0.750144
H409	H	0.486602	0.172255	0.000050
H410	H	0.736602	0.422255	0.250050
H411	H	0.986602	0.672255	0.500050
H412	H	1.236602	0.922255	0.750050
H413	H	0.762610	-0.765821	0.000098
H414	H	1.012610	-0.515821	0.250098
H415	H	1.262610	-0.265821	0.500098
H416	H	1.512610	-0.015821	0.750098
Br417	Br	0.792288	-0.645775	0.000130
Br418	Br	1.042288	-0.395775	0.250130
Br419	Br	1.292288	-0.145775	0.500130
Br420	Br	1.542288	0.104225	0.750130
Br421	Br	0.847480	-0.379621	0.000133
Br422	Br	1.097480	-0.129621	0.250133
Br423	Br	1.347480	0.120379	0.500133
Br424	Br	1.597480	0.370379	0.750133
