data_functionalizedCrystal
_audit_creation_method	'MofGen! by Chris Wilmer'
_symmetry_space_group_name_H-M	'P1'
_symmetry_Int_Tables_number	1
_symmetry_cell_setting	triclinic
loop_
_symmetry_equiv_pos_as_xyz
  x,y,z
_cell_length_a	16.109301
_cell_length_b	10.489763
_cell_length_c	15.186229
_cell_angle_alpha	90.008497
_cell_angle_beta	89.999006
_cell_angle_gamma	95.995028
loop_
_atom_site_label
_atom_site_type_symbol
_atom_site_fract_x
_atom_site_fract_y
_atom_site_fract_z
O1	O	1.104150	-0.163947	-0.073190
O2	O	0.862215	-0.184349	-0.073203
O3	O	0.988678	0.011528	-0.073180
O4	O	0.977687	-0.359824	-0.073213
O5	O	0.988669	0.011531	0.073278
O6	O	0.862206	-0.184346	0.073254
O7	O	1.104141	-0.163944	0.073268
Zn8	Zn	0.983172	-0.174145	0.096514
Zn9	Zn	0.983183	-0.174148	-0.096450
O10	O	0.977678	-0.359821	0.073244
C11	C	0.831230	-0.183521	0.000024
C12	C	0.738920	-0.181043	0.000020
C13	C	0.430593	-0.289173	0.000025
C14	C	0.517328	-0.291513	0.000020
C15	C	0.535757	-0.059111	0.000029
C16	C	0.449024	-0.056772	0.000028
C17	C	0.396444	-0.171807	0.000031
C18	C	0.569912	-0.176486	0.000026
C19	C	0.663954	-0.179022	0.000020
C20	C	0.302396	-0.169271	0.000035
C21	C	0.987839	0.059048	0.000051
C22	C	0.985344	0.200640	0.000058
C23	C	0.904869	0.267612	0.000052
C24	C	0.942874	0.360287	0.072270
C25	C	0.942901	0.360259	-0.072125
C26	C	1.023382	0.291450	0.072336
C27	C	1.023398	0.291412	-0.072124
C28	C	1.061461	0.384060	0.000112
C29	C	1.135125	-0.164772	0.000039
C30	C	1.227436	-0.167250	0.000037
C31	C	0.978503	0.592656	0.000026
C32	C	0.980959	0.451056	0.000059
N33	N	0.983171	-0.174141	0.228207
N34	N	0.983192	-0.174141	-0.228142
C35	C	1.039188	-0.087436	0.453940
C36	C	1.039190	-0.087433	0.546130
C37	C	0.927168	-0.260851	0.546118
C38	C	0.927162	-0.260847	0.453930
C39	C	0.983177	-0.174141	0.407843
C40	C	0.983185	-0.174142	0.592221
C41	C	0.983188	-0.174139	0.692177
C42	C	0.983174	-0.174141	0.307881
H43	H	0.838709	0.217002	0.000118
Cl44	Cl	1.109603	0.021570	0.396006
H45	H	1.057424	0.260860	-0.133176
H46	H	0.881564	-0.331446	0.583651
Cl47	Cl	1.075905	0.244620	0.166696
H48	H	0.881548	-0.331452	0.416396
Cl49	Cl	0.560255	-0.439065	0.000009
H50	H	0.387785	-0.382841	0.000027
H51	H	0.908819	0.390805	0.133320
Cl52	Cl	0.406089	0.090785	0.000023
H53	H	1.084799	-0.016829	0.583659
Cl54	Cl	1.163698	0.461856	0.000180
Cl55	Cl	0.601862	0.085495	0.000035
H56	H	0.908844	0.390727	-0.133179
