data_functionalizedCrystal
_audit_creation_method	'MofGen! by Chris Wilmer'
_symmetry_space_group_name_H-M	'P1'
_symmetry_Int_Tables_number	1
_symmetry_cell_setting	triclinic
loop_
_symmetry_equiv_pos_as_xyz
  x,y,z
_cell_length_a	16.109302
_cell_length_b	13.339070
_cell_length_c	14.586319
_cell_angle_alpha	89.998714
_cell_angle_beta	89.994552
_cell_angle_gamma	99.545538
loop_
_atom_site_label
_atom_site_type_symbol
_atom_site_fract_x
_atom_site_fract_y
_atom_site_fract_z
O1	O	1.133154	0.130024	-0.076280
O2	O	0.894828	0.146204	-0.076272
O3	O	0.986639	-0.009140	-0.076272
O4	O	1.041343	0.285369	-0.076279
O5	O	0.986629	-0.009143	0.076209
O6	O	0.894818	0.146202	0.076209
O7	O	1.133144	0.130022	0.076201
Cu8	Cu	1.013980	0.138112	0.090128
Cu9	Cu	1.013992	0.138114	-0.090198
O10	O	1.041333	0.285367	0.076201
C11	C	0.863697	0.145548	-0.000031
C12	C	0.770948	0.143582	-0.000028
C13	C	0.557552	0.139037	0.083080
C14	C	0.470403	0.137179	0.083077
C15	C	0.470425	0.137187	-0.083166
C16	C	0.557572	0.139037	-0.083162
C17	C	0.601134	0.139967	-0.000036
C18	C	0.426838	0.136259	-0.000043
C19	C	0.332348	0.134245	-0.000047
C20	C	0.695630	0.141979	-0.000031
C21	C	0.977393	-0.046828	-0.000033
C22	C	0.949849	-0.159121	-0.000036
C23	C	1.164017	-0.523983	-0.000042
C24	C	1.189899	-0.418479	-0.000034
C25	C	1.129889	-0.353634	-0.000035
C26	C	1.043992	-0.394304	-0.000043
C27	C	1.018108	-0.499819	-0.000043
C28	C	0.983980	-0.329470	-0.000036
C29	C	0.898083	-0.370139	-0.000044
C30	C	0.872203	-0.475644	-0.000045
C31	C	0.932214	-0.540489	-0.000045
C32	C	1.009864	-0.223955	-0.000036
C33	C	0.863955	-0.199790	-0.000037
C34	C	0.838073	-0.305295	-0.000045
C35	C	1.164275	0.130679	-0.000042
C36	C	1.257024	0.132644	-0.000051
C37	C	1.050579	0.323054	-0.000040
C38	C	1.078123	0.435347	-0.000043
N39	N	1.013979	0.138109	0.216959
N40	N	1.013998	0.138109	-0.217030
C41	C	1.054656	0.069346	0.451966
C42	C	1.054658	0.069343	0.547947
C43	C	0.973315	0.206876	0.547957
C44	C	0.973309	0.206873	0.451977
C45	C	1.013984	0.138109	0.403984
C46	C	1.013993	0.138109	0.595945
C47	C	1.013994	0.138107	0.700012
C48	C	1.013981	0.138109	0.299910
H49	H	1.079801	-0.190853	-0.000029
H50	H	0.802261	-0.508753	-0.000045
H51	H	0.768135	-0.338423	-0.000051
H52	H	0.940185	0.262868	0.412908
H53	H	0.815089	-0.146993	-0.000033
C54	C	0.422512	0.136191	-0.174599
H55	H	0.460951	0.137006	-0.224099
H56	H	0.395781	0.194428	-0.178046
H57	H	0.381253	0.076515	-0.178066
C58	C	1.099388	-0.006300	0.399176
H59	H	1.123603	-0.047259	0.441503
H60	H	1.142390	0.030094	0.361724
H61	H	1.059755	-0.048422	0.361746
C62	C	1.158357	-0.237582	-0.000038
H63	H	1.218108	-0.222648	-0.000043
H64	H	1.137262	-0.209245	0.053130
H65	H	1.137277	-0.209257	-0.053223
H66	H	1.087776	0.013349	0.587011
C67	C	0.903746	-0.656545	-0.000048
H68	H	0.951789	-0.689334	-0.000044
H69	H	0.870950	-0.675949	-0.053219
H70	H	0.870947	-0.675953	0.053134
H71	H	1.259835	-0.385374	-0.000026
C72	C	0.605464	0.140030	0.174514
H73	H	0.567022	0.139195	0.224014
H74	H	0.646723	0.199698	0.177987
H75	H	0.632193	0.081785	0.177957
H76	H	0.593056	0.139792	-0.150849
H77	H	0.940199	0.262863	0.587042
H78	H	1.212868	-0.576788	-0.000034
H79	H	0.434923	0.136422	0.150759
