data_functionalizedCrystal
_audit_creation_method	'MofGen! by Chris Wilmer'
_symmetry_space_group_name_H-M	'P1'
_symmetry_Int_Tables_number	1
_symmetry_cell_setting	triclinic
loop_
_symmetry_equiv_pos_as_xyz
  x,y,z
_cell_length_a	19.805407
_cell_length_b	13.032721
_cell_length_c	19.805399
_cell_angle_alpha	97.155902
_cell_angle_beta	89.980427
_cell_angle_gamma	97.204665
loop_
_atom_site_label
_atom_site_type_symbol
_atom_site_fract_x
_atom_site_fract_y
_atom_site_fract_z
Zn1	Zn	1.000535	-0.416068	-0.416943
Zn2	Zn	1.333868	-0.082734	-0.083610
Zn3	Zn	1.667201	0.250599	0.249723
Zn4	Zn	0.986084	-0.590828	-0.318130
Zn5	Zn	1.319417	-0.257494	0.015203
Zn6	Zn	1.652751	0.075839	0.348537
Zn7	Zn	0.887347	-0.416097	-0.303770
Zn8	Zn	1.220680	-0.082763	0.029563
Zn9	Zn	1.554014	0.250570	0.362896
Zn10	Zn	0.872952	-0.590772	-0.431272
Zn11	Zn	1.206285	-0.257439	-0.097939
Zn12	Zn	1.539619	0.075895	0.235394
O13	O	0.936729	-0.503441	-0.367529
O14	O	1.270063	-0.170108	-0.034196
O15	O	1.603396	0.163226	0.299138
O16	O	1.093333	-0.439261	-0.403849
O17	O	1.426667	-0.105928	-0.070515
O18	O	1.760000	0.227405	0.262818
O19	O	0.972963	-0.567684	-0.221512
O20	O	1.306296	-0.234351	0.111822
O21	O	1.639630	0.098982	0.445155
O22	O	0.914433	-0.269853	-0.306777
O23	O	1.247767	0.063480	0.026557
O24	O	1.581100	0.396814	0.359890
O25	O	1.082717	-0.567656	-0.331251
O26	O	1.416050	-0.234323	0.002083
O27	O	1.749383	0.099010	0.335416
O28	O	0.997592	-0.269832	-0.389925
O29	O	1.330925	0.063501	-0.056591
O30	O	1.664259	0.396835	0.276742
O31	O	0.900421	-0.439310	-0.210962
O32	O	1.233755	-0.105977	0.122372
O33	O	1.567088	0.227356	0.455705
O34	O	0.790722	-0.439257	-0.320671
O35	O	1.124055	-0.105923	0.012662
O36	O	1.457388	0.227410	0.345996
O37	O	0.889899	-0.567562	-0.524085
O38	O	1.223233	-0.234228	-0.190752
O39	O	1.556566	0.099105	0.142581
O40	O	0.780146	-0.567590	-0.414346
O41	O	1.113479	-0.234256	-0.081013
O42	O	1.446813	0.099077	0.252321
O43	O	0.983634	-0.439207	-0.513558
O44	O	1.316967	-0.105874	-0.180225
O45	O	1.650300	0.227459	0.153109
O46	O	0.959005	-0.737060	-0.345145
O47	O	1.292338	-0.403727	-0.011812
O48	O	1.625672	-0.070393	0.321522
O49	O	0.875887	-0.737019	-0.428270
O50	O	1.209221	-0.403686	-0.094937
O51	O	1.542554	-0.070352	0.238397
C52	C	0.760875	-0.503421	-0.367506
C53	C	1.094208	-0.170088	-0.034172
C54	C	1.427542	0.163246	0.299161
C55	C	0.685642	-0.503438	-0.367514
C56	C	1.018975	-0.170104	-0.034180
C57	C	1.352308	0.163229	0.299153
C58	C	0.644800	-0.570361	-0.416228
C59	C	0.978133	-0.237028	-0.082895
C60	C	1.311467	0.096305	0.250438
C61	C	0.574112	-0.570363	-0.416238
C62	C	0.907445	-0.237030	-0.082905
C63	C	1.240778	0.096304	0.250429
C64	C	0.544265	-0.503446	-0.367529
C65	C	0.877599	-0.170112	-0.034196
C66	C	1.210932	0.163221	0.299137
C67	C	0.585113	-0.436515	-0.318812
C68	C	0.918446	-0.103181	0.014521
C69	C	1.251779	0.230152	0.347855
C70	C	0.655800	-0.436508	-0.318806
C71	C	0.989134	-0.103175	0.014527
C72	C	1.322467	0.230158	0.347861
C73	C	0.300037	-0.436538	-0.318836
C74	C	0.633371	-0.103204	0.014497
C75	C	0.966704	0.230129	0.347830
C76	C	0.229344	-0.436551	-0.318845
C77	C	0.562677	-0.103218	0.014488
C78	C	0.896011	0.230115	0.347822
C79	C	0.218349	-0.570393	-0.416269
C80	C	0.551682	-0.237059	-0.082935
C81	C	0.885015	0.096274	0.250398
C82	C	0.289036	-0.570386	-0.416262
C83	C	0.622370	-0.237053	-0.082929
C84	C	0.955703	0.096280	0.250404
C85	C	0.329878	-0.503452	-0.367548
C86	C	0.663211	-0.170118	-0.034214
C87	C	0.996544	0.163215	0.299119
C88	C	0.406526	-0.503449	-0.367538
C89	C	0.739860	-0.170116	-0.034205
C90	C	1.073193	0.163217	0.299128
C91	C	0.467618	-0.503453	-0.367535
C92	C	0.800951	-0.170120	-0.034202
C93	C	1.134284	0.163214	0.299132
C94	C	0.914334	-0.774958	-0.389835
C95	C	1.247668	-0.441624	-0.056502
C96	C	1.581001	-0.108291	0.276831
C97	C	0.904816	-0.891114	-0.399401
C98	C	1.238149	-0.557781	-0.066067
C99	C	1.571482	-0.224447	0.267266
C100	C	0.941733	-0.942886	-0.362567
C101	C	1.275067	-0.609552	-0.029234
C102	C	1.608400	-0.276219	0.304099
C103	C	0.931896	-1.062939	-0.372453
C104	C	1.265229	-0.729606	-0.039119
C105	C	1.598563	-0.396272	0.294214
C106	C	1.113270	-0.503462	-0.367553
C107	C	1.446604	-0.170128	-0.034220
C108	C	1.779937	0.163205	0.299114
C109	C	1.188502	-0.503471	-0.367563
C110	C	1.521835	-0.170137	-0.034230
C111	C	1.855168	0.163196	0.299103
C112	C	0.936773	-0.503375	-0.544066
C113	C	1.270106	-0.170042	-0.210733
C114	C	1.603439	0.163291	0.122600
C115	C	0.936791	-0.503347	-0.619296
C116	C	1.270125	-0.170014	-0.285963
C117	C	1.603458	0.163320	0.047371
C118	C	0.959230	-0.230864	-0.345151
C119	C	1.292564	0.102469	-0.011817
C120	C	1.625897	0.435803	0.321516
C121	C	0.968819	-0.114708	-0.335614
C122	C	1.302152	0.218626	-0.002281
C123	C	1.635486	0.551959	0.331053
C124	C	0.985600	-0.436510	-0.649160
C125	C	1.318933	-0.103176	-0.315826
C126	C	1.652267	0.230157	0.017507
C127	C	0.985609	-0.436479	-0.719846
C128	C	1.318943	-0.103146	-0.386512
C129	C	1.652276	0.230187	-0.053179
C130	C	0.936813	-0.503293	-0.760667
C131	C	1.270146	-0.169959	-0.427334
C132	C	1.603479	0.163374	-0.094001
C133	C	0.887999	-0.570133	-0.730799
C134	C	1.221332	-0.236800	-0.397466
C135	C	1.554665	0.096534	-0.064133
C136	C	0.887987	-0.570157	-0.660114
C137	C	1.221320	-0.236824	-0.326781
C138	C	1.554654	0.096509	0.006553
C139	C	0.888045	-0.570036	-1.015865
C140	C	1.221378	-0.236702	-0.682531
C141	C	1.554712	0.096631	-0.349198
C142	C	0.888062	-0.570008	-1.086555
C143	C	1.221395	-0.236675	-0.753221
C144	C	1.554729	0.096658	-0.419888
C145	C	0.985668	-0.436358	-1.075596
C146	C	1.319001	-0.103024	-0.742263
C147	C	1.652334	0.230309	-0.408930
C148	C	0.985656	-0.436382	-1.004911
C149	C	1.318989	-0.103049	-0.671578
C150	C	1.652322	0.230285	-0.338244
C151	C	0.936840	-0.503218	-0.975049
C152	C	1.270173	-0.169885	-0.641715
C153	C	1.603507	0.163449	-0.308382
C154	C	0.936830	-0.503249	-0.898403
C155	C	1.270163	-0.169915	-0.565069
C156	C	1.603496	0.163418	-0.231736
C157	C	0.936825	-0.503268	-0.837312
C158	C	1.270159	-0.169935	-0.503979
C159	C	1.603492	0.163399	-0.170646
C160	C	0.936731	-0.503431	-0.191672
C161	C	1.270065	-0.170098	0.141661
C162	C	1.603398	0.163236	0.474994
C163	C	0.936868	-0.503165	-0.116419
C164	C	1.270202	-0.169831	0.216915
C165	C	1.603535	0.163502	0.550248
H166	H	0.669095	-0.624857	-0.455891
H167	H	1.002428	-0.291523	-0.122557
H168	H	1.335761	0.041810	0.210776
H169	H	1.025414	-0.381933	-1.099918
H170	H	1.358747	-0.048599	-0.766585
H171	H	1.692080	0.284734	-0.433251
H172	H	1.007714	-1.070157	-0.296761
H173	H	1.341047	-0.736824	0.036572
H174	H	1.674380	-0.403491	0.369906
H175	H	0.560807	-0.382025	-0.279155
H176	H	0.894140	-0.048692	0.054178
H177	H	1.227473	0.284642	0.387511
Cl178	Cl	1.001782	-0.874104	-0.302584
Cl179	Cl	1.335115	-0.540771	0.030750
Cl180	Cl	1.668449	-0.207438	0.364083
H181	H	0.848322	-0.624418	-1.119791
H182	H	1.181656	-0.291084	-0.786457
H183	H	1.514989	0.042249	-0.453124
H184	H	0.848305	-0.624473	-0.991561
H185	H	1.181638	-0.291140	-0.658228
H186	H	1.514972	0.042194	-0.324894
H187	H	0.540861	-0.624860	-0.455906
H188	H	0.874194	-0.291527	-0.122573
H189	H	1.207527	0.041807	0.210761
Cl190	Cl	0.844775	-0.959895	-0.459392
Cl191	Cl	1.178108	-0.626562	-0.126059
Cl192	Cl	1.511442	-0.293228	0.207274
H193	H	0.185087	-0.624890	-0.455937
H194	H	0.518421	-0.291557	-0.122603
H195	H	0.851754	0.041777	0.210730
H196	H	0.205047	-0.382053	-0.279180
H197	H	0.538380	-0.048720	0.054153
H198	H	0.871713	0.284614	0.387487
H199	H	1.025338	-0.382106	-0.615927
H200	H	1.358671	-0.048772	-0.282594
H201	H	1.692005	0.284561	0.050740
H202	H	1.025356	-0.382056	-0.744157
H203	H	1.358689	-0.048723	-0.410824
H204	H	1.692023	0.284611	-0.077490
Cl205	Cl	0.351372	-0.352389	-0.257596
Cl206	Cl	0.684705	-0.019055	0.075737
Cl207	Cl	1.018038	0.314278	0.409070
H208	H	0.893007	-1.107490	-0.411311
H209	H	1.226340	-0.774157	-0.077977
H210	H	1.559673	-0.440824	0.255356
Cl211	Cl	1.047004	-0.352388	-0.953596
Cl212	Cl	1.380338	-0.019055	-0.620263
Cl213	Cl	1.713671	0.314279	-0.286929
Cl214	Cl	0.707145	-0.352369	-0.257563
Cl215	Cl	1.040478	-0.019036	0.075770
Cl216	Cl	1.373811	0.314297	0.409103
H217	H	0.313333	-0.624881	-0.455924
H218	H	0.646666	-0.291547	-0.122591
H219	H	0.979999	0.041786	0.210743
Cl220	Cl	0.826652	-0.654124	-0.782118
Cl221	Cl	1.159985	-0.320790	-0.448785
Cl222	Cl	1.493318	0.012543	-0.115451
H223	H	0.848236	-0.624573	-0.635800
H224	H	1.181569	-0.291239	-0.302467
H225	H	1.514903	0.042094	0.030867
