data_functionalizedCrystal
_audit_creation_method	'MofGen! by Chris Wilmer'
_symmetry_space_group_name_H-M	'P1'
_symmetry_Int_Tables_number	1
_symmetry_cell_setting	triclinic
loop_
_symmetry_equiv_pos_as_xyz
  x,y,z
_cell_length_a	10.540539
_cell_length_b	14.044220
_cell_length_c	9.016244
_cell_angle_alpha	89.997403
_cell_angle_beta	90.000067
_cell_angle_gamma	91.142815
loop_
_atom_site_label
_atom_site_type_symbol
_atom_site_fract_x
_atom_site_fract_y
_atom_site_fract_z
O1	O	0.306257	-1.259784	0.123169
O2	O	0.295205	-0.983740	0.123208
O3	O	0.116661	-1.128060	0.123186
O4	O	0.484801	-1.115464	0.123191
O5	O	0.116663	-1.128039	-0.123495
O6	O	0.295207	-0.983719	-0.123473
O7	O	0.306259	-1.259763	-0.123511
Cu8	Cu	0.300733	-1.121739	-0.146016
Cu9	Cu	0.300731	-1.121764	0.145712
O10	O	0.484803	-1.115443	-0.123490
C11	C	0.290368	-0.948382	-0.000128
C12	C	0.275939	-0.843059	-0.000113
C13	C	0.069264	-1.127105	-0.000152
C14	C	-0.071970	-1.124279	-0.000143
N15	N	0.300735	-1.121728	-0.351202
C16	C	-0.266345	-1.015989	0.000425
C17	C	-0.119437	-1.018854	-0.000130
C18	C	-0.128497	-1.175002	-0.141017
C19	C	-0.275406	-1.171404	-0.141135
C20	C	-0.275710	-1.173572	0.139386
C21	C	-0.128630	-1.174543	0.141249
C22	C	0.532200	-1.116398	-0.000149
C23	C	0.673434	-1.119224	-0.000147
C24	C	0.311095	-1.295121	-0.000173
C25	C	0.325525	-1.400444	-0.000178
C26	C	0.249558	-0.650219	-0.000143
C27	C	0.351900	-0.593279	-0.000148
C28	C	0.337222	-0.485976	-0.000164
C29	C	0.264235	-0.757532	-0.000126
C30	C	0.395874	-1.044290	-0.586223
C31	C	0.396277	-1.044461	-0.414332
C32	C	0.340895	-1.220906	-0.413554
C33	C	0.341582	-1.220483	-0.585499
C34	C	0.165198	-1.100974	-0.585744
C35	C	0.165833	-1.098699	-0.413790
N36	N	0.300720	-1.121782	0.350899
H37	H	-0.080871	-0.978942	0.100854
H38	H	0.439014	-1.239511	-0.370478
C39	C	-0.310685	-0.959732	0.136893
N40	N	-0.344095	-0.917356	0.239682
C41	C	0.485163	-0.636289	-0.000119
N42	N	0.585532	-0.668689	-0.000089
H43	H	0.495632	-1.057491	-0.629417
H44	H	-0.096638	-1.251406	0.149745
H45	H	0.090840	-1.151400	-0.370822
C46	C	0.116305	-0.607208	-0.000142
N47	N	0.015940	-0.574801	-0.000133
H48	H	-0.315237	-1.249720	0.140323
C49	C	0.361740	-0.944902	-0.357380
N50	N	0.335734	-0.869909	-0.314491
C51	C	0.361684	-0.944424	-0.642164
N52	N	0.335936	-0.869204	-0.684319
H53	H	0.496613	-1.057837	-0.373186
H54	H	0.440759	-1.238682	-0.625589
H55	H	0.275608	-1.279995	-0.627090
C56	C	0.250397	-1.300715	-0.358304
N57	N	0.182233	-1.360826	-0.316687
C58	C	0.116809	-1.005315	-0.644372
N59	N	0.080377	-0.933260	-0.688531
H60	H	0.135616	-1.025738	-0.373038
H61	H	-0.315709	-1.247223	-0.147537
C62	C	-0.312776	-0.959955	-0.135304
N63	N	-0.347736	-0.917757	-0.237549
C64	C	-0.068511	-0.964536	-0.136773
N65	N	-0.030154	-0.923623	-0.239699
H66	H	0.094256	-1.157475	-0.626405
H67	H	-0.310713	-1.139460	0.246159
H68	H	-0.098316	-1.252422	-0.146265
C69	C	-0.318624	-1.120726	-0.283376
N70	N	-0.351170	-1.082550	-0.390512
H71	H	-0.091525	-1.137430	0.245463
C72	C	-0.075771	-1.127373	-0.282632
N73	N	-0.036061	-1.091492	-0.389294
