data_functionalizedCrystal
_audit_creation_method	'MofGen! by Chris Wilmer'
_symmetry_space_group_name_H-M	'P1'
_symmetry_Int_Tables_number	1
_symmetry_cell_setting	triclinic
loop_
_symmetry_equiv_pos_as_xyz
  x,y,z
_cell_length_a	19.121102
_cell_length_b	19.077068
_cell_length_c	19.076919
_cell_angle_alpha	85.529249
_cell_angle_beta	90.059802
_cell_angle_gamma	89.978818
loop_
_atom_site_label
_atom_site_type_symbol
_atom_site_fract_x
_atom_site_fract_y
_atom_site_fract_z
Zn1	Zn	1.041644	-0.343147	0.456188
Zn2	Zn	1.041557	-0.456297	0.343029
Zn3	Zn	0.929514	-0.333430	0.333330
Zn4	Zn	0.919678	-0.455557	0.455451
O5	O	0.983098	-0.397108	0.397000
O6	O	1.139565	-0.362533	0.445545
O7	O	1.030774	-0.436241	0.243277
O8	O	0.948541	-0.236255	0.345877
O9	O	1.139502	-0.445664	0.362408
O10	O	1.030922	-0.243394	0.436141
O11	O	0.948457	-0.345971	0.236151
O12	O	0.830276	-0.345254	0.345162
O13	O	0.931777	-0.444403	0.554014
O14	O	0.823049	-0.434980	0.434883
O15	O	1.021384	-0.361816	0.554556
O16	O	1.021237	-0.554663	0.361693
O17	O	0.931693	-0.554119	0.444288
C18	C	0.801269	-0.388983	0.388891
C19	C	0.723481	-0.385524	0.385439
C20	C	0.975406	-0.579923	0.403979
C21	C	0.972179	-0.658136	0.406991
C22	C	1.017316	-0.695143	0.365442
C23	C	1.014285	-0.768633	0.368280
C24	C	0.966111	-0.805113	0.412663
C25	C	0.920972	-0.768101	0.454217
C26	C	0.924007	-0.694613	0.451382
C27	C	0.952033	-1.024871	0.425750
C28	C	0.948999	-1.098364	0.428580
C29	C	1.042313	-1.098891	0.342643
C30	C	1.045342	-1.025401	0.339810
C31	C	1.000205	-0.988395	0.381366
N32	N	0.963010	-0.880232	0.415563
N33	N	1.003310	-0.913279	0.378470
C34	C	0.683192	-0.430680	0.430462
C35	C	0.610101	-0.427422	0.427222
C36	C	0.577302	-0.379010	0.378954
C37	C	0.617596	-0.333849	0.333929
C38	C	0.690685	-0.337105	0.337173
C39	C	0.356807	-0.366836	0.366829
C40	C	0.283713	-0.363585	0.363587
C41	C	0.276223	-0.457157	0.456881
C42	C	0.349314	-0.460412	0.460118
C43	C	0.389602	-0.415248	0.415095
C44	C	0.502592	-0.375679	0.375640
C45	C	0.464311	-0.418576	0.418414
C46	C	1.165637	-0.405265	0.405141
C47	C	1.243424	-0.408741	0.408610
C48	C	0.975493	-0.404111	0.580530
C49	C	0.972252	-0.407095	0.658740
C50	C	0.990838	-0.213580	0.390009
C51	C	0.994137	-0.135372	0.387030
C52	C	0.990716	-0.390083	0.214183
C53	C	0.994101	-0.386907	0.135972
C54	C	1.017381	-0.365500	0.695766
C55	C	1.014327	-0.368301	0.769252
C56	C	0.966148	-0.412701	0.805710
C57	C	0.921014	-0.454297	0.768679
C58	C	0.924065	-0.451492	0.695194
C59	C	0.952018	-0.425698	1.025456
C60	C	0.948972	-0.428501	1.098946
C61	C	1.042285	-0.342504	1.099514
C62	C	1.045334	-0.339706	1.026028
C63	C	1.000198	-0.381299	0.989002
N64	N	0.963027	-0.415567	0.880825
N65	N	1.003316	-0.378429	0.913889
H66	H	1.051040	-0.798761	0.334445
N67	N	0.905923	-0.987088	0.468202
N68	N	0.862914	-1.019671	0.507824
H69	H	0.830346	-0.992985	0.537808
N70	N	1.094552	-0.988150	0.294466
N71	N	1.134850	-1.021201	0.257371
H72	H	1.169604	-0.994893	0.225344
H73	H	0.881782	-0.490446	0.798369
N74	N	0.871773	-0.805374	0.499556
N75	N	0.869069	-0.870988	0.502082
H76	H	0.834321	-0.897312	0.534104
H77	H	0.915274	-0.459577	0.995319
N78	N	0.899779	-1.135618	0.473917
N79	N	0.859479	-1.102570	0.511013
H80	H	0.824717	-1.128880	0.543029
N81	N	0.584094	-0.284387	0.284635
N82	N	0.544170	-0.238719	0.305946
H83	H	0.520510	-0.203786	0.271131
N84	N	0.877909	-0.656798	0.493823
N85	N	0.902337	-0.618560	0.538193
H86	H	0.869782	-0.591852	0.568170
H87	H	0.709891	-0.470105	0.469765
N88	N	0.899730	-0.473828	1.136189
N89	N	0.835694	-0.465929	1.124922
H90	H	0.800914	-0.497931	1.151229
N91	N	0.877957	-0.493980	0.657380
N92	N	0.834940	-0.533618	0.689939
H93	H	0.802372	-0.563624	0.663234
H94	H	0.376014	-0.499835	0.499421
H95	H	0.257010	-0.324155	0.324285
N96	N	1.066586	-0.320144	0.658517
N97	N	1.069304	-0.317642	0.592906
H98	H	1.104055	-0.285606	0.566598
H99	H	0.577301	-0.464193	0.463884
N100	N	0.235070	-0.503294	0.502862
N101	N	0.193428	-0.545331	0.477933
H102	H	0.164363	-0.577917	0.510410
N103	N	1.066524	-0.657893	0.320095
N104	N	1.106821	-0.690947	0.283001
H105	H	1.141576	-0.664642	0.250974
H106	H	0.389602	-0.330066	0.330163
H107	H	0.723488	-0.300330	0.300514
N108	N	0.497823	-0.468027	0.467706
N109	N	0.537751	-0.513688	0.446386
H110	H	0.561426	-0.548615	0.481197
H111	H	1.079062	-1.129029	0.308811
H112	H	0.475878	-0.336264	0.336339
N113	N	1.060431	-0.325808	0.807062
N114	N	1.103448	-0.286173	0.774502
H115	H	1.136012	-0.256160	0.801205
N116	N	1.094559	-0.294355	0.988800
N117	N	1.134853	-0.257223	1.021869
H118	H	1.169623	-0.225196	0.995578
H119	H	1.079031	-0.308640	1.129668
