data_functionalizedCrystal
_audit_creation_method	'MofGen! by Chris Wilmer'
_symmetry_space_group_name_H-M	'P1'
_symmetry_Int_Tables_number	1
_symmetry_cell_setting	triclinic
loop_
_symmetry_equiv_pos_as_xyz
  x,y,z
_cell_length_a	20.875662
_cell_length_b	20.875492
_cell_length_c	20.016444
_cell_angle_alpha	58.306254
_cell_angle_beta	92.971503
_cell_angle_gamma	60.179274
loop_
_atom_site_label
_atom_site_type_symbol
_atom_site_fract_x
_atom_site_fract_y
_atom_site_fract_z
Zr1	Zr	0.579477	0.740640	-0.096538
O2	O	0.469720	0.881809	-0.216804
O3	O	0.618207	0.599476	-0.054085
O4	O	0.610870	0.740645	-0.201519
O5	O	0.477063	0.740634	0.040576
O6	O	0.716429	0.740645	-0.195815
O7	O	0.477057	0.740639	-0.069370
O8	O	0.729554	0.488118	0.067918
O9	O	0.463938	0.993160	-0.223157
O10	O	0.707361	0.657537	-0.038470
O11	O	0.628588	0.657533	0.039325
O12	O	0.619949	0.823742	-0.134260
O13	O	0.541176	0.823739	-0.056466
Zr14	Zr	0.747842	0.740631	0.087911
Zr15	Zr	0.747833	0.740639	-0.087440
Zr16	Zr	0.579487	0.740632	0.078813
Zr17	Zr	0.570256	0.918233	-0.106670
Zr18	Zr	0.757063	0.563038	0.098043
O19	O	0.709113	0.881795	0.045458
O20	O	0.709100	0.881807	-0.203868
O21	O	0.469733	0.881797	0.032522
O22	O	0.857600	0.599462	0.208177
O23	O	0.857587	0.599474	-0.041149
O24	O	0.618220	0.599464	0.195241
O25	O	0.850257	0.740637	-0.049203
O26	O	0.716450	0.740626	0.192892
O27	O	0.610890	0.740627	0.187188
O28	O	0.850263	0.740632	0.060743
O29	O	0.597758	0.993159	-0.215925
O30	O	0.729561	0.488112	0.207298
O31	O	0.863382	0.488111	0.214530
O32	O	0.863374	0.488118	0.075149
O33	O	0.463945	0.993154	-0.083776
O34	O	0.597765	0.993153	-0.076545
O35	O	0.707370	0.657529	0.125633
O36	O	0.786144	0.657532	0.047839
O37	O	0.698732	0.823738	-0.047952
O38	O	0.619958	0.823734	0.029843
C39	C	0.675194	0.518494	0.008360
C40	C	0.679109	0.443101	0.012661
C41	C	0.619602	0.469051	-0.052545
C42	C	0.623282	0.398225	-0.048532
C43	C	0.686466	0.301449	0.020689
C44	C	0.745979	0.275500	0.085899
C45	C	0.742301	0.346326	0.081883
C46	C	0.704046	0.083046	0.039905
C47	C	0.707717	0.012220	0.043918
C48	C	0.585021	0.134950	-0.090515
C49	C	0.581347	0.205772	-0.094522
C50	C	0.640861	0.179816	-0.029315
N51	N	0.690228	0.229052	0.024794
N52	N	0.637102	0.252213	-0.033424
C53	C	0.453073	0.740637	-0.015693
C54	C	0.381601	0.740637	-0.019555
C55	C	0.348026	0.740632	0.039199
C56	C	0.280868	0.740637	0.035561
C57	C	0.247291	0.740641	-0.026828
C58	C	0.280870	0.740650	-0.085589
C59	C	0.348023	0.740651	-0.081954
C60	C	0.046450	0.740644	-0.044198
C61	C	-0.020706	0.740639	-0.047827
C62	C	-0.020704	0.740629	0.073324
C63	C	0.046453	0.740624	0.076956
C64	C	0.080023	0.740638	0.018192
N65	N	0.178647	0.740644	-0.030547
N66	N	0.148662	0.740642	0.021907
C67	C	0.874247	0.740634	0.007066
C68	C	0.945718	0.740634	0.010928
C69	C	0.663648	0.740646	-0.223651
C70	C	0.663644	0.740650	-0.298092
C71	C	0.652125	0.962777	-0.016987
C72	C	0.648211	1.038170	-0.021288
C73	C	0.618030	0.827396	-0.519348
C74	C	0.618037	0.827392	-0.589289
C75	C	0.709295	0.653868	-0.489270
C76	C	0.709292	0.653873	-0.419331
C77	C	0.663655	0.740640	-0.434374
C78	C	0.663664	0.740631	-0.574253
C79	C	0.663672	0.740626	-0.650086
C80	C	0.663649	0.740645	-0.358537
C81	C	0.663671	0.740625	0.215023
C82	C	0.663675	0.740621	0.289464
C83	C	0.885781	0.518493	0.019740
C84	C	0.961167	0.443099	0.027903
C85	C	0.675206	0.518483	0.227697
C86	C	0.679125	0.443087	0.306439
C87	C	0.885793	0.518482	0.239077
C88	C	0.961183	0.443085	0.321681
C89	C	0.441526	0.962789	-0.247704
C90	C	0.366137	1.038186	-0.330308
C91	C	0.441538	0.962778	-0.028367
C92	C	0.366152	1.038172	-0.036530
C93	C	0.652114	0.962788	-0.236324
C94	C	0.648195	1.038184	-0.315066
C95	C	0.955446	0.407696	-0.013323
C96	C	1.026272	0.336866	-0.005670
C97	C	1.102819	0.301436	0.043215
C98	C	1.108539	0.336846	0.084441
C99	C	1.037713	0.407679	0.076783
C100	C	0.722088	0.407678	0.388477
C101	C	0.725767	0.336845	0.462469
C102	C	0.686486	0.301418	0.454423
C103	C	0.643517	0.336834	0.372377
C104	C	0.639834	0.407670	0.298385
C105	C	1.037713	0.407680	0.319866
C106	C	1.108556	0.336846	0.397474
C107	C	1.102867	0.301415	0.476898
C108	C	1.026329	0.336827	0.478711
C109	C	0.955488	0.407664	0.401103
C110	C	0.289606	1.073600	-0.328493
C111	C	0.218762	1.144455	-0.406103
C112	C	0.224451	1.179891	-0.485527
C113	C	0.300989	1.144474	-0.487340
C114	C	0.371831	1.073625	-0.409731
C115	C	0.371873	1.073582	0.004688
C116	C	0.301046	1.144432	-0.002986
C117	C	0.224499	1.179865	-0.051873
C118	C	0.218779	1.144452	-0.093096
C119	C	0.289605	1.073608	-0.085427
C120	C	0.687485	1.073589	-0.306992
C121	C	0.683819	1.144422	-0.380971
C122	C	0.640857	1.179855	-0.463023
C123	C	0.601566	1.144443	-0.471096
C124	C	0.605238	1.073606	-0.397117
H125	H	0.574826	0.419362	-0.101630
H126	H	0.797427	0.196699	0.142258
H127	H	0.284959	1.044752	-0.263830
F128	F	0.137313	1.182133	-0.404155
F129	F	-0.056438	0.740618	0.135858
H130	H	0.573239	1.044787	-0.403704
H131	H	0.253531	0.740634	0.083404
H132	H	0.375363	0.740623	0.090007
F133	F	0.453334	1.035887	0.056720
H134	H	0.529907	0.284568	-0.150901
H135	H	0.536569	0.156072	-0.143604
H136	H	0.689491	0.243738	0.514679
F137	F	0.307150	1.182106	0.040896
F138	F	0.283504	1.035924	-0.129295
H139	H	1.170870	0.308021	0.395983
F140	F	-0.056436	0.740641	-0.114234
H141	H	0.166834	1.237551	-0.058110
F142	F	0.552350	0.572045	-0.126218
H143	H	0.166760	1.237581	-0.548715
F144	F	0.601715	0.299119	0.363827
H145	H	0.305611	1.173335	-0.552016
F146	F	0.873985	0.445394	-0.065356
F147	F	0.453279	1.035936	-0.411676
F148	F	1.178271	0.226022	0.559490
F149	F	0.137305	1.182170	-0.145120
H150	H	1.021709	0.307968	0.543388
F151	F	0.757854	0.561531	-0.328887
H152	H	0.722469	1.044751	-0.240188
H153	H	0.715814	1.173247	-0.374382
F154	F	0.774970	-0.090781	0.117595
F155	F	0.757858	0.561530	-0.473270
H156	H	0.893176	0.436482	0.402593
F157	F	0.555840	1.182168	-0.558430
H158	H	1.021599	0.308044	-0.039243
F159	F	0.594108	0.445344	0.211077
F160	F	0.636955	1.255249	-0.541751
H161	H	0.752507	0.061901	0.093001
H162	H	0.754077	0.436515	0.395045
H163	H	0.375359	0.740657	-0.129800
H164	H	0.073790	0.740621	0.127759
F165	F	0.805639	0.318704	0.151281
F166	F	0.771504	0.299163	0.549781
F167	F	0.082175	0.740654	-0.106736
H168	H	0.580885	0.898038	-0.658476
H169	H	1.042360	0.436518	0.255203
H170	H	1.160484	0.243757	0.049445
H171	H	0.253525	0.740659	-0.136392
H172	H	0.580870	0.898047	-0.531601
H173	H	1.042383	0.436496	0.110360
F174	F	1.190013	0.299126	0.136468
