data_functionalizedCrystal
_audit_creation_method	'MofGen! by Chris Wilmer'
_symmetry_space_group_name_H-M	'P1'
_symmetry_Int_Tables_number	1
_symmetry_cell_setting	triclinic
loop_
_symmetry_equiv_pos_as_xyz
  x,y,z
_cell_length_a	14.044191
_cell_length_b	11.026607
_cell_length_c	10.065875
_cell_angle_alpha	79.268236
_cell_angle_beta	80.446775
_cell_angle_gamma	79.111103
loop_
_atom_site_label
_atom_site_type_symbol
_atom_site_fract_x
_atom_site_fract_y
_atom_site_fract_z
O1	O	1.319597	-0.281479	-0.113417
O2	O	1.819597	0.218521	0.386583
O3	O	1.041793	-0.270711	-0.113435
O4	O	1.541793	0.229289	0.386565
O5	O	1.157670	-0.096949	-0.113422
O6	O	1.657670	0.403051	0.386578
O7	O	1.203720	-0.455241	-0.113429
O8	O	1.703720	0.044759	0.386571
O9	O	1.135599	-0.130229	0.113564
O10	O	1.635599	0.369771	0.613564
O11	O	1.019721	-0.303990	0.113552
O12	O	1.519721	0.196010	0.613552
O13	O	1.297526	-0.314758	0.113569
O14	O	1.797526	0.185242	0.613569
Zn15	Zn	1.155119	-0.314658	0.149600
Zn16	Zn	1.655119	0.185342	0.649600
Zn17	Zn	1.184199	-0.270811	-0.149465
Zn18	Zn	1.684199	0.229189	0.350535
O19	O	1.181648	-0.488520	0.113557
O20	O	1.681648	0.011480	0.613557
C21	C	0.994639	-0.282641	0.000056
C22	C	1.494639	0.217359	0.500056
C23	C	0.887017	-0.268593	0.000049
C24	C	1.387017	0.231407	0.500049
C25	C	0.649347	-0.342540	0.000062
C26	C	1.149347	0.157460	0.500062
C27	C	0.689979	-0.242933	0.000061
C28	C	1.189979	0.257067	0.500061
C29	C	0.799621	-0.257213	0.000055
C30	C	1.299621	0.242787	0.500055
C31	C	0.539695	-0.328261	0.000068
C32	C	1.039695	0.171739	0.500068
C33	C	1.138140	-0.067458	0.000069
C34	C	1.638140	0.432542	0.500069
C35	C	1.112816	0.069999	0.000062
C36	C	1.612816	0.569999	0.500062
C37	C	1.344680	-0.302828	0.000075
C38	C	1.844680	0.197172	0.500075
C39	C	1.452303	-0.316875	0.000073
C40	C	1.952303	0.183125	0.500073
C41	C	1.201179	-0.518011	0.000063
C42	C	1.701179	-0.018011	0.500063
C43	C	1.226504	-0.655467	0.000061
C44	C	1.726504	-0.155467	0.500061
N45	N	1.135280	-0.344582	0.353703
N46	N	1.635280	0.155418	0.853703
C47	C	1.182740	0.136233	0.000065
C48	C	1.682740	0.636233	0.500065
C49	C	1.156569	0.278302	0.000058
C50	C	1.656569	0.778302	0.500058
N51	N	1.204045	-0.240878	-0.353568
N52	N	1.704045	0.259122	0.146432
C53	C	1.177289	-0.281214	0.421486
C54	C	1.677289	0.218786	0.921486
C55	C	1.162029	-0.304255	0.578652
C56	C	1.662029	0.195745	1.078652
H57	H	0.642432	-0.146917	-0.000033
H58	H	1.142432	0.353083	0.499967
H59	H	1.114758	-0.375565	0.636968
H60	H	1.614758	0.124435	1.136968
H61	H	1.261980	0.087759	0.000078
H62	H	1.761980	0.587759	0.500078
H63	H	0.696901	-0.438534	0.000056
H64	H	1.196901	0.061466	0.500056
Cl65	Cl	1.034219	0.353126	0.000036
Cl66	Cl	1.534219	0.853126	0.500036
H67	H	1.305760	0.296083	-0.000037
H68	H	1.805760	0.796083	0.499963
H69	H	1.251307	-0.169559	0.588116
H70	H	1.751307	0.330441	1.088116
H71	H	1.033576	0.118473	0.000048
H72	H	1.533576	0.618473	0.500048
H73	H	1.088012	-0.415887	0.412024
H74	H	1.588012	0.084113	0.912024
H75	H	1.224548	-0.209899	0.363167
H76	H	1.724548	0.290101	0.863167
