data_functionalizedCrystal
_audit_creation_method	'MofGen! by Chris Wilmer'
_symmetry_space_group_name_H-M	'P1'
_symmetry_Int_Tables_number	1
_symmetry_cell_setting	triclinic
loop_
_symmetry_equiv_pos_as_xyz
  x,y,z
_cell_length_a	25.639243
_cell_length_b	25.639240
_cell_length_c	25.639233
_cell_angle_alpha	90.025929
_cell_angle_beta	90.015962
_cell_angle_gamma	90.035481
loop_
_atom_site_label
_atom_site_type_symbol
_atom_site_fract_x
_atom_site_fract_y
_atom_site_fract_z
Zn1	Zn	0.799247	-0.208176	0.295630
Zn2	Zn	1.132580	0.125157	0.628963
Zn3	Zn	1.465913	0.458490	0.962296
Zn4	Zn	0.799179	-0.295595	0.208183
Zn5	Zn	1.132512	0.037738	0.541516
Zn6	Zn	1.465846	0.371071	0.874850
Zn7	Zn	0.711823	-0.208180	0.208203
Zn8	Zn	1.045156	0.125154	0.541537
Zn9	Zn	1.378490	0.458487	0.874870
Zn10	Zn	0.711777	-0.295587	0.295582
Zn11	Zn	1.045110	0.037747	0.628916
Zn12	Zn	1.378444	0.371080	0.962249
O13	O	0.755506	-0.251885	0.251900
O14	O	1.088840	0.081449	0.585233
O15	O	1.422173	0.414782	0.918566
O16	O	0.872403	-0.219775	0.284041
O17	O	1.205736	0.113559	0.617374
O18	O	1.539070	0.446892	0.950708
O19	O	0.787582	-0.284004	0.135020
O20	O	1.120915	0.049329	0.468354
O21	O	1.454249	0.382662	0.801687
O22	O	0.723467	-0.135014	0.219829
O23	O	1.056801	0.198319	0.553162
O24	O	1.390134	0.531653	0.886495
O25	O	0.872353	-0.284001	0.219794
O26	O	1.205687	0.049332	0.553128
O27	O	1.539020	0.382666	0.886461
O28	O	0.787697	-0.135012	0.284061
O29	O	1.121030	0.198322	0.617394
O30	O	1.454364	0.531655	0.950727
O31	O	0.723402	-0.219781	0.135035
O32	O	1.056735	0.113553	0.468369
O33	O	1.390069	0.446886	0.801702
O34	O	0.638652	-0.219772	0.219783
O35	O	0.971985	0.113561	0.553116
O36	O	1.305318	0.446894	0.886450
O37	O	0.723389	-0.283987	0.368754
O38	O	1.056722	0.049347	0.702087
O39	O	1.390056	0.382680	1.035421
O40	O	0.638618	-0.283990	0.283980
O41	O	0.971951	0.049343	0.617313
O42	O	1.305285	0.382677	0.950647
O43	O	0.787653	-0.219767	0.368789
O44	O	1.120986	0.113567	0.702122
O45	O	1.454319	0.446900	1.035455
O46	O	0.787538	-0.368759	0.219749
O47	O	1.120871	-0.035426	0.553082
O48	O	1.454204	0.297907	0.886415
O49	O	0.723324	-0.368753	0.283960
O50	O	1.056657	-0.035420	0.617294
O51	O	1.389990	0.297914	0.950627
C52	C	0.619664	-0.251881	0.251879
C53	C	0.952997	0.081452	0.585212
C54	C	1.286331	0.414786	0.918545
C55	C	0.561550	-0.251892	0.251882
C56	C	0.894883	0.081441	0.585216
C57	C	1.228217	0.414775	0.918549
C58	C	0.201207	-0.218495	0.285409
C59	C	0.534540	0.114839	0.618742
C60	C	0.867874	0.448172	0.952075
C61	C	0.146603	-0.218494	0.285412
C62	C	0.479936	0.114839	0.618745
C63	C	0.813269	0.448173	0.952078
O64	O	0.118383	-0.190088	0.313891
O65	O	0.451716	0.143245	0.647224
O66	O	0.785050	0.476578	0.980558
N67	N	0.119267	-0.251883	0.251914
N68	N	0.452601	0.081450	0.585247
N69	N	0.785934	0.414784	0.918581
C70	C	0.146539	-0.285271	0.218407
C71	C	0.479872	0.048062	0.551740
C72	C	0.813206	0.381396	0.885074
O73	O	0.118274	-0.313670	0.189914
O74	O	0.451608	0.019663	0.523248
O75	O	0.784941	0.352996	0.856581
C76	C	0.201142	-0.285268	0.218401
C77	C	0.534476	0.048065	0.551735
C78	C	0.867809	0.381398	0.885068
C79	C	0.228475	-0.251881	0.251905
C80	C	0.561808	0.081452	0.585239
C81	C	0.895142	0.414786	0.918572
C82	C	0.228540	-0.185109	0.318909
C83	C	0.561873	0.148224	0.652243
C84	C	0.895206	0.481557	0.985576
C85	C	0.283140	-0.185111	0.318907
C86	C	0.616473	0.148223	0.652240
C87	C	0.949807	0.481556	0.985573
C88	C	0.310408	-0.218497	0.285403
C89	C	0.643741	0.114836	0.618736
C90	C	0.977075	0.448170	0.952070
C91	C	0.283076	-0.251882	0.251903
C92	C	0.616409	0.081451	0.585236
C93	C	0.949742	0.414785	0.918569
C94	C	0.228413	-0.318653	0.184892
C95	C	0.561747	0.014680	0.518225
C96	C	0.895080	0.348014	0.851559
C97	C	0.283020	-0.318647	0.184889
C98	C	0.616354	0.014686	0.518223
C99	C	0.949687	0.348019	0.851556
C100	C	0.310353	-0.285260	0.218393
C101	C	0.643686	0.048073	0.551726
C102	C	0.977020	0.381407	0.885060
C103	C	0.364944	-0.285270	0.218396
C104	C	0.698277	0.048064	0.551730
C105	C	1.031611	0.381397	0.885063
N106	N	0.392279	-0.251881	0.251894
N107	N	0.725613	0.081453	0.585228
N108	N	1.058946	0.414786	0.918561
C109	C	0.365011	-0.218494	0.285398
C110	C	0.698345	0.114839	0.618731
C111	C	1.031678	0.448172	0.952064
C112	C	0.031869	-0.285273	0.218420
C113	C	0.365202	0.048060	0.551754
C114	C	0.698535	0.381394	0.885087
C115	C	-0.022734	-0.285279	0.218428
C116	C	0.310600	0.048055	0.551761
C117	C	0.643933	0.381388	0.885095
C118	C	-0.022667	-0.218501	0.285432
C119	C	0.310667	0.114832	0.618766
C120	C	0.644000	0.448166	0.952099
C121	C	0.031937	-0.218498	0.285427
C122	C	0.365270	0.114835	0.618760
C123	C	0.698603	0.448168	0.952094
C124	C	0.059204	-0.251884	0.251918
C125	C	0.392537	0.081449	0.585252
C126	C	0.725871	0.414783	0.918585
C127	C	0.479676	-0.218500	0.285390
C128	C	0.813010	0.114833	0.618723
C129	C	1.146343	0.448167	0.952057
C130	C	0.534282	-0.218506	0.285386
C131	C	0.867615	0.114828	0.618719
C132	C	1.200949	0.448161	0.952052
C133	C	0.534210	-0.285281	0.218380
C134	C	0.867543	0.048052	0.551713
C135	C	1.200876	0.381386	0.885046
C136	C	0.479609	-0.285278	0.218385
C137	C	0.812943	0.048056	0.551719
C138	C	1.146276	0.381389	0.885052
C139	C	0.452344	-0.251883	0.251892
C140	C	0.785677	0.081451	0.585226
C141	C	1.119011	0.414784	0.918559
O142	O	0.393198	-0.313659	0.189930
O143	O	0.726532	0.019674	0.523263
O144	O	1.059865	0.353007	0.856597
O145	O	0.393283	-0.190095	0.313881
O146	O	0.726616	0.143238	0.647214
O147	O	1.059950	0.476572	0.980547
C148	C	0.755433	-0.387727	0.251859
C149	C	1.088766	-0.054394	0.585192
C150	C	1.422099	0.278940	0.918525
C151	C	0.755449	-0.445841	0.251859
C152	C	1.088782	-0.112508	0.585192
C153	C	1.422115	0.220826	0.918525
C154	C	0.788967	-0.806164	0.285405
C155	C	1.122301	-0.472831	0.618739
C156	C	1.455634	-0.139498	0.952072
C157	C	0.788983	-0.860769	0.285416
C158	C	1.122316	-0.527435	0.618749
C159	C	1.455650	-0.194102	0.952083
O160	O	0.817394	-0.888972	0.313897
O161	O	1.150727	-0.555638	0.647230
O162	O	1.484061	-0.222305	0.980563
N163	N	0.755579	-0.888124	0.251950
N164	N	1.088912	-0.554790	0.585283
N165	N	1.422246	-0.221457	0.918617
C166	C	0.722154	-0.860871	0.218475
C167	C	1.055487	-0.527538	0.551808
C168	C	1.388820	-0.194205	0.885142
O169	O	0.693742	-0.889153	0.190011
O170	O	1.027075	-0.555819	0.523344
O171	O	1.360409	-0.222486	0.856678
C172	C	0.722136	-0.806268	0.218467
C173	C	1.055469	-0.472935	0.551801
C174	C	1.388803	-0.139601	0.885134
C175	C	0.755546	-0.778916	0.251932
C176	C	1.088879	-0.445583	0.585265
C177	C	1.422213	-0.112249	0.918599
C178	C	0.822374	-0.778812	0.318867
C179	C	1.155708	-0.445479	0.652201
C180	C	1.489041	-0.112146	0.985534
C181	C	0.822359	-0.724212	0.318856
C182	C	1.155693	-0.390879	0.652189
C183	C	1.489026	-0.057545	0.985523
C184	C	0.788938	-0.696963	0.285383
C185	C	1.122271	-0.363630	0.618716
C186	C	1.455604	-0.030297	0.952049
C187	C	0.755531	-0.724315	0.251920
C188	C	1.088864	-0.390982	0.585254
C189	C	1.422198	-0.057649	0.918587
C190	C	0.688708	-0.779017	0.184996
C191	C	1.022042	-0.445683	0.518329
C192	C	1.355375	-0.112350	0.851662
C193	C	0.688693	-0.724410	0.184991
C194	C	1.022027	-0.391076	0.518324
C195	C	1.355360	-0.057743	0.851658
C196	C	0.722103	-0.697058	0.218455
C197	C	1.055437	-0.363724	0.551789
C198	C	1.388770	-0.030391	0.885122
C199	C	0.722095	-0.642466	0.218435
C200	C	1.055428	-0.309133	0.551769
C201	C	1.388761	0.024200	0.885102
N202	N	0.755499	-0.615112	0.251901
N203	N	1.088832	-0.281778	0.585235
N204	N	1.422165	0.051555	0.918568
C205	C	0.788920	-0.642360	0.285375
C206	C	1.122253	-0.309027	0.618708
C207	C	1.455587	0.024307	0.952042
C208	C	0.722193	-0.975542	0.218494
C209	C	1.055526	-0.642209	0.551828
C210	C	1.388859	-0.308875	0.885161
C211	C	0.722213	-1.030144	0.218499
C212	C	1.055546	-0.696811	0.551832
C213	C	1.388879	-0.363478	0.885165
C214	C	0.789041	-1.030038	0.285441
C215	C	1.122375	-0.696705	0.618774
C216	C	1.455708	-0.363371	0.952107
C217	C	0.789024	-0.975435	0.285433
C218	C	1.122357	-0.642101	0.618766
C219	C	1.455690	-0.308768	0.952100
C220	C	0.755597	-0.948187	0.251960
C221	C	1.088930	-0.614854	0.585294
C222	C	1.422263	-0.281520	0.918627
C223	C	0.788887	-0.527695	0.285348
C224	C	1.122220	-0.194362	0.618681
C225	C	1.455553	0.138972	0.952015
C226	C	0.788870	-0.473090	0.285332
C227	C	1.122204	-0.139756	0.618665
C228	C	1.455537	0.193577	0.951999
C229	C	0.722040	-0.473201	0.218392
C230	C	1.055373	-0.139867	0.551726
C231	C	1.388707	0.193466	0.885059
C232	C	0.722058	-0.527801	0.218406
C233	C	1.055391	-0.194468	0.551740
C234	C	1.388725	0.138865	0.885073
C235	C	0.755483	-0.555047	0.251888
C236	C	1.088816	-0.221714	0.585222
C237	C	1.422150	0.111620	0.918555
O238	O	0.693697	-0.614229	0.189971
O239	O	1.027030	-0.280895	0.523304
O240	O	1.360363	0.052438	0.856638
O241	O	0.817322	-0.614072	0.313839
O242	O	1.150655	-0.280739	0.647172
O243	O	1.483989	0.052595	0.980506
C244	C	0.891879	-0.251888	0.251921
C245	C	1.225213	0.081445	0.585254
C246	C	1.558546	0.414778	0.918587
C247	C	0.949993	-0.251890	0.251930
C248	C	1.283327	0.081443	0.585263
C249	C	1.616660	0.414777	0.918596
C250	C	0.755523	-0.251875	0.388273
C251	C	1.088857	0.081458	0.721606
C252	C	1.422190	0.414791	1.054939
C253	C	0.755530	-0.251871	0.446387
C254	C	1.088864	0.081462	0.779720
C255	C	1.422197	0.414795	1.113053
C256	C	0.755595	-0.115511	0.251952
C257	C	1.088928	0.217822	0.585285
C258	C	1.422262	0.551155	0.918619
C259	C	0.755633	-0.057397	0.251975
C260	C	1.088966	0.275936	0.585308
C261	C	1.422299	0.609269	0.918641
C262	C	0.755520	-0.251856	0.116057
C263	C	1.088853	0.081477	0.449390
C264	C	1.422186	0.414811	0.782724
C265	C	0.755614	-0.251713	0.057943
C266	C	1.088947	0.081621	0.391277
C267	C	1.422281	0.414954	0.724610
C268	C	0.789035	-0.218333	0.806774
C269	C	1.122368	0.115001	1.140107
C270	C	1.455702	0.448334	1.473440
C271	C	0.789041	-0.218318	0.861378
C272	C	1.122375	0.115015	1.194711
C273	C	1.455708	0.448348	1.528045
O274	O	0.817486	-0.189864	0.889635
O275	O	1.150819	0.143469	1.222968
O276	O	1.484152	0.476803	1.556302
N277	N	0.755588	-0.251749	0.888669
N278	N	1.088921	0.081584	1.222003
N279	N	1.422255	0.414918	1.555336
C280	C	0.722122	-0.285192	0.861354
C281	C	1.055456	0.048141	1.194687
C282	C	1.388789	0.381474	1.528020
O283	O	0.693668	-0.313626	0.889581
O284	O	1.027001	0.019707	1.222914
O285	O	1.360335	0.353041	1.556248
C286	C	0.722114	-0.285204	0.806750
C287	C	1.055447	0.048130	1.140084
C288	C	1.388780	0.381463	1.473417
C289	C	0.755573	-0.251775	0.779462
C290	C	1.088906	0.081559	1.112795
C291	C	1.422240	0.414892	1.446128
C292	C	0.822491	-0.184906	0.779485
C293	C	1.155824	0.148427	1.112818
C294	C	1.489158	0.481761	1.446152
C295	C	0.822485	-0.184921	0.724884
C296	C	1.155818	0.148412	1.058218
C297	C	1.489152	0.481745	1.391551
C298	C	0.789023	-0.218363	0.697572
C299	C	1.122356	0.114970	1.030906
C300	C	1.455690	0.448303	1.364239
C301	C	0.755567	-0.251790	0.724861
C302	C	1.088900	0.081543	1.058194
C303	C	1.422234	0.414877	1.391528
C304	C	0.688646	-0.318644	0.779436
C305	C	1.021979	0.014689	1.112769
C306	C	1.355313	0.348022	1.446102
C307	C	0.688640	-0.318653	0.724828
C308	C	1.021973	0.014681	1.058162
C309	C	1.355306	0.348014	1.391495
C310	C	0.722099	-0.285223	0.697540
C311	C	1.055432	0.048110	1.030873
C312	C	1.388766	0.381443	1.364207
C313	C	0.722099	-0.285247	0.642949
C314	C	1.055433	0.048086	0.976282
C315	C	1.388766	0.381419	1.309615
N316	N	0.755552	-0.251817	0.615657
N317	N	1.088886	0.081517	0.948991
N318	N	1.422219	0.414850	1.282324
C319	C	0.789014	-0.218375	0.642969
C320	C	1.122348	0.114959	0.976302
C321	C	1.455681	0.448292	1.309636
C322	C	0.722143	-0.285165	0.976024
C323	C	1.055476	0.048168	1.309358
C324	C	1.388809	0.381502	1.642691
C325	C	0.722154	-0.285157	1.030627
C326	C	1.055487	0.048177	1.363960
C327	C	1.388820	0.381510	1.697293
C328	C	0.789072	-0.218282	1.030647
C329	C	1.122405	0.115051	1.363981
C330	C	1.455739	0.448385	1.697314
C331	C	0.789063	-0.218293	0.976044
C332	C	1.122397	0.115040	1.309377
C333	C	1.455730	0.448373	1.642711
C334	C	0.755596	-0.251735	0.948733
C335	C	1.088929	0.081599	1.282066
C336	C	1.422263	0.414932	1.615400
C337	C	0.789000	-0.218410	0.528304
C338	C	1.122333	0.114924	0.861637
C339	C	1.455666	0.448257	1.194971
C340	C	0.788992	-0.218429	0.473699
C341	C	1.122326	0.114904	0.807032
C342	C	1.455659	0.448237	1.140365
C343	C	0.722072	-0.285302	0.473683
C344	C	1.055406	0.048031	0.807016
C345	C	1.388739	0.381364	1.140349
C346	C	0.722081	-0.285285	0.528283
C347	C	1.055415	0.048049	0.861617
C348	C	1.388748	0.381382	1.194950
C349	C	0.755547	-0.251834	0.555593
C350	C	1.088880	0.081499	0.888926
C351	C	1.422214	0.414833	1.222259
O352	O	0.693668	-0.313686	0.614657
O353	O	1.027001	0.019648	0.947990
O354	O	1.360334	0.352981	1.281324
O355	O	0.817459	-0.189941	0.614735
O356	O	1.150792	0.143392	0.948068
O357	O	1.484126	0.476726	1.281402
H358	H	-0.044983	-0.312472	0.191152
H359	H	0.288350	0.020861	0.524485
H360	H	0.621683	0.354195	0.857818
H361	H	0.694974	-0.953360	0.191232
H362	H	1.028307	-0.620026	0.524566
H363	H	1.361641	-0.286693	0.857899
N364	N	0.686063	-0.321211	1.060054
N365	N	1.019397	0.012122	1.393388
N366	N	1.352730	0.345455	1.726721
H367	H	0.691140	-0.316131	1.098791
H368	H	1.024473	0.017203	1.432124
H369	H	1.357807	0.350536	1.765458
H370	H	0.694173	-0.358555	1.050504
H371	H	1.027507	-0.025222	1.383837
H372	H	1.360840	0.308111	1.717171
H373	H	0.206344	-0.157919	0.346192
H374	H	0.539677	0.175414	0.679525
H375	H	0.873010	0.508747	1.012858
N376	N	0.061278	-0.321291	0.182285
N377	N	0.394612	0.012042	0.515619
N378	N	0.727945	0.345376	0.848952
H379	H	0.083937	-0.300010	0.158092
H380	H	0.417270	0.033323	0.491425
H381	H	0.750603	0.366656	0.824758
H382	H	0.035641	-0.342435	0.161103
H383	H	0.368974	-0.009102	0.494436
H384	H	0.702308	0.324231	0.827770
N385	N	0.825152	-0.182238	0.946616
N386	N	1.158486	0.151095	1.279949
N387	N	1.491819	0.484428	1.613282
H388	H	0.849365	-0.203493	0.923961
H389	H	1.182699	0.129840	1.257295
H390	H	1.516032	0.463173	1.590628
H391	H	0.846316	-0.161064	0.972243
H392	H	1.179649	0.172269	1.305577
H393	H	1.512983	0.505602	1.638910
N394	N	0.686029	-0.557305	0.182308
N395	N	1.019363	-0.223972	0.515641
N396	N	1.352696	0.109362	0.848975
H397	H	0.707301	-0.579957	0.158104
H398	H	1.040634	-0.246623	0.491438
H399	H	1.373968	0.086710	0.824771
H400	H	0.664866	-0.531721	0.161135
H401	H	0.998199	-0.198388	0.494468
H402	H	1.331532	0.134946	0.827801
N403	N	0.652674	-0.808509	0.148900
N404	N	0.986007	-0.475176	0.482234
N405	N	1.319341	-0.141842	0.815567
H406	H	0.631500	-0.782954	0.127699
H407	H	0.964834	-0.449620	0.461033
H408	H	1.298167	-0.116287	0.794366
H409	H	0.628469	-0.831172	0.170163
H410	H	0.961802	-0.497839	0.503496
H411	H	1.295135	-0.164505	0.836830
N412	N	0.652642	-0.695018	0.148888
N413	N	0.985975	-0.361685	0.482221
N414	N	1.319308	-0.028352	0.815554
H415	H	0.615282	-0.704550	0.156975
H416	H	0.948616	-0.371217	0.490308
H417	H	1.281949	-0.037883	0.823641
H418	H	0.660834	-0.704550	0.111555
H419	H	0.994167	-0.371217	0.444888
H420	H	1.327501	-0.037883	0.778221
N421	N	0.061415	-0.182489	0.321563
N422	N	0.394748	0.150845	0.654896
N423	N	0.728082	0.484178	0.988229
H424	H	0.035850	-0.161342	0.342787
H425	H	0.369184	0.171991	0.676120
H426	H	0.702517	0.505325	1.009454
H427	H	0.084075	-0.158257	0.300327
H428	H	0.417408	0.175076	0.633660
H429	H	0.750742	0.508410	0.966993
H430	H	0.694830	-0.451006	0.191137
H431	H	1.028163	-0.117673	0.524470
H432	H	1.361497	0.215660	0.857804
N433	N	0.825164	-0.182211	1.060110
N434	N	1.158498	0.151123	1.393444
N435	N	1.491831	0.484456	1.726777
H436	H	0.820089	-0.187277	1.098841
H437	H	1.153422	0.146056	1.432175
H438	H	1.486755	0.479389	1.765508
H439	H	0.817049	-0.144871	1.050575
H440	H	1.150382	0.188462	1.383908
H441	H	1.483716	0.521795	1.717242
N442	N	0.686179	-1.059640	0.182403
N443	N	1.019513	-0.726307	0.515736
N444	N	1.352846	-0.392974	0.849069
H445	H	0.691256	-1.098367	0.187484
H446	H	1.024590	-0.765034	0.520818
H447	H	1.357923	-0.431701	0.854151
H448	H	0.694341	-1.050110	0.145069
H449	H	1.027675	-0.716777	0.478402
H450	H	1.361008	-0.383444	0.811735
H451	H	0.816241	-0.191207	0.451483
H452	H	1.149574	0.142126	0.784816
H453	H	1.482907	0.475460	1.118149
N454	N	0.686000	-0.321336	0.557730
N455	N	1.019333	0.011997	0.891063
N456	N	1.352667	0.345331	1.224396
H457	H	0.694091	-0.358699	0.548230
H458	H	1.027424	-0.025365	0.881563
H459	H	1.360757	0.307968	1.214896
H460	H	0.648662	-0.313171	0.548211
H461	H	0.981995	0.020162	0.881544
H462	H	1.315328	0.353495	1.214877
N463	N	0.825091	-0.182330	0.557754
N464	N	1.158424	0.151004	0.891088
N465	N	1.491758	0.484337	1.224421
H466	H	0.846282	-0.161159	0.532175
H467	H	1.179615	0.172174	0.865508
H468	H	1.512948	0.505508	1.198842
H469	H	0.849278	-0.203604	0.580410
H470	H	1.182612	0.129729	0.913743
H471	H	1.515945	0.463063	1.247077
H472	H	0.849730	-0.157699	0.702671
H473	H	1.183063	0.175634	1.036004
H474	H	1.516397	0.508968	1.369338
N475	N	0.198942	-0.354662	0.148753
N476	N	0.532275	-0.021329	0.482087
N477	N	0.865609	0.312005	0.815420
H478	H	0.224510	-0.375805	0.127529
H479	H	0.557843	-0.042472	0.460862
H480	H	0.891176	0.290861	0.794195
H481	H	0.176294	-0.333341	0.124600
H482	H	0.509627	-0.000008	0.457933
H483	H	0.842961	0.333326	0.791267
H484	H	0.556534	-0.191317	0.312670
H485	H	0.889867	0.142016	0.646004
H486	H	1.223200	0.475350	0.979337
H487	H	0.694830	-0.312531	0.451436
H488	H	1.028163	0.020802	0.784769
H489	H	1.361497	0.354135	1.118102
N490	N	0.858579	-0.148828	0.808938
N491	N	1.191913	0.184506	1.142271
N492	N	1.525246	0.517839	1.475604
H493	H	0.879767	-0.127656	0.783357
H494	H	1.213100	0.205678	1.116690
H495	H	1.546434	0.539011	1.450024
H496	H	0.882769	-0.170101	0.831592
H497	H	1.216103	0.163233	1.164925
H498	H	1.549436	0.496566	1.498258
H499	H	-0.044878	-0.191315	0.312711
H500	H	0.288455	0.142019	0.646045
H501	H	0.621789	0.475352	0.979378
N502	N	0.686040	-0.321233	0.946569
N503	N	1.019374	0.012101	1.279902
N504	N	1.352707	0.345434	1.613236
H505	H	0.664850	-0.342405	0.972147
H506	H	0.998183	-0.009072	1.305481
H507	H	1.331517	0.324262	1.638814
H508	H	0.707296	-0.345438	0.923908
H509	H	1.040629	-0.012105	1.257241
H510	H	1.373962	0.321228	1.590574
H511	H	0.816254	-1.052233	0.312698
H512	H	1.149587	-0.718900	0.646031
H513	H	1.482921	-0.385567	0.979364
N514	N	0.652541	-0.354726	0.695378
N515	N	0.985874	-0.021393	1.028712
N516	N	1.319208	0.311940	1.362045
H517	H	0.673767	-0.378965	0.672722
H518	H	1.007100	-0.045632	1.006055
H519	H	1.340433	0.287701	1.339389
H520	H	0.628328	-0.333448	0.672754
H521	H	0.961661	-0.000115	1.006088
H522	H	1.294995	0.333219	1.339421
N523	N	0.858411	-0.808197	0.354988
N524	N	1.191745	-0.474863	0.688321
N525	N	1.525078	-0.141530	1.021654
H526	H	0.879564	-0.782576	0.376185
H527	H	1.212897	-0.449243	0.709519
H528	H	1.546230	-0.115909	1.042852
H529	H	0.882637	-0.830847	0.333745
H530	H	1.215970	-0.497514	0.667079
H531	H	1.549303	-0.164180	1.000412
N532	N	0.652557	-0.354700	0.808859
N533	N	0.985890	-0.021366	1.142193
N534	N	1.319223	0.311967	1.475526
H535	H	0.631359	-0.375881	0.783264
H536	H	0.964692	-0.042548	1.116597
H537	H	1.298025	0.290786	1.449931
H538	H	0.628377	-0.333410	0.831514
H539	H	0.961710	-0.000077	1.164847
H540	H	1.295043	0.333257	1.498180
H541	H	0.457354	-0.312470	0.191110
H542	H	0.790687	0.020863	0.524443
H543	H	1.124021	0.354196	0.857777
N544	N	0.824901	-0.443587	0.321431
N545	N	1.158234	-0.110253	0.654764
N546	N	1.491568	0.223080	0.988098
H547	H	0.849141	-0.420924	0.300205
H548	H	1.182474	-0.087591	0.633538
H549	H	1.515808	0.245743	0.966871
H550	H	0.846038	-0.469169	0.342633
H551	H	1.179372	-0.135836	0.675966
H552	H	1.512705	0.197498	1.009299
H553	H	0.457483	-0.191305	0.312673
H554	H	0.790817	0.142028	0.646006
H555	H	1.124150	0.475362	0.979339
N556	N	0.563625	-0.321285	0.182240
N557	N	0.896958	0.012048	0.515574
N558	N	1.230292	0.345382	0.848907
H559	H	0.554108	-0.358657	0.190283
H560	H	0.887441	-0.025323	0.523616
H561	H	1.220774	0.308010	0.856949
H562	H	0.602353	-0.316170	0.187340
H563	H	0.935686	0.017164	0.520673
H564	H	1.269020	0.350497	0.854006
N565	N	0.312616	-0.149098	0.355041
N566	N	0.645950	0.184235	0.688375
N567	N	0.979283	0.517568	1.021708
H568	H	0.287050	-0.127950	0.376262
H569	H	0.620383	0.205383	0.709595
H570	H	0.953716	0.538717	1.042929
H571	H	0.335277	-0.124868	0.333805
H572	H	0.668611	0.208465	0.667138
H573	H	1.001944	0.541798	1.000471
H574	H	0.816101	-0.549872	0.312616
H575	H	1.149434	-0.216539	0.645949
H576	H	1.482768	0.116795	0.979283
H577	H	0.849563	-0.701945	0.346107
H578	H	1.182896	-0.368612	0.679440
H579	H	1.516230	-0.035278	1.012774
N580	N	0.312430	-0.354655	0.148745
N581	N	0.645763	-0.021321	0.482078
N582	N	0.979096	0.312012	0.815411
H583	H	0.286826	-0.375803	0.127523
H584	H	0.620159	-0.042469	0.460857
H585	H	0.953492	0.290864	0.794190
H586	H	0.335077	-0.378885	0.169976
H587	H	0.668411	-0.045552	0.503309
H588	H	1.001744	0.287782	0.836642
H589	H	0.816228	-0.953168	0.312683
H590	H	1.149562	-0.619834	0.646016
H591	H	1.482895	-0.286501	0.979349
