data_functionalizedCrystal
_audit_creation_method	'MofGen! by Chris Wilmer'
_symmetry_space_group_name_H-M	'P1'
_symmetry_Int_Tables_number	1
_symmetry_cell_setting	triclinic
loop_
_symmetry_equiv_pos_as_xyz
  x,y,z
_cell_length_a	12.594517
_cell_length_b	21.295417
_cell_length_c	12.594510
_cell_angle_alpha	89.957633
_cell_angle_beta	89.978880
_cell_angle_gamma	90.030306
loop_
_atom_site_label
_atom_site_type_symbol
_atom_site_fract_x
_atom_site_fract_y
_atom_site_fract_z
Zn1	Zn	1.627158	-0.250556	-0.601801
Zn2	Zn	1.627004	-0.355845	-0.423797
Zn3	Zn	1.449162	-0.250594	-0.423830
Zn4	Zn	1.449099	-0.355790	-0.601727
O5	O	1.538106	-0.303196	-0.512789
O6	O	1.776083	-0.264530	-0.578205
O7	O	1.603376	-0.341923	-0.274856
O8	O	1.472865	-0.162499	-0.447482
O9	O	1.775971	-0.341886	-0.447427
O10	O	1.603637	-0.162471	-0.578237
O11	O	1.472716	-0.264595	-0.274879
O12	O	1.300208	-0.264541	-0.447411
O13	O	1.472757	-0.341792	-0.750683
O14	O	1.300162	-0.341829	-0.578112
O15	O	1.603576	-0.264476	-0.750737
O16	O	1.603314	-0.443928	-0.447356
O17	O	1.472608	-0.443887	-0.578080
C18	C	1.261565	-0.303184	-0.512757
C19	C	1.143260	-0.303193	-0.512769
C20	C	1.074001	-0.261099	-0.441817
C21	C	1.003165	-0.318521	-0.415623
C22	C	1.003296	-0.245800	-0.538981
C23	C	1.073982	-0.360645	-0.486525
C24	C	1.074119	-0.287885	-0.609928
C25	C	1.003316	-0.345347	-0.583771
C26	C	1.537966	-0.466748	-0.512730
C27	C	1.538004	-0.536716	-0.512740
C28	C	1.606123	-0.569583	-0.444742
C29	C	1.606173	-0.635325	-0.444766
C30	C	1.538085	-0.668199	-0.512777
C31	C	1.469961	-0.635324	-0.580789
C32	C	1.469920	-0.569583	-0.580770
N33	N	1.444974	-0.771463	-0.520881
N34	N	1.445016	-0.833915	-0.520892
C35	C	1.538204	-0.866273	-0.512838
N36	N	1.631352	-0.833821	-0.504752
N37	N	1.631309	-0.771364	-0.504735
C38	C	1.538122	-0.739484	-0.512805
C39	C	1.606383	-0.970426	-0.444862
C40	C	1.606435	-1.036169	-0.444893
C41	C	1.470213	-1.036166	-0.580911
C42	C	1.470171	-0.970424	-0.580885
C43	C	1.538254	-0.937557	-0.512855
C44	C	1.815727	-0.303209	-0.512821
C45	C	1.934032	-0.303215	-0.512835
C46	C	1.538176	-0.303124	-0.790410
C47	C	1.538206	-0.303093	-0.908715
C48	C	1.538275	-0.139006	-0.512871
C49	C	1.538347	-0.069038	-0.512906
C50	C	1.609380	-0.261038	-0.977998
C51	C	1.512310	-0.245629	-1.048792
C52	C	1.635333	-0.318457	-1.048720
C53	C	1.441085	-0.287655	-0.977952
C54	C	1.564173	-0.360509	-0.977873
C55	C	1.467036	-0.345123	-1.048636
C56	C	1.538097	-0.303223	-0.236248
C57	C	1.538274	-0.303077	-0.117943
H58	H	0.972475	-0.380995	-0.643801
C59	C	1.396167	-0.670979	-0.654808
C60	C	1.419297	-0.654933	-0.760137
C61	C	1.351352	-0.687771	-0.828359
H62	H	1.324615	-0.660277	-0.639306
H63	H	1.405954	-0.714845	-0.645150
H64	H	1.409501	-0.611076	-0.769790
H65	H	1.490836	-0.665636	-0.775672
H66	H	1.361139	-0.731638	-0.818702
H67	H	1.279804	-0.677067	-0.812848
H68	H	1.367042	-0.676893	-0.899833
H69	H	1.490371	-0.197067	-1.079944
H70	H	1.406806	-0.380681	-1.079456
H71	H	1.669463	-0.225452	-0.946978
H72	H	1.586142	-0.409058	-0.946701
C73	C	1.744909	-0.335712	-1.090024
C74	C	1.819059	-0.291542	-1.054211
C75	C	1.920014	-0.307415	-1.092224
H76	H	1.744132	-0.335946	-1.165440
H77	H	1.763878	-0.376207	-1.064668
H78	H	1.800094	-0.251057	-1.079573
H79	H	1.819869	-0.291300	-0.978801
H80	H	1.938983	-0.347911	-1.066869
H81	H	1.919226	-0.307650	-1.167639
H82	H	1.970338	-0.277452	-1.067923
H83	H	1.104903	-0.409206	-0.464291
H84	H	1.105309	-0.274907	-0.692040
H85	H	0.972190	-0.197260	-0.561087
C86	C	1.680371	-0.934658	-0.371185
C87	C	1.748514	-0.896832	-0.431499
C88	C	1.816676	-0.863871	-0.363664
H89	H	1.721055	-0.963580	-0.330672
H90	H	1.639694	-0.909025	-0.324776
H91	H	1.789186	-0.922463	-0.477890
H92	H	1.707859	-0.867899	-0.472010
H93	H	1.776000	-0.838238	-0.317255
H94	H	1.857353	-0.892797	-0.323154
H95	H	1.862913	-0.838198	-0.404577
H96	H	1.105037	-0.225537	-0.381741
C97	C	1.680170	-0.534013	-0.370855
C98	C	1.739859	-0.576874	-0.311331
C99	C	1.808095	-0.544129	-0.243270
H100	H	1.639589	-0.508409	-0.324339
H101	H	1.726566	-0.508338	-0.411587
H102	H	1.693469	-0.602538	-0.270602
H103	H	1.780462	-0.602479	-0.357819
H104	H	1.854491	-0.518453	-0.284002
H105	H	1.767506	-0.518526	-0.196761
H106	H	1.848609	-0.573204	-0.202882
C107	C	1.331489	-0.270360	-0.936748
C108	C	1.257175	-0.314205	-0.973353
C109	C	1.156211	-0.298297	-0.935404
H110	H	1.312807	-0.229717	-0.961597
H111	H	1.332090	-0.270482	-0.861316
H112	H	1.256571	-0.314077	-1.048768
H113	H	1.275822	-0.354851	-0.948506
H114	H	1.156812	-0.298418	-0.859972
H115	H	1.137540	-0.257653	-0.960256
H116	H	1.105778	-0.328045	-0.960226
H117	H	1.661648	-0.662091	-0.389393
C118	C	1.396130	-0.533861	-0.654728
C119	C	1.456336	-0.496060	-0.723008
C120	C	1.388397	-0.463149	-0.791160
H121	H	1.349739	-0.508212	-0.614084
H122	H	1.355605	-0.562832	-0.695304
H123	H	1.496843	-0.467092	-0.682437
H124	H	1.502725	-0.521693	-0.763676
H125	H	1.347872	-0.492121	-0.831736
H126	H	1.342008	-0.437504	-0.750507
H127	H	1.429237	-0.437502	-0.837502
C128	C	1.680440	-1.071742	-0.370946
C129	C	1.740030	-1.028885	-0.311348
C130	C	1.808204	-1.061632	-0.243206
H131	H	1.726909	-1.097342	-0.411590
H132	H	1.639785	-1.097423	-0.324487
H133	H	1.780681	-1.003215	-0.357800
H134	H	1.693589	-1.003284	-0.270682
H135	H	1.767550	-1.087313	-0.196747
H136	H	1.854666	-1.087231	-0.283859
H137	H	1.848637	-1.032559	-0.202754
H138	H	1.414779	-1.062931	-0.636291
C139	C	0.961445	-0.335888	-0.306204
C140	C	0.900287	-0.390639	-0.313464
C141	C	0.861809	-0.406639	-0.212695
H142	H	0.918818	-0.302633	-0.279644
H143	H	1.019466	-0.342869	-0.259485
H144	H	0.842275	-0.383655	-0.360167
H145	H	0.942891	-0.423907	-0.340006
H146	H	0.919830	-0.413620	-0.165975
H147	H	0.819186	-0.373380	-0.186142
H148	H	0.820318	-0.443792	-0.217605
C149	C	1.396260	-0.934817	-0.654875
C150	C	1.419365	-0.950751	-0.760212
C151	C	1.351289	-0.917969	-0.828405
H152	H	1.405917	-0.890946	-0.645269
H153	H	1.324743	-0.945652	-0.639295
H154	H	1.490864	-0.939912	-0.775787
H155	H	1.409701	-0.994616	-0.769851
H156	H	1.279772	-0.928805	-0.812825
H157	H	1.360951	-0.874101	-0.818790
H158	H	1.366949	-0.928780	-0.899883
