data_functionalizedCrystal
_audit_creation_method	'MofGen! by Chris Wilmer'
_symmetry_space_group_name_H-M	'P1'
_symmetry_Int_Tables_number	1
_symmetry_cell_setting	triclinic
loop_
_symmetry_equiv_pos_as_xyz
  x,y,z
_cell_length_a	15.298068
_cell_length_b	18.101397
_cell_length_c	15.296720
_cell_angle_alpha	99.644151
_cell_angle_beta	88.354818
_cell_angle_gamma	99.679322
loop_
_atom_site_label
_atom_site_type_symbol
_atom_site_fract_x
_atom_site_fract_y
_atom_site_fract_z
Zn1	Zn	1.253391	-0.220304	-0.727359
Zn2	Zn	1.753391	0.279696	-0.227359
Zn3	Zn	1.278659	-0.319764	-0.580888
Zn4	Zn	1.778659	0.180236	-0.080888
Zn5	Zn	1.132271	-0.213108	-0.555526
Zn6	Zn	1.632271	0.286892	-0.055526
Zn7	Zn	1.106891	-0.361280	-0.701910
Zn8	Zn	1.606891	0.138720	-0.201910
O9	O	1.192803	-0.278614	-0.641421
O10	O	1.692803	0.221386	-0.141421
O11	O	1.379318	-0.219135	-0.729194
O12	O	1.879318	0.280865	-0.229194
O13	O	1.280437	-0.285229	-0.454962
O14	O	1.780437	0.214771	0.045038
O15	O	1.148385	-0.110429	-0.578356
O16	O	1.648385	0.389571	-0.078356
O17	O	1.397882	-0.292207	-0.621582
O18	O	1.897882	0.207793	-0.121582
O19	O	1.237371	-0.115715	-0.704601
O20	O	1.737371	0.384285	-0.204601
O21	O	1.172886	-0.206870	-0.436329
O22	O	1.672886	0.293130	0.063671
O23	O	1.006329	-0.247127	-0.553680
O24	O	1.506329	0.252873	-0.053680
O25	O	1.105128	-0.362965	-0.827847
O26	O	1.605128	0.137035	-0.327847
O27	O	0.987683	-0.355988	-0.661228
O28	O	1.487683	0.144012	-0.161228
O29	O	1.212761	-0.259391	-0.846545
O30	O	1.712761	0.240609	-0.346545
O31	O	1.255827	-0.428905	-0.596905
O32	O	1.755827	0.071095	-0.096905
O33	O	1.129629	-0.459407	-0.685820
O34	O	1.629629	0.040593	-0.185820
C35	C	0.965223	-0.305282	-0.601941
C36	C	1.465223	0.194718	-0.101941
C37	C	0.867860	-0.316712	-0.585072
C38	C	1.367860	0.183288	-0.085072
C39	C	0.554689	-0.197108	-0.761988
C40	C	1.054689	0.302892	-0.261988
C41	C	0.646166	-0.186372	-0.777842
C42	C	1.146166	0.313628	-0.277842
C43	C	0.701594	-0.218956	-0.729651
C44	C	1.201594	0.281044	-0.229651
C45	C	0.665536	-0.262278	-0.665603
C46	C	1.165536	0.237722	-0.165603
C47	C	0.574050	-0.273020	-0.649752
C48	C	1.074050	0.226980	-0.149752
C49	C	0.720955	-0.294868	-0.617415
C50	C	1.220955	0.205132	-0.117415
C51	C	0.684897	-0.338191	-0.553367
C52	C	1.184897	0.161809	-0.053367
C53	C	0.593419	-0.348930	-0.537518
C54	C	1.093419	0.151070	-0.037518
C55	C	0.537991	-0.316346	-0.585709
C56	C	1.037991	0.183654	-0.085709
C57	C	0.812441	-0.284126	-0.633266
C58	C	1.312441	0.215874	-0.133266
C59	C	0.831802	-0.360038	-0.521029
C60	C	1.331802	0.139962	-0.021029
C61	C	0.740325	-0.370774	-0.505175
C62	C	1.240325	0.129226	-0.005175
C63	C	1.192736	-0.471028	-0.641377
C64	C	1.692736	0.028972	-0.141377
C65	C	1.192783	-0.553339	-0.641401
C66	C	1.692783	-0.053339	-0.141401
C67	C	1.192831	-0.704046	-0.641440
C68	C	1.692831	-0.204046	-0.141440
C69	C	1.272286	-0.716181	-0.585574
C70	C	1.772286	-0.216181	-0.085574
C71	C	1.272161	-0.801778	-0.585296
C72	C	1.772161	-0.301778	-0.085296
C73	C	1.192880	-0.852427	-0.641478
C74	C	1.692880	-0.352427	-0.141478
C75	C	1.104803	-0.828104	-0.600620
C76	C	1.604803	-0.328104	-0.100620
C77	C	1.105252	-0.742332	-0.600175
C78	C	1.605252	-0.242332	-0.100175
C79	C	1.200626	-0.748177	-0.738202
C80	C	1.700626	-0.248177	-0.238202
C81	C	1.202776	-0.833505	-0.738084
C82	C	1.702776	-0.333505	-0.238084
C83	C	1.192901	-0.936287	-0.641501
C84	C	1.692901	-0.436287	-0.141501
C85	C	1.192803	-0.620187	-0.641414
C86	C	1.692803	-0.120187	-0.141414
C87	C	1.421271	-0.251842	-0.681056
C88	C	1.921271	0.248158	-0.181056
C89	C	1.518631	-0.240434	-0.697946
C90	C	2.018631	0.259566	-0.197946
C91	C	1.153295	-0.316612	-0.869863
C92	C	1.653295	0.183388	-0.369863
C93	C	1.136459	-0.332804	-0.967212
C94	C	1.636459	0.167196	-0.467212
C95	C	1.192890	-0.085449	-0.641489
C96	C	1.692890	0.414551	-0.141489
C97	C	1.192928	-0.003134	-0.641518
C98	C	1.692928	0.496866	-0.141518
C99	C	1.313165	-0.162751	-1.280561
C100	C	1.813165	0.337249	-0.780561
C101	C	1.328988	-0.147538	-1.189098
C102	C	1.828988	0.352462	-0.689098
C103	C	1.280857	-0.193853	-1.133622
C104	C	1.780857	0.306147	-0.633622
C105	C	1.216900	-0.255384	-1.169618
C106	C	1.716900	0.244616	-0.669618
C107	C	1.201080	-0.270602	-1.261090
C108	C	1.701080	0.229398	-0.761090
C109	C	1.168772	-0.301704	-1.114152
C110	C	1.668772	0.198296	-0.614152
C111	C	1.104815	-0.363235	-1.150147
C112	C	1.604815	0.136765	-0.650147
C113	C	1.088997	-0.378450	-1.241611
C114	C	1.588997	0.121550	-0.741611
C115	C	1.137128	-0.332135	-1.297087
C116	C	1.637128	0.167865	-0.797087
C117	C	1.184593	-0.286486	-1.022679
C118	C	1.684593	0.213514	-0.522679
C119	C	1.072508	-0.394338	-1.003208
C120	C	1.572508	0.105662	-0.503208
C121	C	1.056684	-0.409551	-1.094671
C122	C	1.556684	0.090449	-0.594671
C123	C	1.232208	-0.240705	-0.413876
C124	C	1.732208	0.259295	0.086124
C125	C	1.249213	-0.224284	-0.316557
C126	C	1.749213	0.275716	0.183443
H127	H	0.776078	-0.210209	-0.742561
H128	H	1.276078	0.289791	-0.242561
F129	F	1.026239	-0.873048	-0.651269
F130	F	1.526239	-0.373048	-0.151269
F131	F	0.495694	-0.162444	-0.813278
F132	F	0.995694	0.337556	-0.313278
H133	H	1.352351	-0.125051	-1.325738
H134	H	1.852351	0.374949	-0.825738
H135	H	0.710954	-0.406049	-0.453027
H136	H	1.210954	0.093951	0.046973
F137	F	1.021284	-0.443636	-0.944172
F138	F	1.521284	0.056364	-0.444172
F139	F	1.093156	-0.844772	-0.508461
F140	F	1.593156	-0.344772	-0.008461
H141	H	0.876931	-0.386575	-0.481792
H142	H	1.376931	0.113425	0.018208
H143	H	1.337967	-0.817299	-0.612689
H144	H	1.837967	-0.317299	-0.112689
H145	H	0.841790	-0.248851	-0.685413
H146	H	1.341790	0.251149	-0.185413
H147	H	1.267516	-0.848920	-0.768607
H148	H	1.767516	-0.348920	-0.268607
F149	F	1.120294	-0.348326	-1.394435
F150	F	1.620294	0.151674	-0.894435
H151	H	1.044884	-0.735572	-0.638240
H152	H	1.544884	-0.235572	-0.138240
H153	H	0.675517	-0.151101	-0.829993
H154	H	1.175517	0.348899	-0.329993
F155	F	0.440630	-0.327768	-0.568837
F156	F	0.940630	0.172232	-0.068837
H157	H	1.381064	-0.097440	-1.159797
H158	H	1.881064	0.402560	-0.659797
H159	H	1.338323	-0.690042	-0.612821
H160	H	1.838323	-0.190042	-0.112821
F161	F	0.555047	-0.395037	-0.469351
F162	F	1.055047	0.104963	0.030649
H163	H	1.142565	-0.742080	-0.780022
H164	H	1.642565	-0.242080	-0.280022
F165	F	1.131022	-0.880018	-0.797088
F166	F	1.631022	-0.380018	-0.297088
F167	F	1.267340	-0.675650	-0.492837
F168	F	1.767340	-0.175650	0.007163
F169	F	1.282038	-0.714668	-0.782793
F170	F	1.782038	-0.214668	-0.282793
H171	H	1.236667	-0.236386	-0.993380
H172	H	1.736667	0.263614	-0.493380
H173	H	1.096807	-0.713497	-0.528974
H174	H	1.596807	-0.213497	-0.028974
F175	F	1.267066	-0.816105	-0.492021
F176	F	1.767066	-0.316105	0.007979
H177	H	1.293745	-0.181463	-1.059149
H178	H	1.793745	0.318537	-0.559149
F179	F	1.020941	-0.443947	-1.279920
F180	F	1.520941	0.056053	-0.779920
H181	H	1.004609	-0.459650	-1.123992
H182	H	1.504609	0.040350	-0.623992
