data_functionalizedCrystal
_audit_creation_method	'MofGen! by Chris Wilmer'
_symmetry_space_group_name_H-M	'P1'
_symmetry_Int_Tables_number	1
_symmetry_cell_setting	triclinic
loop_
_symmetry_equiv_pos_as_xyz
  x,y,z
_cell_length_a	18.215405
_cell_length_b	18.215407
_cell_length_c	11.169409
_cell_angle_alpha	89.978739
_cell_angle_beta	90.036788
_cell_angle_gamma	89.981648
loop_
_atom_site_label
_atom_site_type_symbol
_atom_site_fract_x
_atom_site_fract_y
_atom_site_fract_z
Zn1	Zn	-0.293011	-1.125108	0.678552
Zn2	Zn	-0.416102	-1.125014	0.477853
Zn3	Zn	-0.293044	-1.002033	0.477881
Zn4	Zn	-0.416031	-1.002011	0.678493
O5	O	-0.354547	-1.063542	0.578194
O6	O	-0.309355	-1.228080	0.651941
O7	O	-0.399822	-1.108670	0.309907
O8	O	-0.190056	-1.018408	0.504537
O9	O	-0.399789	-1.228011	0.504489
O10	O	-0.190031	-1.108831	0.651968
O11	O	-0.309412	-1.018317	0.309927
O12	O	-0.309343	-0.899046	0.504480
O13	O	-0.399668	-1.018371	0.846450
O14	O	-0.399700	-0.899030	0.651868
O15	O	-0.309286	-1.108809	0.846494
O16	O	-0.519077	-1.108648	0.504432
O17	O	-0.519024	-1.018279	0.651841
C18	C	-0.354518	-0.872335	0.578171
C19	C	-0.354524	-0.790537	0.578190
C20	C	-0.307525	-0.602378	0.655087
C21	C	-0.307529	-0.525519	0.655090
C22	C	-0.401557	-0.525458	0.501311
C23	C	-0.401549	-0.602315	0.501303
C24	C	-0.354534	-0.640773	0.578198
C25	C	-0.354546	-0.487057	0.578209
C26	C	-0.354551	-0.403723	0.578212
C27	C	-0.354529	-0.724112	0.578194
C28	C	-0.545753	-1.063471	0.578153
C29	C	-0.627552	-1.063508	0.578176
C30	C	-0.815672	-1.110614	0.655047
C31	C	-0.892531	-1.110640	0.655070
C32	C	-0.892670	-1.016561	0.501416
C33	C	-0.815812	-1.016531	0.501400
C34	C	-0.777315	-1.063561	0.578214
C35	C	-0.931032	-1.063618	0.578252
C36	C	-1.014365	-1.063647	0.578276
C37	C	-0.693977	-1.063532	0.578192
C38	C	-0.162594	-1.063633	0.578262
C39	C	-0.080795	-1.063671	0.578291
C40	C	-0.354465	-1.063598	0.891237
C41	C	-0.354430	-1.063622	1.024637
C42	C	-0.354568	-0.255495	0.578216
C43	C	-0.354557	-0.337293	0.578217
C44	C	-0.354575	-1.063528	0.266370
C45	C	-0.354403	-1.063646	0.132970
H46	H	-0.439830	-0.633577	0.438684
C47	C	-0.773328	-1.162344	0.739552
N48	N	-0.741437	-1.201307	0.803207
C49	C	-0.255817	-0.483288	0.739679
N50	N	-0.216866	-0.451479	0.803395
H51	H	-0.923757	-1.148953	0.717638
C52	C	-0.453276	-0.483147	0.416739
N53	N	-0.492233	-0.451279	0.353040
H54	H	-0.924023	-0.978271	0.438875
H55	H	-0.269240	-0.633688	0.717696
C56	C	-0.773618	-0.964759	0.416886
N57	N	-0.741836	-0.925763	0.353239
