data_functionalizedCrystal
_audit_creation_method	'MofGen! by Chris Wilmer'
_symmetry_space_group_name_H-M	'P1'
_symmetry_Int_Tables_number	1
_symmetry_cell_setting	triclinic
loop_
_symmetry_equiv_pos_as_xyz
  x,y,z
_cell_length_a	29.839134
_cell_length_b	12.759399
_cell_length_c	12.759393
_cell_angle_alpha	90.026805
_cell_angle_beta	89.967527
_cell_angle_gamma	89.990888
loop_
_atom_site_label
_atom_site_type_symbol
_atom_site_fract_x
_atom_site_fract_y
_atom_site_fract_z
Zn1	Zn	0.686851	0.418359	-0.594370
Zn2	Zn	0.686805	0.594075	-0.418702
Zn3	Zn	0.611720	0.418395	-0.418670
Zn4	Zn	0.611717	0.593981	-0.594304
O5	O	0.649273	0.506203	-0.506511
O6	O	0.749712	0.441693	-0.571109
O7	O	0.676827	0.570825	-0.271676
O8	O	0.621707	0.271369	-0.441992
O9	O	0.749678	0.570790	-0.442046
O10	O	0.676905	0.271343	-0.571078
O11	O	0.621662	0.441753	-0.271653
O12	O	0.548853	0.441662	-0.441927
O13	O	0.621702	0.570630	-0.741334
O14	O	0.548850	0.570665	-0.570964
O15	O	0.676902	0.441602	-0.741383
O16	O	0.676824	0.741083	-0.441981
O17	O	0.621657	0.741015	-0.570995
C18	C	0.532551	0.506158	-0.506436
C19	C	0.482616	0.506164	-0.506428
C20	C	0.649248	0.779170	-0.506507
C21	C	0.649278	0.895947	-0.506540
C22	C	0.649307	0.506102	-0.780545
C23	C	0.649321	0.506059	-0.897322
C24	C	0.172981	0.573474	-0.573619
C25	C	-0.014692	0.573503	-0.573666
O26	O	-0.038949	0.630682	-0.630749
N27	N	-0.038169	0.506241	-0.506591
C28	C	-0.014725	0.438962	-0.439504
O29	O	-0.039000	0.381745	-0.382461
C30	C	0.172948	0.438928	-0.439463
C31	C	0.196422	0.506202	-0.506535
C32	C	0.196456	0.640741	-0.640686
C33	C	0.243371	0.640737	-0.640670
C34	C	0.266812	0.573465	-0.573586
C35	C	0.243338	0.506198	-0.506519
C36	C	0.196391	0.371644	-0.372383
C37	C	0.243312	0.371640	-0.372381
C38	C	0.266786	0.438914	-0.439452
C39	C	0.313694	0.438922	-0.439419
N40	N	0.337171	0.506184	-0.506494
C41	C	0.313730	0.573456	-0.573577
C42	C	-0.113255	0.438986	-0.439529
C43	C	-0.160173	0.438996	-0.439537
C44	C	-0.160137	0.573536	-0.573700
C45	C	-0.113218	0.573531	-0.573686
C46	C	-0.089778	0.506248	-0.506604
C47	C	0.412256	0.573443	-0.573537
C48	C	0.459176	0.573436	-0.573512
C49	C	0.459135	0.438892	-0.439353
C50	C	0.412220	0.438903	-0.439374
C51	C	0.388781	0.506182	-0.506475
O52	O	0.337981	0.381764	-0.382374
O53	O	0.338013	0.630648	-0.630628
C54	C	0.126066	0.573478	-0.573635
C55	C	0.102591	0.506210	-0.506568
C56	C	0.126032	0.438938	-0.439484
C57	C	0.055673	0.506220	-0.506577
C58	C	0.032233	0.573491	-0.573660
C59	C	0.055710	0.640753	-0.640735
C60	C	0.102625	0.640749	-0.640719
C61	C	0.102555	0.371676	-0.372410
C62	C	0.055640	0.371687	-0.372431
C63	C	0.032199	0.438958	-0.439514
C64	C	0.766452	0.506248	-0.506588
C65	C	0.816386	0.506267	-0.506621
C66	C	0.678036	0.950809	-0.439443
C67	C	0.678066	1.060533	-0.439486
C68	C	0.620574	1.060522	-0.573727
C69	C	0.620547	0.950800	-0.573688
C70	C	0.649313	1.232169	-0.506557
C71	C	0.649334	1.115393	-0.506622
C72	C	0.678066	0.438863	-0.952211
C73	C	0.678074	0.438818	-1.061935
C74	C	0.620590	0.573173	-1.061871
C75	C	0.620581	0.573212	-0.952149
C76	C	0.649266	0.506227	-0.233544
C77	C	0.649338	0.505974	-0.116768
H78	H	0.478286	0.628222	-0.628131
C79	C	0.269093	0.297625	-0.298580
N80	N	0.288510	0.241880	-0.242990
H81	H	0.701480	0.384098	-1.106621
C82	C	0.709700	1.120878	-0.365669
N83	N	0.733529	1.166328	-0.310067
H84	H	-0.094108	0.628310	-0.628303
C85	C	0.709678	0.364983	-0.891905
N86	N	0.733487	0.309330	-0.846485
H87	H	0.597170	0.627930	-0.907457
C88	C	0.588968	1.120871	-0.647574
N89	N	0.565159	1.166325	-0.703192
C90	C	0.386397	0.364907	-0.365584
N91	N	0.366950	0.309164	-0.310011
H92	H	0.597192	0.627849	-1.106525
H93	H	0.701431	0.906150	-0.384769
C94	C	0.484929	0.364885	-0.365577
N95	N	0.504359	0.309132	-0.310018
C96	C	0.269187	0.714739	-0.714460
N97	N	0.288629	0.770480	-0.770045
C98	C	0.386480	0.647461	-0.647344
N99	N	0.367066	0.703217	-0.702928
H100	H	-0.179230	0.628311	-0.628323
C101	C	-0.087477	0.364972	-0.365721
N102	N	-0.068063	0.309228	-0.310125
C103	C	0.170678	0.714763	-0.714478
N104	N	0.151266	0.770531	-0.770055
C105	C	-0.185990	0.364996	-0.365747
N106	N	-0.205433	0.309250	-0.310171
H107	H	0.121734	0.695530	-0.695336
C108	C	0.170579	0.297624	-0.298609
N109	N	0.151139	0.241863	-0.243043
H110	H	0.036616	0.695531	-0.695354
H111	H	0.036531	0.316905	-0.317803
C112	C	0.588918	0.890447	-0.647526
N113	N	0.565101	0.844989	-0.703147
H114	H	0.121636	0.316894	-0.317781
