data_functionalizedCrystal
_audit_creation_method	'MofGen! by Chris Wilmer'
_symmetry_space_group_name_H-M	'P1'
_symmetry_Int_Tables_number	1
_symmetry_cell_setting	triclinic
loop_
_symmetry_equiv_pos_as_xyz
  x,y,z
_cell_length_a	10.654545
_cell_length_b	10.489716
_cell_length_c	9.730223
_cell_angle_alpha	89.999635
_cell_angle_beta	89.997167
_cell_angle_gamma	84.506107
loop_
_atom_site_label
_atom_site_type_symbol
_atom_site_fract_x
_atom_site_fract_y
_atom_site_fract_z
O1	O	1.667911	0.179136	-0.114263
O2	O	1.302438	0.196212	-0.114267
O3	O	1.493507	0.002070	-0.114270
O4	O	1.476842	0.373278	-0.114260
O5	O	1.493494	0.002065	0.114310
O6	O	1.302426	0.196207	0.114313
O7	O	1.667898	0.179131	0.114317
Zn8	Zn	1.485160	0.187668	0.150607
Zn9	Zn	1.485176	0.187675	-0.150557
O10	O	1.476830	0.373273	0.114320
C11	C	1.255633	0.194957	0.000022
C12	C	1.116188	0.191209	0.000020
C13	C	1.050676	0.189442	0.124619
C14	C	0.919656	0.185900	0.124619
C15	C	0.919670	0.185897	-0.124591
C16	C	1.050689	0.189430	-0.124590
C17	C	1.492248	-0.045464	0.000016
C18	C	1.488502	-0.187093	0.000003
C19	C	1.605671	-0.284826	0.000017
C20	C	1.543763	-0.362153	-0.112682
C21	C	1.543723	-0.362122	0.112680
C22	C	1.426642	-0.262555	-0.112789
C23	C	1.426620	-0.262519	0.112674
C24	C	1.364625	-0.339797	-0.000052
C25	C	1.714703	0.180386	0.000025
C26	C	1.854148	0.184134	0.000018
C27	C	1.478088	0.420807	0.000031
C28	C	1.481834	0.562436	0.000034
N29	N	1.485158	0.187662	0.356143
N30	N	1.485188	0.187671	-0.356093
C31	C	1.569792	0.101733	0.428068
C32	C	1.569805	0.101733	0.571951
C33	C	1.400545	0.273604	0.571972
C34	C	1.400527	0.273596	0.428091
H35	H	1.593230	-0.405670	-0.207961
O36	O	0.849031	0.183987	-0.258992
H37	H	0.778926	0.269173	-0.264966
H38	H	1.104002	0.190891	0.226084
O39	O	1.740666	-0.252191	-0.000140
H40	H	1.789688	-0.293807	0.092482
H41	H	1.331602	0.343571	0.369526
H42	H	1.377213	-0.219224	-0.208173
O43	O	1.121363	0.191341	-0.258985
H44	H	1.053806	0.189530	-0.345634
O45	O	1.361165	-0.204826	0.238888
H46	H	1.280313	-0.136559	0.207181
O47	O	1.609253	-0.419710	0.238906
H48	H	1.541333	-0.469474	0.300868
O49	O	1.229516	-0.372067	-0.000096
H50	H	1.181183	-0.331812	-0.093730
O51	O	1.661053	0.009038	0.350460
H52	H	1.719896	-0.050723	0.424652
O53	O	1.661104	0.009069	0.649533
H54	H	1.719956	-0.050672	0.575325
H55	H	1.331642	0.343571	0.630566
H56	H	0.866321	0.184461	0.226081
