data_functionalizedCrystal
_audit_creation_method	'MofGen! by Chris Wilmer'
_symmetry_space_group_name_H-M	'P1'
_symmetry_Int_Tables_number	1
_symmetry_cell_setting	triclinic
loop_
_symmetry_equiv_pos_as_xyz
  x,y,z
_cell_length_a	14.044191
_cell_length_b	11.026607
_cell_length_c	10.065875
_cell_angle_alpha	100.731764
_cell_angle_beta	99.551392
_cell_angle_gamma	79.111103
loop_
_atom_site_label
_atom_site_type_symbol
_atom_site_fract_x
_atom_site_fract_y
_atom_site_fract_z
O1	O	1.319591	-0.281488	0.113356
O2	O	1.041788	-0.270718	0.113386
O3	O	1.157665	-0.096957	0.113369
O4	O	1.203714	-0.455249	0.113373
O5	O	1.135594	-0.130236	-0.113617
O6	O	1.019716	-0.303997	-0.113599
O7	O	1.297520	-0.314767	-0.113630
Zn8	Zn	1.155114	-0.314666	-0.149653
Zn9	Zn	1.184194	-0.270819	0.149410
O10	O	1.181643	-0.488528	-0.113612
C11	C	0.994634	-0.282648	-0.000102
C12	C	0.887013	-0.268599	-0.000091
C13	C	1.344674	-0.302837	-0.000138
C14	C	1.452296	-0.316885	-0.000141
C15	C	1.138134	-0.067466	-0.000122
C16	C	1.112811	0.069992	-0.000114
C17	C	1.689968	-0.242935	-0.000114
C18	C	1.649335	-0.342543	-0.000118
C19	C	1.539692	-0.328263	-0.000131
C20	C	1.799620	-0.257213	-0.000101
C21	C	1.201174	-0.518019	-0.000119
C22	C	1.226498	-0.655475	-0.000118
N23	N	1.135274	-0.344590	-0.353756
C24	C	1.182735	0.136225	-0.000120
C25	C	1.156564	0.278294	-0.000112
C26	C	1.177284	-0.281222	-0.421541
C27	C	1.162024	-0.304263	-0.578706
N28	N	1.204039	-0.240886	0.353512
H29	H	1.696892	-0.438544	-0.000111
H30	H	1.642414	-0.146942	-0.000122
H31	H	1.224543	-0.209908	-0.363224
H32	H	1.261975	0.087751	-0.000137
Cl33	Cl	1.034215	0.353119	-0.000085
H34	H	1.305754	0.296074	-0.000024
H35	H	1.033571	0.118466	-0.000096
H36	H	1.114753	-0.375572	-0.637020
H37	H	1.251301	-0.169567	-0.588174
H38	H	1.088007	-0.415895	-0.412075
