data_functionalizedCrystal
_audit_creation_method	'MofGen! by Chris Wilmer'
_symmetry_space_group_name_H-M	'P1'
_symmetry_Int_Tables_number	1
_symmetry_cell_setting	triclinic
loop_
_symmetry_equiv_pos_as_xyz
  x,y,z
_cell_length_a	19.288864
_cell_length_b	11.295501
_cell_length_c	19.288865
_cell_angle_alpha	85.383409
_cell_angle_beta	96.863755
_cell_angle_gamma	94.625353
loop_
_atom_site_label
_atom_site_type_symbol
_atom_site_fract_x
_atom_site_fract_y
_atom_site_fract_z
O1	O	0.925526	0.099423	-0.090825
O2	O	1.258859	0.432757	0.242509
O3	O	1.592192	0.766090	0.575842
O4	O	0.723262	0.099344	-0.102510
O5	O	1.056595	0.432677	0.230823
O6	O	1.389928	0.766010	0.564157
O7	O	0.830237	0.099362	0.004464
O8	O	1.163570	0.432696	0.337797
O9	O	1.496904	0.766029	0.671131
O10	O	0.818550	0.099405	-0.197798
O11	O	1.151883	0.432738	0.135535
O12	O	1.485217	0.766072	0.468868
O13	O	0.821906	-0.098694	0.012788
O14	O	1.155240	0.234640	0.346121
O15	O	1.488573	0.567973	0.679454
O16	O	0.714931	-0.098712	-0.094186
O17	O	1.048264	0.234621	0.239147
O18	O	1.381598	0.567954	0.572480
O19	O	0.917195	-0.098633	-0.082501
O20	O	1.250528	0.234701	0.250833
O21	O	1.583862	0.568034	0.584166
Cu22	Cu	0.815302	-0.116757	-0.087583
Cu23	Cu	1.148636	0.216577	0.245750
Cu24	Cu	1.481969	0.549910	0.579083
Cu25	Cu	0.825154	0.117468	-0.097427
Cu26	Cu	1.158488	0.450801	0.235906
Cu27	Cu	1.491821	0.784134	0.569239
O28	O	0.810220	-0.098651	-0.189475
O29	O	1.143553	0.234682	0.143859
O30	O	1.476886	0.568016	0.477192
C31	C	0.693219	0.000305	-0.097971
C32	C	1.026553	0.333639	0.235362
C33	C	1.359886	0.666972	0.568695
C34	C	0.616115	0.000274	-0.096841
C35	C	0.949448	0.333607	0.236492
C36	C	1.282781	0.666940	0.569825
C37	C	0.571420	0.000306	-0.159610
C38	C	0.904753	0.333639	0.173723
C39	C	1.238086	0.666972	0.507056
C40	C	0.498973	0.000319	-0.158550
C41	C	0.832306	0.333652	0.174783
C42	C	1.165640	0.666985	0.508116
C43	C	0.471226	0.000324	-0.094718
C44	C	0.804559	0.333657	0.238615
C45	C	1.137892	0.666990	0.571948
C46	C	0.515930	0.000285	-0.031941
C47	C	0.849264	0.333618	0.301393
C48	C	1.182597	0.666952	0.634726
C49	C	0.588375	0.000260	-0.033002
C50	C	0.921708	0.333593	0.300331
C51	C	1.255041	0.666927	0.633665
C52	C	0.365884	0.069741	-0.047457
C53	C	0.699217	0.403074	0.285877
C54	C	1.032550	0.736408	0.619210
C55	C	0.293440	0.069773	-0.046398
C56	C	0.626774	0.403106	0.286935
C57	C	0.960107	0.736440	0.620269
C58	C	0.247783	0.000395	-0.091442
C59	C	0.581116	0.333728	0.241892
C60	C	0.914450	0.667062	0.575225
C61	C	0.274577	-0.069000	-0.137556
C62	C	0.607910	0.264333	0.195777
C63	C	0.941244	0.597667	0.529110
C64	C	0.347021	-0.069025	-0.138618
C65	C	0.680355	0.264308	0.194716
C66	C	1.013688	0.597642	0.528049
C67	C	0.392673	0.000350	-0.093560
C68	C	0.726006	0.333683	0.239773
C69	C	1.059339	0.667016	0.573106
C70	C	0.124533	0.000439	-0.153066
C71	C	0.457866	0.333773	0.180268
C72	C	0.791199	0.667106	0.513601
C73	C	0.052085	0.000445	-0.152003
C74	C	0.385418	0.333778	0.181331
C75	C	0.718752	0.667111	0.514664
C76	C	0.069044	0.000423	-0.025392
C77	C	0.402378	0.333756	0.307942
C78	C	0.735711	0.667090	0.641275
C79	C	0.141490	0.000405	-0.026456
C80	C	0.474823	0.333739	0.306877
C81	C	0.808157	0.667072	0.640211
C82	C	0.169230	0.000419	-0.090295
C83	C	0.502563	0.333753	0.243038
C84	C	0.835896	0.667086	0.576372
N85	N	0.808378	-0.281497	-0.080659
N86	N	1.141711	0.051836	0.252674
N87	N	1.475045	0.385170	0.586007
C88	C	0.881921	-0.530741	-0.154222
C89	C	1.215254	-0.197407	0.179111
C90	C	1.548588	0.135926	0.512444
C91	C	0.876694	-0.655408	-0.148984
C92	C	1.210027	-0.322074	0.184349
C93	C	1.543360	0.011259	0.517682
C94	C	0.792700	-0.655500	-0.064941
C95	C	1.126034	-0.322167	0.268392
C96	C	1.459367	0.011166	0.601726
C97	C	0.797928	-0.530833	-0.070179
C98	C	1.131261	-0.197500	0.263154
C99	C	1.464594	0.135833	0.596487
C100	C	0.842539	-0.468458	-0.114822
C101	C	1.175872	-0.135125	0.218511
C102	C	1.509205	0.198209	0.551844
C103	C	0.847762	-0.343789	-0.120064
C104	C	1.181095	-0.010455	0.213269
C105	C	1.514429	0.322878	0.546603
C106	C	0.763772	-0.343884	-0.036018
C107	C	1.097106	-0.010550	0.297316
C108	C	1.430439	0.322783	0.630649
C109	C	0.758545	-0.468551	-0.030779
C110	C	1.091879	-0.135217	0.302554
C111	C	1.425212	0.198116	0.635887
C112	C	0.947237	0.000409	-0.087039
C113	C	1.280571	0.333742	0.246294
C114	C	1.613904	0.667075	0.579627
C115	C	1.024343	0.000448	-0.088170
C116	C	1.357676	0.333781	0.245163
C117	C	1.691009	0.667114	0.578497
C118	C	0.825696	0.000331	0.034502
C119	C	1.159029	0.333664	0.367836
C120	C	1.492362	0.666997	0.701169
C121	C	0.824566	0.000320	0.111607
C122	C	1.157899	0.333653	0.444940
C123	C	1.491233	0.666986	0.778273
N124	N	0.832084	0.282208	-0.104346
N125	N	1.165417	0.615542	0.228988
N126	N	1.498751	0.948875	0.562321
C127	C	0.814761	0.000383	-0.219513
C128	C	1.148095	0.333716	0.113820
C129	C	1.481428	0.667050	0.447153
C130	C	0.815891	0.000402	-0.296618
C131	C	1.149224	0.333735	0.036716
C132	C	1.482558	0.667069	0.370049
C133	C	0.887335	0.000339	0.156302
C134	C	1.220668	0.333672	0.489635
C135	C	1.554001	0.667005	0.822969
C136	C	0.886275	0.000357	0.228748
C137	C	1.219608	0.333690	0.562082
C138	C	1.552942	0.667024	0.895415
C139	C	0.822442	0.000333	0.256497
C140	C	1.155775	0.333666	0.589830
C141	C	1.489108	0.666999	0.923164
C142	C	0.759665	0.000320	0.211791
C143	C	1.092998	0.333654	0.545125
C144	C	1.426332	0.666987	0.878458
C145	C	0.760727	0.000314	0.139346
C146	C	1.094061	0.333647	0.472679
C147	C	1.427394	0.666981	0.806013
C148	C	0.769343	-0.069062	0.367701
C149	C	1.102677	0.264271	0.701034
C150	C	1.436010	0.597605	1.034367
C151	C	0.768283	-0.069063	0.440145
C152	C	1.101617	0.264271	0.773479
C153	C	1.434950	0.597604	1.106812
C154	C	0.819163	0.000358	0.479941
C155	C	1.152496	0.333691	0.813275
C156	C	1.485830	0.667025	1.146608
C157	C	0.871114	0.069764	0.447286
C158	C	1.204447	0.403097	0.780620
C159	C	1.537781	0.736431	1.113953
C160	C	0.872176	0.069758	0.374841
C161	C	1.205509	0.403091	0.708174
C162	C	1.538843	0.736424	1.041508
C163	C	0.821283	0.000340	0.335051
C164	C	1.154616	0.333674	0.668384
C165	C	1.487950	0.667007	1.001717
C166	C	0.880787	0.000399	0.603192
C167	C	1.214120	0.333732	0.936525
C168	C	1.547454	0.667065	1.269859
C169	C	0.879725	0.000424	0.675639
C170	C	1.213058	0.333758	1.008972
C171	C	1.546391	0.667091	1.342306
C172	C	0.753113	0.000376	0.658681
C173	C	1.086446	0.333709	0.992014
C174	C	1.419779	0.667042	1.325347
C175	C	0.754177	0.000362	0.586235
C176	C	1.087510	0.333695	0.919568
C177	C	1.420844	0.667029	1.252902
C178	C	0.818016	0.000368	0.558495
C179	C	1.151349	0.333701	0.891829
C180	C	1.484683	0.667034	1.225162
H181	H	0.015694	0.000464	-0.203119
H182	H	0.349027	0.333797	0.130215
H183	H	0.682361	0.667131	0.463548
Cl184	Cl	0.938002	-0.452322	-0.210343
Cl185	Cl	1.271335	-0.118988	0.122990
Cl186	Cl	1.604669	0.214345	0.456324
Cl187	Cl	0.197681	0.000372	0.052458
Cl188	Cl	0.531015	0.333706	0.385792
Cl189	Cl	0.864348	0.667039	0.719125
H190	H	0.756387	-0.706308	-0.028587
H191	H	1.089721	-0.372975	0.304746
H192	H	1.423054	-0.039641	0.638079
H193	H	0.731701	-0.293160	-0.003939
H194	H	1.065034	0.040174	0.329395
H195	H	1.398367	0.373507	0.662728
Cl196	Cl	0.702977	-0.156320	0.481190
Cl197	Cl	1.036311	0.177014	0.814524
Cl198	Cl	1.369644	0.510347	1.147857
Cl199	Cl	0.259764	0.157024	0.011567
Cl200	Cl	0.593097	0.490357	0.344900
Cl201	Cl	0.926430	0.823690	0.678233
Cl202	Cl	0.702465	-0.546977	0.025339
Cl203	Cl	1.035798	-0.213643	0.358673
Cl204	Cl	1.369132	0.119690	0.692006
H205	H	0.493334	0.000305	0.020031
H206	H	0.826668	0.333639	0.353365
H207	H	1.160001	0.666972	0.686698
Cl208	Cl	0.926207	-0.733702	-0.198517
Cl209	Cl	1.259540	-0.400369	0.134817
Cl210	Cl	1.592874	-0.067036	0.468150
H211	H	0.046456	0.000501	0.026579
H212	H	0.379790	0.333834	0.359912
H213	H	0.713123	0.667168	0.693245
Cl214	Cl	0.967591	0.000379	0.121432
Cl215	Cl	1.300924	0.333713	0.454765
Cl216	Cl	1.634257	0.667046	0.788098
Cl217	Cl	0.965190	0.000382	0.284947
Cl218	Cl	1.298523	0.333715	0.618281
Cl219	Cl	1.631857	0.667048	0.951614
Cl220	Cl	0.903845	-0.265375	-0.176185
Cl221	Cl	1.237178	0.067958	0.157149
Cl222	Cl	1.570511	0.401292	0.490482
H223	H	0.914475	0.126273	0.348256
H224	H	1.247808	0.459606	0.681590
H225	H	1.581142	0.792939	1.014923
H226	H	0.912545	0.126294	0.479687
H227	H	1.245878	0.459627	0.813020
H228	H	1.579212	0.792960	1.146354
Cl229	Cl	0.961039	0.000399	0.568316
Cl230	Cl	1.294373	0.333732	0.901649
Cl231	Cl	1.627706	0.667065	1.234983
Cl232	Cl	0.423275	0.156968	0.009176
Cl233	Cl	0.756608	0.490301	0.342509
Cl234	Cl	1.089941	0.823634	0.675842
Cl235	Cl	0.644566	0.000221	0.045915
Cl236	Cl	0.977899	0.333554	0.379248
Cl237	Cl	1.311233	0.666888	0.712581
H238	H	0.930841	0.000446	0.712030
H239	H	1.264174	0.333780	1.045363
H240	H	1.597508	0.667113	1.378697
Cl241	Cl	0.705375	-0.156346	0.317679
Cl242	Cl	1.038708	0.176987	0.651012
Cl243	Cl	1.372042	0.510321	0.984346
H244	H	0.701139	0.000362	0.681273
H245	H	1.034472	0.333695	1.014606
H246	H	1.367805	0.667028	1.347939
H247	H	0.703064	0.000340	0.549843
H248	H	1.036397	0.333673	0.883176
H249	H	1.369730	0.667007	1.216510
Cl250	Cl	0.679418	0.000299	0.246674
Cl251	Cl	1.012751	0.333633	0.580007
Cl252	Cl	1.346085	0.666966	0.913340
H253	H	0.594000	0.000319	-0.211593
H254	H	0.927334	0.333653	0.121740
H255	H	1.260667	0.666986	0.455073
H256	H	0.462575	0.000341	-0.209666
H257	H	0.795909	0.333675	0.123667
H258	H	1.129242	0.667008	0.457001
Cl259	Cl	0.380704	-0.156265	-0.196584
Cl260	Cl	0.714037	0.177068	0.136749
Cl261	Cl	1.047370	0.510401	0.470083
Cl262	Cl	0.159409	0.000445	-0.233318
Cl263	Cl	0.492742	0.333778	0.100015
Cl264	Cl	0.826075	0.667111	0.433348
H265	H	0.709612	0.000298	0.102954
H266	H	1.042945	0.333632	0.436287
H267	H	1.376278	0.666965	0.769621
H268	H	0.237404	-0.125495	-0.174235
H269	H	0.570737	0.207838	0.159099
H270	H	0.904070	0.541171	0.492432
