data_functionalizedCrystal
_audit_creation_method	'MofGen! by Chris Wilmer'
_symmetry_space_group_name_H-M	'P1'
_symmetry_Int_Tables_number	1
_symmetry_cell_setting	triclinic
loop_
_symmetry_equiv_pos_as_xyz
  x,y,z
_cell_length_a	17.077404
_cell_length_b	10.685194
_cell_length_c	10.685880
_cell_angle_alpha	89.700112
_cell_angle_beta	94.395125
_cell_angle_gamma	94.375067
loop_
_atom_site_label
_atom_site_type_symbol
_atom_site_fract_x
_atom_site_fract_y
_atom_site_fract_z
Zn1	Zn	1.205766	-0.553834	0.670974
Zn2	Zn	1.185684	-0.747593	0.445117
Zn3	Zn	1.065246	-0.537816	0.461222
Zn4	Zn	1.063729	-0.763562	0.654835
O5	O	1.130106	-0.650701	0.558037
O6	O	1.312949	-0.579558	0.641027
O7	O	1.161939	-0.706378	0.271704
O8	O	1.092926	-0.364376	0.502541
O9	O	1.298195	-0.721911	0.475091
O10	O	1.196165	-0.376145	0.656644
O11	O	1.073453	-0.552256	0.283537
O12	O	0.955198	-0.567740	0.486891
O13	O	1.090340	-0.749128	0.832525
O14	O	0.954084	-0.733595	0.629137
O15	O	1.194694	-0.595042	0.844382
O16	O	1.160467	-0.925275	0.459442
O17	O	1.070867	-0.937008	0.613520
C18	C	0.926159	-0.650663	0.558011
C19	C	0.838909	-0.650680	0.558028
C20	C	0.805600	-0.576708	0.644543
C21	C	0.723620	-0.576717	0.644548
C22	C	0.674949	-0.650704	0.558043
C23	C	0.708264	-0.724679	0.471520
C24	C	0.790243	-0.724662	0.471510
C25	C	0.537393	-0.724710	0.471549
C26	C	0.455408	-0.724728	0.471560
C27	C	0.470770	-0.576764	0.644587
C28	C	0.552750	-0.576748	0.644577
C29	C	0.586058	-0.650724	0.558054
C30	C	1.113346	-0.976665	0.533009
C31	C	1.106250	-1.116117	0.522344
C32	C	1.334850	-0.650740	0.558063
C33	C	1.422100	-0.650756	0.558074
C34	C	1.144588	-0.675653	0.885244
C35	C	1.150759	-0.686286	1.024680
C36	C	1.146955	-0.323466	0.583190
C37	C	1.154134	-0.184018	0.593908
C38	C	1.115731	-0.625756	0.232109
C39	C	1.109730	-0.614769	0.092701
H40	H	0.845223	-0.516463	0.714988
O41	O	1.209546	-1.126309	0.676845
C42	C	1.252654	-1.217432	0.741218
H43	H	1.215987	-1.311248	0.738445
H44	H	1.309571	-1.227769	0.694321
C45	C	1.317426	-1.061052	0.882037
C46	C	1.272388	-1.176276	0.878640
H47	H	1.329602	-1.035664	0.966804
H48	H	1.288385	-0.999659	0.838666
H49	H	1.364851	-1.069681	0.842950
H50	H	1.224960	-1.167643	0.917713
H51	H	1.301421	-1.237668	0.922022
H52	H	0.443647	-0.516527	0.715034
H53	H	1.059814	-1.164676	0.452917
O54	O	1.198410	-0.768969	1.082320
C55	C	1.276662	-0.739135	1.052526
H56	H	1.276604	-0.683731	0.961064
H57	H	1.309648	-0.680195	1.131208
C58	C	1.317729	-0.929053	1.149579
C59	C	1.317658	-0.861014	1.037239
H60	H	1.343019	-1.004233	1.140155
H61	H	1.265010	-0.949152	1.169657
H62	H	1.345216	-0.879923	1.215136
H63	H	1.290162	-0.910138	0.971688
H64	H	1.370373	-0.840927	1.017150
O65	O	0.691392	-0.504831	0.728710
C66	C	0.751929	-0.439506	0.805042
H67	H	0.807915	-0.491220	0.805349
H68	H	0.763517	-0.340657	0.766582
C69	C	0.658013	-0.368305	0.939585
C70	C	0.726774	-0.431827	0.939970
H71	H	0.642496	-0.363562	1.022814
H72	H	0.617227	-0.412311	0.888156
H73	H	0.667679	-0.285937	0.907529
H74	H	0.717105	-0.514197	0.972011
H75	H	0.767557	-0.387834	0.991407
O76	O	0.569621	-0.796690	0.387457
C77	C	0.509087	-0.861981	0.311092
H78	H	0.452700	-0.870325	0.362132
H79	H	0.498513	-0.808641	0.219425
C80	C	0.602669	-0.983834	0.219865
C81	C	0.533415	-0.994092	0.282559
H82	H	0.617676	-1.065324	0.202259
H83	H	0.643453	-0.939844	0.271310
H84	H	0.593849	-0.939379	0.143483
H85	H	0.542239	-1.038532	0.358946
H86	H	0.492633	-1.038093	0.231126
O87	O	0.822472	-0.796639	0.387425
C88	C	0.761938	-0.861926	0.311056
H89	H	0.705552	-0.870279	0.362100
H90	H	0.751362	-0.808577	0.219395
C91	C	0.855521	-0.983763	0.219812
C92	C	0.786269	-0.994032	0.282509
H93	H	0.870530	-1.065250	0.202196
H94	H	0.896305	-0.939775	0.271259
H95	H	0.846699	-0.939301	0.143435
H96	H	0.795095	-1.038479	0.358891
H97	H	0.745487	-1.038030	0.231074
H98	H	0.415783	-0.784976	0.401121
H99	H	1.069874	-0.545403	1.044257
H100	H	0.668630	-0.784914	0.401080
H101	H	0.592375	-0.516508	0.715023
