data_functionalizedCrystal
_audit_creation_method	'MofGen! by Chris Wilmer'
_symmetry_space_group_name_H-M	'P1'
_symmetry_Int_Tables_number	1
_symmetry_cell_setting	triclinic
loop_
_symmetry_equiv_pos_as_xyz
  x,y,z
_cell_length_a	17.077404
_cell_length_b	12.645330
_cell_length_c	12.645324
_cell_angle_alpha	89.959943
_cell_angle_beta	90.021692
_cell_angle_gamma	89.980479
loop_
_atom_site_label
_atom_site_type_symbol
_atom_site_fract_x
_atom_site_fract_y
_atom_site_fract_z
Zn1	Zn	1.200091	0.421954	0.599376
Zn2	Zn	1.200001	0.599263	0.422090
Zn3	Zn	1.068818	0.422014	0.422122
Zn4	Zn	1.068799	0.599176	0.599307
O5	O	1.134427	0.510602	0.510724
O6	O	1.309926	0.445485	0.575875
O7	O	1.182570	0.575812	0.273747
O8	O	1.086277	0.273659	0.445677
O9	O	1.309860	0.575753	0.445624
O10	O	1.182723	0.273614	0.575905
O11	O	1.086190	0.445588	0.273770
O12	O	0.958969	0.445504	0.445609
O13	O	1.086245	0.575606	0.747663
O14	O	0.958955	0.575665	0.575787
O15	O	1.182705	0.445401	0.747714
O16	O	1.182552	0.747598	0.445556
O17	O	1.086158	0.747535	0.575756
C18	C	0.930480	0.510582	0.510694
C19	C	0.843230	0.510600	0.510707
C20	C	0.802253	0.578476	0.578382
C21	C	0.720273	0.578479	0.578399
C22	C	0.679270	0.510609	0.510735
C23	C	0.720253	0.442725	0.443057
C24	C	0.802232	0.442718	0.443047
C25	C	0.549383	0.442746	0.443083
C26	C	0.467398	0.442754	0.443092
C27	C	0.467424	0.578506	0.578435
C28	C	0.549403	0.578500	0.578424
C29	C	0.590379	0.510617	0.510745
C30	C	1.134364	0.786031	0.510669
C31	C	1.134409	0.903861	0.510680
C32	C	1.194939	1.071421	0.428587
C33	C	1.195147	0.948861	0.428801
C34	C	1.156841	0.948230	0.622420
C35	C	1.157311	1.070828	0.621971
C36	C	1.051392	1.071193	0.482094
C37	C	1.051800	0.948589	0.479601
C38	C	1.339172	0.510622	0.510754
C39	C	1.426421	0.510630	0.510767
C40	C	1.134483	0.510487	0.787229
C41	C	1.134506	0.510438	0.905059
C42	C	1.134490	1.234096	0.510775
C43	C	1.134462	1.116266	0.510727
C44	C	1.134418	0.510639	0.235294
C45	C	1.134546	0.510390	0.117465
C46	C	1.195203	0.428509	0.949973
C47	C	1.195463	0.428723	1.072533
C48	C	1.156686	0.622208	1.072924
C49	C	1.157103	0.621761	0.950326
C50	C	1.051526	0.481516	0.950235
C51	C	1.051994	0.479024	1.072842
H52	H	0.686913	0.633752	0.633505
H53	H	1.113843	0.684905	1.102022
C54	C	0.847352	0.653136	0.652814
C55	C	0.836050	0.773640	0.643948
C56	C	0.881147	0.848298	0.718385
C57	C	0.937545	0.802453	0.801689
C58	C	0.948850	0.681942	0.810558
C59	C	0.903753	0.607283	0.736121
H60	H	0.794298	0.807583	0.582278
H61	H	0.872778	0.937509	0.711819
H62	H	0.970929	0.857719	0.856792
H63	H	0.990602	0.647998	0.872228
H64	H	0.912122	0.518073	0.742687
H65	H	0.582744	0.387459	0.387981
C66	C	1.100404	1.110915	0.707479
C67	C	1.030307	1.180949	0.676281
C68	C	0.973410	1.221034	0.761796
C69	C	0.986611	1.191083	0.878509
C70	C	1.056711	1.121045	0.909713
C71	C	1.113608	1.080960	0.824198
H72	H	1.020532	1.203124	0.589878
H73	H	0.921517	1.272881	0.738696
H74	H	0.944492	1.220756	0.941813
H75	H	1.066486	1.098870	0.996116
H76	H	1.165501	1.029113	0.847298
C77	C	1.237954	0.906648	0.655746
C78	C	1.283904	0.832492	0.581772
C79	C	1.365019	0.790911	0.615091
C80	C	1.400184	0.823487	0.722383
C81	C	1.354233	0.897647	0.796363
C82	C	1.273118	0.939227	0.763044
H83	H	1.257874	0.808373	0.502343
H84	H	1.399035	0.736013	0.560325
H85	H	1.460230	0.792707	0.747047
H86	H	1.380264	0.921765	0.875793
H87	H	1.239103	0.994126	0.817810
C88	C	0.594505	0.653159	0.652852
C89	C	0.650829	0.736329	0.606750
C90	C	0.695932	0.810988	0.681180
C91	C	0.684710	0.802478	0.801712
C92	C	0.628383	0.719305	0.847820
C93	C	0.583281	0.644646	0.773390
H94	H	0.659139	0.742631	0.517520
H95	H	0.737628	0.872558	0.647048
H96	H	0.718097	0.857746	0.856810
H97	H	0.620073	0.713003	0.937051
H98	H	0.541584	0.583076	0.807523
C99	C	1.278541	0.454614	1.112179
C100	C	1.295310	0.459958	1.231719
C101	C	1.378391	0.485855	1.271364
C102	C	1.444704	0.506407	1.191469
C103	C	1.427937	0.501063	1.071922
C104	C	1.344856	0.475167	1.032277
H105	H	1.246219	0.444744	1.290869
H106	H	1.390802	0.489811	1.359861
H107	H	1.506206	0.525577	1.220816
H108	H	1.477028	0.516278	1.012772
H109	H	1.332445	0.471211	0.943780
H110	H	0.434056	0.633776	0.633545
H111	H	0.434017	0.387475	0.388007
H112	H	1.218031	1.099338	0.646226
H113	H	1.256136	1.102149	0.447313
C114	C	1.237736	0.655813	1.114399
C115	C	1.304684	0.678568	1.036082
C116	C	1.385736	0.712166	1.077555
C117	C	1.399840	0.723011	1.197344
C118	C	1.332890	0.700256	1.275668
C119	C	1.251838	0.666657	1.234196
H120	H	1.294245	0.670541	0.947401
H121	H	1.435297	0.729011	1.019573
H122	H	1.459839	0.747882	1.228044
H123	H	1.343328	0.708283	1.364350
H124	H	1.202277	0.649813	1.292177
C125	C	1.176226	1.111361	0.316314
C126	C	1.237150	1.176988	0.255063
C127	C	1.218436	1.216930	0.142784
C128	C	1.138798	1.191245	0.091758
C129	C	1.077869	1.125614	0.153009
C130	C	1.096583	1.085672	0.265287
H131	H	1.296107	1.196005	0.292836
H132	H	1.263540	1.265514	0.097442
H133	H	1.124945	1.220812	0.008643
H134	H	1.018912	1.106597	0.115236
H135	H	1.051479	1.037088	0.310630
H136	H	1.006308	0.541185	0.921183
C137	C	1.029426	0.367860	1.112182
C138	C	1.022452	0.345940	1.231612
C139	C	0.999889	0.234777	1.270964
C140	C	0.984300	0.145534	1.190885
C141	C	0.991275	0.167451	1.071448
C142	C	1.013838	0.278615	1.032096
H143	H	1.033992	0.412005	1.290898
H144	H	0.994726	0.218552	1.359380
H145	H	0.967598	0.063244	1.220015
H146	H	0.979735	0.101386	1.012162
H147	H	1.019001	0.294839	0.943680
C148	C	1.176192	0.908333	0.316872
C149	C	1.160758	0.987524	0.226668
C150	C	1.141808	0.947003	0.114733
C151	C	1.138290	0.827289	0.093002
C152	C	1.153724	0.748090	0.183209
C153	C	1.172675	0.788612	0.295144
H154	H	1.163362	1.076150	0.242752
H155	H	1.130382	1.005632	0.047956
H156	H	1.124262	0.797293	0.010141
H157	H	1.151121	0.659464	0.167125
H158	H	1.184100	0.729983	0.361921
H159	H	0.686862	0.387459	0.387969
C160	C	0.990513	1.110373	0.562904
C161	C	0.920104	1.176821	0.525704
C162	C	0.859233	1.216007	0.606517
C163	C	0.868770	1.188745	0.724529
C164	C	0.939181	1.122293	0.761734
C165	C	1.000053	1.083107	0.680921
H166	H	0.913042	1.197005	0.438339
H167	H	0.807109	1.265199	0.578974
H168	H	0.823709	1.217752	0.784351
H169	H	0.946244	1.102109	0.849099
H170	H	1.052176	1.033916	0.708464
C171	C	0.987678	0.553705	1.114149
C172	C	0.992059	0.673017	1.090419
C173	C	0.927747	0.747710	1.131726
C174	C	0.859053	0.703091	1.196761
C175	C	0.854669	0.583773	1.220494
C176	C	0.918982	0.509080	1.179188
H177	H	1.042912	0.706051	1.042273
H178	H	0.930992	0.836037	1.114157
H179	H	0.811446	0.758384	1.227339
H180	H	0.803816	0.550739	1.268641
H181	H	0.915736	0.420753	1.196757
C182	C	1.278272	0.909122	0.454402
C183	C	1.322409	0.839358	0.374394
C184	C	1.405538	0.799622	0.400000
C185	C	1.444529	0.829649	0.505614
C186	C	1.400391	0.899417	0.585629
C187	C	1.317262	0.939153	0.560024
H188	H	1.293546	0.817126	0.296206
H189	H	1.438212	0.747975	0.340766
H190	H	1.506066	0.800234	0.524569
H191	H	1.429254	0.921648	0.663817
H192	H	1.284589	0.990800	0.619257
H193	H	0.835594	0.387440	0.387945
H194	H	1.030987	1.102211	0.402025
H195	H	1.114139	0.919077	0.685267
H196	H	1.034886	0.919602	0.397370
H197	H	1.181630	0.345825	1.102652
H198	H	1.004315	0.917968	0.535047
H199	H	1.181532	0.345360	0.920530
H200	H	1.256341	0.447449	0.919175
H201	H	1.217753	0.646224	0.921738
H202	H	1.114784	0.684884	0.920609
H203	H	1.031298	0.401385	0.919329
