data_functionalizedCrystal
_audit_creation_method	'MofGen! by Chris Wilmer'
_symmetry_space_group_name_H-M	'P1'
_symmetry_Int_Tables_number	1
_symmetry_cell_setting	triclinic
loop_
_symmetry_equiv_pos_as_xyz
  x,y,z
_cell_length_a	19.077105
_cell_length_b	12.645330
_cell_length_c	12.645324
_cell_angle_alpha	89.969240
_cell_angle_beta	92.319246
_cell_angle_gamma	92.277243
loop_
_atom_site_label
_atom_site_type_symbol
_atom_site_fract_x
_atom_site_fract_y
_atom_site_fract_z
Zn1	Zn	1.075992	0.487166	0.664486
Zn2	Zn	1.075898	0.664470	0.487223
Zn3	Zn	0.958290	0.480093	0.480116
Zn4	Zn	0.958259	0.657253	0.657328
O5	O	1.017110	0.572246	0.572288
O6	O	1.174471	0.516666	0.646941
O7	O	1.060270	0.640072	0.337931
O8	O	0.973956	0.332688	0.504595
O9	O	1.174401	0.646930	0.516707
O10	O	1.060431	0.337884	0.640050
O11	O	0.973864	0.504611	0.332710
O12	O	0.859795	0.497614	0.497654
O13	O	0.973903	0.634631	0.806627
O14	O	0.859772	0.627773	0.627851
O15	O	1.060401	0.509669	0.811885
O16	O	1.060240	0.811856	0.509767
O17	O	0.973812	0.806555	0.634742
C18	C	0.834246	0.561144	0.561205
C19	C	0.756016	0.556420	0.556489
C20	C	1.017031	0.847671	0.572273
C21	C	1.017062	0.965503	0.572306
C22	C	0.719270	0.622069	0.621954
C23	C	0.645765	0.617617	0.617527
C24	C	0.609007	0.547519	0.547631
C25	C	0.645758	0.481862	0.482164
C26	C	0.719262	0.486310	0.486596
C27	C	0.389173	0.526933	0.527122
C28	C	0.315664	0.522492	0.522692
C29	C	0.315675	0.658246	0.658058
C30	C	0.389181	0.662692	0.662480
C31	C	0.425926	0.597031	0.597017
N32	N	0.533873	0.542968	0.543102
N33	N	0.501058	0.601577	0.601551
C34	C	0.962898	1.129788	0.651196
C35	C	0.962633	1.007213	0.650914
C36	C	0.996978	1.008893	0.459371
C37	C	0.996635	1.131470	0.459851
C38	C	1.091605	1.137106	0.605469
C39	C	1.091160	1.014472	0.607883
C40	C	1.200688	0.583392	0.583415
C41	C	1.278918	0.588142	0.588157
C42	C	1.017159	0.572134	0.848797
C43	C	1.017181	0.572086	0.966628
C44	C	1.017183	1.295745	0.572330
C45	C	1.017151	1.177913	0.572355
C46	C	1.017101	0.572283	0.296858
C47	C	1.017216	0.572040	0.179036
C48	C	1.071609	0.493456	1.014819
C49	C	1.071842	0.493684	1.137393
C50	C	1.037058	0.685061	1.135712
C51	C	1.037432	0.684637	1.013137
C52	C	0.942781	0.538655	1.007302
C53	C	0.943200	0.536188	1.129934
H54	H	0.749193	0.679154	0.678868
N55	N	0.989866	0.760980	0.972968
N56	N	0.981675	0.774277	0.875359
H57	H	0.948088	0.828202	0.846992
H58	H	1.090838	0.713207	1.169703
N59	N	1.056306	0.388751	1.174246
N60	N	1.099676	0.343467	1.233585
H61	H	1.088701	0.269357	1.259614
N62	N	0.278106	0.450894	0.451291
N63	N	0.237061	0.485634	0.381200
H64	H	0.210535	0.435074	0.330773
H65	H	0.928232	0.452992	1.158132
N66	N	0.891919	0.610431	0.967790
N67	N	0.910288	0.685900	0.909923
H68	H	0.874372	0.736596	0.882012
H69	H	0.900511	0.588880	1.157944
H70	H	0.975199	0.977810	0.734514
H71	H	0.998640	0.745430	1.162498
N72	N	1.114575	1.177190	0.707318
N73	N	1.076345	1.236329	0.756740
H74	H	1.092561	1.264641	0.828673
H75	H	1.126425	0.515718	0.987338
H76	H	0.419104	0.719775	0.719395
N77	N	0.920049	0.436744	0.967153
N78	N	0.958412	0.387510	0.908066
H79	H	0.942365	0.315531	0.879709
H80	H	1.059358	0.409564	0.984621
N81	N	1.110154	0.979038	0.712177
N82	N	1.069310	0.917946	0.760187
H83	H	1.082722	0.892915	0.833846
N84	N	0.608241	0.684677	0.684411
N85	N	0.641068	0.747261	0.746813
H86	H	0.614568	0.794625	0.794055
N87	N	1.141016	0.521915	1.178376
N88	N	1.189270	0.541520	1.116432
H89	H	1.238127	0.561464	1.145374
N90	N	0.978554	1.167607	0.756398
N91	N	0.978756	1.264575	0.775611
H92	H	0.989831	1.291282	0.849912
N93	N	0.756789	0.419233	0.419729
N94	N	0.723963	0.356646	0.357329
H95	H	0.750465	0.309264	0.310106
H96	H	0.285750	0.711701	0.711356
N97	N	0.426689	0.459864	0.460242
N98	N	0.393859	0.397290	0.397835
H99	H	0.420357	0.349921	0.350594
N100	N	1.105654	0.719444	0.981414
N101	N	1.158238	0.669123	1.009932
H102	H	1.206422	0.693703	0.987535
N103	N	0.608202	0.410257	0.410779
N104	N	0.542574	0.406294	0.406829
H105	H	0.516050	0.355722	0.356411
N106	N	0.894091	1.164396	0.623557
N107	N	0.884836	1.224348	0.546047
H108	H	0.836242	1.248794	0.526524
H109	H	0.907442	0.974635	0.628620
N110	N	0.928359	1.163321	0.425307
N111	N	0.881292	1.095040	0.401015
H112	H	0.833070	1.117528	0.376618
H113	H	1.132025	1.168551	0.548100
N114	N	1.044041	1.171549	0.383318
N115	N	1.077270	1.108981	0.329718
H116	H	1.110742	1.137280	0.275655
H117	H	1.035247	0.982061	0.398825
H118	H	0.943126	0.975021	0.431437
H119	H	1.133716	0.986407	0.554998
