data_functionalizedCrystal
_audit_creation_method	'MofGen! by Chris Wilmer'
_symmetry_space_group_name_H-M	'P1'
_symmetry_Int_Tables_number	1
_symmetry_cell_setting	triclinic
loop_
_symmetry_equiv_pos_as_xyz
  x,y,z
_cell_length_a	16.109318
_cell_length_b	27.732048
_cell_length_c	14.586319
_cell_angle_alpha	89.991275
_cell_angle_beta	90.000075
_cell_angle_gamma	83.055609
loop_
_atom_site_label
_atom_site_type_symbol
_atom_site_fract_x
_atom_site_fract_y
_atom_site_fract_z
O1	O	1.102352	0.062170	-0.076174
O2	O	1.435685	0.395503	0.257159
O3	O	1.769019	0.728837	0.590492
O4	O	0.860196	0.069893	-0.076194
O5	O	1.193530	0.403226	0.257139
O6	O	1.526863	0.736560	0.590473
O7	O	0.988795	-0.004333	-0.076166
O8	O	1.322128	0.329000	0.257167
O9	O	1.655462	0.662333	0.590501
O10	O	0.973753	0.136397	-0.076202
O11	O	1.307087	0.469730	0.257131
O12	O	1.640420	0.803063	0.590464
O13	O	0.988786	-0.004335	0.076315
O14	O	1.322120	0.328999	0.409648
O15	O	1.655453	0.662332	0.742981
O16	O	0.860188	0.069892	0.076287
O17	O	1.193521	0.403225	0.409620
O18	O	1.526854	0.736559	0.742953
O19	O	1.102343	0.062169	0.076307
O20	O	1.435677	0.395502	0.409640
O21	O	1.769010	0.728835	0.742973
Cu22	Cu	0.981265	0.066030	0.090219
Cu23	Cu	1.314598	0.399364	0.423553
Cu24	Cu	1.647931	0.732697	0.756886
Cu25	Cu	0.981275	0.066032	-0.090107
Cu26	Cu	1.314608	0.399365	0.243226
Cu27	Cu	1.647942	0.732698	0.576560
O28	O	0.973745	0.136395	0.076279
O29	O	1.307078	0.469729	0.409612
O30	O	1.640411	0.803062	0.742945
C31	C	0.829221	0.069578	0.000044
C32	C	1.162555	0.402912	0.333377
C33	C	1.495888	0.736245	0.666711
C34	C	0.736938	0.068636	0.000037
C35	C	1.070272	0.401969	0.333371
C36	C	1.403605	0.735303	0.666704
C37	C	0.437907	0.065593	-0.083063
C38	C	0.771240	0.398926	0.250270
C39	C	1.104574	0.732260	0.583604
C40	C	0.524618	0.066475	-0.083069
C41	C	0.857951	0.399809	0.250264
C42	C	1.191284	0.733142	0.583598
C43	C	0.524627	0.066467	0.083174
C44	C	0.857960	0.399801	0.416507
C45	C	1.191293	0.733134	0.749841
C46	C	0.437919	0.065582	0.083179
C47	C	0.771252	0.398915	0.416512
C48	C	1.104585	0.732248	0.749846
C49	C	0.394561	0.065147	0.000058
C50	C	0.727894	0.398480	0.333391
C51	C	1.061227	0.731814	0.666724
C52	C	0.567979	0.066915	0.000047
C53	C	0.901312	0.400248	0.333380
C54	C	1.234646	0.733582	0.666714
C55	C	0.661994	0.067871	0.000041
C56	C	0.995327	0.401205	0.333374
C57	C	1.328661	0.734538	0.666708
C58	C	0.300540	0.064190	0.000063
C59	C	0.633873	0.397523	0.333396
C60	C	0.967206	0.730856	0.666730
C61	C	0.988475	-0.022342	0.000077
C62	C	1.321808	0.310991	0.333410
C63	C	1.655142	0.644324	0.666743
C64	C	0.987524	-0.076001	0.000084
C65	C	1.320857	0.257332	0.333418
C66	C	1.654191	0.590666	0.666751
C67	C	1.057532	-0.414521	0.000043
C68	C	1.390865	-0.081187	0.333376
C69	C	1.724199	0.252146	0.666710
C70	C	1.054004	-0.616195	0.000030
C71	C	1.387338	-0.282862	0.333363
C72	C	1.720671	0.050471	0.666697
O73	O	1.118022	-0.647181	-0.000005
O74	O	1.451355	-0.313847	0.333328
O75	O	1.784688	0.019486	0.666662
N76	N	0.977751	-0.635641	0.000024
N77	N	1.311084	-0.302308	0.333358
N78	N	1.644417	0.031026	0.666691
C79	C	0.902374	-0.604664	0.000016
C80	C	1.235707	-0.271331	0.333350
C81	C	1.569040	0.062002	0.666683
O82	O	0.837434	-0.625832	0.000002
O83	O	1.170768	-0.292498	0.333335
O84	O	1.504101	0.040835	0.666669
C85	C	0.905902	-0.402991	0.000023
C86	C	1.239235	-0.069658	0.333356
C87	C	1.572569	0.263676	0.666690
C88	C	0.982161	-0.383548	0.000038
C89	C	1.315494	-0.050215	0.333371
C90	C	1.648827	0.283118	0.666704
C91	C	1.133784	-0.395078	0.000057
C92	C	1.467118	-0.061744	0.333390
C93	C	1.800451	0.271589	0.666723
C94	C	1.134665	-0.344662	0.000065
C95	C	1.467999	-0.011329	0.333398
C96	C	1.801332	0.322005	0.666732
C97	C	1.059294	-0.313689	0.000059
C98	C	1.392627	0.019644	0.333393
C99	C	1.725961	0.352977	0.666726
C100	C	0.983042	-0.333133	0.000046
C101	C	1.316375	0.000201	0.333379
C102	C	1.649708	0.333534	0.666712
C103	C	0.830526	-0.372015	0.000008
C104	C	1.163859	-0.038682	0.333341
C105	C	1.497192	0.294651	0.666675
C106	C	0.831415	-0.321594	0.000007
C107	C	1.164748	0.011739	0.333341
C108	C	1.498081	0.345072	0.666674
C109	C	0.907673	-0.302152	0.000022
C110	C	1.241007	0.031182	0.333355
C111	C	1.574340	0.364515	0.666689
C112	C	0.908551	-0.251744	0.000049
C113	C	1.241885	0.081589	0.333382
C114	C	1.575218	0.414922	0.666715
N115	N	0.984805	-0.232299	0.000054
N116	N	1.318138	0.101035	0.333387
N117	N	1.651472	0.434368	0.666721
C118	C	1.060176	-0.263271	0.000059
C119	C	1.393510	0.070062	0.333393
C120	C	1.726843	0.403395	0.666726
C121	C	0.900526	-0.710546	0.000015
C122	C	1.233860	-0.377213	0.333348
C123	C	1.567193	-0.043880	0.666681
C124	C	0.899644	-0.760964	0.000015
C125	C	1.232977	-0.427631	0.333348
C126	C	1.566311	-0.094298	0.666681
C127	C	1.051275	-0.772492	0.000027
C128	C	1.384609	-0.439158	0.333360
C129	C	1.717942	-0.105825	0.666693
C130	C	1.052157	-0.722073	0.000033
C131	C	1.385490	-0.388739	0.333366
C132	C	1.718823	-0.055406	0.666700
C133	C	0.976780	-0.691101	0.000020
C134	C	1.310113	-0.357767	0.333353
C135	C	1.643447	-0.024434	0.666687
C136	C	1.062021	-0.157394	0.000078
C137	C	1.395354	0.175939	0.333411
C138	C	1.728688	0.509272	0.666744
C139	C	1.062895	-0.106974	0.000090
C140	C	1.396229	0.226360	0.333423
C141	C	1.729562	0.559693	0.666756
C142	C	0.911265	-0.095451	0.000073
C143	C	1.244598	0.237883	0.333406
C144	C	1.577931	0.571216	0.666740
C145	C	0.910390	-0.145867	0.000066
C146	C	1.243723	0.187466	0.333399
C147	C	1.577057	0.520800	0.666732
C148	C	0.985775	-0.176838	0.000065
C149	C	1.319108	0.156495	0.333398
C150	C	1.652442	0.489829	0.666732
O151	O	0.844569	-0.220730	0.000073
O152	O	1.177902	0.112603	0.333407
O153	O	1.511235	0.445936	0.666740
O154	O	1.125106	-0.242095	0.000053
O155	O	1.458440	0.091239	0.333387
O156	O	1.791773	0.424572	0.666720
C157	C	1.056651	-0.464936	0.000035
C158	C	1.389984	-0.131603	0.333368
C159	C	1.723318	0.201730	0.666701
C160	C	0.980398	-0.484380	0.000021
C161	C	1.313732	-0.151046	0.333354
C162	C	1.647065	0.182287	0.666688
C163	C	0.905027	-0.453407	0.000016
C164	C	1.238360	-0.120074	0.333349
C165	C	1.571694	0.213260	0.666682
C166	C	0.979516	-0.534798	0.000021
C167	C	1.312849	-0.201464	0.333354
C168	C	1.646183	0.131869	0.666688
C169	C	1.054887	-0.565770	0.000026
C170	C	1.388221	-0.232437	0.333360
C171	C	1.721554	0.100897	0.666693
C172	C	1.131141	-0.546325	0.000032
C173	C	1.464475	-0.212991	0.333365
C174	C	1.797808	0.120342	0.666698
C175	C	1.132022	-0.495909	0.000040
C176	C	1.465356	-0.162576	0.333373
C177	C	1.798689	0.170758	0.666707
C178	C	0.828773	-0.472853	0.000010
C179	C	1.162107	-0.139519	0.333344
C180	C	1.495440	0.193814	0.666677
C181	C	0.827899	-0.523269	0.000003
C182	C	1.161232	-0.189936	0.333336
C183	C	1.494565	0.143398	0.666670
C184	C	0.903270	-0.554241	0.000008
C185	C	1.236603	-0.220908	0.333342
C186	C	1.569937	0.112425	0.666675
C187	C	1.133318	0.062484	0.000066
C188	C	1.466652	0.395817	0.333400
C189	C	1.799985	0.729150	0.666733
C190	C	1.225601	0.063426	0.000067
C191	C	1.558935	0.396759	0.333401
C192	C	1.892268	0.730093	0.666734
N193	N	0.981263	0.066029	0.217051
N194	N	1.314597	0.399362	0.550384
N195	N	1.647930	0.732696	0.883718
C196	C	0.974065	0.154404	0.000034
C197	C	1.307398	0.487738	0.333367
C198	C	1.640731	0.821071	0.666700
C199	C	0.975015	0.208063	0.000020
C200	C	1.308349	0.541396	0.333353
C201	C	1.641682	0.874730	0.666687
N202	N	0.981283	0.066029	-0.216939
N203	N	1.314616	0.399362	0.116395
N204	N	1.647950	0.732696	0.449728
C205	C	1.038225	0.033173	0.452070
C206	C	1.371559	0.366506	0.785403
C207	C	1.704892	0.699839	1.118737
C208	C	1.038228	0.033171	0.548051
C209	C	1.371561	0.366505	0.881385
C210	C	1.704894	0.699838	1.214718
C211	C	0.924315	0.098887	0.548036
C212	C	1.257648	0.432220	0.881369
C213	C	1.590982	0.765554	1.214703
C214	C	0.924309	0.098886	0.452056
C215	C	1.257643	0.432219	0.785390
C216	C	1.590976	0.765552	1.118723
C217	C	0.981269	0.066029	0.404076
C218	C	1.314602	0.399362	0.737409
C219	C	1.647936	0.732696	1.070743
C220	C	0.981277	0.066029	0.596037
C221	C	1.314611	0.399363	0.929370
C222	C	1.647944	0.732696	1.262703
C223	C	0.981279	0.066028	0.700104
C224	C	1.314613	0.399362	1.033437
C225	C	1.647946	0.732695	1.366770
C226	C	0.981266	0.066029	0.300002
C227	C	1.314599	0.399362	0.633335
C228	C	1.647933	0.732696	0.966669
H229	H	0.559939	0.066822	0.150848
H230	H	0.893273	0.400156	0.484182
H231	H	1.226606	0.733489	0.817515
F232	F	1.098845	-0.001798	0.401009
F233	F	1.432178	0.331536	0.734343
F234	F	1.765512	0.664869	1.067676
F235	F	1.098846	-0.001800	0.599127
F236	F	1.432180	0.331534	0.932460
F237	F	1.765513	0.664867	1.265794
F238	F	0.748548	-0.439895	0.000002
F239	F	1.081882	-0.106562	0.333335
F240	F	1.415215	0.226771	0.666668
F241	F	0.863699	0.133855	0.599106
F242	F	1.197032	0.467188	0.932440
F243	F	1.530366	0.800522	1.265773
H244	H	0.402608	0.065238	-0.150746
H245	H	0.735941	0.398572	0.182587
H246	H	1.069274	0.731905	0.515921
F247	F	1.142254	-0.190349	0.000076
F248	F	1.475588	0.142984	0.333410
F249	F	1.808921	0.476318	0.666743
F250	F	1.214012	-0.428034	0.000062
F251	F	1.547346	-0.094701	0.333395
F252	F	1.880679	0.238633	0.666728
F253	F	1.215831	-0.323976	0.000061
F254	F	1.549164	0.009357	0.333394
F255	F	1.882498	0.342690	0.666727
H256	H	0.839142	-0.685333	0.000004
H257	H	1.172475	-0.351999	0.333338
H258	H	1.505809	-0.018666	0.666671
F259	F	0.863682	0.133856	0.400973
F260	F	1.197016	0.467189	0.734307
F261	F	1.530349	0.800522	1.067640
H262	H	0.402625	0.065218	0.150870
H263	H	0.735959	0.398551	0.484203
H264	H	1.069292	0.731885	0.817537
F265	F	0.570747	0.066948	-0.171538
F266	F	0.904080	0.400281	0.161796
F267	F	1.237413	0.733615	0.495129
F268	F	0.829228	-0.166560	0.000067
F269	F	1.162561	0.166773	0.333400
F270	F	1.495894	0.500107	0.666733
F271	F	0.746728	-0.543955	-0.000007
F272	F	1.080061	-0.210622	0.333327
F273	F	1.413394	0.122712	0.666660
H274	H	1.124997	-0.091147	0.000104
H275	H	1.458330	0.242187	0.333437
H276	H	1.791664	0.575520	0.666771
H277	H	1.194120	-0.480084	0.000052
H278	H	1.527453	-0.146750	0.333385
H279	H	1.860786	0.186583	0.666718
F280	F	1.133321	-0.701385	0.000049
F281	F	1.466654	-0.368052	0.333382
F282	F	1.799987	-0.034718	0.666715
H283	H	0.768428	-0.387836	-0.000009
H284	H	1.101761	-0.054503	0.333324
H285	H	1.435095	0.278830	0.666657
H286	H	1.112646	-0.797718	0.000031
H287	H	1.445979	-0.464385	0.333365
H288	H	1.779312	-0.131052	0.666698
H289	H	0.770032	-0.296379	-0.000004
H290	H	1.103366	0.036955	0.333329
H291	H	1.436699	0.370288	0.666662
F292	F	0.818479	-0.781651	0.000016
F293	F	1.151813	-0.448318	0.333349
F294	F	1.485146	-0.114984	0.666682
H295	H	0.849900	-0.070224	0.000072
H296	H	1.183233	0.263109	0.333405
H297	H	1.516566	0.596443	0.666739
F298	F	1.211357	-0.579297	0.000042
F299	F	1.544690	-0.245963	0.333376
F300	F	1.878024	0.087370	0.666709
