data_functionalizedCrystal
_audit_creation_method	'MofGen! by Chris Wilmer'
_symmetry_space_group_name_H-M	'P1'
_symmetry_Int_Tables_number	1
_symmetry_cell_setting	triclinic
loop_
_symmetry_equiv_pos_as_xyz
  x,y,z
_cell_length_a	6.817900
_cell_length_b	16.417825
_cell_length_c	12.200875
_cell_angle_alpha	94.315196
_cell_angle_beta	107.143593
_cell_angle_gamma	103.385495
loop_
_atom_site_label
_atom_site_type_symbol
_atom_site_fract_x
_atom_site_fract_y
_atom_site_fract_z
V1	V	-4.067883	-0.116076	-0.358064
O2	O	-4.055059	0.005382	-0.350834
O3	O	-4.018691	-0.229971	-0.356013
O4	O	-4.037613	-0.114376	-0.514046
O5	O	-4.036006	-0.111012	-0.191706
V6	V	-4.549265	-0.101538	-0.338118
O7	O	-4.333839	-0.147966	-0.401817
O8	O	-4.733506	-0.069648	-0.294364
O9	O	-4.375251	0.012357	-0.340169
O10	O	-4.679486	-0.222996	-0.345347
O11	O	-4.698539	-0.106601	-0.504475
O12	O	-4.356329	-0.103238	-0.182135
C13	C	-3.862912	-0.257733	-0.350467
C14	C	-3.904099	-0.350844	-0.349829
C15	C	-3.946502	-0.553051	-0.243295
C16	C	-3.985225	-0.640540	-0.242705
C17	C	-4.090028	-0.664563	-0.452899
C18	C	-4.051320	-0.577075	-0.453488
C19	C	-3.979546	-0.521321	-0.348682
C20	C	-4.056977	-0.696298	-0.347503
C21	C	-4.098962	-0.791157	-0.346865
C22	C	-3.937561	-0.426456	-0.349320
C23	C	-3.887048	-0.110280	-0.552052
C24	C	-3.943577	-0.109644	-0.679571
C25	C	-4.047033	-0.108481	-0.913042
C26	C	-3.989454	-0.109128	-0.783122
C27	C	-4.194371	0.040115	-0.345711
C28	C	-4.132424	0.133225	-0.346356
C29	C	-4.170235	-0.107337	-0.144123
C30	C	-4.092945	-0.107968	-0.016603
H31	H	-3.888060	-0.507658	-0.157955
C32	C	-4.189758	-0.679520	-0.660725
C33	C	-4.168915	-0.725849	-0.568098
H34	H	-4.238471	-0.717356	-0.731845
H35	H	-4.055569	-0.642171	-0.652913
H36	H	-4.289401	-0.647623	-0.660245
H37	H	-4.069260	-0.757741	-0.568573
H38	H	-4.303124	-0.763213	-0.575912
C39	C	-3.877712	-0.608002	-0.035000
C40	C	-3.948887	-0.675417	-0.126860
H41	H	-3.855268	-0.629534	0.036520
H42	H	-3.981704	-0.577108	-0.043272
H43	H	-3.747870	-0.571650	-0.035941
H44	H	-4.078738	-0.711766	-0.125924
H45	H	-3.844888	-0.706325	-0.118585
C46	C	-4.038546	-0.453628	-0.547720
C47	C	-4.087658	-0.542191	-0.569338
H48	H	-4.061002	-0.432093	-0.619239
H49	H	-3.893762	-0.431630	-0.500975
H50	H	-4.127598	-0.437098	-0.508299
H51	H	-3.998595	-0.558721	-0.608751
H52	H	-4.232466	-0.564197	-0.616102
