data_functionalizedCrystal
_audit_creation_method	'MofGen! by Chris Wilmer'
_symmetry_space_group_name_H-M	'P1'
_symmetry_Int_Tables_number	1
_symmetry_cell_setting	triclinic
loop_
_symmetry_equiv_pos_as_xyz
  x,y,z
_cell_length_a	18.050589
_cell_length_b	18.050591
_cell_length_c	18.050582
_cell_angle_alpha	90.022741
_cell_angle_beta	89.981795
_cell_angle_gamma	89.978346
loop_
_atom_site_label
_atom_site_type_symbol
_atom_site_fract_x
_atom_site_fract_y
_atom_site_fract_z
Zn1	Zn	-0.295837	-1.135293	-0.420090
Zn2	Zn	-0.045837	-0.885293	-0.170090
Zn3	Zn	0.204163	-0.635293	0.079910
Zn4	Zn	0.454163	-0.385293	0.329910
Zn5	Zn	-0.420020	-1.135203	-0.295909
Zn6	Zn	-0.170020	-0.885203	-0.045909
Zn7	Zn	0.079980	-0.635203	0.204091
Zn8	Zn	0.329980	-0.385203	0.454091
Zn9	Zn	-0.295834	-1.011112	-0.295897
Zn10	Zn	-0.045834	-0.761112	-0.045897
Zn11	Zn	0.204166	-0.511112	0.204103
Zn12	Zn	0.454166	-0.261112	0.454103
Zn13	Zn	-0.419975	-1.011060	-0.420041
Zn14	Zn	-0.169975	-0.761060	-0.170041
Zn15	Zn	0.080025	-0.511060	0.079959
Zn16	Zn	0.330025	-0.261060	0.329959
O17	O	-0.357916	-1.073167	-0.357984
O18	O	-0.107916	-0.823167	-0.107984
O19	O	0.142084	-0.573167	0.142016
O20	O	0.392084	-0.323167	0.392016
O21	O	-0.312330	-1.239205	-0.403643
O22	O	-0.062330	-0.989205	-0.153643
O23	O	0.187670	-0.739205	0.096357
O24	O	0.437670	-0.489205	0.346357
O25	O	-0.403564	-1.118727	-0.191983
O26	O	-0.153564	-0.868727	0.058017
O27	O	0.096436	-0.618727	0.308017
O28	O	0.346436	-0.368727	0.558017
O29	O	-0.191910	-1.027644	-0.312387
O30	O	0.058090	-0.777644	-0.062387
O31	O	0.308090	-0.527644	0.187613
O32	O	0.558090	-0.277644	0.437613
O33	O	-0.403567	-1.239140	-0.312408
O34	O	-0.153567	-0.989140	-0.062408
O35	O	0.096433	-0.739140	0.187592
O36	O	0.346433	-0.489140	0.437592
O37	O	-0.191912	-1.118879	-0.403631
O38	O	0.058088	-0.868879	-0.153631
O39	O	0.308088	-0.618879	0.096369
O40	O	0.558088	-0.368879	0.346369
O41	O	-0.312325	-1.027557	-0.191974
O42	O	-0.062325	-0.777557	0.058026
O43	O	0.187675	-0.527557	0.308026
O44	O	0.437675	-0.277557	0.558026
O45	O	-0.312282	-0.907180	-0.312339
O46	O	-0.062282	-0.657180	-0.062339
O47	O	0.187718	-0.407180	0.187661
O48	O	0.437718	-0.157180	0.437661
O49	O	-0.403490	-1.027555	-0.523972
O50	O	-0.153490	-0.777555	-0.273972
O51	O	0.096510	-0.527555	-0.023972
O52	O	0.346510	-0.277555	0.226028
O53	O	-0.403488	-0.907142	-0.403547
O54	O	-0.153488	-0.657142	-0.153547
O55	O	0.096512	-0.407142	0.096453
O56	O	0.346512	-0.157142	0.346453
O57	O	-0.312286	-1.118828	-0.524008
O58	O	-0.062286	-0.868828	-0.274008
O59	O	0.187714	-0.618828	-0.024008
O60	O	0.437714	-0.368828	0.225992
O61	O	-0.523939	-1.118676	-0.312360
O62	O	-0.273939	-0.868676	-0.062360
O63	O	-0.023939	-0.618676	0.187640
O64	O	0.226061	-0.368676	0.437640
O65	O	-0.523906	-1.027468	-0.403559
O66	O	-0.273906	-0.777468	-0.153559
O67	O	-0.023906	-0.527468	0.096441
O68	O	0.226094	-0.277468	0.346441
C69	C	-0.357880	-0.880215	-0.357937
C70	C	-0.107880	-0.630215	-0.107937
C71	C	0.142120	-0.380215	0.142063
C72	C	0.392120	-0.130215	0.392063
C73	C	-0.357883	-0.797669	-0.357935
C74	C	-0.107883	-0.547669	-0.107935
C75	C	0.142117	-0.297669	0.142065
C76	C	0.392117	-0.047669	0.392065
C77	C	-0.308220	-0.548843	-0.308440
C78	C	-0.058220	-0.298843	-0.058440
C79	C	0.191780	-0.048843	0.191560
C80	C	0.441780	0.201157	0.441560
C81	C	-0.290142	-0.598275	-0.376217
C82	C	-0.040142	-0.348275	-0.126217
C83	C	0.209858	-0.098275	0.123783
C84	C	0.459858	0.151725	0.373783
C85	C	-0.357905	-0.500548	-0.357980
C86	C	-0.107905	-0.250548	-0.107980
C87	C	0.142095	-0.000548	0.142020
C88	C	0.392095	0.249452	0.392020
C89	C	-0.375937	-0.598198	-0.290184
C90	C	-0.125937	-0.348198	-0.040184
C91	C	0.124063	-0.098198	0.209816
C92	C	0.374063	0.151802	0.459816
C93	C	-0.357892	-0.646534	-0.357954
C94	C	-0.107892	-0.396534	-0.107954
C95	C	0.142108	-0.146534	0.142046
C96	C	0.392108	0.103466	0.392046
C97	C	-0.339791	-0.548893	-0.425793
C98	C	-0.089791	-0.298893	-0.175793
C99	C	0.160209	-0.048893	0.074207
C100	C	0.410209	0.201107	0.324207
C101	C	-0.425618	-0.548813	-0.339714
C102	C	-0.175618	-0.298813	-0.089714
C103	C	0.074382	-0.048813	0.160286
C104	C	0.324382	0.201187	0.410286
C105	C	-0.407566	-0.598222	-0.407538
C106	C	-0.157566	-0.348222	-0.157538
C107	C	0.092434	-0.098222	0.092462
C108	C	0.342434	0.151778	0.342462
C109	C	-0.357910	-0.416450	-0.357994
C110	C	-0.107910	-0.166450	-0.107994
C111	C	0.142090	0.083550	0.142006
C112	C	0.392090	0.333550	0.392006
C113	C	-0.357887	-0.730630	-0.357948
C114	C	-0.107887	-0.480630	-0.107948
C115	C	0.142113	-0.230630	0.142052
C116	C	0.392113	0.019370	0.392052
C117	C	-0.550869	-1.073077	-0.357972
C118	C	-0.300869	-0.823077	-0.107972
C119	C	-0.050869	-0.573077	0.142028
C120	C	0.199131	-0.323077	0.392028
C121	C	-0.633414	-1.073107	-0.357992
C122	C	-0.383414	-0.823107	-0.107992
C123	C	-0.133414	-0.573107	0.142008
C124	C	0.116586	-0.323107	0.392008
C125	C	-0.832874	-1.023557	-0.407568
C126	C	-0.582874	-0.773557	-0.157568
C127	C	-0.332874	-0.523557	0.092432
C128	C	-0.082874	-0.273557	0.342432
C129	C	-0.882306	-1.005459	-0.339798
C130	C	-0.632306	-0.755459	-0.089798
C131	C	-0.382306	-0.505459	0.160202
C132	C	-0.132306	-0.255459	0.410202
C133	C	-0.784545	-1.073180	-0.358001
C134	C	-0.534545	-0.823180	-0.108001
C135	C	-0.284545	-0.573180	0.141999
C136	C	-0.034545	-0.323180	0.391999
C137	C	-0.882195	-1.091314	-0.425779
C138	C	-0.632195	-0.841314	-0.175779
C139	C	-0.382195	-0.591314	0.074221
C140	C	-0.132195	-0.341314	0.324221
C141	C	-0.930530	-1.073249	-0.358017
C142	C	-0.680530	-0.823249	-0.108017
C143	C	-0.430530	-0.573249	0.141983
C144	C	-0.180530	-0.323249	0.391983
C145	C	-0.832889	-1.055046	-0.290196
C146	C	-0.582889	-0.805046	-0.040196
C147	C	-0.332889	-0.555046	0.209804
C148	C	-0.082889	-0.305046	0.459804
C149	C	-0.832774	-1.140933	-0.376222
C150	C	-0.582774	-0.890933	-0.126222
C151	C	-0.332774	-0.640933	0.123778
C152	C	-0.082774	-0.390933	0.373778
C153	C	-0.882183	-1.122861	-0.308405
C154	C	-0.632183	-0.872861	-0.058405
C155	C	-0.382183	-0.622861	0.191595
C156	C	-0.132183	-0.372861	0.441595
C157	C	-0.700446	-1.073138	-0.357993
C158	C	-0.450446	-0.823138	-0.107993
C159	C	-0.200446	-0.573138	0.142007
C160	C	0.049554	-0.323138	0.392007
C161	C	-1.014626	-1.073291	-0.358017
C162	C	-0.764626	-0.823291	-0.108017
C163	C	-0.514626	-0.573291	0.141983
C164	C	-0.264626	-0.323291	0.391983
C165	C	-0.164211	-1.073277	-0.358013
C166	C	0.085789	-0.823277	-0.108013
C167	C	0.335789	-0.573277	0.141987
C168	C	0.585789	-0.323277	0.391987
C169	C	-0.081665	-1.073324	-0.358025
C170	C	0.168335	-0.823324	-0.108025
C171	C	0.418335	-0.573324	0.141975
C172	C	0.668335	-0.323324	0.391975
C173	C	-0.357884	-1.073196	-0.551690
C174	C	-0.107884	-0.823196	-0.301690
C175	C	0.142116	-0.573196	-0.051690
C176	C	0.392116	-0.323196	0.198310
C177	C	-0.357870	-1.073208	-0.634236
C178	C	-0.107870	-0.823208	-0.384236
C179	C	0.142130	-0.573208	-0.134236
C180	C	0.392130	-0.323208	0.115764
C181	C	-0.357940	-0.266872	-0.358019
C182	C	-0.107940	-0.016872	-0.108019
C183	C	0.142060	0.233128	0.141981
C184	C	0.392060	0.483128	0.391981
C185	C	-0.357917	-0.349418	-0.358001
C186	C	-0.107917	-0.099418	-0.108001
C187	C	0.142083	0.150582	0.141999
C188	C	0.392083	0.400582	0.391999
C189	C	-0.407399	-1.023612	-0.833667
C190	C	-0.157399	-0.773612	-0.583667
C191	C	0.092601	-0.523612	-0.333667
C192	C	0.342601	-0.273612	-0.083667
C193	C	-0.425560	-1.091367	-0.883069
C194	C	-0.175560	-0.841367	-0.633069
C195	C	0.074440	-0.591367	-0.383069
C196	C	0.324440	-0.341367	-0.133069
C197	C	-0.357813	-1.073245	-0.785366
C198	C	-0.107813	-0.823245	-0.535366
C199	C	0.142187	-0.573245	-0.285366
C200	C	0.392187	-0.323245	-0.035366
C201	C	-0.339631	-1.005527	-0.883046
C202	C	-0.089631	-0.755527	-0.633046
C203	C	0.160369	-0.505527	-0.383046
C204	C	0.410369	-0.255527	-0.133046
C205	C	-0.357760	-1.073274	-0.931352
C206	C	-0.107760	-0.823274	-0.681352
C207	C	0.142240	-0.573274	-0.431352
C208	C	0.392240	-0.323274	-0.181352
C209	C	-0.376010	-1.141036	-0.833681
C210	C	-0.126010	-0.891036	-0.583681
C211	C	0.123990	-0.641036	-0.333681
C212	C	0.373990	-0.391036	-0.083681
C213	C	-0.290049	-1.055150	-0.833654
C214	C	-0.040049	-0.805150	-0.583654
C215	C	0.209951	-0.555150	-0.333654
C216	C	0.459951	-0.305150	-0.083654
C217	C	-0.308185	-1.122952	-0.883034
C218	C	-0.058185	-0.872952	-0.633034
C219	C	0.191815	-0.622952	-0.383034
C220	C	0.441815	-0.372952	-0.133034
C221	C	-0.357845	-1.073227	-0.701268
C222	C	-0.107845	-0.823227	-0.451268
C223	C	0.142155	-0.573227	-0.201268
C224	C	0.392155	-0.323227	0.048732
C225	C	-0.357727	-1.073300	-1.015448
C226	C	-0.107727	-0.823300	-0.765448
C227	C	0.142273	-0.573300	-0.515448
C228	C	0.392273	-0.323300	-0.265448
C229	C	-0.357896	-1.073181	-0.165032
C230	C	-0.107896	-0.823181	0.084968
C231	C	0.142104	-0.573181	0.334968
C232	C	0.392104	-0.323181	0.584968
C233	C	-0.357701	-1.073312	-0.082487
C234	C	-0.107701	-0.823312	0.167513
C235	C	0.142299	-0.573312	0.417513
C236	C	0.392299	-0.323312	0.667513
H237	H	-0.324467	-0.527325	-0.483133
H238	H	-0.074467	-0.277325	-0.233133
H239	H	0.175533	-0.027325	0.016867
H240	H	0.425533	0.222675	0.266867
H241	H	-0.482871	-0.527071	-0.324251
H242	H	-0.232871	-0.277071	-0.074251
H243	H	0.017129	-0.027071	0.175749
H244	H	0.267129	0.222929	0.425749
H245	H	-0.391431	-1.198333	-0.812088
H246	H	-0.141431	-0.948333	-0.562088
H247	H	0.108569	-0.698333	-0.312088
H248	H	0.358569	-0.448333	-0.062088
H249	H	-0.449386	-0.981678	-0.811992
H250	H	-0.199386	-0.731678	-0.561992
H251	H	0.050614	-0.481678	-0.311992
H252	H	0.300614	-0.231678	-0.061992
H253	H	-0.903852	-1.106625	-0.483091
H254	H	-0.653852	-0.856625	-0.233091
H255	H	-0.403852	-0.606625	0.016909
H256	H	-0.153852	-0.356625	0.266909
H257	H	-0.482843	-1.106690	-0.904775
H258	H	-0.232843	-0.856690	-0.654775
H259	H	0.017157	-0.606690	-0.404775
H260	H	0.267157	-0.356690	-0.154775
H261	H	-0.266229	-1.164986	-0.904572
H262	H	-0.016229	-0.914986	-0.654572
H263	H	0.233771	-0.664986	-0.404572
H264	H	0.483771	-0.414986	-0.154572
H265	H	-0.391194	-0.619858	-0.232861
H266	H	-0.141194	-0.369858	0.017139
H267	H	0.108806	-0.119858	0.267139
H268	H	0.358806	0.130142	0.517139
Cl269	Cl	-0.201633	-1.031462	-0.800113
Cl270	Cl	0.048367	-0.781462	-0.550113
Cl271	Cl	0.298367	-0.531462	-0.300113
Cl272	Cl	0.548367	-0.281462	-0.050113
H273	H	-0.324275	-0.948246	-0.904731
H274	H	-0.074275	-0.698246	-0.654731
H275	H	0.175725	-0.448246	-0.404731
H276	H	0.425725	-0.198246	-0.154731
H277	H	-0.232870	-0.619987	-0.391669
H278	H	0.017130	-0.369987	-0.141669
H279	H	0.267130	-0.119987	0.108331
H280	H	0.517130	0.130013	0.358331
Cl281	Cl	-0.243313	-0.515364	-0.243857
Cl282	Cl	0.006687	-0.265364	0.006143
Cl283	Cl	0.256687	-0.015364	0.256143
Cl284	Cl	0.506687	0.234636	0.506143
H285	H	-0.811222	-0.981531	-0.449426
H286	H	-0.561222	-0.731531	-0.199426
H287	H	-0.311222	-0.481531	0.050574
H288	H	-0.061222	-0.231531	0.300574
Cl289	Cl	-0.472430	-0.631487	-0.472274
Cl290	Cl	-0.222430	-0.381487	-0.222274
Cl291	Cl	0.027570	-0.131487	0.027726
Cl292	Cl	0.277570	0.118513	0.277726
Cl293	Cl	-0.799156	-1.229325	-0.400044
Cl294	Cl	-0.549156	-0.979325	-0.150044
Cl295	Cl	-0.299156	-0.729325	0.099956
Cl296	Cl	-0.049156	-0.479325	0.349956
Cl297	Cl	-0.915896	-0.917043	-0.316006
Cl298	Cl	-0.665896	-0.667043	-0.066006
Cl299	Cl	-0.415896	-0.417043	0.183994
Cl300	Cl	-0.165896	-0.167043	0.433994
H301	H	-0.811321	-1.039669	-0.232867
H302	H	-0.561321	-0.789669	0.017133
H303	H	-0.311321	-0.539669	0.267133
H304	H	-0.061321	-0.289669	0.517133
H305	H	-0.903698	-1.164855	-0.266446
H306	H	-0.653698	-0.914855	-0.016446
H307	H	-0.403698	-0.664855	0.233554
H308	H	-0.153698	-0.414855	0.483554
