data_functionalizedCrystal
_audit_creation_method	'MofGen! by Chris Wilmer'
_symmetry_space_group_name_H-M	'P1'
_symmetry_Int_Tables_number	1
_symmetry_cell_setting	triclinic
loop_
_symmetry_equiv_pos_as_xyz
  x,y,z
_cell_length_a	12.759401
_cell_length_b	14.908178
_cell_length_c	12.759393
_cell_angle_alpha	93.331280
_cell_angle_beta	90.019802
_cell_angle_gamma	93.313142
loop_
_atom_site_label
_atom_site_type_symbol
_atom_site_fract_x
_atom_site_fract_y
_atom_site_fract_z
Zn1	Zn	1.582106	-0.359167	0.569817
Zn2	Zn	1.571846	-0.510064	0.383982
Zn3	Zn	1.406402	-0.359208	0.394153
Zn4	Zn	1.396250	-0.509994	0.559627
O5	O	1.489151	-0.434608	0.476895
O6	O	1.727765	-0.379195	0.545173
O7	O	1.549854	-0.490099	0.238307
O8	O	1.438251	-0.232948	0.425976
O9	O	1.720227	-0.490058	0.408641
O10	O	1.567340	-0.232917	0.555036
O11	O	1.428303	-0.379266	0.245779
O12	O	1.258035	-0.379199	0.416095
O13	O	1.420950	-0.489940	0.708003
O14	O	1.250577	-0.489980	0.537669
O15	O	1.557497	-0.379128	0.715489
O16	O	1.540011	-0.636309	0.398761
O17	O	1.411001	-0.636258	0.527807
C18	C	1.216185	-0.434587	0.476881
C19	C	1.099407	-0.434600	0.476898
C20	C	0.938725	-0.376999	0.548093
C21	C	1.048451	-0.376981	0.548087
C22	C	1.040633	-0.492247	0.405717
C23	C	0.930909	-0.492268	0.405729
C24	C	1.473320	-0.669020	0.461097
C25	C	1.466643	-0.769303	0.454374
C26	C	1.588416	-0.957563	0.576274
C27	C	1.582147	-1.051787	0.569961
C28	C	1.447830	-1.051978	0.435440
C29	C	1.454100	-0.957754	0.441753
C30	C	1.524396	-0.910549	0.512172
C31	C	1.530670	-0.816323	0.518479
C32	C	1.396349	-0.816516	0.383964
C33	C	1.390080	-0.910740	0.377650
C34	C	1.763183	-0.434630	0.476909
C35	C	1.879959	-0.434639	0.476916
C36	C	1.489235	-0.434522	0.750934
C37	C	1.489271	-0.434485	0.867713
C38	C	1.505072	-0.199281	0.492777
C39	C	1.511857	-0.098998	0.499545
C40	C	1.489132	-0.434629	0.203926
C41	C	1.489316	-0.434412	0.087164
C42	C	1.560377	-0.376776	0.926476
C43	C	1.560397	-0.376737	1.036202
C44	C	1.418203	-0.492124	1.028394
C45	C	1.418178	-0.492157	0.918670
H46	H	1.082130	-0.539165	0.347758
H47	H	0.883059	-0.539211	0.347767
H48	H	0.897245	-0.330073	0.606057
C49	C	1.326788	-0.765634	0.314232
C50	C	1.263908	-0.827145	0.251195
C51	C	1.199832	-0.780307	0.186932
H52	H	1.283339	-0.728876	0.356718
H53	H	1.369432	-0.728902	0.270897
H54	H	1.221268	-0.863861	0.294524
H55	H	1.307329	-0.863905	0.208687
H56	H	1.242476	-0.743575	0.143598
H57	H	1.156391	-0.743550	0.229426
H58	H	1.157168	-0.822034	0.144147
C59	C	1.112072	-0.314298	0.625411
C60	C	1.043963	-0.263822	0.687734
C61	C	1.102533	-0.206059	0.758971
H62	H	1.152579	-0.348747	0.668892
H63	H	1.157487	-0.274891	0.587970
H64	H	0.998566	-0.303224	0.725172
H65	H	1.003455	-0.229354	0.644282
H66	H	1.147948	-0.166652	0.721530
H67	H	1.143038	-0.240516	0.802445
H68	H	1.056331	-0.171798	0.801259
H69	H	1.360268	-0.539150	0.870824
C70	C	1.341142	-0.554708	1.083913
C71	C	1.356400	-0.542347	1.192581
C72	C	1.285441	-0.599995	1.243755
H73	H	1.271395	-0.541560	1.066936
H74	H	1.352420	-0.615355	1.061898
H75	H	1.345114	-0.481714	1.214587
H76	H	1.426133	-0.555502	1.209589
H77	H	1.296718	-0.660642	1.221741
H78	H	1.215698	-0.586841	1.226770
H79	H	1.295790	-0.591621	1.317491
C80	C	1.607012	-0.765233	0.595041
C81	C	1.661711	-0.826578	0.649851
C82	C	1.732033	-0.779549	0.720403
H83	H	1.655356	-0.728463	0.557482
H84	H	1.569257	-0.728496	0.643295
H85	H	1.699464	-0.863299	0.601603
H86	H	1.613394	-0.863349	0.687430
H87	H	1.694278	-0.742813	0.768658
H88	H	1.780370	-0.742781	0.682836
H89	H	1.769148	-0.821164	0.757607
H90	H	1.634273	-1.090062	0.622165
C91	C	1.371622	-1.103400	0.359016
C92	C	1.379856	-1.195980	0.367195
C93	C	1.309682	-1.243378	0.296797
H94	H	1.301994	-1.088112	0.375275
H95	H	1.388077	-1.088050	0.289446
H96	H	1.363394	-1.211324	0.436750
H97	H	1.449468	-1.211295	0.350927
H98	H	1.326138	-1.228028	0.227227
H99	H	1.240059	-1.228082	0.313062
H100	H	1.315267	-1.306198	0.302330
C101	C	1.637600	-0.314056	0.871347
C102	C	1.699855	-0.263491	0.946301
C103	C	1.770994	-0.205692	0.895559
H104	H	1.681133	-0.348483	0.826222
H105	H	1.600086	-0.274706	0.831217
H106	H	1.737366	-0.302836	0.986412
H107	H	1.656350	-0.229045	0.991428
H108	H	1.733480	-0.166342	0.855430
H109	H	1.814520	-0.240126	0.850437
H110	H	1.813236	-0.171371	0.946408
H111	H	1.645661	-0.919128	0.633605
C112	C	1.637431	-0.313966	1.100061
C113	C	1.581871	-0.256092	1.166922
C114	C	1.652800	-0.198241	1.225752
H115	H	1.680911	-0.348360	1.140640
H116	H	1.679747	-0.279572	1.054029
H117	H	1.539574	-0.290481	1.212949
H118	H	1.538395	-0.221678	1.126371
H119	H	1.695115	-0.163848	1.179720
H120	H	1.696275	-0.232643	1.266324
H121	H	1.615112	-0.158962	1.271117
H122	H	1.332844	-0.949187	0.320320
