data_functionalizedCrystal
_audit_creation_method	'MofGen! by Chris Wilmer'
_symmetry_space_group_name_H-M	'P1'
_symmetry_Int_Tables_number	1
_symmetry_cell_setting	triclinic
loop_
_symmetry_equiv_pos_as_xyz
  x,y,z
_cell_length_a	14.908571
_cell_length_b	16.994746
_cell_length_c	14.908308
_cell_angle_alpha	86.704843
_cell_angle_beta	89.824947
_cell_angle_gamma	86.707907
loop_
_atom_site_label
_atom_site_type_symbol
_atom_site_fract_x
_atom_site_fract_y
_atom_site_fract_z
Zn1	Zn	1.345367	-0.411654	0.587812
Zn2	Zn	1.353969	-0.536423	0.437522
Zn3	Zn	1.203680	-0.396503	0.428801
Zn4	Zn	1.194997	-0.535486	0.579173
O5	O	1.274503	-0.470016	0.508327
O6	O	1.472335	-0.434938	0.575140
O7	O	1.341267	-0.511914	0.310537
O8	O	1.222509	-0.288131	0.449860
O9	O	1.478655	-0.526605	0.464723
O10	O	1.326606	-0.299263	0.566684
O11	O	1.230850	-0.409115	0.304130
O12	O	1.076701	-0.408206	0.441483
O13	O	1.207710	-0.525008	0.706147
O14	O	1.070321	-0.510316	0.551961
O15	O	1.318186	-0.434029	0.712494
O16	O	1.332847	-0.646680	0.456346
O17	O	1.216051	-0.645991	0.560417
C18	C	1.040885	-0.457516	0.494839
C19	C	0.940941	-0.452188	0.489090
C20	C	1.274451	-0.674957	0.508388
C21	C	1.274459	-0.764279	0.508396
Zn22	Zn	1.203836	-1.027568	0.428655
Zn23	Zn	1.354104	-0.903674	0.437630
Zn24	Zn	1.345279	-1.042740	0.587884
Zn25	Zn	1.194913	-0.902883	0.579036
O26	O	1.274533	-0.969216	0.508301
O27	O	1.231198	-1.005115	0.304029
O28	O	1.478749	-0.928803	0.465020
O29	O	1.326557	-1.151108	0.566709
O30	O	1.341598	-0.914091	0.310623
O31	O	1.222640	-1.139961	0.449724
O32	O	1.472265	-1.030974	0.575411
O33	O	1.317904	-1.030206	0.712527
O34	O	1.070281	-0.912741	0.551628
O35	O	1.207431	-0.927453	0.706026
O36	O	1.076837	-1.004347	0.441144
O37	O	1.332946	-0.793189	0.456441
O38	O	1.215989	-0.792607	0.560331
C39	C	0.746551	-0.548654	0.593173
C40	C	0.652644	-0.543650	0.587774
C41	C	0.659220	-0.437175	0.472899
C42	C	0.753127	-0.442179	0.478298
C43	C	0.796789	-0.497920	0.538436
C44	C	0.890697	-0.502927	0.543829
C45	C	0.897271	-0.396449	0.428959
C46	C	0.803364	-0.391445	0.423561
C47	C	1.509033	-0.482566	0.521868
C48	C	1.608976	-0.487914	0.527639
C49	C	1.261020	-0.481104	0.742858
C50	C	1.255274	-0.485829	0.842802
C51	C	1.274560	-0.264276	0.508260
C52	C	1.274588	-0.174954	0.508232
C53	C	1.287986	-0.458918	0.274711
C54	C	1.293906	-0.453980	0.174778
C55	C	1.359514	-0.399953	1.037216
C56	C	1.354118	-0.404390	1.131122
C57	C	1.239083	-0.499135	1.124521
C58	C	1.244479	-0.494698	1.030615
C59	C	1.304697	-0.445106	0.986966
C60	C	1.310097	-0.440674	0.893059
C61	C	1.195058	-0.535414	0.886459
C62	C	1.189662	-0.539851	0.980364
C63	C	1.260741	-0.980390	0.741899
C64	C	1.254820	-0.985150	0.841832
C65	C	1.040024	-0.956763	0.494398
C66	C	0.940090	-0.951457	0.488474
C67	C	1.288378	-0.957999	0.273791
C68	C	1.294278	-0.953218	0.173857
C69	C	1.508133	-0.981674	0.522099
C70	C	1.608076	-0.987193	0.527852
C71	C	1.194605	-0.933812	0.885362
C72	C	1.189024	-0.938283	0.979259
C73	C	1.243662	-0.994089	1.029624
C74	C	1.303879	-1.045432	0.986088
C75	C	1.309456	-1.040964	0.892193
C76	C	0.896569	-0.996665	0.428168
C77	C	0.802671	-0.991695	0.422601
C78	C	0.752296	-0.941512	0.477337
C79	C	0.795823	-0.896302	0.537649
C80	C	0.889720	-0.901277	0.543220
C81	C	1.354566	-1.004477	0.130306
C82	C	1.360110	-1.000002	0.036407
C83	C	1.305369	-0.944263	-0.013939
C84	C	1.245073	-0.893002	0.029617
C85	C	1.239526	-0.897482	0.123514
C86	C	1.651870	-0.941719	0.587679
C87	C	1.745776	-0.946905	0.593103
C88	C	1.795888	-0.997561	0.538693
C89	C	1.752088	-1.043040	0.478863
C90	C	1.658182	-1.037858	0.473445
H91	H	0.782101	-0.594045	0.642134
C92	C	0.938160	-0.563535	0.608974
C93	C	0.994972	-0.614504	0.561095
C94	C	1.038697	-0.670351	0.621080
H95	H	0.972620	-0.537313	0.650321
H96	H	0.894816	-0.593077	0.640788
H97	H	1.038310	-0.584965	0.529296
H98	H	0.960534	-0.640744	0.519752
H99	H	0.995352	-0.699894	0.652893
H100	H	1.073152	-0.644123	0.662423
H101	H	1.077242	-0.704945	0.588602
H102	H	1.150424	-0.572184	0.845535
C103	C	1.135380	-0.873250	0.830536
C104	C	1.153154	-0.880300	0.738986
C105	C	1.098614	-0.824518	0.688460
H106	H	1.074015	-0.882186	0.842216
H107	H	1.147705	-0.821686	0.846676
H108	H	1.140822	-0.931852	0.722852
H109	H	1.214508	-0.871357	0.727279
H110	H	1.110939	-0.772953	0.704600
H111	H	1.037253	-0.833458	0.700147
H112	H	1.110672	-0.829289	0.626339
H113	H	1.239114	-0.997718	1.106079
H114	H	1.190056	-0.539510	1.160076
C115	C	1.610529	-1.087091	0.408418
C116	C	1.560044	-1.037049	0.347348
C117	C	1.516130	-1.082378	0.287438
H118	H	1.653729	-1.118007	0.376701
H119	H	1.571769	-1.120862	0.440927
H120	H	1.598801	-1.003291	0.314842
H121	H	1.516829	-1.006132	0.379040
H122	H	1.477370	-1.116149	0.319947
H123	H	1.559336	-1.113292	0.255727
H124	H	1.481865	-1.048431	0.246000
H125	H	0.754794	-0.855444	0.582213
C126	C	0.598044	-0.598605	0.647310
C127	C	0.540847	-0.553873	0.701920
C128	C	0.490544	-0.604471	0.756788
H129	H	0.563303	-0.629365	0.610861
H130	H	0.637468	-0.632504	0.683949
H131	H	0.501428	-0.519988	0.665285
H132	H	0.575565	-0.523115	0.738388
H133	H	0.529967	-0.638371	0.793427
H134	H	0.455808	-0.635229	0.720332
H135	H	0.451736	-0.574129	0.793853
C136	C	1.123529	-0.882660	1.026551
C137	C	1.062612	-0.926734	1.076982
C138	C	1.002258	-0.875521	1.120545
H139	H	1.155682	-0.851892	1.065310
H140	H	1.091744	-0.848796	0.983126
H141	H	1.094394	-0.960584	1.120403
H142	H	1.030438	-0.957499	1.038244
H143	H	0.970473	-0.841657	1.077120
H144	H	1.034418	-0.844756	1.159300
H145	H	0.960914	-0.905417	1.154761
H146	H	1.140632	-0.580226	1.015916
H147	H	1.348362	-1.090869	1.027109
C148	C	0.756120	-0.330851	0.358244
C149	C	0.820219	-0.287481	0.311476
C150	C	0.776733	-0.231649	0.251305
H151	H	0.721732	-0.357077	0.316841
H152	H	0.717537	-0.296160	0.390562
H153	H	0.858786	-0.322168	0.279161
H154	H	0.854610	-0.261238	0.352856
H155	H	0.738150	-0.196958	0.283622
H156	H	0.742346	-0.257882	0.209908
H157	H	0.820216	-0.202211	0.219571
C158	C	1.793358	-0.897657	0.658173
C159	C	1.843807	-0.947688	0.719283
C160	C	1.887638	-0.902349	0.779244
H161	H	1.832134	-0.863868	0.625736
H162	H	1.750085	-0.866760	0.689845
H163	H	1.887075	-0.978572	0.687614
H164	H	1.805051	-0.981477	0.751740
H165	H	1.844365	-0.871452	0.810916
H166	H	1.926410	-0.868562	0.746800
H167	H	1.921866	-0.936289	0.820719
C168	C	1.374933	-1.096743	0.845106
C169	C	1.421602	-1.146550	0.909321
C170	C	1.481938	-1.197940	0.865985
H171	H	1.342779	-1.127573	0.806417
H172	H	1.416373	-1.066981	0.810849
H173	H	1.380168	-1.176309	0.943563
H174	H	1.453774	-1.115742	0.948013
H175	H	1.523378	-1.168179	0.831727
H176	H	1.449777	-1.228765	0.827296
H177	H	1.513616	-1.231736	0.909547
H178	H	0.937572	-1.037530	0.383592
H179	H	1.611081	-0.900465	0.631985
H180	H	1.408551	-0.359577	1.001677
C181	C	1.806393	-1.097977	0.419636
C182	C	1.788696	-1.075848	0.329224
C183	C	1.838698	-1.126440	0.274636
H184	H	1.868611	-1.094590	0.431313
H185	H	1.790085	-1.150697	0.432251
H186	H	1.805010	-1.023142	0.316614
H187	H	1.726488	-1.079239	0.317520
H188	H	1.822390	-1.179161	0.287251
H189	H	1.900913	-1.123050	0.286321
H190	H	1.826691	-1.111438	0.213286
H191	H	0.767244	-1.028510	0.373486
H192	H	1.872351	-1.001770	0.543110
H193	H	0.925147	-0.864458	0.592325
C194	C	0.611640	-0.376709	0.407674
C195	C	0.518648	-0.383187	0.414669
C196	C	0.474788	-0.327492	0.354604
H197	H	0.626185	-0.325146	0.421760
H198	H	0.630414	-0.386109	0.348089
H199	H	0.499881	-0.373781	0.474241
H200	H	0.504077	-0.434738	0.400575
H201	H	0.493562	-0.336892	0.295019
H202	H	0.489340	-0.275933	0.368696
H203	H	0.411690	-0.331885	0.359336
H204	H	0.938185	-0.355139	0.384386
H205	H	0.675840	-0.937468	0.472792
C206	C	1.413744	-0.355335	1.185524
C207	C	1.467647	-0.310972	1.127196
C208	C	1.522595	-0.265779	1.177279
H209	H	1.377352	-0.320794	1.220170
H210	H	1.450860	-0.389319	1.224411
H211	H	1.430535	-0.276992	1.088325
H212	H	1.504058	-0.345493	1.092549
H213	H	1.559711	-0.299763	1.216166
H214	H	1.486196	-0.231243	1.211923
H215	H	1.559181	-0.235679	1.137711
C216	C	1.425671	-1.055699	-0.010701
C217	C	1.472443	-1.105446	0.053496
C218	C	1.532853	-1.156756	0.010138
H219	H	1.393563	-1.086577	-0.049377
H220	H	1.467044	-1.025877	-0.044975
H221	H	1.431076	-1.135265	0.087755
H222	H	1.504569	-1.074590	0.092176
H223	H	1.574226	-1.126934	-0.024136
H224	H	1.500738	-1.187628	-0.028537
H225	H	1.564602	-1.190510	0.053689
H226	H	1.359131	-0.400295	0.857522
C227	C	1.185538	-0.832459	-0.024896
C228	C	1.131529	-0.788532	0.033330
C229	C	1.076668	-0.732758	-0.016858
H230	H	1.221990	-0.798100	-0.059482
H231	H	1.148492	-0.858787	-0.063845
H232	H	1.168570	-0.762205	0.072263
H233	H	1.095057	-0.822869	0.067916
H234	H	1.039623	-0.759086	-0.055807
H235	H	1.113128	-0.698404	-0.051442
H236	H	1.040011	-0.702951	0.022640
H237	H	1.399148	-1.049866	0.171287
C238	C	1.173954	-0.841947	0.170828
C239	C	1.113135	-0.886110	0.221282
C240	C	1.052704	-0.834977	0.264863
H241	H	1.206057	-0.811130	0.209575
H242	H	1.142099	-0.808127	0.127412
H243	H	1.144986	-0.919917	0.264694
H244	H	1.081010	-0.916925	0.182557
H245	H	1.020849	-0.801156	0.221446
H246	H	1.084814	-0.804162	0.303604
H247	H	1.011426	-0.864933	0.299094
H248	H	1.309894	-0.940625	-0.090396
