data_functionalizedCrystal
_audit_creation_method	'MofGen! by Chris Wilmer'
_symmetry_space_group_name_H-M	'P1'
_symmetry_Int_Tables_number	1
_symmetry_cell_setting	triclinic
loop_
_symmetry_equiv_pos_as_xyz
  x,y,z
_cell_length_a	29.839125
_cell_length_b	12.759395
_cell_length_c	12.759394
_cell_angle_alpha	90.016374
_cell_angle_beta	90.006007
_cell_angle_gamma	90.011518
loop_
_atom_site_label
_atom_site_type_symbol
_atom_site_fract_x
_atom_site_fract_y
_atom_site_fract_z
Zn1	Zn	-0.253997	-1.606174	0.418434
Zn2	Zn	-0.178875	-1.606092	0.594072
Zn3	Zn	-0.178883	-1.430500	0.418413
Zn4	Zn	-0.253979	-1.430465	0.594076
O5	O	-0.216433	-1.518308	0.506249
O6	O	-0.244036	-1.753185	0.441740
O7	O	-0.116009	-1.582780	0.570760
O8	O	-0.188858	-1.453853	0.271394
O9	O	-0.188844	-1.753124	0.570781
O10	O	-0.244044	-1.582920	0.271410
O11	O	-0.116015	-1.453773	0.441704
O12	O	-0.188840	-1.283474	0.441707
O13	O	-0.316849	-1.453792	0.570788
O14	O	-0.244013	-1.283448	0.570767
O15	O	-0.316862	-1.582886	0.441744
O16	O	-0.188826	-1.582745	0.741094
O17	O	-0.244005	-1.453713	0.741097
C18	C	-0.216426	-1.245340	0.506236
C19	C	-0.216433	-1.128564	0.506256
C20	C	-0.216423	-1.518245	0.779216
C21	C	-0.216433	-1.518314	0.895993
C22	C	-0.333612	-1.518344	0.506269
C23	C	-0.383546	-1.518360	0.506277
C24	C	-0.740127	-1.451214	0.573229
C25	C	-0.552453	-1.451176	0.573350
O26	O	-0.528183	-1.393983	0.630473
N27	N	-0.528991	-1.518383	0.506180
C28	C	-0.552451	-1.585599	0.438969
O29	O	-0.528189	-1.642754	0.381832
C30	C	-0.740123	-1.585631	0.438844
C31	C	-0.763582	-1.518427	0.506026
C32	C	-0.763586	-1.384014	0.640405
C33	C	-0.810502	-1.384028	0.640378
C34	C	-0.833957	-1.451242	0.573175
C35	C	-0.810498	-1.518441	0.505999
C36	C	-0.763581	-1.652841	0.371629
C37	C	-0.810502	-1.652841	0.371602
C38	C	-0.833962	-1.585637	0.438784
C39	C	-0.880869	-1.585669	0.438769
N40	N	-0.904331	-1.518462	0.505940
C41	C	-0.880875	-1.451248	0.573143
C42	C	-0.453920	-1.585579	0.439042
C43	C	-0.407002	-1.585573	0.439074
C44	C	-0.407008	-1.451148	0.573454
C45	C	-0.453927	-1.451160	0.573426
C46	C	-0.477382	-1.518372	0.506212
C47	C	-0.979401	-1.451284	0.573082
C48	C	-1.026321	-1.451307	0.573052
C49	C	-1.026311	-1.585727	0.438669
C50	C	-0.979395	-1.585709	0.438702
C51	C	-0.955942	-1.518478	0.505912
O52	O	-0.905169	-1.642824	0.381668
O53	O	-0.905146	-1.394085	0.630255
C54	C	-0.693211	-1.451199	0.573256
C55	C	-0.669752	-1.518399	0.506080
C56	C	-0.693207	-1.585612	0.438877
C57	C	-0.622834	-1.518392	0.506112
C58	C	-0.599378	-1.451179	0.573315
C59	C	-0.622840	-1.383972	0.640486
C60	C	-0.669755	-1.383986	0.640459
C61	C	-0.669745	-1.652819	0.371707
C62	C	-0.622830	-1.652800	0.371740
C63	C	-0.599374	-1.585587	0.438943
C64	C	-0.099711	-1.518332	0.506153
C65	C	-0.049777	-1.518520	0.505849
C66	C	-0.216441	-1.792341	0.506262
C67	C	-0.216445	-1.909118	0.506268
C68	C	-0.273792	-1.128575	0.640863
C69	C	-0.302472	-1.073720	0.708174
C70	C	-0.302478	-0.963998	0.708187
C71	C	-0.273800	-0.909129	0.640879
C72	C	-0.245120	-0.963984	0.573567
C73	C	-0.245117	-1.073708	0.573564
C74	C	-0.187764	-0.963973	0.438957
C75	C	-0.187756	-1.073695	0.438948
C76	C	-0.159087	-0.909104	0.371648
C77	C	-0.130404	-0.963959	0.304340
C78	C	-0.130399	-1.073687	0.304331
C79	C	-0.159075	-1.128550	0.371636
C80	C	-0.216454	-1.518400	0.232215
C81	C	-0.216463	-1.518439	0.115439
C82	C	-0.159018	-1.652777	0.895937
C83	C	-0.130316	-1.720035	0.950769
C84	C	-0.130328	-1.720097	1.060491
C85	C	-0.159047	-1.652895	1.115382
C86	C	-0.187749	-1.585636	1.060550
C87	C	-0.187733	-1.585580	0.950826
C88	C	-0.245165	-1.451180	1.060606
C89	C	-0.245151	-1.451112	0.950884
C90	C	-0.273883	-1.383978	1.115498
C91	C	-0.302584	-1.316712	1.060665
C92	C	-0.302570	-1.316653	0.950937
C93	C	-0.273853	-1.383853	0.896052
H94	H	-1.045419	-1.396581	0.627764
H95	H	-0.325966	-1.262007	1.105366
Br96	Br	-0.485760	-1.359951	0.664604
H97	H	-0.829597	-1.707570	0.316862
Br98	Br	-0.590998	-1.744021	0.280561
Br99	Br	-0.158852	-1.652488	1.264290
Br100	Br	-0.947556	-1.676930	0.347541
H101	H	-1.045417	-1.640454	0.383957
H102	H	-0.688852	-1.329261	0.695165
H103	H	-0.106959	-1.774870	1.105135
H104	H	-0.273811	-0.819788	0.640886
H105	H	-0.603734	-1.329248	0.695208
Br106	Br	-0.731762	-1.292781	0.731619
Br107	Br	-0.341405	-0.889547	0.799529
H108	H	-0.960311	-1.396529	0.627801
Br109	Br	-0.701571	-1.744071	0.280517
H110	H	-0.829598	-1.329301	0.695082
H111	H	-0.159000	-1.652720	0.806596
H112	H	-0.325944	-1.261887	0.906298
Br113	Br	-0.375166	-1.359932	0.664660
H114	H	-0.159096	-0.819763	0.371659
H115	H	-0.273893	-1.384037	1.204839
Br116	Br	-0.091347	-1.811242	0.876271
Br117	Br	-0.273778	-1.277484	0.640869
Br118	Br	-0.341387	-1.148188	0.799522
H119	H	-0.273836	-1.383804	0.806711
H120	H	-0.387905	-1.640308	0.384379
H121	H	-0.159073	-1.217891	0.371638
Br122	Br	-0.091493	-0.889491	0.212993
Br123	Br	-0.091477	-1.148125	0.212966
Br124	Br	-0.485745	-1.676833	0.347842
H125	H	-0.744489	-1.707567	0.316922
