data_functionalizedCrystal
_audit_creation_method	'MofGen! by Chris Wilmer'
_symmetry_space_group_name_H-M	'P1'
_symmetry_Int_Tables_number	1
_symmetry_cell_setting	triclinic
loop_
_symmetry_equiv_pos_as_xyz
  x,y,z
_cell_length_a	11.169417
_cell_length_b	17.640280
_cell_length_c	11.169409
_cell_angle_alpha	78.765552
_cell_angle_beta	89.979436
_cell_angle_gamma	78.801822
loop_
_atom_site_label
_atom_site_type_symbol
_atom_site_fract_x
_atom_site_fract_y
_atom_site_fract_z
Zn1	Zn	1.931519	-0.314590	-0.582049
Zn2	Zn	1.971978	-0.446792	-0.340816
Zn3	Zn	1.730817	-0.314638	-0.381369
Zn4	Zn	1.771365	-0.446728	-0.541481
O5	O	1.851420	-0.380687	-0.461429
O6	O	2.104837	-0.332134	-0.550056
O7	O	1.939950	-0.429309	-0.178231
O8	O	1.723538	-0.204024	-0.441939
O9	O	2.134563	-0.429262	-0.372823
O10	O	1.870993	-0.203989	-0.589378
O11	O	1.762770	-0.332215	-0.208025
O12	O	1.568244	-0.332153	-0.402602
O13	O	1.792647	-0.429153	-0.714826
O14	O	1.598035	-0.429199	-0.520235
O15	O	1.910311	-0.332071	-0.744632
O16	O	1.979269	-0.557391	-0.333485
O17	O	1.831879	-0.557344	-0.480912
C18	C	1.539591	-0.380675	-0.461417
C19	C	1.406196	-0.380689	-0.461435
C20	C	1.914397	-0.586047	-0.398422
C21	C	1.941449	-0.673901	-0.371508
C22	C	1.646403	-0.962856	-0.666331
C23	C	1.671824	-1.045408	-0.641003
C24	C	1.825396	-1.045392	-0.487642
C25	C	1.799992	-0.962838	-0.512961
C26	C	1.710493	-0.921577	-0.602306
C27	C	1.864082	-0.921559	-0.448937
C28	C	1.838674	-0.839012	-0.474250
C29	C	1.749177	-0.797745	-0.563588
C30	C	1.685085	-0.839030	-0.627620
C31	C	1.953574	-0.962822	-0.359586
C32	C	2.017664	-0.921542	-0.295561
C33	C	1.992264	-0.838994	-0.320881
C34	C	1.902766	-0.797727	-0.410219
C35	C	2.056355	-0.797709	-0.256849
C36	C	2.030948	-0.715162	-0.282163
C37	C	1.877359	-0.715180	-0.435532
C38	C	2.164466	-0.380700	-0.461441
C39	C	2.297867	-0.380705	-0.461446
C40	C	1.851489	-0.380600	-0.774498
C41	C	1.851518	-0.380562	-0.907910
C42	C	1.788229	-0.174525	-0.524708
C43	C	1.761301	-0.086671	-0.551673
C44	C	1.851402	-0.380717	-0.149595
C45	C	1.851537	-0.380532	-0.016252
H46	H	1.804488	-0.681584	-0.508295
N47	N	2.152862	-0.842225	-0.160475
H48	H	2.218981	-0.876432	-0.198800
H49	H	2.189517	-0.803503	-0.123779
N50	N	1.602691	-1.089933	-0.710060
H51	H	1.542141	-1.051265	-0.770497
H52	H	1.662041	-1.124134	-0.755158
H53	H	2.083136	-0.681552	-0.230026
N54	N	1.721764	-0.708712	-0.590887
H55	H	1.797944	-0.688773	-0.619137
H56	H	1.655308	-0.688903	-0.657169
H57	H	1.612215	-0.805433	-0.700383
H58	H	1.974261	-1.030036	-0.338982
N59	N	1.549886	-0.918343	-0.762711
H60	H	1.513142	-0.957018	-0.799439
H61	H	1.483841	-0.884141	-0.724300
H62	H	1.898263	-1.078998	-0.414894
H63	H	2.090531	-0.955148	-0.222813
