data_functionalizedCrystal
_audit_creation_method	'MofGen! by Chris Wilmer'
_symmetry_space_group_name_H-M	'P1'
_symmetry_Int_Tables_number	1
_symmetry_cell_setting	triclinic
loop_
_symmetry_equiv_pos_as_xyz
  x,y,z
_cell_length_a	21.295420
_cell_length_b	25.639233
_cell_length_c	21.295417
_cell_angle_alpha	89.980184
_cell_angle_beta	90.025484
_cell_angle_gamma	89.986550
loop_
_atom_site_label
_atom_site_type_symbol
_atom_site_fract_x
_atom_site_fract_y
_atom_site_fract_z
Zn1	Zn	0.962290	-0.295617	-0.250757
Zn2	Zn	0.962214	-0.208179	-0.356007
Zn3	Zn	0.857033	-0.208194	-0.250748
Zn4	Zn	0.856984	-0.295583	-0.355984
O5	O	0.909630	-0.251893	-0.303374
O6	O	1.050369	-0.284026	-0.264732
O7	O	0.948251	-0.135016	-0.342050
O8	O	0.871048	-0.219811	-0.162660
O9	O	1.050313	-0.219786	-0.342059
O10	O	0.948380	-0.284040	-0.162666
O11	O	0.870975	-0.135027	-0.264717
O12	O	0.768937	-0.219778	-0.264695
O13	O	0.870964	-0.368752	-0.342020
O14	O	0.768901	-0.283982	-0.342011
O15	O	0.948331	-0.368777	-0.264709
O16	O	0.948203	-0.219753	-0.444093
O17	O	0.870890	-0.283968	-0.444077
C18	C	0.746079	-0.251879	-0.303350
C19	C	0.676110	-0.251885	-0.303355
C20	C	0.176681	-0.285405	-0.263205
C21	C	0.242423	-0.285405	-0.263200
C22	C	0.275271	-0.251905	-0.303393
C23	C	0.242371	-0.218413	-0.343605
C24	C	0.176630	-0.218418	-0.343613
N25	N	0.378472	-0.206124	-0.308128
N26	N	0.440923	-0.206121	-0.308117
C27	C	0.473346	-0.251890	-0.303372
N28	N	0.440958	-0.297663	-0.298627
N29	N	0.378500	-0.297665	-0.298635
C30	C	0.346556	-0.251897	-0.303389
C31	C	0.577524	-0.285383	-0.263161
C32	C	0.643267	-0.285384	-0.263160
C33	C	0.643214	-0.218387	-0.343562
C34	C	0.577471	-0.218391	-0.343566
C35	C	0.544630	-0.251888	-0.303362
C36	C	0.909650	-0.388266	-0.303363
C37	C	0.909659	-0.446380	-0.303358
C38	C	0.949996	-0.806762	-0.262983
C39	C	0.950003	-0.861367	-0.262966
O40	O	0.984248	-0.889619	-0.228712
N41	N	0.909728	-0.888663	-0.303211
C42	C	0.869439	-0.861352	-0.343471
O43	O	0.835182	-0.889584	-0.377700
C44	C	0.869428	-0.806749	-0.343485
C45	C	0.909710	-0.779455	-0.303242
C46	C	0.990274	-0.779469	-0.222743
C47	C	0.990267	-0.724868	-0.222761
C48	C	0.949981	-0.697561	-0.263020
C49	C	0.909703	-0.724855	-0.303260
C50	C	0.829136	-0.779439	-0.383741
C51	C	0.829128	-0.724832	-0.383751
C52	C	0.869410	-0.697539	-0.343508
C53	C	0.869411	-0.642947	-0.343537
N54	N	0.909686	-0.615651	-0.303292
C55	C	0.949971	-0.642958	-0.263034
C56	C	0.869463	-0.976023	-0.343438
C57	C	0.869476	-1.030625	-0.343428
C58	C	0.950040	-1.030636	-0.262922
C59	C	0.950030	-0.976033	-0.262936
C60	C	0.909738	-0.948727	-0.303193
C61	C	0.949953	-0.528293	-0.263076
C62	C	0.949944	-0.473687	-0.263100
C63	C	0.869378	-0.473682	-0.343603
C64	C	0.869389	-0.528282	-0.343582
C65	C	0.909679	-0.555586	-0.303313
O66	O	0.835182	-0.614660	-0.377772
O67	O	0.984216	-0.614719	-0.228804
C68	C	1.073820	-0.251908	-0.303399
C69	C	1.143788	-0.251915	-0.303409
C70	C	0.909550	-0.251867	-0.466926
C71	C	0.909573	-0.251873	-0.536894
C72	C	0.909646	-0.116051	-0.303340
C73	C	0.909759	-0.057937	-0.303167
C74	C	0.949817	-0.285341	-0.569706
C75	C	0.949839	-0.285354	-0.635449
C76	C	0.909624	-0.251889	-0.668376
C77	C	0.869373	-0.218419	-0.635555
C78	C	0.869348	-0.218411	-0.569814
N79	N	0.904875	-0.206132	-0.771627
N80	N	0.904903	-0.206141	-0.834079
C81	C	0.909698	-0.251913	-0.866451
N82	N	0.914475	-0.297676	-0.834012
N83	N	0.914451	-0.297666	-0.771555
C84	C	0.909647	-0.251895	-0.739662
C85	C	0.949967	-0.285398	-0.970549
C86	C	0.949985	-0.285412	-1.036293
C87	C	0.869523	-0.218472	-1.036398
C88	C	0.869502	-0.218463	-0.970656
C89	C	0.909727	-0.251925	-0.937735
C90	C	0.909728	-0.251931	-0.139184
C91	C	0.909769	-0.251948	-0.069216
H92	H	0.269209	-0.312676	-0.230458
N93	N	0.993338	-0.321494	-0.935032
H94	H	1.022519	-0.300266	-0.907746
H95	H	1.018791	-0.342697	-0.965834
N96	N	1.033730	-0.808920	-0.179324
H97	H	1.008176	-0.831578	-0.150138
H98	H	1.059234	-0.783307	-0.153878
H99	H	0.796334	-0.801652	-0.416512
H100	H	0.269120	-0.191139	-0.376332
N101	N	0.825946	-0.182310	-0.534415
H102	H	0.780965	-0.190396	-0.545885
H103	H	0.835812	-0.144976	-0.545886
N104	N	0.541988	-0.182262	-0.386919
H105	H	0.514710	-0.203467	-0.416132
H106	H	0.572809	-0.161045	-0.412339
N107	N	0.141148	-0.182294	-0.386978
H108	H	0.171930	-0.161072	-0.412442
H109	H	0.113873	-0.158138	-0.361313
N110	N	0.993246	-0.321452	-0.670851
H111	H	1.018724	-0.342649	-0.640020
H112	H	1.022402	-0.300190	-0.698114
N113	N	0.993479	-1.060101	-0.219492
H114	H	0.983722	-1.050603	-0.174517
H115	H	1.038436	-1.050599	-0.229322
H116	H	0.796310	-0.702603	-0.416528
N117	N	0.141252	-0.321536	-0.219853
H118	H	0.113977	-0.300331	-0.190651
H119	H	0.172102	-0.342748	-0.194422
N120	N	0.826104	-0.182360	-0.935257
H121	H	0.781124	-0.190445	-0.946730
H122	H	0.835972	-0.145027	-0.946727
H123	H	0.550783	-0.312659	-0.230424
H124	H	0.836629	-0.191173	-0.662369
H125	H	0.669957	-0.191115	-0.376293
N126	N	0.678748	-0.321511	-0.219800
H127	H	0.647965	-0.342730	-0.194334
H128	H	0.706028	-0.300270	-0.190632
H129	H	0.982830	-0.953814	-0.230165
H130	H	0.982749	-0.451467	-0.230328
N131	N	0.993404	-0.557738	-0.219641
H132	H	1.018916	-0.532155	-0.194155
H133	H	1.022526	-0.580394	-0.245259
N134	N	0.825999	-0.946573	-0.386858
H135	H	0.800487	-0.972155	-0.412345
H136	H	0.851592	-0.923914	-0.416004
H137	H	1.023067	-0.702650	-0.189990
H138	H	0.836594	-0.550506	-0.376357
N139	N	0.993369	-0.321531	-1.071687
H140	H	1.018840	-0.342731	-1.040854
H141	H	1.022532	-0.300290	-1.098967
N142	N	0.826038	-1.060061	-0.386842
H143	H	0.800520	-1.034471	-0.412346
H144	H	0.796922	-1.082715	-0.361209
H145	H	0.836581	-0.451438	-0.376383
N146	N	0.993196	-0.321434	-0.534199
H147	H	1.018693	-0.342639	-0.564966
H148	H	0.967540	-0.345608	-0.506932
N149	N	0.826142	-0.182382	-1.071903
H150	H	0.832263	-0.187466	-1.118529
H151	H	0.835965	-0.145046	-1.060427
