data_functionalizedCrystal
_audit_creation_method	'MofGen! by Chris Wilmer'
_symmetry_space_group_name_H-M	'P1'
_symmetry_Int_Tables_number	1
_symmetry_cell_setting	triclinic
loop_
_symmetry_equiv_pos_as_xyz
  x,y,z
_cell_length_a	15.995350
_cell_length_b	10.540539
_cell_length_c	9.616153
_cell_angle_alpha	90.004826
_cell_angle_beta	90.000029
_cell_angle_gamma	84.008933
loop_
_atom_site_label
_atom_site_type_symbol
_atom_site_fract_x
_atom_site_fract_y
_atom_site_fract_z
O1	O	-0.117994	-1.684270	-0.115573
O2	O	-0.129112	-1.314705	-0.115589
O3	O	-0.001726	-1.509590	-0.115579
O4	O	-0.245380	-1.489385	-0.115583
O5	O	-0.001729	-1.509563	0.115712
O6	O	-0.129115	-1.314678	0.115702
O7	O	-0.117997	-1.684244	0.115719
Zn8	Zn	-0.123556	-1.499457	0.152433
Zn9	Zn	-0.123553	-1.499492	-0.152303
O10	O	-0.245383	-1.489359	0.115709
C11	C	0.029472	-1.508741	0.000064
C12	C	0.122438	-1.506237	0.000056
C13	C	-0.128280	-1.267400	0.000055
C14	C	-0.125785	-1.126486	0.000048
C15	C	-0.276581	-1.490207	0.000063
C16	C	-0.369547	-1.492711	0.000062
C17	C	0.460239	-1.497244	0.000060
C18	C	0.413635	-1.358450	-0.000465
C19	C	0.316930	-1.360955	0.000057
C20	C	0.292652	-1.501705	0.000057
C21	C	0.333318	-1.570147	0.132137
C22	C	0.429975	-1.566661	0.132247
C23	C	0.430319	-1.569558	-0.130774
C24	C	0.333374	-1.569525	-0.132520
C25	C	0.197939	-1.504233	0.000060
C26	C	0.554952	-1.494719	0.000067
C27	C	-0.118829	-1.731549	0.000072
C28	C	-0.121324	-1.872462	0.000070
N29	N	-0.123558	-1.499442	0.360408
C30	C	-0.030202	-0.944373	0.000589
C31	C	-0.032730	-1.090956	0.000054
C32	C	-0.170565	-1.064213	-0.132026
C33	C	-0.167390	-0.917712	-0.132122
C34	C	-0.169286	-0.917167	0.130899
C35	C	-0.170143	-1.064138	0.132630
N36	N	-0.123544	-1.499517	-0.360278
C37	C	-0.191473	-1.394879	0.580772
C38	C	-0.191727	-1.395104	0.419605
C39	C	-0.143433	-1.631892	0.418863
C40	C	-0.143914	-1.631321	0.580081
C41	C	-0.035546	-1.472879	0.580319
C42	C	-0.036116	-1.469825	0.419092
H43	H	0.288831	-1.307153	-0.094623
Br44	Br	0.286490	-1.490885	0.295963
Br45	Br	0.048723	-1.600061	0.643851
H46	H	-0.206909	-1.655917	0.378473
H47	H	0.448574	-1.516730	0.230978
Br48	Br	0.271016	-1.270634	0.158119
H49	H	0.461614	-1.668560	0.138240
Br50	Br	-0.004033	-1.315384	0.648160
H51	H	-0.139172	-0.886024	0.231011
H52	H	-0.179697	-1.296116	0.619579
Br53	Br	-0.171853	-1.230984	0.353729
Br54	Br	-0.011003	-1.307431	0.355422
H55	H	-0.256390	-1.411654	0.621271
Br56	Br	-0.300555	-1.423381	0.355290
H57	H	0.016861	-1.541080	0.378801
Br58	Br	-0.063222	-1.764764	0.354961
Br59	Br	-0.115523	-1.132963	0.295485
H60	H	-0.096432	-1.711616	0.619073
Br61	Br	0.445072	-1.265998	-0.158336
H62	H	0.433558	-1.303211	0.093720
H63	H	0.318574	-1.673552	0.137049
Br64	Br	0.464994	-1.493932	-0.297630
Br65	Br	-0.283224	-1.102949	0.145922
Br66	Br	0.287915	-1.486822	-0.295403
Br67	Br	0.306742	-1.740602	-0.145826
Br68	Br	-0.281311	-0.836919	0.132385
Br69	Br	0.482235	-1.740117	-0.132257
H70	H	0.002504	-1.134043	0.094731
Br71	Br	0.031071	-0.897548	0.158462
H72	H	-0.208115	-1.654793	0.617669
H73	H	0.002755	-1.133200	-0.094786
Br74	Br	-0.112224	-0.871462	-0.296672
Br75	Br	0.030822	-0.894875	-0.156386
Br76	Br	-0.284457	-1.099941	-0.140257
Br77	Br	-0.118718	-1.135922	-0.295858
Br78	Br	-0.278929	-0.836221	-0.142115
