data_functionalizedCrystal
_audit_creation_method	'MofGen! by Chris Wilmer'
_symmetry_space_group_name_H-M	'P1'
_symmetry_Int_Tables_number	1
_symmetry_cell_setting	triclinic
loop_
_symmetry_equiv_pos_as_xyz
  x,y,z
_cell_length_a	20.919354
_cell_length_b	17.917603
_cell_length_c	17.917559
_cell_angle_alpha	60.139256
_cell_angle_beta	86.856525
_cell_angle_gamma	61.136459
loop_
_atom_site_label
_atom_site_type_symbol
_atom_site_fract_x
_atom_site_fract_y
_atom_site_fract_z
Zr1	Zr	0.654708	0.803179	-0.169184
O2	O	0.562645	0.948725	-0.284076
O3	O	0.678531	0.650818	-0.128993
O4	O	0.690155	0.792601	-0.285112
O5	O	0.546856	0.817663	-0.010461
O6	O	0.795742	0.792008	-0.291583
O7	O	0.551021	0.806942	-0.127957
O8	O	0.774948	0.538385	-0.012314
O9	O	0.567650	1.071286	-0.289730
O10	O	0.772805	0.715568	-0.122686
O11	O	0.690898	0.724010	-0.030171
O12	O	0.704585	0.890941	-0.213981
O13	O	0.622678	0.899384	-0.121466
Zr14	Zr	0.816465	0.819331	0.007888
Zr15	Zr	0.823107	0.802234	-0.179504
Zr16	Zr	0.648066	0.820276	0.018208
Zr17	Zr	0.662690	0.998649	-0.178201
Zr18	Zr	0.808483	0.623861	0.016905
O19	O	0.792642	0.971691	-0.032303
O20	O	0.802087	0.947381	-0.298751
O21	O	0.553201	0.973035	-0.017629
O22	O	0.908528	0.673784	0.122780
O23	O	0.917973	0.649474	-0.143667
O24	O	0.669086	0.675128	0.137455
O25	O	0.924317	0.804847	-0.150835
O26	O	0.781018	0.829909	0.123816
O27	O	0.675431	0.830501	0.130287
O28	O	0.920153	0.815567	-0.033339
O29	O	0.701505	1.070535	-0.297934
O30	O	0.769669	0.551975	0.136637
O31	O	0.903523	0.551224	0.128434
O32	O	0.908803	0.537634	-0.020518
O33	O	0.562370	1.084876	-0.140778
O34	O	0.696225	1.084125	-0.148982
O35	O	0.766589	0.731568	0.052685
O36	O	0.848495	0.723126	-0.039830
O37	O	0.780275	0.898499	-0.131125
O38	O	0.698368	0.906942	-0.038610
C39	C	0.725602	0.566751	-0.069369
C40	C	0.722214	0.483769	-0.065541
C41	C	0.716023	0.331838	-0.058550
C42	C	0.755149	0.290668	-0.102744
C43	C	0.751704	0.206128	-0.098854
C44	C	0.719467	0.416385	-0.062439
C45	C	0.524945	0.812437	-0.067738
C46	C	0.453455	0.812838	-0.063357
C47	C	0.049015	0.815387	-0.035271
C48	C	0.116189	0.815007	-0.039397
C49	C	0.152061	0.808919	-0.106194
C50	C	0.120760	0.803200	-0.168865
C51	C	0.053591	0.803572	-0.164735
C52	C	0.354985	0.807492	-0.121898
C53	C	0.422158	0.807123	-0.126025
C54	C	0.417583	0.818928	0.003445
C55	C	0.350410	0.819306	0.007566
C56	C	0.319117	0.813582	-0.055102
C57	C	0.220721	0.808534	-0.110414
C58	C	0.250461	0.813960	-0.050878
C59	C	0.946228	0.810072	-0.093558
C60	C	1.017718	0.809671	-0.097939
C61	C	0.743895	0.789869	-0.315047
C62	C	0.746715	0.782611	-0.394600
C63	C	0.745571	1.055758	-0.091927
C64	C	0.748960	1.138740	-0.095755
C65	C	0.719293	0.853145	-0.621020
C66	C	0.751879	0.769369	-0.540274
C67	C	0.749005	0.776739	-0.459214
C68	C	0.722166	0.845777	-0.702088
C69	C	0.727278	0.832641	0.153751
C70	C	0.724458	0.839899	0.233304
C71	C	0.936244	0.565569	-0.082278
C72	C	1.004345	0.482186	-0.082832
C73	C	0.717294	0.588137	0.165030
C74	C	0.711085	0.512413	0.248411
C75	C	0.927935	0.586955	0.152121
C76	C	0.993217	0.510830	0.231120
C77	C	0.543238	1.035555	-0.313417
C78	C	0.477957	1.111680	-0.392416
C79	C	0.534930	1.056941	-0.079018
C80	C	0.466828	1.140324	-0.078464
C81	C	0.753880	1.034372	-0.326326
C82	C	0.760088	1.110096	-0.409707
C83	C	0.996817	0.439082	-0.126350
C84	C	1.060800	0.360743	-0.126887
C85	C	1.132310	0.325505	-0.083901
C86	C	1.139837	0.368617	-0.040382
C87	C	1.075855	0.446959	-0.039850
C88	C	0.747679	0.480799	0.330826
C89	C	0.741843	0.409659	0.409178
C90	C	0.699417	0.370131	0.405113
C91	C	0.662819	0.401753	0.322690
C92	C	0.668651	0.472896	0.244340
C93	C	1.066635	0.470674	0.219927
C94	C	1.127981	0.399156	0.294147
C95	C	1.115907	0.367791	0.379560
C96	C	1.042481	0.407954	0.390752
C97	C	0.981137	0.479476	0.316532
C98	C	0.404539	1.151846	-0.381223
C99	C	0.343194	1.223387	-0.455445
C100	C	0.355268	1.254757	-0.540858
C101	C	0.428694	1.214588	-0.552050
C102	C	0.490037	1.143053	-0.477829
C103	C	0.474357	1.183435	-0.034955
C104	C	0.410376	1.261793	-0.034439
C105	C	0.338866	1.297034	-0.077428
C106	C	0.331339	1.253919	-0.120943
C107	C	0.395320	1.175567	-0.121464
C108	C	0.802520	1.149602	-0.405614
C109	C	0.808368	1.220743	-0.483953
C110	C	0.771779	1.252382	-0.566383
C111	C	0.729346	1.212868	-0.570474
C112	C	0.723503	1.141724	-0.492137
H113	H	0.019810	0.820351	0.019119
Cl114	Cl	1.193034	0.277874	0.472858
H115	H	0.842920	1.252909	-0.480604
H116	H	0.249933	0.803579	-0.164803
Cl117	Cl	0.810860	0.334272	-0.165671
Cl118	Cl	0.241434	1.298229	-0.174978
H119	H	0.329511	0.802834	-0.172926
H120	H	0.028110	0.798916	-0.215765
Cl121	Cl	0.660318	0.288228	0.004376
H122	H	0.141671	0.819660	0.011633
Cl123	Cl	0.609488	0.352048	0.317595
H124	H	0.416519	1.296885	0.001000
H125	H	1.187762	0.366461	0.285019
H126	H	0.321204	0.824264	0.061958
Cl127	Cl	0.456928	0.826119	0.082226
H128	H	0.549816	1.110350	-0.486953
H129	H	0.781932	0.692110	-0.532022
H130	H	0.389179	1.140468	-0.156892
Cl131	Cl	0.389340	1.112425	-0.273855
Cl132	Cl	0.250896	1.273867	-0.441355
Cl133	Cl	1.085332	0.501131	0.014871
Cl134	Cl	1.229741	0.324302	0.013659
H135	H	1.032661	0.382406	0.460305
H136	H	0.689238	0.930398	-0.629270
H137	H	0.938596	0.467771	-0.161365
Cl138	Cl	0.801021	0.530474	0.335959
Cl139	Cl	1.051320	0.306558	-0.181596
H140	H	0.149973	0.798236	-0.223251
H141	H	0.451362	0.802166	-0.180423
H142	H	0.776543	1.310314	-0.630164
H143	H	0.221254	0.818912	0.003512
H144	H	0.832316	1.123854	-0.338502
Cl145	Cl	0.888841	0.529944	0.330620
H146	H	0.699557	1.238640	-0.637600
H147	H	1.184402	0.261713	-0.084340
H148	H	0.638854	0.498627	0.177237
H149	H	0.771649	0.383922	0.476282
Cl150	Cl	0.692094	0.280691	0.503620
H151	H	1.076480	0.496200	0.150385
Cl152	Cl	0.278142	1.344687	-0.634156
Cl153	Cl	0.443860	1.254031	-0.659433
Cl154	Cl	0.670147	1.092077	-0.497298
H155	H	0.532578	1.154749	0.000058
Cl156	Cl	0.258439	1.395533	-0.076763
