data_functionalizedCrystal
_audit_creation_method	'MofGen! by Chris Wilmer'
_symmetry_space_group_name_H-M	'P1'
_symmetry_Int_Tables_number	1
_symmetry_cell_setting	triclinic
loop_
_symmetry_equiv_pos_as_xyz
  x,y,z
_cell_length_a	12.759401
_cell_length_b	21.295417
_cell_length_c	21.295420
_cell_angle_alpha	90.018953
_cell_angle_beta	90.003195
_cell_angle_gamma	90.030668
loop_
_atom_site_label
_atom_site_type_symbol
_atom_site_fract_x
_atom_site_fract_y
_atom_site_fract_z
Zn1	Zn	1.605981	-0.250695	0.355857
Zn2	Zn	1.605874	-0.355942	0.250583
Zn3	Zn	1.430330	-0.250691	0.250608
Zn4	Zn	1.430223	-0.355931	0.355820
O5	O	1.518102	-0.303315	0.303217
O6	O	1.752988	-0.264663	0.341897
O7	O	1.582588	-0.341983	0.162497
O8	O	1.453720	-0.162602	0.264596
O9	O	1.752909	-0.341987	0.264552
O10	O	1.582770	-0.162605	0.341922
O11	O	1.453616	-0.264656	0.162516
O12	O	1.283295	-0.264645	0.264560
O13	O	1.453538	-0.341968	0.443915
O14	O	1.283217	-0.341964	0.341859
O15	O	1.582667	-0.264652	0.443942
O16	O	1.582484	-0.444030	0.264517
O17	O	1.453434	-0.444021	0.341834
C18	C	1.245135	-0.303303	0.303209
C19	C	1.128358	-0.303313	0.303220
C20	C	1.073483	-0.343638	0.343403
C21	C	0.963759	-0.343646	0.343410
C22	C	0.963795	-0.263003	0.263045
C23	C	1.073517	-0.262992	0.263042
C24	C	1.128324	-0.383959	0.383581
C25	C	1.073448	-0.424287	0.423766
C26	C	0.963724	-0.424295	0.423773
C27	C	0.908876	-0.383975	0.383594
C28	C	1.517965	-0.466866	0.303182
C29	C	1.518002	-0.536834	0.303188
C30	C	1.585258	-0.569684	0.262970
C31	C	1.585307	-0.635427	0.262985
C32	C	1.518081	-0.668317	0.303210
C33	C	1.450821	-0.635459	0.343436
C34	C	1.450781	-0.569718	0.343425
N35	N	1.426172	-0.771584	0.308006
N36	N	1.426213	-0.834035	0.308013
C37	C	1.518199	-0.866391	0.303246
N38	N	1.610145	-0.833937	0.298460
N39	N	1.610103	-0.771480	0.298451
C40	C	1.518118	-0.739602	0.303227
C41	C	1.585514	-0.970527	0.263041
C42	C	1.585565	-1.036271	0.263060
C43	C	1.451070	-1.036301	0.343508
C44	C	1.451028	-0.970559	0.343493
C45	C	1.518249	-0.937676	0.303256
C46	C	1.792135	-0.303327	0.303226
C47	C	1.908912	-0.303332	0.303230
C48	C	1.518103	-0.303309	0.467407
C49	C	1.518103	-0.303307	0.537376
C50	C	1.518269	-0.139124	0.303266
C51	C	1.518340	-0.069156	0.303287
C52	C	1.585293	-0.263055	1.036849
C53	C	1.585305	-0.263056	0.971106
C54	C	1.518077	-0.303309	0.938215
C55	C	1.450852	-0.343575	0.971072
C56	C	1.450850	-0.343577	1.036813
N57	N	1.426109	-0.308131	0.834989
N58	N	1.426114	-0.308125	0.772538
C59	C	1.518079	-0.303306	0.740140
N60	N	1.610042	-0.298481	0.772553
N61	N	1.610036	-0.298483	0.835010
C62	C	1.518071	-0.303312	0.866930
C63	C	1.585317	-0.263047	0.636006
C64	C	1.585330	-0.263053	0.570262
C65	C	1.450868	-0.343568	0.570229
C66	C	1.450864	-0.343566	0.635971
C67	C	1.518088	-0.303302	0.668856
C68	C	1.518089	-0.303328	1.139666
C69	C	1.518073	-0.303313	1.069697
H70	H	1.217667	-0.383958	0.383578
Br71	Br	1.147998	-0.208264	0.208509
H72	H	1.640339	-1.063016	0.230311
Br73	Br	1.359632	-0.398205	0.680555
H74	H	0.919129	-0.230177	0.230333
H75	H	1.396338	-1.063080	0.376263
Br76	Br	1.359499	-0.525132	0.398012
H77	H	1.396257	-0.943811	0.376240
Br78	Br	1.676500	-0.525060	0.208373
H79	H	1.640078	-0.662179	0.230234
Br80	Br	1.676568	-0.208438	1.081475
Br81	Br	1.359594	-0.680093	0.398033
Br82	Br	1.676540	-0.208417	0.926515
Br83	Br	1.147882	-0.478999	0.478297
Br84	Br	1.359619	-0.398208	0.926436
H85	H	1.640253	-0.943752	0.230280
Br86	Br	1.359643	-0.398208	0.525598
Br87	Br	1.359617	-0.398219	1.081397
Br88	Br	0.759963	-0.383980	0.383611
Br89	Br	0.889252	-0.479018	0.478316
Br90	Br	1.676523	-0.208391	0.680639
Br91	Br	1.676576	-0.208417	0.525680
