data_functionalizedCrystal
_audit_creation_method	'MofGen! by Chris Wilmer'
_symmetry_space_group_name_H-M	'P1'
_symmetry_Int_Tables_number	1
_symmetry_cell_setting	triclinic
loop_
_symmetry_equiv_pos_as_xyz
  x,y,z
_cell_length_a	10.654550
_cell_length_b	16.109301
_cell_length_c	15.186229
_cell_angle_alpha	90.005167
_cell_angle_beta	89.997242
_cell_angle_gamma	96.026794
loop_
_atom_site_label
_atom_site_type_symbol
_atom_site_fract_x
_atom_site_fract_y
_atom_site_fract_z
O1	O	1.666255	-0.116773	-0.073220
O2	O	1.999588	0.216560	0.260113
O3	O	2.332922	0.549894	0.593447
O4	O	1.300626	-0.127898	-0.073225
O5	O	1.633959	0.205435	0.260109
O6	O	1.967292	0.538768	0.593442
O7	O	1.493485	-0.001364	-0.073213
O8	O	1.826818	0.331969	0.260120
O9	O	2.160151	0.665302	0.593454
O10	O	1.473396	-0.243307	-0.073231
O11	O	1.806730	0.090026	0.260102
O12	O	2.140063	0.423360	0.593435
O13	O	1.493472	-0.001363	0.073244
O14	O	1.826805	0.331971	0.406577
O15	O	2.160138	0.665304	0.739911
O16	O	1.300613	-0.127897	0.073233
O17	O	1.633946	0.205437	0.406566
O18	O	1.967279	0.538770	0.739899
O19	O	1.666242	-0.116771	0.073237
O20	O	1.999576	0.216562	0.406571
O21	O	2.332909	0.549895	0.739904
Zn22	Zn	1.483425	-0.122334	0.096488
Zn23	Zn	1.816759	0.211000	0.429822
Zn24	Zn	2.150092	0.544333	0.763155
Zn25	Zn	1.483442	-0.122336	-0.096475
Zn26	Zn	1.816776	0.210997	0.236858
Zn27	Zn	2.150109	0.544331	0.570191
O28	O	1.473383	-0.243305	0.073226
O29	O	1.806717	0.090028	0.406559
O30	O	2.140050	0.423362	0.739893
C31	C	1.253832	-0.127081	0.000004
C32	C	1.587166	0.206253	0.333337
C33	C	1.920499	0.539586	0.666670
C34	C	1.114422	-0.124637	0.000002
C35	C	1.447756	0.208697	0.333335
C36	C	1.781089	0.542030	0.666669
C37	C	1.492664	0.029616	0.000016
C38	C	1.825998	0.362949	0.333349
C39	C	2.159331	0.696283	0.666683
C40	C	1.490225	0.121926	0.000017
C41	C	1.823558	0.455259	0.333350
C42	C	2.156891	0.788593	0.666684
C43	C	1.713036	-0.117589	0.000007
C44	C	2.046369	0.215744	0.333341
C45	C	2.379702	0.549078	0.666674
C46	C	1.852446	-0.120033	0.000003
C47	C	2.185779	0.213300	0.333336
C48	C	2.519112	0.546634	0.666670
C49	C	1.932942	-0.045532	0.000005
C50	C	2.266275	0.287802	0.333339
C51	C	2.599609	0.621135	0.666672
C52	C	2.063932	-0.047833	0.000008
C53	C	2.397265	0.285500	0.333341
C54	C	2.730598	0.618833	0.666675
C55	C	2.033916	-0.199144	0.000002
C56	C	2.367249	0.134190	0.333336
C57	C	2.700582	0.467523	0.666669
C58	C	1.902929	-0.196841	0.000006
C59	C	2.236262	0.136492	0.333339
C60	C	2.569595	0.469825	0.666673
C61	C	2.260973	0.039912	0.051320
C62	C	2.594306	0.373245	0.384653
C63	C	2.927639	0.706579	0.717987
C64	C	2.341474	0.114417	0.051307
C65	C	2.674808	0.447750	0.384640
C66	C	3.008141	0.781084	0.717974
C67	C	2.312213	0.181958	-0.000009
C68	C	2.645546	0.515291	0.333324
C69	C	2.978879	0.848624	0.666657
C70	C	2.202452	0.174996	-0.051335
C71	C	2.535785	0.508329	0.281999
C72	C	2.869119	0.841663	0.615332
C73	C	2.121957	0.100490	-0.051330
C74	C	2.455290	0.433823	0.282004
C75	C	2.788624	0.767156	0.615337
C76	C	2.151217	0.032952	0.000007
C77	C	2.484551	0.366285	0.333341
C78	C	2.817884	0.699619	0.666674
C79	C	1.705886	-0.284581	-0.051313
C80	C	2.039220	0.048752	0.282020
C81	C	2.372553	0.382086	0.615353
C82	C	1.625389	-0.359088	-0.051315
C83	C	1.958722	-0.025755	0.282019
C84	C	2.292055	0.307578	0.615352
C85	C	1.654646	-0.426636	-0.000003
C86	C	1.987980	-0.093303	0.333330
C87	C	2.321313	0.240031	0.666663
C88	C	1.764409	-0.419683	0.051308
C89	C	2.097743	-0.086349	0.384642
C90	C	2.431076	0.246984	0.717975
C91	C	1.844907	-0.345175	0.051310
C92	C	2.178240	-0.011842	0.384643
C93	C	2.511574	0.321491	0.717977
C94	C	1.815640	-0.277627	0.000000
C95	C	2.148974	0.055706	0.333334
C96	C	2.482307	0.389039	0.666667
C97	C	1.474203	-0.274286	-0.000005
C98	C	1.807537	0.059048	0.333328
C99	C	2.140870	0.392381	0.666662
C100	C	1.476643	-0.366596	-0.000012
C101	C	1.809976	-0.033262	0.333321
C102	C	2.143310	0.300071	0.666655
N103	N	1.483423	-0.122331	0.228181
N104	N	1.816756	0.211002	0.561514
N105	N	2.150090	0.544335	0.894848
C106	C	1.598991	0.343552	0.000005
C107	C	1.932324	0.676885	0.333338
C108	C	2.265658	1.010218	0.666671
C109	C	1.596689	0.430286	-0.000003
C110	C	1.930022	0.763619	0.333331
C111	C	2.263356	1.096952	0.666664
C112	C	1.367868	0.411772	-0.000002
C113	C	1.701202	0.745105	0.333331
C114	C	2.034535	1.078439	0.666665
C115	C	1.370172	0.325039	-0.000001
C116	C	1.703505	0.658373	0.333332
C117	C	2.036838	0.991706	0.666665
C118	C	1.485737	0.290932	0.000007
C119	C	1.819070	0.624265	0.333340
C120	C	2.152403	0.957599	0.666673
C121	C	1.481131	0.464398	-0.000002
C122	C	1.814465	0.797732	0.333332
C123	C	2.147798	1.131065	0.666665
C124	C	1.478634	0.558439	-0.000009
C125	C	1.811968	0.891773	0.333324
C126	C	2.145301	1.225106	0.666657
C127	C	1.488234	0.196885	0.000013
C128	C	1.821568	0.530218	0.333346
C129	C	2.154901	0.863552	0.666680
N130	N	1.483455	-0.122332	-0.228168
N131	N	1.816788	0.211002	0.105165
N132	N	2.150121	0.544335	0.438499
C133	C	1.568850	-0.066321	0.453909
C134	C	1.902183	0.267012	0.787242
C135	C	2.235517	0.600345	1.120576
C136	C	1.568854	-0.066319	0.546099
C137	C	1.902187	0.267014	0.879432
C138	C	2.235521	0.600347	1.212765
C139	C	1.398019	-0.178344	0.546097
C140	C	1.731352	0.154989	0.879431
C141	C	2.064685	0.488322	1.212764
C142	C	1.398010	-0.178342	0.453910
C143	C	1.731343	0.154992	0.787243
C144	C	2.064676	0.488325	1.120576
C145	C	1.483432	-0.122331	0.407818
C146	C	1.816766	0.211002	0.741151
C147	C	2.150099	0.544336	1.074484
C148	C	1.483445	-0.122332	0.592195
C149	C	1.816779	0.211001	0.925529
C150	C	2.150112	0.544335	1.258862
C151	C	1.483449	-0.122330	0.692151
C152	C	1.816782	0.211003	1.025485
C153	C	2.150116	0.544336	1.358818
C154	C	1.483428	-0.122332	0.307855
C155	C	1.816761	0.211002	0.641188
C156	C	2.150094	0.544335	0.974522
H157	H	1.891844	0.017010	0.000005
H158	H	2.225177	0.350344	0.333338
H159	H	2.558510	0.683677	0.666671
H160	H	2.430841	0.120079	0.093101
H161	H	2.764175	0.453413	0.426435
H162	H	3.097508	0.786746	0.759768
Cl163	Cl	1.744272	0.300676	0.000012
Cl164	Cl	2.077605	0.634010	0.333346
Cl165	Cl	2.410939	0.967343	0.666679
H166	H	1.277941	0.282194	-0.000002
H167	H	1.611274	0.615527	0.333331
H168	H	1.944607	0.948861	0.666665
H169	H	1.638407	-0.020710	0.583624
H170	H	1.971740	0.312623	0.916957
H171	H	2.305074	0.645956	1.250290
H172	H	2.075035	-0.261678	0.000003
H173	H	2.408369	0.071655	0.333336
H174	H	2.741702	0.404988	0.666670
Cl175	Cl	1.801201	-0.504603	0.115813
Cl176	Cl	2.134534	-0.171269	0.449146
Cl177	Cl	2.467867	0.162064	0.782480
Cl178	Cl	1.982897	-0.336434	0.115818
Cl179	Cl	2.316231	-0.003101	0.449151
Cl180	Cl	2.649564	0.330233	0.782485
H181	H	1.638405	-0.020713	0.416383
H182	H	1.971738	0.312620	0.749716
H183	H	2.305071	0.645954	1.083050
H184	H	1.328471	-0.223948	0.583635
H185	H	1.661804	0.109385	0.916968
H186	H	1.995138	0.442719	1.250301
H187	H	1.536017	-0.364747	-0.093103
H188	H	1.869350	-0.031414	0.240231
H189	H	2.202684	0.301919	0.573564
H190	H	1.688912	0.473126	-0.000006
H191	H	2.022245	0.806459	0.333327
H192	H	2.355579	1.139793	0.666660
Cl193	Cl	1.290613	-0.248755	0.395960
Cl194	Cl	1.623947	0.084578	0.729294
Cl195	Cl	1.957280	0.417911	1.062627
H196	H	1.273779	0.439553	-0.000007
H197	H	1.607113	0.772886	0.333327
H198	H	1.940446	1.106220	0.666660
H199	H	2.032594	0.094821	-0.093119
H200	H	2.365927	0.428154	0.240214
H201	H	2.699260	0.761488	0.573548
H202	H	2.178645	0.229994	-0.093128
H203	H	2.511979	0.563327	0.240206
H204	H	2.845312	0.896660	0.573539
Cl205	Cl	2.297767	-0.044996	0.115839
Cl206	Cl	2.631100	0.288337	0.449173
Cl207	Cl	2.964434	0.621671	0.782506
H208	H	1.589097	-0.487305	-0.000015
H209	H	1.922430	-0.153972	0.333318
H210	H	2.255763	0.179361	0.666652
Cl211	Cl	1.669090	-0.199659	-0.115817
Cl212	Cl	2.002424	0.133674	0.217516
Cl213	Cl	2.335757	0.467008	0.550850
H214	H	2.377767	0.242621	-0.000019
H215	H	2.711100	0.575954	0.333314
H216	H	3.044434	0.909288	0.666648
