data_functionalizedCrystal
_audit_creation_method	'MofGen! by Chris Wilmer'
_symmetry_space_group_name_H-M	'P1'
_symmetry_Int_Tables_number	1
_symmetry_cell_setting	triclinic
loop_
_symmetry_equiv_pos_as_xyz
  x,y,z
_cell_length_a	34.490303
_cell_length_b	34.489386
_cell_length_c	34.485816
_cell_angle_alpha	60.004462
_cell_angle_beta	60.008900
_cell_angle_gamma	59.994399
loop_
_atom_site_label
_atom_site_type_symbol
_atom_site_fract_x
_atom_site_fract_y
_atom_site_fract_z
O1	O	0.053846	-0.566517	0.473678
O2	O	0.020329	-0.441078	0.381663
O3	O	0.099768	-0.520436	0.381578
O4	O	-0.025592	-0.487159	0.473762
O5	O	0.126127	-0.494082	0.407849
O6	O	0.046689	-0.414724	0.407933
O7	O	0.080206	-0.540163	0.499949
Zn8	Zn	0.067632	-0.473259	0.458112
Zn9	Zn	0.032903	-0.507982	0.423499
O10	O	0.000767	-0.460805	0.500033
N11	N	0.091336	-0.449565	0.481736
N12	N	0.009203	-0.531680	0.399875
C13	C	0.142510	-0.268211	0.532817
C14	C	0.142641	-0.398441	0.662987
C15	C	0.142524	-0.398421	0.532817
C16	C	0.272762	-0.398394	0.532723
C17	C	0.156853	-0.311177	0.547124
C18	C	0.156928	-0.384109	0.620020
C19	C	0.229794	-0.384081	0.547073
C20	C	0.156863	-0.384097	0.547124
C21	C	0.124253	-0.213522	0.514606
C22	C	0.124277	-0.416652	0.514606
C23	C	0.175110	-0.365866	0.565335
C24	C	0.352285	-0.384669	0.490824
C25	C	0.401998	-0.401229	0.474223
C26	C	0.402027	-0.481671	0.504898
C27	C	0.352316	-0.465109	0.521500
C28	C	0.136220	-0.188652	0.465734
C29	C	0.119621	-0.138936	0.449181
C30	C	0.079092	-0.138961	0.530374
C31	C	0.095691	-0.188678	0.546927
C32	C	0.075398	-0.404656	0.526651
C33	C	0.058814	-0.421229	0.510091
C34	C	0.139984	-0.461794	0.469452
C35	C	0.156570	-0.445221	0.486007
C36	C	0.075593	-0.404694	0.742565
C37	C	0.059066	-0.421281	0.792280
C38	C	0.140274	-0.461856	0.792215
C39	C	0.156800	-0.445269	0.742499
C40	C	0.124458	-0.416687	0.717675
C41	C	0.327446	-0.416608	0.514460
C42	C	-0.023585	-0.564792	0.161919
C43	C	-0.023910	-0.769260	0.366530
C44	C	-0.023880	-0.564780	0.366623
C45	C	-0.228325	-0.564561	0.366222
C46	C	-0.129610	-0.597564	0.333467
C47	C	-0.056729	-0.597644	0.333613
C48	C	-0.074925	-0.615849	0.315324
C49	C	-0.088689	-0.695351	0.357144
C50	C	-0.072155	-0.745068	0.373736
C51	C	0.008283	-0.745150	0.343188
C52	C	-0.008252	-0.695435	0.326596
C53	C	-0.154529	-0.609541	0.382326
C54	C	-0.204241	-0.592916	0.398818
C55	C	-0.204114	-0.552341	0.317588
C56	C	-0.154401	-0.568966	0.301096
C57	C	-0.068707	-0.548770	0.321590
C58	C	-0.052166	-0.532225	0.338221
C59	C	-0.011669	-0.613425	0.378886
C60	C	-0.028210	-0.629972	0.362261
C61	C	-0.068581	-0.548777	0.235758
C62	C	-0.051939	-0.532234	0.186043
C63	C	-0.011379	-0.613438	0.186090
C64	C	-0.028020	-0.629981	0.235806
C65	C	-0.056622	-0.597649	0.260639
C66	C	-0.056739	-0.670537	0.333576
C67	C	-0.005614	-0.545951	0.107238
C68	C	-0.006360	-0.823943	0.385033
C69	C	-0.005995	-0.545937	0.384582
C70	C	-0.283006	-0.545971	0.383725
N71	N	0.426163	-0.449489	0.481488
O72	O	0.588601	-0.457377	0.364497
O73	O	0.588789	-0.549696	0.489801
O74	O	0.588709	-0.549485	0.410335
O75	O	0.588681	-0.457588	0.443963
O76	O	0.509731	-0.523223	0.436741
O77	O	0.509811	-0.523434	0.516207
O78	O	0.509624	-0.431115	0.390903
Zn79	Zn	0.497178	-0.473105	0.457747
Zn80	Zn	0.601234	-0.507706	0.422956
O81	O	0.509704	-0.431326	0.470368
N82	N	0.672250	-0.531322	0.399211
N83	N	0.091303	-0.114798	0.481730
O84	O	-0.025603	0.047729	0.473733
O85	O	0.099703	0.047764	0.381394
O86	O	0.020199	0.047731	0.381655
O87	O	0.053901	0.047761	0.473472
O88	O	0.046564	-0.031252	0.407974
O89	O	0.126068	-0.031219	0.407713
O90	O	0.000762	-0.031254	0.500052
Zn91	Zn	0.067601	-0.043777	0.458061
Zn92	Zn	0.032864	0.060287	0.423385
O93	O	0.080266	-0.031222	0.499791
N94	N	0.009156	0.131307	0.399717
N95	N	0.091635	-0.449614	0.816396
O96	O	0.083664	-0.566502	0.978913
O97	O	-0.008637	-0.441152	0.978954
O98	O	-0.008421	-0.520640	0.978930
O99	O	0.083448	-0.487013	0.978936
O100	O	0.017877	-0.494296	0.899950
O101	O	0.017661	-0.414807	0.899974
O102	O	0.109961	-0.540157	0.899933
Zn103	Zn	0.067986	-0.473299	0.887414
Zn104	Zn	0.033338	-0.508010	0.991473
O105	O	0.109746	-0.460669	0.899956
N106	N	0.009689	-0.531700	1.062491
C107	C	0.030367	-0.412095	0.382120
C108	C	0.128741	-0.510370	0.382016
C109	C	0.070168	-0.569147	0.499490
C110	C	-0.028207	-0.470871	0.499595
C111	C	0.549323	-0.549278	0.518791
C112	C	0.549225	-0.549017	0.420381
C113	C	0.549087	-0.431532	0.361914
C114	C	0.549188	-0.431794	0.460322
C115	C	0.128638	0.008374	0.381806
C116	C	0.030215	0.008236	0.382161
C117	C	-0.028206	0.008233	0.499608
C118	C	0.070250	0.008272	0.499285
C119	C	-0.008199	-0.412187	0.939469
C120	C	-0.007927	-0.510619	0.939425
C121	C	0.109523	-0.569121	0.939417
C122	C	0.109257	-0.470684	0.939444
H123	H	0.019274	-0.411508	0.812539
H124	H	-0.064213	-0.463781	0.528541
O125	O	0.549216	-0.583400	0.411729
C126	C	0.549170	-0.566102	0.365058
H127	H	0.534178	-0.525652	0.352582
H128	H	0.526246	-0.580583	0.364394
H129	H	0.587047	-0.578084	0.340459
O130	O	0.549200	-0.397307	0.468816
C131	C	0.549121	-0.356309	0.428055
H132	H	0.564044	-0.366669	0.395401
H133	H	0.572041	-0.338602	0.423875
H134	H	0.511214	-0.330506	0.431928
H135	H	0.022995	0.008233	0.353314
O136	O	-0.042758	-0.369220	0.939398
C137	C	-0.055529	-0.348202	0.898504
H138	H	-0.025034	-0.363908	0.869906
H139	H	-0.063383	-0.308239	0.884783
H140	H	-0.088496	-0.355464	0.907752
O141	O	0.549303	-0.583845	0.561742
C142	C	0.508431	-0.596641	0.582785
H143	H	0.479803	-0.566154	0.567113
H144	H	0.494744	-0.604506	0.622748
H145	H	0.517695	-0.629611	0.575511
O146	O	0.143738	-0.462188	0.939459
C147	C	0.184728	-0.502963	0.939430
H148	H	0.174366	-0.535615	0.954378
H149	H	0.202426	-0.507123	0.962354
H150	H	0.210538	-0.499125	0.901534
H151	H	0.549027	-0.402547	0.325928
O152	O	0.144155	-0.612034	0.939382
C153	C	0.185025	-0.612027	0.939393
H154	H	0.184455	-0.573932	0.924451
H155	H	0.218076	-0.633138	0.916454
H156	H	0.185595	-0.629007	0.977282
H157	H	-0.036776	-0.517804	0.939391
H158	H	-0.064192	0.008222	0.528596
O159	O	0.044155	-0.376997	0.718475
C160	C	0.015409	-0.402103	0.730653
H161	H	0.034625	-0.441878	0.744299
H162	H	0.007857	-0.393202	0.697975
H163	H	-0.019501	-0.391531	0.759532
O164	O	0.171755	-0.489630	0.816256
C165	C	0.218430	-0.496649	0.783627
H166	H	0.218308	-0.491082	0.748197
H167	H	0.242054	-0.534355	0.797966
H168	H	0.232671	-0.470187	0.778335
H169	H	0.164551	0.008603	0.352745
H170	H	0.077468	0.008281	0.528131
O171	O	0.022848	-0.671402	0.303730
C172	C	0.069189	-0.704041	0.301120
H173	H	0.067255	-0.739465	0.330485
H174	H	0.089580	-0.689701	0.305670
H175	H	0.088206	-0.709349	0.265097
O176	O	0.204255	-0.456893	0.718249
C177	C	0.211909	-0.436117	0.669046
H178	H	0.179273	-0.428627	0.662283
H179	H	0.244124	-0.461492	0.650133
H180	H	0.218520	-0.401432	0.654937
O181	O	0.044009	-0.376833	0.554357
C182	C	0.015229	-0.335144	0.529283
H183	H	0.034397	-0.328222	0.489505
H184	H	0.007715	-0.303829	0.538179
H185	H	-0.019697	-0.339669	0.539888
O186	O	0.011329	-0.409639	0.521871
C187	C	-0.009274	-0.426654	0.571669
H188	H	0.019060	-0.457312	0.587665
H189	H	-0.038574	-0.439573	0.581203
H190	H	-0.024967	-0.396837	0.586407
O191	O	0.171726	-0.518898	0.347538
C192	C	0.201240	-0.565564	0.364692
H193	H	0.188361	-0.578142	0.405142
H194	H	0.239292	-0.566160	0.350140
H195	H	0.199931	-0.590123	0.352666
O196	O	0.171377	-0.489478	0.441604
C197	C	0.200095	-0.464362	0.399907
H198	H	0.180881	-0.424589	0.393012
H199	H	0.207591	-0.473248	0.368591
H200	H	0.235033	-0.474939	0.404400
O201	O	0.204035	-0.456812	0.474337
C202	C	0.211751	-0.436068	0.495094
H203	H	0.179124	-0.404162	0.502613
H204	H	0.243955	-0.423996	0.469693
H205	H	0.218411	-0.463272	0.529759
O206	O	0.328262	-0.496198	0.544433
C207	C	0.360877	-0.542558	0.547092
H208	H	0.396297	-0.540655	0.517712
H209	H	0.346509	-0.562968	0.542605
H210	H	0.366199	-0.561537	0.583109
H211	H	0.422274	-0.521162	0.510626
O212	O	0.021775	-0.369129	0.347626
C213	C	-0.016688	-0.360656	0.336721
H214	H	-0.020460	-0.395933	0.347200
H215	H	-0.009978	-0.341392	0.296978
H216	H	-0.050727	-0.337791	0.357164
H217	H	0.332037	-0.345175	0.485091
O218	O	0.426057	-0.370137	0.451251
C219	C	0.393448	-0.323778	0.448607
H220	H	0.358002	-0.321847	0.451891
H221	H	0.407785	-0.297500	0.413070
H222	H	0.388189	-0.314498	0.478720
H223	H	0.159477	-0.208876	0.439413
H224	H	0.077330	-0.605181	0.528391
H225	H	0.129365	-0.118686	0.409385
H226	H	0.055841	-0.118733	0.556693
H227	H	-0.061683	-0.492436	0.165791
O228	O	0.084039	-0.212761	0.594416
C229	C	0.055258	-0.180170	0.619391
H230	H	0.061580	-0.144723	0.595681
H231	H	0.064605	-0.194538	0.652555
H232	H	0.016319	-0.174895	0.630133
H233	H	0.011902	-0.639768	0.165877
O234	O	-0.096290	-0.517353	0.259863
C235	C	-0.071179	-0.488641	0.247757
H236	H	-0.031407	-0.507874	0.234142
H237	H	-0.080107	-0.481123	0.280463
H238	H	-0.081717	-0.453711	0.218876
O239	O	-0.016376	-0.677473	0.259901
C240	C	0.012443	-0.702460	0.227321
H241	H	0.006158	-0.678750	0.191851
H242	H	0.003103	-0.735614	0.241663
H243	H	0.051372	-0.713220	0.222103
H244	H	-0.091926	-0.522444	0.298262
H245	H	0.011557	-0.639751	0.402207
O246	O	-0.063710	-0.484760	0.326525
C247	C	-0.021914	-0.472809	0.301563
H248	H	0.009285	-0.505600	0.310589
H249	H	-0.026362	-0.443986	0.312155
H250	H	-0.014868	-0.459174	0.261761
O251	O	-0.016595	-0.677457	0.374003
C252	C	-0.033672	-0.698098	0.423791
H253	H	-0.038561	-0.674548	0.441225
H254	H	-0.007061	-0.734688	0.435442
H255	H	-0.069200	-0.701750	0.434965
O256	O	0.055380	-0.769393	0.336386
C257	C	0.072633	-0.798151	0.309335
H258	H	0.041950	-0.805562	0.313170
H259	H	0.100093	-0.833129	0.322575
H260	H	0.089808	-0.779017	0.270388
H261	H	-0.098172	-0.765271	0.392919
H262	H	-0.128170	-0.675084	0.362831
H263	H	-0.224531	-0.602667	0.438605
O264	O	-0.130520	-0.637298	0.413833
C265	C	-0.163175	-0.644310	0.460496
H266	H	-0.198590	-0.614307	0.460350
H267	H	-0.148852	-0.644585	0.484144
H268	H	-0.168490	-0.679707	0.474726
H269	H	-0.134111	-0.559208	0.261309
O270	O	-0.228125	-0.524553	0.286081
C271	C	-0.195471	-0.517565	0.239417
H272	H	-0.160049	-0.523156	0.239569
H273	H	-0.209785	-0.479860	0.215781
H274	H	-0.190173	-0.544028	0.225169
