data_functionalizedCrystal
_audit_creation_method	'MofGen! by Chris Wilmer'
_symmetry_space_group_name_H-M	'P1'
_symmetry_Int_Tables_number	1
_symmetry_cell_setting	triclinic
loop_
_symmetry_equiv_pos_as_xyz
  x,y,z
_cell_length_a	16.992694
_cell_length_b	14.853567
_cell_length_c	15.455313
_cell_angle_alpha	92.672621
_cell_angle_beta	87.142206
_cell_angle_gamma	87.151577
loop_
_atom_site_label
_atom_site_type_symbol
_atom_site_fract_x
_atom_site_fract_y
_atom_site_fract_z
O1	O	1.044027	0.187488	-0.072010
O2	O	1.544027	0.687488	0.427990
O3	O	0.815740	0.185390	-0.072036
O4	O	1.315740	0.685390	0.427964
O5	O	0.935981	0.055640	-0.072025
O6	O	1.435981	0.555640	0.427975
O7	O	0.923785	0.317238	-0.072021
O8	O	1.423785	0.817238	0.427979
O9	O	0.929105	0.063027	0.072237
O10	O	1.429105	0.563027	0.572237
O11	O	0.808864	0.192777	0.072226
O12	O	1.308864	0.692777	0.572226
O13	O	1.037151	0.194875	0.072251
O14	O	1.537151	0.694875	0.572251
Cu15	Cu	0.922380	0.194501	0.085411
Cu16	Cu	1.422380	0.694501	0.585411
Cu17	Cu	0.930511	0.185764	-0.085195
Cu18	Cu	1.430511	0.685764	0.414805
O19	O	0.916909	0.324625	0.072241
O20	O	1.416909	0.824625	0.572241
C21	C	0.783087	0.186385	0.000092
C22	C	1.283087	0.686385	0.500092
C23	C	0.696034	0.178334	0.000081
C24	C	1.196034	0.678334	0.500081
C25	C	0.645878	0.256009	0.000083
C26	C	1.145878	0.756009	0.500083
C27	C	0.564083	0.248440	0.000095
C28	C	1.064083	0.748440	0.500095
C29	C	0.532445	0.163195	0.000099
C30	C	1.032445	0.663195	0.500099
C31	C	0.582608	0.085514	0.000100
C32	C	1.082608	0.585514	0.500100
C33	C	0.664401	0.093084	0.000094
C34	C	1.164401	0.593084	0.500094
C35	C	0.288813	0.131820	0.000122
C36	C	0.788813	0.631820	0.500122
C37	C	0.207013	0.124255	0.000125
C38	C	0.707013	0.624255	0.500125
C39	C	0.188493	0.287183	0.000122
C40	C	0.688493	0.787183	0.500122
C41	C	0.270290	0.294745	0.000111
C42	C	0.770290	0.794745	0.500111
C43	C	0.320445	0.217064	0.000116
C44	C	0.820445	0.717064	0.500116
N45	N	0.448838	0.155456	0.000108
N46	N	0.948838	0.655456	0.500108
N47	N	0.404050	0.224804	0.000113
N48	N	0.904050	0.724804	0.500113
C49	C	0.931991	0.025705	0.000103
C50	C	1.431991	0.525705	0.500103
C51	C	0.930335	-0.074496	0.000096
C52	C	1.430335	0.425504	0.500096
C53	C	0.851909	-0.492567	0.000103
C54	C	1.351909	0.007433	0.500103
C55	C	0.994758	-0.503760	0.000119
C56	C	1.494758	-0.003760	0.500119
C57	C	0.996315	-0.409617	0.000114
C58	C	1.496315	0.090383	0.500114
C59	C	0.925668	-0.356944	0.000105
C60	C	1.425668	0.143056	0.500105
C61	C	0.853464	-0.398414	0.000101
C62	C	1.353464	0.101586	0.500101
C63	C	1.068518	-0.368139	0.000127
C64	C	1.568518	0.131861	0.500127
C65	C	1.070078	-0.273990	0.000123
C66	C	1.570078	0.226010	0.500123
C67	C	0.999430	-0.221316	0.000108
C68	C	1.499430	0.278684	0.500108
C69	C	0.927223	-0.262791	0.000103
C70	C	1.427223	0.237209	0.500103
C71	C	0.856576	-0.210118	0.000094
C72	C	1.356576	0.289882	0.500094
C73	C	0.784368	-0.251593	0.000082
C74	C	1.284368	0.248407	0.500082
C75	C	0.782816	-0.345740	0.000086
C76	C	1.282816	0.154260	0.500086
C77	C	1.000982	-0.127169	0.000105
C78	C	1.500982	0.372831	0.500105
C79	C	0.858131	-0.115966	0.000091
C80	C	1.358131	0.384034	0.500091
C81	C	1.069804	0.193880	0.000122
C82	C	1.569804	0.693880	0.500122
C83	C	1.156857	0.201931	0.000127
C84	C	1.656857	0.701931	0.500127
C85	C	0.920900	0.354560	0.000110
C86	C	1.420900	0.854560	0.500110
C87	C	0.922556	0.454760	0.000112
C88	C	1.422556	0.954760	0.500112
N89	N	0.916666	0.200645	0.205406
N90	N	1.416666	0.700645	0.705406
N91	N	0.936231	0.179613	-0.205190
N92	N	1.436231	0.679613	0.294810
C93	C	0.967766	0.145545	0.250805
C94	C	1.467766	0.645545	0.750805
C95	C	0.963453	0.150201	0.341612
C96	C	1.463453	0.650201	0.841612
C97	C	0.908042	0.209961	0.387019
C98	C	1.408042	0.709961	0.887019
C99	C	0.856936	0.265063	0.341614
C100	C	1.356936	0.765063	0.841614
C101	C	0.861246	0.260402	0.250808
C102	C	1.361246	0.760402	0.750808
C103	C	0.889436	0.230054	0.658599
C104	C	1.389436	0.730054	1.158599
C105	C	0.885131	0.234713	0.749411
C106	C	1.385131	0.734713	1.249411
C107	C	0.991647	0.119849	0.749403
C108	C	1.491647	0.619849	1.249403
C109	C	0.995956	0.115198	0.658595
C110	C	1.495956	0.615198	1.158595
C111	C	0.944847	0.170296	0.613198
C112	C	1.444847	0.670296	1.113198
N113	N	0.903633	0.214723	0.479839
N114	N	1.403633	0.714723	0.979839
N115	N	0.949253	0.165529	0.520380
N116	N	1.449253	0.665529	1.020380
H117	H	0.181257	0.054835	0.000127
H118	H	0.681257	0.554835	0.500127
O119	O	0.797172	0.329525	0.390582
O120	O	1.297172	0.829525	0.890582
H121	H	0.802765	0.323519	0.461353
H122	H	1.302765	0.823519	0.961353
O123	O	0.704938	-0.390468	0.000092
O124	O	1.204938	0.109532	0.500092
H125	H	0.715727	-0.464783	0.000110
H126	H	1.215727	0.035217	0.500110
O127	O	0.134400	0.370966	0.000134
O128	O	0.634400	0.870966	0.500134
H129	H	0.072207	0.351386	0.000149
H130	H	0.572207	0.851386	0.500149
O131	O	0.679992	0.347958	0.000084
O132	O	1.179992	0.847958	0.500084
H133	H	0.719603	0.352303	-0.058720
H134	H	1.219603	0.852303	0.441280
O135	O	0.774028	-0.537289	0.000101
O136	O	1.274028	-0.037289	0.500101
H137	H	0.784810	-0.611605	0.000111
H138	H	1.284810	-0.111605	0.500111
O139	O	0.806136	0.319834	0.201835
O140	O	1.306136	0.819834	0.701835
H141	H	0.766886	0.362179	0.248663
H142	H	1.266886	0.862179	0.748663
H143	H	0.523249	0.311692	0.000096
H144	H	1.023249	0.811692	0.500096
H145	H	0.296043	0.364161	0.000098
H146	H	0.796043	0.864161	0.500098
H147	H	1.012891	0.096886	0.213840
H148	H	1.512891	0.596886	0.713840
H149	H	0.329639	0.068566	0.000127
H150	H	0.829639	0.568566	0.500127
H151	H	1.128874	-0.240230	0.000132
H152	H	1.628874	0.259770	0.500132
H153	H	1.059772	-0.093404	0.000120
H154	H	1.559772	0.406596	0.500120
H155	H	1.052275	-0.546652	0.000134
H156	H	1.552275	-0.046652	0.500134
H157	H	1.005062	0.105334	0.378575
H158	H	1.505062	0.605334	0.878575
O159	O	1.144712	-0.424945	0.000150
O160	O	1.644712	0.075055	0.500150
H161	H	1.131499	-0.497379	0.000142
H162	H	1.631499	0.002621	0.500142
O163	O	1.046768	0.060419	0.798362
O164	O	1.546768	0.560419	1.298362
H165	H	1.011753	0.016314	0.839736
H166	H	1.511753	0.516314	1.339736
H167	H	0.840006	0.283380	0.786377
H168	H	1.340006	0.783380	1.286377
H169	H	1.041076	0.066536	0.621627
H170	H	1.541076	0.566536	1.121627
O171	O	0.834322	0.289487	0.609639
O172	O	1.334322	0.789487	1.109639
H173	H	0.795076	0.331832	0.656472
H174	H	1.295076	0.831832	1.156472
H175	H	0.705238	0.029832	0.000092
H176	H	1.205238	0.529832	0.500092
O177	O	0.548490	-0.006433	0.000111
O178	O	1.048490	0.493567	0.500111
H179	H	0.514468	-0.016798	-0.058688
H180	H	1.014468	0.483202	0.441312
O181	O	0.781932	-0.059153	0.000089
O182	O	1.281932	0.440847	0.500089
H183	H	0.731465	-0.103812	0.000090
H184	H	1.231465	0.396188	0.500090
O185	O	0.708169	-0.194779	0.000080
O186	O	1.208169	0.305221	0.500080
H187	H	0.708263	-0.154630	-0.058719
H188	H	1.208263	0.345370	0.441281
