data_functionalizedCrystal
_audit_creation_method	'MofGen! by Chris Wilmer'
_symmetry_space_group_name_H-M	'P1'
_symmetry_Int_Tables_number	1
_symmetry_cell_setting	triclinic
loop_
_symmetry_equiv_pos_as_xyz
  x,y,z
_cell_length_a	17.640112
_cell_length_b	17.639999
_cell_length_c	17.639252
_cell_angle_alpha	65.700204
_cell_angle_beta	87.852337
_cell_angle_gamma	87.810509
loop_
_atom_site_label
_atom_site_type_symbol
_atom_site_fract_x
_atom_site_fract_y
_atom_site_fract_z
Zn1	Zn	1.251327	0.023139	0.189691
Zn2	Zn	1.751327	0.523139	0.689691
Zn3	Zn	1.251276	0.188764	0.024069
Zn4	Zn	1.751276	0.688764	0.524069
Zn5	Zn	1.106777	0.075338	0.076156
Zn6	Zn	1.606777	0.575338	0.576156
Zn7	Zn	1.148354	0.178246	0.179110
Zn8	Zn	1.648354	0.678246	0.679110
O9	O	1.189433	0.116372	0.117257
O10	O	1.689433	0.616372	0.617257
O11	O	1.354888	0.027666	0.150350
O12	O	1.854888	0.527666	0.650350
O13	O	1.214688	0.199965	-0.081422
O14	O	1.714688	0.699965	0.418578
O15	O	1.108573	-0.043968	0.117444
O16	O	1.608573	0.456032	0.617444
O17	O	1.354851	0.149350	0.028668
O18	O	1.854851	0.649350	0.528668
O19	O	1.214773	-0.082319	0.200857
O20	O	1.714773	0.417681	0.700857
O21	O	1.108525	0.116631	-0.043153
O22	O	1.608525	0.616631	0.456847
O23	O	1.008725	0.106433	0.107184
O24	O	1.508725	0.606433	0.607184
O25	O	1.179434	0.131424	0.292914
O26	O	1.679434	0.631424	0.792914
O27	O	1.039271	0.182039	0.182824
O28	O	1.539271	0.682039	0.682824
O29	O	1.255088	0.017467	0.300687
O30	O	1.755088	0.517467	0.800687
O31	O	1.255002	0.299751	0.018409
O32	O	1.755002	0.799751	0.518409
O33	O	1.179385	0.292024	0.132317
O34	O	1.679385	0.792024	0.632317
C35	C	0.997144	0.148760	0.149509
C36	C	1.497144	0.648760	0.649509
C37	C	0.914887	0.162630	0.163321
C38	C	1.414887	0.662630	0.663321
C39	C	0.564740	0.010983	0.012337
C40	C	1.064740	0.510983	0.512337
C41	C	0.487452	0.024031	0.025322
C42	C	0.987452	0.524031	0.525322
C43	C	0.519308	0.102942	0.103876
C44	C	1.019308	0.602942	0.603876
C45	C	0.596600	0.089898	0.090900
C46	C	1.096600	0.589898	0.590900
C47	C	0.619309	0.043919	0.045129
C48	C	1.119309	0.543919	0.545129
C49	C	0.651170	0.122834	0.123693
C50	C	1.151170	0.622834	0.623693
C51	C	0.728456	0.109794	0.110714
C52	C	1.228456	0.609794	0.610714
C53	C	0.751172	0.063819	0.064943
C54	C	1.251172	0.563819	0.564943
C55	C	0.696595	0.030880	0.032151
C56	C	1.196595	0.530880	0.532151
C57	C	0.628459	0.168818	0.169459
C58	C	1.128459	0.668818	0.669459
C59	C	0.683029	0.201753	0.202251
C60	C	1.183029	0.701753	0.702251
C61	C	0.760316	0.188709	0.189278
C62	C	1.260316	0.688709	0.689278
C63	C	0.783032	0.142734	0.143507
C64	C	1.283032	0.642734	0.643507
C65	C	0.814892	0.221649	0.222071
C66	C	1.314892	0.721649	0.722071
C67	C	0.892178	0.208609	0.209092
C68	C	1.392178	0.708609	0.709092
C69	C	0.860318	0.129695	0.130528
C70	C	1.360318	0.629695	0.630528
C71	C	1.221723	0.325019	0.068577
C72	C	1.721723	0.825019	0.568577
C73	C	1.235608	0.414262	0.047767
C74	C	1.735608	0.914262	0.547767
C75	C	1.084179	0.687895	0.275591
C76	C	1.584179	1.187895	0.775591
C77	C	1.097224	0.771758	0.256011
C78	C	1.597224	1.271758	0.756011
C79	C	1.176038	0.779705	0.137492
C80	C	1.676038	1.279705	0.637492
C81	C	1.163003	0.695840	0.157064
C82	C	1.663003	1.195840	0.657064
C83	C	1.117072	0.649942	0.226114
C84	C	1.617072	1.149942	0.726114
C85	C	1.195896	0.657886	0.107587
C86	C	1.695896	1.157886	0.607587
C87	C	1.182859	0.574030	0.127156
C88	C	1.682859	1.074030	0.627156
C89	C	1.136928	0.528127	0.196201
C90	C	1.636928	1.028127	0.696201
C91	C	1.104034	0.566085	0.245682
C92	C	1.604034	1.066085	0.745682
C93	C	1.241823	0.703788	0.038534
C94	C	1.741823	1.203788	0.538534
C95	C	1.274716	0.665834	-0.010942
C96	C	1.774716	1.165834	0.489058
C97	C	1.261683	0.581975	0.008629
C98	C	1.761683	1.081975	0.508629
C99	C	1.215752	0.536072	0.077675
C100	C	1.715752	1.036072	0.577675
C101	C	1.294577	0.544016	-0.040852
C102	C	1.794577	1.044016	0.459148
C103	C	1.281539	0.460160	-0.021283
C104	C	1.781539	0.960160	0.478717
C105	C	1.202715	0.452215	0.097243
C106	C	1.702715	0.952215	0.597243
C107	C	1.382474	0.083858	0.084879
C108	C	1.882474	0.583858	0.584879
C109	C	1.464737	0.070003	0.071081
C110	C	1.964737	0.570003	0.571081
C111	C	1.221904	0.067450	0.326760
C112	C	1.721904	0.567450	0.826760
C113	C	1.235741	0.046602	0.416037
C114	C	1.735741	0.546602	0.916037
C115	C	1.157017	0.906907	0.166141
C116	C	1.657017	1.406907	0.666141
C117	C	1.143143	0.817657	0.186974
C118	C	1.643143	1.317657	0.686974
C119	C	1.084334	0.274695	0.689418
C120	C	1.584334	0.774695	1.189418
C121	C	1.097350	0.255092	0.773308
C122	C	1.597350	0.755092	1.273308
C123	C	1.176122	0.136439	0.781391
C124	C	1.676122	0.636439	1.281391
C125	C	1.163109	0.156029	0.697502
C126	C	1.663109	0.656029	1.197502
C127	C	1.117216	0.225158	0.651521
C128	C	1.617216	0.725158	1.151521
C129	C	1.195991	0.106493	0.659605
C130	C	1.695991	0.606493	1.159605
C131	C	1.182983	0.126084	0.575721
C132	C	1.682983	0.626084	1.075721
C133	C	1.137093	0.195212	0.529735
C134	C	1.637093	0.695212	1.029735
C135	C	1.104207	0.244750	0.567638
C136	C	1.604207	0.744750	1.067638
C137	C	1.241889	0.037367	0.705585
C138	C	1.741889	0.537367	1.205585
C139	C	1.274770	-0.012169	0.667688
C140	C	1.774770	0.487831	1.167688
C141	C	1.261758	0.007419	0.583804
C142	C	1.761758	0.507419	1.083804
C143	C	1.215868	0.076546	0.537818
C144	C	1.715868	0.576546	1.037818
C145	C	1.294643	-0.042119	0.545901
C146	C	1.794643	0.457881	1.045901
C147	C	1.281635	-0.022528	0.462018
C148	C	1.781635	0.477472	0.962018
C149	C	1.202860	0.096138	0.453934
C150	C	1.702860	0.596138	0.953934
C151	C	1.157083	0.165125	0.908565
C152	C	1.657083	0.665125	1.408565
C153	C	1.143236	0.185979	0.819288
C154	C	1.643236	0.685979	1.319288
H155	H	0.565527	0.179433	0.180024
H156	H	1.065527	0.679433	0.680024
C157	C	1.256196	0.015817	0.797860
C158	C	1.756196	0.515817	1.297860
N159	N	1.266970	-0.000415	0.867363
N160	N	1.766970	0.499585	1.367363
C161	C	1.152176	0.401727	0.173193
C162	C	1.652176	0.901727	0.673193
N163	N	1.114106	0.363701	0.230390
N164	N	1.614106	0.863701	0.730390
C165	C	1.061172	0.309590	0.814992
C166	C	1.561172	0.809590	1.314992
N167	N	1.033923	0.350637	0.846388
N168	N	1.533923	0.850637	1.346388
C169	C	1.317805	-0.077021	0.420329
C170	C	1.817805	0.422979	0.920329
N171	N	1.345050	-0.118066	0.388929
N172	N	1.845050	0.381934	0.888929
C173	C	1.053721	0.320795	0.517055
C174	C	1.553721	0.820795	1.017055
N175	N	1.015698	0.378072	0.478955
N176	N	1.515698	0.878072	0.978955
C177	C	1.053496	0.515597	0.321632
C178	C	1.553496	1.015597	0.821632
N179	N	1.015426	0.477571	0.378830
N180	N	1.515426	0.977571	0.878830
C181	C	1.325245	-0.088215	0.718278
C182	C	1.825245	0.411785	1.218278
N183	N	1.363258	-0.145498	0.756384
N184	N	1.863258	0.354502	1.256384
H185	H	1.332016	-0.098399	0.583348
H186	H	1.832016	0.401601	1.083348
H187	H	0.583230	-0.026472	-0.024920
H188	H	1.083230	0.473528	0.475080
C189	C	0.836189	0.049473	0.050669
C190	C	1.336189	0.549473	0.550669
N191	N	0.900224	0.038666	0.039920
N192	N	1.400224	0.538666	0.539920
C193	C	0.721579	-0.019704	-0.018196
C194	C	1.221579	0.480296	0.481804
N195	N	0.740398	-0.057800	-0.056118
N196	N	1.240398	0.442200	0.443882
H197	H	1.165468	0.152414	0.416502
H198	H	1.665468	0.652414	0.916502
C199	C	0.427425	-0.012206	-0.010755
C200	C	0.927425	0.487794	0.489245
N201	N	0.382213	-0.039498	-0.037929
N202	N	0.882213	0.460502	0.462071
C203	C	1.226558	0.830203	0.061536
C204	C	1.726558	1.330203	0.561536
N205	N	1.264611	0.868237	0.004326
N206	N	1.764611	1.368237	0.504326
H207	H	1.046783	0.650520	0.331823
H208	H	1.546783	1.150520	0.831823
H209	H	0.878808	0.092239	0.093272
H210	H	1.378808	0.592239	0.593272
H211	H	0.500806	0.140381	0.141140
H212	H	1.000806	0.640381	0.641140
C213	C	1.325236	0.716333	-0.086898
C214	C	1.825236	1.216333	0.413102
N215	N	1.363288	0.754367	-0.144108
N216	N	1.863288	1.254367	0.355892
H217	H	0.796390	0.259092	0.259330
H218	H	1.296390	0.759092	0.759330
C219	C	1.061039	0.813501	0.310448
C220	C	1.561039	1.313501	0.810448
N221	N	1.033785	0.844943	0.351450
N222	N	1.533785	1.344943	0.851450
H223	H	1.046942	0.330970	0.651986
H224	H	1.546942	0.830970	1.151986
H225	H	1.126308	0.459848	0.212128
H226	H	1.626308	0.959848	0.712128
H227	H	0.664528	0.239192	0.239515
H228	H	1.164528	0.739192	0.739515
C229	C	1.122782	0.216762	0.437460
C230	C	1.622782	0.716762	0.937460
N231	N	1.112002	0.232993	0.367959
N232	N	1.612002	0.732993	0.867959
H233	H	1.252439	0.772068	0.022606
H234	H	1.752439	1.272068	0.522606
H235	H	0.936611	0.235428	0.235796
H236	H	1.436611	0.735428	0.735796
H237	H	1.331968	0.581401	-0.097077
H238	H	1.831968	1.081401	0.402923
C239	C	1.317730	0.418406	-0.075705
C240	C	1.817730	0.918406	0.424295
N241	N	1.344991	0.386957	-0.116696
N242	N	1.844991	0.886957	0.383304
H243	H	1.213491	0.080156	0.818839
H244	H	1.713491	0.580156	1.318839
