data_functionalizedCrystal
_audit_creation_method	'MofGen! by Chris Wilmer'
_symmetry_space_group_name_H-M	'P1'
_symmetry_Int_Tables_number	1
_symmetry_cell_setting	triclinic
loop_
_symmetry_equiv_pos_as_xyz
  x,y,z
_cell_length_a	16.625547
_cell_length_b	12.645330
_cell_length_c	16.625539
_cell_angle_alpha	89.975479
_cell_angle_beta	89.978691
_cell_angle_gamma	90.012583
loop_
_atom_site_label
_atom_site_type_symbol
_atom_site_fract_x
_atom_site_fract_y
_atom_site_fract_z
Zn1	Zn	1.232708	-0.422059	-0.456012
Zn2	Zn	1.232642	-0.599339	-0.321183
Zn3	Zn	1.097878	-0.422090	-0.321182
Zn4	Zn	1.097863	-0.599280	-0.455963
O5	O	1.165273	-0.510692	-0.388585
O6	O	1.345531	-0.445587	-0.438147
O7	O	1.214744	-0.575864	-0.208351
O8	O	1.115797	-0.273738	-0.339087
O9	O	1.345483	-0.575834	-0.339089
O10	O	1.214856	-0.273716	-0.438146
O11	O	1.115733	-0.445640	-0.208350
O12	O	0.985043	-0.445583	-0.339040
O13	O	1.115772	-0.575734	-0.568802
O14	O	0.985032	-0.575764	-0.438063
O15	O	1.214841	-0.445530	-0.568838
O16	O	1.214730	-0.747678	-0.339042
O17	O	1.115708	-0.747635	-0.438065
C18	C	0.955782	-0.510671	-0.388547
C19	C	0.866161	-0.510688	-0.388550
C20	C	0.793378	-0.510690	-0.388560
C21	C	0.702070	-0.510696	-0.388580
C22	C	0.629293	-0.510705	-0.388600
C23	C	0.537979	-0.510713	-0.388620
C24	C	1.165232	-0.786122	-0.388566
C25	C	1.165289	-0.903952	-0.388585
C26	C	1.227483	-1.071499	-0.326163
C27	C	1.227686	-0.948938	-0.326316
C28	C	1.188327	-0.948339	-0.473579
C29	C	1.188820	-1.070937	-0.473248
C30	C	1.080032	-1.071278	-0.366849
C31	C	1.080440	-0.948673	-0.364943
C32	C	1.375581	-0.510713	-0.388624
C33	C	1.465203	-0.510722	-0.388640
C34	C	1.165312	-0.510622	-0.598894
C35	C	1.165329	-0.510592	-0.688515
C36	C	1.165335	-0.234187	-0.388622
C37	C	1.165362	-0.116357	-0.388638
C38	C	1.165342	-0.510569	-0.761298
C39	C	1.165361	-0.510529	-0.852606
C40	C	1.165380	-0.510492	-0.925383
C41	C	1.165400	-0.510454	-1.016697
C42	C	1.165280	-0.510685	-0.179094
C43	C	1.165419	-0.510416	-0.089474
H44	H	1.213272	-0.918932	-0.263295
H45	H	1.063069	-0.919673	-0.302395
Cl46	Cl	1.205516	-1.117126	-0.228575
Cl47	Cl	1.324540	-1.118938	-0.348164
H48	H	1.031659	-0.918061	-0.407109
Cl49	Cl	1.325263	-0.903528	-0.348573
Cl50	Cl	1.285118	-1.114965	-0.501738
H51	H	1.059080	-1.102283	-0.305951
H52	H	1.145555	-1.100607	-0.521400
Cl53	Cl	1.120592	-0.903360	-0.547374
H54	H	1.249994	-0.917552	-0.492342
Cl55	Cl	1.008569	-1.116070	-0.437098
