data_functionalizedCrystal
_audit_creation_method	'MofGen! by Chris Wilmer'
_symmetry_space_group_name_H-M	'P1'
_symmetry_Int_Tables_number	1
_symmetry_cell_setting	triclinic
loop_
_symmetry_equiv_pos_as_xyz
  x,y,z
_cell_length_a	12.594516
_cell_length_b	12.594517
_cell_length_c	16.625539
_cell_angle_alpha	90.025391
_cell_angle_beta	89.975805
_cell_angle_gamma	89.986890
loop_
_atom_site_label
_atom_site_type_symbol
_atom_site_fract_x
_atom_site_fract_y
_atom_site_fract_z
Zn1	Zn	-0.423884	-1.627247	-0.456036
Zn2	Zn	-0.173884	-1.377247	-0.206036
Zn3	Zn	0.076116	-1.127247	0.043964
Zn4	Zn	0.326116	-0.877247	0.293964
Zn5	Zn	-0.601885	-1.627132	-0.321213
Zn6	Zn	-0.351885	-1.377132	-0.071213
Zn7	Zn	-0.101885	-1.127132	0.178787
Zn8	Zn	0.148115	-0.877132	0.428787
Zn9	Zn	-0.423905	-1.449252	-0.321205
Zn10	Zn	-0.173905	-1.199252	-0.071205
Zn11	Zn	0.076095	-0.949252	0.178795
Zn12	Zn	0.326095	-0.699252	0.428795
Zn13	Zn	-0.601805	-1.449226	-0.455991
Zn14	Zn	-0.351805	-1.199226	-0.205991
Zn15	Zn	-0.101805	-0.949226	0.044009
Zn16	Zn	0.148195	-0.699226	0.294009
O17	O	-0.512870	-1.538214	-0.388611
O18	O	-0.262870	-1.288214	-0.138611
O19	O	-0.012870	-1.038214	0.111389
O20	O	0.237130	-0.788214	0.361389
O21	O	-0.447521	-1.776177	-0.438173
O22	O	-0.197521	-1.526177	-0.188173
O23	O	0.052479	-1.276177	0.061827
O24	O	0.302479	-1.026177	0.311827
O25	O	-0.578318	-1.603499	-0.208380
O26	O	-0.328318	-1.353499	0.041620
O27	O	-0.078318	-1.103499	0.291620
O28	O	0.171682	-0.853499	0.541620
O29	O	-0.274957	-1.472922	-0.339106
O30	O	-0.024957	-1.222922	-0.089106
O31	O	0.225043	-0.972922	0.160894
O32	O	0.475043	-0.722922	0.410894
O33	O	-0.578298	-1.776093	-0.339119
O34	O	-0.328298	-1.526093	-0.089119
O35	O	-0.078298	-1.276093	0.160881
O36	O	0.171702	-1.026093	0.410881
O37	O	-0.274941	-1.603694	-0.438166
O38	O	-0.024941	-1.353694	-0.188166
O39	O	0.225059	-1.103694	0.061834
O40	O	0.475059	-0.853694	0.311834
O41	O	-0.447557	-1.472811	-0.208374
O42	O	-0.197557	-1.222811	0.041626
O43	O	0.052443	-0.972811	0.291626
O44	O	0.302443	-0.722811	0.541626
O45	O	-0.447480	-1.300303	-0.339063
O46	O	-0.197480	-1.050303	-0.089063
O47	O	0.052520	-0.800303	0.160937
O48	O	0.302520	-0.550303	0.410937
O49	O	-0.578161	-1.472878	-0.568830
O50	O	-0.328161	-1.222878	-0.318830
O51	O	-0.078161	-0.972878	-0.068830
O52	O	0.171839	-0.722878	0.181170
O53	O	-0.578182	-1.300284	-0.438090
O54	O	-0.328182	-1.050284	-0.188090
O55	O	-0.078182	-0.800284	0.061910
O56	O	0.171818	-0.550284	0.311910
O57	O	-0.447443	-1.603669	-0.568863
O58	O	-0.197443	-1.353669	-0.318863
O59	O	0.052557	-1.103669	-0.068863
O60	O	0.302557	-0.853669	0.181137
O61	O	-0.750820	-1.603474	-0.339076
O62	O	-0.500820	-1.353474	-0.089076
O63	O	-0.250820	-1.103474	0.160924
O64	O	-0.000820	-0.853474	0.410924
O65	O	-0.750762	-1.472767	-0.438097
O66	O	-0.500762	-1.222767	-0.188097
O67	O	-0.250762	-0.972767	0.061903
O68	O	-0.000762	-0.722767	0.311903
C69	C	-0.789411	-1.538134	-0.388600
C70	C	-0.539411	-1.288134	-0.138600
C71	C	-0.289411	-1.038134	0.111400
C72	C	-0.039411	-0.788134	0.361400
C73	C	-0.907716	-1.538198	-0.388623
C74	C	-0.657716	-1.288198	-0.138623
C75	C	-0.407716	-1.038198	0.111377
C76	C	-0.157716	-0.788198	0.361377
C77	C	-0.512825	-1.261673	-0.388571
C78	C	-0.262825	-1.011673	-0.138571
C79	C	-0.012825	-0.761673	0.111429
C80	C	0.237175	-0.511673	0.361429
C81	C	-0.512832	-1.143368	-0.388573
C82	C	-0.262832	-0.893368	-0.138573
C83	C	-0.012832	-0.643368	0.111427
C84	C	0.237168	-0.393368	0.361427
C85	C	-1.047740	-1.467164	-0.442453
C86	C	-0.797740	-1.217164	-0.192453
C87	C	-0.547740	-0.967164	0.057547
C88	C	-0.297740	-0.717164	0.307547
C89	C	-0.976838	-1.564199	-0.462241
C90	C	-0.726838	-1.314199	-0.212241
C91	C	-0.476838	-1.064199	0.037759
C92	C	-0.226838	-0.814199	0.287759
C93	C	-0.977046	-1.441173	-0.368870
C94	C	-0.727046	-1.191173	-0.118870
C95	C	-0.477046	-0.941173	0.131130
C96	C	-0.227046	-0.691173	0.381130
C97	C	-1.047600	-1.635457	-0.408479
C98	C	-0.797600	-1.385457	-0.158479
C99	C	-0.547600	-1.135457	0.091521
C100	C	-0.297600	-0.885457	0.341521
C101	C	-1.047814	-1.512366	-0.315074
C102	C	-0.797814	-1.262366	-0.065074
C103	C	-0.547814	-1.012366	0.184926
C104	C	-0.297814	-0.762366	0.434926
C105	C	-0.976945	-1.609468	-0.334834
C106	C	-0.726945	-1.359468	-0.084834
C107	C	-0.476945	-1.109468	0.165166
C108	C	-0.226945	-0.859468	0.415166
C109	C	-0.441640	-1.074094	-0.334811
C110	C	-0.191640	-0.824094	-0.084811
C111	C	0.058360	-0.574094	0.165189
C112	C	0.308360	-0.324094	0.415189
C113	C	-0.538721	-1.003280	-0.314976
C114	C	-0.288721	-0.753280	-0.064976
C115	C	-0.038721	-0.503280	0.185024
C116	C	0.211279	-0.253280	0.435024
C117	C	-0.415780	-1.003383	-0.408410
C118	C	-0.165780	-0.753383	-0.158410
C119	C	0.084220	-0.503383	0.091590
C120	C	0.334220	-0.253383	0.341590
C121	C	-0.609964	-1.074112	-0.368700
C122	C	-0.359964	-0.824112	-0.118700
C123	C	-0.109964	-0.574112	0.131300
C124	C	0.140036	-0.324112	0.381300
C125	C	-0.486957	-1.074222	-0.462168
C126	C	-0.236957	-0.824222	-0.212168
C127	C	0.013043	-0.574222	0.037832
C128	C	0.263043	-0.324222	0.287832
C129	C	-0.584106	-1.003439	-0.442360
C130	C	-0.334106	-0.753439	-0.192360
C131	C	-0.084106	-0.503439	0.057640
C132	C	0.165894	-0.253439	0.307640
C133	C	-0.235249	-1.538324	-0.388640
C134	C	0.014751	-1.288324	-0.138640
C135	C	0.264751	-1.038324	0.111360
C136	C	0.514751	-0.788324	0.361360
C137	C	-0.116944	-1.538370	-0.388652
C138	C	0.133056	-1.288370	-0.138652
C139	C	0.383056	-1.038370	0.111348
C140	C	0.633056	-0.788370	0.361348
C141	C	-0.512791	-1.538284	-0.598920
C142	C	-0.262791	-1.288284	-0.348920
C143	C	-0.012791	-1.038284	-0.098920
C144	C	0.237209	-0.788284	0.151080
C145	C	-0.512757	-1.538313	-0.688542
C146	C	-0.262757	-1.288313	-0.438542
C147	C	-0.012757	-1.038313	-0.188542
C148	C	0.237243	-0.788313	0.061458
C149	C	-0.512894	-0.815835	-0.388637
C150	C	-0.262894	-0.565835	-0.138637
C151	C	-0.012894	-0.315835	0.111363
C152	C	0.237106	-0.065835	0.361363
C153	C	-0.512850	-0.934141	-0.388610
C154	C	-0.262850	-0.684141	-0.138610
C155	C	-0.012850	-0.434141	0.111390
C156	C	0.237150	-0.184141	0.361390
C157	C	-0.512638	-1.538362	-1.016717
C158	C	-0.262638	-1.288362	-0.766717
C159	C	-0.012638	-1.038362	-0.516717
C160	C	0.237362	-0.788362	-0.266717
C161	C	-0.512674	-1.538346	-0.925409
C162	C	-0.262674	-1.288346	-0.675409
C163	C	-0.012674	-1.038346	-0.425409
C164	C	0.237326	-0.788346	-0.175409
C165	C	-0.512698	-1.538338	-0.852632
C166	C	-0.262698	-1.288338	-0.602632
C167	C	-0.012698	-1.038338	-0.352632
C168	C	0.237302	-0.788338	-0.102632
C169	C	-0.512733	-1.538320	-0.761318
C170	C	-0.262733	-1.288320	-0.511318
C171	C	-0.012733	-1.038320	-0.261318
C172	C	0.237267	-0.788320	-0.011318
C173	C	-0.512872	-1.538207	-0.179121
C174	C	-0.262872	-1.288207	0.070879
C175	C	-0.012872	-1.038207	0.320879
C176	C	0.237128	-0.788207	0.570879
C177	C	-0.512606	-1.538383	-0.089500
C178	C	-0.262606	-1.288383	0.160500
C179	C	-0.012606	-1.038383	0.410500
C180	C	0.237394	-0.788383	0.660500
H181	H	-1.078821	-1.407095	-0.487998
H182	H	-0.828821	-1.157095	-0.237998
H183	H	-0.578821	-0.907095	0.012002
H184	H	-0.328821	-0.657095	0.262002
H185	H	-1.079012	-1.490409	-0.252880
H186	H	-0.829012	-1.240409	-0.002880
H187	H	-0.579012	-0.990409	0.247120
H188	H	-0.329012	-0.740409	0.497120
H189	H	-0.644388	-0.972611	-0.487841
H190	H	-0.394388	-0.722611	-0.237841
H191	H	-0.144388	-0.472611	0.012159
H192	H	0.105612	-0.222611	0.262159
C193	C	-0.568303	-0.961176	-0.230920
C194	C	-0.318303	-0.711176	0.019080
C195	C	-0.068303	-0.461176	0.269080
C196	C	0.181697	-0.211176	0.519080
N197	N	-0.590575	-0.929464	-0.167607
N198	N	-0.340575	-0.679464	0.082393
N199	N	-0.090575	-0.429464	0.332393
N200	N	0.159425	-0.179464	0.582393
H201	H	-0.381502	-1.105118	-0.289296
H202	H	-0.131502	-0.855118	-0.039296
H203	H	0.118498	-0.605118	0.210704
H204	H	0.368498	-0.355118	0.460704
H205	H	-0.692072	-1.105050	-0.351869
H206	H	-0.442072	-0.855050	-0.101869
H207	H	-0.192072	-0.605050	0.148131
H208	H	0.057928	-0.355050	0.398131
H209	H	-0.333707	-0.972259	-0.425144
H210	H	-0.083707	-0.722259	-0.175144
H211	H	0.166293	-0.472259	0.074856
H212	H	0.416293	-0.222259	0.324856
C213	C	-0.934728	-1.593827	-0.546286
C214	C	-0.684728	-1.343827	-0.296286
C215	C	-0.434728	-1.093827	-0.046286
C216	C	-0.184728	-0.843827	0.203714
N217	N	-0.903018	-1.616139	-0.609591
N218	N	-0.653018	-1.366139	-0.359591
N219	N	-0.403018	-1.116139	-0.109591
N220	N	-0.153018	-0.866139	0.140409
C221	C	-1.089294	-1.746438	-0.431170
C222	C	-0.839294	-1.496438	-0.181170
C223	C	-0.589294	-1.246438	0.068830
C224	C	-0.339294	-0.996438	0.318830
N225	N	-1.120700	-1.830025	-0.448265
N226	N	-0.870700	-1.580025	-0.198265
N227	N	-0.620700	-1.330025	0.051735
N228	N	-0.370700	-1.080025	0.301735
H229	H	-0.946058	-1.669680	-0.289324
H230	H	-0.696058	-1.419680	-0.039324
H231	H	-0.446058	-1.169680	0.210676
H232	H	-0.196058	-0.919680	0.460676
C233	C	-0.935176	-1.330223	-0.346279
C234	C	-0.685176	-1.080223	-0.096279
C235	C	-0.435176	-0.830223	0.153721
C236	C	-0.185176	-0.580223	0.403721
N237	N	-0.903645	-1.246653	-0.329269
N238	N	-0.653645	-0.996653	-0.079269
N239	N	-0.403645	-0.746653	0.170731
N240	N	-0.153645	-0.496653	0.420731
H241	H	-0.465028	-1.105406	-0.524370
H242	H	-0.215028	-0.855406	-0.274370
H243	H	0.034972	-0.605406	-0.024370
H244	H	0.284972	-0.355406	0.225630
