data_functionalizedCrystal
_audit_creation_method	'MofGen! by Chris Wilmer'
_symmetry_space_group_name_H-M	'P1'
_symmetry_Int_Tables_number	1
_symmetry_cell_setting	triclinic
loop_
_symmetry_equiv_pos_as_xyz
  x,y,z
_cell_length_a	14.908520
_cell_length_b	19.805407
_cell_length_c	19.805399
_cell_angle_alpha	90.019573
_cell_angle_beta	93.270609
_cell_angle_gamma	86.679227
loop_
_atom_site_label
_atom_site_type_symbol
_atom_site_fract_x
_atom_site_fract_y
_atom_site_fract_z
Zn1	Zn	-0.359181	-1.019204	-0.398269
Zn2	Zn	-0.109181	-0.769204	-0.148269
Zn3	Zn	0.140819	-0.519204	0.101731
Zn4	Zn	0.390819	-0.269204	0.351731
Zn5	Zn	-0.510047	-1.012594	-0.291612
Zn6	Zn	-0.260047	-0.762594	-0.041612
Zn7	Zn	-0.010047	-0.512594	0.208388
Zn8	Zn	0.239953	-0.262594	0.458388
Zn9	Zn	-0.359206	-0.906017	-0.285095
Zn10	Zn	-0.109206	-0.656017	-0.035095
Zn11	Zn	0.140794	-0.406017	0.214905
Zn12	Zn	0.390794	-0.156017	0.464905
Zn13	Zn	-0.509999	-0.899460	-0.404757
Zn14	Zn	-0.259999	-0.649460	-0.154757
Zn15	Zn	-0.009999	-0.399460	0.095243
Zn16	Zn	0.240001	-0.149460	0.345243
O17	O	-0.434608	-0.959319	-0.344934
O18	O	-0.184608	-0.709319	-0.094934
O19	O	0.065392	-0.459319	0.155066
O20	O	0.315392	-0.209319	0.405066
O21	O	-0.379203	-1.113043	-0.384134
O22	O	-0.129203	-0.863043	-0.134134
O23	O	0.120797	-0.613043	0.115866
O24	O	0.370797	-0.363043	0.365866
O25	O	-0.490068	-0.998435	-0.196033
O26	O	-0.240068	-0.748435	0.053967
O27	O	0.009932	-0.498435	0.303967
O28	O	0.259932	-0.248435	0.553967
O29	O	-0.232958	-0.926542	-0.294665
O30	O	0.017042	-0.676542	-0.044665
O31	O	0.267042	-0.426542	0.205335
O32	O	0.517042	-0.176542	0.455335
O33	O	-0.490044	-1.108187	-0.305773
O34	O	-0.240044	-0.858187	-0.055773
O35	O	0.009956	-0.608187	0.194227
O36	O	0.259956	-0.358187	0.444227
O37	O	-0.232939	-1.009699	-0.377814
O38	O	0.017061	-0.759699	-0.127814
O39	O	0.267061	-0.509699	0.122186
O40	O	0.517061	-0.259699	0.372186
O41	O	-0.379246	-0.920133	-0.191244
O42	O	-0.129246	-0.670133	0.058756
O43	O	0.120754	-0.420133	0.308756
O44	O	0.370754	-0.170133	0.558756
O45	O	-0.379199	-0.810431	-0.300956
O46	O	-0.129199	-0.560431	-0.050956
O47	O	0.120801	-0.310431	0.199044
O48	O	0.370801	-0.060431	0.449044
O49	O	-0.489962	-0.915366	-0.498612
O50	O	-0.239962	-0.665366	-0.248612
O51	O	0.010038	-0.415366	0.001388
O52	O	0.260038	-0.165366	0.251388
O53	O	-0.489986	-0.805614	-0.388871
O54	O	-0.239986	-0.555614	-0.138871
O55	O	0.010014	-0.305614	0.111129
O56	O	0.260014	-0.055614	0.361129
O57	O	-0.379157	-1.003341	-0.493845
O58	O	-0.129157	-0.753341	-0.243845
O59	O	0.120843	-0.503341	0.006155
O60	O	0.370843	-0.253341	0.256155
O61	O	-0.636286	-0.992077	-0.312064
O62	O	-0.386286	-0.742077	-0.062064
O63	O	-0.136286	-0.492077	0.187936
O64	O	0.113714	-0.242077	0.437936
O65	O	-0.636250	-0.908957	-0.395191
O66	O	-0.386250	-0.658957	-0.145191
O67	O	-0.136250	-0.408957	0.104809
O68	O	0.113750	-0.158957	0.354809
C69	C	-0.669002	-0.949107	-0.355053
C70	C	-0.419002	-0.699107	-0.105053
C71	C	-0.169002	-0.449107	0.144947
C72	C	0.080998	-0.199107	0.394947
C73	C	-0.769277	-0.944800	-0.359405
C74	C	-0.519277	-0.694800	-0.109405
C75	C	-0.269277	-0.444800	0.140595
C76	C	-0.019277	-0.194800	0.390595
C77	C	-0.434591	-0.783463	-0.344911
C78	C	-0.184591	-0.533463	-0.094911
C79	C	0.065409	-0.283463	0.155089
C80	C	0.315409	-0.033463	0.405089
C81	C	-0.434605	-0.708231	-0.344918
C82	C	-0.184605	-0.458231	-0.094918
C83	C	0.065395	-0.208231	0.155082
C84	C	0.315395	0.041769	0.405082
C85	C	-0.434551	-0.959359	-0.521474
C86	C	-0.184551	-0.709359	-0.271474
C87	C	0.065449	-0.459359	-0.021474
C88	C	0.315449	-0.209359	0.228526
C89	C	-0.434527	-0.959376	-0.596705
C90	C	-0.184527	-0.709376	-0.346705
C91	C	0.065473	-0.459376	-0.096705
C92	C	0.315473	-0.209376	0.153295
C93	C	-0.957679	-1.023348	-0.281093
C94	C	-0.707679	-0.773348	-0.031093
C95	C	-0.457679	-0.523348	0.218907
C96	C	-0.207679	-0.273348	0.468907
C97	C	-1.051896	-1.019304	-0.285180
C98	C	-0.801896	-0.769304	-0.035180
C99	C	-0.551896	-0.519304	0.214820
C100	C	-0.301896	-0.269304	0.464820
C101	C	-1.051929	-0.932671	-0.371669
C102	C	-0.801929	-0.682671	-0.121669
C103	C	-0.551929	-0.432671	0.128331
C104	C	-0.301929	-0.182671	0.378331
C105	C	-0.957712	-0.936715	-0.367582
C106	C	-0.707712	-0.686715	-0.117582
C107	C	-0.457712	-0.436715	0.132418
C108	C	-0.207712	-0.186715	0.382418
C109	C	-0.910590	-0.982055	-0.322292
C110	C	-0.660590	-0.732055	-0.072292
C111	C	-0.410590	-0.482055	0.177708
C112	C	-0.160590	-0.232055	0.427708
C113	C	-0.816372	-0.986095	-0.318202
C114	C	-0.566372	-0.736095	-0.068202
C115	C	-0.316372	-0.486095	0.181798
C116	C	-0.066372	-0.236095	0.431798
C117	C	-0.816407	-0.899466	-0.404694
C118	C	-0.566407	-0.649466	-0.154694
C119	C	-0.316407	-0.399466	0.095306
C120	C	-0.066407	-0.149466	0.345306
C121	C	-0.910624	-0.895421	-0.408781
C122	C	-0.660624	-0.645421	-0.158781
C123	C	-0.410624	-0.395421	0.091219
C124	C	-0.160624	-0.145421	0.341219
C125	C	-0.199299	-0.969589	-0.334789
C126	C	0.050701	-0.719589	-0.084789
C127	C	0.300701	-0.469589	0.165211
C128	C	0.550701	-0.219589	0.415211
C129	C	-0.099024	-0.973966	-0.330466
C130	C	0.150976	-0.723966	-0.080466
C131	C	0.400976	-0.473966	0.169534
C132	C	0.650976	-0.223966	0.419534
C133	C	-0.434626	-1.135861	-0.344957
C134	C	-0.184626	-0.885861	-0.094957
C135	C	0.065374	-0.635861	0.155043
C136	C	0.315374	-0.385861	0.405043
C137	C	-0.434634	-1.211092	-0.344967
C138	C	-0.184634	-0.961092	-0.094967
C139	C	0.065366	-0.711092	0.155033
C140	C	0.315366	-0.461092	0.405033
C141	C	-0.492379	-0.670392	-0.390629
C142	C	-0.242379	-0.420392	-0.140629
C143	C	0.007621	-0.170392	0.109371
C144	C	0.257621	0.079608	0.359371
C145	C	-0.492380	-0.599704	-0.390639
C146	C	-0.242380	-0.349704	-0.140639
C147	C	0.007620	-0.099704	0.109361
C148	C	0.257620	0.150296	0.359361
C149	C	-0.434612	-0.566855	-0.344934
C150	C	-0.184612	-0.316855	-0.094934
C151	C	0.065388	-0.066855	0.155066
C152	C	0.315388	0.183145	0.405066
C153	C	-0.376832	-0.604699	-0.299220
C154	C	-0.126832	-0.354699	-0.049220
C155	C	0.123168	-0.104699	0.200780
C156	C	0.373168	0.145301	0.450780
C157	C	-0.376827	-0.675386	-0.299214
C158	C	-0.126827	-0.425386	-0.049214
C159	C	0.123173	-0.175386	0.200786
C160	C	0.373173	0.074614	0.450786
C161	C	-0.376852	-0.319625	-0.299244
C162	C	-0.126852	-0.069625	-0.049244
C163	C	0.123148	0.180375	0.200756
C164	C	0.373148	0.430375	0.450756
C165	C	-0.376864	-0.248932	-0.299252
C166	C	-0.126864	0.001068	-0.049252
C167	C	0.123136	0.251068	0.200748
C168	C	0.373136	0.501068	0.450748
C169	C	-0.492406	-0.243942	-0.390668
C170	C	-0.242406	0.006058	-0.140668
C171	C	0.007594	0.256058	0.109332
C172	C	0.257594	0.506058	0.359332
C173	C	-0.492400	-0.314629	-0.390662
C174	C	-0.242400	-0.064629	-0.140662
C175	C	0.007600	0.185371	0.109338
C176	C	0.257600	0.435371	0.359338
C177	C	-0.434618	-0.352467	-0.344952
C178	C	-0.184618	-0.102467	-0.094952
C179	C	0.065382	0.147533	0.155048
C180	C	0.315382	0.397533	0.405048
C181	C	-0.434615	-0.429116	-0.344943
C182	C	-0.184615	-0.179116	-0.094943
C183	C	0.065385	0.070884	0.155057
C184	C	0.315385	0.320884	0.405057
C185	C	-0.434618	-0.490208	-0.344939
C186	C	-0.184618	-0.240208	-0.094939
C187	C	0.065382	0.009792	0.155061
C188	C	0.315382	0.259792	0.405061
C189	C	-0.376828	-1.005186	-0.629568
C190	C	-0.126828	-0.755186	-0.379568
C191	C	0.123172	-0.505186	-0.129568
C192	C	0.373172	-0.255186	0.120432
C193	C	-0.376802	-1.005194	-0.700255
C194	C	-0.126802	-0.755194	-0.450255
C195	C	0.123198	-0.505194	-0.200255
C196	C	0.373198	-0.255194	0.049745
C197	C	-0.434480	-0.959395	-0.738078
C198	C	-0.184480	-0.709395	-0.488078
C199	C	0.065520	-0.459395	-0.238078
C200	C	0.315520	-0.209395	0.011922
C201	C	-0.492182	-0.913581	-0.705210
C202	C	-0.242182	-0.663581	-0.455210
C203	C	0.007818	-0.413581	-0.205210
C204	C	0.257818	-0.163581	0.044790
C205	C	-0.492203	-0.913570	-0.634524
C206	C	-0.242203	-0.663570	-0.384524
C207	C	0.007797	-0.413570	-0.134524
C208	C	0.257797	-0.163570	0.115476
C209	C	-0.492098	-0.913622	-0.990280
C210	C	-0.242098	-0.663622	-0.740280
C211	C	0.007902	-0.413622	-0.490280
C212	C	0.257902	-0.163622	-0.240280
C213	C	-0.492074	-0.913638	-1.060971
C214	C	-0.242074	-0.663638	-0.810971
C215	C	0.007926	-0.413638	-0.560971
C216	C	0.257926	-0.163638	-0.310971
C217	C	-0.376697	-1.005247	-1.056011
C218	C	-0.126697	-0.755247	-0.806011
C219	C	0.123303	-0.505247	-0.556011
C220	C	0.373303	-0.255247	-0.306011
C221	C	-0.376718	-1.005236	-0.985325
C222	C	-0.126718	-0.755236	-0.735325
C223	C	0.123282	-0.505236	-0.485325
C224	C	0.373282	-0.255236	-0.235325
C225	C	-0.434416	-0.959419	-0.952463
C226	C	-0.184416	-0.709419	-0.702463
C227	C	0.065584	-0.459419	-0.452463
C228	C	0.315584	-0.209419	-0.202463
C229	C	-0.434442	-0.959410	-0.875816
C230	C	-0.184442	-0.709410	-0.625816
C231	C	0.065558	-0.459410	-0.375816
C232	C	0.315558	-0.209410	-0.125816
C233	C	-0.434459	-0.959407	-0.814725
C234	C	-0.184459	-0.709407	-0.564725
C235	C	0.065541	-0.459407	-0.314725
C236	C	0.315541	-0.209407	-0.064725
C237	C	-0.434600	-0.959320	-0.169077
C238	C	-0.184600	-0.709320	0.080923
C239	C	0.065400	-0.459320	0.330923
C240	C	0.315400	-0.209320	0.580923
C241	C	-0.434370	-0.959445	-0.093836
C242	C	-0.184370	-0.709445	0.156164
C243	C	0.065630	-0.459445	0.406164
C244	C	0.315630	-0.209445	0.656164
H245	H	-0.778006	-1.023011	-0.281323
H246	H	-0.528006	-0.773011	-0.031323
H247	H	-0.278006	-0.523011	0.218677
H248	H	-0.028006	-0.273011	0.468677
H249	H	-0.329713	-1.042551	-1.082776
H250	H	-0.079713	-0.792551	-0.832776
H251	H	0.170287	-0.542551	-0.582776
H252	H	0.420287	-0.292551	-0.332776
H253	H	-0.919312	-1.060261	-0.244211
H254	H	-0.669312	-0.810261	0.005789
H255	H	-0.419312	-0.560261	0.255789
H256	H	-0.169312	-0.310261	0.505789
H257	H	-0.539426	-0.568898	-0.427861
H258	H	-0.289426	-0.318898	-0.177861
H259	H	-0.039426	-0.068898	0.072139
H260	H	0.210574	0.181102	0.322139
H261	H	-0.539044	-0.876340	-1.091765
H262	H	-0.289044	-0.626340	-0.841765
H263	H	-0.039044	-0.376340	-0.591765
H264	H	0.210956	-0.126340	-0.341765
H265	H	-0.539092	-0.876325	-0.963533
H266	H	-0.289092	-0.626325	-0.713533
H267	H	-0.039092	-0.376325	-0.463533
H268	H	0.210908	-0.126325	-0.213533
H269	H	-0.329793	-0.577948	-0.262009
H270	H	-0.079793	-0.327948	-0.012009
H271	H	0.170207	-0.077948	0.237991
H272	H	0.420207	0.172052	0.487991
H273	H	-0.329777	-0.706194	-0.261995
H274	H	-0.079777	-0.456194	-0.011995
H275	H	0.170223	-0.206194	0.238005
H276	H	0.420223	0.043806	0.488005
H277	H	-0.539141	-0.876288	-0.736011
H278	H	-0.289141	-0.626288	-0.486011
H279	H	-0.039141	-0.376288	-0.236011
H280	H	0.210859	-0.126288	0.013989
H281	H	-0.329817	-0.222189	-0.262033
H282	H	-0.079817	0.027811	-0.012033
H283	H	0.170183	0.277811	0.237967
H284	H	0.420183	0.527811	0.487967
H285	H	-0.329809	-0.350424	-0.262018
H286	H	-0.079809	-0.100424	-0.012018
H287	H	0.170191	0.149576	0.237982
H288	H	0.420191	0.399576	0.487982
H289	H	-0.778057	-0.865840	-0.438239
H290	H	-0.528057	-0.615840	-0.188239
H291	H	-0.278057	-0.365840	0.061761
H292	H	-0.028057	-0.115840	0.311761
H293	H	-0.539178	-0.876260	-0.607768
H294	H	-0.289178	-0.626260	-0.357768
H295	H	-0.039178	-0.376260	-0.107768
H296	H	0.210822	-0.126260	0.142232
H297	H	-0.329753	-1.042533	-0.954533
H298	H	-0.079753	-0.792533	-0.704533
H299	H	0.170247	-0.542533	-0.454533
H300	H	0.420247	-0.292533	-0.204533
H301	H	-1.090232	-1.052931	-0.251633
H302	H	-0.840232	-0.802931	-0.001633
H303	H	-0.590232	-0.552931	0.248367
H304	H	-0.340232	-0.302931	0.498367
H305	H	-0.539444	-0.341371	-0.427878
H306	H	-0.289444	-0.091371	-0.177878
H307	H	-0.039444	0.158629	0.072122
H308	H	0.210556	0.408629	0.322122
H309	H	-0.949003	-0.858509	-0.445657
H310	H	-0.699003	-0.608509	-0.195657
H311	H	-0.449003	-0.358509	0.054343
H312	H	-0.199003	-0.108509	0.304343
H313	H	-0.539423	-0.697132	-0.427846
H314	H	-0.289423	-0.447132	-0.177846
H315	H	-0.039423	-0.197132	0.072154
H316	H	0.210577	0.052868	0.322154
H317	H	-0.539452	-0.213126	-0.427890
H318	H	-0.289452	0.036874	-0.177890
H319	H	-0.039452	0.286874	0.072110
H320	H	0.210548	0.536874	0.322110
H321	H	-1.090312	-0.895762	-0.408547
H322	H	-0.840312	-0.645762	-0.158547
H323	H	-0.590312	-0.395762	0.091453
H324	H	-0.340312	-0.145762	0.341453
H325	H	-0.329820	-1.042499	-0.727009
H326	H	-0.079820	-0.792499	-0.477009
H327	H	0.170180	-0.542499	-0.227009
H328	H	0.420180	-0.292499	0.022991
H329	H	-0.329862	-1.042483	-0.598777
H330	H	-0.079862	-0.792483	-0.348777
H331	H	0.170138	-0.542483	-0.098777
H332	H	0.420138	-0.292483	0.151223
