data_functionalizedCrystal
_audit_creation_method	'MofGen! by Chris Wilmer'
_symmetry_space_group_name_H-M	'P1'
_symmetry_Int_Tables_number	1
_symmetry_cell_setting	triclinic
loop_
_symmetry_equiv_pos_as_xyz
  x,y,z
_cell_length_a	10.540539
_cell_length_b	12.784893
_cell_length_c	9.616153
_cell_angle_alpha	90.003217
_cell_angle_beta	89.995687
_cell_angle_gamma	101.184127
loop_
_atom_site_label
_atom_site_type_symbol
_atom_site_fract_x
_atom_site_fract_y
_atom_site_fract_z
O1	O	0.007934	-1.410378	-0.115613
O2	O	0.062253	-1.101334	-0.115621
O3	O	-0.150468	-1.262906	-0.115615
O4	O	0.220654	-1.248805	-0.115619
O5	O	-0.150480	-1.262895	0.115677
O6	O	0.062241	-1.101323	0.115671
O7	O	0.007922	-1.410367	0.115679
Zn8	Zn	0.035080	-1.255843	0.152397
Zn9	Zn	0.035095	-1.255858	-0.152339
O10	O	0.220643	-1.248794	0.115673
C11	C	0.065780	-1.061756	0.000024
C12	C	0.076292	-0.943842	0.000021
C13	C	0.208032	-0.765865	0.000019
C14	C	0.198163	-0.876655	0.000018
C15	C	-0.035719	-0.900231	0.000020
C16	C	-0.025850	-0.789441	0.000021
C17	C	0.096029	-0.722261	0.000022
C18	C	0.105897	-0.611469	0.000033
C19	C	-0.127984	-0.635047	0.000025
C20	C	-0.137853	-0.745837	0.000024
C21	C	-0.197649	-1.261843	0.000028
C22	C	-0.338213	-1.258680	0.000021
C23	C	-0.506944	-1.137445	-0.000501
C24	C	-0.360714	-1.140652	0.000019
C25	C	-0.406763	-1.315473	0.132101
C26	C	-0.552819	-1.311445	0.132212
C27	C	-0.553615	-1.313858	-0.130809
C28	C	-0.406765	-1.314945	-0.132556
C29	C	0.267823	-1.249857	0.000027
C30	C	0.408388	-1.253021	0.000025
C31	C	0.004396	-0.449945	0.000033
C32	C	-0.006114	-0.567859	0.000032
N33	N	0.035096	-1.255868	-0.360314
C34	C	-0.078540	-1.342485	-0.419309
C35	C	-0.078902	-1.342242	-0.580477
C36	C	0.018612	-1.144770	-0.581087
C37	C	0.017824	-1.145293	-0.419869
C38	C	0.165605	-1.279322	-0.419757
C39	C	0.164427	-1.281818	-0.580985
N40	N	0.035068	-1.255841	0.360372
H41	H	0.205137	-0.556773	0.000041
C42	C	0.342098	-0.691965	0.000026
N43	N	0.443080	-0.636305	0.000029
H44	H	-0.219185	-0.599534	-0.000083
C45	C	-0.537951	-1.074455	-0.128450
N46	N	-0.561318	-1.027009	-0.224822
C47	C	-0.631527	-1.426116	0.140332
N48	N	-0.690803	-1.512485	0.146456
C49	C	-0.584047	-1.254717	0.265584
N50	N	-0.607561	-1.211983	0.366040
H51	H	-0.312688	-1.095963	-0.094661
C52	C	-0.342768	-1.262158	0.264886
N53	N	-0.294570	-1.221994	0.364897
H54	H	-0.237083	-0.800549	0.000018
H55	H	-0.580533	-1.275663	-0.230918
C56	C	-0.169775	-0.974146	0.000026
N57	N	-0.270747	-1.029821	0.000038
H58	H	-0.075031	-1.123799	-0.621448
H59	H	-0.531527	-1.091006	0.093683
C60	C	0.191128	-1.386500	-0.364865
N61	N	0.210336	-1.467232	-0.323521
H62	H	0.177202	-1.363532	-0.619248
C63	C	-0.296935	-1.079848	0.128143
N64	N	-0.248897	-1.034049	0.224652
H65	H	-0.394916	-1.402149	0.137014
C66	C	-0.068161	-1.453734	-0.633954
N67	N	-0.060079	-1.537717	-0.674227
C68	C	0.321375	-0.924615	0.000023
N69	N	0.414183	-0.960737	0.000029
H70	H	-0.360864	-1.273390	-0.230265
H71	H	0.251986	-1.222904	-0.621254
C72	C	-0.631384	-1.429025	-0.132013
N73	N	-0.689966	-1.515765	-0.132911
C74	C	0.128143	-1.055518	-0.632853
N75	N	0.210641	-0.988294	-0.671850
H76	H	-0.070887	-1.425290	-0.380557
C77	C	-0.388146	-1.431202	-0.143324
N78	N	-0.374129	-1.518772	-0.151421
H79	H	0.250023	-1.216173	-0.381597
C80	C	-0.209011	-1.322359	-0.364568
N81	N	-0.307280	-1.307195	-0.323337
H82	H	-0.176015	-1.327129	-0.619028
C83	C	-0.110246	-1.117611	-0.369043
N84	N	-0.206713	-1.096761	-0.330768
H85	H	0.098091	-1.078842	-0.380841
