data_functionalizedCrystal
_audit_creation_method	'MofGen! by Chris Wilmer'
_symmetry_space_group_name_H-M	'P1'
_symmetry_Int_Tables_number	1
_symmetry_cell_setting	triclinic
loop_
_symmetry_equiv_pos_as_xyz
  x,y,z
_cell_length_a	10.723024
_cell_length_b	17.699083
_cell_length_c	16.776229
_cell_angle_alpha	90.001114
_cell_angle_beta	89.994545
_cell_angle_gamma	96.124558
loop_
_atom_site_label
_atom_site_type_symbol
_atom_site_fract_x
_atom_site_fract_y
_atom_site_fract_z
O1	O	0.157797	-1.005074	-0.066174
O2	O	0.178327	-0.784825	-0.066200
O3	O	-0.013601	-0.900030	-0.066184
O4	O	0.349725	-0.889869	-0.066191
O5	O	-0.013613	-0.900014	0.066393
O6	O	0.178315	-0.784809	0.066376
O7	O	0.157785	-1.005058	0.066402
Zn8	Zn	0.168048	-0.894931	0.087439
Zn9	Zn	0.168064	-0.894952	-0.087237
O10	O	0.349713	-0.889854	0.066386
C11	C	0.177585	-0.756616	0.000085
C12	C	0.175378	-0.672584	0.000075
C13	C	-0.060094	-0.899283	0.000103
C14	C	-0.198610	-0.897070	0.000100
C15	C	0.158527	-1.033268	0.000115
C16	C	0.160734	-1.117300	0.000120
C17	C	-0.274698	-0.961533	0.000107
C18	C	-0.417863	-0.959248	0.000104
C19	C	0.396206	-0.890601	0.000097
C20	C	0.534723	-0.892813	0.000095
N21	N	0.168037	-0.894923	0.206650
C22	C	0.288036	-0.624673	0.000073
C23	C	0.285955	-0.545717	0.000083
C24	C	0.171215	-0.514672	0.000090
C25	C	0.058549	-0.562589	0.000094
C26	C	0.060631	-0.641544	0.000090
C27	C	0.050148	-0.244173	0.000114
C28	C	0.048075	-0.165212	0.000116
C29	C	0.275473	-0.148346	0.000108
C30	C	0.277555	-0.227301	0.000103
C31	C	0.164889	-0.275210	0.000112
C32	C	0.167147	-0.360824	0.000102
C33	C	0.168956	-0.429060	0.000094
N34	N	0.168065	-0.894966	-0.206448
C35	C	0.083086	-0.945952	0.248374
C36	C	0.083085	-0.945956	0.331826
C37	C	0.168042	-0.894934	0.373553
C38	C	0.252997	-0.843900	0.331822
C39	C	0.252991	-0.843893	0.248372
C40	C	0.253021	-0.843928	0.668370
C41	C	0.253023	-0.843941	0.751826
C42	C	0.083115	-0.945991	0.751824
C43	C	0.083109	-0.945983	0.668374
C44	C	0.168059	-0.894947	0.626651
C45	C	0.168058	-0.894942	0.536162
C46	C	0.168050	-0.894942	0.464040
H47	H	-0.233851	-1.018413	0.000118
F48	F	0.343433	-0.789614	0.623971
H49	H	0.322166	-0.802354	0.365801
H50	H	-0.045366	-0.139939	0.000123
F51	F	-0.059275	-0.692534	0.000094
H52	H	-0.034875	-0.537306	0.000111
H53	H	0.377693	-0.506711	0.000081
H54	H	-0.399906	-0.837625	0.000094
H55	H	0.013910	-0.987502	0.214406
H56	H	-0.483241	-1.014433	0.000113
H57	H	0.367210	-0.109328	0.000105
F58	F	0.343404	-0.789579	0.203967
H59	H	-0.239457	-0.840190	0.000089
H60	H	-0.041591	-0.283172	0.000122
F61	F	0.399676	-0.260336	0.000091
F62	F	0.410160	-0.657705	0.000060
F63	F	-0.007331	-1.000265	0.376233
F64	F	-0.007308	-1.000289	0.623969
H65	H	0.013940	-0.987545	0.785804
H66	H	0.322208	-0.802390	0.785798
