data_functionalizedCrystal
_audit_creation_method	'MofGen! by Chris Wilmer'
_symmetry_space_group_name_H-M	'P1'
_symmetry_Int_Tables_number	1
_symmetry_cell_setting	triclinic
loop_
_symmetry_equiv_pos_as_xyz
  x,y,z
_cell_length_a	19.188930
_cell_length_b	19.188905
_cell_length_c	9.616153
_cell_angle_alpha	89.986020
_cell_angle_beta	89.992615
_cell_angle_gamma	83.139668
loop_
_atom_site_label
_atom_site_type_symbol
_atom_site_fract_x
_atom_site_fract_y
_atom_site_fract_z
O1	O	0.087082	0.926159	-0.115890
O2	O	0.098834	0.722845	-0.115845
O3	O	-0.008698	0.830369	-0.115842
O4	O	0.194614	0.818635	-0.115893
O5	O	-0.008696	0.830354	0.115450
O6	O	0.098836	0.722830	0.115447
O7	O	0.087084	0.926144	0.115401
Zn8	Zn	0.092961	0.824485	0.152146
Zn9	Zn	0.092957	0.824504	-0.152590
O10	O	0.194616	0.818620	0.115398
C11	C	0.098458	0.696826	-0.000193
C12	C	0.097324	0.619321	-0.000174
C13	C	0.096778	0.582937	-0.126255
C14	C	0.095705	0.510113	-0.126272
C15	C	0.095164	0.473678	-0.000201
C16	C	0.095714	0.510070	0.125896
C17	C	0.096794	0.582892	0.125909
N18	N	0.053736	0.364652	0.093631
N19	N	0.052709	0.295475	0.093610
C20	C	0.091911	0.254272	-0.000234
N21	N	0.132171	0.284860	-0.094077
N22	N	0.133196	0.354043	-0.094060
C23	C	0.093993	0.394716	-0.000202
C24	C	0.090203	0.138924	-0.126342
C25	C	0.089134	0.066098	-0.126353
C26	C	0.089136	0.066058	0.125818
C27	C	0.090212	0.138881	0.125826
C28	C	0.090742	0.175310	-0.000258
C29	C	-0.034708	0.829982	-0.000192
C30	C	-0.112213	0.828841	-0.000180
C31	C	-0.157142	0.891933	-0.000187
C32	C	-0.229966	0.890861	-0.000209
C33	C	-0.257857	0.826694	-0.000196
C34	C	-0.212917	0.763594	-0.000196
C35	C	-0.140095	0.764668	-0.000188
N36	N	-0.365856	0.777641	0.078528
N37	N	-0.435035	0.776626	0.078523
C38	C	-0.477265	0.823456	-0.000223
N39	N	-0.447705	0.871350	-0.078947
N40	N	-0.378520	0.872368	-0.078937
C41	C	-0.336819	0.825523	-0.000206
C42	C	-0.601159	0.885390	-0.000257
C43	C	-0.673984	0.884315	-0.000287
C44	C	-0.656933	0.757047	-0.000260
C45	C	-0.584110	0.758123	-0.000244
C46	C	-0.556228	0.822296	-0.000235
C47	C	0.220626	0.819007	-0.000255
C48	C	0.298131	0.820148	-0.000276
C49	C	0.087460	0.952163	-0.000254
C50	C	0.088594	1.029668	-0.000281
N51	N	0.092962	0.824477	0.360121
N52	N	0.092950	0.824518	-0.360565
C53	C	0.150296	0.766787	0.580489
C54	C	0.150507	0.766910	0.419322
C55	C	0.108646	0.897282	0.418549
C56	C	0.109051	0.896967	0.579767
C57	C	0.019750	0.810090	0.580055
C58	C	0.020246	0.808408	0.418829
H59	H	0.090642	0.168585	-0.229007
H60	H	-0.679641	0.704801	-0.000256
H61	H	0.204316	0.775849	0.620971
H62	H	-0.710565	0.935694	-0.000301
H63	H	0.141196	0.712785	0.379822
H64	H	0.088694	0.036475	-0.229028
H65	H	-0.547527	0.706747	-0.000230
C66	C	0.137939	0.693437	0.632953
H67	H	0.097698	0.697360	0.691284
H68	H	0.130734	0.664197	0.555853
H69	H	0.177760	0.673504	0.684125
C70	C	0.088544	0.025991	0.264497
H71	H	0.089026	0.058092	0.339591
H72	H	0.047418	0.003035	0.269749
H73	H	0.128836	-0.007872	0.269720
H74	H	0.090651	0.168505	0.228495
H75	H	0.095262	0.480484	-0.228945
C76	C	0.097383	0.622917	0.264604
H77	H	0.096902	0.590791	0.339688
H78	H	0.138506	0.645873	0.269847
H79	H	0.057088	0.656775	0.269850
H80	H	-0.022923	0.852192	0.618173
C81	C	-0.126475	0.962520	-0.000202
H82	H	-0.163668	0.999942	-0.000224
H83	H	-0.098425	0.965583	0.080451
H84	H	-0.098419	0.965587	-0.080872
C85	C	0.179934	0.914918	0.363977
H86	H	0.200229	0.878011	0.305603
H87	H	0.173222	0.957430	0.312439
H88	H	0.210337	0.920178	0.440234
C89	C	0.223895	0.779323	0.367171
H90	H	0.253694	0.784317	0.444516
H91	H	0.242986	0.740487	0.312350
H92	H	0.220282	0.820837	0.312488
H93	H	-0.266555	0.942239	-0.000221
H94	H	-0.024409	0.847738	0.378537
H95	H	-0.235631	0.711349	-0.000188
H96	H	0.068918	0.941255	0.618755
H97	H	0.095275	0.480400	0.228543
H98	H	-0.103513	0.713289	-0.000182
H99	H	-0.578456	0.937644	-0.000256
C100	C	0.097371	0.623004	-0.264941
H101	H	0.096898	0.590900	-0.340033
H102	H	0.057088	0.656871	-0.270172
H103	H	0.138506	0.645952	-0.270186
C104	C	0.181160	0.914179	0.630529
H105	H	0.209933	0.921294	0.552623
H106	H	0.175147	0.955583	0.685511
H107	H	0.202896	0.876265	0.684751
C108	C	-0.000688	0.739934	0.635049
H109	H	0.035236	0.718785	0.694744
H110	H	-0.043508	0.748225	0.685269
H111	H	-0.006382	0.709502	0.559051
H112	H	0.067981	0.941254	0.380197
H113	H	0.008338	0.754853	0.380645
