data_functionalizedCrystal
_audit_creation_method	'MofGen! by Chris Wilmer'
_symmetry_space_group_name_H-M	'P1'
_symmetry_Int_Tables_number	1
_symmetry_cell_setting	triclinic
loop_
_symmetry_equiv_pos_as_xyz
  x,y,z
_cell_length_a	19.288864
_cell_length_b	13.339070
_cell_length_c	17.766277
_cell_angle_alpha	89.997794
_cell_angle_beta	89.976791
_cell_angle_gamma	99.382770
loop_
_atom_site_label
_atom_site_type_symbol
_atom_site_fract_x
_atom_site_fract_y
_atom_site_fract_z
O1	O	0.945924	0.126087	-0.062840
O2	O	1.445924	0.626087	0.437160
O3	O	0.746977	0.143096	-0.062789
O4	O	1.246977	0.643096	0.437211
O5	O	0.823618	-0.012568	-0.062806
O6	O	1.323618	0.487432	0.437194
O7	O	0.869283	0.281751	-0.062822
O8	O	1.369283	0.781751	0.437178
O9	O	0.823598	-0.012576	0.062383
O10	O	1.323598	0.487424	0.562383
O11	O	0.746957	0.143088	0.062400
O12	O	1.246957	0.643088	0.562400
O13	O	0.945903	0.126079	0.062349
O14	O	1.445903	0.626079	0.562349
Cu15	Cu	0.846428	0.134583	0.073805
Cu16	Cu	1.346428	0.634583	0.573805
Cu17	Cu	0.846452	0.134592	-0.074245
Cu18	Cu	1.346452	0.634592	0.425755
O19	O	0.869263	0.281743	0.062366
O20	O	1.369263	0.781743	0.562366
C21	C	0.720984	0.142544	-0.000188
C22	C	1.220984	0.642544	0.499812
C23	C	0.643560	0.140901	-0.000168
C24	C	1.143560	0.640901	0.499832
C25	C	0.815894	-0.050226	-0.000211
C26	C	1.315894	0.449774	0.499789
C27	C	0.792901	-0.162423	-0.000208
C28	C	1.292901	0.337577	0.499792
C29	C	0.616663	0.232238	-0.000185
C30	C	1.116663	0.732238	0.499815
C31	C	0.543915	0.230694	-0.000193
C32	C	1.043915	0.730694	0.499807
C33	C	0.498067	0.137809	-0.000200
C34	C	0.998067	0.637809	0.499800
C35	C	0.524972	0.046461	-0.000178
C36	C	1.024972	0.546461	0.499822
C37	C	0.597719	0.048007	-0.000163
C38	C	1.097719	0.548007	0.499837
C39	C	0.375583	0.064794	-0.044080
C40	C	0.875583	0.564794	0.455920
C41	C	0.302838	0.063252	-0.044100
C42	C	0.802838	0.563252	0.455900
C43	C	0.273691	0.133037	-0.000245
C44	C	0.773691	0.633037	0.499755
C45	C	0.317301	0.204382	0.043621
C46	C	0.817301	0.704382	0.543621
C47	C	0.390047	0.205928	0.043637
C48	C	0.890047	0.705928	0.543637
C49	C	0.419184	0.136123	-0.000216
C50	C	0.919184	0.636123	0.499784
C51	C	0.167913	0.222706	-0.000270
C52	C	0.667913	0.722706	0.499730
C53	C	0.095163	0.221159	-0.000273
C54	C	0.595163	0.721159	0.499727
C55	C	0.076222	0.036923	-0.000266
C56	C	0.576222	0.536923	0.499734
C57	C	0.148970	0.038473	-0.000255
C58	C	0.648970	0.538473	0.499745
C59	C	0.194812	0.131367	-0.000260
C60	C	0.694812	0.631367	0.499740
C61	C	0.971681	-0.528031	-0.000253
C62	C	1.471681	-0.028031	0.499747
C63	C	0.993286	-0.422617	-0.000252
C64	C	1.493286	0.077383	0.499748
C65	C	0.943192	-0.357563	-0.000241
C66	C	1.443192	0.142437	0.499759
C67	C	0.871489	-0.397934	-0.000231
C68	C	1.371489	0.102066	0.499769
C69	C	0.849881	-0.503359	-0.000227
C70	C	1.349881	-0.003359	0.499773
C71	C	0.821392	-0.332891	-0.000215
C72	C	1.321392	0.167109	0.499785
C73	C	0.749689	-0.373262	-0.000205
C74	C	1.249689	0.126738	0.499795
C75	C	0.728085	-0.478677	-0.000201
C76	C	1.228085	0.021323	0.499799
C77	C	0.778180	-0.543730	-0.000212
C78	C	1.278180	-0.043730	0.499788
C79	C	0.842999	-0.227467	-0.000219
C80	C	1.342999	0.272533	0.499781
C81	C	0.721199	-0.202795	-0.000193
C82	C	1.221199	0.297205	0.499807
C83	C	0.699594	-0.308209	-0.000195
C84	C	1.199594	0.191791	0.499805
C85	C	0.971897	0.126630	-0.000254
C86	C	1.471897	0.626630	0.499746
C87	C	1.049320	0.128273	-0.000278
C88	C	1.549320	0.628273	0.499722
C89	C	0.876987	0.319401	-0.000231
C90	C	1.376987	0.819401	0.499769
C91	C	0.899980	0.431598	-0.000238
C92	C	1.399980	0.931598	0.499762
N93	N	0.846416	0.134575	0.177935
N94	N	1.346416	0.634575	0.677935
N95	N	0.846468	0.134591	-0.178375
N96	N	1.346468	0.634591	0.321625
C97	C	0.880375	0.065681	0.217315
C98	C	1.380375	0.565681	0.717315
C99	C	0.880378	0.065676	0.296116
C100	C	1.380378	0.565676	0.796116
C101	C	0.846433	0.134583	0.335536
C102	C	1.346433	0.634583	0.835536
C103	C	0.812467	0.203483	0.296147
C104	C	1.312467	0.703483	0.796147
C105	C	0.812459	0.203479	0.217347
C106	C	1.312459	0.703479	0.717347
C107	C	0.855080	0.226676	0.460370
C108	C	1.355080	0.726676	0.960370
C109	C	0.855093	0.226682	0.539169
C110	C	1.355093	0.726682	1.039169
C111	C	0.846454	0.134595	0.578582
C112	C	1.346454	0.634595	1.078582
C113	C	0.837815	0.042500	0.539187
C114	C	1.337815	0.542500	1.039187
C115	C	0.837807	0.042496	0.460387
C116	C	1.337807	0.542496	0.960387
C117	C	0.846437	0.134595	0.420982
C118	C	1.346437	0.634595	0.920982
C119	C	0.880417	0.065690	0.703408
C120	C	1.380417	0.565690	1.203408
C121	C	0.880415	0.065684	0.782211
C122	C	1.380415	0.565684	1.282211
C123	C	0.812509	0.203500	0.782240
C124	C	1.312509	0.703500	1.282240
C125	C	0.812506	0.203497	0.703438
C126	C	1.312506	0.703497	1.203438
C127	C	0.846463	0.134593	0.664027
C128	C	1.346463	0.634593	1.164027
H129	H	0.653984	0.307880	-0.000191
H130	H	1.153984	0.807880	0.499809
H131	H	0.680408	-0.149828	-0.000180
H132	H	1.180408	0.350172	0.499820
H133	H	0.908031	0.009572	0.328185
H134	H	1.408031	0.509572	0.828185
O135	O	0.775827	0.277795	0.174877
O136	O	1.275827	0.777795	0.674877
H137	H	0.733890	0.235365	0.139006
H138	H	1.233890	0.735365	0.639006
H139	H	0.830779	-0.032485	0.571275
H140	H	1.330779	0.467515	1.071275
H141	H	0.862104	0.301669	0.428287
H142	H	1.362104	0.801669	0.928287
O143	O	0.622260	-0.351763	-0.000179
O144	O	1.122260	0.148237	0.499821
H145	H	0.591051	-0.288825	-0.000178
H146	H	1.091051	0.211175	0.499822
O147	O	0.026777	-0.063261	-0.000264
O148	O	0.526777	0.436739	0.499736
H149	H	0.057706	-0.126516	-0.000245
H150	H	0.557706	0.373484	0.499755
H151	H	0.908065	0.009582	0.671317
H152	H	1.408065	0.509582	1.171317
O153	O	0.775862	0.277820	0.338654
O154	O	1.275862	0.777820	0.838654
H155	H	0.733938	0.235411	0.374590
H156	H	1.233938	0.735411	0.874590
O157	O	0.066153	0.319681	-0.000286
O158	O	0.566153	0.819681	0.499714
H159	H	0.007866	0.303003	-0.000285
H160	H	0.507866	0.803003	0.499715
H161	H	0.522011	0.305074	-0.000205
H162	H	1.022011	0.805074	0.499795
H163	H	0.830771	-0.032491	0.428314
H164	H	1.330771	0.467509	0.928314
H165	H	0.619617	-0.026373	-0.000149
H166	H	1.119617	0.473627	0.499851
O167	O	0.920333	-0.183937	-0.000240
O168	O	1.420333	0.316063	0.499760
H169	H	0.933087	-0.136511	0.050785
H170	H	1.433087	0.363489	0.550785
O171	O	0.917052	-0.008616	0.824690
O172	O	1.417052	0.491384	1.324690
H173	H	0.940671	-0.056515	0.784043
H174	H	1.440671	0.443485	1.284043
O175	O	0.217359	0.322897	-0.000260
O176	O	0.717359	0.822897	0.499740
H177	H	0.250979	0.328023	-0.051282
H178	H	0.750979	0.828023	0.448718
O179	O	0.177984	-0.060044	-0.000239
O180	O	0.677984	0.439956	0.499761
H181	H	0.210709	-0.063743	-0.051253
H182	H	0.710709	0.436257	0.448747
O183	O	0.916992	-0.008647	0.174812
O184	O	1.416992	0.491353	0.674812
H185	H	0.958924	0.033771	0.138889
H186	H	1.458924	0.533771	0.638889
O187	O	0.255803	-0.013704	-0.091400
O188	O	0.755803	0.486296	0.408600
H189	H	0.288288	-0.061987	-0.121878
H190	H	0.788288	0.438013	0.378122
H191	H	0.960787	-0.271731	-0.000240
H192	H	1.460787	0.228269	0.499760
H193	H	0.399307	0.007964	-0.079797
H194	H	0.899307	0.507964	0.420203
H195	H	0.425551	0.264016	0.079357
H196	H	0.925551	0.764016	0.579357
O197	O	0.775896	0.277827	0.824744
O198	O	1.275896	0.777827	1.324744
H199	H	0.781610	0.266261	0.886155
H200	H	1.281610	0.766261	1.386155
H201	H	0.784857	0.259601	0.671374
H202	H	1.284857	0.759601	1.171374
H203	H	0.487638	-0.029167	-0.000194
H204	H	0.987638	0.470833	0.499806
H205	H	0.862132	0.301671	0.571239
H206	H	1.362132	0.801671	1.071239
H207	H	1.012460	-0.581006	-0.000256
H208	H	1.512460	-0.081006	0.499744
O209	O	0.285878	0.279654	0.090933
O210	O	0.785878	0.779654	0.590933
H211	H	0.227966	0.266587	0.083564
H212	H	0.727966	0.766587	0.583564
H213	H	1.051667	-0.389754	-0.000259
H214	H	1.551667	0.110246	0.499741
H215	H	0.760592	-0.629568	-0.000216
H216	H	1.260592	-0.129568	0.499784
H217	H	0.669700	-0.511543	-0.000188
H218	H	1.169700	-0.011543	0.499812
