data_functionalizedCrystal
_audit_creation_method	'MofGen! by Chris Wilmer'
_symmetry_space_group_name_H-M	'P1'
_symmetry_Int_Tables_number	1
_symmetry_cell_setting	triclinic
loop_
_symmetry_equiv_pos_as_xyz
  x,y,z
_cell_length_a	15.944493
_cell_length_b	15.500215
_cell_length_c	17.038272
_cell_angle_alpha	92.987413
_cell_angle_beta	87.293300
_cell_angle_gamma	93.182908
loop_
_atom_site_label
_atom_site_type_symbol
_atom_site_fract_x
_atom_site_fract_y
_atom_site_fract_z
O1	O	1.125453	0.071934	0.103861
O2	O	1.625453	0.571934	0.603861
O3	O	0.881788	0.071938	0.116341
O4	O	1.381788	0.571938	0.616341
O5	O	1.002172	0.071929	-0.003715
O6	O	1.502172	0.571929	0.496285
O7	O	1.005069	0.071943	0.223917
O8	O	1.505069	0.571943	0.723917
O9	O	0.994731	-0.071960	-0.010201
O10	O	1.494731	0.428040	0.489799
O11	O	0.874347	-0.071951	0.109855
O12	O	1.374347	0.428049	0.609855
O13	O	1.118012	-0.071955	0.097375
O14	O	1.618012	0.428045	0.597375
Cu15	Cu	0.995500	-0.085091	0.103022
Cu16	Cu	1.495500	0.414909	0.603022
Cu17	Cu	1.004300	0.085075	0.110693
Cu18	Cu	1.504300	0.585075	0.610693
O19	O	0.997628	-0.071946	0.217431
O20	O	1.497628	0.428054	0.717431
C21	C	0.846736	-0.000006	0.112588
C22	C	1.346736	0.499994	0.612588
C23	C	0.753379	-0.000004	0.111058
C24	C	1.253379	0.499996	0.611058
N25	N	0.989316	-0.204777	0.097627
N26	N	1.489316	0.295223	0.597627
C27	C	0.522665	0.000001	0.181726
C28	C	1.022665	0.500001	0.681726
C29	C	0.465716	-0.070951	0.140420
C30	C	0.965716	0.429049	0.640420
C31	C	0.582455	-0.000006	0.108225
C32	C	1.082455	0.499994	0.608225
C33	C	0.473056	0.070913	0.146797
C34	C	0.973056	0.570913	0.646797
C35	C	0.417351	-0.000004	0.105494
C36	C	0.917351	0.499996	0.605494
C37	C	0.526733	-0.071016	0.066936
C38	C	1.026733	0.428984	0.566936
C39	C	0.534081	0.070912	0.073327
C40	C	1.034081	0.570912	0.573327
C41	C	0.477160	-0.000057	0.031966
C42	C	0.977160	0.499943	0.531966
C43	C	0.677567	-0.000008	0.109801
C44	C	1.177567	0.499992	0.609801
C45	C	0.322240	-0.000008	0.103912
C46	C	0.822240	0.499992	0.603912
C47	C	1.041310	-0.250048	0.143028
C48	C	1.541310	0.249952	0.643028
C49	C	1.036645	-0.340621	0.138943
C50	C	1.536645	0.159379	0.638943
C51	C	0.979980	-0.385922	0.089460
C52	C	1.479980	0.114078	0.589460
C53	C	0.927984	-0.340645	0.044053
C54	C	1.427984	0.159355	0.544053
C55	C	0.932655	-0.250073	0.048135
C56	C	1.432655	0.249927	0.548135
C57	C	0.963164	-0.659391	0.074758
C58	C	1.463164	-0.159391	0.574758
C59	C	0.958496	-0.749969	0.070681
C60	C	1.458496	-0.249969	0.570681
C61	C	1.067158	-0.749939	0.165570
C62	C	1.567158	-0.249939	0.665570
C63	C	1.071820	-0.659366	0.169651
C64	C	1.571820	-0.159366	0.669651
C65	C	1.019827	-0.614096	0.124242
C66	C	1.519827	-0.114096	0.624242
C67	C	0.975208	-0.478503	0.085284
C68	C	1.475208	0.021497	0.585284
C69	C	1.024604	-0.521518	0.128413
C70	C	1.524604	-0.021518	0.628413
C71	C	1.153064	-0.000009	0.101128
C72	C	1.653064	0.499991	0.601128
C73	C	1.246422	-0.000005	0.102657
C74	C	1.746422	0.499995	0.602657
C75	C	0.995817	-0.000015	-0.036087
C76	C	1.495817	0.499985	0.463913
C77	C	0.987958	-0.000015	-0.122880
C78	C	1.487958	0.499985	0.377120
N79	N	1.010490	0.204760	0.116082
N80	N	1.510490	0.704760	0.616082
C81	C	1.060116	-0.000017	-0.172987
C82	C	1.560116	0.499983	0.327013
C83	C	1.052727	-0.000009	-0.254538
C84	C	1.552727	0.499991	0.245462
C85	C	0.973178	-0.000004	-0.285981
C86	C	1.473178	0.499996	0.214019
C87	C	0.901015	0.000001	-0.235867
C88	C	1.401015	0.500001	0.264133
C89	C	0.908405	-0.000002	-0.154318
C90	C	1.408405	0.499998	0.345682
C91	C	0.947069	0.000008	-0.531741
C92	C	1.447069	0.500008	-0.031741
C93	C	0.939684	0.000008	-0.613297
C94	C	1.439684	0.500008	-0.113297
C95	C	1.091398	0.000000	-0.631962
C96	C	1.591398	0.500000	-0.131962
C97	C	1.098781	-0.000007	-0.550410
C98	C	1.598781	0.499993	-0.050410
C99	C	1.026617	0.000002	-0.500304
C100	C	1.526617	0.500002	-0.000304
C101	C	0.965623	0.000002	-0.369339
C102	C	1.465623	0.500002	0.130661
C103	C	1.034173	0.000002	-0.416947
C104	C	1.534173	0.500002	0.083053
C105	C	1.003983	0.000000	0.249802
C106	C	1.503983	0.500000	0.749802
C107	C	1.011843	0.000005	0.336596
C108	C	1.511843	0.500005	0.836596
H109	H	0.435893	-0.130929	0.168756
H110	H	0.935893	0.369071	0.668756
H111	H	0.849646	0.000000	-0.113521
H112	H	1.349646	0.500000	0.386479
H113	H	1.070743	-0.484630	0.168699
H114	H	1.570743	0.015370	0.668699
H115	H	0.890315	-0.213214	0.011164
H116	H	1.390315	0.286786	0.511164
H117	H	0.874902	-0.000003	-0.638894
H118	H	1.374902	0.499997	-0.138894
H119	H	1.098943	0.000018	-0.391342
H120	H	1.598943	0.500018	0.108658
O121	O	1.137457	0.000019	-0.142575
O122	O	1.637457	0.500019	0.357425
C123	C	1.199559	0.000001	-0.204293
C124	C	1.699559	0.500001	0.295707
H125	H	1.173459	0.027241	-0.258458
H126	H	1.673459	0.527241	0.241542
H127	H	1.256906	0.041777	-0.185376
H128	H	1.756906	0.541777	0.314624
H129	H	1.218530	-0.069030	-0.218953
H130	H	1.718530	0.430970	0.281047
H131	H	0.563914	0.130894	0.045014
H132	H	1.063914	0.630894	0.545014
H133	H	1.111486	-0.000012	-0.295332
H134	H	1.611486	0.499988	0.204668
H135	H	0.449437	0.130888	0.180556
H136	H	0.949437	0.630888	0.680556
O137	O	0.453283	0.000056	-0.043606
O138	O	0.953283	0.500056	0.456394
C139	C	0.409416	0.074912	-0.053767
C140	C	0.909416	0.574912	0.446233
H141	H	0.427941	0.127009	-0.007129
H142	H	0.927941	0.627009	0.492871
H143	H	0.425964	0.099613	-0.114734
H144	H	0.925964	0.599613	0.385266
H145	H	0.338874	0.058644	-0.047656
H146	H	0.838874	0.558644	0.452344
O147	O	0.554631	-0.142680	0.026647
O148	O	1.054631	0.357320	0.526647
C149	C	0.485569	-0.192814	-0.002988
C150	C	0.985569	0.307186	0.497012
H151	H	0.430511	-0.149868	-0.008106
H152	H	0.930511	0.350132	0.491894
H153	H	0.503893	-0.222704	-0.063494
H154	H	1.003893	0.277296	0.436506
H155	H	0.466460	-0.246409	0.038671
H156	H	0.966460	0.253591	0.538671
O157	O	0.823688	-0.000108	-0.266320
O158	O	1.323688	0.499892	0.233680
C159	C	0.775498	-0.074637	-0.244091
C160	C	1.275498	0.425363	0.255909
H161	H	0.801149	-0.099485	-0.188657
H162	H	1.301149	0.400515	0.311343
H163	H	0.707225	-0.057873	-0.232003
H164	H	1.207225	0.442127	0.267997
H165	H	0.779151	-0.126820	-0.293638
H166	H	1.279151	0.373180	0.206362
O167	O	0.912568	-0.615558	0.030627
O168	O	1.412568	-0.115558	0.530627
C169	C	0.861568	-0.674966	-0.013933
C170	C	1.361568	-0.174966	0.486067
H171	H	0.855651	-0.739524	0.015527
H172	H	1.355651	-0.239524	0.515527
H173	H	0.796518	-0.648811	-0.017631
H174	H	1.296518	-0.148811	0.482369
H175	H	0.891292	-0.684603	-0.075724
H176	H	1.391292	-0.184603	0.424276
O177	O	0.876884	-0.000033	-0.483189
O178	O	1.376884	0.499967	0.016811
C179	C	0.805092	-0.000014	-0.528431
C180	C	1.305092	0.499986	-0.028431
H181	H	0.820660	-0.027251	-0.590528
H182	H	1.320660	0.472749	-0.090528
H183	H	0.752015	-0.041793	-0.500230
H184	H	1.252015	0.458207	-0.000230
H185	H	0.784548	0.069016	-0.531117
H186	H	1.284548	0.569016	-0.031117
O187	O	1.096427	-0.206181	0.191113
O188	O	1.596427	0.293819	0.691113
C189	C	1.141303	-0.265565	0.230322
C190	C	1.641303	0.234435	0.730322
H191	H	1.140564	-0.330129	0.195046
H192	H	1.640564	0.169871	0.695046
H193	H	1.209050	-0.239387	0.236379
H194	H	1.709050	0.260613	0.736379
H195	H	1.110584	-0.275199	0.291245
H196	H	1.610584	0.224801	0.791245
H197	H	0.929071	-0.515396	0.044995
H198	H	1.429071	-0.015396	0.544995
O199	O	1.176083	0.000142	-0.519904
O200	O	1.676083	0.500142	-0.019904
C201	C	1.224290	0.074649	-0.542162
C202	C	1.724290	0.574649	-0.042162
H203	H	1.180572	0.126742	-0.556762
H204	H	1.680572	0.626742	-0.056762
H205	H	1.264857	0.099656	-0.491638
H206	H	1.764857	0.599656	0.008362
H207	H	1.266422	0.057800	-0.596082
H208	H	1.766422	0.557800	-0.096082
H209	H	1.078985	-0.377477	0.175912
H210	H	1.578985	0.122523	0.675912
H211	H	1.117965	-0.622488	0.209943
H212	H	1.617965	-0.122488	0.709943
O213	O	0.546805	-0.000188	0.257211
O214	O	1.046805	0.499812	0.757211
C215	C	0.591913	-0.074346	0.266820
C216	C	1.091913	0.425654	0.766820
H217	H	0.619243	-0.098720	0.207243
H218	H	1.119243	0.401280	0.707243
H219	H	0.645124	-0.057284	0.308224
H220	H	1.145124	0.442716	0.808224
H221	H	0.547848	-0.127000	0.292763
H222	H	1.047848	0.373000	0.792763
O223	O	1.161409	0.000037	-0.680745
O224	O	1.661409	0.500037	-0.180745
C225	C	1.137832	0.000018	-0.759466
C226	C	1.637832	0.500018	-0.259466
H227	H	1.073040	0.027259	-0.761354
H228	H	1.573040	0.527259	-0.261354
H229	H	1.185629	0.041795	-0.794533
H230	H	1.685629	0.541795	-0.294533
H231	H	1.135764	-0.069012	-0.786169
H232	H	1.635764	0.430988	-0.286169
O233	O	0.888403	0.000113	-0.399974
O234	O	1.388403	0.500113	0.100026
C235	C	0.883439	0.074648	-0.443206
C236	C	1.383439	0.574648	0.056794
H237	H	0.949478	0.099497	-0.462395
H238	H	1.449478	0.599497	0.037605
H239	H	0.845282	0.057888	-0.497364
H240	H	1.345282	0.557888	0.002636
H241	H	0.851542	0.126827	-0.404818
H242	H	1.351542	0.626827	0.095182
H243	H	0.912348	-0.786850	0.030386
H244	H	1.412348	-0.286850	0.530386
O245	O	1.117788	-0.793820	0.209631
O246	O	1.617788	-0.293820	0.709631
C247	C	1.202640	-0.771691	0.188982
C248	C	1.702640	-0.271691	0.688982
H249	H	1.207468	-0.705932	0.161623
H250	H	1.707468	-0.205932	0.661623
H251	H	1.241113	-0.768580	0.243877
H252	H	1.741113	-0.268580	0.743877
H253	H	1.227953	-0.822664	0.144752
H254	H	1.727953	-0.322664	0.644752
H255	H	0.881850	-0.377536	0.003759
H256	H	1.381850	0.122464	0.503759
