data_functionalizedCrystal
_audit_creation_method	'MofGen! by Chris Wilmer'
_symmetry_space_group_name_H-M	'P1'
_symmetry_Int_Tables_number	1
_symmetry_cell_setting	triclinic
loop_
_symmetry_equiv_pos_as_xyz
  x,y,z
_cell_length_a	19.805407
_cell_length_b	29.839131
_cell_length_c	19.805399
_cell_angle_alpha	90.037218
_cell_angle_beta	90.017803
_cell_angle_gamma	90.032545
loop_
_atom_site_label
_atom_site_type_symbol
_atom_site_fract_x
_atom_site_fract_y
_atom_site_fract_z
Zn1	Zn	1.034694	-0.178896	0.382642
Zn2	Zn	1.368027	0.154437	0.715976
Zn3	Zn	1.701361	0.487771	1.049309
Zn4	Zn	1.034592	-0.254024	0.269435
Zn5	Zn	1.367925	0.079310	0.602768
Zn6	Zn	1.701258	0.412643	0.936102
Zn7	Zn	0.921509	-0.178905	0.269470
Zn8	Zn	1.254842	0.154429	0.602804
Zn9	Zn	1.588175	0.487762	0.936137
Zn10	Zn	0.921455	-0.253996	0.382585
Zn11	Zn	1.254788	0.079337	0.715919
Zn12	Zn	1.588122	0.412671	1.049252
O13	O	0.978062	-0.216455	0.326033
O14	O	1.311396	0.116878	0.659367
O15	O	1.644729	0.450212	0.992700
O16	O	1.129397	-0.188870	0.367634
O17	O	1.462730	0.144464	0.700968
O18	O	1.796064	0.477797	1.034301
O19	O	1.019571	-0.244074	0.174723
O20	O	1.352904	0.089259	0.508056
O21	O	1.686237	0.422593	0.841390
O22	O	0.936589	-0.116036	0.284522
O23	O	1.269922	0.217297	0.617855
O24	O	1.603255	0.550630	0.951188
O25	O	1.129322	-0.244065	0.284461
O26	O	1.462655	0.089268	0.617795
O27	O	1.795988	0.422601	0.951128
O28	O	1.019745	-0.116030	0.367668
O29	O	1.353079	0.217303	0.701002
O30	O	1.686412	0.550637	1.034335
O31	O	0.936489	-0.188885	0.174749
O32	O	1.269822	0.144449	0.508082
O33	O	1.603156	0.477782	0.841416
O34	O	0.826785	-0.188858	0.284466
O35	O	1.160118	0.144475	0.617800
O36	O	1.493452	0.477809	0.951133
O37	O	0.936497	-0.244019	0.477309
O38	O	1.269830	0.089315	0.810643
O39	O	1.603163	0.422648	1.143976
O40	O	0.826745	-0.244027	0.367571
O41	O	1.160079	0.089306	0.700905
O42	O	1.493412	0.422639	1.034238
O43	O	1.019693	-0.188843	0.477351
O44	O	1.353026	0.144490	0.810685
O45	O	1.686360	0.477824	1.144018
O46	O	1.019518	-0.316887	0.284406
O47	O	1.352852	0.016446	0.617739
O48	O	1.686185	0.349780	0.951073
O49	O	0.936397	-0.316867	0.367537
O50	O	1.269731	0.016466	0.700870
O51	O	1.603064	0.349800	1.034204
C52	C	0.802206	-0.216441	0.326017
C53	C	1.135540	0.116892	0.659350
C54	C	1.468873	0.450226	0.992683
C55	C	0.726974	-0.216446	0.326026
C56	C	1.060308	0.116888	0.659359
C57	C	1.393641	0.450221	0.992692
C58	C	0.691670	-0.187756	0.369400
C59	C	1.025003	0.145577	0.702733
C60	C	1.358337	0.478911	1.036066
C61	C	0.620982	-0.187758	0.369402
C62	C	0.954315	0.145575	0.702736
C63	C	1.287648	0.478908	1.036069
C64	C	0.585599	-0.216453	0.326034
C65	C	0.918932	0.116880	0.659367
C66	C	1.252265	0.450214	0.992701
C67	C	0.620908	-0.245144	0.282655
C68	C	0.954241	0.088189	0.615989
C69	C	1.287575	0.421523	0.949322
C70	C	0.691595	-0.245139	0.282650
C71	C	1.024928	0.088194	0.615983
C72	C	1.358262	0.421528	0.949316
C73	C	0.335835	-0.245164	0.282676
C74	C	0.669168	0.088169	0.616009
C75	C	1.002501	0.421502	0.949343
C76	C	0.265143	-0.245168	0.282686
C77	C	0.598476	0.088165	0.616020
C78	C	0.931809	0.421499	0.949353
C79	C	0.265221	-0.187784	0.369429
C80	C	0.598555	0.145550	0.702762
C81	C	0.931888	0.478883	1.036095
C82	C	0.335908	-0.187779	0.369423
C83	C	0.669242	0.145555	0.702756
C84	C	1.002575	0.478888	1.036090
C85	C	0.371211	-0.216468	0.326042
C86	C	0.704545	0.116866	0.659376
C87	C	1.037878	0.450199	0.992709
C88	C	0.447860	-0.216464	0.326039
C89	C	0.781193	0.116869	0.659372
C90	C	1.114526	0.450202	0.992706
C91	C	0.508952	-0.216459	0.326040
C92	C	0.842285	0.116874	0.659373
C93	C	1.175618	0.450207	0.992707
C94	C	0.977959	-0.333178	0.325976
C95	C	1.311292	0.000156	0.659310
C96	C	1.644626	0.333489	0.992643
C97	C	0.977977	-0.383112	0.325974
C98	C	1.311310	-0.049779	0.659308
C99	C	1.644644	0.283555	0.992641
C100	C	1.021353	-0.692717	0.369390
C101	C	1.354686	-0.359384	0.702723
C102	C	1.688019	-0.026051	1.036056
C103	C	1.021426	-0.880390	0.369430
C104	C	1.354759	-0.547057	0.702764
C105	C	1.688093	-0.213724	1.036097
O106	O	1.058205	-0.904622	0.406301
O107	O	1.391538	-0.571289	0.739634
O108	O	1.724871	-0.237956	1.072968
N109	N	0.978177	-0.903897	0.326108
N110	N	1.311511	-0.570564	0.659442
N111	N	1.644844	-0.237230	0.992775
C112	C	0.934904	-0.880483	0.282776
C113	C	1.268237	-0.547150	0.616110
C114	C	1.601571	-0.213816	0.949443
O115	O	0.898115	-0.904783	0.245934
O116	O	1.231448	-0.571450	0.579268
O117	O	1.564782	-0.238117	0.912601
C118	C	0.934828	-0.692811	0.282740
C119	C	1.268161	-0.359477	0.616073
C120	C	1.601494	-0.026144	0.949406
C121	C	0.978084	-0.669306	0.326059
C122	C	1.311417	-0.335973	0.659393
C123	C	1.644751	-0.002640	0.992726
C124	C	1.064605	-0.669213	0.412706
C125	C	1.397938	-0.335879	0.746040
C126	C	1.731272	-0.002546	1.079373
C127	C	1.064589	-0.622297	0.412693
C128	C	1.397922	-0.288964	0.746027
C129	C	1.731256	0.044369	1.079360
C130	C	1.021320	-0.598886	0.369363
C131	C	1.354654	-0.265553	0.702696
C132	C	1.687987	0.067780	1.036030
C133	C	0.978068	-0.622391	0.326046
C134	C	1.311401	-0.289057	0.659380
C135	C	1.644734	0.044276	0.992713
C136	C	0.891551	-0.669397	0.239412
C137	C	1.224885	-0.336064	0.572745
C138	C	1.558218	-0.002731	0.906078
C139	C	0.891535	-0.622476	0.239407
C140	C	1.224868	-0.289143	0.572741
C141	C	1.558201	0.044190	0.906074
C142	C	0.934791	-0.598972	0.282727
C143	C	1.268125	-0.265639	0.616061
C144	C	1.601458	0.067695	0.949394
C145	C	0.934783	-0.552064	0.282703
C146	C	1.268116	-0.218731	0.616036
C147	C	1.601450	0.114602	0.949370
N148	N	0.978032	-0.528558	0.326025
N149	N	1.311365	-0.195224	0.659358
N150	N	1.644698	0.138109	0.992692
C151	C	1.021300	-0.551968	0.369355
C152	C	1.354634	-0.218635	0.702688
C153	C	1.687967	0.114698	1.036022
C154	C	0.934948	-0.979013	0.282798
C155	C	1.268281	-0.645680	0.616131
C156	C	1.601615	-0.312347	0.949464
C157	C	0.934968	-1.025931	0.282806
C158	C	1.268301	-0.692598	0.616139
C159	C	1.601634	-0.359265	0.949473
C160	C	1.021489	-1.025835	0.369461
C161	C	1.354823	-0.692502	0.702794
C162	C	1.688156	-0.359169	1.036128
C163	C	1.021472	-0.978917	0.369449
C164	C	1.354806	-0.645583	0.702782
C165	C	1.688139	-0.312250	1.036115
C166	C	0.978197	-0.955507	0.326120
C167	C	1.311530	-0.622173	0.659453
C168	C	1.644863	-0.288840	0.992786
C169	C	1.021264	-0.453443	0.369324
C170	C	1.354597	-0.120109	0.702657
C171	C	1.687930	0.213224	1.035990
C172	C	1.021246	-0.406523	0.369304
C173	C	1.354579	-0.073190	0.702638
C174	C	1.687912	0.260144	1.035971
C175	C	0.934722	-0.406623	0.282652
C176	C	1.268055	-0.073290	0.615986
C177	C	1.601388	0.260044	0.949319
C178	C	0.934742	-0.453539	0.282669
C179	C	1.268075	-0.120205	0.616002
C180	C	1.601409	0.213128	0.949335
C181	C	0.978015	-0.476947	0.326010
C182	C	1.311349	-0.143614	0.659343
C183	C	1.644682	0.189719	0.992676
O184	O	0.898018	-0.527803	0.245857
O185	O	1.231352	-0.194470	0.579190
O186	O	1.564685	0.138863	0.912524
O187	O	1.058073	-0.527660	0.406202
O188	O	1.391407	-0.194327	0.739535
O189	O	1.724740	0.139007	1.072869
C190	C	1.021369	-0.739633	0.369403
C191	C	1.354702	-0.406299	0.702736
C192	C	1.688036	-0.072966	1.036069
C193	C	0.978116	-0.763137	0.326086
C194	C	1.311450	-0.429804	0.659419
C195	C	1.644783	-0.096470	0.992753
C196	C	0.934848	-0.739726	0.282756
C197	C	1.268181	-0.406393	0.616089
C198	C	1.601514	-0.073060	0.949423
C199	C	0.978136	-0.810055	0.326094
C200	C	1.311470	-0.476722	0.659427
C201	C	1.644803	-0.143388	0.992761
C202	C	1.021405	-0.833466	0.369424
C203	C	1.354738	-0.500133	0.702757
C204	C	1.688072	-0.166799	1.036091
C205	C	1.064654	-0.809959	0.412746
C206	C	1.397987	-0.476626	0.746079
C207	C	1.731320	-0.143292	1.079413
C208	C	1.064637	-0.763044	0.412733
C209	C	1.397971	-0.429710	0.746066
C210	C	1.731304	-0.096377	1.079399
C211	C	0.891599	-0.763233	0.239434
C212	C	1.224932	-0.429900	0.572767
C213	C	1.558266	-0.096566	0.906101
C214	C	0.891619	-0.810149	0.239450
C215	C	1.224953	-0.476815	0.572784
C216	C	1.558286	-0.143482	0.906117
C217	C	0.934888	-0.833560	0.282780
C218	C	1.268221	-0.500226	0.616114
C219	C	1.601555	-0.166893	0.949447
C220	C	1.154605	-0.216470	0.326050
C221	C	1.487938	0.116864	0.659383
C222	C	1.821272	0.450197	0.992717
C223	C	1.229837	-0.216476	0.326057
C224	C	1.563170	0.116858	0.659391
C225	C	1.896504	0.450191	0.992724
C226	C	0.978100	-0.216427	0.502576
C227	C	1.311434	0.116907	0.835909
C228	C	1.644767	0.450240	1.169243
C229	C	0.978117	-0.216415	0.577808
C230	C	1.311450	0.116919	0.911141
C231	C	1.644783	0.450252	1.244475
C232	C	0.978184	-0.099277	0.326105
C233	C	1.311518	0.234057	0.659439
C234	C	1.644851	0.567390	0.992772
C235	C	0.978236	-0.049342	0.326136
C236	C	1.311570	0.283991	0.659469
C237	C	1.644903	0.617324	0.992803
C238	C	0.978063	-0.216451	0.150177
C239	C	1.311397	0.116882	0.483511
C240	C	1.644730	0.450216	0.816844
C241	C	0.978178	-0.216336	0.074946
C242	C	1.311512	0.116997	0.408279
C243	C	1.644845	0.450330	0.741612
C244	C	1.021438	-0.187683	0.613175
C245	C	1.354771	0.145650	0.946508
C246	C	1.688104	0.478983	1.279842
C247	C	1.021445	-0.187670	0.683864
C248	C	1.354778	0.145663	1.017197
C249	C	1.688111	0.478996	1.350530
C250	C	0.978133	-0.216391	0.719184
C251	C	1.311467	0.116942	1.052517
C252	C	1.644800	0.450275	1.385850
C253	C	0.934807	-0.245124	0.683812
C254	C	1.268141	0.088209	1.017145
C255	C	1.601474	0.421543	1.350478
C256	C	0.934797	-0.245134	0.613125
C257	C	1.268131	0.088199	0.946458
C258	C	1.601464	0.421532	1.279791
C259	C	0.934845	-0.245082	0.968885
C260	C	1.268179	0.088251	1.302219
C261	C	1.601512	0.421585	1.635552
C262	C	0.934860	-0.245070	1.039577
C263	C	1.268193	0.088263	1.372911
C264	C	1.601527	0.421596	1.706244
C265	C	1.021493	-0.187618	1.039624
C266	C	1.354826	0.145715	1.372958
C267	C	1.688160	0.479049	1.706291
C268	C	1.021483	-0.187628	0.968937
C269	C	1.354816	0.145705	1.302270
C270	C	1.688150	0.479038	1.635604
C271	C	0.978155	-0.216359	0.933571
C272	C	1.311488	0.116974	1.266905
C273	C	1.644821	0.450307	1.600238
C274	C	0.978147	-0.216372	0.856923
C275	C	1.311480	0.116961	1.190256
C276	C	1.644813	0.450294	1.523589
C277	C	0.978144	-0.216381	0.795831
C278	C	1.311477	0.116953	1.129164
C279	C	1.644811	0.450286	1.462498
H280	H	0.236469	-0.164422	0.404749
H281	H	0.569802	0.168911	0.738083
H282	H	0.903136	0.502245	1.071416
Br283	Br	0.572889	-0.284084	0.223792
Br284	Br	0.906223	0.049250	0.557125
Br285	Br	1.239556	0.382583	0.890458
H286	H	1.099887	-0.829028	0.448025
H287	H	1.433220	-0.495695	0.781358
H288	H	1.766554	-0.162362	1.114691
Br289	Br	0.573071	-0.148821	0.428270
Br290	Br	0.906404	0.184512	0.761604
Br291	Br	1.239738	0.517846	1.094937
H292	H	0.364714	-0.164414	0.404740
H293	H	0.698047	0.168919	0.738074
H294	H	1.031380	0.502253	1.071407
H295	H	0.899575	-0.268483	0.940099
H296	H	1.232908	0.064850	1.273432
H297	H	1.566241	0.398184	1.606765
H298	H	0.899514	-0.268526	0.584330
H299	H	1.232847	0.064807	0.917663
H300	H	1.566180	0.398141	1.250996
Br301	Br	0.876077	-0.284052	1.087512
Br302	Br	1.209410	0.049281	1.420845
Br303	Br	1.542744	0.382614	1.754179
H304	H	0.236336	-0.268536	0.247368
H305	H	0.569669	0.064798	0.580701
H306	H	0.903002	0.398131	0.914035
Br307	Br	0.876047	-0.485439	0.223867
Br308	Br	1.209381	-0.152105	0.557200
Br309	Br	1.542714	0.181228	0.890533
Br310	Br	0.832799	-0.590708	0.180601
Br311	Br	1.166132	-0.257375	0.513935
Br312	Br	1.499465	0.075958	0.847268
Br313	Br	1.123346	-0.731152	0.471527
Br314	Br	1.456679	-0.397819	0.804861
Br315	Br	1.790013	-0.064485	1.138194
H316	H	0.720474	-0.164391	0.404717
H317	H	1.053807	0.168943	0.738051
H318	H	1.387140	0.502276	1.071384
Br319	Br	0.876004	-0.374842	0.223849
Br320	Br	1.209337	-0.041509	0.557182
Br321	Br	1.542671	0.291825	0.890516
H322	H	0.364570	-0.268525	0.247353
H323	H	0.697903	0.064808	0.580687
H324	H	1.031237	0.398142	0.914020
Br325	Br	0.876207	-0.947249	0.223991
Br326	Br	1.209541	-0.613916	0.557325
Br327	Br	1.542874	-0.280583	0.890658
H328	H	0.720339	-0.268501	0.247330
H329	H	1.053672	0.064832	0.580663
H330	H	1.387006	0.398166	0.913996
H331	H	0.856327	-0.688527	0.204136
H332	H	1.189661	-0.355193	0.537469
H333	H	1.522994	-0.021860	0.870802
H334	H	0.856363	-0.744176	0.204150
H335	H	1.189697	-0.410842	0.537484
H336	H	1.523030	-0.077509	0.870817
H337	H	1.056473	-0.387387	0.404581
H338	H	1.389806	-0.054054	0.737914
H339	H	1.723139	0.279280	1.071247
H340	H	1.056496	-0.472496	0.404621
H341	H	1.389829	-0.139163	0.737954
H342	H	1.723163	0.194170	1.071287
Br343	Br	1.123293	-0.590406	0.471492
Br344	Br	1.456626	-0.257072	0.804826
Br345	Br	1.789959	0.076261	1.138159
H346	H	1.099839	-0.688269	0.447995
H347	H	1.433173	-0.354936	0.781328
H348	H	1.766506	-0.021602	1.114662
H349	H	1.056695	-0.959782	0.404724
H350	H	1.390028	-0.626449	0.738057
H351	H	1.723362	-0.293115	1.071390
H352	H	0.856396	-0.829282	0.204168
H353	H	1.189729	-0.495949	0.537501
H354	H	1.523062	-0.162615	0.870834
Br355	Br	1.080272	-0.148697	0.731860
Br356	Br	1.413606	0.184637	1.065193
Br357	Br	1.746939	0.517970	1.398526
Br358	Br	1.080211	-1.057616	0.428265
Br359	Br	1.413545	-0.724283	0.761599
Br360	Br	1.746878	-0.390950	1.094932
H361	H	1.056709	-0.164297	0.584423
H362	H	1.390043	0.169037	0.917756
H363	H	1.723376	0.502370	1.251089
Br364	Br	1.080269	-0.148651	0.921006
Br365	Br	1.413602	0.184682	1.254339
Br366	Br	1.746935	0.518016	1.587673
H367	H	0.899751	-1.045065	0.247523
H368	H	1.233085	-0.711731	0.580857
H369	H	1.566418	-0.378398	0.914190
Br370	Br	1.080296	-0.148625	1.087624
Br371	Br	1.413629	0.184709	1.420958
Br372	Br	1.746963	0.518042	1.754291
Br373	Br	0.876022	-0.284100	0.731745
Br374	Br	1.209356	0.049233	1.065079
Br375	Br	1.542689	0.382566	1.398412
