data_functionalizedCrystal
_audit_creation_method	'MofGen! by Chris Wilmer'
_symmetry_space_group_name_H-M	'P1'
_symmetry_Int_Tables_number	1
_symmetry_cell_setting	triclinic
loop_
_symmetry_equiv_pos_as_xyz
  x,y,z
_cell_length_a	15.298068
_cell_length_b	18.101397
_cell_length_c	15.296720
_cell_angle_alpha	80.358625
_cell_angle_beta	91.645182
_cell_angle_gamma	99.679550
loop_
_atom_site_label
_atom_site_type_symbol
_atom_site_fract_x
_atom_site_fract_y
_atom_site_fract_z
Zn1	Zn	1.253390	-0.220303	0.727346
Zn2	Zn	1.753390	0.279697	1.227346
Zn3	Zn	1.278658	-0.319761	0.580869
Zn4	Zn	1.778658	0.180239	1.080869
Zn5	Zn	1.132270	-0.213107	0.555514
Zn6	Zn	1.632270	0.286893	1.055514
Zn7	Zn	1.106889	-0.361277	0.701889
Zn8	Zn	1.606889	0.138723	1.201889
O9	O	1.192802	-0.278612	0.641405
O10	O	1.692802	0.221388	1.141405
O11	O	1.379317	-0.219133	0.729181
O12	O	1.879317	0.280867	1.229181
O13	O	1.280435	-0.285227	0.454946
O14	O	1.780435	0.214773	0.954946
O15	O	1.148384	-0.110428	0.578350
O16	O	1.648384	0.389572	1.078350
O17	O	1.397881	-0.292205	0.621565
O18	O	1.897881	0.207795	1.121565
O19	O	1.237371	-0.115714	0.704595
O20	O	1.737371	0.384286	1.204595
O21	O	1.172885	-0.206869	0.436317
O22	O	1.672885	0.293131	0.936317
O23	O	1.006328	-0.247125	0.553665
O24	O	1.506328	0.252875	1.053665
O25	O	1.105126	-0.362963	0.827826
O26	O	1.605126	0.137037	1.327826
O27	O	0.987681	-0.355985	0.661207
O28	O	1.487681	0.144015	1.161207
O29	O	1.212760	-0.259389	0.846529
O30	O	1.712760	0.240611	1.346529
O31	O	1.255825	-0.428902	0.596881
O32	O	1.755825	0.071098	1.096881
O33	O	1.129627	-0.459404	0.685794
O34	O	1.629627	0.040596	1.185794
C35	C	0.965222	-0.305280	0.601923
C36	C	1.465222	0.194720	1.101923
C37	C	0.867859	-0.316710	0.585053
C38	C	1.367859	0.183290	1.085053
C39	C	0.554688	-0.197106	0.761977
C40	C	1.054688	0.302894	1.261977
C41	C	0.646165	-0.186370	0.777831
C42	C	1.146165	0.313630	1.277831
C43	C	0.701593	-0.218954	0.729638
C44	C	1.201593	0.281046	1.229638
C45	C	0.665535	-0.262276	0.665588
C46	C	1.165535	0.237724	1.165588
C47	C	0.574049	-0.273018	0.649736
C48	C	1.074049	0.226982	1.149736
C49	C	0.720953	-0.294866	0.617398
C50	C	1.220953	0.205134	1.117398
C51	C	0.684895	-0.338188	0.553347
C52	C	1.184895	0.161812	1.053347
C53	C	0.593418	-0.348928	0.537498
C54	C	1.093418	0.151072	1.037498
C55	C	0.537990	-0.316344	0.585691
C56	C	1.037990	0.183656	1.085691
C57	C	0.812440	-0.284124	0.633249
C58	C	1.312440	0.215876	1.133249
C59	C	0.831800	-0.360036	0.521008
C60	C	1.331800	0.139964	1.021008
C61	C	0.740323	-0.370772	0.505154
C62	C	1.240323	0.129228	1.005154
C63	C	1.192734	-0.471024	0.641349
C64	C	1.692734	0.028976	1.141349
C65	C	1.192780	-0.553335	0.641369
C66	C	1.692780	-0.053335	1.141369
C67	C	1.192878	-0.852426	0.641468
C68	C	1.692878	-0.352426	1.141468
C69	C	1.272121	-0.801871	0.585312
C70	C	1.772121	-0.301871	1.085312
C71	C	1.272324	-0.716254	0.585529
C72	C	1.772324	-0.216254	1.085529
C73	C	1.192830	-0.704043	0.641418
C74	C	1.692830	-0.204043	1.141418
C75	C	1.201867	-0.747495	0.738070
C76	C	1.701867	-0.247495	1.238070
C77	C	1.202453	-0.833017	0.737791
C78	C	1.702453	-0.333017	1.237791
C79	C	1.104280	-0.827863	0.601739
C80	C	1.604280	-0.327863	1.101739
C81	C	1.105095	-0.741816	0.599758
C82	C	1.605095	-0.241816	1.099758
C83	C	1.192800	-0.620184	0.641395
C84	C	1.692800	-0.120184	1.141395
C85	C	1.192909	-0.936285	0.641497
C86	C	1.692909	-0.436285	1.141497
C87	C	1.421270	-0.251841	0.681041
C88	C	1.921270	0.248159	1.181041
C89	C	1.518630	-0.240432	0.697932
C90	C	2.018630	0.259568	1.197932
C91	C	1.153294	-0.316610	0.869845
C92	C	1.653294	0.183390	1.369845
C93	C	1.136458	-0.332802	0.967192
C94	C	1.636458	0.167198	1.467192
C95	C	1.192890	-0.085449	0.641484
C96	C	1.692890	0.414551	1.141484
C97	C	1.192928	-0.003134	0.641517
C98	C	1.692928	0.496866	1.141517
C99	C	1.232206	-0.240703	0.413862
C100	C	1.732206	0.259297	0.913862
C101	C	1.249212	-0.224282	0.316544
C102	C	1.749212	0.275718	0.816544
C103	C	1.313164	-0.162749	1.280551
C104	C	1.813164	0.337251	1.780551
C105	C	1.328987	-0.147537	1.189089
C106	C	1.828987	0.352463	1.689089
C107	C	1.280856	-0.193851	1.133611
C108	C	1.780856	0.306149	1.633611
C109	C	1.216899	-0.255382	1.169603
C110	C	1.716899	0.244618	1.669603
C111	C	1.201078	-0.270600	1.261075
C112	C	1.701078	0.229400	1.761075
C113	C	1.168771	-0.301702	1.114134
C114	C	1.668771	0.198298	1.614134
C115	C	1.104813	-0.363233	1.150126
C116	C	1.604813	0.136767	1.650126
C117	C	1.088995	-0.378447	1.241589
C118	C	1.588995	0.121553	1.741589
C119	C	1.137127	-0.332133	1.297068
C120	C	1.637127	0.167867	1.797068
C121	C	1.184591	-0.286484	1.022662
C122	C	1.684591	0.213516	1.522662
C123	C	1.072506	-0.394335	1.003186
C124	C	1.572506	0.105665	1.503186
C125	C	1.056682	-0.409547	1.094647
C126	C	1.556682	0.090453	1.594647
H127	H	1.268523	-0.685725	0.514365
H128	H	1.768523	-0.185725	1.014365
H129	H	0.776077	-0.210207	0.742548
H130	H	1.276077	0.289793	1.242548
Br131	Br	1.002214	-0.461967	1.290437
Br132	Br	1.502214	0.038033	1.790437
Br133	Br	1.378488	-0.099909	1.355847
Br134	Br	1.878488	0.400091	1.855847
Br135	Br	1.307650	-0.704216	0.791401
Br136	Br	1.807650	-0.204216	1.291401
Br137	Br	0.695094	-0.127585	0.864759
Br138	Br	1.195094	0.372415	1.364759
Br139	Br	0.691377	-0.429563	0.418229
Br140	Br	1.191377	0.070437	0.918229
Br141	Br	0.479461	-0.152905	0.827388
Br142	Br	0.979461	0.347095	1.327388
Br143	Br	1.415785	-0.064036	1.140249
Br144	Br	1.915785	0.435964	1.640249
Br145	Br	1.381477	-0.828597	0.630831
Br146	Br	1.881477	-0.328597	1.130831
Br147	Br	0.907015	-0.404266	0.455605
Br148	Br	1.407015	0.095734	0.955605
H149	H	1.092971	-0.841173	0.531645
H150	H	1.592971	-0.341173	1.031645
Br151	Br	0.544484	-0.407721	0.450571
Br152	Br	1.044484	0.092279	0.950571
Br153	Br	0.969885	-0.493050	1.143505
Br154	Br	1.469885	0.006950	1.643505
Br155	Br	0.413838	-0.330908	0.564171
Br156	Br	0.913838	0.169092	1.064171
H157	H	1.266738	-0.848329	0.769578
H158	H	1.766738	-0.348329	1.269578
H159	H	1.268544	-0.812890	0.513977
H160	H	1.768544	-0.312890	1.013977
H161	H	1.146391	-0.867968	0.781943
H162	H	1.646391	-0.367968	1.281943
Br163	Br	1.115657	-0.352779	1.421201
Br164	Br	1.615657	0.147221	1.921201
H165	H	1.338277	-0.690267	0.613086
H166	H	1.838277	-0.190267	1.113086
H167	H	1.033315	-0.432049	0.958015
H168	H	1.533315	0.067951	1.458015
H169	H	1.145221	-0.741372	0.781726
H170	H	1.645221	-0.241372	1.281726
Br171	Br	1.003547	-0.729249	0.660787
Br172	Br	1.503547	-0.229249	1.160787
Br173	Br	0.861364	-0.225332	0.720173
Br174	Br	1.361364	0.274668	1.220173
H175	H	1.097991	-0.712453	0.528551
H176	H	1.597991	-0.212453	1.028551
H177	H	1.045435	-0.862258	0.642444
H178	H	1.545435	-0.362258	1.142444
Br179	Br	1.271389	-0.202982	0.973827
Br180	Br	1.771389	0.297018	1.473827
H181	H	1.293744	-0.181461	1.059139
H182	H	1.793744	0.318539	1.559139
