data_functionalizedCrystal
_audit_creation_method	'MofGen! by Chris Wilmer'
_symmetry_space_group_name_H-M	'P1'
_symmetry_Int_Tables_number	1
_symmetry_cell_setting	triclinic
loop_
_symmetry_equiv_pos_as_xyz
  x,y,z
_cell_length_a	21.395362
_cell_length_b	12.594516
_cell_length_c	12.594509
_cell_angle_alpha	90.026199
_cell_angle_beta	90.040404
_cell_angle_gamma	90.031933
loop_
_atom_site_label
_atom_site_type_symbol
_atom_site_fract_x
_atom_site_fract_y
_atom_site_fract_z
Zn1	Zn	0.957901	-0.423259	0.602417
Zn2	Zn	0.957837	-0.601269	0.424445
Zn3	Zn	0.853123	-0.423354	0.424387
Zn4	Zn	0.853112	-0.601245	0.602316
O5	O	0.905493	-0.512282	0.513391
O6	O	1.045571	-0.446842	0.578876
O7	O	0.943924	-0.577718	0.275491
O8	O	0.867053	-0.274396	0.448021
O9	O	1.045524	-0.577626	0.448120
O10	O	0.944034	-0.274326	0.578819
O11	O	0.866991	-0.447005	0.275448
O12	O	0.765444	-0.446982	0.447922
O13	O	0.867035	-0.577585	0.751275
O14	O	0.765436	-0.577677	0.578646
O15	O	0.944023	-0.446819	0.751350
O16	O	0.943914	-0.750212	0.448022
O17	O	0.866973	-0.750194	0.578703
C18	C	0.742706	-0.512338	0.513268
C19	C	0.673065	-0.512388	0.513240
C20	C	0.640364	-0.580531	0.581206
C21	C	0.574928	-0.580505	0.581253
C22	C	0.542196	-0.512347	0.513316
C23	C	0.574905	-0.444190	0.445345
C24	C	0.640339	-0.444211	0.445307
C25	C	0.438474	-0.503797	0.417494
C26	C	0.373041	-0.503784	0.417531
C27	C	0.340376	-0.512277	0.513433
C28	C	0.373151	-0.520806	0.609303
C29	C	0.438585	-0.520827	0.609265
C30	C	0.471244	-0.512316	0.513350
C31	C	0.236722	-0.580396	0.581456
C32	C	0.171286	-0.580362	0.581506
C33	C	0.171263	-0.444053	0.445588
C34	C	0.236699	-0.444081	0.445548
C35	C	0.269424	-0.512258	0.513481
C36	C	0.905452	-0.788823	0.513381
C37	C	0.905492	-0.907128	0.513412
C38	C	0.863640	-0.976410	0.584439
C39	C	0.848374	-1.047283	0.487307
C40	C	0.920815	-1.047055	0.610560
C41	C	0.890196	-0.976443	0.416228
C42	C	0.962664	-0.976208	0.539547
C43	C	0.947420	-1.047048	0.442348
C44	C	1.068917	-0.512226	0.513516
C45	C	1.138558	-0.512202	0.513569
C46	C	0.905535	-0.512189	0.791012
C47	C	0.905553	-0.512149	0.909318
C48	C	0.905552	-0.234661	0.513425
C49	C	0.905577	-0.116355	0.513439
C50	C	0.905488	-0.512298	0.236850
C51	C	0.905591	-0.512038	0.118545
C52	C	0.863693	-0.583232	0.978530
C53	C	0.920863	-0.609211	1.049354
C54	C	0.848427	-0.486105	1.049293
C55	C	0.962754	-0.538179	0.978583
C56	C	0.890279	-0.415028	0.978516
C57	C	0.947489	-0.440970	1.049308
H58	H	0.548298	-0.635995	0.636603
H59	H	0.982849	-1.077870	0.382225
C60	C	0.873089	-0.305516	0.937132
C61	C	0.916404	-0.230984	0.974571
C62	C	0.900576	-0.130089	0.936479
H63	H	0.873590	-0.306051	0.861718
H64	H	0.832468	-0.287088	0.961330
H65	H	0.957015	-0.249407	0.950368
H66	H	0.915910	-0.230414	1.049981
H67	H	0.859956	-0.111661	0.960677
H68	H	0.901078	-0.130636	0.861066
H69	H	0.929960	-0.079505	0.961884
H70	H	0.933803	-0.691296	1.080469
H71	H	0.828184	-0.945393	0.644417
H72	H	0.828320	-0.643438	0.947455
C73	C	0.474058	-0.530029	0.713460
C74	C	0.431453	-0.537437	0.797465
C75	C	0.464108	-0.545897	0.893466
H76	H	0.499560	-0.591727	0.712113
H77	H	0.499602	-0.469027	0.722955
H78	H	0.405920	-0.598434	0.787973
H79	H	0.405950	-0.475747	0.798847
H80	H	0.489651	-0.484894	0.902961
H81	H	0.489609	-0.607595	0.892108
H82	H	0.435205	-0.550914	0.950476
H83	H	0.800065	-1.078525	0.465224
C84	C	0.994705	-0.360756	1.090696
C85	C	0.993855	-0.360914	1.201855
C86	C	1.037334	-0.287025	1.240018
H87	H	1.035294	-0.379286	1.066468
H88	H	0.984176	-0.291987	1.065420
H89	H	1.004388	-0.429668	1.227120
H90	H	0.953276	-0.342373	1.226112
H91	H	1.026806	-0.218256	1.214742
H92	H	1.077921	-0.305561	1.215782
H93	H	1.036760	-0.287115	1.315442
H94	H	0.800101	-0.464124	1.080355
H95	H	0.346557	-0.527720	0.687396
C96	C	1.027042	-0.934601	0.569268
C97	C	1.042800	-0.970291	0.671090
C98	C	1.102097	-0.931969	0.698523
H99	H	1.056971	-0.959813	0.519631
H100	H	1.026643	-0.859174	0.568462
H101	H	1.043204	-1.045701	0.671888
H102	H	1.012887	-0.945081	0.720750
H103	H	1.101698	-0.856543	0.697717
H104	H	1.132020	-0.957184	0.648879
H105	H	1.112794	-0.956171	0.767614
H106	H	0.667005	-0.636045	0.636524
H107	H	0.933741	-1.078072	0.692707
C108	C	0.337543	-0.494686	0.313351
C109	C	0.353401	-0.580035	0.247407
C110	C	0.320723	-0.571682	0.151419
H111	H	0.293885	-0.495937	0.326944
H112	H	0.348288	-0.429874	0.279366
H113	H	0.342651	-0.644830	0.281385
H114	H	0.397054	-0.578800	0.233784
H115	H	0.331468	-0.506871	0.117434
H116	H	0.277066	-0.572932	0.165023
H117	H	0.331482	-0.629584	0.106661
H118	H	0.263369	-0.635904	0.636777
C119	C	1.027159	-0.567658	0.937143
C120	C	1.026376	-0.567444	0.825981
C121	C	1.085690	-0.594613	0.787767
H122	H	1.056986	-0.517485	0.961829
H123	H	1.038095	-0.636423	0.961928
H124	H	1.015448	-0.498689	0.801205
H125	H	0.996562	-0.617618	0.801266
H126	H	1.096626	-0.663377	0.812553
H127	H	1.115512	-0.544437	0.812461
H128	H	1.085165	-0.594481	0.712341
H129	H	0.144662	-0.635851	0.636858
H130	H	0.144614	-0.388552	0.390277
H131	H	0.666964	-0.388717	0.389961
C132	C	0.872761	-0.935206	0.306742
C133	C	0.818522	-0.873504	0.314150
C134	C	0.802436	-0.835510	0.213315
H135	H	0.905941	-0.893050	0.279658
H136	H	0.865449	-0.993452	0.260400
H137	H	0.825837	-0.815266	0.360475
H138	H	0.785331	-0.915637	0.341215
H139	H	0.795124	-0.893756	0.166973
H140	H	0.835620	-0.793358	0.186239
H141	H	0.765631	-0.793649	0.218326
C142	C	0.272173	-0.370235	0.371567
C143	C	0.256192	-0.393298	0.266226
C144	C	0.288864	-0.325296	0.198044
H145	H	0.261517	-0.298697	0.387128
H146	H	0.315836	-0.380016	0.381201
H147	H	0.212539	-0.383507	0.256597
H148	H	0.266850	-0.464823	0.250631
H149	H	0.332528	-0.335077	0.207677
H150	H	0.278206	-0.253762	0.213615
H151	H	0.278031	-0.340941	0.126562
C152	C	0.539452	-0.370252	0.371406
C153	C	0.555310	-0.393287	0.266051
C154	C	0.522672	-0.325181	0.197910
H155	H	0.495788	-0.379931	0.381013
H156	H	0.550229	-0.298741	0.387035
H157	H	0.544529	-0.464780	0.250428
H158	H	0.598969	-0.383602	0.256411
H159	H	0.533449	-0.253671	0.213539
H160	H	0.479009	-0.334866	0.207526
H161	H	0.533431	-0.340795	0.126420
C162	C	0.474018	-0.494751	0.313429
C163	C	0.511548	-0.584754	0.299757
C164	C	0.544307	-0.576451	0.203918
H165	H	0.445203	-0.489724	0.256243
H166	H	0.499609	-0.433095	0.314887
H167	H	0.485959	-0.646393	0.298290
H168	H	0.540375	-0.589798	0.356920
H169	H	0.569898	-0.514796	0.205376
H170	H	0.515487	-0.571423	0.146740
H171	H	0.569779	-0.637511	0.194634
