data_functionalizedCrystal
_audit_creation_method	'MofGen! by Chris Wilmer'
_symmetry_space_group_name_H-M	'P1'
_symmetry_Int_Tables_number	1
_symmetry_cell_setting	triclinic
loop_
_symmetry_equiv_pos_as_xyz
  x,y,z
_cell_length_a	17.038272
_cell_length_b	17.038272
_cell_length_c	15.186229
_cell_angle_alpha	90.000406
_cell_angle_beta	90.000221
_cell_angle_gamma	91.111556
loop_
_atom_site_label
_atom_site_type_symbol
_atom_site_fract_x
_atom_site_fract_y
_atom_site_fract_z
O1	O	1.048756	0.170532	0.073119
O2	O	1.548756	0.670532	0.573119
O3	O	0.820945	0.167824	0.073145
O4	O	1.320945	0.667824	0.573145
O5	O	0.933496	0.055272	0.073125
O6	O	1.433496	0.555272	0.573125
O7	O	0.936204	0.283083	0.073139
O8	O	1.436204	0.783083	0.573139
O9	O	0.933483	0.055278	-0.073332
O10	O	1.433483	0.555278	0.426668
O11	O	0.820931	0.167830	-0.073312
O12	O	1.320931	0.667830	0.426688
O13	O	1.048742	0.170538	-0.073338
O14	O	1.548742	0.670538	0.426662
Zn15	Zn	0.934834	0.169185	-0.096578
Zn16	Zn	1.434834	0.669185	0.403422
Zn17	Zn	0.934852	0.169177	0.096385
Zn18	Zn	1.434852	0.669177	0.596385
O19	O	0.936191	0.283089	-0.073318
O20	O	1.436191	0.783089	0.426682
C21	C	0.791645	0.165364	-0.000080
C22	C	1.291645	0.665364	0.499920
C23	C	0.704361	0.158016	-0.000071
C24	C	1.204361	0.658016	0.499929
C25	C	0.658752	0.225479	-0.000067
C26	C	1.158752	0.725479	0.499933
C27	C	0.576740	0.218570	-0.000080
C28	C	1.076740	0.718570	0.499920
C29	C	0.540339	0.144197	-0.000089
C30	C	1.040339	0.644197	0.499911
C31	C	0.585954	0.076728	-0.000095
C32	C	1.085954	0.576728	0.499905
C33	C	0.667965	0.083638	-0.000089
C34	C	1.167965	0.583638	0.499911
C35	C	0.292951	0.119787	-0.000114
C36	C	0.792951	0.619787	0.499886
C37	C	0.210935	0.112882	-0.000118
C38	C	0.710935	0.612882	0.499882
C39	C	0.201726	0.254725	-0.000104
C40	C	0.701726	0.754725	0.499896
C41	C	0.283739	0.261628	-0.000093
C42	C	0.783739	0.761628	0.499907
C43	C	0.329347	0.194159	-0.000103
C44	C	0.829347	0.694159	0.499897
C45	C	0.456510	0.137133	-0.000099
C46	C	0.956510	0.637133	0.499901
C47	C	0.413174	0.201224	-0.000099
C48	C	0.913174	0.701224	0.499901
C49	C	0.931027	0.025982	-0.000103
C50	C	1.431027	0.525982	0.499897
C51	C	0.923679	-0.061301	-0.000102
C52	C	1.423679	0.438699	0.499898
C53	C	0.991142	-0.106911	-0.000110
C54	C	1.491142	0.393089	0.499890
C55	C	0.984233	-0.188923	-0.000101
C56	C	1.484233	0.311077	0.499899
C57	C	0.909860	-0.225324	-0.000090
C58	C	1.409860	0.274676	0.499910
C59	C	0.842391	-0.179708	-0.000079
C60	C	1.342391	0.320292	0.499921
C61	C	0.849301	-0.097698	-0.000081
C62	C	1.349301	0.402302	0.499919
C63	C	0.885449	-0.472712	-0.000075
C64	C	1.385449	0.027288	0.499925
C65	C	0.878545	-0.554728	-0.000075
C66	C	1.378545	-0.054728	0.499925
C67	C	1.020387	-0.563937	-0.000096
C68	C	1.520387	-0.063937	0.499904
C69	C	1.027291	-0.481924	-0.000104
C70	C	1.527291	0.018076	0.499896
C71	C	0.959822	-0.436316	-0.000088
C72	C	1.459822	0.063684	0.499912
C73	C	0.902796	-0.309153	-0.000083
C74	C	1.402796	0.190847	0.499917
C75	C	0.966886	-0.352488	-0.000088
C76	C	1.466886	0.147512	0.499912
C77	C	1.078042	0.172997	-0.000111
C78	C	1.578042	0.672997	0.499889
C79	C	1.165326	0.180346	-0.000115
C80	C	1.665326	0.680346	0.499885
C81	C	0.938660	0.312379	-0.000088
C82	C	1.438660	0.812379	0.499912
C83	C	0.946008	0.399663	-0.000083
C84	C	1.446008	0.899663	0.499917
N85	N	0.934828	0.169190	-0.228271
N86	N	1.434828	0.669190	0.271729
C87	C	0.985639	0.220005	-0.453997
C88	C	1.485639	0.720005	0.046003
C89	C	0.985647	0.220000	-0.546186
C90	C	1.485647	0.720000	-0.046186
C91	C	0.884051	0.118345	-0.546190
C92	C	1.384051	0.618345	-0.046190
C93	C	0.884048	0.118347	-0.454002
C94	C	1.384048	0.618347	0.045998
C95	C	0.934840	0.169181	-0.407908
C96	C	1.434840	0.669181	0.092092
C97	C	0.934852	0.169174	-0.592285
C98	C	1.434852	0.669174	-0.092285
C99	C	0.934861	0.169168	-0.692241
C100	C	1.434861	0.669168	-0.192241
C101	C	0.934833	0.169186	-0.307945
C102	C	1.434833	0.669186	0.192055
N103	N	0.934865	0.169166	0.228078
N104	N	1.434865	0.669166	0.728078
H105	H	0.164583	0.309653	-0.000097
H106	H	0.664583	0.809653	0.499903
F107	F	0.829977	0.064251	-0.404948
F108	F	1.329977	0.564251	0.095052
H109	H	1.026998	0.261397	-0.416469
H110	H	1.526998	0.761397	0.083531
H111	H	1.051705	-0.077279	-0.000125
H112	H	1.551705	0.422721	0.499875
H113	H	0.830511	-0.435587	-0.000062
H114	H	1.330511	0.064413	0.499938
H115	H	1.087853	-0.452293	-0.000113
H116	H	1.587853	0.047707	0.499887
F117	F	0.697485	0.304638	-0.000051
F118	F	1.197485	0.804638	0.499949
H119	H	0.313370	0.322190	-0.000075
H120	H	0.813370	0.822190	0.499925
F121	F	0.172196	0.033720	-0.000144
F122	F	0.672196	0.533720	0.499856
H123	H	1.027441	-0.322847	-0.000078
H124	H	1.527441	0.177153	0.499922
F125	F	0.823644	-0.347901	-0.000067
F126	F	1.323644	0.152099	0.499933
H127	H	0.781835	-0.209353	-0.000064
H128	H	1.281835	0.290647	0.499936
H129	H	0.539608	0.273507	-0.000076
H130	H	1.039608	0.773507	0.499924
F131	F	0.829993	0.064251	-0.595255
F132	F	1.329993	0.564251	-0.095255
F133	F	0.777497	-0.049157	-0.000070
F134	F	1.277497	0.450843	0.499930
H135	H	1.075316	-0.601079	-0.000107
H136	H	1.575316	-0.101079	0.499893
F137	F	0.341480	0.047979	-0.000126
F138	F	0.841480	0.547979	0.499874
H139	H	1.027014	0.261385	-0.583708
H140	H	1.527014	0.761385	-0.083708
H141	H	0.817978	-0.584363	-0.000080
H142	H	1.317978	-0.084363	0.499920
F143	F	0.547212	-0.002426	-0.000111
F144	F	1.047212	0.497574	0.499889
F145	F	0.451917	0.280375	-0.000093
F146	F	0.951917	0.780375	0.499907
F147	F	0.716505	0.011834	-0.000096
F148	F	1.216505	0.511834	0.499904
H149	H	0.426863	0.076578	-0.000132
H150	H	0.926863	0.576578	0.499868
H151	H	1.039170	-0.226054	-0.000110
H152	H	1.539170	0.273946	0.499890
