data_functionalizedCrystal
_audit_creation_method	'MofGen! by Chris Wilmer'
_symmetry_space_group_name_H-M	'P1'
_symmetry_Int_Tables_number	1
_symmetry_cell_setting	triclinic
loop_
_symmetry_equiv_pos_as_xyz
  x,y,z
_cell_length_a	10.686220
_cell_length_b	13.897448
_cell_length_c	10.686551
_cell_angle_alpha	94.407384
_cell_angle_beta	89.691918
_cell_angle_gamma	94.399460
loop_
_atom_site_label
_atom_site_type_symbol
_atom_site_fract_x
_atom_site_fract_y
_atom_site_fract_z
Zn1	Zn	1.972272	-0.235165	0.562377
Zn2	Zn	1.956032	-0.409754	0.352612
Zn3	Zn	1.746389	-0.259840	0.368693
Zn4	Zn	1.762462	-0.407799	0.578389
O5	O	1.859289	-0.328139	0.465518
O6	O	2.145660	-0.248816	0.521120
O7	O	1.914699	-0.401012	0.179199
O8	O	1.776423	-0.121579	0.394415
O9	O	2.133728	-0.377086	0.367006
O10	O	1.942379	-0.103450	0.536713
O11	O	1.760675	-0.290871	0.191014
O12	O	1.572979	-0.288976	0.409942
O13	O	1.803817	-0.373754	0.751811
O14	O	1.584787	-0.397681	0.564004
O15	O	1.957964	-0.246920	0.740047
O16	O	1.930284	-0.544482	0.382532
O17	O	1.788069	-0.543046	0.548410
C18	C	1.533367	-0.345794	0.490456
C19	C	1.393938	-0.353368	0.501155
C20	C	1.859194	-0.578761	0.465489
C21	C	1.859272	-0.685969	0.465509
C22	C	1.859410	-0.882252	0.465578
C23	C	1.859330	-0.773026	0.465544
C24	C	2.186483	-0.310416	0.440483
C25	C	2.325914	-0.302864	0.429814
C26	C	1.884495	-0.307367	0.792719
C27	C	1.895236	-0.298514	0.932152
C28	C	1.859420	-0.076535	0.465572
C29	C	1.859475	0.030683	0.465595
C30	C	1.834253	-0.348758	0.139584
C31	C	1.823755	-0.357325	0.000133
H32	H	1.374343	-0.253831	0.360550
O33	O	1.335971	-0.411796	0.583764
C34	C	1.204992	-0.406626	0.576399
H35	H	1.184071	-0.335690	0.536829
H36	H	1.162629	-0.470011	0.512287
C37	C	1.173098	-0.498304	0.757013
C38	C	1.147403	-0.411175	0.708423
H39	H	1.137572	-0.501114	0.838450
H40	H	1.261341	-0.501791	0.761973
H41	H	1.137795	-0.551115	0.703575
H42	H	1.182719	-0.358366	0.761852
H43	H	1.059164	-0.407679	0.703475
O44	O	1.741104	-0.425520	0.942163
C45	C	1.806730	-0.488723	0.860915
H46	H	1.900329	-0.450773	0.834152
H47	H	1.824312	-0.556299	0.910266
C48	C	1.613266	-0.564349	0.774520
C49	C	1.728222	-0.517736	0.741641
H50	H	1.564838	-0.582251	0.700949
H51	H	1.569052	-0.521772	0.829262
H52	H	1.627935	-0.620657	0.815648
H53	H	1.713552	-0.461424	0.700528
H54	H	1.772432	-0.560305	0.686890
O55	O	1.978232	-0.230458	0.989904
C56	C	2.100812	-0.246753	0.948379
H57	H	2.104360	-0.325736	0.911775
H58	H	2.127842	-0.198024	0.869920
C59	C	2.189050	-0.126673	1.103407
C60	C	2.193410	-0.223685	1.058460
H61	H	2.246171	-0.112440	1.171307
H62	H	2.106465	-0.115692	1.131381
H63	H	2.211572	-0.086078	1.038014
H64	H	2.170873	-0.264278	1.123848
H65	H	2.275994	-0.234672	1.030499
