data_functionalizedCrystal
_audit_creation_method	'MofGen! by Chris Wilmer'
_symmetry_space_group_name_H-M	'P1'
_symmetry_Int_Tables_number	1
_symmetry_cell_setting	triclinic
loop_
_symmetry_equiv_pos_as_xyz
  x,y,z
_cell_length_a	19.188905
_cell_length_b	19.188930
_cell_length_c	16.176319
_cell_angle_alpha	89.988074
_cell_angle_beta	89.985456
_cell_angle_gamma	83.139668
loop_
_atom_site_label
_atom_site_type_symbol
_atom_site_fract_x
_atom_site_fract_y
_atom_site_fract_z
O1	O	0.926159	0.087086	-0.068892
O2	O	1.259492	0.420419	0.264441
O3	O	1.592825	0.753753	0.597775
O4	O	0.722845	0.098839	-0.068865
O5	O	1.056178	0.432172	0.264468
O6	O	1.389512	0.765505	0.597802
O7	O	0.830369	-0.008694	-0.068863
O8	O	1.163702	0.324640	0.264470
O9	O	1.497036	0.657973	0.597804
O10	O	0.818635	0.194619	-0.068894
O11	O	1.151968	0.527952	0.264439
O12	O	1.485301	0.861285	0.597773
O13	O	0.830354	-0.008701	0.068630
O14	O	1.163688	0.324633	0.401963
O15	O	1.497021	0.657966	0.735297
O16	O	0.722830	0.098832	0.068628
O17	O	1.056164	0.432165	0.401962
O18	O	1.389497	0.765499	0.735295
O19	O	0.926144	0.087079	0.068601
O20	O	1.259477	0.420413	0.401935
O21	O	1.592811	0.753746	0.735268
Cu22	Cu	0.824486	0.092955	0.081169
Cu23	Cu	1.157819	0.426288	0.414502
Cu24	Cu	1.491152	0.759622	0.747836
Cu25	Cu	0.824503	0.092963	-0.081433
Cu26	Cu	1.157836	0.426296	0.251901
Cu27	Cu	1.491170	0.759630	0.585234
O28	O	0.818620	0.194612	0.068599
O29	O	1.151953	0.527945	0.401933
O30	O	1.485287	0.861278	0.735266
C31	C	0.696826	0.098458	-0.000115
C32	C	1.030160	0.431791	0.333219
C33	C	1.363493	0.765124	0.666552
C34	C	0.619321	0.097324	-0.000104
C35	C	0.952654	0.430657	0.333230
C36	C	1.285987	0.763991	0.666563
C37	C	0.582937	0.096783	-0.075053
C38	C	0.916270	0.430116	0.258280
C39	C	1.249604	0.763450	0.591613
C40	C	0.510113	0.095710	-0.075063
C41	C	0.843447	0.429043	0.258270
C42	C	1.176780	0.762377	0.591603
C43	C	0.473678	0.095164	-0.000120
C44	C	0.807012	0.428497	0.333214
C45	C	1.140345	0.761830	0.666547
C46	C	0.510070	0.095709	0.074840
C47	C	0.843404	0.429042	0.408173
C48	C	1.176737	0.762375	0.741507
C49	C	0.582892	0.096789	0.074848
C50	C	0.916225	0.430122	0.408181
C51	C	1.249558	0.763455	0.741515
N52	N	0.364652	0.053732	0.055660
N53	N	0.697985	0.387066	0.388993
N54	N	1.031319	0.720399	0.722327
N55	N	0.295475	0.052705	0.055647
N56	N	0.628808	0.386038	0.388981
N57	N	0.962142	0.719372	0.722314
C58	C	0.254272	0.091911	-0.000139
C59	C	0.587605	0.425245	0.333194
C60	C	0.920938	0.758578	0.666528
N61	N	0.284860	0.132175	-0.055925
N62	N	0.618193	0.465508	0.277408
N63	N	0.951526	0.798842	0.610742
N64	N	0.354043	0.133199	-0.055915
N65	N	0.687377	0.466533	0.277419
N66	N	1.020710	0.799866	0.610752
C67	C	0.394716	0.093993	-0.000120
C68	C	0.728049	0.427326	0.333213
C69	C	1.061382	0.760660	0.666547
C70	C	0.138924	0.090208	-0.075105
C71	C	0.472257	0.423541	0.258228
C72	C	0.805591	0.756874	0.591562
C73	C	0.066098	0.089139	-0.075112
C74	C	0.399432	0.422472	0.258221
C75	C	0.732765	0.755806	0.591555
C76	C	0.066058	0.089131	0.074794
C77	C	0.399391	0.422464	0.408127
C78	C	0.732724	0.755797	0.741460
C79	C	0.138881	0.090207	0.074798
C80	C	0.472214	0.423540	0.408132
C81	C	0.805547	0.756873	0.741465
C82	C	0.175310	0.090742	-0.000153
C83	C	0.508643	0.424075	0.333180
C84	C	0.841977	0.757408	0.666514
C85	C	0.829982	-0.034708	-0.000114
C86	C	1.163315	0.298625	0.333219
C87	C	1.496648	0.631959	0.666553
C88	C	0.828841	-0.112213	-0.000107
C89	C	1.162174	0.221121	0.333227
C90	C	1.495508	0.554454	0.666560
C91	C	0.891933	-0.157142	-0.000111
C92	C	1.225266	0.176191	0.333222
C93	C	1.558599	0.509525	0.666555
C94	C	0.890861	-0.229966	-0.000124
C95	C	1.224194	0.103367	0.333209
C96	C	1.557528	0.436701	0.666542
C97	C	0.826694	-0.257857	-0.000116
C98	C	1.160027	0.075477	0.333217
C99	C	1.493361	0.408810	0.666550
C100	C	0.763594	-0.212917	-0.000117
C101	C	1.096927	0.120416	0.333217
C102	C	1.430261	0.453749	0.666550
C103	C	0.764668	-0.140095	-0.000112
C104	C	1.098001	0.193238	0.333221
C105	C	1.431334	0.526572	0.666555
N106	N	0.777641	-0.365860	0.046682
N107	N	1.110974	-0.032526	0.380015
N108	N	1.444308	0.300807	0.713348
N109	N	0.776626	-0.435038	0.046679
N110	N	1.109959	-0.101705	0.380012
N111	N	1.443292	0.231629	0.713345
C112	C	0.823456	-0.477265	-0.000133
C113	C	1.156789	-0.143932	0.333201
C114	C	1.490122	0.189402	0.666534
N115	N	0.871350	-0.447702	-0.046931
N116	N	1.204684	-0.114368	0.286402
N117	N	1.538017	0.218965	0.619736
N118	N	0.872368	-0.378517	-0.046924
N119	N	1.205701	-0.045184	0.286409
N120	N	1.539035	0.288150	0.619742
C121	C	0.825523	-0.336819	-0.000122
C122	C	1.158856	-0.003486	0.333211
C123	C	1.492190	0.329848	0.666544
C124	C	0.885390	-0.601159	-0.000153
C125	C	1.218723	-0.267826	0.333181
C126	C	1.552056	0.065508	0.666514
C127	C	0.884315	-0.673984	-0.000171
C128	C	1.217649	-0.340650	0.333163
C129	C	1.550982	-0.007317	0.666496
C130	C	0.757047	-0.656933	-0.000155
C131	C	1.090380	-0.323600	0.333179
C132	C	1.423714	0.009733	0.666512
C133	C	0.758123	-0.584110	-0.000145
C134	C	1.091456	-0.250777	0.333189
C135	C	1.424790	0.082556	0.666522
C136	C	0.822296	-0.556228	-0.000140
C137	C	1.155630	-0.222894	0.333194
C138	C	1.488963	0.110439	0.666527
C139	C	0.952163	0.087460	-0.000151
C140	C	1.285496	0.420794	0.333182
C141	C	1.618829	0.754127	0.666516
C142	C	1.029668	0.088594	-0.000167
C143	C	1.363001	0.421927	0.333166
C144	C	1.696335	0.755261	0.666499
C145	C	0.819007	0.220626	-0.000152
C146	C	1.152341	0.553959	0.333182
C147	C	1.485674	0.887293	0.666515
C148	C	0.820148	0.298131	-0.000164
C149	C	1.153481	0.631464	0.333169
C150	C	1.486815	0.964797	0.666502
N151	N	0.824479	0.092949	0.195534
N152	N	1.157812	0.426282	0.528867
N153	N	1.491145	0.759616	0.862201
N154	N	0.824516	0.092964	-0.195798
N155	N	1.157849	0.426297	0.137535
N156	N	1.491183	0.759630	0.470869
C157	C	0.872104	0.045353	0.238799
C158	C	1.205438	0.378686	0.572132
C159	C	1.538771	0.712020	0.905466
C160	C	0.872108	0.045352	0.325346
C161	C	1.205441	0.378685	0.658680
C162	C	1.538775	0.712019	0.992013
C163	C	0.824488	0.092951	0.368627
C164	C	1.157822	0.426285	0.701960
C165	C	1.491155	0.759618	1.035293
C166	C	0.776857	0.140550	0.325356
C167	C	1.110191	0.473883	0.658689
C168	C	1.443524	0.807216	0.992022
C169	C	0.776851	0.140546	0.238810
C170	C	1.110184	0.473880	0.572144
C171	C	1.443518	0.807213	0.905477
C172	C	0.776881	0.140563	0.674384
C173	C	1.110215	0.473896	1.007717
C174	C	1.443548	0.807229	1.341051
C175	C	0.776893	0.140563	0.760935
C176	C	1.110226	0.473897	1.094269
C177	C	1.443559	0.807230	1.427602
C178	C	0.872138	0.045368	0.760920
C179	C	1.205472	0.378702	1.094253
C180	C	1.538805	0.712035	1.427587
C181	C	0.872132	0.045365	0.674375
C182	C	1.205465	0.378699	1.007708
C183	C	1.538799	0.712032	1.341041
C184	C	0.824499	0.092961	0.631111
C185	C	1.157832	0.426294	0.964444
C186	C	1.491165	0.759627	1.297778
C187	C	0.824495	0.092960	0.537267
C188	C	1.157828	0.426293	0.870600
C189	C	1.491161	0.759627	1.203934
C190	C	0.824495	0.092956	0.462469
C191	C	1.157829	0.426289	0.795803
C192	C	1.491162	0.759622	1.129136
H193	H	0.036392	0.088690	0.135814
H194	H	0.369726	0.422024	0.469148
H195	H	0.703059	0.755357	0.802481
F196	F	0.697514	-0.092276	-0.000108
F197	F	1.030847	0.241058	0.333226
F198	F	1.364180	0.574391	0.666559
F199	F	0.177605	0.090778	0.154571
F200	F	0.510938	0.424112	0.487905
F201	F	0.844272	0.757445	0.821238
F202	F	0.922832	-0.005290	0.806970
F203	F	1.256166	0.328043	1.140304
F204	F	1.589499	0.661377	1.473637
H205	H	0.706747	-0.547527	-0.000137
H206	H	1.040080	-0.214194	0.333197
H207	H	1.373413	0.119139	0.666530
F208	F	0.953688	-0.571482	-0.000143
F209	F	1.287021	-0.238148	0.333190
F210	F	1.620354	0.095185	0.666523
F211	F	0.726189	0.191218	0.628346
F212	F	1.059523	0.524552	0.961680
F213	F	1.392856	0.857885	1.295013
F214	F	0.688755	-0.686612	-0.000150
F215	F	1.022088	-0.353279	0.333183
F216	F	1.355422	-0.019945	0.666516
H217	H	0.738068	0.179303	0.203585
H218	H	1.071402	0.512636	0.536918
H219	H	1.404735	0.845970	0.870251
H220	H	0.935694	-0.710565	-0.000179
H221	H	1.269028	-0.377232	0.333154
H222	H	1.602361	-0.043899	0.666488
F223	F	0.960232	-0.127472	-0.000124
F224	F	1.293565	0.205862	0.333210
F225	F	1.626899	0.539195	0.666543
H226	H	0.738113	0.179326	0.796173
H227	H	1.071446	0.512659	1.129506
H228	H	1.404779	0.845992	1.462840
H229	H	0.910885	0.006595	0.203566
H230	H	1.244218	0.339928	0.536899
H231	H	1.577551	0.673262	0.870233
F232	F	0.621615	0.097364	0.154623
F233	F	0.954948	0.430698	0.487957
F234	F	1.288282	0.764031	0.821290
F235	F	0.922796	-0.005305	0.371392
F236	F	1.256129	0.328028	0.704726
F237	F	1.589463	0.661361	1.038059
F238	F	0.958014	-0.277792	-0.000130
F239	F	1.291348	0.055541	0.333203
F240	F	1.624681	0.388875	0.666536
H241	H	0.711349	-0.235631	-0.000112
H242	H	1.044682	0.097703	0.333221
H243	H	1.378016	0.431036	0.666555
F244	F	0.922817	-0.005293	0.628316
F245	F	1.256150	0.328040	0.961649
F246	F	1.589484	0.661373	1.294982
H247	H	0.612593	0.097219	-0.136085
H248	H	0.945927	0.430552	0.197249
H249	H	1.279260	0.763886	0.530582
F250	F	0.471383	0.095134	-0.154838
F251	F	0.804717	0.428468	0.178495
F252	F	1.138050	0.761801	0.511828
F253	F	0.726173	0.191206	0.371419
F254	F	1.059506	0.524539	0.704752
F255	F	1.392840	0.857872	1.038085
H256	H	0.168585	0.090651	-0.136135
H257	H	0.501919	0.423984	0.197198
H258	H	0.835252	0.757318	0.530532
F259	F	0.027376	0.088569	-0.154888
F260	F	0.360709	0.421902	0.178445
F261	F	0.694042	0.755236	0.511779
F262	F	0.471292	0.095131	0.154600
F263	F	0.804625	0.428464	0.487934
F264	F	1.137959	0.761798	0.821267
