data_functionalizedCrystal
_audit_creation_method	'MofGen! by Chris Wilmer'
_symmetry_space_group_name_H-M	'P1'
_symmetry_Int_Tables_number	1
_symmetry_cell_setting	triclinic
loop_
_symmetry_equiv_pos_as_xyz
  x,y,z
_cell_length_a	12.759401
_cell_length_b	18.050590
_cell_length_c	12.759393
_cell_angle_alpha	90.034679
_cell_angle_beta	90.020938
_cell_angle_gamma	90.020077
loop_
_atom_site_label
_atom_site_type_symbol
_atom_site_fract_x
_atom_site_fract_y
_atom_site_fract_z
Zn1	Zn	1.606238	-0.295593	0.593990
Zn2	Zn	1.606118	-0.419801	0.418297
Zn3	Zn	1.430537	-0.295633	0.418325
Zn4	Zn	1.430517	-0.419749	0.593934
O5	O	1.518352	-0.357694	0.506136
O6	O	1.753243	-0.312075	0.570695
O7	O	1.582784	-0.403368	0.271279
O8	O	1.453903	-0.191703	0.441662
O9	O	1.753155	-0.403330	0.441614
O10	O	1.582990	-0.191674	0.570722
O11	O	1.453786	-0.312142	0.271300
O12	O	1.283513	-0.312092	0.441608
O13	O	1.453869	-0.403241	0.740963
O14	O	1.283499	-0.403280	0.570628
O15	O	1.582971	-0.312025	0.741003
O16	O	1.582765	-0.523719	0.441561
O17	O	1.453752	-0.523681	0.570601
C18	C	1.245385	-0.357685	0.506115
C19	C	1.128608	-0.357699	0.506131
C20	C	1.518272	-0.550646	0.506094
C21	C	1.518333	-0.633192	0.506112
C22	C	1.073766	-0.405253	0.573206
C23	C	0.964042	-0.405256	0.573227
C24	C	0.964012	-0.310149	0.439089
C25	C	1.073734	-0.310143	0.439075
C26	C	0.814144	-0.431904	0.697085
C27	C	0.759298	-0.479469	0.764150
C28	C	0.794889	-0.551945	0.780090
C29	C	0.885324	-0.576870	0.728950
C30	C	0.940164	-0.529309	0.661877
C31	C	0.904575	-0.456822	0.645956
C32	C	1.223635	-0.283503	0.315215
C33	C	1.278477	-0.235944	0.248136
C34	C	1.242888	-0.163467	0.232185
C35	C	1.152450	-0.138545	0.283307
C36	C	1.097608	-0.186103	0.350386
C37	C	1.133204	-0.258579	0.366339
C38	C	1.588636	-0.832636	0.436038
C39	C	1.614306	-0.881961	0.531925
C40	C	1.518393	-0.784322	0.506154
C41	C	1.492831	-0.882079	0.410310
C42	C	1.518452	-0.930307	0.506186
C43	C	1.544111	-0.832560	0.602091
C44	C	1.422592	-0.832674	0.480411
C45	C	1.448224	-0.881976	0.576364
C46	C	1.518361	-0.700224	0.506134
C47	C	1.518484	-1.014404	0.506216
C48	C	1.792386	-0.357704	0.506158
C49	C	1.909162	-0.357708	0.506167
C50	C	1.518431	-0.357623	0.780170
C51	C	1.518465	-0.357592	0.896947
C52	C	1.518462	-0.163989	0.506201
C53	C	1.518509	-0.081443	0.506229
C54	C	1.518335	-0.357712	0.233169
C55	C	1.518505	-0.357533	0.116393
C56	C	1.585693	-0.310088	0.951831
C57	C	1.585711	-0.310056	1.061556
C58	C	1.451269	-0.405039	1.061500
C59	C	1.451247	-0.405067	0.951778
C60	C	1.623331	-0.222435	1.211543
C61	C	1.690576	-0.174938	1.266431
C62	C	1.793089	-0.163549	1.230841
C63	C	1.828380	-0.199670	1.140364
C64	C	1.761141	-0.247173	1.085481
C65	C	1.658612	-0.258547	1.121070
C66	C	1.413637	-0.492689	0.801789
C67	C	1.346403	-0.540196	0.746904
C68	C	1.243887	-0.551592	0.782492
C69	C	1.208601	-0.515485	0.872973
C70	C	1.275835	-0.467977	0.927858
C71	C	1.378350	-0.456580	0.892262
H72	H	1.118442	-0.443974	0.627811
H73	H	1.023973	-0.165803	0.392020
C74	C	1.313147	-0.803394	0.450931
H75	H	1.295065	-0.820319	0.382764
H76	H	1.263092	-0.821021	0.500053
H77	H	1.313771	-0.750768	0.451763
H78	H	1.648059	-0.810971	0.376804
H79	H	1.013794	-0.549602	0.620239
H80	H	1.695348	-0.903613	0.553718
C81	C	1.303202	-0.111155	0.158386
H82	H	1.269045	-0.064423	0.156206
H83	H	1.372753	-0.104907	0.183471
H84	H	1.304994	-0.131860	0.089941
H85	H	0.685666	-0.459168	0.805790
C86	C	1.510561	-0.234957	1.250686
H87	H	1.475562	-0.268412	1.205036
H88	H	1.512363	-0.255126	1.319410
H89	H	1.474177	-0.189053	1.251745
C90	C	1.659619	-0.257865	0.891515
H91	H	1.649987	-0.264689	0.818307
H92	H	1.644277	-0.207962	0.909512
H93	H	1.730211	-0.268737	0.909506
C94	C	0.903652	-0.257844	0.365325
H95	H	0.952032	-0.229517	0.325383
H96	H	0.860815	-0.286215	0.319481
H97	H	0.860883	-0.225520	0.405611
H98	H	1.396545	-0.443693	1.106158
C99	C	1.941149	-0.187145	1.101222
H100	H	1.976137	-0.153676	1.146861
H101	H	1.977539	-0.233041	1.100160
H102	H	1.939340	-0.166973	1.032494
H103	H	1.497112	-0.483409	0.772799
H104	H	1.352116	-0.256243	0.206509
C105	C	1.368015	-0.911066	0.656571
H106	H	1.386367	-0.894017	0.724605
H107	H	1.300144	-0.893443	0.638855
H108	H	1.368070	-0.963694	0.655750
C109	C	1.573487	-0.803310	0.711638
H110	H	1.585733	-0.843910	0.757375
H111	H	1.635135	-0.773989	0.706841
H112	H	1.517701	-0.773994	0.738287
C113	C	0.775002	-0.352176	0.679562
H114	H	0.820622	-0.327414	0.632304
H115	H	0.706256	-0.353425	0.651011
H116	H	0.773998	-0.326495	0.744565
C117	C	1.463581	-0.911458	0.300798
H118	H	1.513538	-0.894554	0.251059
H119	H	1.463182	-0.964079	0.301745
H120	H	1.395982	-0.893849	0.282020
H121	H	1.123460	-0.079532	0.270303
H122	H	0.750226	-0.590673	0.834698
H123	H	0.914288	-0.635890	0.741925
H124	H	1.125125	-0.524766	0.901952
H125	H	1.789875	-0.276584	1.011819
C126	C	1.867054	-0.111300	1.291213
H127	H	1.831354	-0.091418	1.350189
H128	H	1.926808	-0.138151	1.314182
H129	H	1.888611	-0.072084	1.246514
H130	H	1.252626	-0.342518	0.328207
H131	H	1.375146	-0.569604	0.673237
C132	C	1.651755	-0.135202	1.365943
H133	H	1.581062	-0.148774	1.379270
H134	H	1.694209	-0.149190	1.423811
H135	H	1.656034	-0.083122	1.356130
C136	C	1.237020	-0.428255	1.027382
H137	H	1.166333	-0.441841	1.040716
H138	H	1.279486	-0.442240	1.085242
H139	H	1.241280	-0.376174	1.017575
C140	C	1.169932	-0.603853	0.722121
H141	H	1.205625	-0.623727	0.663136
H142	H	1.148372	-0.643064	0.766819
H143	H	1.110176	-0.576997	0.699147
