data_functionalizedCrystal
_audit_creation_method	'MofGen! by Chris Wilmer'
_symmetry_space_group_name_H-M	'P1'
_symmetry_Int_Tables_number	1
_symmetry_cell_setting	triclinic
loop_
_symmetry_equiv_pos_as_xyz
  x,y,z
_cell_length_a	12.837943
_cell_length_b	10.489741
_cell_length_c	11.295483
_cell_angle_alpha	94.137284
_cell_angle_beta	85.461227
_cell_angle_gamma	89.684057
loop_
_atom_site_label
_atom_site_type_symbol
_atom_site_fract_x
_atom_site_fract_y
_atom_site_fract_z
O1	O	1.384854	0.324137	-0.099003
O2	O	1.082927	0.307742	-0.099010
O3	O	1.240760	0.131100	-0.098999
O4	O	1.227021	0.500780	-0.099013
O5	O	1.226897	0.146588	0.099051
O6	O	1.069064	0.323231	0.099040
O7	O	1.370991	0.339626	0.099047
Cu8	Cu	1.218762	0.332842	0.117127
Cu9	Cu	1.235156	0.314526	-0.117090
O10	O	1.213158	0.516268	0.099036
C11	C	1.037334	0.309948	0.000014
C12	C	0.922133	0.293430	0.000012
C13	C	1.232791	0.091198	0.000025
C14	C	1.229686	-0.050774	0.000023
C15	C	0.682657	0.492006	0.000021
C16	C	0.574415	0.476492	0.000020
C17	C	0.597406	0.246889	0.000016
C18	C	0.705648	0.262403	0.000017
C19	C	0.748269	0.384966	0.000018
C20	C	0.856513	0.400478	0.000011
C21	C	0.879501	0.170877	0.000016
C22	C	0.771260	0.155363	0.000014
C23	C	1.129262	-0.129987	0.000012
C24	C	1.169867	-0.209242	0.097662
C25	C	1.183558	-0.224485	-0.097600
C26	C	1.270327	-0.128153	0.097754
C27	C	1.284011	-0.143394	-0.097596
C28	C	1.324687	-0.222613	0.000078
C29	C	1.416585	0.337420	0.000020
C30	C	1.531786	0.353937	0.000015
C31	C	1.221127	0.556170	0.000010
C32	C	1.224233	0.698141	0.000004
N33	N	1.207238	0.345726	0.281863
N34	N	1.246688	0.301633	-0.281825
C35	C	1.329641	0.208822	0.531161
C36	C	1.320940	0.218568	0.655824
C37	C	1.181131	0.374956	0.655854
C38	C	1.189832	0.365210	0.531191
C39	C	1.264090	0.282142	0.468849
C40	C	1.272796	0.272403	0.344183
C41	C	1.132982	0.428784	0.344216
C42	C	1.124281	0.438530	0.468879
H43	H	0.891213	0.500275	0.000014
C44	C	0.729550	0.626811	0.000012
H45	H	0.803412	0.620719	0.000003
H46	H	0.702256	0.676845	0.069071
H47	H	0.711923	0.666029	-0.069067
C48	C	1.319856	-0.071457	0.209410
H49	H	1.321491	0.019026	0.208758
H50	H	1.389051	-0.103918	0.209699
H51	H	1.279559	-0.094483	0.278665
C52	C	1.060886	0.509455	0.275671
H53	H	1.076701	0.491757	0.192497
H54	H	1.071375	0.597627	0.296109
H55	H	0.990103	0.488733	0.296107
C56	C	1.411322	0.117462	0.462575
H57	H	1.407120	0.122166	0.379406
H58	H	1.398002	0.032477	0.483007
H59	H	1.479247	0.141402	0.482988
C60	C	1.099453	0.466317	0.724444
H61	H	1.103666	0.461619	0.807613
H62	H	1.031531	0.442399	0.704030
H63	H	1.112789	0.551309	0.704018
C64	C	1.042608	0.529902	0.537462
H65	H	1.046818	0.525214	0.620632
H66	H	0.974684	0.505991	0.517048
H67	H	1.055953	0.614890	0.517027
H68	H	1.121596	-0.238482	0.180216
H69	H	0.562677	0.147112	0.000113
C70	C	0.724375	0.020553	0.000008
H71	H	0.778957	-0.040974	0.000012
H72	H	0.687459	0.004335	-0.069055
H73	H	0.677797	0.015122	0.069082
C74	C	1.436318	-0.277081	0.000152
H75	H	1.466958	-0.243784	0.069582
H76	H	1.477070	-0.253452	-0.068554
H77	H	1.433788	-0.367622	-0.000497
H78	H	1.332246	-0.114126	-0.180154
H79	H	0.520997	0.563656	0.000025
C80	C	0.951677	0.053127	0.000011
H81	H	1.022247	0.079917	0.000017
H82	H	0.943490	-0.001980	-0.069054
H83	H	0.933831	0.008814	0.069083
H84	H	1.046686	-0.089431	0.000108
H85	H	1.374316	0.158862	0.706555
H86	H	1.146833	-0.266591	-0.180163
C87	C	1.354479	0.181043	0.275602
H88	H	1.350284	0.185748	0.192432
H89	H	1.341155	0.096057	0.296033
H90	H	1.422402	0.204980	0.296022
