data_functionalizedCrystal
_audit_creation_method	'MofGen! by Chris Wilmer'
_symmetry_space_group_name_H-M	'P1'
_symmetry_Int_Tables_number	1
_symmetry_cell_setting	triclinic
loop_
_symmetry_equiv_pos_as_xyz
  x,y,z
_cell_length_a	10.654556
_cell_length_b	14.044220
_cell_length_c	9.130313
_cell_angle_alpha	89.997493
_cell_angle_beta	89.999332
_cell_angle_gamma	88.838143
loop_
_atom_site_label
_atom_site_type_symbol
_atom_site_fract_x
_atom_site_fract_y
_atom_site_fract_z
O1	O	1.681220	0.133255	-0.121819
O2	O	1.317018	0.145943	-0.121819
O3	O	1.493652	0.001578	-0.121804
O4	O	1.504586	0.277620	-0.121833
O5	O	1.493650	0.001582	0.121794
O6	O	1.317016	0.145947	0.121780
O7	O	1.681218	0.133259	0.121780
Cu8	Cu	1.499117	0.139603	0.144022
Cu9	Cu	1.499119	0.139599	-0.144061
O10	O	1.504584	0.277623	0.121765
C11	C	1.270125	0.145012	-0.000019
C12	C	1.130402	0.142221	-0.000019
C13	C	0.933478	0.138292	-0.132816
C14	C	1.064763	0.140908	-0.132810
C15	C	1.064749	0.140907	0.132775
C16	C	0.933467	0.138284	0.132767
C17	C	0.933487	0.138296	-0.286150
C18	C	1.064773	0.140913	-0.286144
C19	C	1.488866	-0.033766	-0.000004
C20	C	1.474590	-0.139086	-0.000003
C21	C	1.448491	-0.331919	-0.000024
C22	C	1.549739	-0.388885	-0.000028
C23	C	1.535218	-0.496184	-0.000040
C24	C	1.463011	-0.224610	-0.000012
C25	C	1.728111	0.134190	-0.000023
C26	C	1.867834	0.136981	-0.000033
C27	C	1.509371	0.312967	-0.000038
C28	C	1.523646	0.418287	-0.000049
N29	N	1.499124	0.139606	0.346645
N30	N	1.499121	0.139588	-0.346684
C31	C	1.577362	0.075703	0.423303
C32	C	1.577358	0.075692	0.576640
C33	C	1.420874	0.203494	0.576647
C34	C	1.420873	0.203500	0.423313
C35	C	1.667711	0.001920	0.423301
C36	C	1.667706	0.001909	0.576638
H37	H	0.901933	0.071321	-0.345022
H38	H	1.761216	0.025025	0.375740
O39	O	1.319234	-0.374057	-0.000019
H40	H	1.247296	-0.315776	-0.000019
H41	H	1.630270	-0.066991	0.624192
O42	O	1.629591	-0.094648	0.368158
H43	H	1.610916	-0.141929	0.462766
O44	O	1.124280	0.051429	-0.349164
H45	H	1.227995	0.057232	-0.346546
H46	H	0.880025	0.137197	0.240892
H47	H	1.096337	0.207894	-0.345008
O48	O	0.873982	0.227780	-0.349172
H49	H	0.816479	0.209219	-0.446035
H50	H	1.765851	0.018163	0.618252
O51	O	1.336477	0.272413	0.340621
H52	H	1.360761	0.346477	0.370038
O53	O	1.135535	0.142324	0.276006
H54	H	1.237853	0.144375	0.253707
O55	O	1.679011	-0.346756	-0.000002
H56	H	1.670283	-0.267867	0.000023
O57	O	1.336487	0.272415	0.659336
H58	H	1.349636	0.261680	0.778838
