data_functionalizedCrystal
_audit_creation_method	'MofGen! by Chris Wilmer'
_symmetry_space_group_name_H-M	'P1'
_symmetry_Int_Tables_number	1
_symmetry_cell_setting	triclinic
loop_
_symmetry_equiv_pos_as_xyz
  x,y,z
_cell_length_a	15.297475
_cell_length_b	12.594516
_cell_length_c	12.594509
_cell_angle_alpha	89.972125
_cell_angle_beta	80.313502
_cell_angle_gamma	80.315126
loop_
_atom_site_label
_atom_site_type_symbol
_atom_site_fract_x
_atom_site_fract_y
_atom_site_fract_z
Zn1	Zn	1.379359	-0.705758	-0.883016
Zn2	Zn	1.379278	-0.883752	-0.705022
Zn3	Zn	1.228483	-0.674953	-0.674292
Zn4	Zn	1.228479	-0.852843	-0.852215
O5	O	1.303899	-0.779327	-0.778636
O6	O	1.505600	-0.755196	-0.885156
O7	O	1.359242	-0.856097	-0.551993
O8	O	1.248532	-0.530101	-0.702009
O9	O	1.505540	-0.885967	-0.754384
O10	O	1.359381	-0.552733	-0.855358
O11	O	1.248454	-0.702694	-0.529416
O12	O	1.102230	-0.672724	-0.672143
O13	O	1.248526	-0.833289	-1.005253
O14	O	1.102227	-0.803419	-0.802862
O15	O	1.359377	-0.725226	-1.027883
O16	O	1.359238	-1.028590	-0.724518
O17	O	1.248447	-1.005882	-0.832660
C18	C	1.069493	-0.731375	-0.730826
C19	C	0.969213	-0.710887	-0.710398
C20	C	0.686634	-0.925766	-0.924642
C21	C	0.780852	-0.945023	-0.943832
C22	C	0.827947	-0.886491	-0.885476
C23	C	0.780814	-0.808698	-0.807925
C24	C	0.686587	-0.789444	-0.788727
C25	C	0.827900	-0.750169	-0.749560
C26	C	0.780767	-0.672376	-0.672009
C27	C	0.686549	-0.653126	-0.652816
C28	C	0.639454	-0.711658	-0.711172
C29	C	0.922127	-0.769423	-0.768758
C30	C	0.922080	-0.633101	-0.632843
C31	C	0.827862	-0.613844	-0.613653
C32	C	1.303858	-1.055859	-0.778609
C33	C	1.303922	-1.174178	-0.778650
C34	C	1.364252	-1.255757	-0.719922
C35	C	1.386299	-1.330962	-0.821565
C36	C	1.281988	-1.309795	-0.677091
C37	C	1.326012	-1.247833	-0.880353
C38	C	1.221662	-1.226651	-0.735806
C39	C	1.243678	-1.301818	-0.837510
C40	C	1.539221	-0.827466	-0.826634
C41	C	1.639501	-0.847980	-0.847087
C42	C	1.303960	-0.779246	-1.056269
C43	C	1.303986	-0.779211	-1.174580
C44	C	1.303966	-0.501719	-0.778692
C45	C	1.303994	-0.383420	-0.778715
C46	C	1.243713	-0.837950	-1.231529
C47	C	1.326037	-0.880790	-1.319100
C48	C	1.221725	-0.736320	-1.297822
C49	C	1.386353	-0.822111	-1.260602
C50	C	1.281986	-0.677585	-1.239306
C51	C	1.364367	-0.720399	-1.326856
C52	C	1.303891	-0.779341	-0.502093
C53	C	1.304040	-0.779111	-0.383819
H54	H	0.960425	-0.585441	-0.585323
H55	H	1.263405	-1.337165	-0.591177
N56	N	1.179824	-0.900398	-1.179552
N57	N	1.188099	-0.998196	-1.203958
H58	H	1.142981	-1.042303	-1.167250
H59	H	1.344525	-1.220580	-0.966324
H60	H	1.152136	-0.700087	-1.314727
N61	N	1.179717	-1.327438	-0.899941
N62	N	1.187924	-1.306130	-0.997692
H63	H	1.142754	-1.324225	-1.041788
N64	N	1.428268	-1.229902	-0.657691
N65	N	1.509743	-1.269211	-0.684176
H66	H	1.554957	-1.250951	-0.640231
H67	H	0.648281	-0.973421	-0.972141
N68	N	1.349412	-0.988556	-1.362879
N69	N	1.301524	-1.057179	-1.330452
H70	H	1.318027	-1.133291	-1.361365
N71	N	1.134378	-1.169850	-0.690266
N72	N	1.100832	-1.185719	-0.595268
H73	H	1.039187	-1.145602	-0.563093
N74	N	1.473677	-0.867677	-1.239556
N75	N	1.487739	-0.875104	-1.144680
H76	H	1.549410	-0.907284	-1.129813
N77	N	1.428417	-0.658049	-1.378620
N78	N	1.509845	-0.684464	-1.372315
H79	H	1.555083	-0.640434	-1.408874
N80	N	1.258568	-0.569842	-1.195490
N81	N	1.183883	-0.514917	-1.202900
H82	H	1.167335	-0.438820	-1.171952
H83	H	0.562734	-0.695981	-0.695554
H84	H	0.960494	-0.832762	-0.831902
H85	H	0.789474	-0.550504	-0.550510
N86	N	0.924188	-0.906175	-0.905086
N87	N	0.966259	-0.975633	-0.974330
H88	H	1.034234	-0.989537	-0.988186
N89	N	0.828989	-1.024495	-1.023029
N90	N	0.818450	-1.120546	-1.013644
H91	H	0.852446	-1.176680	-1.069581
N92	N	0.638417	-0.573676	-0.573581
N93	N	0.680471	-0.521424	-0.521480
H94	H	0.646480	-0.465313	-0.465518
N95	N	1.473601	-1.387794	-0.867021
N96	N	1.540075	-1.378751	-0.824145
H97	H	1.601731	-1.418906	-0.856227
