data_functionalizedCrystal
_audit_creation_method	'MofGen! by Chris Wilmer'
_symmetry_space_group_name_H-M	'P1'
_symmetry_Int_Tables_number	1
_symmetry_cell_setting	triclinic
loop_
_symmetry_equiv_pos_as_xyz
  x,y,z
_cell_length_a	11.792254
_cell_length_b	19.188924
_cell_length_c	10.268362
_cell_angle_alpha	89.992651
_cell_angle_beta	89.995475
_cell_angle_gamma	83.670281
loop_
_atom_site_label
_atom_site_type_symbol
_atom_site_fract_x
_atom_site_fract_y
_atom_site_fract_z
O1	O	1.505463	0.095738	-0.108306
O2	O	2.005463	0.595738	0.391694
O3	O	1.174976	0.105591	-0.108309
O4	O	1.674976	0.605591	0.391691
O5	O	1.349761	-0.000937	-0.108292
O6	O	1.849761	0.499063	0.391708
O7	O	1.330679	0.202266	-0.108323
O8	O	1.830679	0.702266	0.391677
O9	O	1.349746	-0.000942	0.108309
O10	O	1.849746	0.499058	0.608309
O11	O	1.174961	0.105586	0.108292
O12	O	1.674961	0.605586	0.608292
O13	O	1.505448	0.095733	0.108295
O14	O	2.005448	0.595733	0.608295
Cu15	Cu	1.340203	0.100659	0.128071
Cu16	Cu	1.840203	0.600659	0.628071
Cu17	Cu	1.340221	0.100665	-0.128085
Cu18	Cu	1.840221	0.600665	0.371915
O19	O	1.330664	0.202261	0.108278
O20	O	1.830664	0.702261	0.608278
C21	C	1.132687	0.104968	-0.000009
C22	C	1.632687	0.604968	0.499991
C23	C	1.006702	0.103110	-0.000010
C24	C	1.506702	0.603110	0.499990
C25	C	1.349137	-0.026954	0.000010
C26	C	1.849137	0.473046	0.500010
C27	C	1.347286	-0.104470	0.000013
C28	C	1.847286	0.395530	0.500013
C29	C	0.904388	0.101601	-0.000015
C30	C	1.404388	0.601601	0.499985
C31	C	0.776030	0.099713	-0.000016
C32	C	1.276030	0.599713	0.499984
C33	C	1.346430	-0.140871	-0.118056
C34	C	1.846430	0.359129	0.381944
C35	C	1.344675	-0.213704	-0.118066
C36	C	1.844675	0.286296	0.381934
C37	C	1.343798	-0.250134	-0.000000
C38	C	1.843798	0.249866	0.500000
C39	C	1.344647	-0.213723	0.118085
C40	C	1.844647	0.286277	0.618085
C41	C	1.346391	-0.140891	0.118091
C42	C	1.846391	0.359109	0.618091
N43	N	1.405639	-0.369447	0.087874
N44	N	1.905639	0.130553	0.587874
N45	N	1.403985	-0.438635	0.087860
N46	N	1.903985	0.061365	0.587860
C47	C	1.338541	-0.469573	-0.000013
C48	C	1.838541	0.030427	0.499987
N49	N	1.274828	-0.428711	-0.087891
N50	N	1.774828	0.071289	0.412109
N51	N	1.276487	-0.359517	-0.087880
N52	N	1.776487	0.140483	0.412120
C53	C	1.341906	-0.329108	0.000006
C54	C	1.841906	0.170892	0.500006
C55	C	1.335780	-0.584948	-0.118101
C56	C	1.835780	-0.084948	0.381899
C57	C	1.334018	-0.657781	-0.118106
C58	C	1.834018	-0.157781	0.381894
C59	C	1.334002	-0.657800	0.118049
C60	C	1.834002	-0.157800	0.618049
C61	C	1.335753	-0.584967	0.118050
C62	C	1.835753	-0.084967	0.618050
C63	C	1.336647	-0.548546	-0.000028
C64	C	1.836647	-0.048546	0.499972
C65	C	1.547737	0.096356	-0.000008
C66	C	2.047737	0.596356	0.499992
C67	C	1.673722	0.098214	-0.000016
C68	C	2.173722	0.598214	0.499984
C69	C	1.331288	0.228278	-0.000027
C70	C	1.831288	0.728278	0.499973
C71	C	1.333139	0.305794	-0.000039
C72	C	1.833139	0.805794	0.499961
N73	N	1.340199	0.100655	0.308237
N74	N	1.840199	0.600655	0.808237
N75	N	1.340235	0.100663	-0.308251
N76	N	1.840235	0.600663	0.191749
C77	C	1.340216	0.100663	0.573907
C78	C	1.840216	0.600663	1.073907
C79	C	1.340203	0.100661	0.426069
C80	C	1.840203	0.600661	0.926069
H81	H	1.343971	-0.243347	-0.214215
H82	H	1.843971	0.256653	0.285785
O83	O	1.333066	-0.697086	0.245393
O84	O	1.833066	-0.197086	0.745393
H85	H	1.254939	-0.724344	0.251037
H86	H	1.754939	-0.224344	0.751037
O87	O	1.333087	-0.697042	-0.245464
O88	O	1.833087	-0.197042	0.254536
H89	H	1.331708	-0.753805	-0.225635
H90	H	1.831708	-0.253805	0.274365
H91	H	1.336459	-0.555330	0.214195
H92	H	1.836459	-0.055330	0.714195
H93	H	1.347155	-0.111221	-0.214205
H94	H	1.847155	0.388779	0.285795
H95	H	1.343930	-0.243389	0.214215
H96	H	1.843930	0.256611	0.714215
H97	H	1.347083	-0.111253	0.214241
H98	H	1.847083	0.388747	0.714241
O99	O	1.336723	-0.545654	-0.245447
O100	O	1.836723	-0.045654	0.254553
H101	H	1.335811	-0.583204	-0.327553
H102	H	1.835811	-0.083204	0.172447
