data_functionalizedCrystal
_audit_creation_method	'MofGen! by Chris Wilmer'
_symmetry_space_group_name_H-M	'P1'
_symmetry_Int_Tables_number	1
_symmetry_cell_setting	triclinic
loop_
_symmetry_equiv_pos_as_xyz
  x,y,z
_cell_length_a	16.959455
_cell_length_b	12.645330
_cell_length_c	16.959447
_cell_angle_alpha	90.025171
_cell_angle_beta	89.985299
_cell_angle_gamma	89.974386
loop_
_atom_site_label
_atom_site_type_symbol
_atom_site_fract_x
_atom_site_fract_y
_atom_site_fract_z
Zn1	Zn	1.208350	0.422035	-0.446945
Zn2	Zn	1.208259	0.599326	-0.314778
Zn3	Zn	1.076179	0.422076	-0.314782
Zn4	Zn	1.076129	0.599255	-0.446916
O5	O	1.142229	0.510673	-0.380855
O6	O	1.318949	0.445566	-0.429424
O7	O	1.190720	0.575861	-0.204168
O8	O	1.093771	0.273723	-0.332327
O9	O	1.318882	0.575821	-0.332321
O10	O	1.190876	0.273693	-0.429427
O11	O	1.093682	0.445635	-0.204170
O12	O	0.965561	0.445566	-0.332299
O13	O	1.093686	0.575699	-0.557531
O14	O	0.965525	0.575739	-0.429377
O15	O	1.190828	0.445496	-0.557552
O16	O	1.190672	0.747664	-0.332293
O17	O	1.093597	0.747612	-0.429374
C18	C	0.936863	0.510650	-0.380836
C19	C	0.849006	0.510665	-0.380846
C20	C	0.807695	0.578387	-0.330218
C21	C	0.807764	0.442952	-0.431481
C22	C	0.725218	0.442961	-0.431490
C23	C	0.683907	0.510682	-0.380862
C24	C	0.725142	0.578395	-0.330224
C25	C	0.683977	0.375241	-0.482122
C26	C	0.601426	0.375246	-0.482133
C27	C	0.560113	0.442974	-0.431508
C28	C	0.601353	0.510690	-0.380868
C29	C	0.560042	0.578412	-0.330239
C30	C	0.601281	0.646134	-0.279603
C31	C	0.683830	0.646123	-0.279598
C32	C	0.477565	0.442986	-0.431512
C33	C	0.477489	0.578420	-0.330246
C34	C	1.142141	0.786103	-0.380847
C35	C	1.142176	0.903933	-0.380870
C36	C	1.081339	1.071508	-0.442134
C37	C	1.081042	0.948948	-0.441936
C38	C	1.119629	0.948529	-0.297569
C39	C	1.119245	1.071127	-0.297942
C40	C	1.225889	1.071022	-0.402237
C41	C	1.225389	0.948416	-0.404057
C42	C	1.348397	0.510697	-0.380875
C43	C	1.436254	0.510707	-0.380884
C44	C	1.142311	1.234168	-0.380883
C45	C	1.142276	1.116338	-0.380903
C46	C	1.142262	0.510585	-0.587024
C47	C	1.142276	0.510548	-0.674880
C48	C	1.091793	0.578226	-1.046347
C49	C	1.192948	0.442645	-1.046365
C50	C	1.192927	0.442668	-0.963819
C51	C	1.142339	0.510472	-0.922533
C52	C	1.091772	0.578253	-0.963794
C53	C	1.243499	0.374895	-0.922552
C54	C	1.243480	0.374916	-0.840001
C55	C	1.192888	0.442715	-0.798714
C56	C	1.142318	0.510498	-0.839980
C57	C	1.091730	0.578302	-0.798694
C58	C	1.041156	0.646081	-0.839958
C59	C	1.041179	0.646053	-0.922507
C60	C	1.192864	0.442744	-0.716166
C61	C	1.091709	0.578329	-0.716141
C62	C	1.142242	0.510684	-0.175489
C63	C	1.142381	0.510423	-0.087633
H64	H	1.095308	1.100918	-0.504105
H65	H	1.242391	0.919264	-0.465362
O66	O	0.847627	0.644271	-0.281007
C67	C	0.838835	0.778567	-0.180539
C68	C	0.793515	0.704024	-0.236240
H69	H	0.795105	0.826881	-0.144318
H70	H	0.877453	0.834125	-0.216724
H71	H	0.877508	0.729819	-0.139297
H72	H	0.754799	0.752687	-0.277494
H73	H	0.754947	0.648463	-0.200006
H74	H	1.019740	1.102408	-0.428181
H75	H	1.019061	0.919713	-0.427801
O76	O	1.242071	0.377066	-0.676048
C77	C	1.348740	0.362854	-0.582814
C78	C	1.293071	0.437361	-0.628210
H79	H	1.389976	0.411572	-0.544113
H80	H	1.384961	0.314414	-0.626467
H81	H	1.312450	0.307404	-0.544211
H82	H	1.329300	0.492875	-0.666814
H83	H	1.256847	0.485727	-0.584514
O84	O	0.437485	0.644241	-0.280990
C85	C	0.446129	0.778628	-0.180588
C86	C	0.491531	0.704122	-0.236315
H87	H	0.489806	0.827076	-0.144465
H88	H	0.407506	0.729949	-0.139261
H89	H	0.407454	0.834070	-0.216827
H90	H	0.530249	0.648665	-0.200139
H91	H	0.530105	0.752867	-0.277643
H92	H	1.058124	1.099818	-0.279869
H93	H	1.273187	0.917767	-0.362706
H94	H	0.717413	0.701256	-0.238371
O95	O	1.250463	1.107629	-0.473510
C96	C	1.290703	1.063308	-0.605739
C97	C	1.262908	1.021706	-0.525053
H98	H	1.300758	0.993863	-0.647439
H99	H	1.348124	1.109019	-0.598109
H100	H	1.243746	1.117859	-0.631417
H101	H	1.309810	0.967114	-0.499330
H102	H	1.205468	0.976056	-0.532732
O103	O	1.169907	1.106698	-0.241735
C104	C	1.227447	1.258333	-0.177761
C105	C	1.170053	1.218199	-0.241443
H106	H	1.227572	1.348485	-0.177492
H107	H	1.289398	1.228145	-0.191032
H108	H	1.207819	1.228066	-0.117569
H109	H	1.189609	1.248449	-0.301660
H110	H	1.108115	1.248377	-0.228104
H111	H	1.000007	0.701238	-0.956111
O112	O	0.561184	0.711805	-0.230311
C113	C	0.535893	0.763103	-0.095803
C114	C	0.581341	0.688653	-0.151533
H115	H	0.552186	0.744427	-0.032100
H116	H	0.469802	0.751463	-0.104437
H117	H	0.552087	0.848599	-0.109623
H118	H	0.565214	0.603129	-0.137747
H119	H	0.647422	0.700385	-0.142888
O120	O	1.170986	0.913942	-0.241658
C121	C	1.266336	0.962079	-0.142646
C122	C	1.208201	1.001381	-0.205942
H123	H	1.296428	1.032753	-0.113741
H124	H	1.312706	0.909224	-0.171261
H125	H	1.232865	0.915152	-0.096038
H126	H	1.241605	1.048352	-0.252569
H127	H	1.161833	1.054180	-0.177271
O128	O	1.047439	0.912205	-0.275575
C129	C	0.914302	0.957146	-0.238870
C130	C	0.996026	0.998423	-0.263748
H131	H	0.872707	1.026831	-0.229317
H132	H	0.919927	0.910238	-0.181755
H133	H	0.889757	0.903794	-0.287180
H134	H	1.020618	1.051816	-0.215491
H135	H	0.990352	1.045271	-0.320884
H136	H	1.271288	1.100012	-0.357639
H137	H	0.841404	0.387812	-0.472697
H138	H	1.050507	0.633535	-0.682532
O139	O	1.242161	0.376751	-1.086344
C140	C	1.342452	0.242220	-1.077655
C141	C	1.286772	0.316815	-1.032278
H142	H	1.378523	0.193727	-1.033963
H143	H	1.383829	0.290831	-1.116272
H144	H	1.306179	0.186823	-1.116335
H145	H	1.322981	0.372227	-0.993555
H146	H	1.245394	0.268138	-0.993711
O147	O	0.724226	0.309558	-0.531271
C148	C	0.851433	0.249484	-0.576102
C149	C	0.805945	0.323944	-0.520411
H150	H	0.917510	0.261073	-0.567329
H151	H	0.835278	0.268196	-0.639836
H152	H	0.835179	0.163995	-0.562330
H153	H	0.822175	0.409458	-0.534112
H154	H	0.822104	0.305141	-0.456694
H155	H	1.284660	0.319725	-0.806411
O156	O	0.561493	0.309436	-0.531397
C157	C	0.570279	0.175059	-0.631805
C158	C	0.615603	0.249548	-0.576066
H159	H	0.614007	0.126604	-0.667923
H160	H	0.531658	0.223750	-0.673135
H161	H	0.531610	0.119621	-0.595576
H162	H	0.654315	0.305000	-0.612232
H163	H	0.654174	0.200791	-0.534734
O164	O	0.992130	0.711998	-0.799759
C165	C	0.981444	0.855186	-0.706562
C166	C	1.037048	0.780588	-0.752031
H167	H	1.017738	0.910674	-0.667977
H168	H	0.940144	0.806578	-0.667862
H169	H	0.945279	0.903580	-0.750238
H170	H	1.073264	0.732177	-0.708412
H171	H	1.078295	0.829256	-0.790744
O172	O	1.097833	0.913143	-0.515678
C173	C	1.128763	0.959146	-0.650036
C174	C	1.109747	0.999832	-0.566559
H175	H	1.138417	1.029213	-0.691192
H176	H	1.077517	0.909319	-0.672635
H177	H	1.184491	0.908772	-0.648063
H178	H	1.054042	1.050249	-0.568465
H179	H	1.161038	1.049601	-0.543991
O180	O	1.042781	0.644178	-1.086462
C181	C	1.032104	0.787228	-1.179677
C182	C	1.087699	0.712622	-1.134283
H183	H	1.068397	0.842569	-1.218364
H184	H	0.995960	0.835770	-1.136023
H185	H	0.990784	0.738516	-1.218293
H186	H	1.129066	0.761251	-1.095666
H187	H	1.123788	0.664076	-1.177980
O188	O	1.292598	0.308892	-0.962572
C189	C	1.331017	0.128566	-0.987909
C190	C	1.275375	0.203198	-0.942516
H191	H	1.317101	0.043096	-0.971723
H192	H	1.394756	0.147111	-0.971668
H193	H	1.322349	0.140248	-1.053991
H194	H	1.283972	0.191557	-0.876424
H195	H	1.211656	0.184635	-0.958822
H196	H	0.443992	0.387839	-0.472734
