data_functionalizedCrystal
_audit_creation_method	'MofGen! by Chris Wilmer'
_symmetry_space_group_name_H-M	'P1'
_symmetry_Int_Tables_number	1
_symmetry_cell_setting	triclinic
loop_
_symmetry_equiv_pos_as_xyz
  x,y,z
_cell_length_a	16.120566
_cell_length_b	18.215405
_cell_length_c	18.215399
_cell_angle_alpha	90.027541
_cell_angle_beta	92.919746
_cell_angle_gamma	87.118843
loop_
_atom_site_label
_atom_site_type_symbol
_atom_site_fract_x
_atom_site_fract_y
_atom_site_fract_z
Zn1	Zn	-1.274552	0.350108	-0.473157
Zn2	Zn	-0.941218	0.683441	-0.139823
Zn3	Zn	-0.607885	1.016774	0.193510
Zn4	Zn	-1.274453	0.473175	-0.350087
Zn5	Zn	-0.941120	0.806508	-0.016754
Zn6	Zn	-0.607786	1.139841	0.316580
Zn7	Zn	-1.135135	0.343883	-0.343865
Zn8	Zn	-0.801801	0.677217	-0.010532
Zn9	Zn	-0.468468	1.010550	0.322802
Zn10	Zn	-1.135101	0.466888	-0.466876
Zn11	Zn	-0.801768	0.800221	-0.133542
Zn12	Zn	-0.468434	1.133555	0.199791
O13	O	-1.204810	0.408513	-0.408496
O14	O	-0.871477	0.741847	-0.075163
O15	O	-0.538143	1.075180	0.258171
O16	O	-1.391204	0.371669	-0.462064
O17	O	-1.057871	0.705002	-0.128731
O18	O	-0.724538	1.038335	0.204603
O19	O	-1.255945	0.456050	-0.246276
O20	O	-0.922612	0.789383	0.087057
O21	O	-0.589278	1.122717	0.420391
O22	O	-1.153684	0.241727	-0.361041
O23	O	-0.820350	0.575060	-0.027707
O24	O	-0.487017	0.908394	0.305626
O25	O	-1.391132	0.462086	-0.371645
O26	O	-1.057799	0.795419	-0.038312
O27	O	-0.724465	1.128752	0.295022
O28	O	-1.256113	0.246300	-0.456031
O29	O	-0.922780	0.579634	-0.122697
O30	O	-0.589446	0.912967	0.210636
O31	O	-1.153588	0.361060	-0.241705
O32	O	-0.820255	0.694393	0.091629
O33	O	-0.486922	1.027727	0.424962
O34	O	-1.018464	0.354964	-0.354950
O35	O	-0.685131	0.688297	-0.021617
O36	O	-0.351798	1.021631	0.311717
O37	O	-1.153627	0.451371	-0.570694
O38	O	-0.820293	0.784704	-0.237361
O39	O	-0.486960	1.118037	0.095972
O40	O	-1.018440	0.445335	-0.445325
O41	O	-0.685106	0.778668	-0.111992
O42	O	-0.351773	1.112002	0.221341
O43	O	-1.256080	0.365573	-0.575309
O44	O	-0.922747	0.698906	-0.241976
O45	O	-0.589414	1.032240	0.091358
O46	O	-1.255913	0.575322	-0.365554
O47	O	-0.922579	0.908656	-0.032221
O48	O	-0.589246	1.241989	0.301112
O49	O	-1.153531	0.570704	-0.451359
O50	O	-0.820198	0.904037	-0.118025
O51	O	-0.486865	1.237370	0.215308
C52	C	-0.988202	0.398793	-0.398781
C53	C	-0.654869	0.732126	-0.065448
C54	C	-0.321535	1.065459	0.267885
C55	C	-0.895536	0.394652	-0.394643
C56	C	-0.562203	0.727985	-0.061309
C57	C	-0.228869	1.061318	0.272024
C58	C	-1.204861	0.408465	-0.600451
C59	C	-0.871528	0.741798	-0.267118
C60	C	-0.538194	1.075132	0.066215
C61	C	-1.204883	0.408444	-0.682251
C62	C	-0.871549	0.741778	-0.348918
C63	C	-0.538216	1.075111	-0.015585
C64	C	-1.204730	0.599716	-0.408467
C65	C	-0.871397	0.933049	-0.075134
C66	C	-0.538064	1.266383	0.258200
C67	C	-1.204772	0.681517	-0.408483
C68	C	-0.871439	1.014850	-0.075149
C69	C	-0.538106	1.348184	0.258184
C70	C	-0.725874	0.387074	-0.387093
C71	C	-0.392541	0.720408	-0.053760
C72	C	-0.059207	1.053741	0.279574
C73	C	-0.684587	0.430016	-0.429905
C74	C	-0.351253	0.763349	-0.096572
C75	C	-0.017920	1.096683	0.236762
C76	C	-0.590181	0.425800	-0.425704
C77	C	-0.256848	0.759133	-0.092371
C78	C	0.076486	1.092466	0.240962
C79	C	-0.820288	0.391289	-0.391293
C80	C	-0.486955	0.724623	-0.057959
C81	C	-0.153622	1.057956	0.275374
C82	C	-0.422264	0.418275	-0.418237
C83	C	-0.088931	0.751608	-0.084904
C84	C	0.244403	1.084942	0.248429
C85	C	-0.514930	0.422441	-0.422358
C86	C	-0.181597	0.755774	-0.089024
C87	C	0.151737	1.089107	0.244309
C88	C	-1.204913	0.216565	-0.408542
C89	C	-0.871580	0.549898	-0.075209
C90	C	-0.538246	0.883232	0.258124
C91	C	-1.204957	0.134768	-0.408562
C92	C	-0.871624	0.468101	-0.075229
C93	C	-0.538290	0.801435	0.258105
C94	C	-1.258133	0.872032	-0.458009
C95	C	-0.924799	1.205365	-0.124676
C96	C	-0.591466	1.538699	0.208658
C97	C	-1.258163	0.948892	-0.458024
C98	C	-0.924829	1.282226	-0.124691
C99	C	-0.591496	1.615559	0.208642
C100	C	-1.151591	0.944247	-0.359033
C101	C	-0.818257	1.277581	-0.025700
C102	C	-0.484924	1.610914	0.307633
C103	C	-1.151557	0.867388	-0.359022
C104	C	-0.818224	1.200722	-0.025689
C105	C	-0.484890	1.534055	0.307644
C106	C	-1.204833	0.831283	-0.408509
C107	C	-0.871499	1.164616	-0.075176
C108	C	-0.538166	1.497950	0.258157
C109	C	-1.204897	0.985002	-0.408535
C110	C	-0.871563	1.318335	-0.075202
C111	C	-0.538230	1.651669	0.258131
C112	C	-1.204929	1.068337	-0.408552
C113	C	-0.871596	1.401670	-0.075218
C114	C	-0.538262	1.735004	0.258115
C115	C	-1.204799	0.747943	-0.408494
C116	C	-0.871466	1.081276	-0.075161
C117	C	-0.538133	1.414609	0.258172
C118	C	-1.258249	0.363726	-0.872850
C119	C	-0.924916	0.697059	-0.539517
C120	C	-0.591583	1.030393	-0.206184
C121	C	-1.258259	0.363705	-0.949709
C122	C	-0.924926	0.697038	-0.616376
C123	C	-0.591593	1.030372	-0.283043
C124	C	-1.151575	0.453051	-0.944893
C125	C	-0.818241	0.786385	-0.611560
C126	C	-0.484908	1.119718	-0.278226
C127	C	-1.151561	0.453068	-0.868035
C128	C	-0.818228	0.786401	-0.534702
C129	C	-0.484894	1.119734	-0.201368
C130	C	-1.204903	0.408407	-0.832016
C131	C	-0.871570	0.741740	-0.498682
C132	C	-0.538237	1.075073	-0.165349
C133	C	-1.204927	0.408369	-0.985733
C134	C	-0.871593	0.741702	-0.652400
C135	C	-0.538260	1.075036	-0.319066
C136	C	-1.204937	0.408347	-1.069067
C137	C	-0.871604	0.741680	-0.735734
C138	C	-0.538270	1.075013	-0.402401
C139	C	-1.204892	0.408428	-0.748676
C140	C	-0.871559	0.741761	-0.415343
C141	C	-0.538225	1.075094	-0.082010
C142	C	-1.204807	0.408511	-0.217290
C143	C	-0.871474	0.741844	0.116044
C144	C	-0.538141	1.075177	0.449377
C145	C	-1.204947	0.408331	-0.135498
C146	C	-0.871614	0.741665	0.197836
C147	C	-0.538281	1.074998	0.531169
H148	H	-0.720140	0.469945	-0.469713
H149	H	-0.386807	0.803278	-0.136380
H150	H	-0.053473	1.136611	0.196954
C151	C	-0.677850	0.333143	-0.333314
C152	C	-0.344517	0.666476	0.000019
C153	C	-0.011184	0.999809	0.333353
H154	H	-0.619781	0.337358	-0.337507
H155	H	-0.286447	0.670691	-0.004174
H156	H	0.046886	1.004025	0.329160
H157	H	-0.692090	0.284330	-0.344783
H158	H	-0.358757	0.617663	-0.011450
H159	H	-0.025423	0.950997	0.321883
H160	H	-0.692038	0.344482	-0.284466
H161	H	-0.358704	0.677816	0.048868
H162	H	-0.025371	1.011149	0.382201
H163	H	-1.301512	0.842637	-0.498305
H164	H	-0.968178	1.175970	-0.164972
H165	H	-0.634845	1.509304	0.168361
H166	H	-1.108114	0.489451	-0.834786
H167	H	-0.774781	0.822784	-0.501453
H168	H	-0.441448	1.156118	-0.168119
C169	C	-1.316944	0.314560	-0.994625
C170	C	-0.983611	0.647894	-0.661291
C171	C	-0.650277	0.981227	-0.327958
H172	H	-1.348712	0.287970	-0.962163
H173	H	-1.015379	0.621304	-0.628830
H174	H	-0.682046	0.954637	-0.295496
H175	H	-1.285077	0.281056	-1.023183
H176	H	-0.951744	0.614390	-0.689850
H177	H	-0.618410	0.947723	-0.356516
H178	H	-1.353262	0.344340	-1.026230
H179	H	-1.019929	0.677674	-0.692897
H180	H	-0.686595	1.011007	-0.359564
H181	H	-1.108217	0.973654	-0.318742
H182	H	-0.774884	1.306987	0.014592
H183	H	-0.441550	1.640320	0.347925
H184	H	-1.301563	0.982067	-0.498333
H185	H	-0.968230	1.315400	-0.165000
H186	H	-0.634896	1.648734	0.168333
C187	C	-1.316915	0.314597	-0.833228
C188	C	-0.983582	0.647931	-0.499894
C189	C	-0.650249	0.981264	-0.166561
H190	H	-1.309274	0.321010	-0.781605
H191	H	-0.975941	0.654343	-0.448272
H192	H	-0.642608	0.987676	-0.114938
H193	H	-1.304740	0.264602	-0.845289
H194	H	-0.971407	0.597935	-0.511956
H195	H	-0.638074	0.931269	-0.178623
H196	H	-1.372931	0.327881	-0.848338
H197	H	-1.039598	0.661214	-0.515005
H198	H	-0.706264	0.994548	-0.181671
H199	H	-1.108147	0.489414	-0.974229
H200	H	-0.774814	0.822748	-0.640896
H201	H	-0.441481	1.156081	-0.307562
C202	C	-1.092926	0.822561	-0.304568
C203	C	-0.759592	1.155895	0.028765
C204	C	-0.426259	1.489228	0.362098
H205	H	-1.061210	0.855071	-0.275090
H206	H	-0.727877	1.188405	0.058243
H207	H	-0.394543	1.521738	0.391576
H208	H	-1.056569	0.790958	-0.331059
H209	H	-0.723236	1.124291	0.002274
H210	H	-0.389902	1.457624	0.335608
H211	H	-1.124834	0.794007	-0.273953
H212	H	-0.791500	1.127341	0.059380
H213	H	-0.458167	1.460674	0.392714
