data_functionalizedCrystal
_audit_creation_method	'MofGen! by Chris Wilmer'
_symmetry_space_group_name_H-M	'P1'
_symmetry_Int_Tables_number	1
_symmetry_cell_setting	triclinic
loop_
_symmetry_equiv_pos_as_xyz
  x,y,z
_cell_length_a	14.853567
_cell_length_b	19.188924
_cell_length_c	17.666332
_cell_angle_alpha	89.992981
_cell_angle_beta	89.993399
_cell_angle_gamma	83.388448
loop_
_atom_site_label
_atom_site_type_symbol
_atom_site_fract_x
_atom_site_fract_y
_atom_site_fract_z
O1	O	1.195862	0.091155	-0.062900
O2	O	0.933341	0.102014	-0.062913
O3	O	1.072181	-0.005046	-0.062897
O4	O	1.057023	0.198216	-0.062916
O5	O	1.072155	-0.005048	0.063000
O6	O	0.933316	0.102012	0.062984
O7	O	1.195836	0.091153	0.062997
Cu8	Cu	1.064574	0.096582	0.074486
Cu9	Cu	1.064604	0.096585	-0.074402
O10	O	1.056997	0.198213	0.062981
C11	C	0.899743	0.101521	0.000034
C12	C	0.799667	0.100047	0.000029
C13	C	1.071678	-0.031060	0.000052
C14	C	1.070208	-0.108570	0.000054
C15	C	0.387524	0.030218	0.000052
C16	C	0.365532	0.157408	0.000040
C17	C	0.459558	0.158794	0.000037
C18	C	0.517571	0.095891	0.000041
C19	C	0.481559	0.031602	0.000047
C20	C	0.495577	0.223082	0.000023
C21	C	0.589609	0.224471	0.000020
C22	C	0.647624	0.161567	0.000029
C23	C	0.611606	0.097276	0.000036
C24	C	0.669620	0.034373	0.000040
C25	C	0.633604	-0.029919	0.000053
C26	C	0.539575	-0.031301	0.000057
C27	C	0.741654	0.162949	0.000025
C28	C	0.763655	0.035758	0.000035
C29	C	1.069535	-0.144969	-0.068573
C30	C	1.068141	-0.217797	-0.068578
C31	C	1.067437	-0.254223	0.000046
C32	C	1.068105	-0.217814	0.068682
C33	C	1.069490	-0.144987	0.068686
N34	N	1.116555	-0.373724	0.051124
N35	N	1.115241	-0.442906	0.051116
C36	C	1.063261	-0.473646	0.000039
N37	N	1.012657	-0.432591	-0.051042
N38	N	1.013975	-0.363403	-0.051035
C39	C	1.065934	-0.333192	0.000050
C40	C	1.061075	-0.589014	-0.068599
C41	C	1.059675	-0.661842	-0.068602
C42	C	1.059648	-0.661859	0.068660
C43	C	1.061039	-0.589031	0.068661
C44	C	1.061757	-0.552613	0.000030
C45	C	1.229435	0.091646	0.000049
C46	C	1.329510	0.093121	0.000048
C47	C	1.057500	0.224227	0.000030
C48	C	1.058970	0.301737	0.000023
N49	N	1.064559	0.096580	0.179205
C50	C	1.119059	0.139007	0.218807
C51	C	1.119073	0.139006	0.298055
C52	C	1.064570	0.096584	0.337697
C53	C	1.010068	0.054148	0.298085
C54	C	1.010062	0.054146	0.218839
N55	N	0.985613	0.094602	0.462133
N56	N	0.985621	0.094608	0.537414
C57	C	1.064585	0.096588	0.576461
N58	N	1.143542	0.098575	0.537385
N59	N	1.143533	0.098573	0.462097
C60	C	1.064571	0.096582	0.423626
C61	C	1.119104	0.139016	0.701993
C62	C	1.119120	0.139010	0.781242
C63	C	1.010106	0.054156	0.781271
C64	C	1.010099	0.054159	0.702023
C65	C	1.064596	0.096593	0.662389
N66	N	1.064618	0.096587	0.820879
H67	H	0.680851	-0.081134	0.000051
H68	H	1.059068	-0.691516	0.124536
H69	H	0.965716	0.019613	0.669779
H70	H	0.965680	0.019595	0.186596
N71	N	1.061728	-0.551857	0.138769
N72	N	1.061096	-0.584385	0.200038
H73	H	1.061580	-0.558131	0.249556
N74	N	1.070271	-0.107762	-0.138670
N75	N	1.134582	-0.073497	-0.153976
H76	H	1.135101	-0.047218	-0.203482
H77	H	0.618924	0.276822	0.000010
H78	H	1.059123	-0.691477	-0.124488
H79	H	0.510241	-0.083645	0.000085
H80	H	1.163506	0.173557	0.813485
N81	N	1.174716	0.182365	0.178335
N82	N	1.223365	0.220252	0.213710
H83	H	1.262669	0.250878	0.185126
H84	H	0.358196	-0.022127	0.000065
H85	H	0.770974	0.215295	0.000016
H86	H	1.163453	0.173557	0.330305
H87	H	0.810885	-0.015466	0.000041
N88	N	0.954429	0.010834	0.821765
N89	N	0.894722	0.038017	0.865990
H90	H	0.855398	0.007418	0.894593
N91	N	0.306264	0.221651	0.000020
N92	N	0.222311	0.220405	0.000014
H93	H	0.180448	0.265780	-0.000002
N94	N	1.174801	0.182336	0.661505
N95	N	1.258847	0.174077	0.670345
H96	H	1.298190	0.204666	0.641750
N97	N	0.436308	0.287325	-0.000004
N98	N	0.352356	0.286076	-0.000007
H99	H	0.310491	0.331450	-0.000032
H100	H	1.067529	-0.247477	0.124556
N101	N	1.067451	-0.254977	-0.138689
N102	N	1.068088	-0.222453	-0.199959
H103	H	1.067601	-0.248709	-0.249475
N104	N	1.070172	-0.107812	0.138796
N105	N	1.069535	-0.140339	0.200065
H106	H	1.070017	-0.114084	0.249583
N107	N	0.954405	0.010816	0.338587
N108	N	0.954416	0.010824	0.409342
H109	H	0.915107	-0.019783	0.437946
H110	H	1.061655	-0.559360	-0.124483
