data_functionalizedCrystal
_audit_creation_method	'MofGen! by Chris Wilmer'
_symmetry_space_group_name_H-M	'P1'
_symmetry_Int_Tables_number	1
_symmetry_cell_setting	triclinic
loop_
_symmetry_equiv_pos_as_xyz
  x,y,z
_cell_length_a	19.288859
_cell_length_b	12.837942
_cell_length_c	18.366186
_cell_angle_alpha	89.994829
_cell_angle_beta	89.990083
_cell_angle_gamma	88.981333
loop_
_atom_site_label
_atom_site_type_symbol
_atom_site_fract_x
_atom_site_fract_y
_atom_site_fract_z
O1	O	0.930181	0.129245	-0.060564
O2	O	0.729111	0.146691	-0.060562
O3	O	0.825187	-0.012914	-0.060558
O4	O	0.834104	0.288850	-0.060567
O5	O	0.825169	-0.012922	0.060541
O6	O	0.729092	0.146683	0.060537
O7	O	0.930162	0.129237	0.060536
Zn8	Zn	0.829624	0.137959	0.079764
Zn9	Zn	0.829649	0.137969	-0.079790
O10	O	0.834086	0.288842	0.060532
C11	C	0.703187	0.146127	-0.000012
C12	C	0.625968	0.144445	-0.000011
C13	C	0.067545	0.226716	-0.000015
C14	C	0.140100	0.228305	-0.000019
C15	C	0.178412	0.134657	-0.000015
C16	C	0.144164	0.039411	-0.000025
C17	C	0.071610	0.037825	-0.000029
C18	C	0.294907	0.064811	0.042417
C19	C	0.367459	0.066402	0.042425
C20	C	0.402192	0.139547	-0.000007
C21	C	0.364363	0.211118	-0.042438
C22	C	0.291810	0.209532	-0.042441
C23	C	0.257085	0.136367	-0.000011
C24	C	0.515105	0.236509	-0.000006
C25	C	0.587661	0.238095	-0.000014
C26	C	0.591723	0.049198	-0.000014
C27	C	0.519168	0.047615	-0.000012
C28	C	0.480863	0.141274	-0.000005
C29	C	0.822166	-0.051524	-0.000009
C30	C	0.813182	-0.166559	-0.000010
C31	C	0.921187	-0.408025	-0.000026
C32	C	0.912749	-0.516111	-0.000027
C33	C	0.787868	-0.490819	-0.000019
C34	C	0.796306	-0.382733	-0.000018
C35	C	0.862968	-0.341340	-0.000020
C36	C	0.871405	-0.233252	-0.000014
C37	C	0.746525	-0.207962	-0.000011
C38	C	0.738087	-0.316049	-0.000012
C39	C	0.956086	0.129802	-0.000016
C40	C	1.033305	0.131483	-0.000021
C41	C	0.837107	0.327452	-0.000019
C42	C	0.846091	0.442487	-0.000023
N43	N	0.829613	0.137951	0.188655
N44	N	0.829666	0.137969	-0.188681
C45	C	0.872173	0.067313	0.226757
C46	C	0.872177	0.067308	0.302985
C47	C	0.829629	0.137960	0.341107
C48	C	0.787060	0.208604	0.302996
C49	C	0.787052	0.208599	0.226770
C50	C	0.826778	0.232383	0.461865
C51	C	0.826791	0.232388	0.538090
C52	C	0.829649	0.137973	0.576215
C53	C	0.832509	0.043548	0.538106
C54	C	0.832501	0.043543	0.461879
C55	C	0.829632	0.137972	0.423762
C56	C	0.872216	0.067324	0.696972
C57	C	0.872215	0.067318	0.773201
C58	C	0.787102	0.208622	0.773211
C59	C	0.787099	0.208619	0.696984
C60	C	0.829660	0.137971	0.658868
H61	H	0.036362	0.302981	-0.000013
H62	H	0.960158	-0.570403	-0.000035
H63	H	0.975466	-0.374323	-0.000021
N64	N	0.715975	-0.535480	-0.000022
H65	H	0.690137	-0.511156	0.044871
H66	H	0.690210	-0.511119	-0.044942
N67	N	0.473788	0.337524	-0.000011
H68	H	0.443602	0.341076	-0.044903
H69	H	0.443629	0.341015	0.044910
H70	H	0.699118	-0.153655	0.000000
N71	N	0.408257	-0.010777	0.088195
H72	H	0.375246	-0.057361	0.115070
H73	H	0.439327	-0.054547	0.055656
H74	H	0.925685	-0.199552	-0.000013
N75	N	0.741193	0.284807	0.655882
H76	H	0.714238	0.329565	0.691597
H77	H	0.770801	0.330520	0.624240
H78	H	0.752393	0.266123	0.195747
H79	H	0.392641	0.270682	-0.076988
N80	N	0.177043	0.331024	-0.000013
H81	H	0.141767	0.390114	-0.000010
H82	H	0.207047	0.335780	0.044883
H83	H	0.824467	0.309275	0.569113
N84	N	0.666189	-0.360693	-0.000001
H85	H	0.640362	-0.336346	-0.044888
H86	H	0.669734	-0.439277	0.000025
N87	N	0.918116	-0.008873	0.655855
H88	H	0.945075	-0.053630	0.691563
H89	H	0.888500	-0.054584	0.624238
N90	N	0.257448	-0.014091	0.088181
H91	H	0.292419	-0.059183	0.115064
H92	H	0.226517	0.023379	0.124418
H93	H	0.906836	0.009784	0.334013
H94	H	0.906827	0.009785	0.195726
H95	H	0.834828	-0.033341	0.430854
H96	H	0.261013	0.267806	-0.076991
H97	H	0.834836	-0.033334	0.569145
H98	H	0.491289	-0.029934	-0.000013
H99	H	0.906871	0.009790	0.804224
N100	N	0.624596	0.340815	-0.000021
H101	H	0.589317	0.399902	-0.000018
H102	H	0.654607	0.345583	0.044869
N103	N	0.741203	0.284819	0.814318
H104	H	0.747664	0.274102	0.868390
H105	H	0.754084	0.358306	0.800986
H106	H	0.824439	0.309272	0.430830
N107	N	0.034674	-0.064894	-0.000035
H108	H	0.069951	-0.123983	-0.000035
H109	H	0.004653	-0.069672	0.044858
N110	N	0.633034	-0.051812	-0.000017
H111	H	0.684193	-0.036358	-0.000016
H112	H	0.621232	-0.093340	0.044875
N113	N	0.185481	-0.061597	-0.000024
H114	H	0.236639	-0.046142	-0.000018
H115	H	0.173675	-0.103124	0.044868
N116	N	0.741171	0.284810	0.344112
H117	H	0.714206	0.329560	0.308404
H118	H	0.707855	0.245253	0.375753
