data_functionalizedCrystal
_audit_creation_method	'MofGen! by Chris Wilmer'
_symmetry_space_group_name_H-M	'P1'
_symmetry_Int_Tables_number	1
_symmetry_cell_setting	triclinic
loop_
_symmetry_equiv_pos_as_xyz
  x,y,z
_cell_length_a	10.908937
_cell_length_b	14.519731
_cell_length_c	9.482900
_cell_angle_alpha	99.351580
_cell_angle_beta	83.036371
_cell_angle_gamma	71.887404
loop_
_atom_site_label
_atom_site_type_symbol
_atom_site_fract_x
_atom_site_fract_y
_atom_site_fract_z
O1	O	1.723475	-0.159880	-0.120932
O2	O	1.349787	-0.087892	-0.120928
O3	O	1.546522	-0.259650	-0.120917
O4	O	1.526740	0.011878	-0.120943
O5	O	1.506561	-0.224647	0.120873
O6	O	1.309826	-0.052889	0.120862
O7	O	1.683514	-0.124877	0.120858
Cu8	Cu	1.493021	-0.085687	0.142938
Cu9	Cu	1.540280	-0.127082	-0.143007
O10	O	1.486779	0.046881	0.120847
C11	C	1.281981	-0.063663	-0.000032
C12	C	1.139478	-0.043628	-0.000030
C13	C	0.943013	-0.096038	-0.000051
C14	C	1.090295	-0.116744	-0.000031
C15	C	1.525615	-0.276365	-0.000021
C16	C	1.522836	-0.378316	-0.000020
C17	C	1.520579	-0.461111	-0.000024
C18	C	1.517760	-0.564986	-0.000035
C19	C	1.515523	-0.647780	-0.000044
C20	C	1.512704	-0.751661	-0.000053
C21	C	1.751320	-0.149106	-0.000041
C22	C	1.893825	-0.169143	-0.000052
C23	C	1.507687	0.063595	-0.000051
C24	C	1.510467	0.165545	-0.000062
N25	N	1.459791	-0.056574	0.344056
N26	N	1.573520	-0.156205	-0.344126
C27	C	1.530470	-0.118499	0.416259
C28	C	1.502831	-0.094270	0.583675
H29	H	1.157218	-0.194667	-0.000026
H30	H	1.378815	0.014377	0.406181
H31	H	1.421849	-0.023315	0.645795
F32	F	1.052015	0.058222	-0.000056
F33	F	1.636079	-0.211369	0.335063
F34	F	0.981297	-0.270990	-0.000044
F35	F	1.679579	-0.248832	0.574687
H36	H	0.876089	-0.018122	-0.000074
