data_functionalizedCrystal
_audit_creation_method	'MofGen! by Chris Wilmer'
_symmetry_space_group_name_H-M	'P1'
_symmetry_Int_Tables_number	1
_symmetry_cell_setting	triclinic
loop_
_symmetry_equiv_pos_as_xyz
  x,y,z
_cell_length_a	16.120530
_cell_length_b	12.645330
_cell_length_c	16.120297
_cell_angle_alpha	92.874885
_cell_angle_beta	90.128140
_cell_angle_gamma	87.108294
loop_
_atom_site_label
_atom_site_type_symbol
_atom_site_fract_x
_atom_site_fract_y
_atom_site_fract_z
Zn1	Zn	1.247519	-0.537082	-0.534581
Zn2	Zn	1.254495	-0.705845	-0.395529
Zn3	Zn	1.115507	-0.519169	-0.388499
Zn4	Zn	1.108451	-0.704868	-0.527498
O5	O	1.181493	-0.616741	-0.461527
O6	O	1.364812	-0.567375	-0.522042
O7	O	1.241930	-0.673993	-0.278231
O8	O	1.133052	-0.373201	-0.407899
O9	O	1.369937	-0.691364	-0.419881
O10	O	1.230041	-0.386362	-0.515225
O11	O	1.139816	-0.536843	-0.273066
O12	O	0.998204	-0.535896	-0.401031
O13	O	1.121027	-0.689700	-0.644804
O14	O	0.993020	-0.672329	-0.503153
O15	O	1.223200	-0.566428	-0.650008
O16	O	1.235089	-0.854059	-0.413013
O17	O	1.127791	-0.853342	-0.509970
C18	C	0.965439	-0.602064	-0.450561
C19	C	0.873009	-0.595812	-0.445890
C20	C	0.703778	-0.584372	-0.437368
C21	C	0.660046	-0.649192	-0.485747
C22	C	0.565880	-0.642827	-0.481005
C23	C	0.797952	-0.590736	-0.442108
C24	C	1.181453	-0.892167	-0.461505
C25	C	1.181510	-1.010002	-0.461528
C26	C	1.248914	-1.177958	-0.400396
C27	C	1.249115	-1.055422	-0.400564
C28	C	1.200830	-1.061367	-0.550384
C29	C	1.201356	-1.183979	-0.550068
C30	C	1.094716	-1.169992	-0.434665
C31	C	1.095237	-1.047295	-0.432721
C32	C	1.398391	-0.631476	-0.472536
C33	C	1.490820	-0.637756	-0.477228
C34	C	1.170548	-0.629953	-0.678422
C35	C	1.165884	-0.635584	-0.770849
C36	C	1.181556	-0.340242	-0.461568
C37	C	1.181582	-0.222415	-0.461586
C38	C	1.157338	-0.645837	-0.940074
C39	C	1.205813	-0.587338	-0.983840
C40	C	1.201058	-0.593044	-1.078003
C41	C	1.162092	-0.640133	-0.845903
C42	C	1.192444	-0.603507	-0.245479
C43	C	1.197269	-0.597589	-0.153060
H44	H	0.670499	-0.524104	-0.392392
H45	H	1.044603	-1.198637	-0.479177
O46	O	1.103620	-0.710846	-0.979644
C47	C	1.061939	-0.890029	-1.004408
C48	C	1.122811	-0.816523	-0.959518
H49	H	1.077443	-0.975487	-0.988167
H50	H	0.995716	-0.865945	-0.983968
H51	H	1.067628	-0.883074	-1.074379
H52	H	1.117196	-0.823442	-0.889540
H53	H	1.189008	-0.840629	-0.980027
H54	H	1.313002	-1.213986	-0.418372
H55	H	1.237537	-1.202521	-0.334469
O56	O	1.259611	-0.522393	-0.944311
C57	C	1.364747	-0.395668	-0.958622
C58	C	1.303845	-0.469146	-1.003497
H59	H	1.400539	-0.352615	-1.006454
H60	H	1.328641	-0.335158	-0.916036
H61	H	1.410191	-0.444900	-0.920145
H62	H	1.258387	-0.420001	-1.042017
H63	H	1.340005	-0.529660	-1.046032
H64	H	1.264719	-1.218021	-0.572354
O65	O	0.699876	-0.721073	-0.539334
C66	C	0.831409	-0.792961	-0.593033
C67	C	0.786404	-0.711526	-0.532300
H68	H	0.901374	-0.785255	-0.587379
H69	H	0.815181	-0.876413	-0.577471
H70	H	0.810979	-0.777450	-0.659261
H71	H	0.806810	-0.726938	-0.466051
H72	H	0.802634	-0.628101	-0.547933
H73	H	1.153089	-1.032173	-0.597388
O74	O	1.235347	-1.013842	-0.322075
C75	C	1.209998	-1.049313	-0.179102
C76	C	1.225593	-1.096534	-0.267953
H77	H	1.202091	-1.116145	-0.135322
H78	H	1.265073	-1.001604	-0.158034
H79	H	1.151222	-0.995212	-0.178185
H80	H	1.284342	-1.150680	-0.268938
H81	H	1.170473	-1.144180	-0.288984
O82	O	1.326011	-1.026874	-0.422285
C83	C	1.465530	-1.086027	-0.461481
C84	C	1.378477	-1.118503	-0.436905
H85	H	1.507978	-1.160089	-0.473291
H86	H	1.460925	-1.039645	-0.520302
H87	H	1.492150	-1.034287	-0.408980
H88	H	1.351807	-1.170279	-0.489351
H89	H	1.383135	-1.164830	-0.378060
H90	H	1.154220	-1.213663	-0.597471
H91	H	1.263450	-1.036079	-0.572950
H92	H	1.076289	-1.195686	-0.370767
H93	H	1.080589	-1.013131	-0.367308
H94	H	1.042724	-1.015933	-0.473662
