data_functionalizedCrystal
_audit_creation_method	'MofGen! by Chris Wilmer'
_symmetry_space_group_name_H-M	'P1'
_symmetry_Int_Tables_number	1
_symmetry_cell_setting	triclinic
loop_
_symmetry_equiv_pos_as_xyz
  x,y,z
_cell_length_a	8.559649
_cell_length_b	8.634740
_cell_length_c	7.088929
_cell_angle_alpha	82.809607
_cell_angle_beta	84.675669
_cell_angle_gamma	94.825514
loop_
_atom_site_label
_atom_site_type_symbol
_atom_site_fract_x
_atom_site_fract_y
_atom_site_fract_z
O1	O	-2.098506	-0.033900	-0.158989
O2	O	-1.598506	0.466100	0.341011
O3	O	-1.645343	0.044311	-0.158990
O4	O	-1.145343	0.544311	0.341010
O5	O	-1.850474	-0.216731	-0.158985
O6	O	-1.350474	0.283269	0.341015
O7	O	-1.893375	0.227141	-0.158994
O8	O	-1.393375	0.727141	0.341006
O9	O	-1.877877	-0.251687	0.158991
O10	O	-1.377877	0.248313	0.658991
O11	O	-1.672746	0.009355	0.158986
O12	O	-1.172746	0.509355	0.658986
O13	O	-2.125909	-0.068856	0.158987
O14	O	-1.625909	0.431144	0.658987
Cu15	Cu	-1.901829	-0.032942	0.188020
Cu16	Cu	-1.401829	0.467058	0.688020
Cu17	Cu	-1.869422	0.008397	-0.188023
Cu18	Cu	-1.369422	0.508397	0.311977
O19	O	-1.920778	0.192185	0.158982
O20	O	-1.420778	0.692185	0.658982
C21	C	-1.600427	0.032760	-0.000002
C22	C	-1.100427	0.532760	0.499998
C23	C	-1.425763	0.050402	-0.000003
C24	C	-0.925763	0.550402	0.499997
C25	C	-1.854456	-0.290508	0.000000
C26	C	-1.354456	0.209492	0.500000
C27	C	-1.825477	-0.458258	-0.000008
C28	C	-1.325477	0.041742	0.499992
C29	C	-1.170825	-0.057305	-0.000001
C30	C	-0.670825	0.442695	0.499999
C31	C	-1.345489	-0.074948	-0.000002
C32	C	-0.845489	0.425052	0.499998
C33	C	-1.916795	0.265963	-0.000007
C34	C	-1.416795	0.765963	0.499993
C35	C	-1.945773	0.433715	-0.000011
C36	C	-1.445773	0.933715	0.499989
N37	N	-1.924634	-0.062021	0.452509
N38	N	-1.424634	0.437979	0.952509
N39	N	-1.846628	0.037462	-0.452512
N40	N	-1.346628	0.537462	0.047488
H41	H	-1.360857	0.171226	-0.000014
H42	H	-0.860857	0.671226	0.499986
Br43	Br	-1.453647	-0.276321	-0.000018
Br44	Br	-0.953647	0.223679	0.499982
H45	H	-2.005498	-0.165111	0.534167
H46	H	-1.505498	0.334889	1.034167
Br47	Br	-2.154390	-0.506542	-0.000029
Br48	Br	-1.654390	-0.006542	0.499971
H49	H	-1.700307	-0.494111	-0.000021
H50	H	-1.200307	0.005889	0.499979
H51	H	-1.765783	0.140555	0.465840
H52	H	-1.265783	0.640555	0.965840
