data_functionalizedCrystal
_audit_creation_method	'MofGen! by Chris Wilmer'
_symmetry_space_group_name_H-M	'P1'
_symmetry_Int_Tables_number	1
_symmetry_cell_setting	triclinic
loop_
_symmetry_equiv_pos_as_xyz
  x,y,z
_cell_length_a	35.288094
_cell_length_b	35.282915
_cell_length_c	35.277630
_cell_angle_alpha	119.997859
_cell_angle_beta	89.997747
_cell_angle_gamma	120.014473
loop_
_atom_site_label
_atom_site_type_symbol
_atom_site_fract_x
_atom_site_fract_y
_atom_site_fract_z
O1	O	0.323087	0.334366	0.594405
O2	O	0.267958	0.256742	0.461658
O3	O	0.267979	0.334364	0.539279
O4	O	0.323065	0.256744	0.516785
O5	O	0.204933	0.271318	0.539279
O6	O	0.204911	0.193696	0.461658
O7	O	0.260040	0.271320	0.594405
Zn8	Zn	0.222466	0.222498	0.528032
Zn9	Zn	0.305532	0.305564	0.528032
O10	O	0.260019	0.193698	0.516785
C11	C	0.096102	0.534537	0.562173
C12	C	0.119008	0.511836	0.562494
C13	C	0.027460	0.465894	0.562173
C14	C	0.050470	0.443297	0.562494
C15	C	0.096083	0.465895	0.562173
C16	C	0.050489	0.511835	0.562494
C17	C	0.138050	0.687640	0.549746
C18	C	0.159661	0.731003	0.546232
C19	C	0.204861	0.752755	0.544468
C20	C	0.228293	0.799766	0.540650
C21	C	0.228450	0.731144	0.546222
C22	C	0.206841	0.687789	0.549742
C23	C	0.161638	0.666037	0.551504
C24	C	0.207224	0.411553	0.549746
C25	C	0.228969	0.386434	0.546232
C26	C	0.205509	0.339463	0.544466
C27	C	0.229078	0.312219	0.540650
C28	C	0.160302	0.317614	0.546220
C29	C	0.138562	0.342737	0.549742
C30	C	0.162028	0.389708	0.551502
C31	C	-0.138038	0.411549	0.549746
C32	C	-0.184911	0.386425	0.546226
C33	C	-0.208433	0.339454	0.544462
C34	C	-0.259255	0.312209	0.540643
C35	C	-0.185082	0.317606	0.546214
C36	C	-0.138212	0.342730	0.549732
C37	C	-0.114692	0.389705	0.551502
C38	C	0.138209	0.619022	0.555316
C39	C	0.119532	0.581548	0.558357
C40	C	-0.023360	0.438654	0.558357
C41	C	-0.063870	0.416942	0.555316
C42	C	0.119657	0.438655	0.558357
C43	C	0.138448	0.416944	0.555316
O44	O	-0.408731	0.256734	0.516784
O45	O	-0.276004	0.334357	0.539278
O46	O	-0.353621	0.256734	0.461658
O47	O	-0.331114	0.334357	0.594404
O48	O	-0.353637	0.193689	0.461658
O49	O	-0.276020	0.271312	0.539278
O50	O	-0.408747	0.193689	0.516784
Zn51	Zn	-0.342386	0.222491	0.528031
Zn52	Zn	-0.342365	0.305555	0.528031
O53	O	-0.331130	0.271312	0.594405
C54	C	0.095962	0.061878	0.089504
C55	C	0.050341	0.015938	0.066586
C56	C	0.095963	0.061875	0.158146
C57	C	0.050342	0.015936	0.135124
C58	C	0.027319	-0.006765	0.089504
C59	C	0.118881	0.084473	0.135123
C60	C	0.207154	0.185494	0.047590
C61	C	0.228913	0.210767	0.025985
C62	C	0.205457	0.189077	-0.019222
C63	C	0.229044	0.216482	-0.042646
C64	C	0.160243	0.142111	-0.042823
C65	C	0.138490	0.116838	-0.021220
C66	C	0.161948	0.138532	0.023988
C67	C	-0.138210	-0.159863	-0.021681
C68	C	-0.185086	-0.203225	-0.043438
C69	C	-0.208603	-0.224977	-0.019984
C70	C	-0.259430	-0.271986	-0.043567
C71	C	-0.185238	-0.203367	0.025228
C72	C	-0.138361	-0.160013	0.046981
C73	C	-0.114851	-0.138261	0.023522
C74	C	0.207158	0.185486	0.323676
C75	C	0.228916	0.210760	0.370555
C76	C	0.205461	0.189068	0.394070
C77	C	0.229049	0.216470	0.444900
C78	C	0.160249	0.142106	0.370707
C79	C	0.138493	0.116835	0.323831
C80	C	0.161954	0.138527	0.300317
C81	C	0.138355	0.111127	0.047411
C82	C	0.119551	0.089283	0.066081
C83	C	0.119553	0.089278	0.208973
C84	C	0.138358	0.111121	0.249488
C85	C	-0.023508	-0.053774	0.065917
C86	C	-0.064022	-0.091247	0.047115
C87	C	0.364424	0.071312	0.504477
C88	C	0.341025	0.024530	0.507697
C89	C	0.410038	0.094013	0.504157
C90	C	0.364447	0.139956	0.504477
C91	C	0.341071	0.166568	0.507696
C92	C	0.410060	0.162552	0.504157
C93	C	0.433068	0.139954	0.504477
C94	C	0.483063	0.166563	0.507696
C95	C	0.341521	0.094015	0.504157
C96	C	0.523454	0.188062	0.510298
C97	C	0.322121	-0.013265	0.510299
C98	C	0.322186	0.188068	0.510298
C99	C	0.574126	0.215032	0.513561
C100	C	0.298405	-0.060681	0.513562
C101	C	0.298494	0.215040	0.513561
O102	O	0.322959	0.925405	0.516785
O103	O	0.267817	0.815156	0.539279
O104	O	0.267819	0.815152	0.461659
O105	O	0.322957	0.925408	0.594405
O106	O	0.204791	0.815153	0.461659
O107	O	0.204789	0.815156	0.539279
O108	O	0.259932	0.925405	0.516785
Zn109	Zn	0.222354	0.870281	0.528032
Zn110	Zn	0.305395	0.870280	0.528032
O111	O	0.259930	0.925409	0.594405
O112	O	-0.408927	-0.397622	-0.074547
O113	O	-0.276190	-0.287377	-0.019426
O114	O	-0.353782	-0.287370	-0.019417
O115	O	-0.331335	-0.397629	-0.074556
O116	O	-0.353783	-0.287368	-0.082463
O117	O	-0.276191	-0.287375	-0.082472
O118	O	-0.408928	-0.397620	-0.137593
Zn119	Zn	-0.342560	-0.342497	-0.120042
Zn120	Zn	-0.342558	-0.342499	-0.036977
O121	O	-0.331336	-0.397627	-0.137602
O122	O	0.260035	0.271335	-0.137298
O123	O	0.204903	0.193713	-0.082176
O124	O	0.204929	0.271338	-0.082167
O125	O	0.260009	0.193711	-0.137307
O126	O	0.267977	0.334382	-0.019122
O127	O	0.267950	0.256757	-0.019131
O128	O	0.323083	0.334379	-0.074252
Zn129	Zn	0.305526	0.305578	-0.036682
Zn130	Zn	0.222459	0.222515	-0.119747
O131	O	0.323056	0.256754	-0.074261
C132	C	0.433160	0.456757	0.821268
C133	C	0.483160	0.503540	0.844660
C134	C	0.410137	0.434056	0.844187
C135	C	0.364519	0.388111	0.752624
C136	C	0.341127	0.361498	0.702621
C137	C	0.341600	0.365515	0.775647
C138	C	0.364518	0.388114	0.821268
C139	C	0.341125	0.361505	0.844661
C140	C	0.410138	0.434053	0.775647
C141	C	0.322227	0.340007	0.863559
C142	C	0.523556	0.541336	0.863557
C143	C	0.322229	0.339997	0.662223
C144	C	0.298517	0.313037	0.887268
C145	C	0.574234	0.588753	0.887266
C146	C	0.298521	0.313024	0.611543
C147	C	-0.318812	0.388093	0.821263
C148	C	-0.322028	0.361487	0.844657
C149	C	-0.318492	0.434025	0.844179
C150	C	-0.318814	0.388090	0.752619
C151	C	-0.322034	0.361482	0.702617
C152	C	-0.318495	0.434022	0.775639
C153	C	-0.318815	0.456721	0.821258
C154	C	-0.322035	0.503493	0.844646
C155	C	-0.318492	0.365498	0.775644
C156	C	-0.324638	0.541280	0.863541
C157	C	-0.324628	0.339992	0.863556
C158	C	-0.324636	0.339984	0.662221
C159	C	-0.327902	0.588686	0.887245
C160	C	-0.327889	0.313026	0.887266
C161	C	-0.327899	0.313015	0.611542
C162	C	0.364440	1.139970	0.821269
C163	C	0.341064	1.166582	0.844662
C164	C	0.410052	1.162567	0.844188
C165	C	0.364419	1.071323	0.752624
C166	C	0.341021	1.024538	0.702621
C167	C	0.410032	1.094024	0.775647
C168	C	0.433061	1.139967	0.821268
C169	C	0.483055	1.166577	0.844659
C170	C	0.341515	1.094027	0.775648
C171	C	0.523446	1.188076	0.863556
C172	C	0.322179	1.188083	0.863561
C173	C	0.322118	0.986742	0.662224
C174	C	0.574117	1.215047	0.887264
C175	C	0.298486	1.215057	0.887270
C176	C	0.298403	0.939323	0.611543
C177	C	-0.376575	-0.006506	0.089493
C178	C	-0.376890	0.016194	0.066573
C179	C	-0.376558	0.062139	0.158137
C180	C	-0.376873	0.084734	0.135113
C181	C	-0.376558	0.062134	0.089491
C182	C	-0.376890	0.016198	0.135114
C183	C	-0.364190	-0.159607	0.047580
C184	C	-0.360688	-0.202970	0.025975
C185	C	-0.358930	-0.224724	-0.019233
C186	C	-0.355125	-0.271735	-0.042658
C187	C	-0.360678	-0.203115	-0.042836
C188	C	-0.364186	-0.159760	-0.021233
C189	C	-0.365942	-0.138006	0.023977
C190	C	-0.364121	0.116469	-0.021702
C191	C	-0.360602	0.141585	-0.043462
C192	C	-0.358824	0.188557	-0.020009
C193	C	-0.355002	0.215798	-0.043594
C194	C	-0.360572	0.210407	0.025206
C195	C	-0.364099	0.185286	0.046961
C196	C	-0.365870	0.138315	0.023502
C197	C	-0.364120	0.116493	0.323673
C198	C	-0.360595	0.141618	0.370553
C199	C	-0.358820	0.188590	0.394068
C200	C	-0.354996	0.215836	0.444899
C201	C	-0.360566	0.210435	0.370703
C202	C	-0.364089	0.185309	0.323825
C203	C	-0.365870	0.138334	0.300312
C204	C	-0.369741	-0.090991	0.047400
C205	C	-0.372772	-0.053517	0.066070
C206	C	-0.372736	0.089382	0.208965
C207	C	-0.369690	0.111096	0.249481
C208	C	-0.372736	0.089372	0.065902
C209	C	-0.369691	0.111082	0.047097
O210	O	-0.353597	0.256753	0.980872
O211	O	-0.331111	0.334365	0.925746
O212	O	-0.408719	0.256729	0.925738
O213	O	-0.275989	0.334388	0.980879
O214	O	-0.408718	0.193694	0.862695
O215	O	-0.331110	0.271330	0.862702
O216	O	-0.353596	0.193718	0.917828
Zn217	Zn	-0.342353	0.222516	0.880255
Zn218	Zn	-0.342354	0.305567	0.963318
O219	O	-0.275988	0.271354	0.917835
C220	C	0.027471	0.465875	0.089492
C221	C	0.050481	0.443277	0.066574
C222	C	0.096112	0.534521	0.158137
C223	C	0.119017	0.511818	0.135115
C224	C	0.096094	0.465875	0.089494
C225	C	0.050499	0.511818	0.135113
C226	C	-0.138027	0.411530	0.047572
C227	C	-0.184896	0.386410	0.025966
C228	C	-0.208418	0.339437	-0.019242
C229	C	-0.259240	0.312192	-0.042669
C230	C	-0.185065	0.317588	-0.042844
C231	C	-0.138197	0.342712	-0.021240
C232	C	-0.114678	0.389685	0.023971
C233	C	0.137965	0.342256	-0.021695
C234	C	0.159557	0.316984	-0.043453
C235	C	0.204755	0.338672	-0.019998
C236	C	0.228168	0.311271	-0.043582
C237	C	0.228362	0.385641	0.025216
C238	C	0.206774	0.410917	0.046970
C239	C	0.161570	0.389217	0.023509
C240	C	0.138055	0.687631	0.323672
C241	C	0.159663	0.730992	0.370552
C242	C	0.204863	0.752745	0.394069
C243	C	0.228294	0.799758	0.444900
C244	C	0.228450	0.731133	0.370706
C245	C	0.206840	0.687772	0.323828
C246	C	0.161642	0.666027	0.300313
C247	C	-0.063858	0.416922	0.047395
C248	C	-0.023349	0.438634	0.066067
C249	C	0.119540	0.581534	0.208966
C250	C	0.138216	0.619010	0.249482
C251	C	0.119503	0.438470	0.065906
C252	C	0.138163	0.416626	0.047103
H253	H	0.156486	0.530839	0.563012
H254	H	-0.204241	0.279349	0.544762
H255	H	-0.119070	-0.142157	-0.040786
O256	O	-0.207835	-0.224206	-0.087330
C257	C	-0.271190	-0.243703	-0.137084
C258	C	-0.245487	-0.219942	-0.087355
H259	H	-0.301631	-0.240254	-0.137119
H260	H	-0.284637	-0.287703	-0.160851
H261	H	-0.246305	-0.220708	-0.150095
H262	H	-0.270343	-0.242896	-0.074301
H263	H	-0.232032	-0.175938	-0.063619
O264	O	0.163626	0.128515	0.157129
C265	C	0.242507	0.166505	0.157249
C266	C	0.191856	0.116590	0.132286
H267	H	0.265344	0.156885	0.137168
H268	H	0.255035	0.178823	0.193869
H269	H	0.244633	0.200778	0.159174
H270	H	0.189691	0.082284	0.130327
H271	H	0.179351	0.104319	0.095680
H272	H	0.428623	0.453059	0.881671
H273	H	0.031860	-0.003061	0.029102
H274	H	0.141150	0.124453	-0.079631
H275	H	-0.359264	-0.220559	0.045197
H276	H	0.304118	0.328545	0.757161
H277	H	0.265729	0.248998	0.389574
H278	H	0.428539	1.199534	0.881673
H279	H	0.101245	0.669935	0.551182
H280	H	-0.119203	0.324937	0.551157
O281	O	0.432129	0.071418	0.503593
C282	C	0.497087	0.083151	0.542674
C283	C	0.472132	0.108820	0.543370
H284	H	0.529428	0.113376	0.574835
H285	H	0.507534	0.070714	0.510205
H286	H	0.472749	0.046341	0.542480
H287	H	0.496444	0.145648	0.543582
H288	H	0.461677	0.121219	0.575836
H289	H	0.140332	0.278741	-0.080265
O290	O	0.432126	0.456635	0.753519
C291	C	0.426967	0.452419	0.683238
C292	C	0.402018	0.426785	0.708239
H293	H	0.402633	0.428303	0.646628
H294	H	0.459311	0.452623	0.681294
H295	H	0.437421	0.495339	0.703301
H296	H	0.391533	0.383855	0.688197
H297	H	0.369695	0.426623	0.710188
O298	O	-0.115157	0.457141	0.551404
C299	C	-0.072730	0.500202	0.515473
C300	C	-0.098624	0.448540	0.513545
H301	H	-0.059364	0.493263	0.484863
H302	H	-0.042219	0.534077	0.549333
H303	H	-0.097470	0.511506	0.513635
H304	H	-0.073920	0.437187	0.515364
H305	H	-0.129141	0.414697	0.479688
H306	H	0.304042	0.075013	0.503639
O307	O	-0.365825	-0.138679	-0.044089
C308	C	-0.329861	-0.060485	-0.044976
C309	C	-0.327958	-0.084290	-0.019039
H310	H	-0.299245	-0.016512	-0.024739
H311	H	-0.363708	-0.063836	-0.048409
H312	H	-0.328024	-0.083503	-0.081003
H313	H	-0.329777	-0.061290	0.017001
H314	H	-0.294113	-0.080948	-0.015643
O315	O	-0.317856	0.456634	0.753528
C316	C	-0.316973	0.452391	0.683233
C317	C	-0.317688	0.426734	0.708218
H318	H	-0.316847	0.428222	0.646592
H319	H	-0.284481	0.495297	0.703243
H320	H	-0.349098	0.452629	0.681359
H321	H	-0.285586	0.426458	0.710097
H322	H	-0.350202	0.383842	0.688198
H323	H	-0.365621	-0.141900	0.084391
O324	O	0.296799	1.071415	0.753670
C325	C	0.230773	1.075671	0.758792
C326	C	0.281406	1.101324	0.783741
H327	H	0.218316	1.099847	0.783091
H328	H	0.207868	1.032768	0.748382
H329	H	0.228663	1.075424	0.726415
H330	H	0.283561	1.101609	0.816135
H331	H	0.304289	1.144213	0.794116
O332	O	-0.317895	0.456610	0.888889
C333	C	-0.316957	0.452406	0.954960
C334	C	-0.317644	0.426767	0.904325
H335	H	-0.316744	0.428296	0.967459
H336	H	-0.349099	0.452606	0.957101
H337	H	-0.284482	0.495328	0.977818
H338	H	-0.350097	0.383836	0.881438
H339	H	-0.285480	0.426609	0.902221
H340	H	-0.377377	0.121704	0.153599
H341	H	-0.317980	0.328534	0.757163
H342	H	-0.377421	-0.002816	0.029086
H343	H	0.428500	1.075018	0.757162
H344	H	-0.377418	-0.002806	0.153595
O345	O	0.432157	0.206619	0.503490
C346	C	0.470011	0.244621	0.462590
C347	C	0.444998	0.194677	0.463284
H348	H	0.480392	0.234980	0.430081
H349	H	0.502397	0.278879	0.494711
H350	H	0.445730	0.256969	0.462450
H351	H	0.469242	0.182281	0.463408
H352	H	0.412605	0.160451	0.431165
O353	O	-0.358925	0.120314	0.393173
C354	C	-0.359305	0.049420	0.388083
C355	C	-0.361208	0.073485	0.362409
H356	H	-0.361140	0.011561	0.363224
H357	H	-0.389891	0.039042	0.401474
H358	H	-0.325437	0.079868	0.418575
H359	H	-0.395057	0.043063	0.331898
H360	H	-0.330599	0.083875	0.349052
H361	H	-0.359119	0.248684	0.389853
O362	O	0.028364	-0.006677	0.157234
C363	C	0.033485	-0.002427	0.227533
C364	C	0.058435	0.023228	0.202546
H365	H	0.057784	0.021746	0.264175
H366	H	0.023065	-0.045332	0.207526
H367	H	0.001120	-0.002670	0.229402
H368	H	0.090817	0.023509	0.200670
H369	H	0.068821	0.066118	0.222562
O370	O	-0.365924	0.070815	0.300790
C371	C	-0.409786	-0.022714	0.237186
C372	C	-0.407814	0.028969	0.263066
H373	H	-0.443647	-0.056557	0.206675
H374	H	-0.407958	-0.034057	0.261907
H375	H	-0.379192	-0.015777	0.223800
H376	H	-0.438402	0.022073	0.276455
H377	H	-0.409620	0.040296	0.238327
O378	O	-0.358995	-0.224196	-0.086758
C379	C	-0.359325	-0.219742	-0.152716
C380	C	-0.361247	-0.195827	-0.102980
H381	H	-0.361135	-0.196810	-0.165844
H382	H	-0.389918	-0.263733	-0.176421
H383	H	-0.325462	-0.216367	-0.152691
H384	H	-0.395090	-0.199164	-0.102961
H385	H	-0.330631	-0.151847	-0.079297
H386	H	-0.365566	0.078223	-0.040807
H387	H	-0.359179	0.123791	-0.080274
H388	H	0.265725	0.249006	0.045205
H389	H	0.226335	0.449799	0.551182
H390	H	-0.359130	0.248650	0.044300
O391	O	-0.365768	0.206595	0.090888
C392	C	-0.365388	0.277493	0.156695
C393	C	-0.363487	0.253421	0.106951
H394	H	-0.363554	0.315349	0.169693
H395	H	-0.334799	0.287875	0.180462
H396	H	-0.399254	0.247046	0.156742
H397	H	-0.329641	0.283842	0.106859
H398	H	-0.394099	0.243026	0.083205
O399	O	-0.365804	0.206585	0.301193
C400	C	-0.365379	0.277507	0.306294
C401	C	-0.363445	0.253462	0.331977
H402	H	-0.363463	0.315417	0.331175
H403	H	-0.399261	0.247106	0.275823
H404	H	-0.334811	0.287819	0.292875
H405	H	-0.393990	0.243152	0.345427
H406	H	-0.329544	0.283878	0.362426
O407	O	0.163734	0.534565	0.157225
C408	C	0.229784	0.605742	0.227525
C409	C	0.179149	0.580045	0.202539
H410	H	0.242259	0.642511	0.264168
H411	H	0.252677	0.618231	0.207519
H412	H	0.231890	0.575480	0.229392
H413	H	0.176998	0.610279	0.200665
H414	H	0.156278	0.567545	0.222554
O415	O	0.094180	0.666545	0.300788
C416	C	0.044524	0.646804	0.237185
C417	C	0.094236	0.670716	0.263066
H418	H	0.044551	0.650158	0.206676
H419	H	0.031360	0.669696	0.261906
H420	H	0.020849	0.602816	0.223795
H421	H	0.117946	0.714701	0.276458
H422	H	0.107361	0.647783	0.238327
H423	H	0.031991	0.406308	0.029090
H424	H	0.032024	0.530817	0.153595
O425	O	0.136693	0.751937	0.393171
C426	C	0.066179	0.747208	0.388077
C427	C	0.092143	0.723443	0.362404
H428	H	0.030152	0.724174	0.363216
H429	H	0.086401	0.791190	0.401467
H430	H	0.062754	0.743831	0.418569
H431	H	0.095574	0.726782	0.331894
H432	H	0.071911	0.679471	0.349048
H433	H	0.265255	0.748846	0.389856
H434	H	-0.118881	0.449777	0.084384
H435	H	-0.203906	0.404202	0.045186
O436	O	-0.207986	0.271946	-0.086747
C437	C	-0.280259	0.202759	-0.150538
C438	C	-0.254360	0.254441	-0.100811
H439	H	-0.317754	0.188597	-0.161928
H440	H	-0.279663	0.170318	-0.151428
H441	H	-0.262518	0.211125	-0.175086
H442	H	-0.272081	0.246127	-0.076235
H443	H	-0.254953	0.286865	-0.099959
H444	H	-0.119186	0.324921	-0.040459
O445	O	0.094065	0.321123	-0.044559
C446	C	0.028089	0.250341	-0.114955
C447	C	0.077807	0.274221	-0.089123
H448	H	0.014926	0.212411	-0.150986
H449	H	0.028092	0.280813	-0.118366
H450	H	0.004429	0.240104	-0.094618
H451	H	0.101496	0.284457	-0.109438
H452	H	0.077768	0.243734	-0.085707
H453	H	0.265163	0.403300	0.044314
O454	O	0.229762	0.456522	0.090896
C455	C	0.300294	0.521974	0.156701
C456	C	0.274310	0.470318	0.106960
H457	H	0.336320	0.533150	0.169700
H458	H	0.280085	0.515152	0.180470
H459	H	0.303723	0.555886	0.156743
H460	H	0.270875	0.436382	0.106873
H461	H	0.294530	0.477185	0.083211
O462	O	0.229830	0.666867	0.301194
C463	C	0.300336	0.671580	0.306293
C464	C	0.274354	0.695309	0.331979
H465	H	0.336335	0.694557	0.331174
H466	H	0.303818	0.674999	0.275826
H467	H	0.280072	0.627585	0.292869
H468	H	0.294596	0.739311	0.345434
H469	H	0.270868	0.691848	0.362424
H470	H	0.032016	0.530832	0.563004
O471	O	0.028343	0.399186	0.563096
C472	C	-0.041981	0.333956	0.563890
C473	C	-0.016968	0.383931	0.563242
H474	H	-0.078622	0.321601	0.563998
H475	H	-0.022002	0.343510	0.596370
H476	H	-0.043844	0.299735	0.531743
H477	H	-0.015098	0.418174	0.595366
H478	H	-0.036956	0.374333	0.530741
H479	H	-0.203921	0.404215	0.544795
H480	H	0.265253	0.748860	0.544789
O481	O	0.136673	0.751911	0.544508
C482	C	0.066172	0.747208	0.544908
C483	C	0.092149	0.723472	0.546855
H484	H	0.030173	0.724233	0.546814
H485	H	0.062689	0.743791	0.511022
H486	H	0.086440	0.791203	0.575482
H487	H	0.071904	0.679471	0.516304
H488	H	0.095637	0.726931	0.580759
O489	O	0.229811	0.666847	0.551420
C490	C	0.300328	0.671580	0.551065
C491	C	0.274364	0.695342	0.549152
H492	H	0.336357	0.694615	0.549241
H493	H	0.280109	0.627598	0.520471
H494	H	0.303747	0.674959	0.584934
H495	H	0.270938	0.692003	0.515302
H496	H	0.294593	0.739314	0.579769
O497	O	-0.208118	-0.224454	0.048024
C498	C	-0.271702	-0.244186	0.077958
C499	C	-0.245825	-0.220279	0.052146
H500	H	-0.302200	-0.240829	0.081291
H501	H	-0.246981	-0.221293	0.114023
H502	H	-0.285102	-0.288175	0.057639
H503	H	-0.232424	-0.176293	0.072426
H504	H	-0.270565	-0.243212	0.016080
O505	O	0.272846	0.407623	0.544441
C506	C	0.323510	0.433540	0.503477
C507	C	0.273797	0.409523	0.505446
H508	H	0.324297	0.435094	0.471957
H509	H	0.335035	0.407519	0.500628
H510	H	0.348009	0.475825	0.536413
H511	H	0.249264	0.367242	0.472518
H512	H	0.262310	0.435583	0.508319
O513	O	0.137502	0.271936	0.544424
C514	C	0.107560	0.178407	0.500555
C515	C	0.133377	0.230099	0.502529
H516	H	0.104226	0.144571	0.466691
H517	H	0.071502	0.167060	0.502382
H518	H	0.127873	0.185335	0.531154
H519	H	0.113104	0.223211	0.471936
H520	H	0.169438	0.241430	0.500725
O521	O	0.094622	0.321441	0.551360
C522	C	0.014622	0.245056	0.512534
C523	C	0.064361	0.269118	0.510640
H524	H	-0.009856	0.202746	0.479621
H525	H	0.003075	0.271039	0.515320
H526	H	0.013830	0.243561	0.544085
H527	H	0.065191	0.270615	0.479092
H528	H	0.075887	0.243127	0.507879
O529	O	0.230005	0.206641	0.300910
C530	C	0.300419	0.277384	0.305696
C531	C	0.274598	0.253493	0.331539
H532	H	0.336481	0.315261	0.330446
H533	H	0.280144	0.287691	0.292299
H534	H	0.303756	0.246859	0.275197
H535	H	0.271254	0.283992	0.362058
H536	H	0.294883	0.243173	0.344903
H537	H	0.226259	0.203162	0.084399
H538	H	0.101678	0.078598	-0.040440
H539	H	0.101683	0.078594	0.304810
O540	O	-0.115709	-0.138982	0.090927
C541	C	-0.112071	-0.096535	0.170934
C542	C	-0.137760	-0.120326	0.121188
H543	H	-0.129894	-0.081455	0.195412
H544	H	-0.074532	-0.061782	0.182489
H545	H	-0.112787	-0.128792	0.171721
H546	H	-0.137080	-0.088107	0.120362
H547	H	-0.175286	-0.155090	0.109653
O548	O	0.137389	0.120971	0.393483
C549	C	0.066996	0.050186	0.388674
C550	C	0.092826	0.074070	0.362830
H551	H	0.030965	0.012256	0.363899
H552	H	0.063594	0.080656	0.419156
H553	H	0.087324	0.039945	0.402095
H554	H	0.072521	0.084309	0.349379
H555	H	0.096233	0.043585	0.332370
