data_functionalizedCrystal
_audit_creation_method	'MofGen! by Chris Wilmer'
_symmetry_space_group_name_H-M	'P1'
_symmetry_Int_Tables_number	1
_symmetry_cell_setting	triclinic
loop_
_symmetry_equiv_pos_as_xyz
  x,y,z
_cell_length_a	19.288864
_cell_length_b	9.798715
_cell_length_c	19.288865
_cell_angle_alpha	90.008373
_cell_angle_beta	83.136245
_cell_angle_gamma	90.017526
loop_
_atom_site_label
_atom_site_type_symbol
_atom_site_fract_x
_atom_site_fract_y
_atom_site_fract_z
O1	O	0.921348	0.113944	0.086646
O2	O	1.421348	0.613944	0.586646
O3	O	0.719087	0.113853	0.098335
O4	O	1.219087	0.613853	0.598335
O5	O	0.826062	0.113874	-0.008640
O6	O	1.326062	0.613874	0.491360
O7	O	0.814373	0.113923	0.193621
O8	O	1.314373	0.613923	0.693621
O9	O	0.826054	-0.113108	-0.008640
O10	O	1.326054	0.386892	0.491360
O11	O	0.719079	-0.113129	0.098335
O12	O	1.219079	0.386871	0.598335
O13	O	0.921340	-0.113038	0.086646
O14	O	1.421340	0.386962	0.586646
Zn15	Zn	0.820208	-0.149122	0.092490
Zn16	Zn	1.320208	0.350878	0.592490
Zn17	Zn	0.820219	0.149937	0.092491
Zn18	Zn	1.320219	0.649937	0.592491
O19	O	0.814365	-0.113059	0.193621
O20	O	1.314365	0.386941	0.693621
C21	C	0.693207	0.000350	0.097959
C22	C	1.193207	0.500350	0.597959
C23	C	0.616103	0.000314	0.096830
C24	C	1.116103	0.500314	0.596830
N25	N	0.820206	-0.353222	0.092490
N26	N	1.320206	0.146778	0.592490
C27	C	0.571407	0.000350	0.159598
C28	C	1.071407	0.500350	0.659598
C29	C	0.498960	0.000365	0.158537
C30	C	0.998960	0.500365	0.658537
C31	C	0.471212	0.000371	0.094705
C32	C	0.971212	0.500371	0.594705
C33	C	0.515918	0.000327	0.031929
C34	C	1.015918	0.500327	0.531929
C35	C	0.588364	0.000298	0.032991
C36	C	1.088364	0.500298	0.532991
C37	C	0.362953	0.079927	0.044526
C38	C	0.862953	0.579927	0.544526
C39	C	0.290508	0.079963	0.043466
C40	C	0.790508	0.579963	0.543466
C41	C	0.247767	0.000453	0.091425
C42	C	0.747767	0.500453	0.591425
C43	C	0.277476	-0.079077	0.140456
C44	C	0.777476	0.420923	0.640456
C45	C	0.349922	-0.079106	0.141519
C46	C	0.849922	0.420894	0.641519
C47	C	0.392658	0.000401	0.093546
C48	C	0.892658	0.500401	0.593546
C49	C	0.124514	0.000503	0.153047
C50	C	0.624514	0.500503	0.653047
C51	C	0.052066	0.000510	0.151984
C52	C	0.552066	0.500510	0.651984
C53	C	0.069026	0.000485	0.025374
C54	C	0.569026	0.500485	0.525374
C55	C	0.141473	0.000465	0.026439
C56	C	0.641473	0.500465	0.526439
C57	C	0.169212	0.000480	0.090278
C58	C	0.669212	0.500480	0.590278
C59	C	0.865124	-0.420990	0.047378
C60	C	1.365124	0.079010	0.547378
C61	C	0.865135	-0.578152	0.047376
C62	C	1.365135	-0.078152	0.547376
C63	C	0.947220	0.000468	0.087022
C64	C	1.447220	0.500468	0.587022
C65	C	1.024324	0.000513	0.088151
C66	C	1.524324	0.500513	0.588151
C67	C	0.825682	0.000379	-0.034516
C68	C	1.325682	0.500379	0.465484
C69	C	0.824553	0.000366	-0.111620
C70	C	1.324553	0.500366	0.388380
N71	N	0.820226	0.354037	0.092486
N72	N	1.320226	0.854037	0.592486
C73	C	0.887321	0.000388	-0.156316
C74	C	1.387321	0.500388	0.343684
C75	C	0.886260	0.000409	-0.228763
C76	C	1.386260	0.500409	0.271237
C77	C	0.822428	0.000381	-0.256511
C78	C	1.322428	0.500381	0.243489
C79	C	0.759652	0.000367	-0.211805
C80	C	1.259652	0.500367	0.288195
C81	C	0.760714	0.000360	-0.139359
C82	C	1.260714	0.500360	0.360641
C83	C	0.772245	-0.079148	-0.364798
C84	C	1.272245	0.420852	0.135202
C85	C	0.771186	-0.079149	-0.437243
C86	C	1.271186	0.420851	0.062757
C87	C	0.819148	0.000410	-0.479956
C88	C	1.319148	0.500410	0.020044
C89	C	0.868182	0.079953	-0.450218
C90	C	1.368182	0.579953	0.049782
C91	C	0.869245	0.079946	-0.377773
C92	C	1.369245	0.579946	0.122227
C93	C	0.821269	0.000390	-0.335065
C94	C	1.321269	0.500390	0.164935
C95	C	0.880770	0.000457	-0.603209
C96	C	1.380770	0.500457	-0.103209
C97	C	0.879707	0.000486	-0.675657
C98	C	1.379707	0.500486	-0.175657
C99	C	0.753097	0.000431	-0.658697
C100	C	1.253097	0.500431	-0.158697
C101	C	0.754162	0.000415	-0.586250
C102	C	1.254162	0.500415	-0.086250
C103	C	0.818000	0.000421	-0.558511
C104	C	1.318000	0.500421	-0.058511
C105	C	0.814745	0.000439	0.219497
C106	C	1.314745	0.500439	0.719497
C107	C	0.815874	0.000461	0.296601
C108	C	1.315874	0.500461	0.796601
H109	H	0.593987	0.000366	0.211580
H110	H	1.093987	0.500366	0.711580
H111	H	0.397748	0.144682	0.005470
H112	H	0.897748	0.644682	0.505470
Br113	Br	0.250194	0.187914	-0.023066
Br114	Br	0.750194	0.687914	0.476934
Br115	Br	0.202136	0.000419	-0.058751
Br116	Br	0.702136	0.500419	0.441249
Br117	Br	0.675522	0.000334	-0.078695
Br118	Br	1.175522	0.500334	0.421305
H119	H	0.462561	0.000391	0.209652
H120	H	0.962561	0.500391	0.709652
H121	H	0.046435	0.000574	-0.026600
H122	H	0.546435	0.500574	0.473400
Br123	Br	0.673021	0.000347	-0.249460
Br124	Br	1.173021	0.500347	0.250540
Br125	Br	0.971451	0.000444	-0.289434
Br126	Br	1.471451	0.500444	0.210566
H127	H	0.493322	0.000350	-0.020044
H128	H	0.993322	0.500350	0.479956
Br129	Br	0.929035	-0.323779	-0.017168
Br130	Br	1.429035	0.176221	0.482832
H131	H	0.903594	-0.636430	0.008756
H132	H	1.403594	-0.136430	0.508756
Br133	Br	0.668972	0.000384	-0.525587
Br134	Br	1.168972	0.500384	-0.025587
Br135	Br	0.219478	-0.186989	0.205551
Br136	Br	0.719478	0.313011	0.705551
Br137	Br	0.707148	-0.187133	-0.306836
Br138	Br	1.207148	0.312867	0.193164
H139	H	0.147101	0.000496	0.205028
H140	H	0.647101	0.500496	0.705028
H141	H	0.939303	0.000398	-0.133736
H142	H	1.439303	0.500398	0.366264
H143	H	0.781770	-0.587695	0.131112
H144	H	1.281770	-0.087695	0.631112
H145	H	0.015674	0.000532	0.203099
H146	H	0.515674	0.500532	0.703099
Br147	Br	0.666466	0.000407	-0.696346
Br148	Br	1.166466	0.500407	-0.196346
Br149	Br	0.390242	-0.187037	0.208055
Br150	Br	0.890242	0.312963	0.708055
H151	H	0.909169	0.144715	-0.353563
H152	H	1.409169	0.644715	0.146437
Br153	Br	0.967406	0.000452	-0.565558
Br154	Br	1.467406	0.500452	-0.065558
H155	H	0.781756	-0.411554	0.131107
H156	H	1.281756	0.088446	0.631107
Br157	Br	0.933280	0.187934	-0.508178
Br158	Br	1.433280	0.687934	-0.008178
H159	H	0.930822	0.000511	-0.712049
H160	H	1.430822	0.500511	-0.212049
H161	H	0.731256	-0.143910	-0.461449
H162	H	1.231256	0.356090	0.038551
H163	H	0.624756	0.000269	-0.018124
H164	H	1.124756	0.500269	0.481876
