data_functionalizedCrystal
_audit_creation_method	'MofGen! by Chris Wilmer'
_symmetry_space_group_name_H-M	'P1'
_symmetry_Int_Tables_number	1
_symmetry_cell_setting	triclinic
loop_
_symmetry_equiv_pos_as_xyz
  x,y,z
_cell_length_a	19.188930
_cell_length_b	19.188924
_cell_length_c	9.730223
_cell_angle_alpha	89.993539
_cell_angle_beta	89.982832
_cell_angle_gamma	83.143372
loop_
_atom_site_label
_atom_site_type_symbol
_atom_site_fract_x
_atom_site_fract_y
_atom_site_fract_z
O1	O	0.926141	0.087168	-0.114738
O2	O	0.722830	0.098902	-0.114644
O3	O	0.830355	-0.008621	-0.114678
O4	O	0.818616	0.194691	-0.114705
O5	O	0.830348	-0.008624	0.113902
O6	O	0.722823	0.098899	0.113935
O7	O	0.926135	0.087165	0.113842
Zn8	Zn	0.824478	0.093032	0.150181
Zn9	Zn	0.824487	0.093035	-0.150983
O10	O	0.818609	0.194688	0.113875
C11	C	0.696815	0.098521	-0.000342
C12	C	0.619311	0.097380	-0.000306
C13	C	0.574385	0.160471	-0.000336
C14	C	0.501562	0.159399	-0.000351
C15	C	0.473667	0.095233	-0.000364
C16	C	0.518602	0.032134	-0.000326
C17	C	0.591424	0.033207	-0.000297
N18	N	0.365690	0.046187	-0.078208
N19	N	0.296511	0.045171	-0.078238
C20	C	0.254258	0.091995	-0.000447
N21	N	0.283795	0.139883	0.077358
N22	N	0.352980	0.140900	0.077382
C23	C	0.394704	0.094062	-0.000394
C24	C	0.130368	0.153928	-0.000492
C25	C	0.057543	0.152854	-0.000498
C26	C	0.074585	0.025586	-0.000487
C27	C	0.147409	0.026663	-0.000466
C28	C	0.175295	0.090835	-0.000475
C29	C	0.829973	-0.034634	-0.000386
C30	C	0.828834	-0.112138	-0.000382
C31	C	0.828306	-0.148536	-0.124981
C32	C	0.827226	-0.221358	-0.124991
C33	C	0.826688	-0.257783	-0.000395
C34	C	0.827212	-0.221376	0.124221
C35	C	0.828285	-0.148554	0.124227
N36	N	0.864733	-0.377447	0.092321
N37	N	0.863715	-0.446626	0.092307
C38	C	0.823454	-0.477192	-0.000407
N39	N	0.784257	-0.435968	-0.093126
N40	N	0.785278	-0.366784	-0.093115
C41	C	0.825524	-0.336746	-0.000388
C42	C	0.821754	-0.592552	-0.125025
C43	C	0.820670	-0.665375	-0.125030
C44	C	0.820663	-0.665393	0.124185
C45	C	0.821740	-0.592570	0.124187
C46	C	0.822289	-0.556154	-0.000422
C47	C	0.952149	0.087546	-0.000463
C48	C	1.029654	0.088687	-0.000508
C49	C	0.818992	0.220700	-0.000419
C50	C	0.820131	0.298205	-0.000432
N51	N	0.824477	0.093029	0.355717
N52	N	0.824493	0.093033	-0.356520
C53	C	0.872105	0.045437	0.427628
C54	C	0.872112	0.045437	0.571511
C55	C	0.776860	0.140626	0.571559
C56	C	0.776850	0.140622	0.427679
H57	H	0.153075	0.206181	-0.000479
O58	O	0.918294	-0.000908	0.357816
C59	C	0.907155	-0.069985	0.393081
H60	H	0.851255	-0.070167	0.432660
H61	H	0.915294	-0.105069	0.298494
H62	H	0.945908	-0.090577	0.476602
H63	H	0.738085	0.179377	0.630165
O64	O	0.013930	0.214164	-0.000769
C65	C	0.026582	0.253139	-0.119142
H66	H	0.051604	0.216199	-0.201869
H67	H	-0.025163	0.281297	-0.158901
H68	H	0.063536	0.293438	-0.092377
O69	O	0.918284	-0.000860	0.641427
C70	C	0.881038	-0.043835	0.724721
H71	H	0.825980	-0.044882	0.681408
H72	H	0.909700	-0.099400	0.726345
H73	H	0.877316	-0.021974	0.833763
H74	H	0.464976	0.210777	-0.000372
O75	O	0.730555	0.186924	0.358028
C76	C	0.688514	0.228925	0.452393
H77	H	0.717140	0.229650	0.554932
H78	H	0.677683	0.284708	0.410803
H79	H	0.636723	0.206379	0.467748
O80	O	0.047381	-0.036684	-0.000563
C81	C	-0.026528	-0.024105	-0.000556
H82	H	-0.043786	0.030436	-0.043836
H83	H	-0.048747	-0.065149	-0.066927
H84	H	-0.046816	-0.027429	0.109098
H85	H	0.628003	-0.018171	-0.000274
H86	H	0.826792	-0.250998	-0.226458
H87	H	0.828712	-0.118919	0.225694
O88	O	0.601357	0.222867	-0.000269
C89	C	0.546083	0.278324	-0.000331
H90	H	0.496659	0.258902	0.042921
H91	H	0.561145	0.323137	0.066037
H92	H	0.535748	0.297776	-0.109998
O93	O	0.826594	-0.256819	0.245167
C94	C	0.765510	-0.290835	0.252657
H95	H	0.745201	-0.299040	0.144479
H96	H	0.778349	-0.343867	0.305387
H97	H	0.723586	-0.257106	0.314162
O98	O	0.822247	-0.557275	-0.246186
C99	C	0.821559	-0.605022	-0.356167
H100	H	0.798692	-0.653975	-0.319632
H101	H	0.787982	-0.579435	-0.443294
H102	H	0.877447	-0.620264	-0.394509
H103	H	0.495885	-0.020111	-0.000355
H104	H	0.820237	-0.695008	-0.226497
O105	O	0.190954	-0.034689	-0.000514
C106	C	0.150721	-0.091556	-0.000492
H107	H	0.096323	-0.073667	-0.043789
H108	H	0.177737	-0.135748	-0.066843
H109	H	0.145569	-0.111237	0.109168
O110	O	0.828682	-0.113210	-0.246099
C111	C	0.767962	-0.122974	-0.321801
H112	H	0.725434	-0.137322	-0.248800
H113	H	0.748347	-0.072393	-0.378383
H114	H	0.781004	-0.167102	-0.399435
O115	O	0.820032	-0.700823	0.245140
C116	C	0.758939	-0.734826	0.252619
H117	H	0.738638	-0.743036	0.144436
H118	H	0.771763	-0.787855	0.305369
H119	H	0.717015	-0.701084	0.314100
O120	O	0.822294	-0.557323	0.245347
C121	C	0.821571	-0.605082	0.355320
H122	H	0.842903	-0.659949	0.318775
H123	H	0.855772	-0.588588	0.442448
H124	H	0.765456	-0.605330	0.393665
