data_functionalizedCrystal
_audit_creation_method	'MofGen! by Chris Wilmer'
_symmetry_space_group_name_H-M	'P1'
_symmetry_Int_Tables_number	1
_symmetry_cell_setting	triclinic
loop_
_symmetry_equiv_pos_as_xyz
  x,y,z
_cell_length_a	15.944551
_cell_length_b	10.723024
_cell_length_c	9.798715
_cell_angle_alpha	89.997785
_cell_angle_beta	89.998961
_cell_angle_gamma	96.016696
loop_
_atom_site_label
_atom_site_type_symbol
_atom_site_fract_x
_atom_site_fract_y
_atom_site_fract_z
O1	O	1.115444	-0.160932	0.113345
O2	O	0.871008	-0.180774	0.113379
O3	O	0.998865	0.010794	0.113356
O4	O	0.987588	-0.352500	0.113368
O5	O	0.998856	0.010796	-0.113626
O6	O	0.870999	-0.180772	-0.113604
O7	O	1.115435	-0.160931	-0.113637
Zn8	Zn	0.993216	-0.170851	-0.149659
Zn9	Zn	0.993228	-0.170853	0.149400
O10	O	0.987579	-0.352499	-0.113615
C11	C	0.839705	-0.179949	-0.000108
C12	C	0.746445	-0.177480	-0.000095
C13	C	0.998039	0.057284	-0.000133
C14	C	0.995584	0.195808	-0.000128
N15	N	0.993214	-0.170849	-0.353758
C16	C	0.530875	-0.052834	-0.000126
C17	C	0.470190	-0.110716	0.111790
C18	C	0.575693	-0.173012	-0.000112
C19	C	0.470204	-0.110743	-0.111996
C20	C	0.410756	-0.168688	-0.000133
C21	C	0.516237	-0.230927	0.111897
C22	C	0.516257	-0.230938	-0.111990
C23	C	0.455591	-0.288907	-0.000047
C24	C	0.670710	-0.175500	-0.000098
C25	C	0.315741	-0.166210	-0.000137
C26	C	1.146738	-0.161755	-0.000147
C27	C	1.239999	-0.164225	-0.000151
C28	C	0.988404	-0.398989	-0.000122
C29	C	0.990859	-0.537512	-0.000118
C30	C	1.067126	0.271694	-0.000136
C31	C	1.064590	0.414865	-0.000131
C32	C	0.939541	-0.251632	-0.421559
C33	C	0.939553	-0.251631	-0.578722
N34	N	0.993236	-0.170845	0.353500
H35	H	0.449793	-0.059886	0.206404
C36	C	1.215934	0.431462	-0.000156
C37	C	1.147275	0.502880	-0.000142
H38	H	1.266981	0.485803	-0.000172
H39	H	1.213701	0.380081	0.078992
H40	H	1.213688	0.380080	-0.079316
H41	H	1.149517	0.554256	0.079023
H42	H	1.149509	0.554283	-0.079299
C43	C	0.839512	0.445899	-0.000100
C44	C	0.908171	0.374480	-0.000111
H45	H	0.788465	0.391558	-0.000103
H46	H	0.841752	0.497271	0.079052
H47	H	0.841751	0.497290	-0.079256
H48	H	0.905935	0.323096	0.079052
H49	H	0.905930	0.323087	-0.079270
H50	H	0.932457	0.236832	-0.000111
H51	H	1.039177	-0.101691	-0.412063
C52	C	0.551990	0.144449	0.117370
C53	C	0.575084	0.081818	0.000023
H54	H	0.579291	0.227570	0.117470
H55	H	0.492622	0.146950	0.118167
H56	H	0.568410	0.101309	0.196058
H57	H	0.558658	0.124953	-0.078665
H58	H	0.634465	0.079323	-0.000786
H59	H	0.423004	-0.388748	0.000019
C60	C	0.794693	-0.325303	-0.623002
C61	C	0.877514	-0.344998	-0.657425
H62	H	0.756393	-0.382941	-0.671600
H63	H	0.786553	-0.337562	-0.527723
H64	H	0.784963	-0.242052	-0.646360
H65	H	0.887247	-0.428246	-0.634057
H66	H	0.885658	-0.332749	-0.752724
H67	H	1.130253	0.230669	-0.000153
C68	C	0.891875	-0.467704	-0.377287
C69	C	0.877496	-0.345007	-0.342859
H70	H	0.853573	-0.525349	-0.328695
H71	H	0.883737	-0.479945	-0.472567
H72	H	0.948066	-0.481034	-0.353924
H73	H	0.821307	-0.331674	-0.366232
H74	H	0.885628	-0.332761	-0.247558
H75	H	0.536520	-0.281720	0.206616
C76	C	0.583541	-0.404183	-0.200087
C77	C	0.543832	-0.299501	-0.239716
H78	H	0.600561	-0.446506	-0.278950
H79	H	0.631623	-0.377699	-0.146145
H80	H	0.545362	-0.459350	-0.148309
H81	H	0.582013	-0.244330	-0.291487
H82	H	0.495744	-0.325984	-0.293682
C83	C	0.481060	0.081488	-0.239495
C84	C	0.442690	-0.042103	-0.239725
H85	H	0.464079	0.123865	-0.318349
H86	H	0.464520	0.123350	-0.160033
H87	H	0.540607	0.081063	-0.239970
H88	H	0.383143	-0.041678	-0.239240
H89	H	0.459225	-0.083976	-0.319209
C90	C	1.009976	-0.001059	-0.485807
C91	C	1.055235	-0.077360	-0.567875
H92	H	1.048242	0.056682	-0.437276
H93	H	0.974666	0.043633	-0.541608
H94	H	0.976336	-0.051748	-0.422862
H95	H	1.088871	-0.026671	-0.630827
H96	H	1.090560	-0.122055	-0.512069
