data_functionalizedCrystal
_audit_creation_method	'MofGen! by Chris Wilmer'
_symmetry_space_group_name_H-M	'P1'
_symmetry_Int_Tables_number	1
_symmetry_cell_setting	triclinic
loop_
_symmetry_equiv_pos_as_xyz
  x,y,z
_cell_length_a	10.967926
_cell_length_b	15.995292
_cell_length_c	9.482900
_cell_angle_alpha	99.335510
_cell_angle_beta	92.549900
_cell_angle_gamma	84.103094
loop_
_atom_site_label
_atom_site_type_symbol
_atom_site_fract_x
_atom_site_fract_y
_atom_site_fract_z
O1	O	1.610161	0.147806	0.282517
O2	O	1.260947	0.149642	0.195025
O3	O	1.445137	0.027148	0.241169
O4	O	1.425972	0.270300	0.236372
O5	O	1.407724	0.052134	0.473589
O6	O	1.223534	0.174628	0.427444
O7	O	1.572748	0.172792	0.514936
Cu8	Cu	1.394725	0.175991	0.492412
Cu9	Cu	1.438971	0.146443	0.217549
O10	O	1.388559	0.295286	0.468792
C11	C	1.197554	0.160114	0.300039
C12	C	1.064403	0.154080	0.266678
C13	C	0.985658	0.164333	0.372205
C14	C	0.848039	0.158098	0.337728
C15	C	1.425651	0.008420	0.357180
C16	C	1.423314	-0.084611	0.356584
C17	C	1.414716	-0.422631	0.354443
C18	C	1.547575	-0.394888	0.388270
C19	C	1.550187	-0.298187	0.388374
C20	C	1.418982	-0.254936	0.355506
C21	C	1.373881	-0.300492	0.206135
C22	C	1.372298	-0.397346	0.205628
C23	C	1.327037	-0.368879	0.469252
C24	C	1.331682	-0.272036	0.472236
C25	C	1.421387	-0.160161	0.356100
C26	C	1.412308	-0.517407	0.353838
C27	C	1.636142	0.162320	0.409919
C28	C	1.769295	0.168353	0.443271
C29	C	1.408045	0.314014	0.352778
C30	C	1.410383	0.407044	0.353365
N31	N	1.363614	0.196774	0.685738
N32	N	1.470091	0.125653	0.024226
C33	C	1.429786	0.152568	0.774515
C34	C	1.403910	0.169866	0.935450
H35	H	1.586926	-0.267221	0.496551
F36	F	1.594531	-0.415903	0.529458
H37	H	1.617889	-0.288305	0.306188
H38	H	0.803756	0.181746	0.559149
F39	F	1.019359	0.136565	0.115225
H40	H	1.434299	-0.433314	0.117948
H41	H	1.328091	0.220520	0.978580
H42	H	1.020127	0.177724	0.488075
H43	H	1.287801	0.247425	0.728875
F44	F	1.528662	0.086204	0.718084
F45	F	1.246163	-0.421407	0.165832
F46	F	1.634097	-0.443922	0.281252
F47	F	1.248725	-0.263683	0.168063
F48	F	0.803001	0.140582	0.186267
H49	H	1.545901	0.074993	0.981093
F50	F	1.454992	-0.286170	0.092146
H51	H	1.352710	-0.384775	0.580342
F52	F	1.374273	-0.231886	0.616420
H53	H	1.234626	-0.241356	0.456261
H54	H	1.229037	-0.385993	0.445633
