data_functionalizedCrystal
_audit_creation_method	'MofGen! by Chris Wilmer'
_symmetry_space_group_name_H-M	'P1'
_symmetry_Int_Tables_number	1
_symmetry_cell_setting	triclinic
loop_
_symmetry_equiv_pos_as_xyz
  x,y,z
_cell_length_a	14.519709
_cell_length_b	19.288864
_cell_length_c	13.596369
_cell_angle_alpha	90.019175
_cell_angle_beta	89.993066
_cell_angle_gamma	96.591805
loop_
_atom_site_label
_atom_site_type_symbol
_atom_site_fract_x
_atom_site_fract_y
_atom_site_fract_z
O1	O	0.115045	-0.921763	-0.082109
O2	O	0.615045	-0.421763	0.417891
O3	O	0.130564	-0.719558	-0.082042
O4	O	0.630564	-0.219558	0.417958
O5	O	-0.011468	-0.826022	-0.082068
O6	O	0.488532	-0.326022	0.417932
O7	O	0.257077	-0.815299	-0.082083
O8	O	0.757077	-0.315299	0.417917
O9	O	-0.011475	-0.826011	0.081514
O10	O	0.488525	-0.326011	0.581514
O11	O	0.130557	-0.719548	0.081541
O12	O	0.630557	-0.219548	0.581541
O13	O	0.115038	-0.921752	0.081474
O14	O	0.615038	-0.421752	0.581474
Zn15	Zn	0.122796	-0.820648	0.107480
Zn16	Zn	0.622796	-0.320648	0.607480
Zn17	Zn	0.122806	-0.820662	-0.108048
Zn18	Zn	0.622806	-0.320662	0.391952
O19	O	0.257070	-0.815289	0.081500
O20	O	0.757070	-0.315289	0.581500
C21	C	-0.045828	-0.825517	-0.000277
C22	C	0.454172	-0.325517	0.499723
C23	C	-0.148200	-0.824019	-0.000276
C24	C	0.351800	-0.324019	0.499724
C25	C	0.130061	-0.693675	-0.000242
C26	C	0.630061	-0.193675	0.499758
C27	C	0.128562	-0.616566	-0.000216
C28	C	0.628562	-0.116566	0.499784
C29	C	0.115541	-0.947636	-0.000328
C30	C	0.615541	-0.447636	0.499672
C31	C	0.117040	-1.024745	-0.000361
C32	C	0.617040	-0.524745	0.499639
C33	C	-0.523061	-0.818507	-0.000299
C34	C	-0.023061	-0.318507	0.499701
C35	C	-0.418762	-0.820037	-0.000292
C36	C	0.081238	-0.320037	0.499708
C37	C	-0.335633	-0.821263	-0.000287
C38	C	0.164367	-0.321263	0.499713
C39	C	-0.231329	-0.822794	-0.000281
C40	C	0.268671	-0.322794	0.499719
C41	C	0.291430	-0.815794	-0.000294
C42	C	0.791430	-0.315794	0.499706
C43	C	0.393802	-0.817291	-0.000301
C44	C	0.893802	-0.317291	0.499699
N45	N	0.122789	-0.820644	0.254572
N46	N	0.622789	-0.320644	0.754572
C47	C	0.211900	-0.572169	-0.000236
C48	C	0.711900	-0.072169	0.499764
C49	C	0.210492	-0.499717	-0.000247
C50	C	0.710492	0.000283	0.499753
C51	C	0.125741	-0.471665	-0.000257
C52	C	0.625741	0.028335	0.499743
C53	C	0.042392	-0.516071	-0.000232
C54	C	0.542392	-0.016071	0.499768
C55	C	0.043803	-0.588521	-0.000211
C56	C	0.543803	-0.088521	0.499789
C57	C	0.059120	-0.363167	-0.057597
C58	C	0.559120	0.136833	0.442403
C59	C	0.057713	-0.290717	-0.057624
C60	C	0.557713	0.209283	0.442376
C61	C	0.121387	-0.248203	-0.000317
C62	C	0.621387	0.251797	0.499683
C63	C	0.186483	-0.278147	0.057005
C64	C	0.686483	0.221853	0.557005
C65	C	0.187894	-0.350597	0.057025
C66	C	0.687894	0.149403	0.557025
C67	C	0.124202	-0.393105	-0.000279
C68	C	0.624202	0.106895	0.499721
C69	C	0.203203	-0.125246	-0.000347
C70	C	0.703203	0.374754	0.499653
C71	C	0.201792	-0.052792	-0.000352
C72	C	0.701792	0.447208	0.499648
C73	C	0.033689	-0.069148	-0.000347
C74	C	0.533689	0.430852	0.499653
C75	C	0.035103	-0.141599	-0.000332
C76	C	0.535103	0.358401	0.499668
C77	C	0.119863	-0.169644	-0.000337
C78	C	0.619863	0.330356	0.499663
N79	N	0.122806	-0.820672	-0.255140
N80	N	0.622806	-0.320672	0.244860
C81	C	0.122807	-0.820661	0.655862
C82	C	0.622807	-0.320661	1.155862
C83	C	0.122805	-0.820654	0.544211
C84	C	0.622805	-0.320654	1.044211
C85	C	0.122799	-0.820653	0.455221
C86	C	0.622799	-0.320653	0.955221
C87	C	0.122795	-0.820645	0.343562
C88	C	0.622795	-0.320645	0.843562
H89	H	0.280918	-0.594998	-0.000242
H90	H	0.780918	-0.094998	0.499758
H91	H	0.272220	-0.148080	-0.000336
H92	H	0.772220	0.351920	0.499664
F93	F	-0.053598	-0.188851	-0.000316
F94	F	0.446402	0.311149	0.499684
F95	F	0.290496	-0.005542	-0.000368
F96	F	0.790496	0.494458	0.499632
F97	F	-0.008656	-0.408407	-0.118595
F98	F	0.491344	0.091593	0.381405
H99	H	0.278358	-0.463563	-0.000260
H100	H	0.778358	0.036437	0.499740
H101	H	0.238332	-0.243533	0.103671
H102	H	0.738332	0.256467	0.603671
H103	H	-0.035317	-0.046308	-0.000416
H104	H	0.464683	0.453692	0.499584
H105	H	0.004711	-0.266343	-0.104302
H106	H	0.504711	0.233657	0.395698
H107	H	0.240895	-0.374974	0.103701
H108	H	0.740895	0.125026	0.603701
H109	H	-0.026613	-0.493226	-0.000254
H110	H	0.473387	0.006774	0.499746
H111	H	-0.024063	-0.624670	-0.000196
H112	H	0.475937	-0.124670	0.499804
