data_functionalizedCrystal
_audit_creation_method	'MofGen! by Chris Wilmer'
_symmetry_space_group_name_H-M	'P1'
_symmetry_Int_Tables_number	1
_symmetry_cell_setting	triclinic
loop_
_symmetry_equiv_pos_as_xyz
  x,y,z
_cell_length_a	11.026607
_cell_length_b	10.540539
_cell_length_c	9.482900
_cell_angle_alpha	99.430988
_cell_angle_beta	78.636152
_cell_angle_gamma	96.555754
loop_
_atom_site_label
_atom_site_type_symbol
_atom_site_fract_x
_atom_site_fract_y
_atom_site_fract_z
O1	O	1.633556	0.517017	-0.120883
O2	O	1.279725	0.456370	-0.120886
O3	O	1.464712	0.303756	-0.120883
O4	O	1.448568	0.669632	-0.120886
O5	O	1.427139	0.334914	0.120909
O6	O	1.242151	0.487529	0.120905
O7	O	1.595982	0.548176	0.120909
Cu8	Cu	1.415636	0.520697	0.142985
Cu9	Cu	1.460071	0.483849	-0.142962
O10	O	1.410994	0.700790	0.120905
C11	C	1.215630	0.460761	0.000009
C12	C	1.080627	0.427408	0.000008
C13	C	1.007620	0.519500	0.000006
C14	C	0.868087	0.485031	0.000004
C15	C	1.444715	0.271766	0.000011
C16	C	1.441094	0.130024	0.000003
C17	C	1.302374	-0.083877	-0.000541
C18	C	1.305961	0.063616	0.000003
C19	C	1.484669	0.100404	0.138078
C20	C	1.480039	-0.047136	0.138195
C21	C	1.525516	-0.082485	-0.136768
C22	C	1.527044	0.064534	-0.138593
C23	C	1.660077	0.543785	0.000010
C24	C	1.795082	0.577136	0.000002
C25	C	1.430992	0.732779	0.000009
C26	C	1.434615	0.874520	0.000007
N27	N	1.384391	0.546616	0.344104
N28	N	1.491325	0.457922	-0.344082
C29	C	1.450847	0.491485	0.416305
C30	C	1.424860	0.513061	0.583722
H31	H	1.264380	-0.136929	-0.099558
H32	H	1.415939	-0.072562	0.241408
H33	H	0.827302	0.380657	-0.000032
C34	C	1.594212	0.372611	0.572009
H35	H	1.598202	0.369321	0.470494
H36	H	1.576239	0.287896	0.596869
H37	H	1.671688	0.408017	0.596882
H38	H	1.233910	-0.113041	0.097919
C39	C	0.850166	0.718133	0.000006
H40	H	0.786264	0.771440	0.000015
H41	H	0.912208	0.724113	-0.084308
H42	H	0.885991	0.745837	0.084339
C43	C	1.062720	0.660486	0.000003
H44	H	1.149275	0.665157	-0.000007
H45	H	1.023341	0.712509	0.084317
H46	H	1.049551	0.690767	-0.084330
C47	C	1.025529	0.286420	0.000001
H48	H	0.938977	0.281747	-0.000012
H49	H	1.038702	0.256125	0.084315
H50	H	1.064910	0.234408	-0.084332
C51	C	1.657563	-0.117574	-0.138037
H52	H	1.657356	-0.158232	-0.055667
H53	H	1.712574	-0.041347	-0.135008
H54	H	1.684210	-0.174824	-0.224210
C55	C	1.281541	0.631961	0.428022
H56	H	1.277573	0.635274	0.529537
H57	H	1.204052	0.596603	0.403168
H58	H	1.299561	0.716675	0.403146
H59	H	1.270172	0.082256	-0.098975
C60	C	1.610001	-0.082094	0.146686
H61	H	1.665388	-0.006144	0.150062
H62	H	1.639260	-0.141423	0.063431
H63	H	1.605529	-0.120258	0.231837
C64	C	1.215555	0.122049	0.133945
H65	H	1.176498	0.055635	0.188244
H66	H	1.154310	0.162075	0.103163
H67	H	1.260094	0.184475	0.193085
C68	C	1.553697	0.406140	0.332387
H69	H	1.557675	0.402840	0.230872
H70	H	1.535690	0.321433	0.357266
H71	H	1.631190	0.441512	0.357238
C72	C	1.617646	0.160866	0.145031
H73	H	1.647841	0.204821	0.063597
H74	H	1.669892	0.094843	0.143754
H75	H	1.617236	0.220261	0.232031
H76	H	1.423527	0.146349	0.240829
H77	H	1.498043	-0.137104	-0.241420
H78	H	1.495334	0.081807	-0.240738
C79	C	1.661892	0.124945	-0.149859
H80	H	1.667566	0.191187	-0.069821
H81	H	1.686274	0.160517	-0.237984
H82	H	1.715033	0.060394	-0.148685
H83	H	1.348716	0.576233	0.645845
