data_functionalizedCrystal
_audit_creation_method	'MofGen! by Chris Wilmer'
_symmetry_space_group_name_H-M	'P1'
_symmetry_Int_Tables_number	1
_symmetry_cell_setting	triclinic
loop_
_symmetry_equiv_pos_as_xyz
  x,y,z
_cell_length_a	19.805407
_cell_length_b	29.839131
_cell_length_c	19.805399
_cell_angle_alpha	90.025395
_cell_angle_beta	90.020409
_cell_angle_gamma	90.043643
loop_
_atom_site_label
_atom_site_type_symbol
_atom_site_fract_x
_atom_site_fract_y
_atom_site_fract_z
Zn1	Zn	1.034664	-0.178840	0.382745
Zn2	Zn	1.534664	0.321160	0.882745
Zn3	Zn	1.034548	-0.253968	0.269561
Zn4	Zn	1.534548	0.246032	0.769561
Zn5	Zn	0.921478	-0.178855	0.269568
Zn6	Zn	1.421478	0.321145	0.769568
Zn7	Zn	0.921412	-0.253947	0.382706
Zn8	Zn	1.421412	0.246053	0.882706
O9	O	0.978026	-0.216403	0.326145
O10	O	1.478026	0.283597	0.826145
O11	O	1.129365	-0.188809	0.367744
O12	O	1.629365	0.311191	0.867744
O13	O	1.019529	-0.244019	0.174845
O14	O	1.519529	0.255981	0.674845
O15	O	0.936569	-0.115986	0.284600
O16	O	1.436569	0.384014	0.784600
O17	O	1.129280	-0.244005	0.284589
O18	O	1.629280	0.255995	0.784589
O19	O	1.019726	-0.115975	0.367751
O20	O	1.519726	0.384025	0.867751
O21	O	0.936457	-0.188834	0.174850
O22	O	1.436457	0.311166	0.674850
O23	O	0.826753	-0.188814	0.284563
O24	O	1.326753	0.311186	0.784563
O25	O	0.936455	-0.243969	0.477428
O26	O	1.436455	0.256031	0.977428
O27	O	0.826704	-0.243983	0.367685
O28	O	1.326704	0.256017	0.867685
O29	O	1.019661	-0.188788	0.477456
O30	O	1.519661	0.311212	0.977456
O31	O	1.019464	-0.316832	0.284551
O32	O	1.519464	0.183168	0.784551
O33	O	0.936343	-0.316817	0.367678
O34	O	1.436343	0.183183	0.867678
C35	C	0.802170	-0.216398	0.326121
C36	C	1.302170	0.283602	0.826121
C37	C	0.726938	-0.216407	0.326126
C38	C	1.226938	0.283593	0.826126
C39	C	0.265194	-0.187716	0.369537
C40	C	0.765194	0.312284	0.869537
C41	C	0.335883	-0.187717	0.369532
C42	C	0.835883	0.312283	0.869532
C43	C	0.371176	-0.216409	0.326167
C44	C	0.871176	0.283591	0.826167
C45	C	0.335777	-0.245107	0.282809
C46	C	0.835777	0.254893	0.782809
C47	C	0.265090	-0.245108	0.282818
C48	C	0.765090	0.254892	0.782818
C49	C	0.620850	-0.245103	0.282773
C50	C	1.120850	0.254897	0.782773
C51	C	0.691542	-0.245099	0.282766
C52	C	1.191542	0.254901	0.782766
C53	C	0.691643	-0.187712	0.369487
C54	C	1.191643	0.312288	0.869487
C55	C	0.620956	-0.187713	0.369496
C56	C	1.120956	0.312287	0.869496
C57	C	0.585563	-0.216412	0.326141
C58	C	1.085563	0.283588	0.826141
C59	C	0.508915	-0.216411	0.326148
C60	C	1.008915	0.283589	0.826148
C61	C	0.447823	-0.216408	0.326156
C62	C	0.947823	0.283592	0.826156
C63	C	0.977902	-0.333125	0.326124
C64	C	1.477902	0.166875	0.826124
C65	C	0.977912	-0.383060	0.326138
C66	C	1.477912	0.116940	0.826138
C67	C	0.934772	-0.739654	0.369426
C68	C	1.434772	-0.239654	0.869426
C69	C	0.934683	-0.551981	0.369405
C70	C	1.434683	-0.051981	0.869405
O71	O	0.897857	-0.527723	0.406198
O72	O	1.397857	-0.027723	0.906198
N73	N	0.977983	-0.528505	0.326158
N74	N	1.477983	-0.028505	0.826158
C75	C	1.021312	-0.551949	0.282917
C76	C	1.521312	-0.051949	0.782917
O77	O	1.058145	-0.527675	0.246137
O78	O	1.558145	-0.027675	0.746137
C79	C	1.021405	-0.739622	0.282942
C80	C	1.521405	-0.239622	0.782942
C81	C	0.978097	-0.763096	0.326187
C82	C	1.478097	-0.263096	0.826187
C83	C	0.891468	-0.763128	0.412669
C84	C	1.391468	-0.263128	0.912669
C85	C	0.891488	-0.810044	0.412671
C86	C	1.391488	-0.310044	0.912671
C87	C	0.934813	-0.833485	0.369431
C88	C	1.434813	-0.333485	0.869431
C89	C	0.978117	-0.810011	0.326189
C90	C	1.478117	-0.310011	0.826189
C91	C	1.064737	-0.763065	0.239704
C92	C	1.564737	-0.263065	0.739704
C93	C	1.064757	-0.809986	0.239715
C94	C	1.564757	-0.309986	0.739715
C95	C	1.021449	-0.833461	0.282960
C96	C	1.521449	-0.333461	0.782960
C97	C	1.021461	-0.880368	0.282951
C98	C	1.521461	-0.380368	0.782951
N99	N	0.978161	-0.903844	0.326198
N100	N	1.478161	-0.403844	0.826198
C101	C	0.934837	-0.880403	0.369438
C102	C	1.434837	-0.380403	0.869438
C103	C	1.021260	-0.453419	0.282905
C104	C	1.521260	0.046581	0.782905
C105	C	1.021236	-0.406501	0.282898
C106	C	1.521236	0.093499	0.782898
C107	C	0.934607	-0.406536	0.369388
C108	C	1.434607	0.093464	0.869388
C109	C	0.934628	-0.453455	0.369391
C110	C	1.434628	0.046545	0.869391
C111	C	0.977959	-0.476895	0.326153
C112	C	1.477959	0.023105	0.826153
C113	C	0.934882	-0.978929	0.369439
C114	C	1.434882	-0.478929	0.869439
C115	C	0.934904	-1.025848	0.369436
C116	C	1.434904	-0.525848	0.869436
C117	C	1.021535	-1.025809	0.282949
C118	C	1.521535	-0.525809	0.782949
C119	C	1.021511	-0.978894	0.282949
C120	C	1.521511	-0.478894	0.782949
C121	C	0.978182	-0.955455	0.326200
C122	C	1.478182	-0.455455	0.826200
O123	O	1.058273	-0.904655	0.246183
O124	O	1.558273	-0.404655	0.746183
O125	O	0.898020	-0.904686	0.406223
O126	O	1.398020	-0.404686	0.906223
C127	C	0.934752	-0.692739	0.369424
C128	C	1.434752	-0.192739	0.869424
C129	C	0.978056	-0.669265	0.326182
C130	C	1.478056	-0.169265	0.826182
C131	C	1.021380	-0.692706	0.282942
C132	C	1.521380	-0.192706	0.782942
C133	C	0.978032	-0.622347	0.326175
C134	C	1.478032	-0.122347	0.826175
C135	C	0.934708	-0.598906	0.369415
C136	C	1.434708	-0.098906	0.869415
C137	C	0.891408	-0.622382	0.412662
C138	C	1.391408	-0.122382	0.912662
C139	C	0.891428	-0.669297	0.412664
C140	C	1.391428	-0.169297	0.912664
C141	C	1.064681	-0.669230	0.239695
C142	C	1.564681	-0.169230	0.739695
C143	C	1.064657	-0.622314	0.239696
C144	C	1.564657	-0.122314	0.739696
C145	C	1.021332	-0.598873	0.282936
C146	C	1.521332	-0.098873	0.782936
C147	C	1.154568	-0.216408	0.326170
C148	C	1.654568	0.283592	0.826170
C149	C	1.229800	-0.216410	0.326181
C150	C	1.729800	0.283590	0.826181
C151	C	0.978168	-0.099224	0.326181
C152	C	1.478168	0.400776	0.826181
C153	C	0.978228	-0.049290	0.326196
C154	C	1.478228	0.450710	0.826196
C155	C	0.978064	-0.216374	0.502688
C156	C	1.478064	0.283626	1.002688
C157	C	0.978080	-0.216362	0.577920
C158	C	1.478080	0.283638	1.077920
C159	C	0.978027	-0.216398	0.150289
C160	C	1.478027	0.283602	0.650289
C161	C	0.978142	-0.216284	0.075057
C162	C	1.478142	0.283716	0.575057
C163	C	1.021406	-0.187629	0.613280
C164	C	1.521406	0.312371	1.113280
C165	C	1.021413	-0.187616	0.683968
C166	C	1.521413	0.312384	1.183968
C167	C	0.978097	-0.216339	0.719296
C168	C	1.478097	0.283661	1.219296
C169	C	0.934766	-0.245074	0.683930
C170	C	1.434766	0.254926	1.183930
C171	C	0.934756	-0.245084	0.613243
C172	C	1.434756	0.254916	1.113243
C173	C	0.934804	-0.245032	0.969004
C174	C	1.434804	0.254968	1.469004
C175	C	0.934818	-0.245020	1.039696
C176	C	1.434818	0.254980	1.539696
C177	C	1.021461	-0.187563	1.039729
C178	C	1.521461	0.312437	1.539729
C179	C	1.021451	-0.187574	0.969042
C180	C	1.521451	0.312426	1.469042
C181	C	0.978118	-0.216307	0.933683
C182	C	1.478118	0.283693	1.433683
C183	C	0.978110	-0.216320	0.857035
C184	C	1.478110	0.283680	1.357035
C185	C	0.978107	-0.216328	0.795943
C186	C	1.478107	0.283672	1.295943
H187	H	0.720468	-0.164346	0.404791
H188	H	1.220468	0.335654	0.904791
H189	H	0.856189	-0.744047	0.447883
H190	H	1.356189	-0.244047	0.947883
O191	O	0.844674	-0.597091	0.459292
O192	O	1.344674	-0.097091	0.959292
H193	H	0.814556	-0.621293	0.489363
H194	H	1.314556	-0.121293	0.989363
O195	O	0.226913	-0.276056	0.236053
O196	O	0.726913	0.223944	0.736053
H197	H	0.194709	-0.255919	0.201678
H198	H	0.694709	0.244081	0.701678
O199	O	1.068260	-1.051100	0.236314
O200	O	1.568260	-0.551100	0.736314
H201	H	1.098369	-1.026898	0.206237
H202	H	1.598369	-0.526898	0.706237
O203	O	0.374051	-0.156763	0.416294
O204	O	0.874051	0.343237	0.916294
H205	H	0.406243	-0.176897	0.450684
H206	H	0.906243	0.323103	0.950684
O207	O	0.888015	-0.276071	0.575105
O208	O	1.388015	0.223929	1.075105
H209	H	0.899575	-0.311331	0.588654
H210	H	1.399575	0.188669	1.088654
H211	H	1.099922	-0.603205	0.204475
H212	H	1.599922	-0.103205	0.704475
O213	O	0.888034	-0.275998	0.930870
O214	O	1.388034	0.224002	1.430870
H215	H	0.857908	-0.295963	0.967313
H216	H	1.357908	0.204037	1.467313
H217	H	0.364518	-0.268470	0.247503
H218	H	0.864518	0.231530	0.747503
O219	O	0.888195	-1.051168	0.416083
O220	O	1.388195	-0.551168	0.916083
H221	H	0.858072	-1.026982	0.446154
H222	H	1.358072	-0.526982	0.946154
H223	H	0.899494	-0.268459	0.712699
H224	H	1.399494	0.231541	1.212699
O225	O	0.888140	-0.953651	0.416076
O226	O	1.388140	-0.453651	0.916076
H227	H	0.858028	-0.977862	0.446135
H228	H	1.358028	-0.477862	0.946135
H229	H	0.592042	-0.268470	0.247469
H230	H	1.092042	0.231530	0.747469
O231	O	1.067999	-0.478699	0.236267
O232	O	1.567999	0.021301	0.736267
H233	H	1.037742	-0.500113	0.201806
H234	H	1.537742	-0.000113	0.701806
H235	H	1.056743	-0.164166	1.068527
H236	H	1.556743	0.335834	1.568527
O237	O	0.582888	-0.156767	0.416268
O238	O	1.082888	0.343233	0.916268
H239	H	0.619376	-0.136816	0.446420
H240	H	1.119376	0.363184	0.946420
H241	H	1.056695	-0.164219	0.712756
H242	H	1.556695	0.335781	1.212756
H243	H	0.856163	-0.688406	0.447880
H244	H	1.356163	-0.188406	0.947880
O245	O	1.111409	-0.694512	0.193056
O246	O	1.611409	-0.194512	0.693056
H247	H	1.099822	-0.685533	0.139924
H248	H	1.599822	-0.185533	0.639924
H249	H	1.056494	-0.387392	0.247677
H250	H	1.556494	0.112608	0.747677
O251	O	0.844785	-0.835360	0.459320
O252	O	1.344785	-0.335360	0.959320
H253	H	0.814664	-0.811171	0.489388
H254	H	1.314664	-0.311171	0.989388
O255	O	0.887924	-0.478773	0.416039
O256	O	1.387924	0.021227	0.916039
H257	H	0.857799	-0.454586	0.446105
H258	H	1.357799	0.045414	0.946105
O259	O	1.068171	-0.156594	0.930937
O260	O	1.568171	0.343406	1.430937
H261	H	1.098297	-0.136609	0.967402
H262	H	1.598297	0.363391	1.467402
H263	H	0.720276	-0.268466	0.247452
H264	H	1.220276	0.231534	0.747452
O265	O	1.068233	-0.953579	0.236312
O266	O	1.568233	-0.453579	0.736312
H267	H	1.102639	-0.932177	0.266653
H268	H	1.602639	-0.432177	0.766653
O269	O	0.887875	-0.381253	0.416030
O270	O	1.387875	0.118747	0.916030
H271	H	0.918142	-0.359846	0.450493
H272	H	1.418142	0.140154	0.950493
H273	H	1.056681	-0.164240	0.584522
H274	H	1.556681	0.335760	1.084522
O275	O	1.111456	-0.737753	0.193068
O276	O	1.611456	-0.237753	0.693068
H277	H	1.141589	-0.761943	0.163015
H278	H	1.641589	-0.261943	0.663015
H279	H	0.899542	-0.268411	1.068457
H280	H	1.399542	0.231589	1.568457
H281	H	1.100046	-0.829069	0.204506
H282	H	1.600046	-0.329069	0.704506
H283	H	0.236463	-0.164348	0.404845
H284	H	0.736463	0.335652	0.904845
