data_functionalizedCrystal
_audit_creation_method	'MofGen! by Chris Wilmer'
_symmetry_space_group_name_H-M	'P1'
_symmetry_Int_Tables_number	1
_symmetry_cell_setting	triclinic
loop_
_symmetry_equiv_pos_as_xyz
  x,y,z
_cell_length_a	19.121241
_cell_length_b	19.121063
_cell_length_c	18.101389
_cell_angle_alpha	87.580609
_cell_angle_beta	92.462998
_cell_angle_gamma	95.003121
loop_
_atom_site_label
_atom_site_type_symbol
_atom_site_fract_x
_atom_site_fract_y
_atom_site_fract_z
Zn1	Zn	1.063740	-0.234412	0.477195
Zn2	Zn	1.058629	-0.352065	0.358407
Zn3	Zn	0.946073	-0.239422	0.348290
Zn4	Zn	0.941015	-0.357051	0.477132
O5	O	1.002364	-0.295738	0.415256
O6	O	1.161527	-0.245835	0.465698
O7	O	1.043676	-0.337133	0.253432
O8	O	0.965937	-0.140291	0.361182
O9	O	1.157772	-0.332275	0.378425
O10	O	1.052386	-0.136610	0.455887
O11	O	0.960981	-0.254375	0.245999
O12	O	0.846936	-0.259210	0.361121
O13	O	0.957317	-0.340772	0.580773
O14	O	0.843220	-0.345631	0.455780
O15	O	1.047482	-0.250669	0.580820
O16	O	1.038771	-0.451193	0.378364
O17	O	0.952361	-0.454856	0.465590
C18	C	0.819547	-0.303506	0.407346
C19	C	0.741337	-0.306846	0.403981
C20	C	0.706546	-0.263482	0.447913
C21	C	0.633059	-0.266617	0.444744
C22	C	0.594364	-0.313120	0.397647
C23	C	0.629160	-0.356486	0.353709
C24	C	0.702645	-0.353347	0.356875
C25	C	0.372386	-0.324843	0.385809
C26	C	0.298895	-0.327980	0.382648
C27	C	0.302800	-0.238111	0.473683
C28	C	0.376287	-0.234979	0.476847
C29	C	0.411076	-0.278341	0.432907
C30	C	0.519248	-0.316327	0.394408
C31	C	0.486191	-0.275130	0.436142
C32	C	0.994482	-0.478555	0.423085
C33	C	0.991174	-0.556763	0.426462
C34	C	1.034644	-0.591573	0.382675
C35	C	1.031538	-0.665057	0.385856
C36	C	0.984957	-0.703729	0.432819
C37	C	0.941485	-0.668914	0.476611
C38	C	0.944595	-0.595431	0.473434
C39	C	0.973315	-0.925697	0.444686
C40	C	0.970206	-0.999185	0.447858
C41	C	1.060260	-0.995322	0.357103
C42	C	1.063364	-0.921838	0.353927
C43	C	1.019895	-0.887029	0.397721
C44	C	0.981778	-0.778842	0.436070
C45	C	1.023077	-0.811918	0.394474
C46	C	1.185895	-0.287940	0.423197
C47	C	1.264105	-0.284617	0.426581
C48	C	1.002405	-0.295718	0.608419
C49	C	1.002423	-0.295710	0.690733
C50	C	1.010296	-0.112205	0.407413
C51	C	1.013676	-0.033995	0.404071
C52	C	1.002365	-0.295705	0.222844
C53	C	1.002493	-0.295509	0.140527
C54	C	1.002470	-0.295576	0.989821
C55	C	0.945560	-0.352101	0.958451
C56	C	0.945697	-0.352347	0.872850
C57	C	1.002446	-0.295642	0.841440
C58	C	1.075724	-0.312614	0.876603
C59	C	1.075404	-0.312983	0.962250
C60	C	0.986751	-0.221931	0.954231
C61	C	0.985083	-0.222431	0.868527
C62	C	1.002437	-0.295679	0.757582
C63	C	1.002483	-0.295542	1.073679
H64	H	0.738046	-0.225616	0.486267
Br65	Br	1.086296	-0.759432	0.330744
Br66	Br	0.918564	-0.831333	0.499806
Br67	Br	0.246380	-0.391116	0.318748
Br68	Br	1.099058	-0.401203	0.845894
H69	H	0.730971	-0.388658	0.321100
H70	H	0.407787	-0.197113	0.515202
Br71	Br	0.255582	-0.179264	0.533312
H72	H	0.909198	-0.567090	0.509091
H73	H	0.517699	-0.237265	0.474486
Br74	Br	0.962607	-0.443428	0.843555
H75	H	1.072572	-0.560090	0.344429
H76	H	0.597648	-0.394346	0.315358
Br77	Br	1.119255	-1.042566	0.297675
Br78	Br	0.906973	-1.051670	0.511586
H79	H	0.400703	-0.360153	0.350030
H80	H	0.890952	-0.341982	0.976127
Br81	Br	0.854965	-0.335249	0.832942
Br82	Br	0.878273	-0.721398	0.540356
H83	H	1.028240	-0.179856	0.974482
Br84	Br	0.895223	-0.201006	0.829650
H85	H	0.604735	-0.231307	0.480520
H86	H	0.937919	-0.897361	0.480344
H87	H	0.955571	-0.406423	0.982866
Br88	Br	0.466728	-0.379436	0.330491
H89	H	1.089100	-0.366725	0.985263
H90	H	0.934413	-0.205854	0.972741
Br91	Br	1.126592	-0.869358	0.290198
Br92	Br	1.148147	-0.247014	0.997131
Br93	Br	1.049557	-0.148932	0.832496
H94	H	1.066935	-0.693396	0.350199
Br95	Br	1.148069	-0.245920	0.842955
