data_functionalizedCrystal
_audit_creation_method	'MofGen! by Chris Wilmer'
_symmetry_space_group_name_H-M	'P1'
_symmetry_Int_Tables_number	1
_symmetry_cell_setting	triclinic
loop_
_symmetry_equiv_pos_as_xyz
  x,y,z
_cell_length_a	12.777686
_cell_length_b	15.624803
_cell_length_c	15.625186
_cell_angle_alpha	140.974261
_cell_angle_beta	97.076928
_cell_angle_gamma	97.078956
loop_
_atom_site_label
_atom_site_type_symbol
_atom_site_fract_x
_atom_site_fract_y
_atom_site_fract_z
O1	O	-0.351495	0.482514	-0.711669
O2	O	-0.328269	0.351133	-0.580310
O3	O	-0.188415	0.421577	-0.650741
O4	O	-0.491349	0.412070	-0.641239
O5	O	-0.119331	0.650826	-0.421495
O6	O	-0.259185	0.580383	-0.351064
O7	O	-0.282411	0.711763	-0.482423
Zn8	Zn	-0.259830	0.682471	-0.380346
Zn9	Zn	-0.350851	0.380425	-0.682388
O10	O	-0.422265	0.641320	-0.411992
C11	C	-0.287931	0.448968	-0.448899
C12	C	-0.270647	0.398937	-0.398877
C13	C	-0.114740	0.536202	-0.536127
C14	C	0.004061	0.536200	-0.536126
C15	C	-0.495944	0.526684	-0.526618
C16	C	-0.614747	0.526679	-0.526625
C17	C	-0.402076	-0.390471	-0.859309
C18	C	-0.385814	-0.437478	-0.812305
C19	C	-0.310498	-0.187571	-0.562378
C20	C	-0.326748	-0.140540	-0.609362
C21	C	-0.372539	-0.241999	-0.757829
C22	C	-0.297211	0.007931	-0.507882
C23	C	-0.313466	0.054956	-0.554863
C24	C	-0.359258	-0.046490	-0.703323
C25	C	-0.388794	-0.194974	-0.804810
C26	C	-0.251428	0.109387	-0.359415
C27	C	-0.221890	0.257859	-0.257935
C28	C	-0.238138	0.304887	-0.304916
C29	C	-0.283930	0.203440	-0.453376
C30	C	-0.208602	0.453371	-0.203429
C31	C	-0.224857	0.500396	-0.250410
C32	C	-0.300184	0.250466	-0.500357
O33	O	0.311578	0.412060	-0.641239
O34	O	0.008651	0.421583	-0.650738
O35	O	0.148489	0.351140	-0.580301
O36	O	0.171740	0.482502	-0.711677
O37	O	0.217579	0.580393	-0.351058
O38	O	0.077741	0.650836	-0.421495
O39	O	0.380669	0.641313	-0.411996
Zn40	Zn	0.240174	0.682473	-0.380348
Zn41	Zn	0.149145	0.380422	-0.682386
O42	O	0.240831	0.711755	-0.482434
C43	C	-0.322750	0.613926	-0.613837
C44	C	-0.340037	0.663947	-0.663868
C45	C	0.177238	0.448990	-0.448878
C46	C	0.159954	0.399000	-0.398815
C47	C	0.212085	0.613915	-0.613847
C48	C	0.229377	0.663934	-0.663881
C49	C	0.291411	0.859393	0.390553
C50	C	0.275154	0.812376	0.437550
C51	C	0.199833	0.562449	0.187644
C52	C	0.216079	0.609445	0.140623
C53	C	0.261869	0.757919	0.242087
C54	C	0.186537	0.507970	-0.007842
C55	C	0.202787	0.554963	-0.054857
C56	C	0.248579	0.703430	0.046594
C57	C	0.278119	0.804911	0.195072
C58	C	0.140753	0.359497	-0.109303
C59	C	0.111212	0.258022	-0.257769
C60	C	0.127454	0.305015	-0.304786
C61	C	0.173246	0.453482	-0.203335
C62	C	0.097913	0.203534	-0.453264
C63	C	0.114163	0.250526	-0.500279
C64	C	0.189496	0.500475	-0.250350
N65	N	-0.197710	0.888613	-0.174213
N66	N	-0.412963	0.174287	-0.888523
N67	N	0.302310	0.888614	-0.174215
N68	N	0.087019	0.174277	-0.888514
C69	C	-0.114072	0.991930	-0.133301
C70	C	-0.070566	1.136245	0.010992
C71	C	-0.110707	1.177242	0.114367
C72	C	-0.194351	1.073911	0.073447
C73	C	-0.237849	0.929598	-0.070841
C74	C	-0.372918	0.133428	-0.991883
C75	C	-0.416385	-0.010866	-1.136195
C76	C	-0.499890	-0.114302	-1.177143
C77	C	-0.539939	-0.073434	-1.073772
C78	C	-0.496478	0.070860	-0.929465
C79	C	0.396097	0.987508	-0.128906
C80	C	0.439638	1.131812	0.015396
C81	C	0.389385	1.177223	0.114384
C82	C	0.295591	1.078316	0.069068
C83	C	0.252057	0.934012	-0.075229
C84	C	-0.006474	0.075233	-0.933678
C85	C	-0.049966	-0.069094	-1.077957
C86	C	0.000031	-0.114374	-1.177072
C87	C	0.093535	-0.015319	-1.131900
C88	C	0.137031	0.129003	-0.987621
H89	H	-0.337468	0.167846	-0.621254
Br90	Br	-0.248821	1.129569	0.213755
H91	H	-0.047200	0.112077	-0.852993
H92	H	0.162555	0.441560	0.105044
Br93	Br	0.227461	1.139939	0.203457
Br94	Br	-0.351368	0.789395	-0.126348
Br95	Br	0.124875	0.799760	-0.136645
H96	H	0.226769	0.621377	-0.167727
H97	H	-0.126097	-0.149730	-1.114710
Br98	Br	-0.550832	0.126290	-0.789201
H99	H	-0.171329	0.535964	-0.082547
Br100	Br	-0.653267	-0.213825	-1.129362
Br101	Br	0.161381	-0.076796	-1.266431
H102	H	-0.035390	-0.231898	-1.294546
H103	H	0.315393	0.925814	0.277695
Br104	Br	0.042946	1.276453	0.066492
H105	H	0.437028	0.950558	-0.209488
H106	H	-0.200810	0.621293	-0.167774
Br107	Br	-0.259589	0.273774	-0.936351
H108	H	-0.535271	-0.231791	-1.294652
Br109	Br	0.270648	0.767212	-0.017206
Br110	Br	0.353538	1.060898	0.528246
H111	H	0.213158	0.209638	-0.950865
H112	H	0.424837	1.294732	0.231873
Br113	Br	0.566932	1.266012	0.076865
H114	H	0.127513	0.321241	-0.071013
Br115	Br	-0.381328	0.017325	-0.767089
Br116	Br	0.315286	0.950107	0.639057
H117	H	-0.273218	-0.104975	-0.441495
Br118	Br	-0.464203	-0.528158	-1.060805
Br119	Br	-0.425914	-0.638992	-0.950044
Br120	Br	-0.229377	0.045566	-0.295654
Br121	Br	-0.450921	-0.332661	-1.006305
H122	H	-0.184611	0.340454	-0.137053
Br123	Br	0.049130	0.056525	-0.395451
H124	H	-0.383762	-0.044119	-1.220345
H125	H	0.090098	0.167896	-0.621172
Br126	Br	0.035839	0.002037	-0.590942
H127	H	-0.081375	0.958574	-0.217455
H128	H	-0.075279	1.294756	0.231851
