data_functionalizedCrystal
_audit_creation_method	'MofGen! by Chris Wilmer'
_symmetry_space_group_name_H-M	'P1'
_symmetry_Int_Tables_number	1
_symmetry_cell_setting	triclinic
loop_
_symmetry_equiv_pos_as_xyz
  x,y,z
_cell_length_a	16.120490
_cell_length_b	12.594516
_cell_length_c	16.120297
_cell_angle_alpha	87.123691
_cell_angle_beta	89.870317
_cell_angle_gamma	87.104371
loop_
_atom_site_label
_atom_site_type_symbol
_atom_site_fract_x
_atom_site_fract_y
_atom_site_fract_z
Zn1	Zn	1.247532	-0.539337	0.534562
Zn2	Zn	1.254509	-0.708781	0.395513
Zn3	Zn	1.115519	-0.521341	0.388482
Zn4	Zn	1.108465	-0.707790	0.527485
O5	O	1.181506	-0.619312	0.461510
O6	O	1.364825	-0.569759	0.522020
O7	O	1.241944	-0.676800	0.278214
O8	O	1.133062	-0.374786	0.407879
O9	O	1.369952	-0.694249	0.419862
O10	O	1.230052	-0.388007	0.515203
O11	O	1.139828	-0.539089	0.273049
O12	O	0.998215	-0.538129	0.401017
O13	O	1.121040	-0.692561	0.644790
O14	O	0.993032	-0.675112	0.503142
O15	O	1.223212	-0.568799	0.649989
O16	O	1.235104	-0.857592	0.413000
O17	O	1.127806	-0.856864	0.509960
C18	C	0.965450	-0.604561	0.450550
C19	C	0.873020	-0.598277	0.445880
C20	C	0.660066	-0.651900	0.485733
C21	C	0.703793	-0.586814	0.437354
C22	C	0.797960	-0.593194	0.442099
C23	C	0.565891	-0.645521	0.480988
C24	C	1.181468	-0.895850	0.461494
C25	C	1.181527	-1.014161	0.461519
C26	C	1.239948	-1.083779	0.408845
C27	C	1.256420	-1.160534	0.485772
C28	C	1.165156	-1.148214	0.384645
C29	C	1.198036	-1.089362	0.538487
C30	C	1.106739	-1.077031	0.437308
C31	C	1.123180	-1.153756	0.514286
C32	C	1.398405	-0.634122	0.472515
C33	C	1.490835	-0.640433	0.477204
C34	C	1.170561	-0.632577	0.678406
C35	C	1.165897	-0.638230	0.770833
C36	C	1.181566	-0.341698	0.461546
C37	C	1.181591	-0.223395	0.461562
C38	C	1.192456	-0.606026	0.245462
C39	C	1.197282	-0.600084	0.153042
C40	C	1.157351	-0.648524	0.940059
C41	C	1.205825	-0.589793	0.983822
C42	C	1.201070	-0.595520	1.077985
C43	C	1.162105	-0.642798	0.845887
H44	H	0.693350	-0.712409	0.530711
Cl45	Cl	0.652407	-0.493390	0.367900
Cl46	Cl	1.316229	-1.036327	0.340136
Cl47	Cl	1.275432	-0.505544	0.932490
H48	H	1.073800	-1.184299	0.558903
H49	H	1.151283	-1.174266	0.319617
H50	H	1.112283	-0.703105	0.973308
Cl51	Cl	1.354110	-1.216819	0.517439
Cl52	Cl	1.219582	-1.049361	0.638920
H53	H	1.043486	-1.040538	0.416786
