data_functionalizedCrystal
_audit_creation_method	'MofGen! by Chris Wilmer'
_symmetry_space_group_name_H-M	'P1'
_symmetry_Int_Tables_number	1
_symmetry_cell_setting	triclinic
loop_
_symmetry_equiv_pos_as_xyz
  x,y,z
_cell_length_a	19.805407
_cell_length_b	12.759394
_cell_length_c	19.805407
_cell_angle_alpha	90.008809
_cell_angle_beta	90.003560
_cell_angle_gamma	90.015796
loop_
_atom_site_label
_atom_site_type_symbol
_atom_site_fract_x
_atom_site_fract_y
_atom_site_fract_z
Zn1	Zn	1.034682	-0.418376	0.382760
Zn2	Zn	1.534682	0.081624	0.882760
Zn3	Zn	1.034655	-0.594028	0.269582
Zn4	Zn	1.534655	-0.094028	0.769582
Zn5	Zn	0.921530	-0.418370	0.269583
Zn6	Zn	1.421530	0.081630	0.769583
Zn7	Zn	0.921485	-0.594020	0.382727
Zn8	Zn	1.421485	-0.094020	0.882727
O9	O	0.978088	-0.506198	0.326163
O10	O	1.478088	-0.006198	0.826163
O11	O	1.129395	-0.441683	0.367760
O12	O	1.629395	0.058317	0.867760
O13	O	1.019656	-0.570728	0.174865
O14	O	1.519656	-0.070728	0.674865
O15	O	0.936570	-0.271349	0.284610
O16	O	1.436570	0.228651	0.784610
O17	O	1.129375	-0.570734	0.284608
O18	O	1.629375	-0.070734	0.784608
O19	O	1.019702	-0.271354	0.367760
O20	O	1.519702	0.228646	0.867760
O21	O	0.936544	-0.441672	0.174866
O22	O	1.436544	0.058328	0.674866
O23	O	0.826808	-0.441664	0.284578
O24	O	1.326808	0.058336	0.784578
O25	O	0.936493	-0.570719	0.477448
O26	O	1.436493	-0.070719	0.977448
O27	O	0.826775	-0.570713	0.367705
O28	O	1.326775	-0.070713	0.867705
O29	O	1.019659	-0.441675	0.477472
O30	O	1.519659	0.058325	0.977472
O31	O	1.019613	-0.741048	0.284577
O32	O	1.519613	-0.241048	0.784577
O33	O	0.936467	-0.741042	0.367704
O34	O	1.436467	-0.241042	0.867704
C35	C	0.802232	-0.506188	0.326138
C36	C	1.302232	-0.006188	0.826138
C37	C	0.727000	-0.506208	0.326144
C38	C	1.227000	-0.006208	0.826144
C39	C	0.265223	-0.439127	0.369552
C40	C	0.765223	0.060873	0.869552
C41	C	0.335911	-0.439129	0.369547
C42	C	0.835911	0.060871	0.869547
C43	C	0.371238	-0.506214	0.326185
C44	C	0.871238	-0.006214	0.826185
C45	C	0.335873	-0.573309	0.282829
C46	C	0.835873	-0.073309	0.782829
C47	C	0.265186	-0.573312	0.282838
C48	C	0.765186	-0.073312	0.782838
C49	C	0.620947	-0.573301	0.282793
C50	C	1.120947	-0.073301	0.782793
C51	C	0.691639	-0.573291	0.282786
C52	C	1.191639	-0.073291	0.782786
C53	C	0.691672	-0.439119	0.369502
C54	C	1.191672	0.060881	0.869502
C55	C	0.620985	-0.439121	0.369511
C56	C	1.120985	0.060879	0.869511
C57	C	0.585626	-0.506220	0.326158
C58	C	1.085626	-0.006220	0.826158
C59	C	0.508977	-0.506218	0.326165
C60	C	1.008977	-0.006218	0.826165
C61	C	0.447886	-0.506211	0.326174
C62	C	0.947886	-0.006211	0.826174
C63	C	0.978051	-0.779166	0.326152
C64	C	1.478051	-0.279166	0.826152
C65	C	0.978096	-0.895943	0.326169
C66	C	1.478096	-0.395943	0.826169
C67	C	1.064597	-0.895789	0.412819
C68	C	1.564597	-0.395789	0.912819
C69	C	1.107869	-0.950573	0.456149
C70	C	1.607869	-0.450573	0.956149
C71	C	1.107909	-1.060295	0.456164
C72	C	1.607909	-0.560295	0.956164
C73	C	1.064672	-1.115235	0.412845
C74	C	1.564672	-0.615235	0.912845
C75	C	1.021400	-1.060451	0.369515
C76	C	1.521400	-0.560451	0.869515
C77	C	1.021366	-0.950727	0.369504
C78	C	1.521366	-0.450727	0.869504
C79	C	0.934897	-1.060604	0.282870
C80	C	1.434897	-0.560604	0.782870
C81	C	0.934859	-0.950883	0.282851
C82	C	1.434859	-0.450883	0.782851
C83	C	0.891659	-1.115544	0.239551
C84	C	1.391659	-0.615544	0.739551
C85	C	0.848390	-1.060760	0.196217
C86	C	1.348390	-0.560760	0.696217
C87	C	0.848352	-0.951032	0.196204
C88	C	1.348352	-0.451032	0.696204
C89	C	0.891587	-0.896098	0.239521
C90	C	1.391587	-0.396098	0.739521
C91	C	1.154631	-0.506210	0.326188
C92	C	1.654631	-0.006210	0.826188
C93	C	1.229863	-0.506215	0.326198
C94	C	1.729863	-0.006215	0.826198
C95	C	0.978074	-0.506197	0.502705
C96	C	1.478074	-0.006197	1.002705
C97	C	0.978068	-0.506196	0.577937
C98	C	1.478068	-0.006196	1.077937
C99	C	0.978144	-0.232165	0.326189
C100	C	1.478144	0.267835	0.826189
C101	C	0.978168	-0.115388	0.326200
C102	C	1.478168	0.384612	0.826200
C103	C	1.021368	-0.573409	1.039726
C104	C	1.521368	-0.073409	1.539726
C105	C	1.021362	-0.573410	0.969037
C106	C	1.521362	-0.073410	1.469037
C107	C	0.978088	-0.506217	0.933699
C108	C	1.478088	-0.006217	1.433699
C109	C	0.934812	-0.439026	0.969053
C110	C	1.434812	0.060974	1.469053
C111	C	0.934815	-0.439032	1.039740
C112	C	1.434815	0.060968	1.539740
C113	C	0.934798	-0.439004	0.683980
C114	C	1.434798	0.060996	1.183980
C115	C	0.934800	-0.439002	0.613288
C116	C	1.434800	0.060998	1.113288
C117	C	1.021345	-0.573383	0.613277
C118	C	1.521345	-0.073383	1.113277
C119	C	1.021348	-0.573388	0.683964
C120	C	1.521348	-0.073388	1.183964
C121	C	0.978070	-0.506202	0.719312
C122	C	1.478070	-0.006202	1.219312
C123	C	0.978076	-0.506203	0.795960
C124	C	1.478076	-0.006203	1.295960
C125	C	0.978085	-0.506210	0.857052
C126	C	1.478085	-0.006210	1.357052
C127	C	0.978095	-0.506223	1.150307
C128	C	1.478095	-0.006223	1.650307
C129	C	0.978097	-0.506222	1.075075
C130	C	1.478097	-0.006222	1.575075
H131	H	0.236397	-0.627944	0.247536
H132	H	0.736397	-0.127944	0.747536
F133	F	0.802292	-0.892735	0.150088
F134	F	1.302292	-0.392735	0.650088
H135	H	0.592225	-0.384490	0.404819
H136	H	1.092225	0.115510	0.904819
F137	F	0.373541	-0.367730	0.415693
F138	F	0.873541	0.132270	0.915693
H139	H	0.720470	-0.384487	0.404804
H140	H	1.220470	0.115513	0.904804
F141	F	0.729235	-0.644696	0.236631
F142	F	1.229235	-0.144696	0.736631
F143	F	0.227631	-0.367719	0.415702
F144	F	0.727631	0.132281	0.915702
F145	F	0.583324	-0.644690	0.236638
F146	F	1.083324	-0.144690	0.736638
F147	F	0.888762	-0.367517	1.077361
F148	F	1.388762	0.132483	1.577361
H149	H	0.891563	-0.806757	0.239511
H150	H	1.391563	-0.306757	0.739511
H151	H	0.813186	-1.105501	0.160954
H152	H	1.313186	-0.605501	0.660954
H153	H	0.364642	-0.627935	0.247525
H154	H	0.864642	-0.127935	0.747525
F155	F	0.888713	-0.367536	0.721591
F156	F	1.388713	0.132464	1.221591
F157	F	0.888739	-0.367483	0.575680
F158	F	1.388739	0.132517	1.075680
H159	H	1.064575	-0.806448	0.412805
H160	H	1.564575	-0.306448	0.912805
F161	F	1.067431	-0.644921	1.077329
F162	F	1.567431	-0.144921	1.577329
F163	F	1.067418	-0.644919	0.931419
F164	F	1.567418	-0.144919	1.431419
H165	H	1.143071	-0.905832	0.491420
H166	H	1.643071	-0.405832	0.991420
H167	H	1.056589	-0.628100	0.712733
H168	H	1.556589	-0.128100	1.212733
H169	H	1.143138	-1.104900	0.491454
H170	H	1.643138	-0.604900	0.991454
F171	F	1.067405	-0.644892	0.575652
F172	F	1.567405	-0.144892	1.075652
H173	H	1.064702	-1.204576	0.412867
H174	H	1.564702	-0.704576	0.912867
F175	F	0.891775	-1.232320	0.239496
F176	F	1.391775	-0.732320	0.739496
F177	F	0.888762	-0.367504	0.931442
F178	F	1.388762	0.132496	1.431442
