data_functionalizedCrystal
_audit_creation_method	'MofGen! by Chris Wilmer'
_symmetry_space_group_name_H-M	'P1'
_symmetry_Int_Tables_number	1
_symmetry_cell_setting	triclinic
loop_
_symmetry_equiv_pos_as_xyz
  x,y,z
_cell_length_a	18.101390
_cell_length_b	18.215407
_cell_length_c	18.215405
_cell_angle_alpha	90.025333
_cell_angle_beta	90.035371
_cell_angle_gamma	90.017596
loop_
_atom_site_label
_atom_site_type_symbol
_atom_site_fract_x
_atom_site_fract_y
_atom_site_fract_z
Zn1	Zn	-0.418723	-1.125056	0.292948
Zn2	Zn	-0.168723	-0.875056	0.542948
Zn3	Zn	0.081277	-0.625056	0.792948
Zn4	Zn	0.331277	-0.375056	1.042948
Zn5	Zn	-0.294876	-1.124969	0.416030
Zn6	Zn	-0.044876	-0.874969	0.666030
Zn7	Zn	0.205124	-0.624969	0.916030
Zn8	Zn	0.455124	-0.374969	1.166030
Zn9	Zn	-0.294896	-1.001993	0.292982
Zn10	Zn	-0.044896	-0.751993	0.542982
Zn11	Zn	0.205104	-0.501993	0.792982
Zn12	Zn	0.455104	-0.251993	1.042982
Zn13	Zn	-0.418676	-1.001954	0.415978
Zn14	Zn	-0.168676	-0.751954	0.665978
Zn15	Zn	0.081324	-0.501954	0.915978
Zn16	Zn	0.331324	-0.251954	1.165978
O17	O	-0.356793	-1.063493	0.354485
O18	O	-0.106793	-0.813493	0.604485
O19	O	0.143207	-0.563493	0.854485
O20	O	0.393207	-0.313493	1.104485
O21	O	-0.402306	-1.228028	0.309282
O22	O	-0.152306	-0.978028	0.559282
O23	O	0.097694	-0.728028	0.809282
O24	O	0.347694	-0.478028	1.059282
O25	O	-0.191246	-1.108636	0.399743
O26	O	0.058754	-0.858636	0.649743
O27	O	0.308754	-0.608636	0.899743
O28	O	0.558754	-0.358636	1.149743
O29	O	-0.311350	-1.018370	0.189994
O30	O	-0.061350	-0.768370	0.439994
O31	O	0.188650	-0.518370	0.689994
O32	O	0.438650	-0.268370	0.939994
O33	O	-0.311317	-1.227965	0.399710
O34	O	-0.061317	-0.977965	0.649710
O35	O	0.188683	-0.727965	0.899710
O36	O	0.438683	-0.477965	1.149710
O37	O	-0.402325	-1.108784	0.189968
O38	O	-0.152325	-0.858784	0.439968
O39	O	0.097675	-0.608784	0.689968
O40	O	0.347675	-0.358784	0.939968
O41	O	-0.191260	-1.018286	0.309341
O42	O	0.058740	-0.768286	0.559341
O43	O	0.308740	-0.518286	0.809341
O44	O	0.558740	-0.268286	1.059341
O45	O	-0.311304	-0.899004	0.309291
O46	O	-0.061304	-0.649004	0.559291
O47	O	0.188696	-0.399004	0.809291
O48	O	0.438696	-0.149004	1.059291
O49	O	-0.522315	-1.018304	0.399622
O50	O	-0.272315	-0.768304	0.649622
O51	O	-0.022315	-0.518304	0.899622
O52	O	0.227685	-0.268304	1.149622
O53	O	-0.402245	-0.898975	0.399656
O54	O	-0.152245	-0.648975	0.649656
O55	O	0.097755	-0.398975	0.899656
O56	O	0.347755	-0.148975	1.149656
O57	O	-0.522350	-1.108746	0.309232
O58	O	-0.272350	-0.858746	0.559232
O59	O	-0.022350	-0.608746	0.809232
O60	O	0.227650	-0.358746	1.059232
O61	O	-0.311271	-1.108598	0.519007
O62	O	-0.061271	-0.858598	0.769007
O63	O	0.188729	-0.608598	1.019007
O64	O	0.438729	-0.358598	1.269007
O65	O	-0.402226	-1.018220	0.518969
O66	O	-0.152226	-0.768220	0.768969
O67	O	0.097774	-0.518220	1.018969
O68	O	0.347774	-0.268220	1.268969
C69	C	-0.356772	-0.872287	0.354472
C70	C	-0.106772	-0.622287	0.604472
C71	C	0.143228	-0.372287	0.854472
C72	C	0.393228	-0.122287	1.104472
C73	C	-0.356780	-0.790488	0.354484
C74	C	-0.106780	-0.540488	0.604484
C75	C	0.143220	-0.290488	0.854484
C76	C	0.393220	-0.040488	1.104484
C77	C	-0.356757	-1.063415	0.545691
C78	C	-0.106757	-0.813415	0.795691
C79	C	0.143243	-0.563415	1.045691
C80	C	0.393243	-0.313415	1.295691
C81	C	-0.356767	-1.063449	0.627490
C82	C	-0.106767	-0.813449	0.877490
C83	C	0.143233	-0.563449	1.127490
C84	C	0.393233	-0.313449	1.377490
C85	C	-0.549955	-1.063530	0.354418
C86	C	-0.299955	-0.813530	0.604418
C87	C	-0.049955	-0.563530	0.854418
C88	C	0.200045	-0.313530	1.104418
C89	C	-0.632269	-1.063546	0.354389
C90	C	-0.382269	-0.813546	0.604389
C91	C	-0.132269	-0.563546	0.854389
C92	C	0.117731	-0.313546	1.104389
C93	C	-0.782977	-1.063573	0.354366
C94	C	-0.532977	-0.813573	0.604366
C95	C	-0.282977	-0.563573	0.854366
C96	C	-0.032977	-0.313573	1.104366
C97	C	-0.814353	-1.120478	0.297490
C98	C	-0.564353	-0.870478	0.547490
C99	C	-0.314353	-0.620478	0.797490
C100	C	-0.064353	-0.370478	1.047490
C101	C	-0.899971	-1.120716	0.297644
C102	C	-0.649971	-0.870716	0.547644
C103	C	-0.399971	-0.620716	0.797644
C104	C	-0.149971	-0.370716	1.047644
C105	C	-0.931360	-1.063599	0.354342
C106	C	-0.681360	-0.813599	0.604342
C107	C	-0.431360	-0.563599	0.854342
C108	C	-0.181360	-0.313599	1.104342
C109	C	-0.900246	-1.084352	0.431965
C110	C	-0.650246	-0.834352	0.681965
C111	C	-0.400246	-0.584352	0.931965
C112	C	-0.150246	-0.334352	1.181965
C113	C	-0.814601	-1.084750	0.431649
C114	C	-0.564601	-0.834750	0.681649
C115	C	-0.314601	-0.584750	0.931649
C116	C	-0.064601	-0.334750	1.181649
C117	C	-0.814535	-0.985775	0.334293
C118	C	-0.564535	-0.735775	0.584293
C119	C	-0.314535	-0.485775	0.834293
C120	C	-0.064535	-0.235775	1.084293
C121	C	-0.900187	-0.986207	0.332568
C122	C	-0.650187	-0.736207	0.582568
C123	C	-0.400187	-0.486207	0.832568
C124	C	-0.150187	-0.236207	1.082568
C125	C	-1.015220	-1.063612	0.354334
C126	C	-0.765220	-0.813612	0.604334
C127	C	-0.515220	-0.563612	0.854334
C128	C	-0.265220	-0.313612	1.104334
C129	C	-0.699118	-1.063561	0.354380
C130	C	-0.449118	-0.813561	0.604380
C131	C	-0.199118	-0.563561	0.854380
C132	C	0.050882	-0.313561	1.104380
C133	C	-0.164382	-1.063498	0.354498
C134	C	0.085618	-0.813498	0.604498
C135	C	0.335618	-0.563498	0.854498
C136	C	0.585618	-0.313498	1.104498
C137	C	-0.082069	-1.063625	0.354319
C138	C	0.167931	-0.813625	0.604319
C139	C	0.417931	-0.563625	0.854319
C140	C	0.667931	-0.313625	1.104319
C141	C	-0.356815	-1.255446	0.354498
C142	C	-0.106815	-1.005446	0.604498
C143	C	0.143185	-0.755446	0.854498
C144	C	0.393185	-0.505446	1.104498
C145	C	-0.356824	-1.337245	0.354503
C146	C	-0.106824	-1.087245	0.604503
C147	C	0.143176	-0.837245	0.854503
C148	C	0.393176	-0.587245	1.104503
C149	C	-0.404074	-0.602298	0.401611
C150	C	-0.154074	-0.352298	0.651611
C151	C	0.095926	-0.102298	0.901611
C152	C	0.345926	0.147702	1.151611
C153	C	-0.404083	-0.525440	0.401613
C154	C	-0.154083	-0.275440	0.651613
C155	C	0.095917	-0.025440	0.901613
C156	C	0.345917	0.224560	1.151613
C157	C	-0.309528	-0.525440	0.307371
C158	C	-0.059528	-0.275440	0.557371
C159	C	0.190472	-0.025440	0.807371
C160	C	0.440472	0.224560	1.057371
C161	C	-0.309523	-0.602297	0.307366
C162	C	-0.059523	-0.352297	0.557366
C163	C	0.190477	-0.102297	0.807366
C164	C	0.440477	0.147703	1.057366
C165	C	-0.356795	-0.640724	0.354490
C166	C	-0.106795	-0.390724	0.604490
C167	C	0.143205	-0.140724	0.854490
C168	C	0.393205	0.109276	1.104490
C169	C	-0.356809	-0.487008	0.354498
C170	C	-0.106809	-0.237008	0.604498
C171	C	0.143191	0.012992	0.854498
C172	C	0.393191	0.262992	1.104498
C173	C	-0.356819	-0.403675	0.354500
C174	C	-0.106819	-0.153675	0.604500
C175	C	0.143181	0.096325	0.854500
C176	C	0.393181	0.346325	1.104500
C177	C	-0.356786	-0.724063	0.354487
C178	C	-0.106786	-0.474063	0.604487
C179	C	0.143214	-0.224063	0.854487
C180	C	0.393214	0.025937	1.104487
C181	C	-0.356845	-1.063591	0.162532
C182	C	-0.106845	-0.813591	0.412532
C183	C	0.143155	-0.563591	0.662532
C184	C	0.393155	-0.313591	0.912532
C185	C	-0.356867	-1.063633	0.080733
C186	C	-0.106867	-0.813633	0.330733
C187	C	0.143133	-0.563633	0.580733
C188	C	0.393133	-0.313633	0.830733
C189	C	-0.309494	-1.110620	0.815679
C190	C	-0.059494	-0.860620	1.065679
C191	C	0.190506	-0.610620	1.315679
C192	C	0.440506	-0.360620	1.565679
C193	C	-0.309511	-1.110653	0.892538
C194	C	-0.059511	-0.860653	1.142538
C195	C	0.190489	-0.610653	1.392538
C196	C	0.440489	-0.360653	1.642538
C197	C	-0.404145	-1.016460	0.892538
C198	C	-0.154145	-0.766460	1.142538
C199	C	0.095855	-0.516460	1.392538
C200	C	0.345855	-0.266460	1.642538
C201	C	-0.404131	-1.016432	0.815681
C202	C	-0.154131	-0.766432	1.065681
C203	C	0.095869	-0.516432	1.315681
C204	C	0.345869	-0.266432	1.565681
C205	C	-0.356801	-1.063510	0.777253
C206	C	-0.106801	-0.813510	1.027253
C207	C	0.143199	-0.563510	1.277253
C208	C	0.393199	-0.313510	1.527253
C209	C	-0.356833	-1.063572	0.930969
C210	C	-0.106833	-0.813572	1.180969
C211	C	0.143167	-0.563572	1.430969
C212	C	0.393167	-0.313572	1.680969
C213	C	-0.356853	-1.063607	1.014303
C214	C	-0.106853	-0.813607	1.264303
C215	C	0.143147	-0.563607	1.514303
C216	C	0.393147	-0.313607	1.764303
C217	C	-0.356781	-1.063476	0.693914
C218	C	-0.106781	-0.813476	0.943914
C219	C	0.143219	-0.563476	1.193914
C220	C	0.393219	-0.313476	1.443914
H221	H	-0.921011	-1.107749	0.240097
H222	H	-0.671011	-0.857749	0.490097
H223	H	-0.421011	-0.607749	0.740097
H224	H	-0.171011	-0.357749	0.990097
F225	F	-0.259204	-0.643195	0.257207
F226	F	-0.009204	-0.393195	0.507207
F227	F	0.240796	-0.143195	0.757207
F228	F	0.490796	0.106805	1.007207
H229	H	-0.270990	-1.149015	0.923820
H230	H	-0.020990	-0.899015	1.173820
H231	H	0.229010	-0.649015	1.423820
H232	H	0.479010	-0.399015	1.673820
H233	H	-0.442679	-0.978129	0.923836
H234	H	-0.192679	-0.728129	1.173836
H235	H	0.057321	-0.478129	1.423836
H236	H	0.307321	-0.228129	1.673836
F237	F	-0.454487	-0.966292	0.774783
F238	F	-0.204487	-0.716292	1.024783
F239	F	0.045513	-0.466292	1.274783
F240	F	0.295513	-0.216292	1.524783
H241	H	-0.921718	-1.140585	0.449241
H242	H	-0.671718	-0.890585	0.699241
H243	H	-0.421718	-0.640585	0.949241
H244	H	-0.171718	-0.390585	1.199241
H245	H	-0.792839	-1.177798	0.310635
H246	H	-0.542839	-0.927798	0.560635
H247	H	-0.292839	-0.677798	0.810635
H248	H	-0.042839	-0.427798	1.060635
F249	F	-0.787465	-1.032913	0.488945
F250	F	-0.537465	-0.782913	0.738945
F251	F	-0.287465	-0.532913	0.988945
F252	F	-0.037465	-0.282913	1.238945
H253	H	-0.793783	-1.107667	0.239766
H254	H	-0.543783	-0.857667	0.489766
H255	H	-0.293783	-0.607667	0.739766
H256	H	-0.043783	-0.357667	0.989766
F257	F	-0.926815	-1.031848	0.488862
F258	F	-0.676815	-0.781848	0.738862
F259	F	-0.426815	-0.531848	0.988862
F260	F	-0.176815	-0.281848	1.238862
H261	H	-0.920467	-1.178370	0.310945
H262	H	-0.670467	-0.928370	0.560945
H263	H	-0.420467	-0.678370	0.810945
H264	H	-0.170467	-0.428370	1.060945
F265	F	-0.786328	-0.961001	0.261575
F266	F	-0.536328	-0.711001	0.511575
F267	F	-0.286328	-0.461001	0.761575
F268	F	-0.036328	-0.211001	1.011575
H269	H	-0.794241	-0.943381	0.375716
H270	H	-0.544241	-0.693381	0.625716
H271	H	-0.294241	-0.443381	0.875716
H272	H	-0.044241	-0.193381	1.125716
F273	F	-0.788496	-1.159071	0.453843
F274	F	-0.538496	-0.909071	0.703843
F275	F	-0.288496	-0.659071	0.953843
F276	F	-0.038496	-0.409071	1.203843
F277	F	-0.926772	-0.965741	0.257903
F278	F	-0.676772	-0.715741	0.507903
F279	F	-0.426772	-0.465741	0.757903
F280	F	-0.176772	-0.215741	1.007903
H281	H	-0.442567	-0.633583	0.439981
H282	H	-0.192567	-0.383583	0.689981
H283	H	0.057433	-0.133583	0.939981
H284	H	0.307433	0.116417	1.189981
H285	H	-0.271040	-0.494143	0.269006
H286	H	-0.021040	-0.244143	0.519006
H287	H	0.228960	0.005857	0.769006
H288	H	0.478960	0.255857	1.019006
H289	H	-0.270956	-1.148955	0.784393
H290	H	-0.020956	-0.898955	1.034393
H291	H	0.229044	-0.648955	1.284393
H292	H	0.479044	-0.398955	1.534393
F293	F	-0.928111	-0.927861	0.382730
F294	F	-0.678111	-0.677861	0.632730
F295	F	-0.428111	-0.427861	0.882730
F296	F	-0.178111	-0.177861	1.132730
H297	H	-0.442583	-0.494156	0.439983
H298	H	-0.192583	-0.244156	0.689983
H299	H	0.057417	0.005844	0.939983
H300	H	0.307417	0.255844	1.189983
