data_functionalizedCrystal
_audit_creation_method	'MofGen! by Chris Wilmer'
_symmetry_space_group_name_H-M	'P1'
_symmetry_Int_Tables_number	1
_symmetry_cell_setting	triclinic
loop_
_symmetry_equiv_pos_as_xyz
  x,y,z
_cell_length_a	12.837943
_cell_length_b	13.101018
_cell_length_c	12.837942
_cell_angle_alpha	93.715237
_cell_angle_beta	85.171060
_cell_angle_gamma	93.717446
loop_
_atom_site_label
_atom_site_type_symbol
_atom_site_fract_x
_atom_site_fract_y
_atom_site_fract_z
O1	O	1.407530	0.085196	-0.266938
O2	O	1.907530	0.585196	0.233062
O3	O	1.104397	0.085202	-0.253494
O4	O	1.604397	0.585202	0.246506
O5	O	1.249241	0.085192	-0.108650
O6	O	1.749241	0.585192	0.391350
O7	O	1.262685	0.085205	-0.411782
O8	O	1.762685	0.585205	0.088218
O9	O	1.238836	-0.085237	-0.119051
O10	O	1.738836	0.414763	0.380949
O11	O	1.093992	-0.085228	-0.263895
O12	O	1.593992	0.414772	0.236105
O13	O	1.397125	-0.085234	-0.277339
O14	O	1.897125	0.414766	0.222661
Zn15	Zn	1.243907	-0.112290	-0.272269
Zn16	Zn	1.743907	0.387710	0.227731
Zn17	Zn	1.257615	0.112258	-0.258565
Zn18	Zn	1.757615	0.612258	0.241435
O19	O	1.252281	-0.085225	-0.422184
O20	O	1.752281	0.414775	0.077816
C21	C	1.060125	-0.000012	-0.254153
C22	C	1.560125	0.499988	0.245847
C23	C	0.943710	-0.000010	-0.240609
C24	C	1.443710	0.499990	0.259391
C25	C	0.718836	-0.000018	-0.403439
C26	C	1.218836	0.499982	0.096561
C27	C	0.609453	-0.000017	-0.390717
C28	C	1.109453	0.499983	0.109283
C29	C	0.615561	-0.000014	-0.202446
C30	C	1.115561	0.499986	0.297554
C31	C	0.724943	-0.000015	-0.215167
C32	C	1.224943	0.499985	0.284833
C33	C	0.776577	-0.000016	-0.315667
C34	C	1.276577	0.499984	0.184333
C35	C	0.885962	-0.000010	-0.328387
C36	C	1.385962	0.499990	0.171613
C37	C	0.892066	-0.000014	-0.140117
C38	C	1.392066	0.499986	0.359883
C39	C	0.782684	-0.000013	-0.127395
C40	C	1.282684	0.499987	0.372605
N41	N	1.234558	-0.265539	-0.281621
N42	N	1.734558	0.234461	0.218379
C43	C	1.279684	-0.525451	-0.236475
C44	C	1.779684	-0.025451	0.263525
C45	C	1.221849	-0.474575	-0.294348
C46	C	1.721849	0.025425	0.205652
C47	C	1.228922	-0.358256	-0.287265
C48	C	1.728922	0.141744	0.212735
C49	C	1.272611	-0.641780	-0.243556
C50	C	1.772611	-0.141780	0.256444
C51	C	1.441397	-0.000018	-0.276680
C52	C	1.941397	0.499982	0.223320
C53	C	1.557812	-0.000013	-0.290224
C54	C	2.057812	0.499987	0.209776
C55	C	1.239498	-0.000022	-0.074781
C56	C	1.739498	0.499978	0.425219
C57	C	1.225953	-0.000020	0.041634
C58	C	1.725953	0.499980	0.541634
N59	N	1.266971	0.265506	-0.249204
N60	N	1.766971	0.765506	0.250796
C61	C	1.262024	-0.000008	-0.456052
C62	C	1.762024	0.499992	0.043948
C63	C	1.275569	-0.000004	-0.572467
C64	C	1.775569	0.499996	-0.072467
C65	C	1.388784	-0.000002	0.266509
C66	C	1.888784	0.499998	0.766509
C67	C	1.376062	0.000000	0.375892
C68	C	1.876062	0.500000	0.875892
C69	C	1.187791	-0.000007	0.369784
C70	C	1.687791	0.499993	0.869784
C71	C	1.200512	-0.000009	0.260402
C72	C	1.700512	0.499991	0.760402
C73	C	1.301012	-0.000008	0.208768
C74	C	1.801012	0.499992	0.708768
C75	C	1.313731	-0.000017	0.099383
C76	C	1.813731	0.499983	0.599383
C77	C	1.125461	-0.000016	0.093278
C78	C	1.625461	0.499984	0.593278
C79	C	1.112740	-0.000014	0.202661
C80	C	1.612740	0.499986	0.702661
H81	H	0.928000	-0.000012	-0.410219
H82	H	1.428000	0.499988	0.089781
F83	F	1.150189	-0.531825	-0.366063
F84	F	1.650189	-0.031825	0.133937
H85	H	0.939091	-0.000005	-0.068646
H86	H	1.439091	0.499995	0.431354
H87	H	0.562444	-0.000022	-0.462191
H88	H	1.062444	0.499978	0.037809
H89	H	0.740628	-0.000024	-0.045572
H90	H	1.240628	0.499976	0.454428
F91	F	1.351344	-0.468205	-0.164767
F92	F	1.851344	0.031795	0.335233
H93	H	1.053990	-0.000029	0.046253
H94	H	1.553990	0.499971	0.546253
F95	F	1.420690	-0.000023	0.044432
F96	F	1.920690	0.499977	0.544432
F97	F	0.773791	-0.000007	-0.510395
F98	F	1.273791	0.499993	-0.010395
F99	F	1.080842	0.000018	0.424756
F100	F	1.580842	0.500018	0.924756
H101	H	0.573496	-0.000098	-0.120629
H102	H	1.073496	0.499902	0.379371
F103	F	1.495739	-0.000022	0.211553
F104	F	1.995739	0.499978	0.711553
F105	F	1.469482	0.000010	0.437341
F106	F	1.969482	0.500010	0.937341
F107	F	1.005787	-0.000007	0.257625
F108	F	1.505787	0.499993	0.757625
