data_functionalizedCrystal
_audit_creation_method	'MofGen! by Chris Wilmer'
_symmetry_space_group_name_H-M	'P1'
_symmetry_Int_Tables_number	1
_symmetry_cell_setting	triclinic
loop_
_symmetry_equiv_pos_as_xyz
  x,y,z
_cell_length_a	29.839135
_cell_length_b	29.839131
_cell_length_c	25.639233
_cell_angle_alpha	90.027239
_cell_angle_beta	90.016634
_cell_angle_gamma	90.037758
loop_
_atom_site_label
_atom_site_type_symbol
_atom_site_fract_x
_atom_site_fract_y
_atom_site_fract_z
Zn1	Zn	0.686744	-0.178878	0.295634
Zn2	Zn	1.186744	0.321122	0.795634
Zn3	Zn	0.686683	-0.253992	0.208186
Zn4	Zn	1.186683	0.246008	0.708186
Zn5	Zn	0.611625	-0.178880	0.208207
Zn6	Zn	1.111625	0.321120	0.708207
Zn7	Zn	0.611583	-0.253985	0.295584
Zn8	Zn	1.111583	0.246015	0.795584
O9	O	0.649159	-0.216434	0.251903
O10	O	1.149159	0.283566	0.751903
O11	O	0.749603	-0.188844	0.284046
O12	O	1.249603	0.311156	0.784046
O13	O	0.676718	-0.244033	0.135023
O14	O	1.176718	0.255967	0.635023
O15	O	0.621633	-0.116013	0.219834
O16	O	1.121633	0.383987	0.719834
O17	O	0.749558	-0.244030	0.219798
O18	O	1.249558	0.255970	0.719798
O19	O	0.676823	-0.116011	0.284067
O20	O	1.176823	0.383989	0.784067
O21	O	0.621574	-0.188848	0.135039
O22	O	1.121574	0.311152	0.635039
O23	O	0.548753	-0.188841	0.219785
O24	O	1.048753	0.311159	0.719785
O25	O	0.621561	-0.244017	0.368756
O26	O	1.121561	0.255983	0.868756
O27	O	0.548721	-0.244020	0.283981
O28	O	1.048721	0.255980	0.783981
O29	O	0.676781	-0.188837	0.368793
O30	O	1.176781	0.311163	0.868793
O31	O	0.676677	-0.316858	0.219749
O32	O	1.176677	0.183142	0.719749
O33	O	0.621501	-0.316853	0.283961
O34	O	1.121501	0.183147	0.783961
C35	C	0.532436	-0.216430	0.251880
C36	C	1.032436	0.283570	0.751880
C37	C	0.482502	-0.216440	0.251883
C38	C	0.982502	0.283560	0.751883
C39	C	0.172879	-0.187742	0.285406
C40	C	0.672879	0.312258	0.785406
C41	C	-0.014794	-0.187745	0.285421
C42	C	0.485206	0.312255	0.785421
O43	O	-0.039042	-0.163335	0.313898
O44	O	0.460958	0.336665	0.813898
N45	N	-0.038283	-0.216434	0.251922
N46	N	0.461717	0.283566	0.751922
C47	C	-0.014851	-0.245123	0.218414
C48	C	0.485149	0.254877	0.718414
O49	O	-0.039136	-0.269522	0.189918
O50	O	0.460864	0.230478	0.689918
C51	C	0.172821	-0.245117	0.218397
C52	C	0.672821	0.254883	0.718397
C53	C	0.196308	-0.216429	0.251902
C54	C	0.696308	0.283571	0.751902
C55	C	0.196365	-0.159056	0.318908
C56	C	0.696365	0.340944	0.818908
C57	C	0.243281	-0.159057	0.318906
C58	C	0.743281	0.340943	0.818906
C59	C	0.266710	-0.187744	0.285402
C60	C	0.766710	0.312256	0.785402
C61	C	0.243223	-0.216430	0.251900
C62	C	0.743223	0.283570	0.751900
C63	C	0.196252	-0.273803	0.184888
C64	C	0.696252	0.226197	0.684888
C65	C	0.243173	-0.273798	0.184885
C66	C	0.743173	0.226202	0.684885
C67	C	0.266660	-0.245110	0.218390
C68	C	0.766660	0.254890	0.718390
C69	C	0.313567	-0.245119	0.218394
C70	C	0.813567	0.254881	0.718394
N71	N	0.337056	-0.216429	0.251893
N72	N	0.837056	0.283571	0.751893
C73	C	0.313628	-0.187742	0.285397
C74	C	0.813628	0.312258	0.785397
C75	C	-0.113382	-0.245124	0.218426
C76	C	0.386618	0.254876	0.718426
C77	C	-0.160300	-0.245126	0.218431
C78	C	0.339700	0.254874	0.718431
C79	C	-0.160239	-0.187748	0.285437
C80	C	0.339761	0.312252	0.785437
C81	C	-0.113321	-0.187748	0.285435
C82	C	0.386679	0.312252	0.785435
C83	C	-0.089893	-0.216435	0.251925
C84	C	0.410107	0.283565	0.751925
C85	C	0.412153	-0.187747	0.285390
C86	C	0.912153	0.312253	0.785390
C87	C	0.459073	-0.187752	0.285387
C88	C	0.959073	0.312248	0.785387
C89	C	0.459009	-0.245129	0.218379
C90	C	0.959009	0.254871	0.718379
C91	C	0.412093	-0.245126	0.218385
C92	C	0.912093	0.254874	0.718385
C93	C	0.388667	-0.216431	0.251892
C94	C	0.888667	0.283569	0.751892
O95	O	0.337844	-0.269513	0.189928
O96	O	0.837844	0.230487	0.689928
O97	O	0.337921	-0.163340	0.313881
O98	O	0.837921	0.336660	0.813881
C99	C	0.125963	-0.187740	0.285408
C100	C	0.625963	0.312260	0.785408
C101	C	0.102477	-0.216427	0.251906
C102	C	0.602477	0.283573	0.751906
C103	C	0.125905	-0.245114	0.218402
C104	C	0.625905	0.254886	0.718402
C105	C	0.055559	-0.216429	0.251911
C106	C	0.555559	0.283571	0.751911
C107	C	0.032130	-0.187741	0.285415
C108	C	0.532130	0.312259	0.785415
C109	C	0.055619	-0.159052	0.318914
C110	C	0.555619	0.340948	0.818914
C111	C	0.102535	-0.159053	0.318912
C112	C	0.602535	0.340947	0.818912
C113	C	0.102416	-0.273803	0.184903
C114	C	0.602416	0.226197	0.684903
C115	C	0.055501	-0.273800	0.184909
C116	C	0.555501	0.226200	0.684909
C117	C	0.032072	-0.245113	0.218412
C118	C	0.532072	0.254887	0.718412
C119	C	0.649090	-0.333156	0.251859
C120	C	1.149090	0.166844	0.751859
C121	C	0.649102	-0.383091	0.251857
C122	C	1.149102	0.116909	0.751857
C123	C	0.677890	-0.692698	0.285396
C124	C	1.177890	-0.192698	0.785396
C125	C	0.677938	-0.880371	0.285428
C126	C	1.177938	-0.380371	0.785428
O127	O	0.702347	-0.904606	0.313911
O128	O	1.202347	-0.404606	0.813911
N129	N	0.649235	-0.903876	0.251961
N130	N	1.149235	-0.403876	0.751961
C131	C	0.620515	-0.880459	0.218486
C132	C	1.120515	-0.380459	0.718486
O133	O	0.596099	-0.904757	0.190025
O134	O	1.096099	-0.404757	0.690025
C135	C	0.620465	-0.692787	0.218458
C136	C	1.120465	-0.192787	0.718458
C137	C	0.649173	-0.669285	0.251923
C138	C	1.149173	-0.169285	0.751923
C139	C	0.706595	-0.669196	0.318859
C140	C	1.206595	-0.169196	0.818859
C141	C	0.706585	-0.622281	0.318849
C142	C	1.206585	-0.122281	0.818849
C143	C	0.677868	-0.598867	0.285376
C144	C	1.177868	-0.098867	0.785376
C145	C	0.649162	-0.622369	0.251913
C146	C	1.149162	-0.122369	0.751913
C147	C	0.591743	-0.669371	0.184986
C148	C	1.091743	-0.169371	0.684986
C149	C	0.591732	-0.622450	0.184983
C150	C	1.091732	-0.122450	0.684983
C151	C	0.620441	-0.598948	0.218448
C152	C	1.120441	-0.098948	0.718448
C153	C	0.620435	-0.552041	0.218429
C154	C	1.120435	-0.052041	0.718429
N155	N	0.649138	-0.528536	0.251896
N156	N	1.149138	-0.028536	0.751896
C157	C	0.677855	-0.551949	0.285369
C158	C	1.177855	-0.051949	0.785369
C159	C	0.620545	-0.978990	0.218502
C160	C	1.120545	-0.478990	0.718502
C161	C	0.620558	-1.025908	0.218509
C162	C	1.120558	-0.525908	0.718509
C163	C	0.677980	-1.025816	0.285451
C164	C	1.177980	-0.525816	0.785451
C165	C	0.677969	-0.978898	0.285442
C166	C	1.177969	-0.478898	0.785442
C167	C	0.649248	-0.955485	0.251969
C168	C	1.149248	-0.455485	0.751969
C169	C	0.677830	-0.453424	0.285345
C170	C	1.177830	0.046576	0.785345
C171	C	0.677818	-0.406504	0.285331
C172	C	1.177818	0.093496	0.785331
C173	C	0.620395	-0.406599	0.218390
C174	C	1.120395	0.093401	0.718390
C175	C	0.620408	-0.453515	0.218403
C176	C	1.120408	0.046485	0.718403
C177	C	0.649127	-0.476926	0.251884
C178	C	1.149127	0.023074	0.751884
O179	O	0.596035	-0.527777	0.189965
O180	O	1.096035	-0.027777	0.689965
O181	O	0.702260	-0.527643	0.313835
O182	O	1.202260	-0.027643	0.813835
C183	C	0.677900	-0.739614	0.285406
C184	C	1.177900	-0.239614	0.785406
C185	C	0.649195	-0.763116	0.251943
C186	C	1.149195	-0.263116	0.751943
C187	C	0.620478	-0.739702	0.218470
C188	C	1.120478	-0.239702	0.718470
C189	C	0.649208	-0.810034	0.251950
C190	C	1.149208	-0.310034	0.751950
C191	C	0.677924	-0.833447	0.285423
C192	C	1.177924	-0.333447	0.785423
C193	C	0.706628	-0.809942	0.318890
C194	C	1.206628	-0.309942	0.818890
C195	C	0.706617	-0.763027	0.318880
C196	C	1.206617	-0.263027	0.818880
C197	C	0.591775	-0.763207	0.185003
C198	C	1.091775	-0.263207	0.685003
C199	C	0.591788	-0.810122	0.185016
C200	C	1.091788	-0.310122	0.685016
C201	C	0.620505	-0.833536	0.218489
C202	C	1.120505	-0.333536	0.718489
C203	C	0.766337	-0.216437	0.251925
C204	C	1.266337	0.283563	0.751925
C205	C	0.816271	-0.216439	0.251935
C206	C	1.316271	0.283561	0.751935
C207	C	0.649173	-0.216426	0.388276
C208	C	1.149173	0.283574	0.888276
C209	C	0.649179	-0.216422	0.446390
C210	C	1.149179	0.283578	0.946390
C211	C	0.649240	-0.099255	0.251958
C212	C	1.149240	0.400745	0.751958
C213	C	0.649274	-0.049321	0.251982
C214	C	1.149274	0.450679	0.751982
C215	C	0.649170	-0.216409	0.116060
C216	C	1.149170	0.283591	0.616060
C217	C	0.649251	-0.216286	0.057946
C218	C	1.149251	0.283714	0.557946
C219	C	0.677969	-0.187604	0.806778
C220	C	1.177969	0.312396	1.306778
C221	C	0.677975	-0.187592	0.861382
C222	C	1.177975	0.312408	1.361382
O223	O	0.702417	-0.163143	0.889640
O224	O	1.202417	0.336857	1.389640
N225	N	0.649229	-0.216317	0.888672
N226	N	1.149229	0.283683	1.388672
C227	C	0.620472	-0.245053	0.861356
C228	C	1.120472	0.254947	1.361356
O229	O	0.596022	-0.269485	0.889582
O230	O	1.096022	0.230515	1.389582
C231	C	0.620465	-0.245063	0.806752
C232	C	1.120465	0.254937	1.306752
C233	C	0.649216	-0.216339	0.779465
C234	C	1.149216	0.283661	1.279465
C235	C	0.706718	-0.158883	0.779490
C236	C	1.206718	0.341117	1.279490
C237	C	0.706712	-0.158896	0.724890
C238	C	1.206712	0.341104	1.224890
C239	C	0.677959	-0.187631	0.697577
C240	C	1.177959	0.312369	1.197577
C241	C	0.649211	-0.216352	0.724864
C242	C	1.149211	0.283648	1.224864
C243	C	0.591706	-0.273797	0.779436
C244	C	1.091706	0.226203	1.279436
C245	C	0.591701	-0.273804	0.724829
C246	C	1.091701	0.226196	1.224829
C247	C	0.620452	-0.245080	0.697542
C248	C	1.120452	0.254920	1.197542
C249	C	0.620452	-0.245101	0.642951
C250	C	1.120452	0.254899	1.142951
N251	N	0.649198	-0.216375	0.615660
N252	N	1.149198	0.283625	1.115660
C253	C	0.677952	-0.187641	0.642973
C254	C	1.177952	0.312359	1.142973
C255	C	0.620490	-0.245030	0.976026
C256	C	1.120490	0.254970	1.476026
C257	C	0.620499	-0.245023	1.030629
C258	C	1.120499	0.254977	1.530629
C259	C	0.678001	-0.187561	1.030651
C260	C	1.178001	0.312439	1.530651
C261	C	0.677994	-0.187571	0.976048
C262	C	1.177994	0.312429	1.476048
C263	C	0.649236	-0.216305	0.948736
C264	C	1.149236	0.283695	1.448736
C265	C	0.677939	-0.187671	0.528308
C266	C	1.177939	0.312329	1.028308
C267	C	0.677933	-0.187688	0.473703
C268	C	1.177933	0.312312	0.973703
C269	C	0.620429	-0.245148	0.473685
C270	C	1.120429	0.254852	0.973685
C271	C	0.620437	-0.245133	0.528285
C272	C	1.120437	0.254867	1.028285
C273	C	0.649193	-0.216390	0.555596
C274	C	1.149193	0.283610	1.055596
O275	O	0.596022	-0.269536	0.614658
O276	O	1.096022	0.230464	1.114658
O277	O	0.702394	-0.163209	0.614740
O278	O	1.202394	0.336791	1.114740
H279	H	0.036535	-0.135695	0.346195
H280	H	0.536535	0.364305	0.846195
H281	H	0.701404	-0.164180	0.953834
H282	H	1.201404	0.335820	1.453834
H283	H	0.568294	-0.297187	0.801644
H284	H	1.068294	0.202813	1.301644
N285	N	0.589449	-0.478866	0.182303
N286	N	1.089449	0.021134	0.682303
H287	H	0.607726	-0.498329	0.158099
H288	H	1.107726	0.001671	0.658099
H289	H	0.571265	-0.456883	0.161130
H290	H	1.071265	0.043117	0.661130
N291	N	0.708944	-0.156705	0.444273
N292	N	1.208944	0.343295	0.944273
H293	H	0.704582	-0.161073	0.405537
H294	H	1.204582	0.338927	0.905537
H295	H	0.741024	-0.163699	0.453827
H296	H	1.241024	0.336301	0.953827
H297	H	0.729960	-0.603148	0.346101
H298	H	1.229960	-0.103148	0.846101
H299	H	0.262246	-0.297158	0.157597
H300	H	0.762246	0.202842	0.657597
N301	N	0.708810	-0.478663	0.321457
N302	N	1.208810	0.021337	0.821457
H303	H	0.729649	-0.498122	0.300240
H304	H	1.229649	0.001878	0.800240
H305	H	0.690517	-0.498106	0.345669
H306	H	1.190517	0.001894	0.845669
H307	H	0.036382	-0.297165	0.157626
H308	H	0.536382	0.202835	0.657626
H309	H	0.701354	-0.164264	0.550538
H310	H	1.201354	0.335736	1.050538
H311	H	0.729994	-0.743895	0.346130
H312	H	1.229994	-0.243895	0.846130
N313	N	0.737721	-0.127914	0.695462
N314	N	1.237721	0.372086	1.195462
H315	H	0.755934	-0.109710	0.721057
H316	H	1.255934	0.390290	1.221057
H317	H	0.719447	-0.107126	0.672811
H318	H	1.219447	0.392874	1.172811
N319	N	0.484282	-0.276065	0.182240
N320	N	0.984282	0.223935	0.682240
H321	H	0.476103	-0.308177	0.190281
H322	H	0.976103	0.191823	0.690281
H323	H	0.517559	-0.271670	0.187339
H324	H	1.017559	0.228330	0.687339
N325	N	0.560755	-0.597203	0.148874
N326	N	1.060755	-0.097203	0.648874
H327	H	0.579021	-0.577734	0.124660
H328	H	1.079021	-0.077734	0.624660
H329	H	0.539923	-0.577769	0.170128
H330	H	1.039923	-0.077769	0.670128
N331	N	0.484405	-0.156808	0.321525
N332	N	0.984405	0.343192	0.821525
H333	H	0.503864	-0.175097	0.345713
H334	H	1.003864	0.324903	0.845713
H335	H	0.462412	-0.138641	0.342712
H336	H	0.962412	0.361359	0.842712
N337	N	0.386888	-0.156804	0.321533
N338	N	0.886888	0.343196	0.821533
H339	H	0.367429	-0.135954	0.300338
H340	H	0.867429	0.364046	0.800338
H341	H	0.408918	-0.138664	0.342748
H342	H	0.908918	0.361336	0.842748
N343	N	0.737738	-0.127891	0.808942
N344	N	1.237738	0.372109	1.308942
H345	H	0.733387	-0.132239	0.847676
H346	H	1.233387	0.367761	1.347676
H347	H	0.730769	-0.095808	0.799404
H348	H	1.230769	0.404192	1.299404
H349	H	0.729980	-0.688254	0.346120
H350	H	1.229980	-0.188254	0.846120
H351	H	0.701413	-0.164162	1.052900
H352	H	1.201413	0.335838	1.552900
N353	N	0.589488	-0.276006	1.060051
N354	N	1.089488	0.223994	1.560051
H355	H	0.568683	-0.257744	1.082705
H356	H	1.068683	0.242256	1.582705
H357	H	0.607760	-0.296819	1.082675
H358	H	1.107760	0.203181	1.582675
H359	H	0.701363	-1.044887	0.312706
H360	H	1.201363	-0.544887	0.812706
N361	N	0.589426	-0.381342	0.182285
N362	N	1.089426	0.118658	0.682285
H363	H	0.593777	-0.348054	0.187361
H364	H	1.093777	0.151946	0.687361
H365	H	0.557337	-0.389565	0.190388
H366	H	1.057337	0.110435	0.690388
N367	N	0.589433	-0.276110	0.557730
N368	N	1.089433	0.223890	1.057730
H369	H	0.596383	-0.308213	0.548230
H370	H	1.096383	0.191787	1.048230
H371	H	0.557350	-0.269094	0.548211
H372	H	1.057350	0.230906	1.048211
H373	H	-0.094201	-0.164387	0.312716
H374	H	0.405799	0.335613	0.812716
H375	H	0.597071	-0.268431	0.953792
H376	H	1.097071	0.231569	1.453792
N377	N	0.386753	-0.276068	0.182255
N378	N	0.886753	0.223932	0.682255
H379	H	0.394896	-0.308178	0.190301
H380	H	0.894896	0.191822	0.690301
H381	H	0.394924	-0.269006	0.144928
H382	H	0.894924	0.230994	0.644928
H383	H	-0.179323	-0.164390	0.312718
H384	H	0.320677	0.335610	0.812718
H385	H	0.568278	-0.297199	0.702595
H386	H	1.068278	0.202801	1.202595
N387	N	0.589595	-1.051252	0.182411
N388	N	1.089595	-0.551252	0.682411
H389	H	0.593958	-1.084528	0.187491
H390	H	1.093958	-0.584528	0.687491
H391	H	0.596607	-1.043062	0.145078
H392	H	1.096607	-0.543062	0.645078
H393	H	0.701346	-0.959765	0.312693
H394	H	1.201346	-0.459765	0.812693
H395	H	0.701198	-0.387370	0.312582
H396	H	1.201198	0.112630	0.812582
N397	N	0.127863	-0.128112	0.355050
N398	N	0.627863	0.371888	0.855050
H399	H	0.105896	-0.109940	0.376271
H400	H	0.605896	0.390060	0.876271
H401	H	0.147337	-0.107291	0.333816
H402	H	0.647337	0.392709	0.833816
H403	H	-0.094311	-0.268486	0.191138
H404	H	0.405689	0.231514	0.691138
H405	H	0.597020	-0.268544	0.451437
H406	H	1.097020	0.231456	0.951437
H407	H	0.177295	-0.135693	0.346191
H408	H	0.677295	0.364307	0.846191
N409	N	0.268610	-0.128113	0.355042
N410	N	0.768610	0.371887	0.855042
H411	H	0.246642	-0.109942	0.376262
H412	H	0.746642	0.390058	0.876262
H413	H	0.288082	-0.107294	0.333806
H414	H	0.788082	0.392706	0.833806
N415	N	0.560772	-0.694707	0.148893
N416	N	1.060772	-0.194707	0.648893
H417	H	0.539944	-0.714178	0.170123
H418	H	1.039944	-0.214178	0.670123
H419	H	0.579070	-0.714145	0.124687
H420	H	1.079070	-0.214145	0.624687
N421	N	-0.185629	-0.276074	0.182301
N422	N	0.314371	0.223926	0.682301
H423	H	-0.163664	-0.294244	0.161076
H424	H	0.336336	0.205756	0.661076
H425	H	-0.205092	-0.257757	0.158147
H426	H	0.294908	0.242243	0.658147
N427	N	0.589570	-0.953739	0.182394
N428	N	1.089570	-0.453739	0.682394
H429	H	0.557468	-0.961933	0.190475
H430	H	1.057468	-0.461933	0.690475
H431	H	0.596615	-0.961931	0.145063
H432	H	1.096615	-0.461931	0.645063
N433	N	0.170928	-0.304744	0.148748
N434	N	0.670928	0.195256	0.648748
H435	H	0.192896	-0.322911	0.127523
H436	H	0.692896	0.177089	0.627523
H437	H	0.151468	-0.286423	0.124594
H438	H	0.651468	0.213577	0.624594
N439	N	0.737602	-0.835194	0.354998
N440	N	1.237602	-0.335194	0.854998
H441	H	0.758438	-0.854655	0.333780
H442	H	1.258438	-0.354655	0.833780
H443	H	0.719300	-0.854636	0.379202
H444	H	1.219300	-0.354636	0.879202
N445	N	0.560825	-0.835469	0.148914
N446	N	1.060825	-0.335469	0.648914
H447	H	0.542633	-0.813513	0.127710
H448	H	1.042633	-0.313513	0.627710
H449	H	0.540026	-0.854940	0.170178
H450	H	1.040026	-0.354940	0.670178
H451	H	0.568390	-0.744147	0.157746
H452	H	1.068390	-0.244147	0.657746
N453	N	0.127682	-0.304744	0.148763
N454	N	0.627682	0.195256	0.648763
H455	H	0.105679	-0.322916	0.127545
H456	H	0.605679	0.177084	0.627545
H457	H	0.147140	-0.325564	0.169996
H458	H	0.647140	0.174436	0.669996
