data_functionalizedCrystal
_audit_creation_method	'MofGen! by Chris Wilmer'
_symmetry_space_group_name_H-M	'P1'
_symmetry_Int_Tables_number	1
_symmetry_cell_setting	triclinic
loop_
_symmetry_equiv_pos_as_xyz
  x,y,z
_cell_length_a	16.120484
_cell_length_b	14.908941
_cell_length_c	14.908694
_cell_angle_alpha	90.213236
_cell_angle_beta	96.323893
_cell_angle_gamma	83.951051
loop_
_atom_site_label
_atom_site_type_symbol
_atom_site_fract_x
_atom_site_fract_y
_atom_site_fract_z
Zn1	Zn	-0.281536	-1.389405	-0.445490
Zn2	Zn	-0.414188	-1.373782	-0.302802
Zn3	Zn	-0.282502	-1.230322	-0.303864
Zn4	Zn	-0.430258	-1.231332	-0.462699
O5	O	-0.352121	-1.306210	-0.378714
O6	O	-0.292002	-1.513525	-0.418916
O7	O	-0.390399	-1.347791	-0.176755
O8	O	-0.165022	-1.257539	-0.315893
O9	O	-0.389462	-1.502047	-0.314084
O10	O	-0.164312	-1.374417	-0.419945
O11	O	-0.293650	-1.242391	-0.177534
O12	O	-0.309232	-1.104263	-0.332580
O13	O	-0.416851	-1.259262	-0.586604
O14	O	-0.417788	-1.105006	-0.449275
O15	O	-0.307585	-1.375397	-0.573961
O16	O	-0.533672	-1.348771	-0.330770
O17	O	-0.545479	-1.244114	-0.448246
C18	C	-0.365360	-1.071914	-0.392910
C19	C	-0.371044	-0.971681	-0.399006
C20	C	-0.268534	-0.782525	-0.289098
C21	C	-0.273873	-0.688347	-0.294823
C22	C	-0.387063	-0.689146	-0.416175
C23	C	-0.381725	-0.783324	-0.410451
C24	C	-0.322458	-0.830010	-0.346911
C25	C	-0.317116	-0.924190	-0.341191
C26	C	-0.430310	-0.924986	-0.462539
C27	C	-0.435648	-0.830808	-0.468263
C28	C	-0.570003	-1.294882	-0.391279
C29	C	-0.663211	-1.290120	-0.396679
C30	C	-0.833863	-1.281432	-0.406557
C31	C	-0.869531	-1.331151	-0.350875
C32	C	-0.964487	-1.326317	-0.356371
C33	C	-0.738898	-1.286265	-0.401062
C34	C	-0.133388	-1.317608	-0.366118
C35	C	-0.040177	-1.322465	-0.360750
C36	C	-0.363903	-1.319185	-0.613917
C37	C	-0.368923	-1.324714	-0.714146
C38	C	-0.338823	-0.541421	-0.364455
C39	C	-0.333134	-0.641655	-0.358360
C40	C	-0.277616	-1.225330	-0.903303
C41	C	-0.282330	-1.230522	-0.997478
C42	C	-0.383071	-1.340285	-0.996672
C43	C	-0.378357	-1.335093	-0.902498
C44	C	-0.325626	-1.277614	-0.855816
C45	C	-0.320907	-1.272428	-0.761639
C46	C	-0.421652	-1.382186	-0.760836
C47	C	-0.426367	-1.387378	-0.855011
C48	C	-0.340322	-1.293341	-0.144419
C49	C	-0.335055	-1.287999	-0.044166
H50	H	-0.220267	-0.820539	-0.237372
H51	H	-0.874638	-1.235239	-0.458351
O52	O	-0.820856	-1.386125	-0.288981
C53	C	-0.715075	-1.396565	-0.160914
C54	C	-0.770167	-1.334209	-0.230943
H55	H	-0.674066	-1.354618	-0.113985
H56	H	-0.756871	-1.433217	-0.119785
H57	H	-0.673459	-1.448040	-0.197178
H58	H	-0.811790	-1.282683	-0.194752
H59	H	-0.728321	-1.297623	-0.272069
O60	O	-0.259636	-0.969493	-0.279347
C61	C	-0.209388	-0.991904	-0.121917
C62	C	-0.274543	-0.940553	-0.191863
H63	H	-0.221407	-0.968513	-0.051172
H64	H	-0.214832	-1.067379	-0.127676
H65	H	-0.143643	-0.977793	-0.135133
H66	H	-0.340317	-0.954591	-0.178692
H67	H	-0.269025	-0.865095	-0.186087
O68	O	-0.269676	-1.216517	-0.716434
C69	C	-0.170225	-1.108225	-0.727174
C70	C	-0.228222	-1.171496	-0.778479
H71	H	-0.136681	-1.071822	-0.777313
H72	H	-0.209154	-1.056582	-0.688185
H73	H	-0.121858	-1.149484	-0.678026
H74	H	-0.276600	-1.130311	-0.827672
H75	H	-0.189238	-1.223140	-0.817408
O76	O	-0.226381	-1.169424	-0.858094
C77	C	-0.126916	-1.061146	-0.868824
C78	C	-0.184918	-1.124408	-0.920134
H79	H	-0.093364	-1.024748	-0.918959
H80	H	-0.165841	-1.009500	-0.829835
H81	H	-0.078555	-1.102412	-0.819674
H82	H	-0.233289	-1.083216	-0.969329
H83	H	-0.145937	-1.176056	-0.959062
H84	H	-0.243235	-1.187946	-1.036138
O85	O	-0.482814	-0.971008	-0.518670
C86	C	-0.626062	-0.994876	-0.568647
C87	C	-0.566705	-0.942676	-0.505046
H88	H	-0.693900	-0.972004	-0.557641
H89	H	-0.616198	-0.981121	-0.641684
H90	H	-0.612022	-1.070206	-0.553657
H91	H	-0.580709	-0.867332	-0.519955
H92	H	-0.576581	-0.956507	-0.432029
O93	O	-0.434233	-1.396083	-1.042165
C94	C	-0.486211	-1.452640	-1.186904
C95	C	-0.428214	-1.389437	-1.135494
H96	H	-0.481377	-1.447274	-1.262370
H97	H	-0.466463	-1.525133	-1.163219
H98	H	-0.553782	-1.432256	-1.173177
H99	H	-0.360626	-1.409739	-1.149196
H100	H	-0.448032	-1.316959	-1.159186
O101	O	-0.477516	-1.443192	-0.900497
C102	C	-0.529468	-1.499794	-1.045226
C103	C	-0.471494	-1.436560	-0.993827
H104	H	-0.524632	-1.494439	-1.120693
H105	H	-0.509701	-1.572278	-1.021525
H106	H	-0.597044	-1.479427	-1.031506
H107	H	-0.403901	-1.456845	-1.007522
H108	H	-0.491332	-1.364091	-1.017534
H109	H	-0.460743	-1.424763	-0.722162
H110	H	-0.229962	-0.649689	-0.247747
O111	O	-0.493143	-0.785317	-0.529959
C112	C	-0.551566	-0.640582	-0.592525
C113	C	-0.486403	-0.691986	-0.522625
H114	H	-0.546151	-0.565113	-0.586606
H115	H	-0.539533	-0.663816	-0.663315
H116	H	-0.617305	-0.654764	-0.579358
H117	H	-0.420639	-0.677828	-0.535707
H118	H	-0.498510	-0.668744	-0.451858
H119	H	-0.435323	-0.651117	-0.467898
