data_functionalizedCrystal
_audit_creation_method	'MofGen! by Chris Wilmer'
_symmetry_space_group_name_H-M	'P1'
_symmetry_Int_Tables_number	1
_symmetry_cell_setting	triclinic
loop_
_symmetry_equiv_pos_as_xyz
  x,y,z
_cell_length_a	21.395362
_cell_length_b	13.032721
_cell_length_c	21.395355
_cell_angle_alpha	97.165964
_cell_angle_beta	89.956060
_cell_angle_gamma	97.222741
loop_
_atom_site_label
_atom_site_type_symbol
_atom_site_fract_x
_atom_site_fract_y
_atom_site_fract_z
Zn1	Zn	0.926247	-0.415745	-0.386233
Zn2	Zn	0.912862	-0.590486	-0.294757
Zn3	Zn	0.821458	-0.415794	-0.281438
Zn4	Zn	0.808142	-0.590507	-0.399463
O5	O	0.867177	-0.503133	-0.340473
O6	O	1.012151	-0.438895	-0.374135
O7	O	0.900708	-0.567324	-0.205313
O8	O	0.846533	-0.269539	-0.284228
O9	O	1.002318	-0.567277	-0.306928
O10	O	0.923520	-0.269504	-0.361220
O11	O	0.833554	-0.438978	-0.195527
O12	O	0.732011	-0.438999	-0.297057
O13	O	0.823837	-0.567313	-0.485385
O14	O	0.722228	-0.567361	-0.383770
O15	O	0.910608	-0.438916	-0.475665
O16	O	0.887796	-0.736737	-0.319757
O17	O	0.810859	-0.736753	-0.396685
C18	C	0.704385	-0.503188	-0.340404
C19	C	0.634740	-0.503237	-0.340392
C20	C	0.596943	-0.570163	-0.385490
C21	C	0.531509	-0.570138	-0.385516
C22	C	0.503875	-0.503197	-0.340433
C23	C	0.541681	-0.436257	-0.295331
C24	C	0.607114	-0.436278	-0.295311
C25	C	0.400790	-0.494778	-0.283387
C26	C	0.335358	-0.494765	-0.283407
C27	C	0.302059	-0.503129	-0.340497
C28	C	0.334199	-0.511527	-0.397570
C29	C	0.399631	-0.511547	-0.397549
C30	C	0.432925	-0.503167	-0.340451
C31	C	0.193311	-0.570031	-0.385627
C32	C	0.127877	-0.569998	-0.385654
C33	C	0.138050	-0.436123	-0.295464
C34	C	0.203483	-0.436150	-0.295443
C35	C	0.231110	-0.503110	-0.340524
C36	C	0.846447	-0.774665	-0.361116
C37	C	0.837636	-0.890828	-0.369968
C38	C	0.871809	-0.942574	-0.335881
C39	C	0.862703	-1.062634	-0.345029
C40	C	1.030605	-0.503078	-0.340542
C41	C	1.100248	-0.503055	-0.340571
C42	C	0.867231	-0.503112	-0.503894
C43	C	0.867254	-0.503103	-0.573535
C44	C	0.888005	-0.230541	-0.319763
C45	C	0.896880	-0.114378	-0.310937
C46	C	0.912434	-0.436244	-0.601188
C47	C	0.912436	-0.436199	-0.666620
C48	C	0.867264	-0.503032	-0.704398
C49	C	0.822076	-0.569895	-0.676738
C50	C	0.822070	-0.569931	-0.611306
C51	C	0.855132	-0.597135	-0.815225
C52	C	0.855142	-0.597102	-0.880656
C53	C	0.867276	-0.502921	-0.906210
C54	C	0.879414	-0.408772	-0.866327
C55	C	0.879409	-0.408807	-0.800895
C56	C	0.867264	-0.503000	-0.775348
C57	C	0.912462	-0.436008	-1.004811
C58	C	0.912460	-0.435961	-1.070245
C59	C	0.822102	-0.569667	-1.080362
C60	C	0.822101	-0.569704	-1.014930
C61	C	0.867284	-0.502876	-0.977158
C62	C	0.867165	-0.503079	-0.177681
C63	C	0.867286	-0.502793	-0.108018
H64	H	0.215806	-0.624548	-0.422338
H65	H	0.115552	-0.381613	-0.258760
O66	O	0.891310	-0.317269	-0.891117
C67	C	0.951722	-0.267783	-0.871399
H68	H	0.981696	-0.328341	-0.858048
H69	H	0.975025	-0.227673	-0.911398
H70	H	0.947297	-0.207319	-0.828811
O71	O	0.433033	-0.486702	-0.227871
C72	C	0.390638	-0.479276	-0.177504
H73	H	0.341317	-0.514405	-0.194993
H74	H	0.406100	-0.523581	-0.138714
H75	H	0.390217	-0.393841	-0.158076
H76	H	0.785316	-0.624073	-1.111120
O77	O	0.240109	-0.371111	-0.251568
C78	C	0.201691	-0.312001	-0.211792
H79	H	0.151766	-0.354787	-0.212848
H80	H	0.221406	-0.300736	-0.161575
H81	H	0.200837	-0.232682	-0.228787
H82	H	0.619432	-0.624686	-0.422199
O83	O	0.778188	-0.634756	-0.988169
C84	C	0.738306	-0.693716	-1.035540
H85	H	0.763697	-0.697305	-1.082476
H86	H	0.725326	-0.776070	-1.022897
H87	H	0.693645	-0.655453	-1.039553
H88	H	0.637889	-0.381775	-0.258586
O89	O	0.794769	-0.944118	-0.412905
C90	C	0.825677	-1.007138	-0.458196
H91	H	0.871952	-1.023310	-0.437382
H92	H	0.794366	-1.083983	-0.472375
H93	H	0.835704	-0.965085	-0.501455
H94	H	0.949225	-0.381825	-0.570438
O95	O	0.494873	-0.635247	-0.429356
C96	C	0.533290	-0.694324	-0.469154
H97	H	0.579631	-0.697902	-0.443744
H98	H	0.508076	-0.776674	-0.482025
H99	H	0.543227	-0.656170	-0.513873
H100	H	0.425797	-0.518383	-0.444020
H101	H	0.949226	-0.381748	-0.689138
H102	H	0.932883	-1.069801	-0.274981
O103	O	0.914668	-0.889350	-0.292914
C104	C	0.883765	-0.826286	-0.247643
H105	H	0.831931	-0.859344	-0.246211
H106	H	0.906551	-0.824929	-0.199350
H107	H	0.887823	-0.743590	-0.260758
H108	H	0.307088	-0.518336	-0.444058
H109	H	0.097103	-0.624495	-0.422382
O110	O	0.778128	-0.634739	-0.584404
C111	C	0.742214	-0.575278	-0.541982
H112	H	0.744632	-0.492955	-0.555429
H113	H	0.691107	-0.613094	-0.544081
H114	H	0.761860	-0.571702	-0.492134
H115	H	0.889291	-0.332148	-0.768424
O116	O	0.843299	-0.688717	-0.790509
C117	C	0.832546	-0.771798	-0.839738
H118	H	0.855545	-0.747074	-0.884501
H119	H	0.853716	-0.842099	-0.826180
H120	H	0.779683	-0.793403	-0.848342
O121	O	0.956373	-0.370987	-0.968205
C122	C	0.996258	-0.311973	-1.006647
H123	H	0.970872	-0.308337	-1.052994
H124	H	1.009230	-0.229640	-0.981477
H125	H	1.040922	-0.350222	-1.016555
H126	H	0.309195	-0.487933	-0.236936
H127	H	0.519178	-0.381752	-0.258626
H128	H	0.949251	-0.381510	-1.092757
H129	H	0.826706	-1.107212	-0.380990
H130	H	0.845262	-0.673764	-0.913124
O131	O	0.778216	-0.634965	-0.713375
C132	C	0.783958	-0.739131	-0.705334
H133	H	0.807874	-0.741313	-0.658007
H134	H	0.735157	-0.786009	-0.706631
H135	H	0.813486	-0.774303	-0.744861
