data_functionalizedCrystal
_audit_creation_method	'MofGen! by Chris Wilmer'
_symmetry_space_group_name_H-M	'P1'
_symmetry_Int_Tables_number	1
_symmetry_cell_setting	triclinic
loop_
_symmetry_equiv_pos_as_xyz
  x,y,z
_cell_length_a	16.109302
_cell_length_b	10.723024
_cell_length_c	14.586319
_cell_angle_alpha	89.997376
_cell_angle_beta	89.994552
_cell_angle_gamma	83.964825
loop_
_atom_site_label
_atom_site_type_symbol
_atom_site_fract_x
_atom_site_fract_y
_atom_site_fract_z
O1	O	1.104074	0.160395	-0.076279
O2	O	0.862130	0.180354	-0.076272
O3	O	0.988683	-0.011275	-0.076272
O4	O	0.977521	0.352025	-0.076279
O5	O	0.988674	-0.011278	0.076209
O6	O	0.862121	0.180352	0.076209
O7	O	1.104065	0.160392	0.076202
Cu8	Cu	0.983092	0.170372	0.090128
Cu9	Cu	0.983103	0.170375	-0.090198
O10	O	0.977512	0.352022	0.076202
C11	C	0.831146	0.179544	-0.000030
C12	C	0.738836	0.177120	-0.000028
C13	C	0.526457	0.171513	0.083081
C14	C	0.439724	0.169221	0.083078
C15	C	0.439744	0.169231	-0.083165
C16	C	0.526477	0.171513	-0.083161
C17	C	0.569831	0.172660	-0.000035
C18	C	0.396364	0.168086	-0.000043
C19	C	0.302324	0.165602	-0.000047
C20	C	0.663877	0.175142	-0.000031
C21	C	0.987866	-0.057766	-0.000033
C22	C	0.985436	-0.196288	-0.000036
C23	C	1.056248	-0.272209	-0.000040
C24	C	1.053738	-0.415379	-0.000043
C25	C	1.135049	0.161202	-0.000042
C26	C	1.227359	0.163627	-0.000051
C27	C	0.978329	0.398512	-0.000039
C28	C	0.980759	0.537034	-0.000042
N29	N	0.983091	0.170369	0.216960
N30	N	0.983111	0.170368	-0.217030
C31	C	1.039147	0.085543	0.451966
C32	C	1.039150	0.085540	0.547947
C33	C	0.927048	0.255198	0.547957
C34	C	0.927042	0.255194	0.451978
C35	C	0.983097	0.170368	0.403985
C36	C	0.983105	0.170369	0.595945
C37	C	0.983107	0.170366	0.700012
C38	C	0.983094	0.170369	0.299911
H39	H	0.404413	0.168287	0.150759
H40	H	1.118732	-0.231215	-0.000036
H41	H	0.922953	-0.237282	-0.000040
H42	H	0.561754	0.172447	0.150767
N43	N	1.099613	-0.005939	0.599696
H44	H	1.091113	0.006928	0.667782
H45	H	1.089509	-0.094468	0.582924
N46	N	1.099583	-0.005976	0.400203
H47	H	1.091073	0.006885	0.332119
H48	H	1.158649	0.008442	0.416962
N49	N	0.866592	0.346685	0.599721
H50	H	0.875101	0.333820	0.667805
H51	H	0.876698	0.435211	0.582936
N52	N	0.866578	0.346677	0.400218
H53	H	0.831072	0.400419	0.445184
H54	H	0.898714	0.401854	0.360382
H55	H	1.114359	-0.480615	-0.000042
N56	N	0.392984	0.167991	-0.172819
H57	H	0.331457	0.166373	-0.160211
H58	H	0.401849	0.245700	-0.209117
N59	N	0.573267	0.172736	-0.172812
H60	H	0.532642	0.171669	-0.225473
H61	H	0.602957	0.250988	-0.176433
H62	H	0.920135	-0.397737	-0.000033
