data_functionalizedCrystal
_audit_creation_method	'MofGen! by Chris Wilmer'
_symmetry_space_group_name_H-M	'P1'
_symmetry_Int_Tables_number	1
_symmetry_cell_setting	triclinic
loop_
_symmetry_equiv_pos_as_xyz
  x,y,z
_cell_length_a	12.759401
_cell_length_b	16.120444
_cell_length_c	12.759393
_cell_angle_alpha	92.863624
_cell_angle_beta	89.981433
_cell_angle_gamma	92.925484
loop_
_atom_site_label
_atom_site_type_symbol
_atom_site_fract_x
_atom_site_fract_y
_atom_site_fract_z
Zn1	Zn	1.584963	-0.331879	-0.615155
Zn2	Zn	1.575911	-0.471317	-0.448370
Zn3	Zn	1.409262	-0.331920	-0.439496
Zn4	Zn	1.400311	-0.471250	-0.624007
O5	O	1.492612	-0.401591	-0.531757
O6	O	1.730782	-0.350387	-0.593039
O7	O	1.553762	-0.452871	-0.300175
O8	O	1.440103	-0.215249	-0.455380
O9	O	1.724132	-0.452831	-0.470503
O10	O	1.569190	-0.215219	-0.584435
O11	O	1.431326	-0.350456	-0.293655
O12	O	1.261054	-0.350391	-0.463963
O13	O	1.424848	-0.452717	-0.769851
O14	O	1.254478	-0.452757	-0.599522
O15	O	1.560511	-0.350322	-0.763347
O16	O	1.545083	-0.587974	-0.479087
O17	O	1.416071	-0.587925	-0.608126
C18	C	1.219646	-0.401572	-0.531741
C19	C	1.102868	-0.401584	-0.531761
C20	C	1.051456	-0.348341	-0.595676
C21	C	0.941731	-0.348357	-0.595683
C22	C	0.934840	-0.454865	-0.467858
C23	C	1.044563	-0.454844	-0.467846
C24	C	1.109761	-0.295081	-0.659590
C25	C	1.058348	-0.241835	-0.723512
C26	C	0.948623	-0.241851	-0.723519
C27	C	0.890310	-0.295113	-0.659606
C28	C	1.478652	-0.618199	-0.545553
C29	C	1.472776	-0.710865	-0.551490
C30	C	1.523350	-0.921811	-0.501184
C31	C	1.462068	-0.880521	-0.562341
C32	C	1.468028	-0.786116	-0.556302
C33	C	1.517392	-1.016225	-0.507222
C34	C	1.766644	-0.401612	-0.531774
C35	C	1.883420	-0.401620	-0.531781
C36	C	1.492691	-0.401507	-0.805785
C37	C	1.492724	-0.401472	-0.922560
C38	C	1.506654	-0.184138	-0.517930
C39	C	1.512639	-0.091472	-0.512038
C40	C	1.563373	-0.348149	-0.974036
C41	C	1.563400	-0.348119	-1.083759
C42	C	1.422126	-0.454741	-1.090518
C43	C	1.422095	-0.454766	-0.980797
C44	C	1.634003	-0.294854	-0.915799
C45	C	1.704659	-0.241528	-0.967276
C46	C	1.704686	-0.241498	-1.076998
C47	C	1.634057	-0.294794	-1.135243
C48	C	1.492597	-0.401615	-0.258791
C49	C	1.492782	-0.401416	-0.142002
H50	H	1.105834	-0.198466	-0.775541
Br51	Br	1.618251	-0.862559	-0.406361
H52	H	1.364623	-0.498131	-1.137950
Br53	Br	0.741397	-0.295122	-0.659604
Br54	Br	1.326208	-0.527130	-0.910928
Br55	Br	0.878851	-0.169582	-0.810256
H56	H	0.887353	-0.498230	-0.415825
H57	H	1.405126	-0.916072	-0.619234
Br58	Br	1.114344	-0.527109	-0.381111
H59	H	1.633991	-0.294875	-0.826457
Br60	Br	1.800487	-0.169186	-0.888231
H61	H	1.762209	-0.198072	-1.118907
H62	H	1.634073	-0.294756	-1.224586
H63	H	1.199105	-0.295062	-0.659591
