data_functionalizedCrystal
_audit_creation_method	'MofGen! by Chris Wilmer'
_symmetry_space_group_name_H-M	'P1'
_symmetry_Int_Tables_number	1
_symmetry_cell_setting	triclinic
loop_
_symmetry_equiv_pos_as_xyz
  x,y,z
_cell_length_a	25.639242
_cell_length_b	29.839131
_cell_length_c	25.639233
_cell_angle_alpha	89.984584
_cell_angle_beta	89.977834
_cell_angle_gamma	90.037230
loop_
_atom_site_label
_atom_site_type_symbol
_atom_site_fract_x
_atom_site_fract_y
_atom_site_fract_z
Zn1	Zn	0.799214	-0.178962	-0.295754
Zn2	Zn	1.299214	0.321038	0.204246
Zn3	Zn	0.799133	-0.254076	-0.208324
Zn4	Zn	1.299133	0.245924	0.291676
Zn5	Zn	0.711790	-0.178955	-0.208318
Zn6	Zn	1.211790	0.321045	0.291682
Zn7	Zn	0.711731	-0.254059	-0.295714
Zn8	Zn	1.211731	0.245941	0.204286
O9	O	0.755467	-0.216513	-0.252028
O10	O	1.255467	0.283487	0.247972
O11	O	0.872369	-0.188935	-0.284176
O12	O	1.372369	0.311065	0.215824
O13	O	0.787538	-0.244115	-0.135158
O14	O	1.287538	0.255885	0.364842
O15	O	0.723446	-0.116089	-0.219932
O16	O	1.223446	0.383911	0.280068
O17	O	0.872309	-0.244122	-0.219941
O18	O	1.372309	0.255878	0.280059
O19	O	0.787676	-0.116094	-0.284171
O20	O	1.287676	0.383906	0.215829
O21	O	0.723368	-0.188924	-0.135154
O22	O	1.223368	0.311076	0.364846
O23	O	0.638617	-0.188908	-0.219892
O24	O	1.138617	0.311092	0.280108
O25	O	0.723345	-0.244093	-0.368884
O26	O	1.223345	0.255907	0.131116
O27	O	0.638574	-0.244087	-0.284101
O28	O	1.138574	0.255913	0.215899
O29	O	0.787618	-0.188919	-0.368914
O30	O	1.287618	0.311081	0.131086
O31	O	0.787480	-0.316941	-0.219901
O32	O	1.287480	0.183059	0.280099
O33	O	0.723266	-0.316929	-0.284106
O34	O	1.223266	0.183071	0.215894
C35	C	0.619625	-0.216495	-0.251992
C36	C	1.119625	0.283505	0.248008
C37	C	0.561510	-0.216499	-0.251989
C38	C	1.061510	0.283501	0.248011
C39	C	0.201134	-0.245293	-0.285429
C40	C	0.701134	0.254707	0.214571
C41	C	0.146529	-0.245295	-0.285438
C42	C	0.646529	0.254705	0.214562
O43	O	0.118281	-0.269755	-0.313840
O44	O	0.618281	0.230245	0.186160
N45	N	0.119228	-0.216525	-0.252062
N46	N	0.619228	0.283475	0.247938
C47	C	0.146534	-0.187748	-0.218679
C48	C	0.646534	0.312252	0.281321
O49	O	0.118298	-0.163276	-0.190291
O50	O	0.618298	0.336724	0.309709
C51	C	0.201137	-0.187743	-0.218674
C52	C	0.701137	0.312257	0.281326
C53	C	0.228436	-0.216518	-0.252048
C54	C	0.728436	0.283482	0.247952
C55	C	0.228432	-0.274065	-0.318802
C56	C	0.728432	0.225935	0.181198
C57	C	0.283033	-0.274063	-0.318793
C58	C	0.783033	0.225937	0.181207
C59	C	0.310335	-0.245288	-0.285411
C60	C	0.810335	0.254712	0.214589
C61	C	0.283036	-0.216516	-0.252039
C62	C	0.783036	0.283484	0.247961
C63	C	0.228442	-0.158963	-0.185294
C64	C	0.728442	0.341037	0.314706
C65	C	0.283049	-0.158961	-0.185292
C66	C	0.783049	0.341039	0.314708
C67	C	0.310348	-0.187736	-0.218666
C68	C	0.810348	0.312264	0.281334
C69	C	0.364939	-0.187739	-0.218649
C70	C	0.864939	0.312261	0.281351
N71	N	0.392240	-0.216509	-0.252025
N72	N	0.892240	0.283491	0.247975
C73	C	0.364938	-0.245283	-0.285406
C74	C	0.864938	0.254717	0.214594
C75	C	0.031863	-0.187759	-0.218693
C76	C	0.531863	0.312241	0.281307
C77	C	-0.022739	-0.187766	-0.218695
C78	C	0.477261	0.312234	0.281305
C79	C	-0.022740	-0.245313	-0.285455
C80	C	0.477260	0.254687	0.214545
C81	C	0.031863	-0.245308	-0.285450
C82	C	0.531863	0.254692	0.214550
C83	C	0.059165	-0.216529	-0.252069
C84	C	0.559165	0.283471	0.247931
C85	C	0.479603	-0.245277	-0.285384
C86	C	0.979603	0.254723	0.214616
C87	C	0.534208	-0.245273	-0.285371
C88	C	1.034208	0.254727	0.214629
C89	C	0.534205	-0.187724	-0.218613
C90	C	1.034205	0.312276	0.281387
C91	C	0.479604	-0.187729	-0.218625
C92	C	0.979604	0.312271	0.281375
C93	C	0.452305	-0.216507	-0.252014
C94	C	0.952305	0.283493	0.247986
O95	O	0.393222	-0.163290	-0.190263
O96	O	0.893222	0.336710	0.309737
O97	O	0.393180	-0.269746	-0.313794
O98	O	0.893180	0.230254	0.186206
C99	C	0.755372	-0.333236	-0.252011
C100	C	1.255372	0.166764	0.247989
C101	C	0.755379	-0.383170	-0.252022
C102	C	1.255379	0.116830	0.247978
C103	C	0.722052	-0.739766	-0.285457
C104	C	1.222052	-0.239766	0.214543
C105	C	0.721983	-0.552093	-0.285440
C106	C	1.221983	-0.052093	0.214560
O107	O	0.693534	-0.527837	-0.313858
O108	O	1.193534	-0.027837	0.186142
N109	N	0.755434	-0.528615	-0.252038
N110	N	1.255434	-0.028615	0.247962
C111	C	0.788908	-0.552058	-0.218639
C112	C	1.288908	-0.052058	0.281361
O113	O	0.817362	-0.527782	-0.190231
O114	O	1.317362	-0.027782	0.309769
C115	C	0.788979	-0.739730	-0.218659
C116	C	1.288979	-0.239730	0.281341
C117	C	0.755522	-0.763206	-0.252060
C118	C	1.255522	-0.263206	0.247940
C119	C	0.688599	-0.763242	-0.318856
C120	C	1.188599	-0.263242	0.181144
C121	C	0.688614	-0.810158	-0.318857
C122	C	1.188614	-0.310158	0.181143
C123	C	0.722084	-0.833597	-0.285460
C124	C	1.222084	-0.333597	0.214540
C125	C	0.755538	-0.810122	-0.252061
C126	C	1.255538	-0.310122	0.247939
C127	C	0.822454	-0.763172	-0.185263
C128	C	1.322454	-0.263172	0.314737
C129	C	0.822470	-0.810093	-0.185272
C130	C	1.322470	-0.310093	0.314728
C131	C	0.789013	-0.833569	-0.218673
C132	C	1.289013	-0.333569	0.281327
C133	C	0.789023	-0.880477	-0.218666
C134	C	1.289023	-0.380477	0.281334
N135	N	0.755572	-0.903955	-0.252069
N136	N	1.255572	-0.403955	0.247931
C137	C	0.722102	-0.880515	-0.285466
C138	C	1.222102	-0.380515	0.214534
C139	C	0.788867	-0.453527	-0.218631
C140	C	1.288867	0.046473	0.281369
C141	C	0.788849	-0.406610	-0.218625
C142	C	1.288849	0.093390	0.281375
C143	C	0.721925	-0.406648	-0.285427
C144	C	1.221925	0.093352	0.214573
C145	C	0.721941	-0.453567	-0.285430
C146	C	1.221941	0.046433	0.214570
C147	C	0.755416	-0.477006	-0.252033
C148	C	1.255416	0.022994	0.247967
C149	C	0.722137	-0.979041	-0.285467
C150	C	1.222137	-0.479041	0.214533
C151	C	0.722154	-1.025961	-0.285464
C152	C	1.222154	-0.525961	0.214536
C153	C	0.789079	-1.025918	-0.218664
C154	C	1.289079	-0.525918	0.281336
C155	C	0.789061	-0.979002	-0.218665
C156	C	1.289061	-0.479002	0.281335
C157	C	0.755588	-0.955565	-0.252070
C158	C	1.255588	-0.455565	0.247930
O159	O	0.817461	-0.904762	-0.190268
O160	O	1.317461	-0.404762	0.309732
O161	O	0.693660	-0.904799	-0.313878
O162	O	1.193660	-0.404799	0.186122
C163	C	0.722037	-0.692851	-0.285455
C164	C	1.222037	-0.192851	0.214545
C165	C	0.755491	-0.669375	-0.252056
C166	C	1.255491	-0.169375	0.247944
C167	C	0.788960	-0.692815	-0.218659
C168	C	1.288960	-0.192815	0.281341
C169	C	0.755472	-0.622457	-0.252051
C170	C	1.255472	-0.122457	0.247949
C171	C	0.722003	-0.599018	-0.285448
C172	C	1.222003	-0.099018	0.214552
C173	C	0.688552	-0.622496	-0.318850
C174	C	1.188552	-0.122496	0.181150
C175	C	0.688567	-0.669411	-0.318852
C176	C	1.188567	-0.169411	0.181148
C177	C	0.822411	-0.669337	-0.185256
C178	C	1.322411	-0.169337	0.314744
C179	C	0.822393	-0.622421	-0.185257
C180	C	1.322393	-0.122421	0.314743
C181	C	0.788923	-0.598981	-0.218654
C182	C	1.288923	-0.098981	0.281346
C183	C	0.891840	-0.216531	-0.252063
C184	C	1.391840	0.283469	0.247937
C185	C	0.949954	-0.216539	-0.252079
C186	C	1.449954	0.283461	0.247921
C187	C	0.755484	-0.216505	-0.388401
C188	C	1.255484	0.283495	0.111599
C189	C	0.755491	-0.216502	-0.446515
C190	C	1.255491	0.283498	0.053485
C191	C	0.755577	-0.099335	-0.252055
C192	C	1.255577	0.400665	0.247945
C193	C	0.755624	-0.049400	-0.252067
C194	C	1.255624	0.450600	0.247933
C195	C	0.789001	-0.187687	-0.806899
C196	C	1.289001	0.312313	-0.306899
C197	C	0.789007	-0.187675	-0.861503
C198	C	1.289007	0.312325	-0.361503
O199	O	0.817456	-0.163229	-0.889758
O200	O	1.317456	0.336771	-0.389758
N201	N	0.755549	-0.216396	-0.888797
N202	N	1.255549	0.283604	-0.388797
C203	C	0.722078	-0.245129	-0.861484
C204	C	1.222078	0.254871	-0.361484
O205	O	0.693619	-0.269558	-0.889714
O206	O	1.193619	0.230442	-0.389714
C207	C	0.722069	-0.245139	-0.806881
C208	C	1.222069	0.254861	-0.306881
C209	C	0.755534	-0.216419	-0.779590
C210	C	1.255534	0.283581	-0.279590
C211	C	0.822462	-0.158969	-0.779608
C212	C	1.322462	0.341031	-0.279608
C213	C	0.822456	-0.158982	-0.725007
C214	C	1.322456	0.341018	-0.225007
C215	C	0.788989	-0.187714	-0.697698
C216	C	1.288989	0.312286	-0.197698
C217	C	0.755528	-0.216432	-0.724989
C218	C	1.255528	0.283568	-0.224989
C219	C	0.688596	-0.273869	-0.779569
C220	C	1.188596	0.226131	-0.279569
C221	C	0.688590	-0.273876	-0.724961
C222	C	1.188590	0.226124	-0.224961
C223	C	0.722054	-0.245156	-0.697670
C224	C	1.222054	0.254844	-0.197670
C225	C	0.722055	-0.245176	-0.643079
C226	C	1.222055	0.254824	-0.143079
N227	N	0.755513	-0.216455	-0.615785
N228	N	1.255513	0.283545	-0.115785
C229	C	0.788980	-0.187723	-0.643095
C230	C	1.288980	0.312277	-0.143095
C231	C	0.722098	-0.245106	-0.976155
C232	C	1.222098	0.254894	-0.476155
C233	C	0.722109	-0.245099	-1.030757
C234	C	1.222109	0.254901	-0.530757
C235	C	0.789038	-0.187644	-1.030773
C236	C	1.289038	0.312356	-0.530773
C237	C	0.789029	-0.187653	-0.976169
C238	C	1.289029	0.312347	-0.476169
C239	C	0.755557	-0.216384	-0.948861
C240	C	1.255557	0.283616	-0.448861
C241	C	0.788966	-0.187753	-0.528429
C242	C	1.288966	0.312247	-0.028429
C243	C	0.788958	-0.187770	-0.473824
C244	C	1.288958	0.312230	0.026176
C245	C	0.722028	-0.245223	-0.473813
C246	C	1.222028	0.254777	0.026187
C247	C	0.722037	-0.245208	-0.528414
C248	C	1.222037	0.254792	-0.028414
C249	C	0.755508	-0.216470	-0.555721
C250	C	1.255508	0.283530	-0.055721
O251	O	0.693619	-0.269609	-0.614790
O252	O	1.193619	0.230391	-0.114790
O253	O	0.817429	-0.163295	-0.614858
O254	O	1.317429	0.336705	-0.114858
C255	C	0.755480	-0.216488	-0.116185
C256	C	1.255480	0.283512	0.383815
C257	C	0.755575	-0.216365	-0.058071
C258	C	1.255575	0.283635	0.441929
H259	H	0.305275	-0.135522	-0.158112
H260	H	0.805275	0.364478	0.341888
N261	N	0.562100	-0.274662	-0.319464
N262	N	1.062100	0.225338	0.180536
N263	N	0.610853	-0.274658	-0.319454
N264	N	1.110853	0.225342	0.180546
H265	H	0.630551	-0.295413	-0.343532
H266	H	1.130551	0.204587	0.156468
N267	N	0.823208	-0.158307	-0.948303
N268	N	1.323208	0.341693	-0.448303
N269	N	0.819778	-0.116852	-0.954411
N270	N	1.319778	0.383148	-0.454411
H271	H	0.843918	-0.096124	-0.934733
H272	H	1.343918	0.403876	-0.434733
N273	N	0.856572	-0.598441	-0.151139
N274	N	1.356572	-0.098441	0.348861
N275	N	0.889868	-0.572229	-0.169569
N276	N	1.389868	-0.072229	0.330431
H277	H	0.914007	-0.555293	-0.145476
H278	H	1.414007	-0.055293	0.354524
N279	N	0.856636	-0.129634	-0.697144
N280	N	1.356636	0.370366	-0.197144
N281	N	0.853202	-0.088180	-0.703254
N282	N	1.353202	0.411820	-0.203254
H283	H	0.877343	-0.067449	-0.683580
H284	H	1.377343	0.432551	-0.183580
N285	N	0.687929	-0.274433	-1.058639
N286	N	1.187929	0.225567	-0.558639
N287	N	0.687933	-0.274420	-1.107391
N288	N	1.187933	0.225580	-0.607391
H289	H	0.663790	-0.295136	-1.127082
H290	H	1.163790	0.204864	-0.627082
H291	H	0.694908	-1.045073	-0.312665
H292	H	1.194908	-0.545073	0.187335
N293	N	0.823222	-0.158297	-1.058682
N294	N	1.323222	0.341703	-0.558682
N295	N	0.823219	-0.158294	-1.107435
N296	N	1.323219	0.341706	-0.607435
H297	H	0.847360	-0.137570	-1.127148
H298	H	1.347360	0.362430	-0.627148
N299	N	0.451714	-0.274668	-0.319488
N300	N	0.951714	0.225332	0.180512
N301	N	0.421274	-0.258912	-0.352845
N302	N	0.921274	0.241088	0.147155
H303	H	0.401576	-0.279671	-0.376928
H304	H	0.901576	0.220329	0.123072
N305	N	0.451724	-0.158339	-0.184526
N306	N	0.951724	0.341661	0.315474
N307	N	0.476110	-0.132651	-0.154722
N308	N	0.976110	0.367349	0.345278
H309	H	0.456424	-0.111890	-0.130642
H310	H	0.956424	0.388110	0.369358
N311	N	0.823148	-0.158393	-0.556318
N312	N	1.323148	0.341607	-0.056318
N313	N	0.819718	-0.116940	-0.550215
N314	N	1.319718	0.383060	-0.050215
H315	H	0.843860	-0.096205	-0.569912
H316	H	1.343860	0.403795	-0.069912
N317	N	0.823019	-0.382640	-0.184495
N318	N	1.323019	0.117360	0.315505
N319	N	0.852898	-0.403579	-0.154680
N320	N	1.352898	0.096421	0.345320
H321	H	0.877034	-0.386652	-0.130575
H322	H	1.377034	0.113348	0.369425
N323	N	0.059745	-0.274692	-0.319551
N324	N	0.559745	0.225308	0.180449
N325	N	0.090237	-0.258927	-0.352901
N326	N	0.590237	0.241073	0.147099
H327	H	0.109926	-0.279679	-0.376988
H328	H	0.609926	0.220321	0.123012
N329	N	0.310905	-0.303458	-0.352888
N330	N	0.810905	0.196542	0.147112
N331	N	0.286512	-0.329144	-0.382689
N332	N	0.786512	0.170856	0.117311
H333	H	0.306194	-0.349906	-0.406773
H334	H	0.806194	0.150094	0.093227
N335	N	-0.050628	-0.158374	-0.184608
N336	N	0.449372	0.341626	0.315392
N337	N	-0.099381	-0.158375	-0.184617
N338	N	0.400619	0.341625	0.315383
H339	H	-0.119077	-0.137614	-0.160545
H340	H	0.380923	0.362386	0.339455
H341	H	-0.044979	-0.268742	-0.312637
H342	H	0.455021	0.231258	0.187363
H343	H	0.849698	-0.744065	-0.158065
H344	H	1.349698	-0.244065	0.341935
H345	H	0.816211	-0.164382	-0.451606
H346	H	1.316211	0.335618	0.048394
H347	H	0.694840	-0.268504	-0.953924
H348	H	1.194840	0.231496	-0.453924
H349	H	0.054089	-0.164324	-0.191507
H350	H	0.554089	0.335676	0.308493
N351	N	0.200575	-0.129568	-0.151197
N352	N	0.700575	0.370432	0.348803
N353	N	0.224969	-0.103880	-0.121400
N354	N	0.724969	0.396120	0.378600
H355	H	0.205289	-0.083118	-0.097316
H356	H	0.705289	0.416882	0.402684
H357	H	0.849715	-0.135570	-0.801837
H358	H	1.349715	0.364430	-0.301837
H359	H	0.661346	-0.297256	-0.801780
H360	H	1.161346	0.202744	-0.301780
N361	N	0.687834	-0.274568	-0.445920
N362	N	1.187834	0.225432	0.054080
N363	N	0.657954	-0.300207	-0.470288
N364	N	1.157954	0.199793	0.029712
H365	H	0.633801	-0.320930	-0.450588
H366	H	1.133801	0.179070	0.049412
N367	N	0.562107	-0.158339	-0.184517
N368	N	1.062107	0.341661	0.315483
N369	N	0.610859	-0.158343	-0.184519
N370	N	1.110859	0.341657	0.315481
H371	H	0.630567	-0.137588	-0.160440
H372	H	1.130567	0.362412	0.339560
N373	N	0.687945	-0.955112	-0.319594
N374	N	1.187945	-0.455112	0.180406
N375	N	0.658080	-0.976086	-0.349410
N376	N	1.158080	-0.476086	0.150590
H377	H	0.633930	-0.959186	-0.373512
H378	H	1.133930	-0.459186	0.126488
H379	H	0.206208	-0.297497	-0.345987
H380	H	0.706208	0.202503	0.154013
H381	H	0.661369	-0.829268	-0.346055
H382	H	1.161369	-0.329268	0.153945
N383	N	0.654391	-0.303225	-0.697076
N384	N	1.154391	0.196775	-0.197076
N385	N	0.624516	-0.328862	-0.721454
N386	N	1.124516	0.171138	-0.221454
H387	H	0.600363	-0.349590	-0.701761
H388	H	1.100363	0.150410	-0.201761
H389	H	0.694792	-0.268599	-0.550635
H390	H	1.194792	0.231401	-0.050635
H391	H	0.694700	-0.472678	-0.312631
H392	H	1.194700	0.027322	0.187369
N393	N	0.654413	-0.739305	-0.352981
N394	N	1.154413	-0.239305	0.147019
N395	N	0.657848	-0.744533	-0.401229
N396	N	1.157848	-0.244533	0.098771
H397	H	0.633701	-0.727631	-0.425331
H398	H	1.133701	-0.227631	0.074669
N399	N	0.687741	-0.382694	-0.319540
N400	N	1.187741	0.117306	0.180460
N401	N	0.687736	-0.340803	-0.319528
N402	N	1.187736	0.159197	0.180472
H403	H	0.663598	-0.323883	-0.343622
H404	H	1.163598	0.176117	0.156378
H405	H	0.816127	-0.472607	-0.191433
H406	H	1.316127	0.027393	0.308567
H407	H	0.849732	-0.829175	-0.158077
H408	H	1.349732	-0.329175	0.341923
H409	H	0.816299	-0.959888	-0.191461
H410	H	1.316299	-0.459888	0.308539
H411	H	0.816328	-1.045011	-0.191471
H412	H	1.316328	-0.545011	0.308529
N413	N	0.654386	-0.693388	-0.352966
N414	N	1.154386	-0.193388	0.147034
N415	N	0.606142	-0.688184	-0.349442
N416	N	1.106142	-0.188184	0.150558
H417	H	0.582000	-0.705114	-0.373536
H418	H	1.082000	-0.205114	0.126464
N419	N	0.654364	-0.598541	-0.352960
N420	N	1.154364	-0.098541	0.147040
N421	N	0.654360	-0.556651	-0.352948
N422	N	1.154360	-0.056651	0.147052
H423	H	0.630218	-0.539730	-0.377037
H424	H	1.130218	-0.039730	0.122963
N425	N	0.856608	-0.693268	-0.151140
N426	N	1.356608	-0.193268	0.348860
N427	N	0.886472	-0.672295	-0.121324
N428	N	1.386472	-0.172295	0.378676
H429	H	0.910626	-0.689195	-0.097226
H430	H	1.410626	-0.189195	0.402774
