data_functionalizedCrystal
_audit_creation_method	'MofGen! by Chris Wilmer'
_symmetry_space_group_name_H-M	'P1'
_symmetry_Int_Tables_number	1
_symmetry_cell_setting	triclinic
loop_
_symmetry_equiv_pos_as_xyz
  x,y,z
_cell_length_a	14.853567
_cell_length_b	10.654541
_cell_length_c	9.730217
_cell_angle_alpha	89.996959
_cell_angle_beta	90.001561
_cell_angle_gamma	84.059430
loop_
_atom_site_label
_atom_site_type_symbol
_atom_site_fract_x
_atom_site_fract_y
_atom_site_fract_z
O1	O	1.197238	0.163959	-0.114195
O2	O	0.934883	0.183491	-0.114218
O3	O	1.072093	-0.009077	-0.114197
O4	O	1.060027	0.356527	-0.114215
O5	O	1.072089	-0.009079	0.114383
O6	O	0.934878	0.183489	0.114362
O7	O	1.197233	0.163957	0.114386
Zn8	Zn	1.066055	0.173723	0.150666
Zn9	Zn	1.066061	0.173725	-0.150498
O10	O	1.060023	0.356525	0.114365
C11	C	1.071206	-0.055867	0.000092
C12	C	1.068556	-0.195283	0.000089
C13	C	0.901287	0.182605	0.000069
C14	C	0.801189	0.179953	0.000060
C15	C	1.232629	-0.224958	0.000121
C16	C	1.313417	-0.305292	0.000140
C17	C	1.310922	-0.436284	0.000136
C18	C	1.227630	-0.486944	0.000108
C19	C	1.146842	-0.406610	0.000089
C20	C	1.149346	-0.275617	0.000098
C21	C	0.982772	-0.376935	0.000048
C22	C	0.985265	-0.245943	0.000062
C23	C	0.899480	-0.427595	0.000020
C24	C	0.818690	-0.347261	0.000011
C25	C	0.821189	-0.216262	0.000017
C26	C	0.904477	-0.165609	0.000043
C27	C	0.387984	0.054353	0.000097
C28	C	0.367926	0.283128	0.000085
C29	C	0.461973	0.285622	0.000080
C30	C	0.519030	0.172479	0.000082
C31	C	0.482040	0.056843	0.000089
C32	C	0.498971	0.401256	0.000060
C33	C	0.593023	0.403754	0.000054
C34	C	0.650082	0.290610	0.000065
C35	C	0.613086	0.174969	0.000073
C36	C	0.670143	0.061827	0.000075
C37	C	0.633149	-0.053816	0.000093
C38	C	0.539098	-0.056301	0.000100
C39	C	0.744132	0.293095	0.000058
C40	C	0.764199	0.064317	0.000067
C41	C	1.230829	0.164843	0.000095
C42	C	1.330927	0.167495	0.000095
C43	C	1.060910	0.403315	0.000073
C44	C	1.063560	0.542731	0.000066
N45	N	1.066058	0.173721	0.356202
N46	N	1.066065	0.173718	-0.356035
C47	C	1.187608	0.003251	0.356211
C48	C	1.248389	-0.081981	0.428156
C49	C	1.248398	-0.081981	0.572035
C50	C	1.187618	0.003256	0.643974
C51	C	1.126837	0.088487	0.572030
C52	C	1.126836	0.088481	0.428147
C53	C	1.005284	0.258949	0.572021
C54	C	1.005278	0.258958	0.428141
C55	C	0.944504	0.344186	0.643960
C56	C	0.883725	0.429425	0.572015
C57	C	0.883719	0.429424	0.428127
C58	C	0.944497	0.344189	0.356197
H59	H	1.381232	-0.264030	0.000174
C60	C	0.728242	-0.402194	-0.000306
C61	C	0.679375	-0.361391	-0.117930
C62	C	0.596055	-0.411988	-0.118278
H63	H	0.694827	-0.374682	0.079306
H64	H	0.738291	-0.491718	-0.000391
H65	H	0.669324	-0.271886	-0.117833
H66	H	0.712763	-0.388902	-0.197562
H67	H	0.606103	-0.501512	-0.118363
H68	H	0.562647	-0.384473	-0.038661
H69	H	0.562891	-0.384320	-0.198090
C70	C	1.187495	0.003496	0.199998
C71	C	1.121272	0.096401	0.152390
C72	C	1.121151	0.096673	0.008495
H73	H	1.174632	-0.076728	0.167279
H74	H	1.245200	0.020909	0.167400
H75	H	1.063580	0.078980	0.184974
H76	H	1.134120	0.176638	0.185072
H77	H	1.178856	0.114085	-0.024103
H78	H	1.108290	0.016444	-0.024211
H79	H	1.076226	0.159715	-0.023826
H80	H	0.944510	0.344177	0.761114
C81	C	1.314258	-0.174516	0.349835
C82	C	1.265801	-0.251512	0.267166
C83	C	1.326458	-0.336732	0.194972
H84	H	1.350506	-0.225402	0.413099
H85	H	1.352020	-0.129201	0.293651
H86	H	1.228055	-0.296823	0.323346
H87	H	1.229556	-0.200662	0.203876
H88	H	1.364219	-0.291417	0.138788
H89	H	1.362703	-0.387608	0.258247
H90	H	1.293589	-0.388976	0.138864
H91	H	1.376707	-0.501693	0.000140
H92	H	1.297888	-0.151388	0.630613
C93	C	0.817637	0.522009	0.649870
C94	C	0.764393	0.596638	0.556075
C95	C	0.703493	0.681929	0.627750
H96	H	0.850281	0.574491	0.706008
H97	H	0.779786	0.476753	0.705963
H98	H	0.802239	0.641891	0.500006
H99	H	0.731729	0.544191	0.499934
H100	H	0.665641	0.636672	0.683843
H101	H	0.736144	0.734402	0.683886
H102	H	0.667354	0.732567	0.564121
H103	H	0.623135	0.497916	0.000039
C104	C	0.817871	0.522027	0.349845
C105	C	0.866358	0.599021	0.267213
C106	C	0.805728	0.684332	0.195074
H107	H	0.781653	0.572906	0.413142
H108	H	0.780078	0.476783	0.293640
H109	H	0.904135	0.644261	0.323413
H110	H	0.902573	0.548176	0.203891
H111	H	0.767936	0.639088	0.138869
H112	H	0.769513	0.735202	0.258380
H113	H	0.838618	0.736574	0.138990
H114	H	0.944500	0.344184	0.239042
H115	H	1.225606	-0.593606	0.000088
C116	C	0.498986	-0.181885	0.000385
C117	C	0.527895	-0.250286	0.118001
C118	C	0.490950	-0.365971	0.118311
H119	H	0.518494	-0.228623	-0.079233
H120	H	0.434797	-0.167217	0.000455
H121	H	0.592070	-0.264958	0.117918
H122	H	0.508388	-0.203586	0.197638
H123	H	0.426761	-0.351303	0.118382
H124	H	0.510461	-0.412697	0.038688
H125	H	0.510553	-0.412390	0.198118
H126	H	1.234669	-0.118299	0.000144
H127	H	0.906519	-0.058951	0.000057
H128	H	0.897454	-0.534257	0.000008
H129	H	0.755401	-0.150860	-0.000004
H130	H	0.810649	-0.027819	0.000074
H131	H	0.679617	-0.145936	0.000085
H132	H	0.357859	-0.039800	0.000117
H133	H	0.321465	0.375243	0.000072
H134	H	0.452509	0.493370	0.000044
H135	H	0.774249	0.387249	0.000046
H136	H	1.187622	0.003239	0.761129
