data_functionalizedCrystal
_audit_creation_method	'MofGen! by Chris Wilmer'
_symmetry_space_group_name_H-M	'P1'
_symmetry_Int_Tables_number	1
_symmetry_cell_setting	triclinic
loop_
_symmetry_equiv_pos_as_xyz
  x,y,z
_cell_length_a	29.839131
_cell_length_b	29.839134
_cell_length_c	18.050582
_cell_angle_alpha	90.016118
_cell_angle_beta	89.974523
_cell_angle_gamma	89.980268
loop_
_atom_site_label
_atom_site_type_symbol
_atom_site_fract_x
_atom_site_fract_y
_atom_site_fract_z
Zn1	Zn	-0.179142	-0.686731	-0.419921
Zn2	Zn	0.320858	-0.186731	0.080079
Zn3	Zn	-0.254264	-0.686660	-0.295725
Zn4	Zn	0.245736	-0.186660	0.204275
Zn5	Zn	-0.179120	-0.611611	-0.295743
Zn6	Zn	0.320880	-0.111611	0.204257
Zn7	Zn	-0.254217	-0.611562	-0.419871
Zn8	Zn	0.245783	-0.111562	0.080129
O9	O	-0.216686	-0.649141	-0.357815
O10	O	0.283314	-0.149141	0.142185
O11	O	-0.189136	-0.749589	-0.403460
O12	O	0.310864	-0.249589	0.096540
O13	O	-0.244307	-0.676695	-0.191802
O14	O	0.255693	-0.176695	0.308198
O15	O	-0.116256	-0.621626	-0.312244
O16	O	0.383744	-0.121626	0.187756
O17	O	-0.244328	-0.749537	-0.312213
O18	O	0.255672	-0.249537	0.187787
O19	O	-0.116272	-0.676817	-0.403477
O20	O	0.383728	-0.176817	0.096523
O21	O	-0.189099	-0.621557	-0.191816
O22	O	0.310901	-0.121557	0.308184
O23	O	-0.189054	-0.548737	-0.312195
O24	O	0.310946	-0.048737	0.187805
O25	O	-0.244248	-0.621543	-0.523802
O26	O	0.255752	-0.121543	-0.023802
O27	O	-0.244227	-0.548701	-0.403391
O28	O	0.255773	-0.048701	0.096609
O29	O	-0.189090	-0.676769	-0.523839
O30	O	0.310910	-0.176769	-0.023839
O31	O	-0.317125	-0.676648	-0.312164
O32	O	0.182875	-0.176648	0.187836
O33	O	-0.317090	-0.621473	-0.403374
O34	O	0.182910	-0.121473	0.096626
C35	C	-0.216633	-0.532418	-0.357790
C36	C	0.283367	-0.032418	0.142210
C37	C	-0.216621	-0.482484	-0.357797
C38	C	0.283379	0.017516	0.142203
C39	C	-0.187987	-0.125920	-0.405401
C40	C	0.312013	0.374080	0.094599
C41	C	-0.187958	-0.313593	-0.405391
C42	C	0.312042	0.186407	0.094609
O43	O	-0.163567	-0.337877	-0.445874
O44	O	0.336433	0.162123	0.054126
N45	N	-0.216645	-0.337039	-0.357809
N46	N	0.283355	0.162961	0.142191
C47	C	-0.245343	-0.313563	-0.310230
C48	C	0.254657	0.186437	0.189770
O49	O	-0.269746	-0.337812	-0.269764
O50	O	0.230254	0.162188	0.230236
C51	C	-0.245374	-0.125891	-0.310244
C52	C	0.254626	0.374109	0.189756
C53	C	-0.216682	-0.102448	-0.357824
C54	C	0.283318	0.397552	0.142176
C55	C	-0.159297	-0.102477	-0.452978
C56	C	0.340703	0.397523	0.047022
C57	C	-0.159303	-0.055561	-0.452977
C58	C	0.340697	0.444439	0.047023
C59	C	-0.187998	-0.032089	-0.405400
C60	C	0.312002	0.467911	0.094600
C61	C	-0.216688	-0.055532	-0.357823
C62	C	0.283312	0.444468	0.142177
C63	C	-0.274074	-0.102417	-0.262669
C64	C	0.225926	0.397583	0.237331
C65	C	-0.274080	-0.055496	-0.262679
C66	C	0.225920	0.444504	0.237321
C67	C	-0.245388	-0.032052	-0.310258
C68	C	0.254612	0.467948	0.189742
C69	C	-0.245389	0.014855	-0.310245
C70	C	0.254611	0.514855	0.189755
N71	N	-0.216702	0.038301	-0.357827
N72	N	0.283298	0.538301	0.142173
C73	C	-0.188006	0.014829	-0.405404
C74	C	0.311994	0.514829	0.094596
C75	C	-0.245325	-0.412094	-0.310224
C76	C	0.254675	0.087906	0.189776
C77	C	-0.245317	-0.459012	-0.310220
C78	C	0.254683	0.040988	0.189780
C79	C	-0.187932	-0.459038	-0.405382
C80	C	0.312068	0.040962	0.094618
C81	C	-0.187938	-0.412120	-0.405382
C82	C	0.312062	0.087880	0.094618
C83	C	-0.216638	-0.388648	-0.357806
C84	C	0.283362	0.111352	0.142194
C85	C	-0.188020	0.113355	-0.405399
C86	C	0.311980	0.613355	0.094601
C87	C	-0.188027	0.160274	-0.405392
C88	C	0.311973	0.660274	0.094608
C89	C	-0.245414	0.160297	-0.310232
C90	C	0.254586	0.660297	0.189768
C91	C	-0.245405	0.113381	-0.310236
C92	C	0.254595	0.613381	0.189764
C93	C	-0.216707	0.089911	-0.357826
C94	C	0.283293	0.589911	0.142174
O95	O	-0.269770	0.039168	-0.269789
O96	O	0.230230	0.539168	0.230211
O97	O	-0.163614	0.039085	-0.445876
O98	O	0.336386	0.539085	0.054124
C99	C	-0.187981	-0.172835	-0.405402
C100	C	0.312019	0.327165	0.094598
C101	C	-0.216670	-0.196279	-0.357826
C102	C	0.283330	0.303721	0.142174
C103	C	-0.245366	-0.172807	-0.310248
C104	C	0.254634	0.327193	0.189752
C105	C	-0.216662	-0.243197	-0.357821
C106	C	0.283338	0.256803	0.142179
C107	C	-0.187967	-0.266669	-0.405398
C108	C	0.312033	0.233331	0.094602
C109	C	-0.159280	-0.243223	-0.452980
C110	C	0.340720	0.256777	0.047020
C111	C	-0.159286	-0.196307	-0.452979
C112	C	0.340714	0.303693	0.047021
C113	C	-0.274053	-0.196253	-0.262667
C114	C	0.225947	0.303747	0.237333
C115	C	-0.274044	-0.243168	-0.262671
C116	C	0.225956	0.256832	0.237329
C117	C	-0.245349	-0.266640	-0.310248
C118	C	0.254651	0.233360	0.189752
C119	C	-0.333408	-0.649060	-0.357778
C120	C	0.166592	-0.149060	0.142222
C121	C	-0.383343	-0.649066	-0.357787
C122	C	0.116657	-0.149066	0.142213
C123	C	-0.692992	-0.677922	-0.310391
C124	C	-0.192992	-0.177922	0.189609
C125	C	-0.880665	-0.677978	-0.310420
C126	C	-0.380665	-0.177978	0.189580
O127	O	-0.904934	-0.702448	-0.270094
O128	O	-0.404934	-0.202448	0.229906
N129	N	-0.904128	-0.649234	-0.357871
N130	N	-0.404128	-0.149234	0.142129
C131	C	-0.880670	-0.620476	-0.405321
C132	C	-0.380670	-0.120476	0.094679
O133	O	-0.904933	-0.596033	-0.445687
O134	O	-0.404933	-0.096033	0.054313
C135	C	-0.692998	-0.620424	-0.405295
C136	C	-0.192998	-0.120424	0.094705
C137	C	-0.669537	-0.649166	-0.357836
C138	C	-0.169537	-0.149166	0.142164
C139	C	-0.669531	-0.706663	-0.262937
C140	C	-0.169531	-0.206663	0.237063
C141	C	-0.622615	-0.706647	-0.262927
C142	C	-0.122615	-0.206647	0.237073
C143	C	-0.599161	-0.677891	-0.310372
C144	C	-0.099161	-0.177891	0.189628
C145	C	-0.622622	-0.649150	-0.357827
C146	C	-0.122622	-0.149150	0.142173
C147	C	-0.669541	-0.591669	-0.452749
C148	C	-0.169541	-0.091669	0.047251
C149	C	-0.622620	-0.591659	-0.452739
C150	C	-0.122620	-0.091659	0.047261
C151	C	-0.599159	-0.620401	-0.405280
C152	C	-0.099159	-0.120401	0.094720
C153	C	-0.552252	-0.620378	-0.405262
C154	C	-0.052252	-0.120378	0.094738
N155	N	-0.528788	-0.649122	-0.357812
N156	N	-0.028788	-0.149122	0.142188
C157	C	-0.552243	-0.677878	-0.310367
C158	C	-0.052243	-0.177878	0.189633
C159	C	-0.979201	-0.620506	-0.405330
C160	C	-0.479201	-0.120506	0.094670
C161	C	-1.026119	-0.620518	-0.405336
C162	C	-0.526119	-0.120518	0.094664
C163	C	-1.026110	-0.678020	-0.310436
C164	C	-0.526110	-0.178020	0.189564
C165	C	-0.979191	-0.678005	-0.310427
C166	C	-0.479191	-0.178005	0.189573
C167	C	-0.955737	-0.649249	-0.357879
C168	C	-0.455737	-0.149249	0.142121
C169	C	-0.453717	-0.677842	-0.310350
C170	C	0.046283	-0.177842	0.189650
C171	C	-0.406797	-0.677823	-0.310342
C172	C	0.093203	-0.177823	0.189658
C173	C	-0.406810	-0.620322	-0.405244
C174	C	0.093190	-0.120322	0.094756
C175	C	-0.453726	-0.620340	-0.405250
C176	C	0.046274	-0.120340	0.094750
C177	C	-0.477178	-0.649104	-0.357800
C178	C	0.022822	-0.149104	0.142200
O179	O	-0.527953	-0.595924	-0.445573
O180	O	-0.027953	-0.095924	0.054427
O181	O	-0.527971	-0.702325	-0.270019
O182	O	-0.027971	-0.202325	0.229981
C183	C	-0.739907	-0.677938	-0.310401
C184	C	-0.239907	-0.177938	0.189599
C185	C	-0.763368	-0.649198	-0.357856
C186	C	-0.263368	-0.149198	0.142144
C187	C	-0.739913	-0.620441	-0.405300
C188	C	-0.239913	-0.120441	0.094700
C189	C	-0.810286	-0.649210	-0.357861
C190	C	-0.310286	-0.149210	0.142139
C191	C	-0.833740	-0.677967	-0.310416
C192	C	-0.333740	-0.177967	0.189584
C193	C	-0.810277	-0.706710	-0.262966
C194	C	-0.310277	-0.206710	0.237034
C195	C	-0.763362	-0.706695	-0.262956
C196	C	-0.263362	-0.206695	0.237044
C197	C	-0.763377	-0.591698	-0.452751
C198	C	-0.263377	-0.091698	0.047249
C199	C	-0.810292	-0.591716	-0.452756
C200	C	-0.310292	-0.091716	0.047244
C201	C	-0.833747	-0.620472	-0.405311
C202	C	-0.333747	-0.120472	0.094689
C203	C	-0.099507	-0.649235	-0.357868
C204	C	0.400493	-0.149235	0.142132
C205	C	-0.049573	-0.649275	-0.357891
C206	C	0.450427	-0.149275	0.142109
C207	C	-0.216666	-0.649159	-0.551520
C208	C	0.283334	-0.149159	-0.051520
C209	C	-0.216657	-0.649166	-0.634066
C210	C	0.283343	-0.149166	-0.134066
C211	C	-0.216729	0.233681	-0.357831
C212	C	0.283271	0.733681	0.142169
C213	C	-0.216722	0.183746	-0.357814
C214	C	0.283278	0.683746	0.142186
C215	C	-0.246611	-0.619157	-0.833497
C216	C	0.253389	-0.119157	-0.333497
C217	C	-0.257608	-0.660141	-0.882889
C218	C	0.242392	-0.160141	-0.382889
C219	C	-0.216623	-0.649188	-0.785197
C220	C	0.283377	-0.149188	-0.285197
C221	C	-0.205614	-0.608226	-0.882887
C222	C	0.294386	-0.108226	-0.382887
C223	C	-0.216591	-0.649206	-0.931182
C224	C	0.283409	-0.149206	-0.431182
C225	C	-0.227642	-0.690194	-0.833501
C226	C	0.272358	-0.190194	-0.333501
C227	C	-0.175628	-0.638251	-0.833495
C228	C	0.324372	-0.138251	-0.333495
C229	C	-0.186610	-0.679264	-0.882864
C230	C	0.313390	-0.179264	-0.382864
C231	C	-0.216643	-0.649177	-0.701098
C232	C	0.283357	-0.149177	-0.201098
C233	C	-0.216571	-0.649221	-1.015279
C234	C	0.283429	-0.149221	-0.515279
C235	C	-0.216673	-0.649149	-0.164863
C236	C	0.283327	-0.149149	0.335137
C237	C	-0.216555	-0.649229	-0.082317
C238	C	0.283445	-0.149229	0.417683
H239	H	-0.135930	-0.121582	-0.491724
H240	H	0.364070	0.378418	0.008276
C241	C	-0.276893	-0.386282	-0.257874
C242	C	0.223107	0.113718	0.242126
N243	N	-0.300668	-0.366842	-0.218439
N244	N	0.199332	0.133158	0.281561
C245	C	-0.156377	-0.386336	-0.457728
C246	C	0.343623	0.113664	0.042272
N247	N	-0.132606	-0.366919	-0.497159
N248	N	0.367394	0.133081	0.002841
C249	C	-0.193050	-0.561417	-0.912190
C250	C	0.306950	-0.061417	-0.412190
N251	N	-0.183589	-0.526160	-0.934257
N252	N	0.316411	-0.026160	-0.434257
C253	C	-0.836086	-0.738342	-0.210775
C254	C	-0.336086	-0.238342	0.289225
N255	N	-0.855528	-0.762167	-0.171470
N256	N	-0.355528	-0.262167	0.328530
H257	H	-0.472829	-0.596937	-0.443897
H258	H	0.027171	-0.096937	0.056103
C259	C	-0.156369	-0.484866	-0.457721
C260	C	0.343631	0.015134	0.042279
N261	N	-0.132600	-0.504322	-0.497146
N262	N	0.367400	-0.004322	0.002854
C263	C	-0.380993	-0.709441	-0.258128
C264	C	0.119007	-0.209441	0.241872
N265	N	-0.361559	-0.733254	-0.218800
N266	N	0.138441	-0.233254	0.281200
H267	H	-0.960108	-0.597088	-0.443973
H268	H	-0.460108	-0.097088	0.056027
C269	C	-0.695337	-0.560050	-0.504961
C270	C	-0.195337	-0.060050	-0.004961
N271	N	-0.714767	-0.536234	-0.544291
N272	N	-0.214767	-0.036234	-0.044291
H273	H	-0.268676	-0.478096	-0.271468
H274	H	0.231324	0.021904	0.228532
H275	H	-0.297439	-0.121496	-0.223925
H276	H	0.202561	0.378504	0.276075
H277	H	-0.268775	0.179416	-0.271493
H278	H	0.231225	0.679416	0.228507
C279	C	-0.695323	-0.738298	-0.210735
C280	C	-0.195323	-0.238298	0.289265
N281	N	-0.714747	-0.762124	-0.171408
N282	N	-0.214747	-0.262124	0.328592
C283	C	-0.128825	-0.625722	-0.804156
C284	C	0.371175	-0.125722	-0.304156
N285	N	-0.093573	-0.616280	-0.782055
N286	N	0.406427	-0.116280	-0.282055
H287	H	-0.297453	-0.036388	-0.223937
H288	H	0.202547	0.463612	0.276063
C289	C	-0.836094	-0.560094	-0.504967
C290	C	-0.336094	-0.060094	-0.004967
N291	N	-0.855526	-0.536279	-0.544297
N292	N	-0.355526	-0.036279	-0.044297
H293	H	-0.387706	-0.596908	-0.443871
H294	H	0.112294	-0.096908	0.056129
H295	H	-0.744284	-0.568281	-0.491387
H296	H	-0.244284	-0.068281	0.008613
H297	H	-0.272004	-0.593784	-0.811821
H298	H	0.227996	-0.093784	-0.311821
C299	C	-1.051918	-0.709655	-0.258250
C300	C	-0.551918	-0.209655	0.241750
N301	N	-1.071360	-0.733484	-0.218950
N302	N	-0.571360	-0.233484	0.281050
C303	C	-0.127724	-0.170526	-0.505325
C304	C	0.372276	0.329474	-0.005325
N305	N	-0.103952	-0.151110	-0.544757
N306	N	0.396048	0.348890	-0.044757
C307	C	-0.156464	0.186059	-0.457737
C308	C	0.343536	0.686059	0.042263
N309	N	-0.132692	0.205479	-0.497165
N310	N	0.367308	0.705479	0.002835
C311	C	-0.304425	-0.672652	-0.912204
C312	C	0.195575	-0.172652	-0.412204
N313	N	-0.339688	-0.682072	-0.934282
N314	N	0.160312	-0.182072	-0.434282
C315	C	-0.305610	-0.268950	-0.210325
C316	C	0.194390	0.231050	0.289675
N317	N	-0.329387	-0.288368	-0.170903
N318	N	0.170613	0.211632	0.329097
C319	C	-0.240261	-0.737016	-0.804320
C320	C	0.259739	-0.237016	-0.304320
N321	N	-0.249768	-0.772281	-0.782340
N322	N	0.250232	-0.272281	-0.282340
H323	H	-0.161236	-0.704698	-0.904404
H324	H	0.338764	-0.204698	-0.404404
H325	H	-0.268765	0.094292	-0.271487
H326	H	0.231235	0.594292	0.228513
H327	H	-0.164651	0.094251	-0.444150
H328	H	0.335349	0.594251	0.055850
H329	H	-0.135941	-0.036478	-0.491724
H330	H	0.364059	0.463522	0.008276
H331	H	-0.135913	-0.262342	-0.491716
H332	H	0.364087	0.237658	0.008284
C333	C	-0.479508	-0.709481	-0.258148
C334	C	0.020492	-0.209481	0.241852
N335	N	-0.498933	-0.733309	-0.218825
N336	N	0.001067	-0.233309	0.281175
C337	C	-0.305617	-0.170440	-0.210317
C338	C	0.194383	0.329560	0.289683
N339	N	-0.329390	-0.150999	-0.170880
N340	N	0.170610	0.349001	0.329120
H341	H	-0.603516	-0.730053	-0.224284
H342	H	-0.103516	-0.230053	0.275716
C343	C	-0.953389	-0.709625	-0.258221
C344	C	-0.453389	-0.209625	0.241779
N345	N	-0.933956	-0.733443	-0.218899
N346	N	-0.433956	-0.233443	0.281101
C347	C	-1.051920	-0.588895	-0.457537
C348	C	-0.551920	-0.088895	0.042463
N349	N	-1.071352	-0.565077	-0.496860
N350	N	-0.571352	-0.065077	0.003140
H351	H	-0.603526	-0.568243	-0.491383
H352	H	-0.103526	-0.068243	0.008617
H353	H	-0.744263	-0.730099	-0.224311
H354	H	-0.244263	-0.230099	0.275689
