data_functionalizedCrystal
_audit_creation_method	'MofGen! by Chris Wilmer'
_symmetry_space_group_name_H-M	'P1'
_symmetry_Int_Tables_number	1
_symmetry_cell_setting	triclinic
loop_
_symmetry_equiv_pos_as_xyz
  x,y,z
_cell_length_a	17.019284
_cell_length_b	14.971482
_cell_length_c	13.448316
_cell_angle_alpha	89.993798
_cell_angle_beta	86.124009
_cell_angle_gamma	96.498789
loop_
_atom_site_label
_atom_site_type_symbol
_atom_site_fract_x
_atom_site_fract_y
_atom_site_fract_z
O1	O	-0.102786	1.186688	-0.073871
O2	O	0.397214	1.686688	0.426129
O3	O	-0.115100	0.926256	-0.072821
O4	O	0.384900	1.426256	0.427179
O5	O	0.005882	1.063743	-0.083179
O6	O	0.505882	1.563743	0.416821
O7	O	-0.223769	1.049201	-0.063513
O8	O	0.276231	1.549201	0.436487
O9	O	0.005890	1.063726	0.082204
O10	O	0.505890	1.563726	0.582204
O11	O	-0.115093	0.926239	0.092563
O12	O	0.384907	1.426239	0.592563
O13	O	-0.102779	1.186671	0.091512
O14	O	0.397221	1.686671	0.591512
Cu15	Cu	-0.108935	1.056454	0.107138
Cu16	Cu	0.391065	1.556454	0.607138
Cu17	Cu	-0.108944	1.056474	-0.088447
Cu18	Cu	0.391056	1.556474	0.411553
O19	O	-0.223761	1.049184	0.101870
O20	O	0.276239	1.549184	0.601870
C21	C	-0.114546	0.892924	0.009823
C22	C	0.385454	1.392924	0.509823
C23	C	-0.112897	0.793631	0.009680
C24	C	0.387103	1.293631	0.509680
C25	C	-0.112117	0.746979	0.099765
C26	C	0.387883	1.246979	0.599765
C27	C	-0.110555	0.653685	0.099633
C28	C	0.389445	1.153685	0.599633
C29	C	-0.109780	0.607043	0.009414
C30	C	0.390220	1.107043	0.509414
C31	C	-0.110558	0.653702	-0.080678
C32	C	0.389442	1.153702	0.419322
C33	C	-0.112114	0.746996	-0.080545
C34	C	0.387886	1.246996	0.419455
C35	C	-0.107317	0.459248	-0.080949
C36	C	0.392683	0.959248	0.419051
C37	C	-0.105762	0.365948	-0.081082
C38	C	0.394238	0.865948	0.418918
C39	C	-0.105758	0.365937	0.099228
C40	C	0.394242	0.865937	0.599228
C41	C	-0.107314	0.459231	0.099361
C42	C	0.392686	0.959231	0.599361
C43	C	-0.108094	0.505883	0.009269
C44	C	0.391906	1.005883	0.509269
C45	C	-0.253155	1.049742	0.021695
C46	C	0.246845	1.549742	0.521695
C47	C	-0.340726	1.051390	0.029194
C48	C	0.159274	1.551390	0.529194
C49	C	-0.381869	1.052175	-0.057434
C50	C	0.118131	1.552175	0.442566
C51	C	-0.464151	1.053735	-0.050387
C52	C	0.035849	1.553735	0.449613
C53	C	-0.505289	1.054504	0.043288
C54	C	-0.005289	1.554504	0.543288
C55	C	-0.464140	1.053722	0.129922
C56	C	0.035860	1.553722	0.629922
C57	C	-0.381859	1.052169	0.122875
C58	C	0.118141	1.552169	0.622875
C59	C	-0.753723	1.059201	0.069076
C60	C	-0.253723	1.559201	0.569076
C61	C	-0.836010	1.060752	0.076116
C62	C	-0.336010	1.560752	0.576116
C63	C	-0.836014	1.060767	-0.104194
C64	C	-0.336014	1.560767	0.395806
C65	C	-0.753733	1.059208	-0.111233
C66	C	-0.253733	1.559208	0.388767
C67	C	-0.712591	1.058431	-0.024599
C68	C	-0.212591	1.558431	0.475401
C69	C	-0.589394	1.056096	0.050492
C70	C	-0.089394	1.556096	0.550492
C71	C	-0.628486	1.056845	-0.031804
C72	C	-0.128486	1.556845	0.468196
C73	C	0.035276	1.063185	-0.003006
C74	C	0.535276	1.563185	0.496994
C75	C	0.122847	1.061537	-0.010512
C76	C	0.622847	1.561537	0.489488
C77	C	-0.103333	1.220003	0.008866
C78	C	0.396667	1.720003	0.508866
C79	C	-0.104981	1.319296	0.009003
C80	C	0.395019	1.819296	0.509003
N81	N	-0.108928	1.056446	0.244702
N82	N	0.391072	1.556446	0.744702
N83	N	-0.108944	1.056489	-0.226011
N84	N	0.391056	1.556489	0.273989
C85	C	-0.055379	1.117344	0.292158
C86	C	0.444621	1.617344	0.792158
C87	C	-0.055379	1.117349	0.396261
C88	C	0.444621	1.617349	0.896261
C89	C	-0.108931	1.056460	0.452907
C90	C	0.391069	1.556460	0.952907
C91	C	-0.162483	0.995556	0.405444
C92	C	0.337517	1.495556	0.905444
C93	C	-0.162479	0.995547	0.301342
C94	C	0.337521	1.495547	0.801342
C95	C	-0.162488	0.995581	0.622425
C96	C	0.337512	1.495581	1.122425
C97	C	-0.162493	0.995591	0.726533
C98	C	0.337507	1.495591	1.226533
C99	C	-0.055388	1.117383	0.717343
C100	C	0.444612	1.617383	1.217343
C101	C	-0.055384	1.117374	0.613241
C102	C	0.444616	1.617374	1.113241
C103	C	-0.108937	1.056471	0.565786
C104	C	0.391063	1.556471	1.065786
H105	H	-0.112751	0.784978	-0.153901
H106	H	0.387249	1.284978	0.346099
H107	H	-0.869521	1.061400	-0.174727
H108	H	-0.369521	1.561400	0.325273
O109	O	0.002368	1.183051	0.447438
O110	O	0.502368	1.683051	0.947438
H111	H	0.063884	1.171759	0.422193
H112	H	0.563884	1.671759	0.922193
H113	H	-0.869506	1.061352	0.152402
H114	H	-0.369506	1.561352	0.652402
H115	H	-0.622898	1.056721	0.126763
H116	H	-0.122898	1.556721	0.626763
H117	H	-0.720235	1.058570	0.139620
H118	H	-0.220235	1.558570	0.639620
H119	H	-0.109906	0.615707	0.172988
H120	H	0.390094	1.115707	0.672988
O121	O	0.002384	1.183014	0.231061
O122	O	0.502384	1.683014	0.731061
H123	H	0.039626	1.225354	0.281554
H124	H	0.539626	1.725354	0.781554
O125	O	-0.709349	1.058369	-0.212260
O126	O	-0.209349	1.558369	0.287740
H127	H	-0.678851	0.996717	-0.219158
H128	H	-0.178851	1.496717	0.280842
H129	H	-0.348381	1.051540	-0.133714
H130	H	0.151619	1.551540	0.366286
O131	O	-0.220235	0.929902	0.787635
O132	O	0.279765	1.429902	1.287635
H133	H	-0.257461	0.887536	0.737149
H134	H	0.242539	1.387536	1.237149
O135	O	-0.508505	1.054554	0.230962
O136	O	-0.008505	1.554554	0.730962
H137	H	-0.572633	1.055757	0.221311
H138	H	-0.072633	1.555757	0.721311
H139	H	-0.348362	1.051529	0.193417
H140	H	0.151638	1.551529	0.693417
O141	O	-0.220252	0.929887	0.466534
O142	O	0.279748	1.429887	0.966534
H143	H	-0.186991	0.886469	0.511142
H144	H	0.313009	1.386469	1.011142
O145	O	-0.220239	0.929869	0.250150
O146	O	0.279761	1.429869	0.750150
H147	H	-0.257484	0.887536	0.307027
H148	H	0.242516	1.387536	0.807027
O149	O	0.002377	1.183042	0.552138
O150	O	0.502377	1.683042	1.052138
H151	H	0.039621	1.225387	0.602623
H152	H	0.539621	1.725387	1.102623
H153	H	-0.011783	1.166973	0.755987
H154	H	0.488217	1.666973	1.255987
O155	O	-0.112963	0.797284	0.197073
O156	O	0.387037	1.297284	0.697073
H157	H	-0.112154	0.749166	0.259692
H158	H	0.387846	1.249166	0.759692
O159	O	-0.508523	1.054565	-0.143827
O160	O	-0.008523	1.554565	0.356173
H161	H	-0.485750	1.115196	-0.189020
H162	H	0.014250	1.615196	0.310980
H163	H	-0.594987	1.056223	-0.108074
H164	H	-0.094987	1.556223	0.391926
O165	O	-0.108164	0.509527	0.196675
O166	O	0.391836	1.009527	0.696675
H167	H	-0.055155	0.560088	0.196459
H168	H	0.444845	1.060088	0.696459
H169	H	-0.206094	0.945983	0.583790
H170	H	0.293906	1.445983	1.083790
H171	H	-0.105123	0.327949	0.172585
H172	H	0.394877	0.827949	0.672585
H173	H	-0.107952	0.497230	-0.154312
H174	H	0.392048	0.997230	0.345688
O175	O	-0.104917	0.315639	-0.178387
O176	O	0.395083	0.815639	0.321613
H177	H	-0.158935	0.325505	-0.217004
H178	H	0.341065	0.825505	0.282996
O179	O	-0.109718	0.603407	-0.177992
O180	O	0.390282	1.103407	0.322008
H181	H	-0.162737	0.552862	-0.177775
H182	H	0.337263	1.052862	0.322225
