data_functionalizedCrystal
_audit_creation_method	'MofGen! by Chris Wilmer'
_symmetry_space_group_name_H-M	'P1'
_symmetry_Int_Tables_number	1
_symmetry_cell_setting	triclinic
loop_
_symmetry_equiv_pos_as_xyz
  x,y,z
_cell_length_a	12.811438
_cell_length_b	15.944493
_cell_length_c	14.421503
_cell_angle_alpha	89.997092
_cell_angle_beta	95.427519
_cell_angle_gamma	83.761275
loop_
_atom_site_label
_atom_site_type_symbol
_atom_site_fract_x
_atom_site_fract_y
_atom_site_fract_z
O1	O	1.392637	0.113152	0.040030
O2	O	1.892637	0.613152	0.540030
O3	O	1.087054	0.125452	0.014328
O4	O	1.587054	0.625452	0.514328
O5	O	1.248222	-0.002947	0.027876
O6	O	1.748222	0.497053	0.527876
O7	O	1.231469	0.241551	0.026482
O8	O	1.731469	0.741551	0.526482
O9	O	1.248207	-0.002961	0.182098
O10	O	1.748207	0.497039	0.682098
O11	O	1.087039	0.125439	0.168551
O12	O	1.587039	0.625439	0.668551
O13	O	1.392622	0.113138	0.194252
O14	O	1.892622	0.613138	0.694252
Cu15	Cu	1.239830	0.119287	0.195483
Cu16	Cu	1.739830	0.619287	0.695483
Cu17	Cu	1.239847	0.119303	0.013098
Cu18	Cu	1.739847	0.619303	0.513098
O19	O	1.231454	0.241538	0.180705
O20	O	1.731454	0.741538	0.680705
C21	C	1.047943	0.124756	0.088150
C22	C	1.547943	0.624756	0.588150
C23	C	0.931427	0.122691	0.078350
C24	C	1.431427	0.622691	0.578350
C25	C	0.767208	0.119788	-0.019520
C26	C	1.267208	0.619788	0.480480
C27	C	0.876685	0.121728	-0.010319
C28	C	1.376685	0.621728	0.489681
C29	C	0.876684	0.121712	0.157824
C30	C	1.376684	0.621712	0.657824
C31	C	0.767207	0.119773	0.148623
C32	C	1.267207	0.619773	0.648623
C33	C	0.712472	0.118812	0.059949
C34	C	1.212472	0.618812	0.559949
C35	C	0.602992	0.116878	0.050749
C36	C	1.102992	0.616878	0.550749
C37	C	0.602994	0.116857	0.218891
C38	C	1.102994	0.616857	0.718891
C39	C	0.712471	0.118797	0.228091
C40	C	1.212471	0.618797	0.728091
C41	C	1.247530	-0.034251	0.104926
C42	C	1.747530	0.465749	0.604926
C43	C	1.245477	-0.127507	0.104741
C44	C	1.745477	0.372493	0.604741
C45	C	1.340344	-0.362939	0.112738
C46	C	1.840344	0.137061	0.612738
C47	C	1.289193	-0.413677	0.032396
C48	C	1.789193	0.086323	0.532396
C49	C	1.241673	-0.298241	0.104433
C50	C	1.741673	0.201759	0.604433
C51	C	1.289156	-0.413667	0.184445
C52	C	1.789156	0.086333	0.684445
C53	C	1.238007	-0.463163	0.104139
C54	C	1.738007	0.036837	0.604139
C55	C	1.190549	-0.347751	0.024030
C56	C	1.690549	0.152249	0.524030
C57	C	1.190526	-0.347737	0.176149
C58	C	1.690526	0.152263	0.676149
C59	C	1.139302	-0.398442	0.095782
C60	C	1.639302	0.101558	0.595782
C61	C	1.243789	-0.203234	0.104601
C62	C	1.743789	0.296766	0.604601
C63	C	1.235884	-0.558168	0.103964
C64	C	1.735884	-0.058168	0.603964
C65	C	1.431733	0.113834	0.120428
C66	C	1.931733	0.613834	0.620428
C67	C	1.548249	0.115899	0.130223
C68	C	2.048249	0.615899	0.630223
C69	C	1.232146	0.272842	0.103653
C70	C	1.732146	0.772842	0.603653
C71	C	1.234199	0.366097	0.103831
C72	C	1.734199	0.866097	0.603831
N73	N	1.239825	0.119275	0.323764
N74	N	1.739825	0.619275	0.823764
C75	C	1.313791	0.059427	0.641410
C76	C	1.813791	0.559427	1.141410
C77	C	1.334997	0.135172	0.581362
C78	C	1.834997	0.635172	1.081362
C79	C	1.239849	0.119299	0.695655
C80	C	1.739849	0.619299	1.195655
C81	C	1.218680	0.043544	0.571612
C82	C	1.718680	0.543544	1.071612
C83	C	1.239840	0.119283	0.512933
C84	C	1.739840	0.619283	1.012933
C85	C	1.261103	0.195084	0.636972
C86	C	1.761103	0.695084	1.136972
C87	C	1.144744	0.103405	0.627224
C88	C	1.644744	0.603405	1.127224
C89	C	1.165911	0.179206	0.567200
C90	C	1.665911	0.679206	1.067200
C91	C	1.239857	0.119307	0.800917
C92	C	1.739857	0.619307	1.300917
C93	C	1.239832	0.119284	0.407673
C94	C	1.739832	0.619284	0.907673
N95	N	1.239861	0.119309	0.884818
N96	N	1.739861	0.619309	1.384818
H97	H	0.558428	0.116100	-0.021455
H98	H	1.058428	0.616100	0.478545
H99	H	1.376366	0.008858	0.673795
H100	H	1.876366	0.508858	1.173795
H101	H	1.054244	-0.414202	0.088587
H102	H	1.554244	0.085798	0.588587
Br103	Br	0.692917	0.118501	-0.139859
Br104	Br	1.192917	0.618501	0.360141
H105	H	1.330869	-0.442473	-0.028386
H106	H	1.830869	0.057527	0.471614
Br107	Br	0.950968	0.123046	-0.118173
Br108	Br	1.450968	0.623046	0.381827
Br109	Br	1.291101	0.301876	0.684538
Br110	Br	1.791101	0.801876	1.184538
Br111	Br	1.188835	-0.063224	0.523866
Br112	Br	1.688835	0.436776	1.023866
Br113	Br	1.121144	-0.299692	0.277468
Br114	Br	1.621144	0.200308	0.777468
Br115	Br	0.528703	0.115542	0.326747
Br116	Br	1.028703	0.615542	0.826747
Br117	Br	0.786763	0.120100	0.348429
Br118	Br	1.286763	0.620100	0.848429
H119	H	1.064345	0.089938	0.647655
H120	H	1.564345	0.589938	1.147655
Br121	Br	1.469035	0.157566	0.547318
Br122	Br	1.969035	0.657566	1.047318
H123	H	1.148909	-0.319069	-0.043826
H124	H	1.648909	0.180931	0.456174
Br125	Br	1.358629	-0.461657	0.297429
Br126	Br	1.858629	0.038343	0.797429
Br127	Br	1.061678	0.263672	0.513505
Br128	Br	1.561678	0.763672	1.013505
H129	H	0.921270	0.122485	0.230019
H130	H	1.421270	0.622485	0.730019
H131	H	1.425337	-0.347017	0.119810
H132	H	1.925337	0.152983	0.619810
