data_functionalizedCrystal
_audit_creation_method	'MofGen! by Chris Wilmer'
_symmetry_space_group_name_H-M	'P1'
_symmetry_Int_Tables_number	1
_symmetry_cell_setting	triclinic
loop_
_symmetry_equiv_pos_as_xyz
  x,y,z
_cell_length_a	12.759401
_cell_length_b	15.297327
_cell_length_c	12.759393
_cell_angle_alpha	99.641734
_cell_angle_beta	89.981504
_cell_angle_gamma	99.706546
loop_
_atom_site_label
_atom_site_type_symbol
_atom_site_fract_x
_atom_site_fract_y
_atom_site_fract_z
Zn1	Zn	1.533799	-0.359102	-0.666297
Zn2	Zn	2.033799	0.140898	-0.166297
Zn3	Zn	1.503249	-0.509990	-0.521002
Zn4	Zn	2.003249	-0.009990	-0.021002
Zn5	Zn	1.358091	-0.359150	-0.490645
Zn6	Zn	1.858091	0.140850	0.009355
Zn7	Zn	1.327659	-0.509920	-0.696630
Zn8	Zn	1.827659	-0.009920	-0.196630
O9	O	1.430699	-0.434541	-0.593643
O10	O	1.930699	0.065459	-0.093643
O11	O	1.676766	-0.379127	-0.647033
O12	O	2.176766	0.120873	-0.147033
O13	O	1.483944	-0.490029	-0.369964
O14	O	1.983944	0.009971	0.130036
O15	O	1.406921	-0.232898	-0.488547
O16	O	1.906921	0.267102	0.011453
O17	O	1.654320	-0.489984	-0.540286
O18	O	2.154320	0.010016	-0.040286
O19	O	1.536012	-0.232864	-0.617597
O20	O	2.036012	0.267136	-0.117597
O21	O	1.377297	-0.379208	-0.347661
O22	O	1.877297	0.120792	0.152339
O23	O	1.207035	-0.379140	-0.517960
O24	O	1.707035	0.120860	-0.017960
O25	O	1.355053	-0.489865	-0.839617
O26	O	1.855053	0.010135	-0.339617
O27	O	1.184677	-0.489911	-0.669295
O28	O	1.684677	0.010089	-0.169295
O29	O	1.506503	-0.379060	-0.817332
O30	O	2.006503	0.120940	-0.317332
O31	O	1.454435	-0.636226	-0.569698
O32	O	1.954435	-0.136226	-0.069698
O33	O	1.325430	-0.636175	-0.698731
O34	O	1.825430	-0.136175	-0.198731
C35	C	1.157735	-0.434524	-0.593626
C36	C	1.657735	0.065476	-0.093626
C37	C	1.040956	-0.434539	-0.593648
C38	C	1.540956	0.065461	-0.093648
C39	C	0.974461	-0.492309	-0.672355
C40	C	1.474461	0.007691	-0.172355
C41	C	0.864734	-0.492321	-0.672369
C42	C	1.364734	0.007679	-0.172369
C43	C	0.888009	-0.376788	-0.514958
C44	C	1.388009	0.123212	-0.014958
C45	C	0.997734	-0.376773	-0.514949
C46	C	1.497734	0.123227	-0.014949
C47	C	0.961022	-0.559014	-0.763233
C48	C	1.461022	-0.059014	-0.263233
C49	C	0.851295	-0.559025	-0.763247
C50	C	1.351295	-0.059025	-0.263247
C51	C	1.383343	-0.668934	-0.640823
C52	C	1.883343	-0.168934	-0.140823
C53	C	1.363180	-0.769208	-0.661042
C54	C	1.863180	-0.269208	-0.161042
C55	C	1.575241	-1.051846	-0.449495
C56	C	2.075241	-0.551846	0.050505
C57	C	1.594185	-0.957633	-0.430493
C58	C	2.094185	-0.457633	0.069507
C59	C	1.536436	-0.910523	-0.488129
C60	C	2.036436	-0.410523	0.011871
C61	C	1.459739	-0.957634	-0.564769
C62	C	1.959739	-0.457634	-0.064769
C63	C	1.440787	-1.051856	-0.583767
C64	C	1.940787	-0.551856	-0.083767
C65	C	1.401982	-0.910532	-0.622401
C66	C	1.901982	-0.410532	-0.122401
C67	C	1.325285	-0.957643	-0.699042
C68	C	1.825285	-0.457643	-0.199042
C69	C	1.306338	-1.051856	-0.718037
C70	C	1.806338	-0.551856	-0.218037
C71	C	1.364087	-1.098967	-0.660401
C72	C	1.864087	-0.598967	-0.160401
C73	C	1.420933	-0.816310	-0.603403
C74	C	1.920933	-0.316310	-0.103403
C75	C	1.286480	-0.816320	-0.737676
C76	C	1.786480	-0.316320	-0.237676
C77	C	1.267536	-0.910532	-0.756677
C78	C	1.767536	-0.410532	-0.256677
C79	C	1.704729	-0.434558	-0.593662
C80	C	2.204729	0.065442	-0.093662
C81	C	1.821504	-0.434565	-0.593670
C82	C	2.321504	0.065435	-0.093670
C83	C	1.430791	-0.434450	-0.867659
C84	C	1.930791	0.065550	-0.367659
C85	C	1.430831	-0.434411	-0.984427
C86	C	1.930831	0.065589	-0.484427
C87	C	1.478269	-0.199232	-0.546302
C88	C	1.978269	0.300768	-0.046302
C89	C	1.498541	-0.098957	-0.526129
C90	C	1.998541	0.401043	-0.026129
C91	C	1.509701	-0.376709	-1.027686
C92	C	2.009701	0.123291	-0.527686
C93	C	1.509733	-0.376676	-1.137404
C94	C	2.009733	0.123324	-0.637404
C95	C	1.352019	-0.492055	-1.160596
C96	C	1.852019	0.007945	-0.660596
C97	C	1.351984	-0.492083	-1.050879
C98	C	1.851984	0.007917	-0.550879
C99	C	1.600759	-0.310099	-1.014298
C100	C	2.100759	0.189901	-0.514298
C101	C	1.600790	-0.310066	-1.124015
C102	C	2.100790	0.189934	-0.624015
C103	C	1.430681	-0.434566	-0.320681
C104	C	1.930681	0.065434	0.179319
C105	C	1.430897	-0.434351	-0.203862
C106	C	1.930897	0.065649	0.296138
H107	H	0.822330	-0.534085	-0.835577
H108	H	1.322330	-0.034085	-0.335577
H109	H	0.852804	-0.329757	-0.450885
H110	H	1.352804	0.170243	0.049115
H111	H	1.287757	-0.539066	-1.015663
H112	H	1.787757	-0.039066	-0.515663
H113	H	1.287822	-0.539007	-1.214714
H114	H	1.787822	-0.039007	-0.714714
H115	H	0.981651	-0.625349	-0.747307
H116	H	1.481651	-0.125349	-0.247307
H117	H	0.994590	-0.540381	-0.840888
H118	H	1.494590	-0.040381	-0.340888
H119	H	1.672977	-0.335145	-0.985305
H120	H	2.172977	0.164855	-0.485305
H121	H	1.585071	-0.243682	-1.144695
H122	H	2.085071	0.256318	-0.644695
H123	H	1.678385	-0.328779	-1.157562
H124	H	2.178385	0.171221	-0.657562
H125	H	0.807405	-0.628879	-0.755382
H126	H	1.307405	-0.128879	-0.255382
H127	H	1.551863	-0.833810	-0.472652
H128	H	2.051863	-0.333810	0.027348
H129	H	1.483380	-0.777960	-0.541002
H130	H	1.983380	-0.277960	-0.041002
H131	H	1.656629	-0.919279	-0.368092
H132	H	2.156629	-0.419279	0.131908
H133	H	1.593087	-0.240232	-0.970472
H134	H	2.093087	0.259768	-0.470472
H135	H	1.622246	-1.090213	-0.402570
H136	H	2.122246	-0.590213	0.097430
H137	H	1.051872	-0.329725	-0.450863
H138	H	1.551872	0.170275	0.049137
H139	H	1.243874	-1.090211	-0.780430
H140	H	1.743874	-0.590211	-0.280430
H141	H	1.348670	-1.175683	-0.675871
H142	H	1.848670	-0.675683	-0.175871
H143	H	1.205089	-0.948904	-0.819079
H144	H	1.705089	-0.448904	-0.319079
H145	H	1.239453	-0.777962	-0.784606
H146	H	1.739453	-0.277962	-0.284606
