data_functionalizedCrystal
_audit_creation_method	'MofGen! by Chris Wilmer'
_symmetry_space_group_name_H-M	'P1'
_symmetry_Int_Tables_number	1
_symmetry_cell_setting	triclinic
loop_
_symmetry_equiv_pos_as_xyz
  x,y,z
_cell_length_a	12.759400
_cell_length_b	13.897449
_cell_length_c	12.759393
_cell_angle_alpha	90.023192
_cell_angle_beta	90.031564
_cell_angle_gamma	90.015511
loop_
_atom_site_label
_atom_site_type_symbol
_atom_site_fract_x
_atom_site_fract_y
_atom_site_fract_z
Zn1	Zn	-0.418181	1.474721	0.594113
Zn2	Zn	0.081819	1.974721	1.094113
Zn3	Zn	-0.593900	1.474624	0.418433
Zn4	Zn	-0.093900	1.974624	0.918433
Zn5	Zn	-0.418238	1.313411	0.418438
Zn6	Zn	0.081762	1.813411	0.918438
Zn7	Zn	-0.593821	1.313400	0.594060
Zn8	Zn	-0.093821	1.813400	1.094060
O9	O	-0.506035	1.394039	0.506261
O10	O	-0.006035	1.894039	1.006261
O11	O	-0.441500	1.609690	0.570829
O12	O	0.058500	2.109690	1.070829
O13	O	-0.570655	1.453202	0.271413
O14	O	-0.070655	1.953202	0.771413
O15	O	-0.271210	1.334854	0.441766
O16	O	0.228790	1.834854	0.941766
O17	O	-0.570600	1.609618	0.441757
O18	O	-0.070600	2.109618	0.941757
O19	O	-0.271168	1.453368	0.570833
O20	O	0.228832	1.953368	1.070833
O21	O	-0.441597	1.334760	0.271416
O22	O	0.058403	1.834760	0.771416
O23	O	-0.441520	1.178428	0.441715
O24	O	0.058480	1.678428	0.941715
O25	O	-0.570465	1.334836	0.741088
O26	O	-0.070465	1.834836	1.241088
O27	O	-0.570521	1.178420	0.570743
O28	O	-0.070521	1.678420	1.070743
O29	O	-0.441423	1.453358	0.741127
O30	O	0.058577	1.953358	1.241127
O31	O	-0.740911	1.453192	0.441706
O32	O	-0.240911	1.953192	0.941706
O33	O	-0.740853	1.334742	0.570739
O34	O	-0.240853	1.834742	1.070739
C35	C	-0.506019	1.143425	0.506224
C36	C	-0.006019	1.643425	1.006224
C37	C	-0.506037	1.036211	0.506234
C38	C	-0.006037	1.536211	1.006234
C39	C	-0.506041	0.949141	0.506251
C40	C	-0.006041	1.449141	1.006251
C41	C	-0.506048	0.839908	0.506283
C42	C	-0.006048	1.339908	1.006283
C43	C	-0.779002	1.393982	0.506239
C44	C	-0.279002	1.893982	1.006239
C45	C	-0.895779	1.394045	0.506265
C46	C	-0.395779	1.894045	1.006265
C47	C	-0.950636	1.455791	0.439152
C48	C	-0.450636	1.955791	0.939152
C49	C	-1.060360	1.455850	0.439184
C50	C	-0.560360	1.955850	0.939184
C51	C	-1.060360	1.332410	0.573446
C52	C	-0.560360	1.832410	1.073446
C53	C	-0.950638	1.332356	0.573418
C54	C	-0.450638	1.832356	1.073418
C55	C	-0.950637	1.527055	0.361634
C56	C	-0.450637	2.027055	0.861634
C57	C	-1.060361	1.527115	0.361666
C58	C	-0.560361	2.027115	0.861666
C59	C	-0.232002	1.394123	0.506306
C60	C	0.267998	1.894123	1.006306
C61	C	-0.115225	1.394158	0.506325
C62	C	0.384775	1.894158	1.006325
C63	C	-0.505929	1.394106	0.780295
C64	C	-0.005929	1.894106	1.280295
C65	C	-0.505884	1.394135	0.897071
C66	C	-0.005884	1.894135	1.397071
C67	C	-0.506052	1.645632	0.506298
C68	C	-0.006052	2.145632	1.006298
C69	C	-0.506059	1.752846	0.506314
C70	C	-0.006059	2.252846	1.006314
C71	C	-0.506065	1.394027	0.233294
C72	C	-0.006065	1.894027	0.733294
C73	C	-0.505814	1.394185	0.116518
C74	C	-0.005814	1.894185	0.616518
C75	C	-0.438685	1.455858	0.951955
C76	C	0.061315	1.955858	1.451955
C77	C	-0.438647	1.455881	1.061679
C78	C	0.061353	1.955881	1.561679
C79	C	-0.573016	1.332456	1.061626
C80	C	-0.073016	1.832456	1.561626
C81	C	-0.573047	1.332429	0.951904
C82	C	-0.073047	1.832429	1.451904
C83	C	-0.361112	1.527120	0.951987
C84	C	0.138888	2.027120	1.451987
C85	C	-0.361074	1.527142	1.061711
C86	C	0.138926	2.027142	1.561711
H87	H	-0.905974	1.282087	0.628076
H88	H	-0.405974	1.782087	1.128076
C89	C	-0.256661	1.490996	1.107717
C90	C	0.243339	1.990996	1.607717
H91	H	-0.260208	1.492220	1.182077
H92	H	0.239792	1.992220	1.682077
H93	H	-0.201208	1.531435	1.084768
H94	H	0.298792	2.031435	1.584768
H95	H	-0.244172	1.427001	1.084703
H96	H	0.255828	1.927001	1.584703
H97	H	-0.627763	1.282165	0.907221
H98	H	-0.127763	1.782165	1.407221
H99	H	-1.094305	1.598088	0.390885
H100	H	-0.594305	2.098088	0.890885
C101	C	-0.904770	1.490942	0.257172
C102	C	-0.404770	1.990942	0.757172
H103	H	-0.960270	1.474902	0.210670
H104	H	-0.460270	1.974902	0.710670
H105	H	-0.862901	1.435594	0.269587
H106	H	-0.362901	1.935594	0.769587
H107	H	-0.862851	1.540064	0.226802
H108	H	-0.362851	2.040064	0.726802
C109	C	-1.120708	1.264553	0.647302
C110	C	-0.620708	1.764553	1.147302
H111	H	-1.193912	1.273424	0.637704
H112	H	-0.693912	1.773424	1.137704
H113	H	-1.102655	1.278625	0.717902
H114	H	-0.602655	1.778625	1.217902
H115	H	-1.102798	1.199738	0.631848
H116	H	-0.602798	1.699738	1.131848
C117	C	-0.910287	1.627936	0.391167
C118	C	-0.410287	2.127936	0.891167
H119	H	-0.835829	1.627895	0.391136
H120	H	-0.335829	2.127895	0.891136
H121	H	-0.935027	1.644605	0.458990
H122	H	-0.435027	2.144605	0.958990
H123	H	-0.935099	1.673541	0.341577
H124	H	-0.435099	2.173541	0.841577
C125	C	-0.646897	1.264592	1.121945
C126	C	-0.146897	1.764592	1.621945
H127	H	-0.637260	1.273451	1.195153
H128	H	-0.137260	1.773451	1.695153
H129	H	-0.631526	1.199782	1.103956
H130	H	-0.131526	1.699782	1.603956
H131	H	-0.717498	1.278691	1.103948
H132	H	-0.217498	1.778691	1.603948
C133	C	-1.100711	1.500145	0.251736
C134	C	-0.600711	2.000145	0.751736
H135	H	-1.042848	1.489003	0.206506
H136	H	-0.542848	1.989003	0.706506
H137	H	-1.142048	1.551303	0.224757
H138	H	-0.642048	2.051303	0.724757
H139	H	-1.142120	1.443470	0.256129
H140	H	-0.642120	1.943470	0.756129
C141	C	-0.251207	1.500107	0.911779
C142	C	0.248793	2.000107	1.411779
H143	H	-0.205986	1.489007	0.969700
H144	H	0.294014	1.989007	1.469700
H145	H	-0.224185	1.551231	0.870431
H146	H	0.275815	2.051231	1.370431
H147	H	-0.255648	1.443400	0.870410
H148	H	0.244352	1.943400	1.370410
C149	C	-0.400500	1.622959	0.906008
C150	C	0.099500	2.122959	1.406008
H151	H	-0.418013	1.665658	0.961458
H152	H	0.081987	2.165658	1.461458
H153	H	-0.460766	1.611469	0.864083
H154	H	0.039234	2.111469	1.364083
H155	H	-0.347006	1.650885	0.864125
H156	H	0.152994	2.150885	1.364125
C157	C	-0.390536	1.628053	1.101956
C158	C	0.109464	2.128053	1.601956
H159	H	-0.402688	1.669536	1.044050
H160	H	0.097312	2.169536	1.544050
H161	H	-0.334845	1.652914	1.143337
H162	H	0.165155	2.152914	1.643337
H163	H	-0.452274	1.623960	1.143299
H164	H	0.047726	2.123960	1.643299
