data_functionalizedCrystal
_audit_creation_method	'MofGen! by Chris Wilmer'
_symmetry_space_group_name_H-M	'P1'
_symmetry_Int_Tables_number	1
_symmetry_cell_setting	triclinic
loop_
_symmetry_equiv_pos_as_xyz
  x,y,z
_cell_length_a	14.519731
_cell_length_b	15.944551
_cell_length_c	13.596369
_cell_angle_alpha	89.993059
_cell_angle_beta	89.994584
_cell_angle_gamma	83.593795
loop_
_atom_site_label
_atom_site_type_symbol
_atom_site_fract_x
_atom_site_fract_y
_atom_site_fract_z
O1	O	1.223664	0.110194	-0.081796
O2	O	1.723664	0.610194	0.418204
O3	O	0.955167	0.123142	-0.081797
O4	O	1.455167	0.623142	0.418203
O5	O	1.096747	-0.005596	-0.081788
O6	O	1.596747	0.494404	0.418212
O7	O	1.082083	0.238932	-0.081805
O8	O	1.582083	0.738932	0.418195
O9	O	1.096733	-0.005602	0.081795
O10	O	1.596733	0.494398	0.581795
O11	O	0.955153	0.123135	0.081785
O12	O	1.455153	0.623135	0.581785
O13	O	1.223650	0.110187	0.081787
O14	O	1.723650	0.610187	0.581787
Zn15	Zn	1.089399	0.116660	0.107759
Zn16	Zn	1.589399	0.616660	0.607759
Zn17	Zn	1.089417	0.116669	-0.107769
Zn18	Zn	1.589417	0.616669	0.392231
O19	O	1.082069	0.238925	0.081777
O20	O	1.582069	0.738925	0.581777
C21	C	0.920801	0.122532	-0.000006
C22	C	1.420801	0.622532	0.499994
C23	C	0.818424	0.120714	-0.000007
C24	C	1.318424	0.620714	0.499993
C25	C	0.735283	0.119237	-0.000010
C26	C	1.235283	0.619237	0.499990
C27	C	0.630977	0.117391	-0.000011
C28	C	1.130977	0.617391	0.499989
C29	C	0.547841	0.115926	-0.000010
C30	C	1.047841	0.615926	0.499990
C31	C	0.443528	0.114080	-0.000012
C32	C	0.943528	0.614080	0.499988
C33	C	1.096131	-0.036894	0.000004
C34	C	1.596131	0.463106	0.500004
C35	C	1.094306	-0.130143	0.000005
C36	C	1.594306	0.369857	0.500005
C37	C	1.002186	-0.345139	-0.000010
C38	C	1.502186	0.154861	0.499990
C39	C	1.044957	-0.406095	0.080647
C40	C	1.544957	0.093905	0.580647
C41	C	1.091005	-0.300874	-0.000003
C42	C	1.591005	0.199126	0.499997
C43	C	1.044991	-0.406072	-0.080633
C44	C	1.544991	0.093928	0.419367
C45	C	1.087809	-0.465791	-0.000015
C46	C	1.587809	0.034209	0.499985
C47	C	1.133800	-0.360601	0.080720
C48	C	1.633800	0.139399	0.580720
C49	C	1.133822	-0.360571	-0.080632
C50	C	1.633822	0.139429	0.419368
C51	C	1.176658	-0.421509	0.000044
C52	C	1.676658	0.078491	0.500044
C53	C	1.092843	-0.205868	0.000004
C54	C	1.592843	0.294132	0.500004
C55	C	1.085977	-0.560795	-0.000015
C56	C	1.585977	-0.060795	0.499985
C57	C	1.258015	0.110797	-0.000006
C58	C	1.758015	0.610797	0.499994
C59	C	1.360392	0.112615	-0.000012
C60	C	1.860392	0.612615	0.499988
C61	C	1.082685	0.270223	-0.000016
C62	C	1.582685	0.770223	0.499984
C63	C	1.084510	0.363472	-0.000023
C64	C	1.584510	0.863472	0.499977
N65	N	1.089393	0.116654	0.254851
N66	N	1.589393	0.616654	0.754851
N67	N	1.089431	0.116669	-0.254861
N68	N	1.589431	0.616669	0.245139
C69	C	1.089416	0.116670	0.656141
C70	C	1.589416	0.616670	1.156141
C71	C	1.089407	0.116668	0.544490
C72	C	1.589407	0.616668	1.044490
C73	C	1.089405	0.116662	0.455500
C74	C	1.589405	0.616662	0.955500
C75	C	1.089395	0.116659	0.343841
C76	C	1.589395	0.616659	0.843841
H77	H	0.928462	-0.311944	0.000070
H78	H	1.428462	0.188056	0.500070
C79	C	1.184533	-0.333286	-0.172750
C80	C	1.684533	0.166714	0.327250
H81	H	1.152890	-0.348674	-0.230005
H82	H	1.652890	0.151326	0.269995
H83	H	1.246165	-0.360487	-0.173330
H84	H	1.746165	0.139513	0.326670
H85	H	1.185807	-0.273851	-0.171757
H86	H	1.685807	0.226149	0.328243
C87	C	1.276333	-0.466161	0.000105
C88	C	1.776333	0.033839	0.500105
H89	H	1.307725	-0.450604	0.057451
H90	H	1.807725	0.049396	0.557451
H91	H	1.308122	-0.449887	-0.056646
H92	H	1.808122	0.050113	0.443354
H93	H	1.274639	-0.525549	-0.000430
H94	H	1.774639	-0.025549	0.499570
C95	C	0.994236	-0.433278	-0.172749
C96	C	1.494236	0.066722	0.327251
H97	H	0.932264	-0.406855	-0.172644
H98	H	1.432264	0.093145	0.327356
H99	H	0.993931	-0.492822	-0.172413
H100	H	1.493931	0.007178	0.327587
H101	H	1.025192	-0.416920	-0.230023
H102	H	1.525192	0.083080	0.269977
C103	C	1.184498	-0.333533	0.172941
C104	C	1.684498	0.166467	0.672941
H105	H	1.204526	-0.381895	0.211406
H106	H	1.704526	0.118105	0.711406
H107	H	1.143560	-0.295561	0.210643
H108	H	1.643560	0.204439	0.710643
H109	H	1.236697	-0.306456	0.153663
H110	H	1.736697	0.193544	0.653663
C111	C	0.994203	-0.433347	0.172760
C112	C	1.494203	0.066653	0.672760
H113	H	0.932224	-0.406940	0.172663
H114	H	1.432224	0.093060	0.672663
H115	H	1.025153	-0.417019	0.230035
H116	H	1.525153	0.082981	0.730035
H117	H	0.993902	-0.492896	0.172395
H118	H	1.493902	0.007104	0.672395
