data_functionalizedCrystal
_audit_creation_method	'MofGen! by Chris Wilmer'
_symmetry_space_group_name_H-M	'P1'
_symmetry_Int_Tables_number	1
_symmetry_cell_setting	triclinic
loop_
_symmetry_equiv_pos_as_xyz
  x,y,z
_cell_length_a	17.699077
_cell_length_b	6.394989
_cell_length_c	16.176319
_cell_angle_alpha	90.003737
_cell_angle_beta	89.993140
_cell_angle_gamma	95.110856
loop_
_atom_site_label
_atom_site_type_symbol
_atom_site_fract_x
_atom_site_fract_y
_atom_site_fract_z
O1	O	1.006776	-0.264072	-0.068730
O2	O	0.786748	-0.298449	-0.068734
O3	O	0.899885	0.022820	-0.068733
O4	O	0.893639	-0.585341	-0.068731
O5	O	0.899869	0.022840	0.068761
O6	O	0.786732	-0.298429	0.068760
O7	O	1.006760	-0.264052	0.068763
Cu8	Cu	0.896745	-0.281238	0.081315
Cu9	Cu	0.896764	-0.281262	-0.081286
O10	O	0.893623	-0.585321	0.068762
C11	C	0.758531	-0.297209	0.000012
C12	C	0.674475	-0.293520	0.000011
C13	C	0.634981	-0.291771	0.074959
C14	C	0.556002	-0.288271	0.074960
C15	C	0.516519	-0.286536	0.000012
C16	C	0.556019	-0.288279	-0.074942
C17	C	0.634996	-0.291764	-0.074942
C18	C	0.237512	-0.274224	-0.074944
C19	C	0.158529	-0.270745	-0.074938
C20	C	0.158518	-0.270731	0.074959
C21	C	0.237496	-0.274215	0.074959
C22	C	0.276989	-0.275947	0.000005
C23	C	0.362626	-0.279738	0.000005
C24	C	0.430883	-0.282760	0.000011
C25	C	1.034978	-0.265292	0.000015
C26	C	1.119034	-0.268981	0.000011
C27	C	0.898642	0.100645	0.000011
C28	C	0.894868	0.336860	0.000010
N29	N	0.896737	-0.281220	0.195681
N30	N	0.896778	-0.281264	-0.195651
C31	C	0.946850	-0.139020	0.238945
C32	C	0.946854	-0.139018	0.325492
C33	C	0.896748	-0.281227	0.368773
C34	C	0.846629	-0.423434	0.325502
C35	C	0.846622	-0.423424	0.238957
C36	C	0.846655	-0.423473	0.674531
C37	C	0.846668	-0.423476	0.761082
C38	C	0.946887	-0.139067	0.761066
C39	C	0.946880	-0.139057	0.674521
C40	C	0.896759	-0.281255	0.631257
C41	C	0.896755	-0.281253	0.537413
C42	C	0.896755	-0.281241	0.462616
H43	H	0.667122	-0.293201	0.135991
H44	H	0.523851	-0.286812	0.135991
C45	C	0.229551	-0.273825	0.223131
C46	C	0.280895	-0.276112	0.157344
H47	H	0.256346	-0.274977	0.273992
H48	H	0.194137	-0.394214	0.220018
H49	H	0.203358	-0.150709	0.220005
H50	H	0.307084	-0.399237	0.160466
H51	H	0.316323	-0.155711	0.160459
C52	C	0.744082	-0.469191	0.577232
C53	C	0.791575	-0.579799	0.626978
H54	H	0.710077	-0.565714	0.547875
H55	H	0.773919	-0.384506	0.539075
H56	H	0.716031	-0.382365	0.611011
H57	H	0.819631	-0.666614	0.593198
H58	H	0.761735	-0.664520	0.665140
H59	H	0.126354	-0.269311	0.135990
C60	C	0.166470	-0.271062	-0.223118
C61	C	0.115127	-0.268819	-0.157328
H62	H	0.139674	-0.269863	-0.273978
H63	H	0.192660	-0.394163	-0.220009
H64	H	0.201887	-0.150658	-0.219992
H65	H	0.079713	-0.389232	-0.160451
H66	H	0.088925	-0.145705	-0.160439
H67	H	0.987684	-0.023264	0.639284
H68	H	0.269658	-0.275627	-0.135976
H69	H	0.523866	-0.286852	-0.135967
H70	H	0.667151	-0.293192	-0.135973
H71	H	0.987655	-0.023226	0.203712
C72	C	1.045939	0.142057	0.316784
C73	C	1.001952	0.017261	0.373049
H74	H	1.079961	0.238525	0.346145
H75	H	1.013726	0.217107	0.283044
H76	H	1.073974	0.055169	0.283012
H77	H	0.973913	0.104148	0.406817
H78	H	1.034170	-0.057795	0.406802
H79	H	0.805814	-0.539215	0.203732
C80	C	0.987893	0.222689	0.787709
C81	C	1.001974	0.017270	0.808624
H82	H	1.021903	0.319196	0.817065
H83	H	0.937175	0.245181	0.801907
H84	H	0.995062	0.243010	0.729970
H85	H	0.994798	-0.003056	0.866362
H86	H	1.052703	-0.005229	0.794431
H87	H	0.805862	-0.539284	0.796320
H88	H	0.805828	-0.539217	0.360747
