data_functionalizedCrystal
_audit_creation_method	'MofGen! by Chris Wilmer'
_symmetry_space_group_name_H-M	'P1'
_symmetry_Int_Tables_number	1
_symmetry_cell_setting	triclinic
loop_
_symmetry_equiv_pos_as_xyz
  x,y,z
_cell_length_a	13.596369
_cell_length_b	16.109301
_cell_length_c	16.109301
_cell_angle_alpha	83.461481
_cell_angle_beta	90.007411
_cell_angle_gamma	90.002607
loop_
_atom_site_label
_atom_site_type_symbol
_atom_site_fract_x
_atom_site_fract_y
_atom_site_fract_z
O1	O	-0.081732	-1.103133	-0.106869
O2	O	-0.081748	-0.861071	-0.120168
O3	O	-0.081730	-0.988751	0.007513
O4	O	-0.081751	-0.975452	-0.234549
O5	O	0.081853	-0.988739	0.007520
O6	O	0.081835	-0.861058	-0.120161
O7	O	0.081851	-1.103120	-0.106862
Zn8	Zn	0.107815	-0.982087	-0.113510
Zn9	Zn	-0.107713	-0.982104	-0.113519
O10	O	0.081832	-0.975439	-0.234542
C11	C	0.000041	-0.830090	-0.119626
C12	C	0.000035	-0.737794	-0.118011
N13	N	0.254907	-0.982082	-0.113504
N14	N	-0.254805	-0.982116	-0.113519
C15	C	0.656198	-0.982103	-0.113520
C16	C	0.544546	-0.982094	-0.113518
C17	C	0.455556	-0.982093	-0.113513
C18	C	0.343897	-0.982083	-0.113510
C19	C	0.000062	-0.988206	0.038491
C20	C	0.000063	-0.986591	0.130786
C21	C	0.000059	-1.134101	-0.107404
C22	C	0.000058	-1.226397	-0.109019
C23	C	0.000041	-0.515522	-0.190018
C24	C	0.000047	-0.428801	-0.188494
C25	C	0.000056	-0.448676	-0.037006
C26	C	0.000057	-0.535394	-0.038530
C27	C	0.000044	-0.568815	-0.115039
C28	C	0.000050	-0.395376	-0.111990
C29	C	0.000057	-0.301350	-0.110337
C30	C	0.000039	-0.662847	-0.116693
C31	C	0.000038	-0.975984	-0.265521
C32	C	0.000030	-0.977600	-0.357816
C33	C	0.000052	-1.058599	0.353059
C34	C	0.000044	-1.057075	0.439779
C35	C	0.000038	-0.905586	0.419905
C36	C	0.000039	-0.907111	0.333186
C37	C	0.000051	-0.983620	0.299766
C38	C	0.000042	-0.980571	0.473205
C39	C	0.000033	-0.978918	0.567231
C40	C	0.000058	-0.985273	0.205734
H41	H	0.000046	-0.385413	-0.249550
H42	H	0.000062	-0.578788	0.022530
C43	C	0.000057	-0.411910	0.047147
H44	H	0.000046	-0.352630	0.037318
H45	H	0.057102	-0.430201	0.078026
H46	H	-0.056995	-0.430209	0.078010
H47	H	0.000030	-0.843295	0.447127
H48	H	0.000060	-1.120897	0.325851
C49	C	0.000052	-1.139552	0.498398
H50	H	0.000066	-1.185333	0.466071
H51	H	-0.056994	-1.142114	0.532634
H52	H	0.057103	-1.142100	0.532646
C53	C	0.000041	-0.824630	0.274560
H54	H	0.000048	-0.778846	0.306882
H55	H	-0.057003	-0.822080	0.240311
H56	H	0.057094	-0.822077	0.240326
C57	C	0.000034	-0.552286	-0.274172
H58	H	0.000026	-0.611566	-0.264344
H59	H	0.057078	-0.533990	-0.305040
H60	H	-0.057019	-0.533992	-0.305045
