data_functionalizedCrystal
_audit_creation_method	'MofGen! by Chris Wilmer'
_symmetry_space_group_name_H-M	'P1'
_symmetry_Int_Tables_number	1
_symmetry_cell_setting	triclinic
loop_
_symmetry_equiv_pos_as_xyz
  x,y,z
_cell_length_a	8.497366
_cell_length_b	19.805407
_cell_length_c	19.805405
_cell_angle_alpha	89.973590
_cell_angle_beta	90.055859
_cell_angle_gamma	89.964621
loop_
_atom_site_label
_atom_site_type_symbol
_atom_site_fract_x
_atom_site_fract_y
_atom_site_fract_z
Zn1	Zn	-0.892013	1.034841	0.269301
Zn2	Zn	-0.628189	1.034725	0.382542
Zn3	Zn	-0.628227	0.921625	0.269373
Zn4	Zn	-0.891908	0.921619	0.382454
O5	O	-0.760084	0.978203	0.325918
O6	O	-0.857044	1.129542	0.284330
O7	O	-0.407431	1.019675	0.367597
O8	O	-0.663278	0.936694	0.174647
O9	O	-0.663214	1.129457	0.367528
O10	O	-0.857081	1.019874	0.174594
O11	O	-0.407459	0.936581	0.284452
O12	O	-0.663177	0.826907	0.284366
O13	O	-1.112685	0.936685	0.367377
O14	O	-0.856902	0.826904	0.367446
O15	O	-1.112762	1.019869	0.284245
O16	O	-0.663112	1.019670	0.477247
O17	O	-0.856866	0.936572	0.477182
C18	C	-0.760033	0.802347	0.325905
C19	C	-0.760049	0.727115	0.325915
C20	C	-0.860758	0.691786	0.369240
C21	C	-0.860781	0.621098	0.369242
C22	C	-0.760084	0.585739	0.325921
C23	C	-0.659370	0.621072	0.282591
C24	C	-0.659357	0.691760	0.282587
C25	C	-0.659422	0.335999	0.282606
C26	C	-0.659440	0.265307	0.282615
C27	C	-0.860846	0.265337	0.369261
C28	C	-0.860833	0.336024	0.369257
C29	C	-0.760125	0.371352	0.325925
C30	C	-0.760105	0.448000	0.325923
C31	C	-0.760096	0.509092	0.325925
C32	C	-0.760008	0.978126	0.501774
C33	C	-0.760028	0.978156	0.577006
C34	C	-0.171565	0.978242	0.325856
C35	C	-0.350208	0.978152	0.325997
C36	C	-0.760136	1.154745	0.325931
C37	C	-0.760158	1.229977	0.325937
C38	C	-0.760195	0.978298	0.149375
C39	C	-0.760243	0.978338	0.074143
C40	C	-0.659246	1.021467	0.612361
C41	C	-0.659281	1.021496	0.683049
C42	C	-0.760091	0.978209	0.718381
C43	C	-0.860884	0.934896	0.683021
C44	C	-0.860856	0.934871	0.612334
C45	C	-0.861001	0.934996	0.968094
C46	C	-0.861018	0.935023	1.038786
C47	C	-0.659426	1.021620	1.038810
C48	C	-0.659398	1.021596	0.968123
C49	C	-0.760196	0.978285	0.932768
C50	C	-0.760159	0.978256	0.856120
C51	C	-0.760121	0.978235	0.795028
H52	H	-0.577440	0.236520	0.247333
N53	N	-0.969373	0.729918	0.415966
H54	H	-0.954083	0.780059	0.409392
H55	H	-0.944613	0.717533	0.464297
H56	H	-0.577357	0.720523	0.247303
N57	N	-0.969382	0.582995	0.415981
H58	H	-1.082147	0.595336	0.405521
H59	H	-0.944506	0.595291	0.464309
N60	N	-0.550509	1.068153	0.574256
H61	H	-0.486674	1.095596	0.607382
H62	H	-0.614785	1.099456	0.544870
H63	H	-0.577408	0.364754	0.247327
H64	H	-0.943071	0.899730	0.939314
N65	N	-0.550581	1.068210	0.721184
H66	H	-0.486707	1.095624	0.688075
H67	H	-0.477532	1.040676	0.750572
H68	H	-0.577304	1.056841	0.939358
H69	H	-0.577388	0.592278	0.247315
H70	H	-0.577357	1.056888	1.067604
H71	H	-0.942825	0.364810	0.404535
H72	H	-0.942972	0.899655	0.711793
H73	H	-0.942853	0.236565	0.404541
N74	N	-0.969749	0.888332	1.076896
H75	H	-1.033602	0.860891	1.043774
H76	H	-1.042817	0.915885	1.106170
N77	N	-0.969553	0.888151	0.574203
H78	H	-0.905361	0.856783	0.544932
H79	H	-1.042693	0.915683	0.544857
