data_functionalizedCrystal
_audit_creation_method	'MofGen! by Chris Wilmer'
_symmetry_space_group_name_H-M	'P1'
_symmetry_Int_Tables_number	1
_symmetry_cell_setting	triclinic
loop_
_symmetry_equiv_pos_as_xyz
  x,y,z
_cell_length_a	19.805407
_cell_length_b	19.120786
_cell_length_c	19.805399
_cell_angle_alpha	92.468930
_cell_angle_beta	90.019573
_cell_angle_gamma	92.465080
loop_
_atom_site_label
_atom_site_type_symbol
_atom_site_fract_x
_atom_site_fract_y
_atom_site_fract_z
Zn1	Zn	1.023244	-0.279646	0.371215
Zn2	Zn	1.018332	-0.397105	0.253195
Zn3	Zn	0.910058	-0.279666	0.258039
Zn4	Zn	0.905197	-0.397068	0.366343
O5	O	0.964208	-0.338371	0.312198
O6	O	1.117309	-0.295235	0.355571
O7	O	1.003948	-0.381550	0.159120
O8	O	0.929162	-0.181373	0.277118
O9	O	1.113700	-0.381532	0.268862
O10	O	1.012320	-0.181359	0.360269
O11	O	0.924399	-0.295268	0.162679
O12	O	0.814697	-0.295232	0.272394
O13	O	0.920877	-0.381468	0.461707
O14	O	0.811125	-0.381487	0.351965
O15	O	1.007606	-0.295199	0.465287
O16	O	0.999234	-0.495390	0.264138
O17	O	0.916114	-0.495363	0.347268
C18	C	0.788352	-0.338358	0.312177
C19	C	0.713120	-0.338369	0.312183
C20	C	0.675931	-0.383350	0.353543
C21	C	0.605242	-0.383351	0.353552
C22	C	0.571744	-0.338374	0.312198
C23	C	0.608938	-0.293389	0.270837
C24	C	0.679625	-0.293385	0.270831
C25	C	0.323864	-0.293404	0.270859
C26	C	0.253172	-0.293414	0.270866
C27	C	0.249481	-0.383371	0.353579
C28	C	0.320169	-0.383366	0.353574
C29	C	0.357356	-0.338378	0.312216
C30	C	0.434005	-0.338377	0.312207
C31	C	0.495097	-0.338379	0.312203
C32	C	0.956632	-0.520862	0.304663
C33	C	0.953453	-0.598933	0.301462
C34	C	0.995223	-0.635543	0.343286
C35	C	0.992234	-0.708898	0.340279
C36	C	0.947477	-0.745642	0.295446
C37	C	0.905703	-0.709027	0.253621
C38	C	0.908689	-0.635673	0.256631
C39	C	0.936292	-0.967128	0.284192
C40	C	0.933310	-1.040487	0.281184
C41	C	1.019840	-1.040353	0.367844
C42	C	1.022826	-0.966997	0.370847
C43	C	0.981049	-0.930389	0.329025
C44	C	0.944422	-0.820624	0.292370
C45	C	0.984101	-0.855409	0.332104
C46	C	1.140750	-0.338385	0.312220
C47	C	1.215982	-0.338391	0.312229
C48	C	0.964247	-0.338327	0.488743
C49	C	0.964264	-0.338308	0.563976
C50	C	0.971831	-0.155168	0.319777
C51	C	0.975080	-0.077097	0.323007
C52	C	0.964209	-0.338365	0.136342
C53	C	0.964331	-0.338186	0.061118
C54	C	1.009425	-0.293386	0.601185
C55	C	1.009433	-0.293365	0.671874
C56	C	0.964283	-0.338271	0.705353
C57	C	0.919117	-0.383196	0.668139
C58	C	0.919107	-0.383212	0.597451
C59	C	0.919158	-0.383131	0.953215
C60	C	0.919173	-0.383112	1.023908
C61	C	1.009484	-0.293283	1.027638
C62	C	1.009474	-0.293300	0.956950
C63	C	0.964306	-0.338221	0.919742
C64	C	0.964297	-0.338242	0.843093
C65	C	0.964294	-0.338255	0.782001
H66	H	0.354134	-0.256778	0.237177
H67	H	1.053852	-1.070167	0.401894
H68	H	0.581658	-0.256765	0.237169
H69	H	0.219194	-0.419999	0.387258
H70	H	0.882326	-0.419786	0.567156
H71	H	0.896860	-1.070402	0.244675
H72	H	0.347439	-0.419993	0.387246
H73	H	1.020540	-0.825490	0.368610
H74	H	1.046242	-0.256735	0.929695
H75	H	1.046194	-0.256820	0.573932
H76	H	0.709904	-0.256753	0.237156
H77	H	0.882353	-0.419757	0.695403
H78	H	1.031672	-0.605630	0.379791
H79	H	1.026252	-0.738703	0.374331
H80	H	0.225899	-0.256784	0.237190
H81	H	0.703200	-0.419977	0.387216
H82	H	0.574966	-0.419979	0.387231
H83	H	1.059270	-0.937082	0.407354
H84	H	0.882404	-0.419682	1.051164
H85	H	0.902277	-0.937327	0.250138
H86	H	0.869258	-0.738950	0.217119
H87	H	0.874675	-0.605866	0.222575
H88	H	0.907983	-0.850549	0.255865
H89	H	1.046209	-0.256786	0.702167
H90	H	1.046260	-0.256704	1.057941
H91	H	0.882389	-0.419719	0.922928
