data_functionalizedCrystal
_audit_creation_method	'MofGen! by Chris Wilmer'
_symmetry_space_group_name_H-M	'P1'
_symmetry_Int_Tables_number	1
_symmetry_cell_setting	triclinic
loop_
_symmetry_equiv_pos_as_xyz
  x,y,z
_cell_length_a	16.109302
_cell_length_b	13.596369
_cell_length_c	16.109301
_cell_angle_alpha	90.001815
_cell_angle_beta	83.461631
_cell_angle_gamma	90.007866
loop_
_atom_site_label
_atom_site_type_symbol
_atom_site_fract_x
_atom_site_fract_y
_atom_site_fract_z
O1	O	1.103134	0.081839	0.106865
O2	O	1.603134	0.581839	0.606865
O3	O	0.861072	0.081831	0.120163
O4	O	1.361072	0.581831	0.620163
O5	O	0.988753	0.081825	-0.007517
O6	O	1.488753	0.581825	0.492483
O7	O	0.975453	0.081845	0.234545
O8	O	1.475453	0.581845	0.734545
O9	O	0.988737	-0.081758	-0.007510
O10	O	1.488737	0.418242	0.492490
O11	O	0.861056	-0.081752	0.120170
O12	O	1.361056	0.418248	0.620170
O13	O	1.103118	-0.081744	0.106872
O14	O	1.603118	0.418256	0.606872
Zn15	Zn	0.982085	-0.107720	0.113522
Zn16	Zn	1.482085	0.392280	0.613522
Zn17	Zn	0.982105	0.107807	0.113513
Zn18	Zn	1.482105	0.607807	0.613513
O19	O	0.975438	-0.081738	0.234552
O20	O	1.475438	0.418262	0.734552
C21	C	0.830089	0.000039	0.119628
C22	C	1.330089	0.500039	0.619628
C23	C	0.737794	0.000036	0.118013
C24	C	1.237794	0.500036	0.618013
C25	C	0.525444	-0.089124	0.114281
C26	C	1.025444	0.410876	0.614281
C27	C	0.438724	-0.089121	0.112755
C28	C	0.938724	0.410879	0.612755
C29	C	0.438752	0.089227	0.112751
C30	C	0.938752	0.589227	0.612751
C31	C	0.525471	0.089222	0.114272
C32	C	1.025471	0.589222	0.614272
C33	C	0.568815	0.000044	0.115041
C34	C	1.068815	0.500044	0.615041
C35	C	0.395375	0.000052	0.111994
C36	C	0.895375	0.500052	0.611994
C37	C	0.301350	0.000056	0.110338
C38	C	0.801350	0.500056	0.610338
C39	C	0.662847	0.000039	0.116695
C40	C	1.162847	0.500039	0.616695
N41	N	0.982077	-0.254812	0.113528
N42	N	1.482077	0.245188	0.613528
C43	C	0.982081	-0.343810	0.113530
C44	C	1.482081	0.156190	0.613530
C45	C	0.982089	-0.455461	0.113524
C46	C	1.482089	0.044539	0.613524
C47	C	0.982100	-0.544452	0.113515
C48	C	1.482100	-0.044452	0.613515
C49	C	0.982109	-0.656110	0.113510
C50	C	1.482109	-0.156110	0.613510
C51	C	1.134101	0.000050	0.107407
C52	C	1.634101	0.500050	0.607407
C53	C	1.226396	0.000060	0.109022
C54	C	1.726396	0.500060	0.609022
C55	C	0.988206	0.000033	-0.038488
C56	C	1.488206	0.500033	0.461512
C57	C	0.986591	0.000032	-0.130784
C58	C	1.486591	0.500032	0.369216
N59	N	0.982120	0.254899	0.113500
N60	N	1.482120	0.754899	0.613500
C61	C	1.058599	0.000050	-0.353056
C62	C	1.558599	0.500050	0.146944
C63	C	1.057074	0.000058	-0.439776
C64	C	1.557074	0.500058	0.060224
C65	C	0.905586	0.000049	-0.419902
C66	C	1.405586	0.500049	0.080098
C67	C	0.907111	0.000048	-0.333184
C68	C	1.407111	0.500048	0.166816
C69	C	0.983620	0.000043	-0.299763
C70	C	1.483620	0.500043	0.200237
C71	C	0.980571	0.000052	-0.473202
C72	C	1.480571	0.500052	0.026798
C73	C	0.978918	0.000061	-0.567228
C74	C	1.478918	0.500061	-0.067228
C75	C	0.985273	0.000037	-0.205731
C76	C	1.485273	0.500037	0.294269
C77	C	0.975984	0.000056	0.265523
C78	C	1.475984	0.500056	0.765523
C79	C	0.977599	0.000064	0.357819
C80	C	1.477599	0.500064	0.857819
H81	H	0.560785	0.161838	0.114888
H82	H	1.060785	0.661838	0.614888
H83	H	1.118130	0.000065	-0.483165
H84	H	1.618130	0.500065	0.016835
C85	C	1.148196	0.084146	-0.267055
C86	C	1.648196	0.584146	0.232945
C87	C	1.142693	0.000056	-0.316315
C88	C	1.642693	0.500056	0.183685
H89	H	1.200112	0.084147	-0.244371
H90	H	1.700112	0.584147	0.255629
H91	H	1.144458	0.141180	-0.300472
H92	H	1.644458	0.641180	0.199528
H93	H	1.103755	0.084129	-0.222906
H94	H	1.603755	0.584129	0.277094
H95	H	1.187131	0.000077	-0.360468
H96	H	1.687131	0.500077	0.139532
H97	H	1.146440	-0.056993	-0.282897
H98	H	1.646440	0.443007	0.217103
C99	C	0.835983	0.000034	-0.544012
C100	C	1.335983	0.500034	-0.044012
C101	C	0.821490	0.000040	-0.456642
C102	C	1.321490	0.500040	0.043358
H103	H	0.784064	0.000020	-0.566690
H104	H	1.284064	0.500020	-0.066690
H105	H	0.866850	0.057079	-0.562302
H106	H	1.366850	0.557079	-0.062302
H107	H	0.866854	-0.057011	-0.562298
H108	H	1.366854	0.442989	-0.062298
H109	H	0.790624	0.057090	-0.438356
H110	H	1.290624	0.557090	0.061644
H111	H	0.790610	-0.057011	-0.438345
H112	H	1.290610	0.442989	0.061655
C113	C	0.778459	0.084128	-0.289542
C114	C	1.278459	0.584128	0.210458
C115	C	0.824686	0.000040	-0.274599
C116	C	1.324686	0.500040	0.225401
H117	H	0.727574	0.084121	-0.253378
H118	H	1.227574	0.584121	0.246622
H119	H	0.809835	0.141163	-0.279410
H120	H	1.309835	0.641163	0.220590
H121	H	0.766606	0.084115	-0.345974
H122	H	1.266606	0.584115	0.154026
H123	H	0.836544	0.000057	-0.218168
H124	H	1.336544	0.500057	0.281832
H125	H	0.793303	-0.057010	-0.284725
H126	H	1.293303	0.442990	0.215275
C127	C	0.561492	-0.241133	0.043315
C128	C	1.061492	0.258867	0.543315
C129	C	0.573092	-0.187145	0.115114
C130	C	1.073092	0.312855	0.615114
H131	H	0.590912	-0.301645	0.043826
H132	H	1.090912	0.198355	0.543826
H133	H	0.503645	-0.253889	0.042307
H134	H	1.003645	0.246111	0.542307
H135	H	0.582067	-0.204481	-0.004882
H136	H	1.082067	0.295519	0.495118
H137	H	0.552511	-0.223794	0.163311
H138	H	1.052511	0.276206	0.663311
H139	H	0.630952	-0.174392	0.116130
H140	H	1.130952	0.325608	0.616130
C141	C	0.305783	-0.168306	0.110407
C142	C	0.805783	0.331694	0.610407
C143	C	0.391052	-0.187136	0.111914
C144	C	0.891052	0.312864	0.611914
H145	H	0.276355	-0.228821	0.109880
H146	H	0.776355	0.271179	0.609880
H147	H	0.285221	-0.131676	0.158609
H148	H	0.785221	0.368324	0.658609
H149	H	0.297944	-0.131664	0.061701
H150	H	0.797944	0.368336	0.561701
H151	H	0.398891	-0.223773	0.160624
H152	H	0.898891	0.276227	0.660624
H153	H	0.411619	-0.223782	0.063707
H154	H	0.911619	0.276218	0.563707
C155	C	0.305828	0.168424	0.110428
C156	C	0.805828	0.668424	0.610428
C157	C	0.391104	0.187248	0.111917
C158	C	0.891104	0.687248	0.611917
H159	H	0.276414	0.228941	0.109920
H160	H	0.776414	0.728941	0.609920
H161	H	0.297967	0.131793	0.061727
H162	H	0.797967	0.631793	0.561727
H163	H	0.285266	0.131784	0.158636
H164	H	0.785266	0.631784	0.658636
H165	H	0.411667	0.223882	0.063705
H166	H	0.911667	0.723882	0.563705
H167	H	0.398970	0.223894	0.160623
H168	H	0.898970	0.723894	0.660623
