data_functionalizedCrystal
_audit_creation_method	'MofGen! by Chris Wilmer'
_symmetry_space_group_name_H-M	'P1'
_symmetry_Int_Tables_number	1
_symmetry_cell_setting	triclinic
loop_
_symmetry_equiv_pos_as_xyz
  x,y,z
_cell_length_a	19.805407
_cell_length_b	10.685194
_cell_length_c	10.686551
_cell_angle_alpha	81.584560
_cell_angle_beta	85.597309
_cell_angle_gamma	94.375820
loop_
_atom_site_label
_atom_site_type_symbol
_atom_site_fract_x
_atom_site_fract_y
_atom_site_fract_z
Zn1	Zn	1.044293	-0.450236	-0.679172
Zn2	Zn	1.025430	-0.678847	-0.450630
Zn3	Zn	0.921690	-0.466591	-0.466904
Zn4	Zn	0.921709	-0.662461	-0.662813
O5	O	0.978281	-0.564534	-0.564880
O6	O	1.136509	-0.480575	-0.648891
O7	O	1.003766	-0.664393	-0.275155
O8	O	0.945841	-0.286774	-0.508718
O9	O	1.122650	-0.648534	-0.480982
O10	O	1.035917	-0.274758	-0.664670
O11	O	0.927549	-0.508449	-0.287111
O12	O	0.826975	-0.492560	-0.492856
O13	O	0.945872	-0.620607	-0.842617
O14	O	0.826989	-0.636465	-0.636790
O15	O	1.035935	-0.464686	-0.854636
O16	O	1.003784	-0.854320	-0.465120
O17	O	0.927581	-0.842282	-0.621010
C18	C	0.802423	-0.564510	-0.564814
C19	C	0.727190	-0.564528	-0.564814
C20	C	0.265418	-0.639621	-0.639768
C21	C	0.336105	-0.639621	-0.639742
C22	C	0.371432	-0.564561	-0.564927
C23	C	0.336067	-0.489505	-0.490125
C24	C	0.265380	-0.489513	-0.490145
C25	C	0.621138	-0.489473	-0.490038
C26	C	0.691830	-0.489468	-0.490026
C27	C	0.691863	-0.639581	-0.639635
C28	C	0.621176	-0.639589	-0.639655
C29	C	0.585817	-0.564539	-0.564848
C30	C	0.509169	-0.564542	-0.564876
C31	C	0.448078	-0.564550	-0.564905
C32	C	0.963657	-0.894361	-0.539552
C33	C	0.957465	-1.035459	-0.528759
C34	C	1.154825	-0.564558	-0.564946
C35	C	1.230058	-0.564568	-0.564974
C36	C	0.993010	-0.538994	-0.895973
C37	C	0.999286	-0.528111	-1.037065
C38	C	0.992981	-0.233417	-0.590334
C39	C	0.999245	-0.092314	-0.601181
C40	C	0.963652	-0.589882	-0.235082
C41	C	0.957522	-0.600408	-0.094018
H42	H	0.364892	-0.700740	-0.700643
H43	H	0.916949	-1.094733	-0.458499
O44	O	0.586877	-0.416643	-0.417173
C45	C	0.597290	-0.454004	-0.288508
H46	H	0.646325	-0.503028	-0.282091
H47	H	0.552704	-0.522504	-0.240627
C48	C	0.542432	-0.275849	-0.229189
C49	C	0.602660	-0.336052	-0.221308
H50	H	0.545741	-0.203093	-0.187734
H51	H	0.535414	-0.250680	-0.315872
H52	H	0.505282	-0.332945	-0.189290
H53	H	0.639806	-0.278962	-0.261220
H54	H	0.609684	-0.361209	-0.134629
H55	H	0.236660	-0.700737	-0.700699
H56	H	0.916966	-0.670635	-1.034837
O57	O	0.586961	-0.712621	-0.712360
C58	C	0.633331	-0.778844	-0.778394
H59	H	0.681206	-0.787163	-0.726051
H60	H	0.647211	-0.725066	-0.878435
C61	C	0.541763	-0.902373	-0.850382
C62	C	0.600561	-0.912600	-0.786087
H63	H	0.521548	-0.984878	-0.855134
H64	H	0.510522	-0.857754	-0.805898
H65	H	0.553338	-0.857553	-0.933744
H66	H	0.588984	-0.957406	-0.702723
H67	H	0.631799	-0.957230	-0.830558
O68	O	0.726296	-0.712316	-0.712371
C69	C	0.774039	-0.633828	-0.800023
H70	H	0.786904	-0.540998	-0.762794
H71	H	0.751613	-0.612762	-0.895182
C72	C	0.823307	-0.815959	-0.863236
C73	C	0.839112	-0.701948	-0.817507
H74	H	0.863446	-0.857979	-0.874027
H75	H	0.791140	-0.868839	-0.804188
H76	H	0.804617	-0.798388	-0.942531
H77	H	0.857793	-0.719521	-0.738206
H78	H	0.871283	-0.649072	-0.876543
O79	O	0.726211	-0.416740	-0.417263
C80	C	0.760222	-0.495232	-0.329599
H81	H	0.768535	-0.588058	-0.366830
H82	H	0.728168	-0.516305	-0.234451
C83	C	0.819234	-0.313106	-0.266350
C84	C	0.829449	-0.427112	-0.312083
H85	H	0.861935	-0.271086	-0.255540
H86	H	0.796318	-0.260223	-0.325407
H87	H	0.792520	-0.330683	-0.187065
H88	H	0.856155	-0.409533	-0.391374
H89	H	0.852371	-0.479991	-0.253040
H90	H	0.236591	-0.428393	-0.429244
O91	O	0.370272	-0.416567	-0.417324
C92	C	0.323904	-0.350305	-0.351332
H93	H	0.271012	-0.402645	-0.342882
H94	H	0.322740	-0.250362	-0.405365
C95	C	0.411236	-0.277947	-0.228049
C96	C	0.346274	-0.342237	-0.217661
H97	H	0.425036	-0.272963	-0.145596
H98	H	0.442476	-0.322584	-0.272512
H99	H	0.410258	-0.194667	-0.273081
H100	H	0.347255	-0.425519	-0.172644
H101	H	0.315034	-0.297613	-0.173187
O102	O	1.047557	-1.021431	-0.684903
C103	C	1.043189	-0.891606	-0.677422
H104	H	1.017482	-0.881253	-0.580772
H105	H	1.012090	-0.848204	-0.755490
C106	C	1.146729	-0.835121	-0.813059
C107	C	1.115160	-0.822405	-0.694347
H108	H	1.191123	-0.792432	-0.823504
H109	H	1.149671	-0.922586	-0.818103
H110	H	1.120806	-0.798954	-0.878102
H111	H	1.141078	-0.858585	-0.629306
H112	H	1.112224	-0.734944	-0.689292
H113	H	1.039849	-0.457888	-1.096252
