data_functionalizedCrystal
_audit_creation_method	'MofGen! by Chris Wilmer'
_symmetry_space_group_name_H-M	'P1'
_symmetry_Int_Tables_number	1
_symmetry_cell_setting	triclinic
loop_
_symmetry_equiv_pos_as_xyz
  x,y,z
_cell_length_a	14.519709
_cell_length_b	11.892095
_cell_length_c	12.837942
_cell_angle_alpha	94.302569
_cell_angle_beta	89.254543
_cell_angle_gamma	86.099364
loop_
_atom_site_label
_atom_site_type_symbol
_atom_site_fract_x
_atom_site_fract_y
_atom_site_fract_z
O1	O	1.240918	-0.093854	0.129302
O2	O	0.973826	-0.093888	0.145304
O3	O	1.101449	-0.093865	-0.013610
O4	O	1.113295	-0.093877	0.288216
O5	O	1.090807	0.094141	-0.000381
O6	O	0.963184	0.094118	0.158534
O7	O	1.230275	0.094152	0.142531
Zn8	Zn	1.095040	0.123985	0.152633
Zn9	Zn	1.109062	-0.123721	0.135203
O10	O	1.102652	0.094129	0.301446
C11	C	0.934081	0.000110	0.151173
C12	C	0.831507	0.000097	0.148937
N13	N	1.085477	0.293037	0.164528
N14	N	1.118632	-0.292773	0.123299
C15	C	0.455897	0.000149	0.140712
C16	C	0.560404	0.000134	0.142996
C17	C	0.643699	0.000122	0.144824
C18	C	0.748212	0.000110	0.147109
C19	C	1.270021	0.000151	0.136663
C20	C	1.372595	0.000157	0.138898
C21	C	1.092127	0.000137	-0.045624
C22	C	1.080193	0.000134	-0.160723
C23	C	1.185172	0.529703	0.040467
C24	C	1.178494	0.648044	0.048789
C25	C	1.065441	0.648061	0.189489
C26	C	1.072118	0.529721	0.181167
C27	C	1.131986	0.470546	0.106655
C28	C	1.138668	0.352203	0.098338
C29	C	1.025610	0.352222	0.239032
C30	C	1.018933	0.470563	0.247355
C31	C	1.223663	0.000129	-0.401416
C32	C	1.212455	0.000125	-0.509563
C33	C	1.046568	0.000116	-0.485166
C34	C	1.057777	0.000119	-0.377019
C35	C	1.146327	0.000127	-0.335148
C36	C	1.157535	0.000139	-0.226999
C37	C	0.991649	0.000121	-0.202605
C38	C	0.980440	0.000118	-0.310752
C39	C	1.111975	0.000124	0.333459
C40	C	1.123910	0.000120	0.448558
H41	H	1.187418	0.304024	0.037669
C42	C	1.321068	0.000144	-0.355355
N43	N	1.394435	0.000154	-0.320663
C44	C	0.949169	0.000118	-0.531244
N45	N	0.875807	0.000127	-0.565950
H46	H	1.221802	0.696207	-0.005108
H47	H	1.233925	0.481522	-0.020197
C48	C	0.999566	0.713174	0.271422
N49	N	0.949943	0.762218	0.333128
H50	H	1.229637	0.000149	-0.192909
C51	C	0.883038	0.000122	-0.356822
N52	N	0.809673	0.000133	-0.391521
C53	C	0.953073	0.535669	0.329307
N54	N	0.903467	0.584705	0.391035
H55	H	0.928675	0.000129	-0.148637
C56	C	0.967102	0.287140	0.311844
N57	N	0.923037	0.238118	0.366685
H58	H	1.275431	0.000123	-0.563515
