data_functionalizedCrystal
_audit_creation_method	'MofGen! by Chris Wilmer'
_symmetry_space_group_name_H-M	'P1'
_symmetry_Int_Tables_number	1
_symmetry_cell_setting	triclinic
loop_
_symmetry_equiv_pos_as_xyz
  x,y,z
_cell_length_a	15.995350
_cell_length_b	11.792241
_cell_length_c	10.868271
_cell_angle_alpha	90.005281
_cell_angle_beta	90.000670
_cell_angle_gamma	83.842895
loop_
_atom_site_label
_atom_site_type_symbol
_atom_site_fract_x
_atom_site_fract_y
_atom_site_fract_z
O1	O	-1.111649	-0.146296	-0.102218
O2	O	-0.611649	0.353704	0.397782
O3	O	-0.867956	-0.164362	-0.102244
O4	O	-0.367956	0.335638	0.397756
O5	O	-0.995716	0.009891	-0.102222
O6	O	-0.495716	0.509891	0.397778
O7	O	-0.983889	-0.320549	-0.102240
O8	O	-0.483889	0.179451	0.397760
O9	O	-0.995706	0.009898	0.102423
O10	O	-0.495706	0.509898	0.602423
O11	O	-0.867946	-0.164355	0.102401
O12	O	-0.367946	0.335645	0.602401
O13	O	-1.111639	-0.146289	0.102426
O14	O	-0.611639	0.353711	0.602426
Zn15	Zn	-0.989790	-0.155321	0.134905
Zn16	Zn	-0.489790	0.344679	0.634905
Zn17	Zn	-0.989804	-0.155330	-0.134723
Zn18	Zn	-0.489804	0.344670	0.365277
O19	O	-0.983878	-0.320542	0.102404
O20	O	-0.483878	0.179458	0.602404
C21	C	-0.836753	-0.163612	0.000075
C22	C	-0.336753	0.336388	0.500075
C23	C	-0.743792	-0.161372	0.000066
C24	C	-0.243792	0.338628	0.500066
C25	C	-1.142842	-0.147040	0.000104
C26	C	-0.642842	0.352960	0.500104
C27	C	-1.235803	-0.149279	0.000106
C28	C	-0.735803	0.350721	0.500106
C29	C	-0.406008	-0.153331	0.000092
C30	C	0.093992	0.346669	0.500092
C31	C	-0.452879	-0.029232	0.000555
C32	C	0.047121	0.470768	0.500555
C33	C	-0.549579	-0.031471	0.000085
C34	C	-0.049579	0.468529	0.500085
C35	C	-0.573587	-0.157320	0.000080
C36	C	-0.073587	0.342680	0.500080
C37	C	-0.532784	-0.218534	-0.116781
C38	C	-0.032784	0.281466	0.383219
C39	C	-0.436134	-0.215416	-0.116870
C40	C	0.063866	0.284584	0.383130
C41	C	-0.435794	-0.217973	0.115849
C42	C	0.064206	0.282027	0.615849
C43	C	-0.532740	-0.217943	0.117385
C44	C	-0.032740	0.282057	0.617385
C45	C	-0.668295	-0.159581	0.000069
C46	C	-0.168295	0.340419	0.500069
C47	C	-0.311300	-0.151074	0.000095
C48	C	0.188700	0.348926	0.500095
C49	C	-0.994968	0.052179	0.000100
C50	C	-0.494968	0.552179	0.500100
C51	C	-0.992745	0.178174	0.000099
C52	C	-0.492745	0.678174	0.500099
C53	C	-0.984627	-0.362830	0.000080
C54	C	-0.484627	0.137170	0.500080
C55	C	-0.986850	-0.488825	0.000073
C56	C	-0.486850	0.011175	0.500073
N57	N	-0.989787	-0.155314	0.318919
N58	N	-0.489787	0.344686	0.818919
C59	C	-0.988655	0.408852	0.000078
C60	C	-0.488655	0.908852	0.500078
C61	C	-0.990927	0.280486	0.000089
C62	C	-0.490927	0.780486	0.500089
N63	N	-0.989814	-0.155328	-0.318737
N64	N	-0.489814	0.344672	0.181263
C65	C	-0.989800	-0.155328	0.569925
C66	C	-0.489800	0.344672	1.069925
C67	C	-0.989790	-0.155324	0.430248
C68	C	-0.489790	0.344676	0.930248
H69	H	-0.577785	0.016646	0.083857
H70	H	-0.077785	0.516646	0.583857
H71	H	-0.404448	-0.309470	0.116635
H72	H	0.095552	0.190530	0.616635
H73	H	-0.404299	-0.306528	-0.122178
H74	H	0.095701	0.193472	0.377822
H75	H	-0.560969	-0.176023	-0.203747
H76	H	-0.060969	0.323977	0.296253
C77	C	-0.355883	-0.243734	0.302701
C78	C	0.144117	0.256266	0.802701
C79	C	-0.407830	-0.163097	0.235374
C80	C	0.092170	0.336903	0.735374
H81	H	-0.338618	-0.209813	0.376464
H82	H	0.161382	0.290187	0.876464
H83	H	-0.385983	-0.306534	0.322305
H84	H	0.114017	0.193466	0.822305
H85	H	-0.307809	-0.269525	0.254998
H86	H	0.192191	0.230475	0.754998
H87	H	-0.455907	-0.137312	0.283073
H88	H	0.044093	0.362688	0.783073
H89	H	-0.377729	-0.100276	0.215773
H90	H	0.122271	0.399724	0.715773
C91	C	-0.522140	0.075238	-0.180912
C92	C	-0.022140	0.575238	0.319088
C93	C	-0.586903	0.033904	-0.113198
C94	C	-0.086903	0.533904	0.386802
H95	H	-0.545183	0.115593	-0.250856
H96	H	-0.045183	0.615593	0.249144
H97	H	-0.493866	0.125031	-0.130856
H98	H	0.006134	0.625031	0.369144
H99	H	-0.483456	0.013117	-0.206965
H100	H	0.016544	0.513117	0.293035
H101	H	-0.625583	0.096027	-0.087137
H102	H	-0.125583	0.596027	0.412863
H103	H	-0.615190	-0.015892	-0.163263
H104	H	-0.115190	0.484108	0.336737
H105	H	-0.417627	-0.170782	-0.204222
H106	H	0.082373	0.329218	0.295778
H107	H	-0.559849	-0.173257	0.203838
H108	H	-0.059849	0.326743	0.703838
C109	C	-0.597369	-0.355970	0.236851
C110	C	-0.097369	0.144030	0.736851
C111	C	-0.554042	-0.341835	0.126909
C112	C	-0.054042	0.158165	0.626909
H113	H	-0.610525	-0.432457	0.242716
H114	H	-0.110525	0.067543	0.742716
H115	H	-0.563130	-0.339489	0.304568
H116	H	-0.063130	0.160511	0.804568
H117	H	-0.647846	-0.305559	0.237818
H118	H	-0.147846	0.194441	0.737818
H119	H	-0.503562	-0.392240	0.125945
H120	H	-0.003562	0.107760	0.625945
H121	H	-0.588282	-0.358329	0.059174
H122	H	-0.088282	0.141671	0.559174
H123	H	-0.434127	0.020377	0.084361
H124	H	0.065873	0.520377	0.584361
H125	H	-0.433065	0.020143	-0.082783
H126	H	0.066935	0.520143	0.417217
C127	C	-0.639609	-0.346514	-0.127846
C128	C	-0.139609	0.153486	0.372154
C129	C	-0.552420	-0.343347	-0.122672
C130	C	-0.052420	0.156653	0.377328
H131	H	-0.651731	-0.423569	-0.131489
H132	H	-0.151731	0.076431	0.368511
H133	H	-0.664856	-0.311117	-0.056512
H134	H	-0.164856	0.188883	0.443488
H135	H	-0.661368	-0.307017	-0.199061
H136	H	-0.161368	0.192983	0.300939
H137	H	-0.530662	-0.382837	-0.051452
H138	H	-0.030662	0.117163	0.448548
H139	H	-0.527164	-0.378760	-0.194014
H140	H	-0.027164	0.121240	0.305986
