data_functionalizedCrystal
_audit_creation_method	'MofGen! by Chris Wilmer'
_symmetry_space_group_name_H-M	'P1'
_symmetry_Int_Tables_number	1
_symmetry_cell_setting	triclinic
loop_
_symmetry_equiv_pos_as_xyz
  x,y,z
_cell_length_a	13.339070
_cell_length_b	11.804365
_cell_length_c	19.288865
_cell_angle_alpha	78.216139
_cell_angle_beta	99.382771
_cell_angle_gamma	105.124870
loop_
_atom_site_label
_atom_site_type_symbol
_atom_site_fract_x
_atom_site_fract_y
_atom_site_fract_z
O1	O	1.361200	0.099123	0.337823
O2	O	1.066879	0.099109	0.292159
O3	O	1.222539	0.099093	0.215520
O4	O	1.205540	0.099139	0.414461
O5	O	1.181560	-0.098959	0.235668
O6	O	1.025899	-0.098943	0.312307
O7	O	1.320221	-0.098928	0.357970
Cu8	Cu	1.169318	-0.117019	0.336978
Cu9	Cu	1.217781	0.117200	0.313151
O10	O	1.164561	-0.098912	0.434609
C11	C	1.008734	0.000081	0.294519
C12	C	0.896536	0.000075	0.271527
N13	N	1.135240	-0.281756	0.353738
C14	C	1.333704	-0.655725	0.256128
C15	C	1.359483	-0.531066	0.243446
C16	C	1.303424	-0.468733	0.271018
C17	C	1.221582	-0.531070	0.311274
C18	C	1.195805	-0.655741	0.323962
C19	C	1.165526	-0.468749	0.338851
C20	C	1.083684	-0.531086	0.379108
C21	C	1.057911	-0.655745	0.391793
C22	C	1.113970	-0.718079	0.364221
C23	C	1.191302	-0.344078	0.326164
C24	C	1.053404	-0.344094	0.393997
C25	C	1.027625	-0.468753	0.406679
C26	C	0.530941	0.000135	0.450301
C27	C	0.636357	0.000145	0.471905
C28	C	0.701407	0.000127	0.421812
C29	C	0.661030	0.000100	0.350112
C30	C	0.555606	0.000100	0.328505
C31	C	0.726072	0.000091	0.300016
C32	C	0.685695	0.000064	0.228316
C33	C	0.580280	0.000063	0.206712
C34	C	0.515231	0.000081	0.256805
C35	C	0.831496	0.000092	0.321623
C36	C	0.856161	0.000056	0.199827
C37	C	0.750745	0.000046	0.178223
C38	C	1.378366	0.000102	0.355610
C39	C	1.490566	0.000117	0.378601
C40	C	1.201501	0.000064	0.199611
C41	C	1.199856	0.000053	0.122188
N42	N	1.251868	0.281937	0.296387
C43	C	1.291193	0.000052	0.095291
C44	C	1.289653	0.000071	0.022541
C45	C	1.196767	0.000067	-0.023306
C46	C	1.105420	0.000075	0.003598
C47	C	1.106965	0.000068	0.076345
C48	C	1.109394	-0.069310	-0.138765
C49	C	1.107851	-0.069311	-0.211510
C50	C	1.192000	0.000093	-0.247685
C51	C	1.277705	0.069482	-0.211102
C52	C	1.279250	0.069475	-0.138354
C53	C	1.195082	0.000075	-0.102190
C54	C	1.281674	0.000114	-0.353465
C55	C	1.280132	0.000140	-0.426217
C56	C	1.095894	0.000132	-0.445159
C57	C	1.097441	0.000118	-0.372409
C58	C	1.190332	0.000103	-0.326565
C59	C	1.185599	0.000120	0.450518
C60	C	1.187245	0.000138	0.527940
H61	H	1.257939	-0.293333	0.293387
H62	H	1.379345	-0.706485	0.233687
F63	F	1.386870	0.000071	-0.006092
F64	F	1.380534	0.000092	-0.304672
F65	F	1.009748	0.000070	0.104972
H66	H	0.960987	-0.519524	0.439457
F67	F	0.461710	0.000171	0.503603
F68	F	1.390062	0.000062	0.144074
H69	H	1.023063	0.000113	-0.350509
F70	F	0.925388	0.000045	0.146510
F71	F	0.537318	0.000068	0.130399
H72	H	1.349033	0.125976	-0.108572
H73	H	1.354513	0.000145	-0.448115
F74	F	0.813600	0.000135	0.444808
H75	H	1.007757	-0.293343	0.416451
H76	H	1.324417	-0.367230	0.260690
F77	F	0.679323	0.000179	0.548210
F78	F	1.006566	0.000079	-0.045198
F79	F	0.403031	0.000067	0.233815
H80	H	1.346228	0.125998	-0.240554
H81	H	0.991278	-0.706501	0.424578
H82	H	1.038062	-0.125804	-0.241291
F83	F	0.707760	0.000019	0.101916
F84	F	0.997038	0.000134	-0.493949
H85	H	0.864359	0.000109	0.380003
H86	H	1.092978	-0.819587	0.374544
F87	F	1.446582	-0.464726	0.200606
F88	F	1.019825	-0.143186	-0.100272
