data_functionalizedCrystal
_audit_creation_method	'MofGen! by Chris Wilmer'
_symmetry_space_group_name_H-M	'P1'
_symmetry_Int_Tables_number	1
_symmetry_cell_setting	triclinic
loop_
_symmetry_equiv_pos_as_xyz
  x,y,z
_cell_length_a	16.109295
_cell_length_b	9.130313
_cell_length_c	16.109301
_cell_angle_alpha	90.002670
_cell_angle_beta	96.539666
_cell_angle_gamma	90.002695
loop_
_atom_site_label
_atom_site_type_symbol
_atom_site_fract_x
_atom_site_fract_y
_atom_site_fract_z
O1	O	-1.103130	0.121704	0.106841
O2	O	-0.603130	0.621704	0.606841
O3	O	-0.861067	0.121730	0.120145
O4	O	-0.361067	0.621730	0.620145
O5	O	-0.988748	0.121701	-0.007538
O6	O	-0.488748	0.621701	0.492462
O7	O	-0.975449	0.121733	0.234524
O8	O	-0.475449	0.621733	0.734524
O9	O	-0.988747	-0.121897	-0.007534
O10	O	-0.488747	0.378103	0.492466
O11	O	-0.861066	-0.121869	0.120149
O12	O	-0.361066	0.378131	0.620149
O13	O	-1.103128	-0.121895	0.106845
O14	O	-0.603128	0.378105	0.606845
Cu15	Cu	-0.982097	-0.144124	0.113497
Cu16	Cu	-0.482097	0.355876	0.613497
Cu17	Cu	-0.982099	0.143959	0.113493
Cu18	Cu	-0.482099	0.643959	0.613493
O19	O	-0.975447	-0.121866	0.234528
O20	O	-0.475447	0.378134	0.734528
C21	C	-0.830092	-0.000067	0.119609
C22	C	-0.330092	0.499933	0.619609
C23	C	-0.737796	-0.000057	0.117996
C24	C	-0.237796	0.499943	0.617996
N25	N	-0.982102	-0.346747	0.113499
N26	N	-0.482102	0.153253	0.613499
C27	C	-0.515523	-0.000064	0.190008
C28	C	-0.015523	0.499936	0.690008
C29	C	-0.428803	-0.000073	0.188486
C30	C	0.071197	0.499927	0.688486
C31	C	-0.448677	-0.000086	0.036996
C32	C	0.051323	0.499914	0.536996
C33	C	-0.535396	-0.000088	0.038520
C34	C	-0.035396	0.499912	0.538520
C35	C	-0.568816	-0.000069	0.115028
C36	C	-0.068816	0.499931	0.615028
C37	C	-0.395377	-0.000077	0.111982
C38	C	0.104623	0.499923	0.611982
C39	C	-0.301351	-0.000086	0.110331
C40	C	0.198649	0.499914	0.610331
C41	C	-0.662849	-0.000062	0.116679
C42	C	-0.162849	0.499938	0.616679
C43	C	-1.038653	-0.423412	0.056980
C44	C	-0.538653	0.076588	0.556980
C45	C	-1.038651	-0.576748	0.056970
C46	C	-0.538651	-0.076748	0.556970
C47	C	-0.925543	-0.576743	0.170006
C48	C	-0.425543	-0.076743	0.670006
C49	C	-0.925542	-0.423409	0.170011
C50	C	-0.425542	0.076591	0.670011
C51	C	-1.095213	-0.346750	0.000469
C52	C	-0.595213	0.153250	0.500469
C53	C	-1.151770	-0.423415	-0.056054
C54	C	-0.651770	0.076585	0.443946
C55	C	-1.151767	-0.576751	-0.056064
C56	C	-0.651767	-0.076751	0.443936
C57	C	-1.095209	-0.653424	0.000449
C58	C	-0.595209	-0.153424	0.500449
C59	C	-0.134104	-0.000093	0.107386
C60	C	0.365896	0.499907	0.607386
C61	C	-0.226397	-0.000088	0.109014
C62	C	0.273603	0.499912	0.609014
C63	C	-0.988209	-0.000099	-0.038511
C64	C	-0.488209	0.499901	0.461489
C65	C	-0.986594	-0.000101	-0.130806
C66	C	-0.486594	0.499899	0.369194
N67	N	-0.982101	0.346582	0.113484
N68	N	-0.482101	0.846582	0.613484
C69	C	-1.058602	-0.000085	-0.353080
C70	C	-0.558602	0.499915	0.146920
C71	C	-1.057078	-0.000073	-0.439800
C72	C	-0.557078	0.499927	0.060200
C73	C	-0.905588	-0.000063	-0.419923
C74	C	-0.405588	0.499937	0.080077
C75	C	-0.907113	-0.000064	-0.333204
C76	C	-0.407113	0.499936	0.166796
C77	C	-0.983622	-0.000083	-0.299785
C78	C	-0.483622	0.499917	0.200215
C79	C	-0.980573	-0.000069	-0.473225
C80	C	-0.480573	0.499931	0.026775
C81	C	-0.978920	-0.000056	-0.567251
C82	C	-0.478920	0.499944	-0.067251
C83	C	-0.985276	-0.000093	-0.205754
C84	C	-0.485276	0.499907	0.294246
C85	C	-0.975987	-0.000063	0.265501
C86	C	-0.475987	0.499937	0.765501
C87	C	-0.977602	-0.000051	0.357796
C88	C	-0.477602	0.499949	0.857796
H89	H	-0.542731	-0.000059	0.252306
H90	H	-0.042731	0.499941	0.752306
C91	C	-0.813736	-0.561342	0.281733
C92	C	-0.313736	-0.061342	0.781733
C93	C	-0.863378	-0.661016	0.232124
C94	C	-0.363378	-0.161016	0.732124
H95	H	-0.775355	-0.613371	0.320079
H96	H	-0.275355	-0.113371	0.820079
H97	H	-0.848329	-0.501544	0.311654
H98	H	-0.348329	-0.001544	0.811654
H99	H	-0.783846	-0.501529	0.247107
H100	H	-0.283846	-0.001529	0.747107
H101	H	-0.893273	-0.720822	0.266749
H102	H	-0.393273	-0.220822	0.766749
H103	H	-0.828781	-0.720839	0.202200
H104	H	-0.328781	-0.220839	0.702200
H105	H	-0.846052	-0.000058	-0.289809
H106	H	-0.346052	0.499942	0.210191
H107	H	-0.843297	-0.000050	-0.447144
H108	H	-0.343297	0.499950	0.052856
H109	H	-1.197812	-0.639170	-0.102093
H110	H	-0.697812	-0.139170	0.397907
C111	C	-0.546338	-0.000084	-0.111380
C112	C	-0.046338	0.499916	0.388620
C113	C	-0.593983	-0.000087	-0.043905
C114	C	-0.093983	0.499913	0.456095
H115	H	-0.582509	-0.000079	-0.162262
H116	H	-0.082509	0.499921	0.337738
H117	H	-0.512105	-0.085026	-0.108827
H118	H	-0.012105	0.414974	0.391173
H119	H	-0.512097	0.084871	-0.108819
H120	H	-0.012097	0.584871	0.391181
H121	H	-0.628220	-0.085049	-0.046463
H122	H	-0.128220	0.414951	0.453537
H123	H	-0.628231	0.084863	-0.046460
H124	H	-0.128231	0.584863	0.453540
C125	C	-1.208188	-0.000067	-0.381441
C126	C	-0.708188	0.499933	0.118559
C127	C	-1.142699	-0.000079	-0.316345
C128	C	-0.642699	0.499921	0.183655
H129	H	-1.260106	-0.000048	-0.358763
H130	H	-0.760106	0.499952	0.141237
H131	H	-1.204448	-0.085012	-0.414851
H132	H	-0.704448	0.414988	0.085149
H133	H	-1.204428	0.084886	-0.414850
H134	H	-0.704428	0.584886	0.085150
H135	H	-1.146455	-0.085037	-0.282940
H136	H	-0.646455	0.414963	0.217060
H137	H	-1.146440	0.084875	-0.282921
H138	H	-0.646440	0.584875	0.217079
C139	C	-1.173543	-0.127117	0.017279
C140	C	-0.673543	0.372883	0.517279
C141	C	-1.095219	-0.178201	0.000474
C142	C	-0.595219	0.321799	0.500474
H143	H	-1.173548	-0.023063	0.017278
H144	H	-0.673548	0.476937	0.517278
H145	H	-1.184887	-0.161808	0.070418
H146	H	-0.684887	0.338192	0.570418
H147	H	-1.215312	-0.161820	-0.024473
H148	H	-0.715312	0.338180	0.475527
H149	H	-1.053451	-0.143507	0.042230
H150	H	-0.553451	0.356493	0.542230
H151	H	-1.083866	-0.143496	-0.052672
H152	H	-0.583866	0.356504	0.447328
H153	H	-1.118133	-0.000071	-0.483190
H154	H	-0.618133	0.499929	0.016810
H155	H	-0.879492	-0.360988	0.216033
H156	H	-0.379492	0.139012	0.716033
H157	H	-0.385414	-0.000071	0.249542
H158	H	0.114586	0.499929	0.749542
C159	C	-0.362686	0.125144	-0.052598
C160	C	0.137314	0.625144	0.447402
C161	C	-0.411938	-0.000087	-0.047099
C162	C	0.088062	0.499913	0.452901
H163	H	-0.340011	0.125149	-0.104519
H164	H	0.159989	0.625149	0.395481
H165	H	-0.318538	0.125137	-0.008166
H166	H	0.181462	0.625137	0.491834
H167	H	-0.396112	0.210079	-0.048852
H168	H	0.103888	0.710079	0.451148
H169	H	-0.378511	-0.085022	-0.050838
H170	H	0.121489	0.414978	0.449162
H171	H	-0.456092	-0.000093	-0.091543
H172	H	0.043908	0.499907	0.408457
H173	H	-1.095206	-0.778281	0.000430
H174	H	-0.595206	-0.278281	0.500430
C175	C	-1.169812	-0.251034	-0.169217
C176	C	-0.669812	0.248966	0.330783
C177	C	-1.213917	-0.339174	-0.118207
C178	C	-0.713917	0.160826	0.381793
H179	H	-1.208176	-0.199035	-0.207595
H180	H	-0.708176	0.300965	0.292405
H181	H	-1.135205	-0.310867	-0.199103
H182	H	-0.635205	0.189133	0.300897
H183	H	-1.136155	-0.183407	-0.135547
H184	H	-0.636155	0.316593	0.364453
H185	H	-1.247570	-0.406809	-0.151878
H186	H	-0.747570	0.093191	0.348122
H187	H	-1.248538	-0.279336	-0.088319
H188	H	-0.748538	0.220664	0.411681
