data_functionalizedCrystal
_audit_creation_method	'MofGen! by Chris Wilmer'
_symmetry_space_group_name_H-M	'P1'
_symmetry_Int_Tables_number	1
_symmetry_cell_setting	triclinic
loop_
_symmetry_equiv_pos_as_xyz
  x,y,z
_cell_length_a	12.837943
_cell_length_b	15.944551
_cell_length_c	11.295657
_cell_angle_alpha	85.409150
_cell_angle_beta	85.838772
_cell_angle_gamma	89.163839
loop_
_atom_site_label
_atom_site_type_symbol
_atom_site_fract_x
_atom_site_fract_y
_atom_site_fract_z
O1	O	1.369243	0.212815	0.099006
O2	O	1.067437	0.202028	0.099013
O3	O	1.226582	0.085806	0.098999
O4	O	1.210098	0.329036	0.099021
O5	O	1.239022	0.096898	-0.099045
O6	O	1.079876	0.213120	-0.099031
O7	O	1.381683	0.223907	-0.099038
Cu8	Cu	1.231915	0.219526	-0.117117
Cu9	Cu	1.217204	0.206408	0.117093
O10	O	1.222537	0.340128	-0.099024
C11	C	1.035035	0.203930	-0.000008
C12	C	0.919957	0.193062	-0.000006
C13	C	1.232118	0.060004	-0.000023
C14	C	1.230066	-0.033406	-0.000024
C15	C	0.679008	0.323714	-0.000011
C16	C	0.570882	0.313507	-0.000010
C17	C	0.595576	0.162440	-0.000011
C18	C	0.703703	0.172648	-0.000012
C19	C	0.745414	0.253287	-0.000011
C20	C	0.853543	0.263494	-0.000003
C21	C	0.878235	0.112428	-0.000013
C22	C	0.770109	0.102221	-0.000011
C23	C	1.126516	-0.256548	-0.000005
C24	C	1.180734	-0.308249	-0.097654
C25	C	1.226354	-0.204430	-0.000015
C26	C	1.168494	-0.319167	0.097602
C27	C	1.222761	-0.369631	-0.000001
C28	C	1.280605	-0.254896	-0.097744
C29	C	1.268345	-0.265814	0.097599
C30	C	1.322637	-0.317490	-0.000073
C31	C	1.228422	-0.109262	-0.000024
C32	C	1.220702	-0.464796	-0.000000
C33	C	1.414084	0.222005	-0.000014
C34	C	1.529161	0.232872	-0.000008
C35	C	1.217001	0.365931	0.000001
C36	C	1.219052	0.459340	0.000010
N37	N	1.242270	0.228753	-0.281848
C38	C	1.132213	0.130705	-0.531196
C39	C	1.140061	0.137684	-0.655855
C40	C	1.265808	0.249694	-0.655829
C41	C	1.257960	0.242715	-0.531170
C42	C	1.191161	0.183217	-0.468857
C43	C	1.183319	0.176234	-0.344196
C44	C	1.309060	0.288248	-0.344171
C45	C	1.316909	0.295227	-0.468831
N46	N	1.206858	0.197176	0.281824
H47	H	0.887502	0.329155	-0.000004
O48	O	0.554980	0.084121	0.000189
C49	C	0.440712	-0.020790	0.102729
C50	C	0.486630	0.067913	0.102668
H51	H	0.385425	-0.033915	0.185562
H52	H	0.506696	-0.069423	0.102805
H53	H	0.395967	-0.024677	0.019804
H54	H	0.531365	0.071882	0.185579
H55	H	0.420601	0.116505	0.102530
H56	H	0.712970	0.389374	-0.000008
O57	O	1.067248	0.072890	-0.470843
C58	C	0.943412	-0.037516	-0.484021
C59	C	1.016924	0.027937	-0.552515
H60	H	0.902721	-0.073890	-0.550023
H61	H	0.882422	-0.004122	-0.425699
H62	H	0.990733	-0.083035	-0.425619
H63	H	0.969690	0.073474	-0.610982
H64	H	1.077916	-0.005513	-0.610762
O65	O	0.506344	0.381905	-0.000215
C66	C	0.376332	0.463769	-0.102770
C67	C	0.449388	0.386289	-0.102700
H68	H	0.330248	0.467328	-0.185607
H69	H	0.424675	0.523187	-0.102845
H70	H	0.319933	0.458117	-0.019848
H71	H	0.505801	0.391858	-0.185607
H72	H	0.400979	0.326901	-0.102562
H73	H	0.736132	0.036567	-0.000026
O74	O	0.942837	0.044063	0.000148
C75	C	1.072741	-0.037858	0.102802
C76	C	0.999651	0.039601	0.102745
H77	H	1.118678	-0.041501	0.185755
H78	H	1.129262	-0.032232	0.019982
H79	H	1.024329	-0.097227	0.102745
H80	H	1.047978	0.099007	0.102844
H81	H	0.943127	0.033900	0.185559
H82	H	1.405583	-0.344011	-0.000130
H83	H	1.043652	-0.229864	-0.000101
H84	H	1.143692	-0.327112	-0.180207
O85	O	1.312334	-0.243322	0.196207
C86	C	1.303009	-0.250659	0.410615
C87	C	1.253082	-0.276175	0.299031
H88	H	1.255138	-0.277224	0.493777
H89	H	1.304797	-0.179123	0.409273
H90	H	1.386111	-0.276789	0.411397
H91	H	1.169961	-0.250102	0.298177
H92	H	1.251377	-0.347715	0.300417
H93	H	1.327988	-0.226902	-0.180389
H94	H	1.371292	0.343671	-0.519583
H95	H	1.121067	-0.347247	0.180162
O96	O	1.118348	0.118423	-0.283847
C97	C	0.994492	0.008033	-0.297036
C98	C	1.068018	0.073480	-0.365524
H99	H	0.953796	-0.028333	-0.363043
H100	H	0.933507	0.041432	-0.238714
H101	H	1.041804	-0.037493	-0.238635
H102	H	1.020793	0.119024	-0.423990
H103	H	1.129004	0.040025	-0.423771
O104	O	1.330827	0.307442	-0.716243
C105	C	1.507694	0.356389	-0.754446
C106	C	1.434175	0.290950	-0.685929
H107	H	1.591268	0.343067	-0.729981
H108	H	1.483131	0.422147	-0.729915
H109	H	1.503110	0.352364	-0.854243
H110	H	1.438721	0.294897	-0.586116
H111	H	1.458760	0.225220	-0.710559
H112	H	1.092057	0.094924	-0.706607
H113	H	1.357062	0.331007	-0.293402
