data_functionalizedCrystal
_audit_creation_method	'MofGen! by Chris Wilmer'
_symmetry_space_group_name_H-M	'P1'
_symmetry_Int_Tables_number	1
_symmetry_cell_setting	triclinic
loop_
_symmetry_equiv_pos_as_xyz
  x,y,z
_cell_length_a	10.654545
_cell_length_b	10.489716
_cell_length_c	9.130313
_cell_angle_alpha	89.999518
_cell_angle_beta	89.996934
_cell_angle_gamma	84.506107
loop_
_atom_site_label
_atom_site_type_symbol
_atom_site_fract_x
_atom_site_fract_y
_atom_site_fract_z
O1	O	1.667911	0.179137	-0.121770
O2	O	1.302438	0.196212	-0.121775
O3	O	1.493507	0.002070	-0.121778
O4	O	1.476843	0.373278	-0.121768
O5	O	1.493494	0.002065	0.121821
O6	O	1.302425	0.196206	0.121824
O7	O	1.667898	0.179131	0.121828
Cu8	Cu	1.485160	0.187668	0.144069
Cu9	Cu	1.485176	0.187675	-0.144015
O10	O	1.476829	0.373273	0.121831
C11	C	1.255633	0.194957	0.000023
C12	C	1.116188	0.191209	0.000021
C13	C	1.050676	0.189442	0.132808
C14	C	0.919655	0.185900	0.132807
C15	C	0.919670	0.185897	-0.132777
C16	C	1.050690	0.189430	-0.132776
C17	C	1.492248	-0.045464	0.000017
C18	C	1.488502	-0.187093	0.000004
C19	C	1.605671	-0.284826	0.000018
C20	C	1.543763	-0.362153	-0.120085
C21	C	1.543723	-0.362122	0.120084
C22	C	1.426643	-0.262555	-0.120200
C23	C	1.426620	-0.262519	0.120078
C24	C	1.364625	-0.339797	-0.000056
C25	C	1.714703	0.180386	0.000027
C26	C	1.854148	0.184134	0.000019
C27	C	1.478088	0.420807	0.000033
C28	C	1.481834	0.562436	0.000037
N29	N	1.485159	0.187663	0.346691
N30	N	1.485188	0.187670	-0.346638
C31	C	1.569793	0.101733	0.423342
C32	C	1.569805	0.101733	0.576679
C33	C	1.400545	0.273604	0.576701
C34	C	1.400527	0.273596	0.423367
H35	H	0.866321	0.184461	0.240936
H36	H	1.707589	-0.260200	-0.000102
O37	O	1.114136	0.191201	-0.261904
C38	C	1.028236	0.188852	-0.379114
H39	H	0.929995	0.226649	-0.340194
H40	H	1.026572	0.086321	-0.419943
C41	C	1.190018	0.227311	-0.552371
C42	C	1.069359	0.273744	-0.504572
H43	H	1.215386	0.279671	-0.629763
H44	H	1.247892	0.228888	-0.473406
H45	H	1.188615	0.141868	-0.586385
H46	H	1.070766	0.359179	-0.470543
H47	H	1.011485	0.272183	-0.583535
O48	O	1.602919	-0.413881	0.241181
C49	C	1.729895	-0.386416	0.240697
H50	H	1.739835	-0.298142	0.170381
H51	H	1.791560	-0.471533	0.193819
C52	C	1.759663	-0.469099	0.484842
C53	C	1.771869	-0.360672	0.398488
H54	H	1.785558	-0.453224	0.582174
H55	H	1.674118	-0.487607	0.485167
H56	H	1.811051	-0.540019	0.445759
H57	H	1.720469	-0.289759	0.437560
H58	H	1.857406	-0.342151	0.398173
O59	O	1.652142	0.018217	0.650909
C60	C	1.726806	-0.057650	0.550347
H61	H	1.728677	-0.005336	0.441043
H62	H	1.685189	-0.152799	0.534050
C63	C	1.859761	-0.146909	0.744412
C64	C	1.862067	-0.082652	0.610167
H65	H	1.943195	-0.162338	0.781313
H66	H	1.809456	-0.095800	0.812165
H67	H	1.825074	-0.226193	0.730813
H68	H	1.896739	-0.003363	0.623771
H69	H	1.912382	-0.133748	0.542418
O70	O	1.367898	-0.210845	-0.241595
C71	C	1.453998	-0.146730	-0.324720
H72	H	1.554321	-0.187467	-0.297483
H73	H	1.441978	-0.040179	-0.297564
C74	C	1.305546	-0.115564	-0.522451
C75	C	1.428765	-0.165606	-0.489007
H76	H	1.289979	-0.127201	-0.623791
H77	H	1.247536	-0.158755	-0.466446
H78	H	1.295544	-0.026775	-0.499810
H79	H	1.438760	-0.254396	-0.511630
H80	H	1.486775	-0.122430	-0.545019
O81	O	1.318293	0.356906	0.651351
C82	C	1.240201	0.287862	0.740045
H83	H	1.289336	0.188516	0.763011
H84	H	1.147298	0.278317	0.680978
C85	C	1.153673	0.481554	0.857492
C86	C	1.214026	0.359539	0.885709
H87	H	1.137521	0.525769	0.947342
H88	H	1.206281	0.528072	0.797734
H89	H	1.076260	0.473582	0.808266
H90	H	1.291443	0.367512	0.934918
H91	H	1.161430	0.313024	0.945479
H92	H	1.104001	0.190890	0.240939
H93	H	0.866325	0.184450	-0.240896
O94	O	1.242973	-0.368958	0.000132
C95	C	1.220581	-0.440177	0.126860
H96	H	1.291878	-0.420288	0.215066
H97	H	1.230641	-0.546673	0.099327
C98	C	0.998655	-0.425409	0.074997
C99	C	1.086216	-0.400972	0.183338
H100	H	0.915771	-0.401231	0.109833
H101	H	1.013740	-0.377432	-0.010386
H102	H	1.007054	-0.514156	0.052063
H103	H	1.077827	-0.312225	0.206257
H104	H	1.071126	-0.448934	0.268726
H105	H	1.593230	-0.405670	-0.221626
H106	H	1.377196	-0.218979	0.221621
H107	H	1.331602	0.343571	0.360954
H108	H	1.638703	0.031759	0.360916
