data_functionalizedCrystal
_audit_creation_method	'MofGen! by Chris Wilmer'
_symmetry_space_group_name_H-M	'P1'
_symmetry_Int_Tables_number	1
_symmetry_cell_setting	triclinic
loop_
_symmetry_equiv_pos_as_xyz
  x,y,z
_cell_length_a	18.050591
_cell_length_b	12.759394
_cell_length_c	12.759387
_cell_angle_alpha	90.026897
_cell_angle_beta	89.972254
_cell_angle_gamma	89.988001
loop_
_atom_site_label
_atom_site_type_symbol
_atom_site_fract_x
_atom_site_fract_y
_atom_site_fract_z
Zn1	Zn	1.135416	0.418311	-0.594236
Zn2	Zn	1.135337	0.594028	-0.418569
Zn3	Zn	1.011218	0.418352	-0.418551
Zn4	Zn	1.011211	0.593937	-0.594186
O5	O	1.073296	0.506157	-0.506385
O6	O	1.239331	0.441640	-0.570962
O7	O	1.118843	0.570779	-0.271545
O8	O	1.027730	0.271326	-0.441870
O9	O	1.239272	0.570739	-0.441900
O10	O	1.118977	0.271295	-0.570945
O11	O	1.027653	0.441711	-0.271532
O12	O	0.907293	0.441624	-0.441821
O13	O	1.027717	0.570585	-0.741214
O14	O	0.907288	0.570625	-0.570859
O15	O	1.118970	0.441553	-0.741251
O16	O	1.118836	0.741037	-0.441851
O17	O	1.027641	0.740970	-0.570876
C18	C	0.880344	0.506120	-0.506333
C19	C	0.797798	0.506129	-0.506335
C20	C	0.548954	0.435906	-0.436330
C21	C	0.598391	0.410307	-0.532209
C22	C	0.500678	0.506183	-0.506421
C23	C	0.598322	0.531706	-0.410506
C24	C	0.646663	0.506154	-0.506374
C25	C	0.549028	0.480535	-0.602351
C26	C	0.548954	0.601978	-0.480583
C27	C	0.598369	0.576416	-0.576528
C28	C	0.416579	0.506197	-0.506447
C29	C	0.730759	0.506140	-0.506359
C30	C	1.073249	0.779124	-0.506383
C31	C	1.073297	0.895901	-0.506417
C32	C	1.168413	1.115340	-0.372218
C33	C	1.215912	1.060476	-0.305082
C34	C	1.215875	0.950755	-0.305055
C35	C	1.168332	0.895895	-0.372170
C36	C	1.120833	0.950759	-0.439307
C37	C	1.120877	1.060483	-0.439328
C38	C	1.025798	0.950765	-0.573553
C39	C	1.025838	1.060487	-0.573586
C40	C	0.978255	0.895905	-0.640668
C41	C	0.930759	0.950769	-0.707811
C42	C	0.930798	1.060497	-0.707836
C43	C	0.978339	1.115351	-0.640722
C44	C	1.267001	0.506195	-0.506439
C45	C	1.349547	0.506211	-0.506462
C46	C	1.073352	0.506054	-0.780419
C47	C	1.073376	0.506010	-0.897196
C48	C	1.073360	1.232123	-0.506423
C49	C	1.073381	1.115347	-0.506471
C50	C	1.168404	0.371658	-0.897254
C51	C	1.215929	0.304466	-0.952145
C52	C	1.215947	0.304427	-1.061866
C53	C	1.168434	0.371586	-1.116700
C54	C	1.120909	0.438778	-1.061810
C55	C	1.120898	0.438811	-0.952086
C56	C	1.025878	0.573123	-1.061752
C57	C	1.025863	0.573169	-0.952030
C58	C	0.978365	0.640282	-1.116586
C59	C	0.930843	0.707481	-1.061696
C60	C	0.930828	0.707517	-0.951967
C61	C	0.978338	0.640361	-0.897140
C62	C	1.073283	0.506184	-0.233418
C63	C	1.073403	0.505932	-0.116642
H64	H	1.168455	1.204681	-0.372242
N65	N	0.978325	0.640374	-0.785063
N66	N	0.962825	0.558423	-0.736105
H67	H	0.962816	0.558425	-0.656948
H68	H	0.527464	0.458841	-0.683469
H69	H	0.892158	0.762150	-1.106350
N70	N	1.168432	0.371551	-1.228778
N71	N	1.110511	0.349561	-1.277724
H72	H	1.110507	0.349539	-1.356880
H73	H	0.978380	0.640242	-1.205927
H74	H	0.527223	0.682980	-0.458713
H75	H	1.254550	0.906084	-0.250383
H76	H	1.254641	0.249707	-1.106558
H77	H	0.892119	0.762222	-0.907282
H78	H	0.527259	0.376442	-0.377150
H79	H	0.620093	0.329279	-0.554063
N80	N	1.264451	0.235868	-0.896117
N81	N	1.264431	0.235907	-0.798151
H82	H	1.298699	0.187458	-0.758583
N83	N	1.168387	0.371721	-0.785177
N84	N	1.183874	0.453701	-0.736204
H85	H	1.183863	0.453746	-0.657048
N86	N	0.625486	0.558834	-0.308782
N87	N	0.665077	0.638354	-0.297166
H88	H	0.684260	0.657508	-0.225322
N89	N	0.625423	0.650917	-0.650979
N90	N	0.665846	0.621375	-0.724877
H91	H	0.684955	0.673978	-0.777471
N92	N	1.264465	1.116531	-0.236528
N93	N	1.264494	1.214496	-0.236556
H94	H	1.298783	1.254083	-0.188138
N95	N	0.978367	1.227428	-0.640729
N96	N	0.920461	1.276469	-0.618690
H97	H	0.920480	1.355626	-0.618689
N98	N	1.168292	0.783817	-0.372116
N99	N	1.210698	0.734845	-0.312159
H100	H	1.210669	0.655689	-0.312120
N101	N	0.978241	0.783828	-0.640633
N102	N	1.036156	0.734801	-0.662661
H103	H	1.036151	0.655645	-0.662638
H104	H	0.892049	0.906095	-0.762447
H105	H	0.892120	1.105161	-0.762507
