data_functionalizedCrystal
_audit_creation_method	'MofGen! by Chris Wilmer'
_symmetry_space_group_name_H-M	'P1'
_symmetry_Int_Tables_number	1
_symmetry_cell_setting	triclinic
loop_
_symmetry_equiv_pos_as_xyz
  x,y,z
_cell_length_a	10.540558
_cell_length_b	15.186229
_cell_length_c	16.109304
_cell_angle_alpha	90.000934
_cell_angle_beta	96.002113
_cell_angle_gamma	89.997942
loop_
_atom_site_label
_atom_site_type_symbol
_atom_site_fract_x
_atom_site_fract_y
_atom_site_fract_z
O1	O	-1.684202	0.073196	0.117239
O2	O	-1.184202	0.573196	0.617239
O3	O	-1.314635	0.073203	0.128262
O4	O	-0.814635	0.573203	0.628262
O5	O	-1.509569	0.073200	0.001782
O6	O	-1.009569	0.573200	0.501782
O7	O	-1.489268	0.073200	0.243719
O8	O	-0.989268	0.573200	0.743719
O9	O	-1.509556	-0.073257	0.001780
O10	O	-1.009556	0.426743	0.501780
O11	O	-1.314622	-0.073254	0.128260
O12	O	-0.814622	0.426746	0.628260
O13	O	-1.684189	-0.073261	0.117237
O14	O	-1.184189	0.426739	0.617237
Zn15	Zn	-1.499404	-0.096511	0.122748
Zn16	Zn	-0.999404	0.403489	0.622748
Zn17	Zn	-1.499421	0.096453	0.122751
Zn18	Zn	-0.999421	0.596453	0.622751
O19	O	-1.489255	-0.073258	0.243717
O20	O	-0.989255	0.426742	0.743717
C21	C	-1.267338	-0.000024	0.127431
C22	C	-0.767338	0.499976	0.627431
C23	C	-1.126426	-0.000021	0.124948
C24	C	-0.626426	0.499979	0.624948
N25	N	-1.499401	-0.228203	0.122746
N26	N	-0.999401	0.271797	0.622746
C27	C	-0.944353	-0.000365	0.030030
C28	C	-0.444353	0.499635	0.530030
C29	C	-1.090934	-0.000024	0.032548
C30	C	-0.590934	0.499976	0.532548
C31	C	-1.064128	0.083609	0.169413
C32	C	-0.564128	0.583609	0.669413
C33	C	-0.917630	0.083669	0.166253
C34	C	-0.417630	0.583669	0.666253
C35	C	-0.917100	-0.082881	0.168131
C36	C	-0.417100	0.417119	0.668131
C37	C	-1.064069	-0.083976	0.168988
C38	C	-0.564069	0.416024	0.668988
C39	C	-1.585747	-0.453928	0.066760
C40	C	-1.085747	0.046072	0.566760
C41	C	-1.585751	-0.546117	0.066758
C42	C	-1.085751	-0.046117	0.566758
C43	C	-1.413078	-0.546123	0.178735
C44	C	-0.913078	-0.046123	0.678735
C45	C	-1.413069	-0.453935	0.178733
C46	C	-0.913069	0.046065	0.678733
C47	C	-1.499411	-0.407840	0.122746
C48	C	-0.999411	0.092160	0.622746
C49	C	-1.499424	-0.592218	0.122747
C50	C	-0.999424	-0.092218	0.622747
C51	C	-1.499427	-0.692174	0.122745
C52	C	-0.999427	-0.192174	0.622745
C53	C	-1.499406	-0.307877	0.122746
C54	C	-0.999406	0.192123	0.622746
C55	C	-0.731489	-0.000033	0.118057
C56	C	-0.231489	0.499967	0.618057
C57	C	-0.872407	-0.000037	0.120507
C58	C	-0.372407	0.499963	0.620507
C59	C	-1.508740	-0.000026	-0.029199
C60	C	-1.008740	0.499974	0.470801
C61	C	-1.506272	-0.000020	-0.121509
C62	C	-1.006272	0.499980	0.378491
N63	N	-1.499433	0.228146	0.122747
N64	N	-0.999433	0.728146	0.622747
C65	C	-1.500579	0.079810	-0.333880
C66	C	-1.000579	0.579810	0.166120
C67	C	-1.498249	0.079810	-0.420615
C68	C	-0.998249	0.579810	0.079385
C69	C	-1.498241	-0.079866	-0.420614
C70	C	-0.998241	0.420134	0.079386
C71	C	-1.500562	-0.079864	-0.333880
C72	C	-1.000562	0.420136	0.166120
C73	C	-1.501738	-0.000024	-0.290516
C74	C	-1.001738	0.499976	0.209484
C75	C	-1.497087	-0.000026	-0.463984
C76	C	-0.997087	0.499974	0.036016
C77	C	-1.494560	-0.000028	-0.558026
C78	C	-0.994560	0.499972	-0.058026
C79	C	-1.504262	-0.000022	-0.196469
C80	C	-1.004262	0.499978	0.303531
C81	C	-1.490085	-0.000029	0.274698
C82	C	-0.990085	0.499971	0.774698
C83	C	-1.492552	-0.000029	0.367008
C84	C	-0.992552	0.499971	0.867008
H85	H	-0.916282	-0.060342	-0.006474
H86	H	-0.416282	0.439658	0.493526
N87	N	-1.501783	0.161370	-0.289598
N88	N	-1.001783	0.661370	0.210402
N89	N	-1.500749	0.232644	-0.328330
N90	N	-1.000749	0.732644	0.171670
H91	H	-1.501598	0.290249	-0.297058
H92	H	-1.001598	0.790249	0.202942
N93	N	-1.673916	-0.593199	0.009557
N94	N	-1.173916	-0.093199	0.509557
N95	N	-1.633652	-0.644632	-0.042310
N96	N	-1.133652	-0.144632	0.457690
H97	H	-1.695915	-0.677882	-0.082717
H98	H	-1.195915	-0.177882	0.417283
H99	H	-1.497287	-0.144870	-0.455932
H100	H	-0.997287	0.355130	0.044068
H101	H	-1.342782	-0.583664	0.224319
H102	H	-0.842782	-0.083664	0.724319
N103	N	-1.501732	-0.161426	-0.289591
N104	N	-1.001732	0.338574	0.210409
N105	N	-1.500689	-0.232705	-0.328317
N106	N	-1.000689	0.267295	0.171683
H107	H	-1.501510	-0.290306	-0.297037
H108	H	-1.001510	0.209694	0.202963
N109	N	-1.324856	-0.406866	0.235924
N110	N	-0.824856	0.093134	0.735924
N111	N	-1.247777	-0.448030	0.285910
N112	N	-0.747777	0.051970	0.785910
H113	H	-1.185475	-0.414788	0.326298
H114	H	-0.685475	0.085212	0.826298
N115	N	-0.878069	-0.162418	0.130631
N116	N	-0.378069	0.337582	0.630631
N117	N	-0.806443	-0.215354	0.172386
N118	N	-0.306443	0.284646	0.672386
H119	H	-0.778878	-0.271525	0.145896
H120	H	-0.278878	0.228475	0.645896
H121	H	-1.497303	0.144818	-0.455918
H122	H	-0.997303	0.644818	0.044082
H123	H	-1.134040	-0.059974	-0.002439
H124	H	-0.634040	0.440026	0.497561
H125	H	-0.914669	0.059277	-0.006318
H126	H	-0.414669	0.559277	0.493682
H127	H	-1.105488	-0.145845	0.136505
H128	H	-0.605488	0.354155	0.636505
H129	H	-0.889894	0.146183	0.133388
H130	H	-0.389894	0.646183	0.633388
N131	N	-1.143930	0.075317	-0.011651
N132	N	-0.643930	0.575317	0.488349
N133	N	-1.072643	0.127814	-0.044449
N134	N	-0.572643	0.627814	0.455551
H135	H	-1.110070	0.181029	-0.075665
H136	H	-0.610070	0.681029	0.424335
H137	H	-1.656050	-0.416399	0.021171
H138	H	-1.156050	0.083601	0.521171
H139	H	-0.868715	0.087464	0.232703
H140	H	-0.368715	0.587464	0.732703
H141	H	-1.085515	0.086721	0.237269
H142	H	-0.585515	0.586721	0.737269
H143	H	-1.107162	0.145850	0.138526
H144	H	-0.607162	0.645850	0.638526
H145	H	-1.087335	-0.089025	0.236354
H146	H	-0.587335	0.410975	0.736354
H147	H	-0.868923	-0.083446	0.234867
H148	H	-0.368923	0.416554	0.734867
