data_functionalizedCrystal
_audit_creation_method	'MofGen! by Chris Wilmer'
_symmetry_space_group_name_H-M	'P1'
_symmetry_Int_Tables_number	1
_symmetry_cell_setting	triclinic
loop_
_symmetry_equiv_pos_as_xyz
  x,y,z
_cell_length_a	8.634740
_cell_length_b	14.044220
_cell_length_c	7.681481
_cell_angle_alpha	83.732834
_cell_angle_beta	96.618947
_cell_angle_gamma	96.879592
loop_
_atom_site_label
_atom_site_type_symbol
_atom_site_fract_x
_atom_site_fract_y
_atom_site_fract_z
O1	O	2.075595	0.320716	-0.146441
O2	O	1.623033	0.294472	-0.146444
O3	O	1.842522	0.168988	-0.146425
O4	O	1.856105	0.446200	-0.146460
O5	O	1.869532	0.153502	0.146435
O6	O	1.650042	0.278986	0.146416
O7	O	2.102605	0.305230	0.146419
Zn8	Zn	1.880612	0.289649	0.192915
Zn9	Zn	1.845025	0.310053	-0.192941
O10	O	1.883115	0.430714	0.146400
C11	C	1.578270	0.280784	-0.000014
C12	C	1.404648	0.263057	-0.000015
C13	C	1.850080	0.125388	0.000005
C14	C	1.832342	0.018542	0.000007
C15	C	1.799909	-0.177080	-0.000018
C16	C	1.925720	-0.223223	-0.000023
C17	C	1.907674	-0.332074	-0.000037
C18	C	1.817952	-0.068220	-0.000004
C19	C	2.147367	0.318919	-0.000015
C20	C	2.320988	0.336646	-0.000026
C21	C	1.875556	0.474315	-0.000035
C22	C	1.893294	0.581161	-0.000048
N23	N	1.904910	0.275725	0.456252
N24	N	1.820738	0.323971	-0.456277
H25	H	1.343443	0.186496	-0.000051
H26	H	1.382197	0.413214	-0.000024
F27	F	2.084222	-0.168008	-0.000008
F28	F	1.641418	-0.232295	-0.000028
F29	F	1.708428	0.388337	0.445427
F30	F	2.017243	0.211366	0.554555
