data_functionalizedCrystal
_audit_creation_method	'MofGen! by Chris Wilmer'
_symmetry_space_group_name_H-M	'P1'
_symmetry_Int_Tables_number	1
_symmetry_cell_setting	triclinic
loop_
_symmetry_equiv_pos_as_xyz
  x,y,z
_cell_length_a	16.109318
_cell_length_b	12.996460
_cell_length_c	16.109301
_cell_angle_alpha	89.998286
_cell_angle_beta	96.534978
_cell_angle_gamma	90.002628
loop_
_atom_site_label
_atom_site_type_symbol
_atom_site_fract_x
_atom_site_fract_y
_atom_site_fract_z
O1	O	1.103126	0.085485	-0.106930
O2	O	1.603126	0.585485	0.393070
O3	O	0.861066	0.085506	-0.120214
O4	O	1.361066	0.585506	0.379786
O5	O	0.988745	0.085484	0.007458
O6	O	1.488745	0.585484	0.507458
O7	O	0.975446	0.085506	-0.234603
O8	O	1.475446	0.585506	0.265397
O9	O	0.988729	-0.085650	0.007451
O10	O	1.488729	0.414350	0.507451
O11	O	0.861049	-0.085628	-0.120222
O12	O	1.361049	0.414372	0.379778
O13	O	1.103109	-0.085649	-0.106937
O14	O	1.603109	0.414351	0.393063
Cu15	Cu	0.982078	-0.101265	-0.113580
Cu16	Cu	1.482078	0.398735	0.386420
Cu17	Cu	0.982097	0.101121	-0.113572
Cu18	Cu	1.482097	0.601121	0.386428
O19	O	0.975430	-0.085628	-0.234610
O20	O	1.475430	0.414372	0.265390
C21	C	0.830083	-0.000059	-0.119677
C22	C	1.330083	0.499941	0.380323
C23	C	0.737788	-0.000051	-0.118057
C24	C	1.237788	0.499949	0.381943
C25	C	0.438723	0.093216	-0.112818
C26	C	0.938723	0.593216	0.387182
C27	C	0.525445	0.093222	-0.114335
C28	C	1.025445	0.593222	0.385665
C29	C	0.525446	-0.093357	-0.114332
C30	C	1.025446	0.406643	0.385668
C31	C	0.438727	-0.093363	-0.112808
C32	C	0.938727	0.406637	0.387192
C33	C	0.395367	-0.000073	-0.112056
C34	C	0.895367	0.499927	0.387944
C35	C	0.568807	-0.000061	-0.115096
C36	C	1.068807	0.499939	0.384904
C37	C	0.662835	-0.000055	-0.116742
C38	C	1.162835	0.499945	0.383258
C39	C	0.301334	-0.000079	-0.110409
C40	C	0.801334	0.499921	0.389591
N41	N	0.982070	-0.243612	-0.113586
N42	N	1.482070	0.256388	0.386414
C43	C	0.982074	-0.336718	-0.113588
C44	C	1.482074	0.163282	0.386412
C45	C	0.982081	-0.453523	-0.113582
C46	C	1.482081	0.046477	0.386418
C47	C	0.982092	-0.546621	-0.113573
C48	C	1.482092	-0.046621	0.386427
C49	C	0.982101	-0.663434	-0.113569
C50	C	1.482101	-0.163434	0.386431
C51	C	1.134092	-0.000083	-0.107474
C52	C	1.634092	0.499917	0.392526
C53	C	1.226387	-0.000084	-0.109095
C54	C	1.726387	0.499916	0.390905
C55	C	0.988198	-0.000083	0.038430
C56	C	1.488198	0.499917	0.538430
C57	C	0.986583	-0.000085	0.130725
C58	C	1.486583	0.499915	0.630725
N59	N	0.982111	0.243468	-0.113559
N60	N	1.482111	0.743468	0.386441
C61	C	0.975976	-0.000058	-0.265581
C62	C	1.475976	0.499942	0.234419
C63	C	0.977592	-0.000050	-0.357877
C64	C	1.477592	0.499950	0.142123
C65	C	1.058590	-0.000075	0.352993
C66	C	1.558590	0.499925	0.852993
C67	C	1.057066	-0.000066	0.439713
C68	C	1.557066	0.499934	0.939713
C69	C	0.905579	-0.000057	0.419848
C70	C	1.405579	0.499943	0.919848
C71	C	0.907104	-0.000058	0.333130
C72	C	1.407104	0.499942	0.833130
C73	C	0.983612	-0.000072	0.299704
C74	C	1.483612	0.499928	0.799704
C75	C	0.980563	-0.000062	0.473144
C76	C	1.480563	0.499938	0.973144
C77	C	0.978910	-0.000053	0.567170
C78	C	1.478910	0.499947	1.067170
C79	C	0.985265	-0.000080	0.205672
C80	C	1.485265	0.499920	0.705672
H81	H	0.403423	0.169178	-0.112204
H82	H	0.903423	0.669178	0.387796
F83	F	1.140017	-0.000089	0.317422
F84	F	1.640017	0.499911	0.817422
F85	F	0.824158	-0.000041	0.455430
F86	F	1.324158	0.499959	0.955430
F87	F	1.136869	-0.000067	0.496424
F88	F	1.636869	0.499933	0.996424
F89	F	0.827297	-0.000048	0.276412
F90	F	1.327297	0.499952	0.776412
F91	F	0.571584	0.192513	-0.115143
F92	F	1.071584	0.692513	0.384857
H93	H	0.560759	-0.169310	-0.114946
H94	H	1.060759	0.330690	0.385054
H95	H	0.403425	-0.169334	-0.112187
H96	H	0.903425	0.330666	0.387813
