data_functionalizedCrystal
_audit_creation_method	'MofGen! by Chris Wilmer'
_symmetry_space_group_name_H-M	'P1'
_symmetry_Int_Tables_number	1
_symmetry_cell_setting	triclinic
loop_
_symmetry_equiv_pos_as_xyz
  x,y,z
_cell_length_a	33.428889
_cell_length_b	33.428139
_cell_length_c	33.424847
_cell_angle_alpha	60.004234
_cell_angle_beta	60.008465
_cell_angle_gamma	59.994972
loop_
_atom_site_label
_atom_site_type_symbol
_atom_site_fract_x
_atom_site_fract_y
_atom_site_fract_z
O1	O	0.055565	-0.584504	0.488714
O2	O	0.555565	-0.084504	0.988714
O3	O	0.020982	-0.455083	0.393778
O4	O	0.520982	0.044917	0.893778
O5	O	0.102943	-0.536959	0.393689
O6	O	0.602943	-0.036959	0.893689
O7	O	-0.026396	-0.502628	0.488803
O8	O	0.473604	-0.002628	0.988803
O9	O	0.130140	-0.509767	0.420792
O10	O	0.630140	-0.009767	0.920792
O11	O	0.048179	-0.427891	0.420881
O12	O	0.548179	0.072109	0.920881
O13	O	0.082762	-0.557312	0.515817
O14	O	0.582762	-0.057312	1.015817
Cu15	Cu	0.067954	-0.490119	0.470823
Cu16	Cu	0.567954	0.009881	0.970823
Cu17	Cu	0.035790	-0.522276	0.438771
Cu18	Cu	0.535790	-0.022276	0.938771
O19	O	0.000801	-0.475436	0.515906
O20	O	0.500801	0.024564	1.015906
N21	N	0.090577	-0.467504	0.493370
N22	N	0.590577	0.032496	0.993370
N23	N	0.013171	-0.544895	0.416225
N24	N	0.513171	-0.044895	0.916225
C25	C	0.143377	-0.280390	0.546067
C26	C	0.643377	0.219610	1.046067
C27	C	0.143515	-0.414755	0.680369
C28	C	0.643515	0.085245	1.180369
C29	C	0.143392	-0.414735	0.546069
C30	C	0.643392	0.085265	1.046069
C31	C	0.277766	-0.414702	0.545966
C32	C	0.777766	0.085298	1.045966
C33	C	0.158177	-0.324719	0.560828
C34	C	0.658177	0.175281	1.060828
C35	C	0.158255	-0.399967	0.636038
C36	C	0.658255	0.100033	1.136038
C37	C	0.233434	-0.399936	0.560773
C38	C	0.733434	0.100064	1.060773
C39	C	0.158186	-0.399955	0.560829
C40	C	0.658186	0.100045	1.060829
C41	C	0.124540	-0.223964	0.527278
C42	C	0.624540	0.276036	1.027278
C43	C	0.124565	-0.433545	0.527281
C44	C	0.624565	0.066455	1.027281
C45	C	0.177014	-0.381145	0.579617
C46	C	0.677014	0.118855	1.079617
C47	C	0.359814	-0.400540	0.502735
C48	C	0.859814	0.099460	1.002735
C49	C	0.411105	-0.417624	0.485606
C50	C	0.911105	0.082376	0.985606
C51	C	0.411136	-0.500620	0.517255
C52	C	0.911136	-0.000620	1.017255
C53	C	0.359845	-0.483534	0.534385
C54	C	0.859845	0.016466	1.034385
C55	C	0.136887	-0.198305	0.476855
C56	C	0.636887	0.301695	0.976855
C57	C	0.119761	-0.147011	0.459777
C58	C	0.619761	0.352989	0.959777
C59	C	0.077945	-0.147038	0.543547
C60	C	0.577945	0.352962	1.043547
C61	C	0.095072	-0.198332	0.560625
C62	C	0.595072	0.301668	1.060625
C63	C	0.074134	-0.421169	0.539710
C64	C	0.574134	0.078831	1.039710
C65	C	0.057023	-0.438269	0.522625
C66	C	0.557023	0.061731	1.022625
C67	C	0.140770	-0.480120	0.480694
C68	C	0.640770	0.019880	0.980694
C69	C	0.157883	-0.463020	0.497773
C70	C	0.657883	0.036980	0.997773
C71	C	0.074339	-0.421208	0.762475
C72	C	0.574339	0.078792	1.262475
C73	C	0.057288	-0.438323	0.813768
C74	C	0.557288	0.061677	1.313768
C75	C	0.141075	-0.480183	0.813699
C76	C	0.641075	0.019817	1.313699
C77	C	0.158125	-0.463069	0.762404
C78	C	0.658125	0.036931	1.262404
C79	C	0.124756	-0.433580	0.736794
C80	C	0.624756	0.066420	1.236794
C81	C	0.334186	-0.433494	0.527123
C82	C	0.834186	0.066506	1.027123
C83	C	-0.173769	-0.597444	0.363037
C84	C	0.326231	-0.097444	0.863037
C85	C	-0.039302	-0.597595	0.228856
C86	C	0.460698	-0.097595	0.728856
C87	C	-0.039496	-0.597587	0.363300
C88	C	0.460504	-0.097587	0.863300
C89	C	-0.039512	-0.731889	0.363237
C90	C	0.460488	-0.231889	0.863237
C91	C	-0.129442	-0.612265	0.348329
C92	C	0.370558	-0.112265	0.848329
C93	C	-0.054138	-0.612351	0.273187
C94	C	0.445862	-0.112351	0.773187
C95	C	-0.054257	-0.687554	0.348440
C96	C	0.445743	-0.187554	0.848440
C97	C	-0.054247	-0.612346	0.348477
C98	C	0.445753	-0.112346	0.848477
C99	C	-0.230191	-0.578579	0.381758
C100	C	0.269809	-0.078579	0.881758
C101	C	-0.020722	-0.578803	0.382168
C102	C	0.479278	-0.078803	0.882168
C103	C	-0.073020	-0.631130	0.329609
C104	C	0.426980	-0.131130	0.829609
C105	C	-0.053713	-0.813916	0.406386
C106	C	0.446287	-0.313916	0.906386
C107	C	-0.036654	-0.865210	0.423504
C108	C	0.463346	-0.365210	0.923504
C109	C	0.046338	-0.865293	0.391984
C110	C	0.546338	-0.365293	0.891984
C111	C	0.029278	-0.813999	0.374865
C112	C	0.529278	-0.313999	0.874865
C113	C	-0.255900	-0.590938	0.432169
C114	C	0.244100	-0.090938	0.932169
C115	C	-0.307191	-0.573786	0.449185
C116	C	0.192809	-0.073786	0.949185
C117	C	-0.307060	-0.531922	0.365377
C118	C	0.192940	-0.031922	0.865377
C119	C	-0.255769	-0.549074	0.348360
C120	C	0.244231	-0.049074	0.848360
C121	C	-0.033081	-0.528377	0.369764
C122	C	0.466919	-0.028377	0.869764
C123	C	-0.016014	-0.511306	0.386922
C124	C	0.483986	-0.011306	0.886922
C125	C	0.025770	-0.595083	0.428877
C126	C	0.525770	-0.095083	0.928877
C127	C	0.008703	-0.612156	0.411725
C128	C	0.508703	-0.112156	0.911725
C129	C	-0.032755	-0.528393	0.146761
C130	C	0.467245	-0.028393	0.646761
C131	C	-0.015585	-0.511324	0.095468
C132	C	0.484415	-0.011324	0.595468
C133	C	0.026262	-0.595106	0.095516
C134	C	0.526262	-0.095106	0.595516
C135	C	0.009094	-0.612174	0.146811
C136	C	0.509094	-0.112174	0.646811
C137	C	-0.020417	-0.578816	0.172432
C138	C	0.479583	-0.078816	0.672432
C139	C	-0.020748	-0.788312	0.382068
C140	C	0.479252	-0.288312	0.882068
N141	N	0.436037	-0.467415	0.493101
N142	N	0.936037	0.032585	0.993101
O143	O	0.592642	-0.471896	0.376066
O144	O	1.092642	0.028104	0.876066
O145	O	0.592838	-0.567146	0.505347
O146	O	1.092838	-0.067146	1.005347
O147	O	0.592754	-0.566928	0.423360
O148	O	1.092754	-0.066928	0.923360
O149	O	0.592727	-0.472113	0.458053
O150	O	1.092727	0.027887	0.958053
O151	O	0.511269	-0.539835	0.450606
O152	O	1.011269	-0.039835	0.950606
O153	O	0.511353	-0.540052	0.532594
O154	O	1.011353	-0.040052	1.032594
O155	O	0.511157	-0.444802	0.403312
O156	O	1.011157	0.055198	0.903312
Cu157	Cu	0.503815	-0.489954	0.470441
Cu158	Cu	1.003815	0.010046	0.970441
Cu159	Cu	0.600180	-0.521995	0.438219
Cu160	Cu	1.100180	-0.021995	0.938219
O161	O	0.511242	-0.445020	0.485300
O162	O	1.011242	0.054980	0.985300
N163	N	0.667959	-0.544533	0.415554
N164	N	1.167959	-0.044533	0.915554
N165	N	0.090544	-0.122107	0.493359
N166	N	0.590544	0.377893	0.993359
O167	O	-0.026406	0.034587	0.488773
O168	O	0.473594	0.534587	0.988773
O169	O	0.102877	0.034627	0.393499
O170	O	0.602877	0.534627	0.893499
O171	O	0.020848	0.034591	0.393771
O172	O	0.520848	0.534591	0.893771
O173	O	0.055623	0.034623	0.488500
O174	O	0.555623	0.534623	0.988500
O175	O	0.048051	-0.046899	0.420925
O176	O	0.548051	0.453101	0.920925
O177	O	0.130080	-0.046864	0.420653
O178	O	0.630080	0.453136	0.920653
O179	O	0.000796	-0.046903	0.515927
O180	O	0.500796	0.453097	1.015927
Cu181	Cu	0.067922	-0.054324	0.470769
Cu182	Cu	0.567922	0.445676	0.970769
Cu183	Cu	0.035752	0.042048	0.438656
Cu184	Cu	0.535752	0.542048	0.938656
O185	O	0.082825	-0.046867	0.515655
O186	O	0.582825	0.453133	1.015655
N187	N	0.013123	0.109830	0.416068
N188	N	0.513123	0.609830	0.916068
N189	N	0.090892	-0.467554	0.838649
N190	N	0.590892	0.032446	1.338649
O191	O	0.086330	-0.584488	0.995334
O192	O	0.586330	-0.084488	1.495334
O193	O	-0.008902	-0.455160	0.995379
O194	O	0.491098	0.044840	1.495379
O195	O	-0.008679	-0.537172	0.995355
O196	O	0.491321	-0.037172	1.495355
O197	O	0.086107	-0.502475	0.995358
O198	O	0.586107	-0.002475	1.495358
O199	O	0.018452	-0.509990	0.913868
O200	O	0.518452	-0.009990	1.413868
O201	O	0.018230	-0.427978	0.913891
O202	O	0.518230	0.072022	1.413891
O203	O	0.113461	-0.557306	0.913847
O204	O	0.613461	-0.057306	1.413847
Cu205	Cu	0.068323	-0.490160	0.906429
Cu206	Cu	0.568323	0.009840	1.406429
Cu207	Cu	0.036237	-0.522306	1.002797
Cu208	Cu	0.536237	-0.022306	1.502797
O209	O	0.113239	-0.475293	0.913870
O210	O	0.613239	0.024707	1.413870
N211	N	0.013667	-0.544916	1.070577
N212	N	0.513667	-0.044916	1.570577
C213	C	0.031339	-0.425179	0.394250
C214	C	0.531339	0.074821	0.894250
C215	C	0.132837	-0.526572	0.394139
C216	C	0.632837	-0.026572	0.894139
C217	C	0.072405	-0.587216	0.515344
C218	C	0.572405	-0.087216	1.015344
C219	C	-0.029093	-0.485823	0.515455
C220	C	0.470907	0.014177	1.015455
C221	C	0.552119	-0.566716	0.535258
C222	C	1.052119	-0.066716	1.035258
C223	C	0.552016	-0.566447	0.433726
C224	C	1.052016	-0.066447	0.933726
C225	C	0.551873	-0.445232	0.373402
C226	C	1.051873	0.054768	0.873402
C227	C	0.551980	-0.445502	0.474933
C228	C	1.051980	0.054498	0.974933
C229	C	0.132731	-0.006013	0.393923
C230	C	0.632731	0.493987	0.893923
C231	C	0.031182	-0.006158	0.394293
C232	C	0.531182	0.493842	0.894293
C233	C	-0.029092	-0.006163	0.515469
C234	C	0.470908	0.493837	1.015469
C235	C	0.072491	-0.006119	0.515133
C236	C	0.572491	0.493881	1.015133
C237	C	-0.008451	-0.425276	0.954641
C238	C	0.491549	0.074724	1.454641
C239	C	-0.008170	-0.526833	0.954596
C240	C	0.491830	-0.026833	1.454596
C241	C	0.113010	-0.587190	0.954585
C242	C	0.613010	-0.087190	1.454585
C243	C	0.112735	-0.485627	0.954611
C244	C	0.612735	0.014373	1.454611
H245	H	0.016234	-0.428240	0.834672
H246	H	0.516234	0.071760	1.334672
H247	H	0.551811	-0.415327	0.336274
H248	H	1.051811	0.084673	0.836274
C249	C	0.551942	-0.405839	0.484929
C250	C	1.051942	0.094161	0.984929
C251	C	0.551992	-0.423605	0.532753
C252	C	1.051992	0.076395	1.032753
C253	C	0.551951	-0.387080	0.541981
C254	C	1.051951	0.112920	1.041981
H255	H	0.580324	-0.396861	0.462349
H256	H	1.080324	0.103139	0.962349
H257	H	0.523489	-0.377987	0.481337
H258	H	1.023489	0.122013	0.981337
H259	H	0.580442	-0.451448	0.536341
H260	H	1.080442	0.048552	1.036341
H261	H	0.523612	-0.432579	0.555343
H262	H	1.023612	0.067421	1.055343
H263	H	0.523498	-0.359228	0.538389
H264	H	1.023498	0.140772	1.038389
H265	H	0.580333	-0.378105	0.519398
H266	H	1.080333	0.121895	1.019398
H267	H	0.551980	-0.399127	0.574431
H268	H	1.051980	0.100873	1.074431
H269	H	-0.066220	-0.006175	0.545378
H270	H	0.433780	0.493825	1.045378
H271	H	0.023949	-0.388000	0.364433
H272	H	0.523949	0.112000	0.864433
H273	H	0.023733	-0.006162	0.364531
H274	H	0.523733	0.493838	0.864531
C275	C	0.182157	-0.005668	0.353993
C276	C	0.682157	0.494332	0.853993
C277	C	0.212384	-0.005547	0.371490
C278	C	0.712384	0.494453	0.871490
C279	C	0.257916	-0.005223	0.334718
C280	C	0.757916	0.494777	0.834718
H281	H	0.196994	-0.034014	0.344933
H282	H	0.696994	0.465986	0.844933
H283	H	0.177702	0.022823	0.326242
H284	H	0.677702	0.522823	0.826242
H285	H	0.216841	-0.034036	0.399233
H286	H	0.716841	0.465964	0.899233
H287	H	0.197563	0.022797	0.380547
H288	H	0.697563	0.522797	0.880547
H289	H	0.253461	0.023268	0.306967
H290	H	0.753461	0.523268	0.806967
H291	H	0.272748	-0.033570	0.325660
H292	H	0.772748	0.466430	0.825660
H293	H	0.278430	-0.005136	0.346583
H294	H	0.778430	0.494864	0.846583
C295	C	0.552171	-0.606646	0.584741
C296	C	1.052171	-0.106646	1.084741
C297	C	0.552187	-0.648510	0.584683
C298	C	1.052187	-0.148510	1.084683
C299	C	0.552229	-0.685302	0.630259
C300	C	1.052229	-0.185302	1.130259
H301	H	0.580593	-0.614394	0.590736
H302	H	1.080593	-0.114394	1.090736
H303	H	0.523758	-0.595460	0.609704
H304	H	1.023758	-0.095460	1.109704
H305	H	0.580597	-0.659695	0.559727
H306	H	1.080597	-0.159695	1.059727
H307	H	0.523767	-0.640778	0.578697
H308	H	1.023767	-0.140778	1.078697
H309	H	0.523816	-0.674115	0.655222
H310	H	1.023816	-0.174115	1.155222
H311	H	0.580652	-0.693045	0.636250
H312	H	1.080652	-0.193045	1.136250
H313	H	0.552235	-0.713709	0.630227
H314	H	1.052235	-0.213709	1.130227
C315	C	0.182407	-0.536409	0.354383
C316	C	0.682407	-0.036409	0.854383
C317	C	0.212618	-0.584219	0.372009
C318	C	0.712618	-0.084219	0.872009
C319	C	0.258288	-0.593295	0.335401
C320	C	0.758288	-0.093295	0.835401
H321	H	0.178187	-0.532764	0.326528
H322	H	0.678187	-0.032764	0.826528
H323	H	0.197119	-0.513782	0.345454
H324	H	0.697119	-0.013782	0.845454
H325	H	0.197910	-0.606839	0.380931
H326	H	0.697910	-0.106839	0.880931
H327	H	0.216852	-0.587875	0.399859
H328	H	0.716852	-0.087875	0.899859
H329	H	0.272999	-0.570669	0.326473
H330	H	0.772999	-0.070669	0.826473
H331	H	0.254063	-0.589648	0.307548
H332	H	0.754063	-0.089648	0.807548
H333	H	0.278793	-0.625733	0.347357
H334	H	0.778793	-0.125733	0.847357
C335	C	0.552006	-0.606094	0.423746
C336	C	1.052006	-0.106094	0.923746
C337	C	0.551932	-0.588319	0.375930
C338	C	1.051932	-0.088319	0.875930
C339	C	0.551915	-0.624826	0.366722
C340	C	1.051915	-0.124826	0.866722
H341	H	0.580438	-0.633964	0.427329
H342	H	1.080438	-0.133964	0.927329
H343	H	0.523603	-0.615039	0.446350
H344	H	1.023603	-0.115039	0.946350
H345	H	0.580332	-0.579381	0.353333
H346	H	1.080332	-0.079381	0.853333
H347	H	0.523502	-0.560454	0.372337
H348	H	1.023502	-0.060454	0.872337
H349	H	0.523513	-0.633771	0.389325
H350	H	1.023513	-0.133771	0.889325
H351	H	0.580348	-0.652693	0.370307
H352	H	1.080348	-0.152693	0.870307
H353	H	0.551861	-0.612769	0.334280
H354	H	1.051861	-0.112769	0.834280
H355	H	0.079939	-0.006110	0.544893
H356	H	0.579939	0.493890	1.044893
H357	H	-0.038348	-0.388133	0.954654
H358	H	0.461652	0.111867	1.454654
H359	H	-0.037935	-0.534246	0.954563
H360	H	0.462065	-0.034246	1.454563
C361	C	0.152809	-0.636753	0.954589
C362	C	0.652809	-0.136753	1.454589
C363	C	0.135249	-0.667000	0.954593
C364	C	0.635249	-0.167000	1.454593
C365	C	0.171895	-0.712663	0.954602
C366	C	0.671895	-0.212663	1.454602
H367	H	0.180664	-0.632524	0.926177
H368	H	0.680664	-0.132524	1.426177
H369	H	0.161718	-0.651445	0.983014
H370	H	0.661718	-0.151445	1.483014
H371	H	0.126346	-0.652312	0.926171
H372	H	0.626346	-0.152312	1.426171
H373	H	0.107398	-0.671244	0.983003
H374	H	0.607398	-0.171244	1.483003
H375	H	0.180805	-0.727354	0.983026
H376	H	0.680805	-0.227354	1.483026
H377	H	0.199749	-0.708428	0.926189
H378	H	0.699749	-0.208428	1.426189
H379	H	0.159985	-0.733192	0.954609
H380	H	0.659985	-0.233192	1.454609
H381	H	0.142514	-0.478200	0.954606
H382	H	0.642514	0.021800	1.454606
H383	H	0.047163	-0.397193	0.741627
H384	H	0.547163	0.102807	1.241627
C385	C	0.082247	-0.636831	0.555053
C386	C	0.582247	-0.136831	1.055053
C387	C	0.093654	-0.673438	0.538316
C388	C	0.593654	-0.173438	1.038316
C389	C	0.102717	-0.719149	0.574885
C390	C	0.602717	-0.219149	1.074885
H391	H	0.108983	-0.642842	0.562710
H392	H	0.608983	-0.142842	1.062710
H393	H	0.053914	-0.636998	0.583556
H394	H	0.553914	-0.136998	1.083556
H395	H	0.121984	-0.673273	0.509822
H396	H	0.621984	-0.173273	1.009822
H397	H	0.066925	-0.667443	0.530663
H398	H	0.566925	-0.167443	1.030663
H399	H	0.074384	-0.719315	0.603387
H400	H	0.574384	-0.219315	1.103387
H401	H	0.129452	-0.725155	0.582539
H402	H	0.629452	-0.225155	1.082539
H403	H	0.110453	-0.743991	0.563535
H404	H	0.610453	-0.243991	1.063535
C405	C	0.177383	-0.512212	0.841417
C406	C	0.677383	-0.012212	1.341417
C407	C	0.225186	-0.519395	0.807948
C408	C	0.725186	-0.019395	1.307948
C409	C	0.258644	-0.548908	0.833463
C410	C	0.758644	-0.048908	1.333463
H411	H	0.172537	-0.496600	0.861430
H412	H	0.672537	0.003400	1.361430
H413	H	0.172502	-0.542980	0.861410
H414	H	0.672502	-0.042980	1.361410
H415	H	0.230065	-0.488633	0.787963
H416	H	0.730065	0.011367	1.287963
H417	H	0.230047	-0.535013	0.787934
H418	H	0.730047	-0.035013	1.287934
H419	H	0.253764	-0.579676	0.853457
H420	H	0.753764	-0.079676	1.353457
H421	H	0.253794	-0.533293	0.853476
H422	H	0.753794	-0.033293	1.353476
H423	H	0.291082	-0.553789	0.810759
H424	H	0.791082	-0.053789	1.310759
C425	C	-0.078647	-0.475970	0.555228
C426	C	0.421353	0.024030	1.055228
C427	C	-0.108850	-0.428152	0.537610
C428	C	0.391150	0.071848	1.037610
C429	C	-0.154500	-0.419056	0.574237
C430	C	0.345500	0.080944	1.074237
H431	H	-0.093394	-0.498573	0.564189
H432	H	0.406606	0.001427	1.064189
H433	H	-0.074378	-0.479625	0.583064
H434	H	0.425622	0.020375	1.083064
H435	H	-0.113121	-0.424502	0.509783
H436	H	0.386879	0.075498	1.009783
H437	H	-0.094119	-0.405539	0.528652
H438	H	0.405881	0.094461	1.028652
H439	H	-0.150231	-0.422710	0.602073
H440	H	0.349769	0.077290	1.102073
H441	H	-0.169242	-0.441662	0.583196
H442	H	0.330758	0.058338	1.083196
H443	H	-0.174997	-0.386610	0.562290
H444	H	0.325003	0.113390	1.062290
H445	H	0.199181	-0.473148	0.741498
H446	H	0.699181	0.026852	1.241498
H447	H	0.015959	-0.428182	0.532734
H448	H	0.515959	0.071818	1.032734
C449	C	0.037883	-0.389149	0.571716
C450	C	0.537883	0.110851	1.071716
C451	C	-0.009945	-0.381959	0.578928
C452	C	0.490055	0.118041	1.078928
C453	C	-0.043353	-0.352459	0.608405
C454	C	0.456647	0.147541	1.108405
H455	H	0.042774	-0.404775	0.602476
H456	H	0.542774	0.095225	1.102476
H457	H	0.042768	-0.358384	0.556054
H458	H	0.542768	0.141616	1.056054
H459	H	-0.014828	-0.412719	0.594591
H460	H	0.485172	0.087281	1.094591
H461	H	-0.014851	-0.366327	0.548178
H462	H	0.485149	0.133673	1.048178
H463	H	-0.038467	-0.321693	0.592743
H464	H	0.461533	0.178307	1.092743
H465	H	-0.038457	-0.368088	0.639162
H466	H	0.461543	0.131912	1.139162
H467	H	-0.075807	-0.347572	0.613298
H468	H	0.424193	0.152428	1.113298
H469	H	0.167905	-0.504126	0.456671
H470	H	0.667905	-0.004126	0.956671
H471	H	0.160882	-0.219171	0.449698
H472	H	0.660882	0.280829	0.949698
C473	C	0.212649	-0.476422	0.484178
C474	C	0.712649	0.023578	0.984178
C475	C	0.233711	-0.458972	0.433152
C476	C	0.733711	0.041028	0.933152
C477	C	0.284160	-0.471311	0.420608
C478	C	0.784160	0.028689	0.920608
H479	H	0.218133	-0.462023	0.498526
H480	H	0.718133	0.037977	0.998526
H481	H	0.227103	-0.511034	0.495928
H482	H	0.727103	-0.011034	0.995928
H483	H	0.219262	-0.424367	0.421407
H484	H	0.719262	0.075633	0.921407
H485	H	0.228240	-0.473369	0.418791
H486	H	0.728240	0.026631	0.918791
H487	H	0.298614	-0.505923	0.432358
H488	H	0.798614	-0.005923	0.932358
H489	H	0.289639	-0.456911	0.434959
H490	H	0.789639	0.043089	0.934959
H491	H	0.298457	-0.459478	0.385986
H492	H	0.798457	0.040522	0.885986
C493	C	0.332053	-0.519329	0.560770
C494	C	0.832053	-0.019329	1.060770
C495	C	0.344504	-0.543141	0.529554
C496	C	0.844504	-0.043141	1.029554
C497	C	0.318909	-0.576117	0.553839
C498	C	0.818909	-0.076117	1.053839
H499	H	0.340469	-0.542862	0.589260
H500	H	0.840469	-0.042862	1.089260
H501	H	0.297825	-0.502008	0.569921
H502	H	0.797825	-0.002008	1.069921
H503	H	0.378725	-0.560461	0.520410
H504	H	0.878725	-0.060461	1.020410
H505	H	0.336087	-0.519620	0.501064
H506	H	0.836087	-0.019620	1.001064
H507	H	0.284681	-0.558796	0.562990
H508	H	0.784681	-0.058796	1.062990
H509	H	0.327327	-0.599647	0.582328
H510	H	0.827327	-0.099647	1.082328
H511	H	0.327350	-0.592274	0.532661
H512	H	0.827350	-0.092274	1.032661
C513	C	0.438846	-0.381765	0.459113
C514	C	0.938846	0.118235	0.959113
C515	C	0.405397	-0.334282	0.456407
C516	C	0.905397	0.165718	0.956407
C517	C	0.430934	-0.301236	0.431996
C518	C	0.930934	0.198764	0.931996
H519	H	0.458879	-0.390277	0.476536
H520	H	0.958879	0.109723	0.976536
H521	H	0.458819	-0.383041	0.426959
H522	H	0.958819	0.116959	0.926959
H523	H	0.385432	-0.333008	0.488555
H524	H	0.885432	0.166992	0.988555
H525	H	0.385362	-0.325755	0.438980
H526	H	0.885362	0.174245	0.938980
H527	H	0.450908	-0.302512	0.399843
H528	H	0.950908	0.197488	0.899843
H529	H	0.450968	-0.309753	0.449422
H530	H	0.950968	0.190247	0.949422
H531	H	0.408244	-0.269015	0.430153
H532	H	0.908244	0.230985	0.930153
H533	H	0.050281	-0.622271	0.074658
H534	H	0.550281	-0.122271	0.574658
C535	C	0.331865	-0.346224	0.494879
C536	C	0.831865	0.153776	0.994879
C537	C	0.281460	-0.338309	0.515086
C538	C	0.781460	0.161691	1.015086
C539	C	0.255701	-0.288279	0.507851
C540	C	0.755701	0.211721	1.007851
H541	H	0.340227	-0.335557	0.510368
H542	H	0.840227	0.164443	1.010368
H543	H	0.340216	-0.328322	0.460769
H544	H	0.840216	0.171678	0.960769
H545	H	0.273113	-0.356205	0.549189
H546	H	0.773113	0.143795	1.049189
H547	H	0.273084	-0.348964	0.499600
H548	H	0.773084	0.151036	0.999600
H549	H	0.264052	-0.270377	0.473741
H550	H	0.764052	0.229623	0.973741
H551	H	0.264067	-0.277617	0.523341
H552	H	0.764067	0.222383	1.023341
H553	H	0.221499	-0.282902	0.521556
H554	H	0.721499	0.217098	1.021556
C555	C	0.133235	-0.119236	0.405010
C556	C	0.633235	0.380764	0.905010
C557	C	0.162718	-0.152663	0.379463
C558	C	0.662718	0.347337	0.879463
C559	C	0.175144	-0.127097	0.329011
C560	C	0.675144	0.372903	0.829011
H561	H	0.104253	-0.099233	0.396561
H562	H	0.604253	0.400767	0.896561
H563	H	0.150655	-0.099227	0.396565
H564	H	0.650655	0.400773	0.896565
H565	H	0.145299	-0.172664	0.387904
H566	H	0.645299	0.327336	0.887904
H567	H	0.191706	-0.172667	0.387897
H568	H	0.691706	0.327333	0.887897
H569	H	0.192564	-0.107088	0.320566
H570	H	0.692564	0.392912	0.820566
H571	H	0.146160	-0.107095	0.320567
H572	H	0.646160	0.392905	0.820567
H573	H	0.195153	-0.149773	0.311671
H574	H	0.695153	0.350227	0.811671
H575	H	0.432025	-0.541365	0.523165
H576	H	0.932025	-0.041365	1.023165
H577	H	0.085016	-0.219221	0.601683
H578	H	0.585016	0.280779	1.101683
C579	C	0.045941	-0.119295	0.579829
C580	C	0.545941	0.380705	1.079829
C581	C	0.038791	-0.152747	0.627645
C582	C	0.538791	0.347253	1.127645
C583	C	0.009305	-0.127210	0.661081
C584	C	0.509305	0.372790	1.161081
H585	H	0.061559	-0.099275	0.574951
H586	H	0.561559	0.400725	1.074951
H587	H	0.015164	-0.099305	0.574959
H588	H	0.515164	0.400695	1.074959
H589	H	0.069562	-0.172728	0.632514
H590	H	0.569562	0.327272	1.132514
H591	H	0.023167	-0.172768	0.632539
H592	H	0.523167	0.327232	1.132539
H593	H	-0.021472	-0.107220	0.656211
H594	H	0.478528	0.392780	1.156211
H595	H	0.024926	-0.107191	0.656198
H596	H	0.524926	0.392809	1.156198
H597	H	0.004446	-0.149903	0.693528
H598	H	0.504446	0.350097	1.193528
H599	H	-0.025639	-0.470264	0.074572
H600	H	0.474361	0.029736	0.574572
H601	H	-0.056788	-0.501226	0.167618
H602	H	0.443212	-0.001226	0.667618
H603	H	-0.063498	-0.886058	0.443304
H604	H	0.436502	-0.386058	0.943304
C605	C	0.022422	-0.666928	0.174655
C606	C	0.522422	-0.166928	0.674655
C607	C	0.004993	-0.688006	0.162133
C608	C	0.504993	-0.188006	0.662133
C609	C	0.017254	-0.738443	0.187777
C610	C	0.517254	-0.238443	0.687777
H611	H	0.057017	-0.681433	0.166327
H612	H	0.557017	-0.181433	0.666327
H613	H	0.007958	-0.672339	0.208877
H614	H	0.507958	-0.172339	0.708877
H615	H	0.019458	-0.682600	0.127919
H616	H	0.519458	-0.182600	0.627919
H617	H	-0.029601	-0.673517	0.170463
H618	H	0.470399	-0.173517	0.670463
H619	H	0.002790	-0.743853	0.222000
H620	H	0.502790	-0.243853	0.722000
H621	H	0.051849	-0.752942	0.179447
H622	H	0.551849	-0.252942	0.679447
H623	H	0.005427	-0.752750	0.179288
H624	H	0.505427	-0.252750	0.679288
C625	C	-0.065047	-0.492087	0.337705
C626	C	0.434953	0.007913	0.837705
C627	C	-0.072231	-0.444273	0.330531
C628	C	0.427769	0.055727	0.830531
C629	C	-0.101682	-0.410830	0.301006
C630	C	0.398318	0.089170	0.801006
H631	H	-0.049390	-0.496964	0.306938
H632	H	0.450610	0.003036	0.806938
H633	H	-0.095816	-0.496954	0.353318
H634	H	0.404184	0.003046	0.853318
H635	H	-0.041468	-0.439408	0.314918
H636	H	0.458532	0.060592	0.814918
H637	H	-0.087894	-0.439380	0.361290
H638	H	0.412106	0.060620	0.861290
H639	H	-0.132451	-0.415697	0.316618
H640	H	0.367549	0.084303	0.816618
H641	H	-0.086021	-0.415711	0.270241
H642	H	0.413979	0.084289	0.770241
H643	H	-0.106563	-0.378384	0.296138
H644	H	0.393437	0.121616	0.796138
H645	H	-0.026079	-0.470245	0.376824
H646	H	0.473921	0.029755	0.876824
H647	H	0.018765	-0.653217	0.421828
H648	H	0.518765	-0.153217	0.921828
C649	C	0.057782	-0.631353	0.460897
C650	C	0.557782	-0.131353	0.960897
C651	C	0.100494	-0.660822	0.435192
C652	C	0.600494	-0.160822	0.935192
C653	C	0.129990	-0.694241	0.464676
C654	C	0.629990	-0.194241	0.964676
H655	H	0.066232	-0.614027	0.469353
H656	H	0.566232	-0.114027	0.969353
H657	H	0.040366	-0.651367	0.489878
H658	H	0.540366	-0.151367	0.989878
H659	H	0.117906	-0.640811	0.406221
H660	H	0.617906	-0.140811	0.906221
H661	H	0.092058	-0.678160	0.426737
H662	H	0.592058	-0.178160	0.926737
H663	H	0.112575	-0.714255	0.493656
H664	H	0.612575	-0.214255	0.993656
H665	H	0.138437	-0.676910	0.473130
H666	H	0.638437	-0.176910	0.973130
H667	H	0.158971	-0.714243	0.447241
H668	H	0.658971	-0.214243	0.947241
C669	C	0.065136	-0.786267	0.348405
C670	C	0.565136	-0.286267	0.848405
C671	C	0.099741	-0.798789	0.306455
C672	C	0.599741	-0.298789	0.806455
C673	C	0.132788	-0.773258	0.282072
C674	C	0.632788	-0.273258	0.782072
H675	H	0.047881	-0.752031	0.339189
H676	H	0.547881	-0.252031	0.839189
H677	H	0.081343	-0.794700	0.369536
H678	H	0.581343	-0.294700	0.869536
H679	H	0.083535	-0.790353	0.285328
H680	H	0.583535	-0.290353	0.785328
H681	H	0.117008	-0.833021	0.315657
H682	H	0.617008	-0.333021	0.815657
H683	H	0.148995	-0.781690	0.303203
H684	H	0.648995	-0.281690	0.803203
H685	H	0.115528	-0.739023	0.272860
H686	H	0.615528	-0.239023	0.772860
H687	H	0.156273	-0.781753	0.253610
H688	H	0.656273	-0.281753	0.753610
C689	C	-0.108041	-0.786114	0.414212
C690	C	0.391959	-0.286114	0.914212
C691	C	-0.133254	-0.819519	0.439153
C692	C	0.366746	-0.319519	0.939153
C693	C	-0.183299	-0.793928	0.446360
C694	C	0.316701	-0.293928	0.946360
H695	H	-0.120169	-0.766090	0.433023
H696	H	0.379831	-0.266090	0.933023
H697	H	-0.112759	-0.766124	0.383368
H698	H	0.387241	-0.266124	0.883368
H699	H	-0.128539	-0.839501	0.469992
H700	H	0.371461	-0.339501	0.969992
H701	H	-0.121141	-0.839544	0.420350
H702	H	0.378859	-0.339544	0.920350
H703	H	-0.188016	-0.773938	0.415515
H704	H	0.311984	-0.273938	0.915515
H705	H	-0.195422	-0.773905	0.465169
H706	H	0.304578	-0.273905	0.965169
H707	H	-0.200411	-0.816590	0.463279
H708	H	0.299589	-0.316590	0.963279
H709	H	-0.235077	-0.614964	0.459366
H710	H	0.264923	-0.114964	0.959366
C711	C	-0.335085	-0.587303	0.503924
C712	C	0.164915	-0.087303	1.003924
C713	C	-0.322666	-0.638322	0.525044
C714	C	0.177334	-0.138322	1.025044
C715	C	-0.348357	-0.650792	0.575467
C716	C	0.151643	-0.150792	1.075467
H717	H	-0.326727	-0.575571	0.518432
H718	H	0.173273	-0.075571	1.018432
H719	H	-0.369300	-0.572892	0.509293
H720	H	0.130700	-0.072892	1.009293
H721	H	-0.288459	-0.652727	0.519678
H722	H	0.211541	-0.152727	1.019678
H723	H	-0.331026	-0.650067	0.510550
H724	H	0.168974	-0.150067	1.010550
H725	H	-0.382571	-0.636381	0.580836
H726	H	0.117429	-0.136381	1.080836
H727	H	-0.339996	-0.639057	0.589970
H728	H	0.160004	-0.139057	1.089970
H729	H	-0.339937	-0.685409	0.589802
H730	H	0.160063	-0.185409	1.089802
C731	C	-0.334745	-0.499878	0.329040
C732	C	0.165255	0.000122	0.829040
C733	C	-0.301251	-0.492723	0.281249
C734	C	0.198749	0.007277	0.781249
C735	C	-0.326734	-0.463200	0.247762
C736	C	0.173266	0.036800	0.747762
H737	H	-0.354759	-0.515473	0.333865
H738	H	0.145241	-0.015473	0.833865
H739	H	-0.354735	-0.469103	0.333915
H740	H	0.145265	0.030897	0.833915
H741	H	-0.281270	-0.523492	0.276376
H742	H	0.218730	-0.023492	0.776376
H743	H	-0.281236	-0.477122	0.276408
H744	H	0.218764	0.022878	0.776408
H745	H	-0.346724	-0.432425	0.252637
H746	H	0.153276	0.067575	0.752637
H747	H	-0.346747	-0.478798	0.252592
H748	H	0.153253	0.021202	0.752592
H749	H	-0.304012	-0.458338	0.215332
H750	H	0.195988	0.041662	0.715332
H751	H	-0.234840	-0.539009	0.307312
H752	H	0.265160	-0.039009	0.807312
H753	H	0.087072	-0.886205	0.386121
H754	H	0.587072	-0.386205	0.886121
