data_functionalizedCrystal
_audit_creation_method	'MofGen! by Chris Wilmer'
_symmetry_space_group_name_H-M	'P1'
_symmetry_Int_Tables_number	1
_symmetry_cell_setting	triclinic
loop_
_symmetry_equiv_pos_as_xyz
  x,y,z
_cell_length_a	25.639243
_cell_length_b	25.639239
_cell_length_c	25.639233
_cell_angle_alpha	89.981253
_cell_angle_beta	90.015962
_cell_angle_gamma	89.958590
loop_
_atom_site_label
_atom_site_type_symbol
_atom_site_fract_x
_atom_site_fract_y
_atom_site_fract_z
Zn1	Zn	0.799225	0.208176	0.295656
Zn2	Zn	1.299225	0.708176	0.795656
Zn3	Zn	0.799149	0.295595	0.208220
Zn4	Zn	1.299149	0.795595	0.708220
Zn5	Zn	0.711801	0.208180	0.208229
Zn6	Zn	1.211801	0.708180	0.708229
Zn7	Zn	0.711746	0.295587	0.295619
Zn8	Zn	1.211746	0.795587	0.795619
O9	O	0.755480	0.251885	0.251931
O10	O	1.255480	0.751885	0.751931
O11	O	0.872380	0.219775	0.284069
O12	O	1.372380	0.719775	0.784069
O13	O	0.787553	0.284004	0.135056
O14	O	1.287553	0.784004	0.635056
O15	O	0.723453	0.135014	0.219846
O16	O	1.223453	0.635014	0.719846
O17	O	0.872324	0.284001	0.219830
O18	O	1.372324	0.784001	0.719830
O19	O	0.787683	0.135012	0.284077
O20	O	1.287683	0.635012	0.784077
O21	O	0.723379	0.219781	0.135063
O22	O	1.223379	0.719781	0.635063
O23	O	0.638629	0.219772	0.219810
O24	O	1.138629	0.719772	0.719810
O25	O	0.723360	0.283987	0.368789
O26	O	1.223360	0.783987	0.868789
O27	O	0.638589	0.283990	0.284016
O28	O	1.138589	0.783990	0.784016
O29	O	0.787630	0.219767	0.368816
O30	O	1.287630	0.719767	0.868816
O31	O	0.787499	0.368759	0.219795
O32	O	1.287499	0.868759	0.719795
O33	O	0.723286	0.368753	0.284007
O34	O	1.223286	0.868753	0.784007
C35	C	0.619638	0.251881	0.251910
C36	C	1.119638	0.751881	0.751910
C37	C	0.561524	0.251892	0.251914
C38	C	1.061524	0.751892	0.751914
C39	C	0.201184	0.218495	0.285436
C40	C	0.701184	0.718495	0.785436
C41	C	0.146580	0.218494	0.285439
C42	C	0.646580	0.718494	0.785439
O43	O	0.118363	0.190088	0.313915
O44	O	0.618363	0.690088	0.813915
N45	N	0.119241	0.251883	0.251945
N46	N	0.619241	0.751883	0.751945
C47	C	0.146510	0.285271	0.218443
C48	C	0.646510	0.785271	0.718443
O49	O	0.118242	0.313670	0.189954
O50	O	0.618242	0.813670	0.689954
C51	C	0.201113	0.285268	0.218437
C52	C	0.701113	0.785268	0.718437
C53	C	0.228449	0.251881	0.251937
C54	C	0.728449	0.751881	0.751937
C55	C	0.228520	0.185109	0.318932
C56	C	0.728520	0.685109	0.818932
C57	C	0.283121	0.185111	0.318930
C58	C	0.783121	0.685111	0.818930
C59	C	0.310385	0.218497	0.285431
C60	C	0.810385	0.718497	0.785431
C61	C	0.283049	0.251882	0.251934
C62	C	0.783049	0.751882	0.751934
C63	C	0.228380	0.318653	0.184932
C64	C	0.728380	0.818653	0.684932
C65	C	0.282987	0.318647	0.184929
C66	C	0.782987	0.818647	0.684929
C67	C	0.310323	0.285260	0.218429
C68	C	0.810323	0.785260	0.718429
C69	C	0.364915	0.285270	0.218432
C70	C	0.864915	0.785270	0.718432
N71	N	0.392253	0.251881	0.251926
N72	N	0.892253	0.751881	0.751926
C73	C	0.364989	0.218494	0.285425
C74	C	0.864989	0.718494	0.785425
C75	C	0.031839	0.285273	0.218456
C76	C	0.531839	0.785273	0.718456
C77	C	-0.022763	0.285279	0.218464
C78	C	0.477237	0.785279	0.718464
C79	C	-0.022689	0.218501	0.285460
C80	C	0.477311	0.718501	0.785460
C81	C	0.031914	0.218499	0.285454
C82	C	0.531914	0.718499	0.785454
C83	C	0.059178	0.251884	0.251950
C84	C	0.559178	0.751884	0.751950
C85	C	0.479654	0.218500	0.285417
C86	C	0.979654	0.718500	0.785417
C87	C	0.534259	0.218506	0.285413
C88	C	1.034259	0.718506	0.785413
C89	C	0.534180	0.285281	0.218415
C90	C	1.034180	0.785281	0.718415
C91	C	0.479580	0.285278	0.218421
C92	C	0.979580	0.785278	0.718421
C93	C	0.452318	0.251883	0.251924
C94	C	0.952318	0.751883	0.751924
O95	O	0.393166	0.313659	0.189969
O96	O	0.893166	0.813659	0.689969
O97	O	0.393263	0.190095	0.313904
O98	O	0.893263	0.690095	0.813904
C99	C	0.755392	0.387727	0.251907
C100	C	1.255392	0.887727	0.751907
C101	C	0.755403	0.445841	0.251914
C102	C	1.255403	0.945841	0.751914
C103	C	0.755497	0.251875	0.388304
C104	C	1.255497	0.751875	0.888304
C105	C	0.755504	0.251871	0.446418
C106	C	1.255504	0.751871	0.946418
C107	C	0.891853	0.251888	0.251952
C108	C	1.391853	0.751888	0.751952
C109	C	0.949967	0.251890	0.251961
C110	C	1.449967	0.751890	0.751961
C111	C	0.755583	0.115512	0.251967
C112	C	1.255583	0.615512	0.751967
C113	C	0.755627	0.057397	0.251982
C114	C	1.255627	0.557397	0.751982
C115	C	0.789004	0.806195	0.218553
C116	C	1.289004	1.306195	0.718553
C117	C	0.789024	0.860799	0.218560
C118	C	1.289024	1.360799	0.718560
O119	O	0.817502	0.889028	0.190169
O120	O	1.317502	1.389028	0.690169
N121	N	0.755572	0.888124	0.251966
N122	N	1.255572	1.388124	0.751966
C123	C	0.722102	0.860841	0.285371
C124	C	1.222102	1.360841	0.785371
O125	O	0.693651	0.889096	0.313786
O126	O	1.193651	1.389096	0.813786
C127	C	0.722085	0.806238	0.285366
C128	C	1.222085	1.306238	0.785366
C129	C	0.755535	0.778916	0.251954
C130	C	1.255535	1.278916	0.751954
C131	C	0.822452	0.778873	0.185144
C132	C	1.322452	1.278873	0.685144
C133	C	0.822431	0.724273	0.185137
C134	C	1.322431	1.224273	0.685137
C135	C	0.788962	0.696994	0.218538
C136	C	1.288962	1.196994	0.718538
C137	C	0.755514	0.724315	0.251946
C138	C	1.255514	1.224315	0.751946
C139	C	0.688617	0.778956	0.318773
C140	C	1.188617	1.278956	0.818773
C141	C	0.688603	0.724349	0.318765
C142	C	1.188603	1.224349	0.818765
C143	C	0.722053	0.697027	0.285354
C144	C	1.222053	1.197027	0.785354
C145	C	0.722024	0.642436	0.285340
C146	C	1.222024	1.142436	0.785340
N147	N	0.755475	0.615112	0.251934
N148	N	1.255475	1.115112	0.751934
C149	C	0.788944	0.642390	0.218533
C150	C	1.288944	1.142390	0.718533
C151	C	0.722141	0.975511	0.285379
C152	C	1.222141	1.475511	0.785379
C153	C	0.722155	1.030114	0.285381
C154	C	1.222155	1.530114	0.785381
C155	C	0.789078	1.030068	0.218571
C156	C	1.289078	1.530068	0.718571
C157	C	0.789061	0.975465	0.218566
C158	C	1.289061	1.475465	0.718566
C159	C	0.755593	0.948187	0.251973
C160	C	1.255593	1.448187	0.751973
C161	C	0.788897	0.527725	0.218519
C162	C	1.288897	1.027725	0.718519
C163	C	0.788872	0.473120	0.218513
C164	C	1.288872	0.973120	0.718513
C165	C	0.721951	0.473170	0.285325
C166	C	1.221951	0.973170	0.785325
C167	C	0.721974	0.527771	0.285329
C168	C	1.221974	1.027771	0.785329
C169	C	0.755452	0.555047	0.251925
C170	C	1.255452	1.055047	0.751925
O171	O	0.693562	0.614173	0.313718
O172	O	1.193562	1.114173	0.813718
O173	O	0.817396	0.614128	0.190127
O174	O	1.317396	1.114128	0.690127
C175	C	0.755494	0.251856	0.116089
C176	C	1.255494	0.751856	0.616089
C177	C	0.755588	0.251713	0.057975
C178	C	1.255588	0.751713	0.557975
C179	C	0.789012	0.218333	0.806801
C180	C	1.289012	0.718333	1.306801
C181	C	0.789019	0.218318	0.861405
C182	C	1.289019	0.718318	1.361405
O183	O	0.817466	0.189864	0.889659
O184	O	1.317466	0.689864	1.389659
N185	N	0.755562	0.251749	0.888701
N186	N	1.255562	0.751749	1.388701
C187	C	0.722093	0.285192	0.861389
C188	C	1.222093	0.785192	1.361389
O189	O	0.693636	0.313626	0.889620
O190	O	1.193636	0.813626	1.389620
C191	C	0.722084	0.285204	0.806786
C192	C	1.222084	0.785204	1.306786
C193	C	0.755547	0.251775	0.779493
C194	C	1.255547	0.751775	1.279493
C195	C	0.822472	0.184906	0.779508
C196	C	1.322472	0.684906	1.279508
C197	C	0.822466	0.184921	0.724908
C198	C	1.322466	0.684921	1.224908
C199	C	0.789001	0.218363	0.697600
C200	C	1.289001	0.718363	1.197600
C201	C	0.755541	0.251790	0.724893
C202	C	1.255541	0.751790	1.224893
C203	C	0.688613	0.318644	0.779475
C204	C	1.188613	0.818644	1.279475
C205	C	0.688607	0.318653	0.724868
C206	C	1.188607	0.818653	1.224868
C207	C	0.722069	0.285223	0.697576
C208	C	1.222069	0.785223	1.197576
C209	C	0.722070	0.285247	0.642984
C210	C	1.222070	0.785247	1.142984
N211	N	0.755526	0.251817	0.615689
N212	N	1.255526	0.751817	1.115689
C213	C	0.788992	0.218375	0.642996
C214	C	1.288992	0.718375	1.142996
C215	C	0.722113	0.285165	0.976060
C216	C	1.222113	0.785165	1.476060
C217	C	0.722124	0.285157	1.030662
C218	C	1.222124	0.785157	1.530662
C219	C	0.789049	0.218282	1.030675
C220	C	1.289049	0.718282	1.530675
C221	C	0.789041	0.218293	0.976071
C222	C	1.289041	0.718293	1.476071
C223	C	0.755570	0.251735	0.948764
C224	C	1.255570	0.751735	1.448764
C225	C	0.788977	0.218410	0.528331
C226	C	1.288977	0.718410	1.028331
C227	C	0.788970	0.218429	0.473726
C228	C	1.288970	0.718429	0.973726
C229	C	0.722043	0.285302	0.473719
C230	C	1.222043	0.785302	0.973719
C231	C	0.722052	0.285285	0.528319
C232	C	1.222052	0.785285	1.028319
C233	C	0.755521	0.251834	0.555624
C234	C	1.255521	0.751834	1.055624
O235	O	0.693635	0.313686	0.614696
O236	O	1.193635	0.813686	1.114696
O237	O	0.817439	0.189941	0.614759
O238	O	1.317439	0.689941	1.114759
H239	H	0.556389	0.312465	0.191142
H240	H	1.056389	0.812465	0.691142
H241	H	0.694857	0.312400	0.953830
H242	H	1.194857	0.812400	1.453830
N243	N	0.686036	0.946089	0.321404
N244	N	1.186036	1.446089	0.821404
H245	H	0.694130	0.955570	0.358770
H246	H	1.194130	1.455570	0.858770
H247	H	0.648703	0.955649	0.313200
H248	H	1.148703	1.455649	0.813200
N249	N	0.685945	0.321368	0.444261
N250	N	1.185945	0.821368	0.944261
H251	H	0.694034	0.358725	0.453758
H252	H	1.194034	0.858725	0.953758
H253	H	0.691036	0.316256	0.405539
H254	H	1.191036	0.816256	0.905539
N255	N	0.199126	0.149096	0.355072
N256	N	0.699126	0.649096	0.855072
H257	H	0.176468	0.170378	0.379268
H258	H	0.676468	0.670378	0.879268
H259	H	0.176509	0.124836	0.333841
H260	H	0.676509	0.624836	0.833841
N261	N	0.450260	0.182483	0.321556
N262	N	0.950260	0.682483	0.821556
H263	H	0.427599	0.203765	0.345751
H264	H	0.927599	0.703765	0.845751
H265	H	0.427646	0.158223	0.300323
H266	H	0.927646	0.658223	0.800323
H267	H	0.816229	0.191169	0.550557
H268	H	1.316229	0.691169	1.050557
N269	N	0.652519	0.354698	0.808905
N270	N	1.152519	0.854698	1.308905
H271	H	0.660606	0.392057	0.799396
H272	H	1.160606	0.892057	1.299396
H273	H	0.615184	0.346528	0.799380
H274	H	1.115184	0.846528	1.299380
H275	H	0.305183	0.345834	0.157644
H276	H	0.805183	0.845834	0.657644
N277	N	0.563743	0.182496	0.321548
N278	N	1.063743	0.682496	0.821548
H279	H	0.538182	0.161345	0.342768
H280	H	1.038182	0.661345	0.842768
H281	H	0.586410	0.158267	0.300310
H282	H	1.086410	0.658267	0.800310
H283	H	0.849714	0.157699	0.702691
H284	H	1.349714	0.657699	1.202691
H285	H	0.694881	0.312384	1.052880
H286	H	1.194881	0.812384	1.552880
N287	N	0.825000	0.557144	0.182491
N288	N	1.325000	1.057144	0.682491
H289	H	0.862348	0.547595	0.190643
H290	H	1.362348	1.047595	0.690643
H291	H	0.816853	0.547653	0.145140
H292	H	1.316853	1.047653	0.645140
N293	N	0.652501	0.354717	0.695416
N294	N	1.152501	0.854717	1.195416
H295	H	0.631305	0.375889	0.720995
H296	H	1.131305	0.875889	1.220995
H297	H	0.673756	0.378924	0.672761
H298	H	1.173756	0.878924	1.172761
N299	N	0.652545	0.808413	0.354818
N300	N	1.152545	1.308413	0.854818
H301	H	0.657630	0.847146	0.349761
H302	H	1.157630	1.347146	0.849761
H303	H	0.615205	0.798911	0.346649
H304	H	1.115205	1.298911	0.846649
H305	H	0.661350	0.702142	0.345971
H306	H	1.161350	1.202142	0.845971
H307	H	0.816298	0.191050	1.052918
H308	H	1.316298	0.691050	1.552918
H309	H	0.206133	0.345840	0.157652
H310	H	0.706133	0.845840	0.657652
H311	H	0.694699	0.450951	0.312518
H312	H	1.194699	0.950951	0.812518
N313	N	0.312601	0.149098	0.355060
N314	N	0.812601	0.649098	0.855060
H315	H	0.287037	0.127950	0.376278
H316	H	0.787037	0.627950	0.876278
H317	H	0.335264	0.124868	0.333820
H318	H	0.835264	0.624868	0.833820
H319	H	0.457322	0.312470	0.191149
H320	H	0.957322	0.812470	0.691149
N321	N	0.061396	0.182489	0.321585
N322	N	0.561396	0.682489	0.821585
H323	H	0.035834	0.161342	0.342807
H324	H	0.535834	0.661342	0.842807
H325	H	0.084059	0.158257	0.300347
H326	H	0.584059	0.658257	0.800347
N327	N	-0.052101	0.182490	0.321592
N328	N	0.447899	0.682490	0.821592
H329	H	-0.090839	0.187559	0.316508
H330	H	0.409161	0.687559	0.816508
H331	H	-0.042535	0.145136	0.313521
H332	H	0.457465	0.645136	0.813521
N333	N	0.686068	1.059575	0.321412
N334	N	1.186068	1.559575	0.821412
H335	H	0.694158	1.050044	0.358775
H336	H	1.194158	1.550044	0.858775
H337	H	0.691169	1.098297	0.316309
H338	H	1.191169	1.598297	0.816309
N339	N	-0.052244	0.321296	0.182339
N340	N	0.447756	0.821296	0.682339
H341	H	-0.026682	0.342444	0.161119
H342	H	0.473318	0.842444	0.661119
H343	H	-0.074891	0.299979	0.158181
H344	H	0.425109	0.799979	0.658181
H345	H	0.054034	0.312464	0.191174
H346	H	0.554034	0.812464	0.691174
H347	H	0.816111	0.450876	0.191304
H348	H	1.316111	0.950876	0.691304
N349	N	0.858517	0.694808	0.149108
N350	N	1.358517	1.194808	0.649108
H351	H	0.879723	0.720381	0.127955
H352	H	1.379723	1.220381	0.627955
H353	H	0.882690	0.672123	0.170417
H354	H	1.382690	1.172123	0.670417
N355	N	0.858554	0.808290	0.149116
N356	N	1.358554	1.308290	0.649116
H357	H	0.879737	0.782689	0.127955
H358	H	1.379737	1.282689	0.627955
H359	H	0.837296	0.830976	0.124899
H360	H	1.337296	1.330976	0.624899
N361	N	0.825141	0.945999	0.182532
N362	N	1.325141	1.445999	0.682532
H363	H	0.846344	0.971570	0.161375
H364	H	1.346344	1.471570	0.661375
H365	H	0.849317	0.923311	0.203836
H366	H	1.349317	1.423311	0.703836
H367	H	0.816333	1.052289	0.191376
H368	H	1.316333	1.552289	0.691376
H369	H	0.694809	0.312510	0.550542
H370	H	1.194809	0.812510	1.050542
H371	H	0.816221	0.191207	0.451507
H372	H	1.316221	0.691207	0.951507
H373	H	0.694738	0.550017	0.312538
H374	H	1.194738	1.050017	0.812538
H375	H	0.849724	0.157671	0.801736
H376	H	1.349724	0.657671	1.301736
H377	H	0.816288	0.191071	0.953853
H378	H	1.316288	0.691071	1.453853
