data_functionalizedCrystal
_audit_creation_method	'MofGen! by Chris Wilmer'
_symmetry_space_group_name_H-M	'P1'
_symmetry_Int_Tables_number	1
_symmetry_cell_setting	triclinic
loop_
_symmetry_equiv_pos_as_xyz
  x,y,z
_cell_length_a	19.077105
_cell_length_b	21.295417
_cell_length_c	21.295120
_cell_angle_alpha	89.638316
_cell_angle_beta	87.622669
_cell_angle_gamma	87.726672
loop_
_atom_site_label
_atom_site_type_symbol
_atom_site_fract_x
_atom_site_fract_y
_atom_site_fract_z
Zn1	Zn	1.076318	-0.287084	-0.394550
Zn2	Zn	1.076121	-0.392953	-0.289264
Zn3	Zn	0.958519	-0.283494	-0.285064
Zn4	Zn	0.958572	-0.388106	-0.390281
O5	O	1.017382	-0.337909	-0.339790
O6	O	1.174785	-0.304659	-0.384128
O7	O	1.060416	-0.378960	-0.200611
O8	O	0.974205	-0.195882	-0.299615
O9	O	1.174641	-0.382441	-0.306775
O10	O	1.060751	-0.198520	-0.380054
O11	O	0.974014	-0.298540	-0.197525
O12	O	0.860032	-0.293839	-0.295476
O13	O	0.974296	-0.374179	-0.478943
O14	O	0.860071	-0.370698	-0.372779
O15	O	1.060803	-0.299958	-0.482080
O16	O	1.060468	-0.480398	-0.302636
O17	O	0.974105	-0.476836	-0.376853
C18	C	0.834513	-0.331353	-0.333209
C19	C	0.756281	-0.328564	-0.330409
C20	C	0.719566	-0.367330	-0.369278
C21	C	0.646059	-0.364701	-0.366650
C22	C	0.609268	-0.323308	-0.325149
C23	C	0.645988	-0.284537	-0.286279
C24	C	0.719494	-0.287164	-0.288911
C25	C	0.389424	-0.311152	-0.312973
C26	C	0.315912	-0.308529	-0.310343
C27	C	0.315989	-0.388693	-0.390714
C28	C	0.389496	-0.391318	-0.393340
C29	C	0.426210	-0.352545	-0.354472
N30	N	0.534131	-0.320621	-0.322461
N31	N	0.501345	-0.355230	-0.357164
C32	C	1.017290	-0.501458	-0.339751
C33	C	1.017315	-0.571427	-0.339758
C34	C	1.062324	-0.606128	-0.301157
C35	C	1.062357	-0.671872	-0.301172
C36	C	1.017368	-0.702911	-0.339782
C37	C	0.972356	-0.668201	-0.378392
C38	C	0.972330	-0.602459	-0.378380
N39	N	0.955801	-0.803946	-0.342366
N40	N	0.955829	-0.866398	-0.342373
C41	C	1.017447	-0.900988	-0.339821
N42	N	1.079039	-0.870767	-0.337249
N43	N	1.079011	-0.808308	-0.337238
C44	C	1.017393	-0.774197	-0.339799
C45	C	1.062496	-1.006976	-0.301234
C46	C	1.062530	-1.072721	-0.301254
C47	C	0.972523	-1.069050	-0.378470
C48	C	0.972495	-1.003306	-0.378454
C49	C	1.017481	-0.972274	-0.339832
C50	C	1.200965	-0.344491	-0.346396
C51	C	1.279198	-0.347296	-0.349211
C52	C	1.017577	-0.336928	-0.503993
C53	C	1.017661	-0.336510	-0.573966
C54	C	1.017494	-0.173723	-0.339842
C55	C	1.017542	-0.103756	-0.339865
C56	C	1.017228	-0.338842	-0.176227
C57	C	1.017282	-0.339088	-0.106259
C58	C	1.062010	-0.299980	-0.075524
C59	C	1.062062	-0.299663	-0.009785
C60	C	1.017373	-0.338448	0.025217
C61	C	0.972641	-0.377564	-0.005526
C62	C	0.972596	-0.377884	-0.071263
N63	N	0.955871	-0.340967	0.130797
N64	N	0.955916	-0.340660	0.193245
C65	C	1.017508	-0.337489	0.223281
N66	N	1.079054	-0.334624	0.188509
N67	N	1.079008	-0.334928	0.126055
C68	C	1.017417	-0.338107	0.096498
C69	C	1.062296	-0.298036	0.325297
C70	C	1.062349	-0.297724	0.391037
C71	C	0.972923	-0.375622	0.395295
C72	C	0.972876	-0.375937	0.329556
C73	C	1.017562	-0.337140	0.294561
H74	H	0.616169	-0.396269	-0.398300
H75	H	0.285959	-0.274815	-0.276552
H76	H	0.936172	-0.409731	-0.096287
H77	H	1.099011	-0.700131	-0.269738
Br78	Br	0.769322	-0.234547	-0.236162
Br79	Br	1.122684	-0.247356	-0.123016
Br80	Br	0.911305	-0.710324	-0.430797
H81	H	0.419307	-0.279585	-0.281319
Br82	Br	0.596058	-0.228354	-0.229962
Br83	Br	0.911242	-0.555361	-0.430773
H84	H	1.098484	-0.267815	0.015244
Br85	Br	1.123385	-0.564015	-0.248751
Br86	Br	0.439422	-0.447500	-0.449660
Br87	Br	1.123543	-0.964857	-0.248818
H88	H	0.935896	-1.094321	-0.409910
Br89	Br	1.123627	-1.119818	-0.248867
H90	H	0.935842	-0.975050	-0.409884
H91	H	0.936539	-0.407203	0.423793
Br92	Br	0.911996	-0.430206	0.041975
H93	H	1.098681	-0.266445	0.296802
H94	H	1.098777	-0.265880	0.416059
H95	H	0.936451	-0.407780	0.304532
H96	H	0.286089	-0.420258	-0.422359
Br97	Br	0.769490	-0.423514	-0.425598
