data_functionalizedCrystal
_audit_creation_method	'MofGen! by Chris Wilmer'
_symmetry_space_group_name_H-M	'P1'
_symmetry_Int_Tables_number	1
_symmetry_cell_setting	triclinic
loop_
_symmetry_equiv_pos_as_xyz
  x,y,z
_cell_length_a	10.654550
_cell_length_b	11.792241
_cell_length_c	9.130313
_cell_angle_alpha	89.998583
_cell_angle_beta	89.996220
_cell_angle_gamma	84.339159
loop_
_atom_site_label
_atom_site_type_symbol
_atom_site_fract_x
_atom_site_fract_y
_atom_site_fract_z
O1	O	1.667383	0.159415	-0.121920
O2	O	1.301862	0.174603	-0.121897
O3	O	1.493493	0.001859	-0.121899
O4	O	1.475752	0.332159	-0.121918
O5	O	1.493490	0.001864	0.121700
O6	O	1.301859	0.174608	0.121702
O7	O	1.667381	0.159419	0.121678
Cu8	Cu	1.484620	0.167014	0.143933
Cu9	Cu	1.484623	0.167008	-0.144151
O10	O	1.475750	0.332164	0.121680
C11	C	1.255066	0.173490	-0.000095
C12	C	1.115632	0.170154	-0.000085
C13	C	1.035858	0.271863	-0.000113
C14	C	0.904847	0.268721	-0.000138
C15	C	0.933394	0.062152	-0.000114
C16	C	1.064404	0.065295	-0.000079
C17	C	1.087087	0.376722	-0.000119
C18	C	1.007312	0.478439	-0.000148
C19	C	0.876300	0.475297	-0.000173
C20	C	0.825063	0.370438	-0.000170
C21	C	1.492377	-0.040432	-0.000100
C22	C	1.489042	-0.166454	-0.000101
C23	C	1.482908	-0.397180	-0.000125
C24	C	1.486316	-0.268787	-0.000112
C25	C	1.714177	0.160532	-0.000127
C26	C	1.853611	0.163869	-0.000146
C27	C	1.476865	0.374455	-0.000122
C28	C	1.480201	0.500476	-0.000130
N29	N	1.484627	0.167017	0.346555
N30	N	1.484625	0.166996	-0.346774
C31	C	1.569503	0.090552	0.423206
C32	C	1.569500	0.090539	0.576543
C33	C	1.399740	0.243465	0.576564
C34	C	1.399739	0.243472	0.423230
C35	C	1.654392	0.014097	0.346531
C36	C	1.739275	-0.062373	0.423182
C37	C	1.739272	-0.062387	0.576519
C38	C	1.654385	0.014070	0.653205
H39	H	0.811350	0.558120	-0.000182
O40	O	1.142083	-0.033396	0.000007
C41	C	1.268699	-0.008134	0.000006
H42	H	1.274306	0.081062	0.046120
H43	H	1.306586	-0.012141	-0.116849
C44	C	1.341367	-0.205164	0.038928
C45	C	1.348255	-0.095616	0.095578
H46	H	1.390443	-0.259129	0.097875
H47	H	1.256064	-0.222186	0.038924
H48	H	1.372937	-0.208487	-0.058450
H49	H	1.316670	-0.092291	0.192947
H50	H	1.433555	-0.078596	0.095601
H51	H	1.654404	0.014104	0.221677
H52	H	1.808379	-0.124659	0.638927
H53	H	0.891666	-0.023220	-0.000136
O54	O	1.821533	-0.136729	0.348564
C55	C	1.753770	-0.207329	0.259932
H56	H	1.655827	-0.162913	0.236940
H57	H	1.744622	-0.291265	0.319067
C58	C	1.944709	-0.285616	0.142530
C59	C	1.824417	-0.231059	0.114281
H60	H	1.988289	-0.300259	0.052687
H61	H	1.990363	-0.238055	0.202246
H62	H	1.937068	-0.355556	0.191812
H63	H	1.832060	-0.161115	0.065016
H64	H	1.778766	-0.278610	0.054552
H65	H	0.718383	0.367888	-0.000167
H66	H	1.049039	0.563812	-0.000139
H67	H	1.654381	0.014045	0.778062
O68	O	1.317241	0.317579	0.651216
C69	C	1.239339	0.256135	0.739890
H70	H	1.288759	0.167735	0.762847
H71	H	1.146469	0.247647	0.680809
C72	C	1.152242	0.428469	0.857354
C73	C	1.212944	0.319898	0.885560
H74	H	1.135954	0.467802	0.947208
H75	H	1.204721	0.469866	0.797609
H76	H	1.074857	0.421381	0.808116
H77	H	1.290334	0.326987	0.934780
H78	H	1.160476	0.278502	0.945317
H79	H	1.330624	0.305736	0.360820
H80	H	1.193762	0.379291	-0.000106
