data_functionalizedCrystal
_audit_creation_method	'MofGen! by Chris Wilmer'
_symmetry_space_group_name_H-M	'P1'
_symmetry_Int_Tables_number	1
_symmetry_cell_setting	triclinic
loop_
_symmetry_equiv_pos_as_xyz
  x,y,z
_cell_length_a	14.044220
_cell_length_b	10.868271
_cell_length_c	11.792254
_cell_angle_alpha	89.994692
_cell_angle_beta	88.693738
_cell_angle_gamma	90.000690
loop_
_atom_site_label
_atom_site_type_symbol
_atom_site_fract_x
_atom_site_fract_y
_atom_site_fract_z
O1	O	1.259124	-0.102193	0.273770
O2	O	1.509124	0.147807	0.523770
O3	O	1.759124	0.397807	0.773770
O4	O	2.009124	0.647807	1.023770
O5	O	0.983103	-0.102224	0.263891
O6	O	1.233103	0.147776	0.513891
O7	O	1.483103	0.397776	0.763891
O8	O	1.733103	0.647776	1.013891
O9	O	1.127806	-0.102199	0.104289
O10	O	1.377806	0.147801	0.354289
O11	O	1.627806	0.397801	0.604289
O12	O	1.877806	0.647801	0.854289
O13	O	1.114422	-0.102218	0.433372
O14	O	1.364422	0.147782	0.683372
O15	O	1.614422	0.397782	0.933372
O16	O	1.864422	0.647782	1.183372
O17	O	1.127794	0.102446	0.104281
O18	O	1.377794	0.352446	0.354281
O19	O	1.627794	0.602446	0.604281
O20	O	1.877794	0.852446	0.854281
O21	O	0.983091	0.102421	0.263883
O22	O	1.233091	0.352421	0.513883
O23	O	1.483091	0.602421	0.763883
O24	O	1.733091	0.852421	1.013883
O25	O	1.259112	0.102452	0.273762
O26	O	1.509112	0.352452	0.523762
O27	O	1.759112	0.602452	0.773762
O28	O	2.009112	0.852452	1.023762
Zn29	Zn	1.121100	0.134928	0.268821
Zn30	Zn	1.371100	0.384928	0.518821
Zn31	Zn	1.621100	0.634928	0.768821
Zn32	Zn	1.871100	0.884928	1.018821
Zn33	Zn	1.121115	-0.134700	0.268832
Zn34	Zn	1.371115	0.115300	0.518832
Zn35	Zn	1.621115	0.365300	0.768832
Zn36	Zn	1.871115	0.615300	1.018832
O37	O	1.114410	0.102427	0.433364
O38	O	1.364410	0.352427	0.683364
O39	O	1.614410	0.602427	0.933364
O40	O	1.864410	0.852427	1.183364
C41	C	0.947761	0.000095	0.259563
C42	C	1.197761	0.250095	0.509563
C43	C	1.447761	0.500095	0.759563
C44	C	1.697761	0.750095	1.009563
C45	C	0.842468	0.000083	0.246664
C46	C	1.092468	0.250083	0.496664
C47	C	1.342468	0.500083	0.746664
C48	C	1.592468	0.750083	0.996664
N49	N	1.121096	0.318942	0.268814
N50	N	1.371096	0.568942	0.518814
N51	N	1.621096	0.818942	0.768814
N52	N	1.871096	1.068942	1.018814
N53	N	1.121127	-0.318714	0.268831
N54	N	1.371127	-0.068714	0.518831
N55	N	1.621127	0.181286	0.768831
N56	N	1.871127	0.431286	1.018831
C57	C	0.649685	0.000109	0.223082
C58	C	0.899685	0.250109	0.473082
C59	C	1.149685	0.500109	0.723082
C60	C	1.399685	0.750109	0.973082
C61	C	0.592525	0.000109	0.314566
C62	C	0.842525	0.250109	0.564566
C63	C	1.092525	0.500109	0.814566
C64	C	1.342525	0.750109	1.064566
C65	C	0.485254	0.000123	0.301445
C66	C	0.735254	0.250123	0.551445
C67	C	0.985254	0.500123	0.801445
C68	C	1.235254	0.750123	1.051445
C69	C	0.756966	0.000095	0.236201
C70	C	1.006966	0.250095	0.486201
C71	C	1.256966	0.500095	0.736201
C72	C	1.506966	0.750095	0.986201
C73	C	1.294455	0.000131	0.278090
C74	C	1.544455	0.250131	0.528090
C75	C	1.794455	0.500131	0.778090
C76	C	2.044455	0.750131	1.028090
C77	C	1.399747	0.000135	0.290989
C78	C	1.649747	0.250135	0.540989
C79	C	1.899747	0.500135	0.790989
C80	C	2.149747	0.750135	1.040989
C81	C	1.126956	0.000123	0.061915
C82	C	1.376956	0.250123	0.311915
C83	C	1.626956	0.500123	0.561915
C84	C	1.876956	0.750123	0.811915
C85	C	1.124433	0.000122	-0.064335
C86	C	1.374433	0.250122	0.185665
C87	C	1.624433	0.500122	0.435665
C88	C	1.874433	0.750122	0.685665
C89	C	1.121110	0.569948	0.268829
C90	C	1.371110	0.819948	0.518829
C91	C	1.621110	1.069948	0.768829
C92	C	1.871110	1.319948	1.018829
C93	C	1.121099	0.430271	0.268824
C94	C	1.371099	0.680271	0.518824
C95	C	1.621099	0.930271	0.768824
C96	C	1.871099	1.180271	1.018824
C97	C	1.122383	0.000117	-0.166864
C98	C	1.372383	0.250117	0.083136
C99	C	1.622383	0.500117	0.333136
C100	C	1.872383	0.750117	0.583136
C101	C	1.119819	0.000106	-0.295491
C102	C	1.369819	0.250106	-0.045491
C103	C	1.619819	0.500106	0.204509
C104	C	1.869819	0.750106	0.454509
C105	C	1.115259	0.000102	0.475738
C106	C	1.365259	0.250102	0.725738
C107	C	1.615259	0.500102	0.975738
C108	C	1.865259	0.750102	1.225738
C109	C	1.117782	0.000096	0.601988
C110	C	1.367782	0.250096	0.851988
C111	C	1.617782	0.500096	1.101988
C112	C	1.867782	0.750096	1.351988
H113	H	0.624152	0.000098	0.402743
H114	H	0.874152	0.250098	0.652743
H115	H	1.124152	0.500098	0.902743
H116	H	1.374152	0.750098	1.152743
F117	F	0.608348	0.000119	0.107835
F118	F	0.858348	0.250119	0.357835
F119	F	1.108348	0.500119	0.607835
F120	F	1.358348	0.750119	0.857835
