data_functionalizedCrystal
_audit_creation_method	'MofGen! by Chris Wilmer'
_symmetry_space_group_name_H-M	'P1'
_symmetry_Int_Tables_number	1
_symmetry_cell_setting	triclinic
loop_
_symmetry_equiv_pos_as_xyz
  x,y,z
_cell_length_a	17.038272
_cell_length_b	16.098538
_cell_length_c	17.038272
_cell_angle_alpha	92.920305
_cell_angle_beta	88.888444
_cell_angle_gamma	92.930266
loop_
_atom_site_label
_atom_site_type_symbol
_atom_site_fract_x
_atom_site_fract_y
_atom_site_fract_z
O1	O	1.052033	0.069152	-0.167266
O2	O	1.552033	0.569152	0.332734
O3	O	0.824222	0.069177	-0.164557
O4	O	1.324222	0.569177	0.335443
O5	O	0.936773	0.069158	-0.052006
O6	O	1.436773	0.569158	0.447994
O7	O	0.939482	0.069171	-0.279817
O8	O	1.439482	0.569171	0.220183
O9	O	0.930197	-0.069354	-0.058553
O10	O	1.430197	0.430646	0.441447
O11	O	0.817646	-0.069335	-0.171104
O12	O	1.317646	0.430665	0.328896
O13	O	1.045456	-0.069359	-0.173813
O14	O	1.545456	0.430641	0.326187
Zn15	Zn	0.930507	-0.091339	-0.173498
Zn16	Zn	1.430507	0.408661	0.326502
Zn17	Zn	0.939172	0.091156	-0.164872
Zn18	Zn	1.439172	0.591156	0.335128
O19	O	0.932905	-0.069341	-0.286364
O20	O	1.432905	0.430659	0.213636
C21	C	0.791641	-0.000076	-0.165367
C22	C	1.291641	0.499924	0.334633
C23	C	0.704358	-0.000067	-0.158019
C24	C	1.204358	0.499933	0.341981
N25	N	0.924599	-0.215887	-0.179385
N26	N	1.424599	0.284113	0.320615
C27	C	0.658749	-0.000064	-0.225482
C28	C	1.158749	0.499936	0.274518
C29	C	0.576737	-0.000075	-0.218574
C30	C	1.076737	0.499925	0.281426
C31	C	0.540335	-0.000085	-0.144201
C32	C	1.040335	0.499915	0.355799
C33	C	0.585950	-0.000090	-0.076733
C34	C	1.085950	0.499910	0.423267
C35	C	0.667961	-0.000084	-0.083642
C36	C	1.167961	0.499916	0.416358
C37	C	0.292946	-0.000108	-0.119792
C38	C	0.792946	0.499892	0.380208
C39	C	0.210929	-0.000112	-0.112887
C40	C	0.710929	0.499888	0.387113
C41	C	0.201722	-0.000098	-0.254729
C42	C	0.701722	0.499902	0.245271
C43	C	0.283734	-0.000088	-0.261632
C44	C	0.783734	0.499912	0.238368
C45	C	0.329342	-0.000098	-0.194164
C46	C	0.829342	0.499902	0.305836
C47	C	0.456505	-0.000094	-0.137138
C48	C	0.956505	0.499906	0.362862
C49	C	0.413170	-0.000094	-0.201228
C50	C	0.913170	0.499906	0.298772
C51	C	0.972390	-0.259480	-0.131633
C52	C	1.472390	0.240520	0.368367
C53	C	0.968265	-0.346668	-0.135759
C54	C	1.468265	0.153332	0.364241
C55	C	0.916352	-0.390262	-0.187642
C56	C	1.416352	0.109738	0.312358
C57	C	0.868556	-0.346663	-0.235395
C58	C	1.368556	0.153337	0.264605
C59	C	0.872678	-0.259476	-0.231265
C60	C	1.372678	0.240524	0.268735
C61	C	0.901410	-0.653510	-0.202602
C62	C	1.401410	-0.153510	0.297398
C63	C	0.897294	-0.740702	-0.206731
C64	C	1.397294	-0.240702	0.293269
C65	C	0.997003	-0.740702	-0.107093
C66	C	1.497003	-0.240702	0.392907
C67	C	1.001123	-0.653513	-0.102971
C68	C	1.501123	-0.153513	0.397029
C69	C	0.953324	-0.609922	-0.150721
C70	C	1.453324	-0.109922	0.349279
C71	C	0.912136	-0.479383	-0.191862
C72	C	1.412136	0.020617	0.308138
C73	C	0.957536	-0.520803	-0.146496
C74	C	1.457536	-0.020803	0.353504
C75	C	1.078037	-0.000105	-0.173002
C76	C	1.578037	0.499895	0.326998
C77	C	1.165320	-0.000108	-0.180351
C78	C	1.665320	0.499892	0.319649
C79	C	0.931022	-0.000097	-0.025987
C80	C	1.431022	0.499903	0.474013
C81	C	0.923674	-0.000096	0.061297
C82	C	1.423674	0.499904	0.561297
N83	N	0.945085	0.215705	-0.158979
N84	N	1.445085	0.715705	0.341021
C85	C	0.938656	-0.000083	-0.312383
C86	C	1.438656	0.499917	0.187617
C87	C	0.946005	-0.000079	-0.399666
C88	C	1.446005	0.499921	0.100334
C89	C	0.991137	-0.000104	0.106906
C90	C	1.491137	0.499896	0.606906
C91	C	0.984229	-0.000096	0.188918
C92	C	1.484229	0.499904	0.688918
C93	C	0.909856	-0.000085	0.225320
C94	C	1.409856	0.499915	0.725320
C95	C	0.842388	-0.000074	0.179705
C96	C	1.342388	0.499926	0.679705
C97	C	0.849297	-0.000077	0.097694
C98	C	1.349297	0.499923	0.597694
C99	C	0.885446	-0.000071	0.472708
C100	C	1.385446	0.499929	0.972708
C101	C	0.878541	-0.000071	0.554725
C102	C	1.378541	0.499929	1.054725
C103	C	1.020383	-0.000091	0.563932
C104	C	1.520383	0.499909	1.063932
C105	C	1.027286	-0.000098	0.481920
C106	C	1.527286	0.499902	0.981920
C107	C	0.959818	-0.000083	0.436312
C108	C	1.459818	0.499917	0.936312
C109	C	0.902792	-0.000079	0.309149
C110	C	1.402792	0.499921	0.809149
C111	C	0.966882	-0.000084	0.352485
C112	C	1.466882	0.499916	0.852485
H113	H	0.539605	-0.000072	-0.273510
H114	H	1.039605	0.499928	0.226490
N115	N	1.013512	-0.473777	-0.090532
N116	N	1.513512	0.026223	0.409468
H117	H	1.051982	-0.437588	-0.121162
H118	H	1.551982	0.062412	0.378838
H119	H	1.043114	-0.514665	-0.060912
H120	H	1.543114	-0.014665	0.439088
N121	N	0.762173	-0.000066	0.218969
N122	N	1.262173	0.499934	0.718969
H123	H	0.729933	-0.051408	0.200257
H124	H	1.229933	0.448592	0.700257
H125	H	0.734873	0.051318	0.205098
H126	H	1.234873	0.551318	0.705098
N127	N	0.546684	-0.000110	0.003481
N128	N	1.046684	0.499890	0.503481
H129	H	0.515294	0.051234	0.011939
H130	H	1.015294	0.551234	0.511939
H131	H	0.588065	-0.000146	0.045123
H132	H	1.088065	0.499854	0.545123
H133	H	0.842238	-0.000072	0.338796
H134	H	1.342238	0.499928	0.838796
H135	H	0.181294	-0.000118	-0.052321
H136	H	0.681294	0.499882	0.447679
H137	H	0.688381	-0.000056	-0.286045
H138	H	1.188381	0.499944	0.213955
H139	H	0.869870	-0.514884	-0.234107
H140	H	1.369870	-0.014884	0.265893
N141	N	1.048549	-0.787716	-0.055587
N142	N	1.548549	-0.287716	0.444413
H143	H	1.105604	-0.772533	-0.067653
H144	H	1.605604	-0.272533	0.432347
H145	H	1.037997	-0.849548	-0.066097
H146	H	1.537997	-0.349548	0.433903
H147	H	1.051699	-0.000118	0.077274
H148	H	1.551699	0.499882	0.577274
N149	N	1.056992	-0.000109	0.238111
N150	N	1.556992	0.499891	0.738111
H151	H	1.105154	-0.000124	0.202606
H152	H	1.605154	0.499876	0.702606
H153	H	1.054769	-0.051457	0.269914
H154	H	1.554769	0.448543	0.769914
N155	N	0.841306	-0.787733	-0.262692
N156	N	1.341306	-0.287733	0.237308
H157	H	0.854770	-0.772548	-0.318318
H158	H	1.354770	-0.272548	0.181682
H159	H	0.785703	-0.772564	-0.249123
H160	H	1.285703	-0.272564	0.250877
H161	H	0.705095	-0.000086	-0.028706
H162	H	1.205095	0.499914	0.471294
H163	H	1.027437	-0.000074	0.322844
H164	H	1.527437	0.499926	0.822844
N165	N	0.849854	-0.606499	-0.254098
N166	N	1.349854	-0.106499	0.245902
H167	H	0.816344	-0.647348	-0.287591
H168	H	1.316344	-0.147348	0.212409
H169	H	0.883929	-0.570309	-0.289122
H170	H	1.383929	-0.070309	0.210878
N171	N	1.107508	-0.000108	0.442672
N172	N	1.607508	0.499892	0.942672
H173	H	1.139746	0.051236	0.461385
H174	H	1.639746	0.551236	0.961385
H175	H	1.101591	-0.000142	0.383805
H176	H	1.601591	0.499858	0.883805
H177	H	0.330070	-0.000117	-0.064854
H178	H	0.830070	0.499883	0.435146
N179	N	1.093149	-0.000108	0.613122
N180	N	1.593149	0.499892	1.113122
H181	H	1.077490	-0.000105	0.670599
H182	H	1.577490	0.499895	1.170599
H183	H	1.127765	0.051235	0.603222
H184	H	1.627765	0.551235	1.103222
N185	N	1.019841	-0.393675	-0.084275
N186	N	1.519841	0.106325	0.415725
H187	H	1.007834	-0.378514	-0.027206
H188	H	1.507834	0.121486	0.472794
H189	H	1.076865	-0.378453	-0.096437
H190	H	1.576865	0.121547	0.403563
H191	H	0.830508	-0.000059	0.435584
H192	H	1.330508	0.499941	0.935584
N193	N	0.776531	-0.000091	0.048500
N194	N	1.276531	0.499909	0.548500
H195	H	0.792193	-0.000097	-0.008977
H196	H	1.292193	0.499903	0.491023
H197	H	0.746784	0.051257	0.063241
H198	H	1.246784	0.551257	0.563241
H199	H	0.817975	-0.000075	0.584359
H200	H	1.317975	0.499925	1.084359
H201	H	0.426857	-0.000125	-0.076584
H202	H	0.926857	0.499875	0.423416
H203	H	0.826283	-0.382162	-0.277636
H204	H	1.326283	0.117838	0.222364
N205	N	0.821128	-0.212454	-0.282763
N206	N	1.321128	0.287546	0.217237
H207	H	0.787616	-0.253298	-0.316258
H208	H	1.287616	0.246702	0.183742
H209	H	0.855207	-0.176266	-0.317786
H210	H	1.355207	0.323734	0.182214
H211	H	1.043394	-0.618021	-0.060724
H212	H	1.543394	-0.118021	0.439276
N213	N	0.322996	-0.000062	-0.341847
N214	N	0.822996	0.499938	0.158153
H215	H	0.281657	-0.000058	-0.383538
H216	H	0.781657	0.499942	0.116462
H217	H	0.354397	-0.051402	-0.350241
H218	H	0.854397	0.448598	0.149759
H219	H	0.442811	-0.000091	-0.261782
H220	H	0.942811	0.499909	0.238218
N221	N	0.152540	-0.000098	-0.327501
N222	N	0.652540	0.499902	0.172499
H223	H	0.120736	0.051245	-0.325377
H224	H	0.620736	0.551245	0.174623
H225	H	0.115927	-0.051482	-0.330186
H226	H	0.615927	0.448518	0.169814
H227	H	1.014666	-0.223992	-0.089389
H228	H	1.514666	0.276008	0.410611
