data_functionalizedCrystal
_audit_creation_method	'MofGen! by Chris Wilmer'
_symmetry_space_group_name_H-M	'P1'
_symmetry_Int_Tables_number	1
_symmetry_cell_setting	triclinic
loop_
_symmetry_equiv_pos_as_xyz
  x,y,z
_cell_length_a	14.519709
_cell_length_b	8.559648
_cell_length_c	7.088929
_cell_angle_alpha	95.334324
_cell_angle_beta	96.220807
_cell_angle_gamma	103.270597
loop_
_atom_site_label
_atom_site_type_symbol
_atom_site_fract_x
_atom_site_fract_y
_atom_site_fract_z
O1	O	1.198228	-0.225777	-0.158687
O2	O	1.698228	0.274223	0.341313
O3	O	0.927978	-0.250444	-0.158739
O4	O	1.427978	0.249556	0.341261
O5	O	1.086909	-0.005581	-0.158755
O6	O	1.586909	0.494419	0.341245
O7	O	1.039297	-0.470640	-0.158670
O8	O	1.539297	0.029360	0.341330
O9	O	1.108154	0.027217	0.159218
O10	O	1.608154	0.527217	0.659218
O11	O	0.949222	-0.217646	0.159234
O12	O	1.449222	0.282354	0.659234
O13	O	1.219473	-0.192980	0.159286
O14	O	1.719473	0.307020	0.659286
Cu15	Cu	1.086288	-0.202318	0.188294
Cu16	Cu	1.586288	0.297682	0.688294
Cu17	Cu	1.061163	-0.241105	-0.187746
Cu18	Cu	1.561163	0.258895	0.312254
O19	O	1.060542	-0.437843	0.159303
O20	O	1.560542	0.062157	0.659303
C21	C	0.904322	-0.232897	0.000240
C22	C	1.404322	0.267103	0.500240
C23	C	0.802187	-0.229455	0.000217
C24	C	1.302187	0.270545	0.500217
C25	C	1.101139	0.070336	0.000216
C26	C	1.601139	0.570336	0.500216
C27	C	1.111877	0.247680	0.000170
C28	C	1.611877	0.747680	0.500170
N29	N	1.103966	-0.175037	0.452780
N30	N	1.603966	0.324963	0.952780
C31	C	0.428207	-0.216767	0.000302
C32	C	0.928207	0.283233	0.500302
C33	C	0.532260	-0.220290	0.000277
C34	C	1.032260	0.279710	0.500277
C35	C	0.615193	-0.223111	0.000257
C36	C	1.115193	0.276889	0.500257
C37	C	0.719254	-0.226635	0.000237
C38	C	1.219254	0.273365	0.500237
C39	C	1.243128	-0.210527	0.000303
C40	C	1.743128	0.289473	0.500303
C41	C	1.345263	-0.213970	0.000314
C42	C	1.845263	0.286030	0.500314
C43	C	1.046308	0.486235	0.000274
C44	C	1.546308	0.986235	0.500274
C45	C	1.035558	0.308872	0.000148
C46	C	1.535558	0.808872	0.500148
N47	N	1.043493	-0.268374	-0.452232
N48	N	1.543493	0.231626	0.047768
H49	H	0.962001	0.225587	0.000156
H50	H	1.462001	0.725587	0.500156
H51	H	1.185440	0.330978	0.000183
H52	H	1.685440	0.830978	0.500183
H53	H	0.980821	-0.365099	0.466128
H54	H	1.480821	0.134901	0.966128
H55	H	1.166647	-0.078317	0.534429
H56	H	1.666647	0.421683	1.034429
