data_functionalizedCrystal
_audit_creation_method	'MofGen! by Chris Wilmer'
_symmetry_space_group_name_H-M	'P1'
_symmetry_Int_Tables_number	1
_symmetry_cell_setting	triclinic
loop_
_symmetry_equiv_pos_as_xyz
  x,y,z
_cell_length_a	8.634740
_cell_length_b	8.559649
_cell_length_c	13.930277
_cell_angle_alpha	90.000119
_cell_angle_beta	90.004827
_cell_angle_gamma	85.174486
loop_
_atom_site_label
_atom_site_type_symbol
_atom_site_fract_x
_atom_site_fract_y
_atom_site_fract_z
O1	O	1.985473	0.511623	0.079825
O2	O	1.541602	0.468721	0.079826
O3	O	1.802643	0.263591	0.079824
O4	O	1.724432	0.716754	0.079827
O5	O	1.802619	0.263594	-0.079838
O6	O	1.541578	0.468724	-0.079836
O7	O	1.985449	0.511627	-0.079837
Zn8	Zn	1.763510	0.490176	-0.105186
Zn9	Zn	1.763541	0.490172	0.105175
O10	O	1.724409	0.716757	-0.079835
C11	C	1.485291	0.459004	-0.000004
C12	C	1.317539	0.430026	-0.000004
C13	C	1.808558	0.204975	-0.000005
C14	C	1.826201	0.030311	0.000000
C15	C	2.041761	0.521344	-0.000005
C16	C	2.209512	0.550322	0.000001
C17	C	1.718493	0.775373	-0.000004
C18	C	1.700851	0.950037	-0.000003
N19	N	1.763500	0.490180	-0.248752
C20	C	1.647901	0.580977	-0.299015
C21	C	1.879109	0.399378	-0.298995
C22	C	1.879126	0.399374	-0.399491
C23	C	1.763527	0.490171	-0.449753
C24	C	1.647911	0.580972	-0.399520
C25	C	1.994731	0.308563	-0.449731
C26	C	1.994751	0.308554	-0.550233
C27	C	1.879157	0.399360	-0.600498
C28	C	1.763538	0.490166	-0.550258
C29	C	1.647939	0.580963	-0.600520
C30	C	1.532324	0.671779	-0.550283
C31	C	1.532317	0.671779	-0.449784
C32	C	1.879164	0.399361	-0.700996
C33	C	1.647949	0.580958	-0.701025
N34	N	1.763565	0.490157	0.248741
H35	H	1.245360	0.675483	-0.000007
F36	F	1.409279	0.768420	-0.396314
F37	F	1.270683	0.266419	-0.000007
H38	H	1.947023	-0.034594	-0.000008
F39	F	1.524865	0.677632	-0.245551
H40	H	1.580036	0.014934	-0.000006
H41	H	1.553819	0.654903	-0.741943
H42	H	1.438197	0.745699	-0.591218
H43	H	1.973221	0.325445	-0.258068
H44	H	2.088842	0.234629	-0.408805
H45	H	2.088891	0.234609	-0.591131
H46	H	1.973290	0.325412	-0.741895
