data_functionalizedCrystal
_audit_creation_method	'MofGen! by Chris Wilmer'
_symmetry_space_group_name_H-M	'P1'
_symmetry_Int_Tables_number	1
_symmetry_cell_setting	triclinic
loop_
_symmetry_equiv_pos_as_xyz
  x,y,z
_cell_length_a	19.805407
_cell_length_b	25.639240
_cell_length_c	19.805399
_cell_angle_alpha	89.964092
_cell_angle_beta	89.980427
_cell_angle_gamma	90.032757
loop_
_atom_site_label
_atom_site_type_symbol
_atom_site_fract_x
_atom_site_fract_y
_atom_site_fract_z
Zn1	Zn	1.034706	-0.208163	-0.382680
Zn2	Zn	1.368039	0.125170	-0.049347
Zn3	Zn	1.701372	0.458504	0.283986
Zn4	Zn	1.034608	-0.295597	-0.269476
Zn5	Zn	1.367941	0.037736	0.063858
Zn6	Zn	1.701275	0.371070	0.397191
Zn7	Zn	0.921520	-0.208177	-0.269505
Zn8	Zn	1.254854	0.125156	0.063828
Zn9	Zn	1.588187	0.458489	0.397162
Zn10	Zn	0.921471	-0.295569	-0.382623
Zn11	Zn	1.254805	0.037764	-0.049289
Zn12	Zn	1.588138	0.371098	0.284044
O13	O	0.978076	-0.251877	-0.326071
O14	O	1.311410	0.081457	0.007262
O15	O	1.644743	0.414790	0.340596
O16	O	1.129409	-0.219767	-0.367676
O17	O	1.462743	0.113567	-0.034342
O18	O	1.796076	0.446900	0.298991
O19	O	1.019586	-0.284018	-0.174763
O20	O	1.352920	0.049315	0.158570
O21	O	1.686253	0.382648	0.491904
O22	O	0.936596	-0.135010	-0.284555
O23	O	1.269929	0.198323	0.048779
O24	O	1.603263	0.531656	0.382112
O25	O	1.129338	-0.284004	-0.284505
O26	O	1.462671	0.049329	0.048829
O27	O	1.796004	0.382662	0.382162
O28	O	1.019753	-0.135000	-0.367704
O29	O	1.353086	0.198334	-0.034371
O30	O	1.686420	0.531667	0.298963
O31	O	0.936501	-0.219791	-0.174785
O32	O	1.269835	0.113542	0.158549
O33	O	1.603168	0.446875	0.491882
O34	O	0.826797	-0.219764	-0.284498
O35	O	1.160131	0.113569	0.048835
O36	O	1.493464	0.446902	0.382168
O37	O	0.936513	-0.283957	-0.477347
O38	O	1.269846	0.049376	-0.144013
O39	O	1.603179	0.382710	0.189320
O40	O	0.826761	-0.283971	-0.367605
O41	O	1.160095	0.049362	-0.034272
O42	O	1.493428	0.382696	0.299061
O43	O	1.019705	-0.219740	-0.477389
O44	O	1.353039	0.113593	-0.144056
O45	O	1.686372	0.446927	0.189277
O46	O	1.019539	-0.368758	-0.284448
O47	O	1.352872	-0.035425	0.048885
O48	O	1.686206	0.297908	0.382218
O49	O	0.936418	-0.368738	-0.367577
O50	O	1.269751	-0.035405	-0.034244
O51	O	1.603085	0.297929	0.299090
C52	C	0.802220	-0.251867	-0.326049
C53	C	1.135554	0.081467	0.007284
C54	C	1.468887	0.414800	0.340618
C55	C	0.726988	-0.251875	-0.326056
C56	C	1.060322	0.081458	0.007278
C57	C	1.393655	0.414792	0.340611
C58	C	0.691643	-0.285357	-0.369259
C59	C	1.024977	0.047976	-0.035926
C60	C	1.358310	0.381309	0.297407
C61	C	0.620955	-0.285358	-0.369269
C62	C	0.954288	0.047975	-0.035936
C63	C	1.287621	0.381308	0.297398
C64	C	0.585613	-0.251879	-0.326071
C65	C	0.918946	0.081454	0.007262
C66	C	1.252280	0.414788	0.340596
C67	C	0.620963	-0.218393	-0.282865
C68	C	0.954296	0.114941	0.050468
C69	C	1.287630	0.448274	0.383801
C70	C	0.691650	-0.218390	-0.282860
C71	C	1.024984	0.114944	0.050474
C72	C	1.358317	0.448277	0.383807
C73	C	0.335890	-0.218404	-0.282888
C74	C	0.669223	0.114929	0.050446
C75	C	1.002556	0.448262	0.383779
C76	C	0.265198	-0.218411	-0.282895
C77	C	0.598531	0.114922	0.050438
C78	C	0.931864	0.448256	0.383771
C79	C	0.265194	-0.285373	-0.369297
C80	C	0.598528	0.047960	-0.035964
C81	C	0.931861	0.381294	0.297370
C82	C	0.335881	-0.285370	-0.369291
C83	C	0.669215	0.047963	-0.035958
C84	C	1.002548	0.381297	0.297375
C85	C	0.371225	-0.251882	-0.326089
C86	C	0.704559	0.081451	0.007245
C87	C	1.037892	0.414785	0.340578
C88	C	0.447874	-0.251881	-0.326080
C89	C	0.781207	0.081453	0.007254
C90	C	1.114541	0.414786	0.340587
C91	C	0.508966	-0.251883	-0.326076
C92	C	0.842299	0.081451	0.007257
C93	C	1.175632	0.414784	0.340591
C94	C	0.977981	-0.387719	-0.326018
C95	C	1.311314	-0.054386	0.007315
C96	C	1.644647	0.278947	0.340649
C97	C	0.978002	-0.445833	-0.326018
C98	C	1.311335	-0.112500	0.007315
C99	C	1.644668	0.220833	0.340649
C100	C	1.021398	-0.806152	-0.369445
C101	C	1.354731	-0.472819	-0.036112
C102	C	1.688064	-0.139486	0.297222
C103	C	1.021418	-0.860757	-0.369459
C104	C	1.354751	-0.527423	-0.036125
C105	C	1.688084	-0.194090	0.297208
O106	O	1.058201	-0.888956	-0.406328
O107	O	1.391534	-0.555623	-0.072994
O108	O	1.724867	-0.222289	0.260339
N109	N	0.978170	-0.888116	-0.326136
N110	N	1.311504	-0.554782	0.007197
N111	N	1.644837	-0.221449	0.340530
C112	C	0.934895	-0.860868	-0.282802
C113	C	1.268229	-0.527534	0.050531
C114	C	1.601562	-0.194201	0.383864
O115	O	0.898112	-0.889153	-0.245955
O116	O	1.231445	-0.555819	0.087378
O117	O	1.564778	-0.222486	0.420712
C118	C	0.934873	-0.806264	-0.282792
C119	C	1.268206	-0.472931	0.050541
C120	C	1.601539	-0.139598	0.383874
C121	C	0.978128	-0.778908	-0.326113
C122	C	1.311461	-0.445575	0.007221
C123	C	1.644794	-0.112241	0.340554
C124	C	1.064649	-0.778796	-0.412762
C125	C	1.397982	-0.445463	-0.079429
C126	C	1.731315	-0.112129	0.253904
C127	C	1.064629	-0.724195	-0.412748
C128	C	1.397963	-0.390862	-0.079414
C129	C	1.731296	-0.057529	0.253919
C130	C	1.021359	-0.696951	-0.369415
C131	C	1.354693	-0.363618	-0.036082
C132	C	1.688026	-0.030284	0.297251
C133	C	0.978108	-0.724307	-0.326098
C134	C	1.311442	-0.390974	0.007235
C135	C	1.644775	-0.057641	0.340569
C136	C	0.891595	-0.779017	-0.239462
C137	C	1.224928	-0.445684	0.093871
C138	C	1.558261	-0.112351	0.427204
C139	C	0.891575	-0.724410	-0.239456
C140	C	1.224909	-0.391077	0.093877
C141	C	1.558242	-0.057743	0.427210
C142	C	0.934830	-0.697054	-0.282777
C143	C	1.268164	-0.363721	0.050556
C144	C	1.601497	-0.030387	0.383890
C145	C	0.934819	-0.642463	-0.282751
C146	C	1.268152	-0.309129	0.050582
C147	C	1.601486	0.024204	0.383916
N148	N	0.978066	-0.615104	-0.326073
N149	N	1.311400	-0.281770	0.007260
N150	N	1.644733	0.051563	0.340593
C151	C	1.021336	-0.642348	-0.369406
C152	C	1.354670	-0.309015	-0.036072
C153	C	1.688003	0.024319	0.297261
C154	C	0.934946	-0.975538	-0.282827
C155	C	1.268279	-0.642205	0.050506
C156	C	1.601613	-0.308871	0.383840
C157	C	0.934972	-1.030140	-0.282833
C158	C	1.268305	-0.696807	0.050500
C159	C	1.601638	-0.363474	0.383834
C160	C	1.021493	-1.030026	-0.369491
C161	C	1.354827	-0.696692	-0.036157
C162	C	1.688160	-0.363359	0.297176
C163	C	1.021470	-0.975422	-0.369481
C164	C	1.354804	-0.642089	-0.036147
C165	C	1.688137	-0.308756	0.297186
C166	C	0.978193	-0.948179	-0.326149
C167	C	1.311527	-0.614846	0.007184
C168	C	1.644860	-0.281512	0.340517
C169	C	1.021293	-0.527683	-0.369371
C170	C	1.354626	-0.194349	-0.036037
C171	C	1.687960	0.138984	0.297296
C172	C	1.021272	-0.473077	-0.369350
C173	C	1.354605	-0.139744	-0.036017
C174	C	1.687939	0.193589	0.297317
C175	C	0.934748	-0.473197	-0.282695
C176	C	1.268082	-0.139864	0.050638
C177	C	1.601415	0.193470	0.383971
C178	C	0.934772	-0.527798	-0.282713
C179	C	1.268105	-0.194464	0.050620
C180	C	1.601438	0.138869	0.383954
C181	C	0.978046	-0.555039	-0.326056
C182	C	1.311380	-0.221706	0.007277
C183	C	1.644713	0.111628	0.340610
O184	O	0.898053	-0.614229	-0.245903
O185	O	1.231386	-0.280895	0.087430
O186	O	1.564719	0.052438	0.420764
O187	O	1.058108	-0.614056	-0.406253
O188	O	1.391441	-0.280723	-0.072920
O189	O	1.724774	0.052610	0.260414
C190	C	1.154619	-0.251887	-0.326093
C191	C	1.487952	0.081446	0.007240
C192	C	1.821286	0.414780	0.340573
C193	C	1.229851	-0.251891	-0.326103
C194	C	1.563184	0.081442	0.007230
C195	C	1.896518	0.414775	0.340564
C196	C	0.978114	-0.251844	-0.502614
C197	C	1.311448	0.081490	-0.169280
C198	C	1.644781	0.414823	0.164053
C199	C	0.978131	-0.251830	-0.577846
C200	C	1.311464	0.081504	-0.244512
C201	C	1.644797	0.414837	0.088821
C202	C	0.978191	-0.115504	-0.326139
C203	C	1.311524	0.217830	0.007194
C204	C	1.644858	0.551163	0.340528
C205	C	0.978240	-0.057389	-0.326168
C206	C	1.311573	0.275944	0.007165
C207	C	1.644906	0.609277	0.340499
C208	C	1.021450	-0.218390	-0.613213
C209	C	1.354783	0.114943	-0.279880
C210	C	1.688117	0.448276	0.053453
C211	C	1.021457	-0.218375	-0.683902
C212	C	1.354790	0.114958	-0.350568
C213	C	1.688124	0.448292	-0.017235
C214	C	0.978147	-0.251802	-0.719221
C215	C	1.311481	0.081531	-0.385888
C216	C	1.644814	0.414864	-0.052555
C217	C	0.934823	-0.285243	-0.683849
C218	C	1.268157	0.048090	-0.350516
C219	C	1.601490	0.381423	-0.017182
C220	C	0.934813	-0.285255	-0.613162
C221	C	1.268147	0.048078	-0.279829
C222	C	1.601480	0.381411	0.053505
C223	C	0.934861	-0.285194	-0.968923
C224	C	1.268195	0.048139	-0.635589
C225	C	1.601528	0.381472	-0.302256
C226	C	0.934876	-0.285181	-1.039615
C227	C	1.268209	0.048152	-0.706281
C228	C	1.601543	0.381486	-0.372948
C229	C	1.021505	-0.218314	-1.039662
C230	C	1.354838	0.115019	-0.706329
C231	C	1.688172	0.448353	-0.372996
C232	C	1.021495	-0.218326	-0.968975
C233	C	1.354829	0.115007	-0.635642
C234	C	1.688162	0.448340	-0.302308
C235	C	0.978169	-0.251765	-0.933609
C236	C	1.311502	0.081568	-0.600276
C237	C	1.644835	0.414902	-0.266942
C238	C	0.978161	-0.251780	-0.856960
C239	C	1.311494	0.081553	-0.523627
C240	C	1.644828	0.414886	-0.190294
C241	C	0.978158	-0.251790	-0.795869
C242	C	1.311492	0.081543	-0.462535
C243	C	1.644825	0.414877	-0.129202
C244	C	0.978078	-0.251872	-0.150215
C245	C	1.311411	0.081462	0.183118
C246	C	1.644744	0.414795	0.516452
C247	C	0.978193	-0.251738	-0.074983
C248	C	1.311526	0.081595	0.258350
C249	C	1.644859	0.414928	0.591683
H250	H	0.236409	-0.312639	-0.404477
H251	H	0.569742	0.020695	-0.071144
H252	H	0.903075	0.354028	0.262189
H253	H	0.364653	-0.312634	-0.404465
H254	H	0.697987	0.020699	-0.071132
H255	H	1.031320	0.354033	0.262201
H256	H	0.592180	-0.312624	-0.404449
H257	H	0.925513	0.020710	-0.071116
H258	H	1.258847	0.354043	0.262218
H259	H	0.899756	-1.052409	-0.247550
H260	H	1.233090	-0.719076	0.085783
H261	H	1.566423	-0.385743	0.419117
O262	O	1.068128	-0.945920	-0.416202
O263	O	1.401461	-0.612586	-0.082868
O264	O	1.734794	-0.279253	0.250465
H265	H	1.056493	-0.956376	-0.469315
H266	H	1.389827	-0.623042	-0.135982
H267	H	1.723160	-0.289709	0.197351
O268	O	0.582838	-0.182296	-0.236261
O269	O	0.916171	0.151038	0.097072
O270	O	1.249504	0.484371	0.430405
H271	H	0.550649	-0.155730	-0.266614
H272	H	0.883982	0.177603	0.066719
H273	H	1.217316	0.510936	0.400052
H274	H	0.899605	-0.312402	-1.068370
H275	H	1.232939	0.020931	-0.735037
H276	H	1.566272	0.354264	-0.401703
O277	O	0.373993	-0.182290	-0.236278
O278	O	0.707327	0.151044	0.097055
O279	O	1.040660	0.484377	0.430389
H280	H	0.406224	-0.155708	-0.266626
H281	H	0.739558	0.177625	0.066707
H282	H	1.072891	0.510959	0.400041
O283	O	0.888098	-0.321244	-0.930802
O284	O	1.221431	0.012089	-0.597469
O285	O	1.554764	0.345422	-0.264135
H286	H	0.899649	-0.362283	-0.944341
H287	H	1.232983	-0.028950	-0.611008
H288	H	1.566316	0.304383	-0.277674
O289	O	0.888082	-0.321320	-0.575018
O290	O	1.221415	0.012013	-0.241685
O291	O	1.554749	0.345346	0.091648
H292	H	0.918340	-0.347929	-0.542797
H293	H	1.251673	-0.014596	-0.209464
H294	H	1.585006	0.318737	0.123869
O295	O	1.068161	-1.059417	-0.416233
O296	O	1.401495	-0.726083	-0.082900
O297	O	1.734828	-0.392750	0.250434
H298	H	1.056517	-1.048909	-0.469341
H299	H	1.389850	-0.715576	-0.136008
H300	H	1.723184	-0.382243	0.197326
O301	O	0.888279	-0.946154	-0.236075
O302	O	1.221613	-0.612821	0.097258
O303	O	1.554946	-0.279488	0.430592
H304	H	0.858221	-0.974357	-0.205949
H305	H	1.191554	-0.641023	0.127384
H306	H	1.524887	-0.307690	0.460717
H307	H	1.099884	-0.800972	-0.448053
H308	H	1.433218	-0.467639	-0.114719
H309	H	1.766551	-0.134306	0.218614
O310	O	0.227074	-0.182295	-0.236307
O311	O	0.560408	0.151038	0.097026
O312	O	0.893741	0.484372	0.430359
H313	H	0.263526	-0.159004	-0.206270
H314	H	0.596859	0.174330	0.127063
H315	H	0.930193	0.507663	0.460397
O316	O	0.729778	-0.182283	-0.236254
O317	O	1.063111	0.151051	0.097079
O318	O	1.396445	0.484384	0.430413
H319	H	0.693328	-0.159008	-0.206210
H320	H	1.026662	0.174326	0.127124
H321	H	1.359995	0.507659	0.460457
O322	O	1.068233	-0.182245	-1.077811
O323	O	1.401566	0.151089	-0.744478
O324	O	1.734900	0.484422	-0.411145
H325	H	1.098352	-0.159008	-1.041375
H326	H	1.431686	0.174325	-0.708041
H327	H	1.765019	0.507658	-0.374708
H328	H	0.899557	-0.312458	-0.712612
H329	H	1.232891	0.020875	-0.379279
H330	H	1.566224	0.354208	-0.045945
H331	H	0.856372	-0.801281	-0.204186
H332	H	1.189705	-0.467948	0.129148
H333	H	1.523039	-0.134615	0.462481
H334	H	1.056498	-0.450806	-0.404627
H335	H	1.389831	-0.117472	-0.071293
H336	H	1.723164	0.215861	0.262040
H337	H	1.056734	-0.191146	-0.712695
H338	H	1.390067	0.142187	-0.379361
H339	H	1.723400	0.475520	-0.046028
O340	O	0.888080	-0.443803	-0.235963
O341	O	1.221413	-0.110470	0.097370
O342	O	1.554746	0.222863	0.430704
H343	H	0.899722	-0.454301	-0.182852
H344	H	1.233056	-0.120968	0.150482
H345	H	1.566389	0.212365	0.483815
H346	H	1.056527	-0.549856	-0.404669
H347	H	1.389860	-0.216523	-0.071336
H348	H	1.723193	0.116810	0.261997
O349	O	1.068163	-0.182336	-0.575119
O350	O	1.401496	0.150997	-0.241785
O351	O	1.734830	0.484330	0.091548
H352	H	1.098282	-0.159078	-0.611591
H353	H	1.431615	0.174255	-0.278257
H354	H	1.764949	0.507589	0.055076
H355	H	1.056765	-0.191108	-0.940221
H356	H	1.390098	0.142225	-0.606888
H357	H	1.723431	0.475559	-0.273555
O358	O	1.111293	-0.694692	-0.459461
O359	O	1.444626	-0.361359	-0.126128
O360	O	1.777960	-0.028025	0.207205
H361	H	1.141381	-0.722818	-0.489590
H362	H	1.474715	-0.389484	-0.156257
H363	H	1.808048	-0.056151	0.177076
H364	H	0.720414	-0.312622	-0.404434
H365	H	1.053747	0.020711	-0.071101
H366	H	1.387080	0.354045	0.262232
H367	H	0.856332	-0.702231	-0.204172
H368	H	1.189665	-0.368898	0.129162
H369	H	1.522998	-0.035565	0.462495
H370	H	0.899555	-0.550072	-0.247433
H371	H	1.232889	-0.216739	0.085900
H372	H	1.566222	0.116594	0.419234
