data_functionalizedCrystal
_audit_creation_method	'MofGen! by Chris Wilmer'
_symmetry_space_group_name_H-M	'P1'
_symmetry_Int_Tables_number	1
_symmetry_cell_setting	triclinic
loop_
_symmetry_equiv_pos_as_xyz
  x,y,z
_cell_length_a	11.804365
_cell_length_b	9.065218
_cell_length_c	9.065218
_cell_angle_alpha	94.984115
_cell_angle_beta	77.989386
_cell_angle_gamma	77.973748
loop_
_atom_site_label
_atom_site_type_symbol
_atom_site_fract_x
_atom_site_fract_y
_atom_site_fract_z
O1	O	0.099025	-1.989813	0.186963
O2	O	0.099026	-1.560528	0.204709
O3	O	0.099023	-1.784043	-0.018806
O4	O	0.099028	-1.766298	0.410477
O5	O	-0.099032	-1.725199	0.039977
O6	O	-0.099029	-1.501685	0.263491
O7	O	-0.099030	-1.930969	0.245745
Cu8	Cu	-0.117113	-1.710954	0.259986
Cu9	Cu	0.117110	-1.780544	0.190468
O10	O	-0.099027	-1.707454	0.469260
C11	C	-0.000001	-1.476120	0.232394
C12	C	-0.000000	-1.312277	0.227295
N13	N	-0.281853	-1.662019	0.308880
C14	C	-0.000002	-1.752916	-0.044402
C15	C	0.000003	-1.747818	-0.208247
C16	C	-0.655806	-1.947000	0.024122
C17	C	-0.531145	-1.984017	-0.012873
C18	C	-0.468816	-1.903520	0.067562
C19	C	-0.531160	-1.786001	0.184998
C20	C	-0.655833	-1.748988	0.222004
C21	C	-0.468843	-1.705508	0.265444
C22	C	-0.531188	-1.587989	0.382881
C23	C	-0.655849	-1.550981	0.419880
C24	C	-0.718178	-1.631478	0.339445
C25	C	-0.344170	-1.742521	0.228438
C26	C	-0.344198	-1.544510	0.426321
C27	C	-0.468859	-1.507492	0.463315
N28	N	0.281850	-1.829490	0.141563
C29	C	0.000000	-2.015378	0.218059
C30	C	0.000007	-2.179223	0.223156
C31	C	0.000001	-1.738582	0.494855
C32	C	0.000004	-1.743682	0.658697
H33	H	-0.367311	-1.933665	0.037435
C34	C	-0.724362	-2.035533	-0.064347
H35	H	-0.669381	-2.110826	-0.139586
H36	H	-0.773007	-1.967196	-0.112069
H37	H	-0.772980	-2.083228	0.004035
H38	H	-0.519635	-1.411806	0.558935
H39	H	-0.819687	-1.601335	0.369561
H40	H	-0.480388	-2.079701	-0.108487
C41	C	-0.275655	-1.455953	0.514810
H42	H	-0.330638	-1.380678	0.590064
H43	H	-0.227032	-1.408263	0.446441
H44	H	-0.227014	-1.524300	0.562541
C45	C	-0.275599	-1.871788	0.099278
H46	H	-0.192426	-1.882319	0.088765
H47	H	-0.296033	-1.848406	0.006634
H48	H	-0.296024	-1.964408	0.122769
C49	C	-0.724425	-1.421737	0.549078
H50	H	-0.669454	-1.379092	0.591680
H51	H	-0.773042	-1.461210	0.625668
H52	H	-0.773073	-1.345160	0.509582
