data_functionalizedCrystal
_audit_creation_method	'MofGen! by Chris Wilmer'
_symmetry_space_group_name_H-M	'P1'
_symmetry_Int_Tables_number	1
_symmetry_cell_setting	triclinic
loop_
_symmetry_equiv_pos_as_xyz
  x,y,z
_cell_length_a	21.395362
_cell_length_b	19.120786
_cell_length_c	21.395355
_cell_angle_alpha	87.540705
_cell_angle_beta	89.956060
_cell_angle_gamma	92.480156
loop_
_atom_site_label
_atom_site_type_symbol
_atom_site_fract_x
_atom_site_fract_y
_atom_site_fract_z
Zn1	Zn	0.947248	-0.279415	-0.343943
Zn2	Zn	1.280582	0.053918	-0.010610
Zn3	Zn	1.613915	0.387252	0.322724
Zn4	Zn	0.942691	-0.396855	-0.234692
Zn5	Zn	1.276024	-0.063522	0.098641
Zn6	Zn	1.609357	0.269811	0.431974
Zn7	Zn	0.842462	-0.279448	-0.239143
Zn8	Zn	1.175795	0.053886	0.094190
Zn9	Zn	1.509129	0.387219	0.427524
Zn10	Zn	0.837972	-0.396870	-0.339397
Zn11	Zn	1.171305	-0.063536	-0.006063
Zn12	Zn	1.504638	0.269797	0.327270
O13	O	0.892593	-0.338147	-0.289294
O14	O	1.225926	-0.004814	0.044040
O15	O	1.559260	0.328520	0.377373
O16	O	1.034322	-0.294974	-0.329491
O17	O	1.367656	0.038359	0.003843
O18	O	1.700989	0.371693	0.337176
O19	O	0.929367	-0.381289	-0.147605
O20	O	1.262700	-0.047955	0.185729
O21	O	1.596034	0.285378	0.519062
O22	O	0.860149	-0.181153	-0.256810
O23	O	1.193482	0.152181	0.076523
O24	O	1.526815	0.485514	0.409856
O25	O	1.030974	-0.381257	-0.249225
O26	O	1.364307	-0.047924	0.084109
O27	O	1.697641	0.285410	0.417442
O28	O	0.937135	-0.181129	-0.333806
O29	O	1.270468	0.152205	-0.000473
O30	O	1.603801	0.485538	0.332860
O31	O	0.855729	-0.295030	-0.150874
O32	O	1.189063	0.038304	0.182459
O33	O	1.522396	0.371637	0.515792
O34	O	0.754188	-0.295044	-0.252402
O35	O	1.087521	0.038290	0.080932
O36	O	1.420854	0.371623	0.414265
O37	O	0.852496	-0.381281	-0.427678
O38	O	1.185829	-0.047948	-0.094345
O39	O	1.519162	0.285385	0.238989
O40	O	0.750889	-0.381313	-0.326058
O41	O	1.084222	-0.047980	0.007276
O42	O	1.417555	0.285353	0.340609
O43	O	0.932781	-0.294988	-0.431018
O44	O	1.266114	0.038345	-0.097685
O45	O	1.599447	0.371679	0.235649
O46	O	0.925013	-0.495148	-0.244816
O47	O	1.258346	-0.161815	0.088517
O48	O	1.591680	0.171519	0.421850
O49	O	0.848076	-0.495159	-0.321742
O50	O	1.181410	-0.161825	0.011591
O51	O	1.514743	0.171508	0.344925
C52	C	0.729804	-0.338184	-0.289220
C53	C	1.063137	-0.004851	0.044114
C54	C	1.396471	0.328483	0.377447
C55	C	0.660162	-0.338217	-0.289202
C56	C	0.993495	-0.004884	0.044131
C57	C	1.326828	0.328450	0.377464
C58	C	0.885580	-0.520639	-0.282317
C59	C	1.218913	-0.187306	0.051017
C60	C	1.552247	0.146028	0.384350
C61	C	0.882637	-0.598710	-0.279353
C62	C	1.215970	-0.265376	0.053981
C63	C	1.549304	0.067957	0.387314
C64	C	0.625745	-0.383197	-0.327493
C65	C	0.959078	-0.049864	0.005841
C66	C	1.292411	0.283470	0.339174
C67	C	0.560310	-0.383180	-0.327521
C68	C	0.893643	-0.049846	0.005812
C69	C	1.226977	0.283487	0.339146
C70	C	0.529294	-0.338190	-0.289248
C71	C	0.862628	-0.004856	0.044085
C72	C	1.195961	0.328477	0.377419
C73	C	0.563719	-0.293201	-0.250955
C74	C	0.897053	0.040132	0.082378
C75	C	1.230386	0.373466	0.415712
C76	C	0.629153	-0.293215	-0.250932
C77	C	0.962486	0.040119	0.082401
C78	C	1.295820	0.373452	0.415734
C79	C	0.425784	-0.332531	-0.233058
C80	C	0.759118	0.000802	0.100275
C81	C	1.092451	0.334135	0.433609
C82	C	0.360352	-0.332523	-0.233080
C83	C	0.693685	0.000811	0.100254
C84	C	1.027018	0.334144	0.433587
C85	C	0.327475	-0.338144	-0.289319
C86	C	0.660809	-0.004811	0.044015
C87	C	0.994142	0.328523	0.377348
C88	C	0.360039	-0.343789	-0.345537
C89	C	0.693372	-0.010455	-0.012204
C90	C	1.026706	0.322878	0.321129
C91	C	0.425473	-0.343802	-0.345515
C92	C	0.758806	-0.010469	-0.012181
C93	C	1.092139	0.322865	0.321152
C94	C	0.458343	-0.338170	-0.289269
C95	C	0.791676	-0.004836	0.044065
C96	C	1.125009	0.328497	0.377398
C97	C	0.222107	-0.383108	-0.327643
C98	C	0.555440	-0.049774	0.005690
C99	C	0.888773	0.283559	0.339023
C100	C	0.156671	-0.383086	-0.327673
C101	C	0.490004	-0.049752	0.005660
C102	C	0.823338	0.283581	0.338993
C103	C	0.160081	-0.293111	-0.251101
C104	C	0.493415	0.040223	0.082232
C105	C	0.826748	0.373556	0.415565
C106	C	0.225516	-0.293129	-0.251077
C107	C	0.558849	0.040204	0.082256
C108	C	0.892183	0.373538	0.415589
C109	C	0.256525	-0.338131	-0.289347
C110	C	0.589858	-0.004798	0.043986
C111	C	0.923191	0.328535	0.377319
C112	C	0.921307	-0.635315	-0.318080
C113	C	1.254640	-0.301981	0.015253
C114	C	1.587974	0.031352	0.348586
C115	C	0.918539	-0.708671	-0.315297
C116	C	1.251873	-0.375337	0.018037
C117	C	1.585206	-0.042004	0.351370
C118	C	0.877104	-0.745420	-0.273781
C119	C	1.210438	-0.412087	0.059552
C120	C	1.543771	-0.078753	0.392885
C121	C	0.838430	-0.708810	-0.235052
C122	C	1.171763	-0.375477	0.098281
C123	C	1.505097	-0.042143	0.431615
C124	C	0.841195	-0.635456	-0.237839
C125	C	1.174528	-0.302122	0.095494
C126	C	1.507862	0.031211	0.428827
C127	C	0.866749	-0.966907	-0.263361
C128	C	1.200082	-0.633574	0.069973
C129	C	1.533416	-0.300240	0.403306
C130	C	0.863988	-1.040267	-0.260575
C131	C	1.197322	-0.706933	0.072758
C132	C	1.530655	-0.373600	0.406092
C133	C	0.944097	-1.040122	-0.340821
C134	C	1.277430	-0.706789	-0.007487
C135	C	1.610764	-0.373455	0.325846
C136	C	0.946861	-0.966766	-0.343602
C137	C	1.280194	-0.633433	-0.010269
C138	C	1.613528	-0.300099	0.323065
C139	C	0.908185	-0.930162	-0.304875
C140	C	1.241518	-0.596829	0.028459
C141	C	1.574851	-0.263496	0.361792
C142	C	0.874276	-0.820402	-0.270933
C143	C	1.207609	-0.487068	0.062400
C144	C	1.540942	-0.153735	0.395733
C145	C	0.911011	-0.855182	-0.307726
C146	C	1.244344	-0.521849	0.025607
C147	C	1.577677	-0.188516	0.358940
C148	C	1.056018	-0.338110	-0.289369
C149	C	1.389351	-0.004777	0.043965
C150	C	1.722685	0.328557	0.377298
C151	C	1.125660	-0.338094	-0.289400
C152	C	1.458993	-0.004761	0.043933
C153	C	1.792326	0.328572	0.377266
C154	C	0.892646	-0.338133	-0.452718
C155	C	1.225979	-0.004799	-0.119384
C156	C	1.559312	0.328534	0.213949
C157	C	0.892668	-0.338127	-0.522359
C158	C	1.226001	-0.004793	-0.189026
C159	C	1.559335	0.328540	0.144307
C160	C	0.899651	-0.154942	-0.296312
C161	C	1.232984	0.178391	0.037021
C162	C	1.566317	0.511724	0.370355
C163	C	0.902658	-0.076871	-0.299303
C164	C	1.235992	0.256462	0.034031
C165	C	1.569325	0.589795	0.367364
C166	C	0.934471	-0.293192	-0.556813
C167	C	1.267804	0.040142	-0.223479
C168	C	1.601137	0.373475	0.109854
C169	C	0.934471	-0.293162	-0.622249
C170	C	1.267804	0.040172	-0.288916
C171	C	1.601138	0.373505	0.044417
C172	C	0.892675	-0.338079	-0.653229
C173	C	1.226008	-0.004745	-0.319896
C174	C	1.559341	0.328588	0.013437
C175	C	0.850864	-0.383017	-0.618768
C176	C	1.184197	-0.049684	-0.285435
C177	C	1.517531	0.283650	0.047899
C178	C	0.850861	-0.383041	-0.553333
C179	C	1.184194	-0.049707	-0.219999
C180	C	1.517527	0.283626	0.113334
C181	C	0.885297	-0.401324	-0.754484
C182	C	1.218630	-0.067991	-0.421151
C183	C	1.551964	0.265342	-0.087818
C184	C	0.885305	-0.401302	-0.819918
C185	C	1.218638	-0.067968	-0.486585
C186	C	1.551971	0.265365	-0.153252
C187	C	0.892681	-0.338005	-0.855053
C188	C	1.226015	-0.004671	-0.521720
C189	C	1.559348	0.328662	-0.188386
C190	C	0.900064	-0.274728	-0.824746
C191	C	1.233397	0.058605	-0.491413
C192	C	1.566730	0.391938	-0.158080
C193	C	0.900060	-0.274752	-0.759311
C194	C	1.233394	0.058581	-0.425978
C195	C	1.566727	0.391914	-0.092644
C196	C	0.892673	-0.338058	-0.724183
C197	C	1.226007	-0.004724	-0.390849
C198	C	1.559340	0.328609	-0.057516
C199	C	0.934487	-0.293033	-0.960461
C200	C	1.267820	0.040300	-0.627127
C201	C	1.601153	0.373634	-0.293794
C202	C	0.934483	-0.293002	-1.025898
C203	C	1.267816	0.040332	-0.692565
C204	C	1.601149	0.373665	-0.359232
C205	C	0.850879	-0.382863	-1.022416
C206	C	1.184212	-0.049530	-0.689082
C207	C	1.517546	0.283803	-0.355749
C208	C	0.850880	-0.382888	-0.956979
C209	C	1.184213	-0.049555	-0.623646
C210	C	1.517547	0.283778	-0.290313
C211	C	0.892687	-0.337974	-0.926006
C212	C	1.226020	-0.004641	-0.592672
C213	C	1.559354	0.328692	-0.259339
C214	C	0.892579	-0.338110	-0.126508
C215	C	1.225912	-0.004777	0.206826
C216	C	1.559245	0.328556	0.540159
C217	C	0.892685	-0.337919	-0.056874
C218	C	1.226019	-0.004585	0.276459
C219	C	1.559352	0.328748	0.609793
H220	H	0.650988	-0.419840	-0.358656
H221	H	0.984321	-0.086507	-0.025323
H222	H	1.317655	0.246826	0.308011
Br223	Br	0.977548	-0.585447	-0.374420
Br224	Br	1.310881	-0.252114	-0.041087
Br225	Br	1.644215	0.081219	0.292246
H226	H	0.816831	-0.419587	-0.643996
H227	H	1.150165	-0.086253	-0.310663
H228	H	1.483498	0.247080	0.022670
Br229	Br	0.991229	-0.232024	-1.072658
Br230	Br	1.324563	0.101310	-0.739325
Br231	Br	1.657896	0.434643	-0.405992
H232	H	0.816843	-0.419484	-0.928926
H233	H	1.150176	-0.086150	-0.595593
H234	H	1.483510	0.247183	-0.262260
Br235	Br	0.818038	-0.870282	-0.214598
Br236	Br	1.151371	-0.536948	0.118735
Br237	Br	1.484705	-0.203615	0.452068
Br238	Br	0.794146	-0.443815	-1.064453
Br239	Br	1.127480	-0.110482	-0.731120
Br240	Br	1.460813	0.222852	-0.397786
Br241	Br	0.788710	-0.585776	-0.185281
Br242	Br	1.122043	-0.252443	0.148053
Br243	Br	1.455376	0.080890	0.481386
Br244	Br	0.910081	-0.188819	-0.872421
Br245	Br	1.243414	0.144514	-0.539087
Br246	Br	1.576748	0.477848	-0.205754
H247	H	0.816817	-0.419631	-0.525281
H248	H	1.150151	-0.086298	-0.191948
H249	H	1.483484	0.247035	0.141386
Br250	Br	0.991206	-0.232234	-0.514780
Br251	Br	1.324540	0.101099	-0.181447
Br252	Br	1.657873	0.434432	0.151887
Br253	Br	0.264194	-0.444178	-0.379582
Br254	Br	0.597527	-0.110844	-0.046249
Br255	Br	0.930861	0.222489	0.287084
Br256	Br	0.971012	-0.758346	-0.367869
Br257	Br	1.304345	-0.425013	-0.034536
Br258	Br	1.637678	-0.091680	0.298798
Br259	Br	1.003097	-0.916896	-0.399945
Br260	Br	1.336431	-0.583563	-0.066612
Br261	Br	1.669764	-0.250230	0.266721
Br262	Br	0.996582	-1.089802	-0.393377
Br263	Br	1.329916	-0.756468	-0.060044
Br264	Br	1.663249	-0.423135	0.273289
H265	H	0.968511	-0.256566	-0.650307
H266	H	1.301844	0.076767	-0.316974
H267	H	1.635177	0.410100	0.016360
H268	H	0.253538	-0.256505	-0.219894
H269	H	0.586872	0.076828	0.113439
H270	H	0.920205	0.410162	0.446773
H271	H	0.906070	-0.223231	-0.734638
H272	H	1.239403	0.110103	-0.401305
H273	H	1.572736	0.443436	-0.067971
H274	H	0.804690	-0.738737	-0.201252
H275	H	1.138023	-0.405404	0.132081
H276	H	1.471357	-0.072071	0.465415
H277	H	0.333272	-0.348365	-0.391333
H278	H	0.666606	-0.015031	-0.058000
H279	H	0.999939	0.318302	0.275334
Br280	Br	0.991222	-0.232078	-0.918421
Br281	Br	1.324555	0.101256	-0.585088
Br282	Br	1.657888	0.434589	-0.251754
Br283	Br	0.470396	-0.324903	-0.156727
Br284	Br	0.803729	0.008431	0.176607
Br285	Br	1.137062	0.341764	0.509940
H286	H	0.830244	-1.070186	-0.226768
H287	H	1.163577	-0.736853	0.106566
H288	H	1.496911	-0.403519	0.439899
H289	H	0.879297	-0.452825	-0.844589
H290	H	1.212631	-0.119492	-0.511256
H291	H	1.545964	0.213842	-0.177922
Br292	Br	0.875303	-0.487237	-0.706808
Br293	Br	1.208637	-0.153904	-0.373474
Br294	Br	1.541970	0.179429	-0.040141
H295	H	0.451983	-0.348396	-0.391290
H296	H	0.785317	-0.015063	-0.057956
H297	H	1.118650	0.318271	0.275377
Br298	Br	0.109961	-0.444130	-0.379649
Br299	Br	0.443294	-0.110796	-0.046316
Br300	Br	0.776628	0.222537	0.287018
Br301	Br	0.513591	-0.444227	-0.379491
Br302	Br	0.846925	-0.110894	-0.046158
Br303	Br	1.180258	0.222440	0.287175
Br304	Br	0.117996	-0.232045	-0.199164
Br305	Br	0.451329	0.101288	0.134169
Br306	Br	0.784663	0.434622	0.467502
H307	H	0.538462	-0.256569	-0.219794
H308	H	0.871795	0.076765	0.113539
H309	H	1.205129	0.410098	0.446873
Br310	Br	0.316165	-0.324864	-0.156785
Br311	Br	0.649498	0.008469	0.176549
Br312	Br	0.982832	0.341803	0.509882
H313	H	0.835258	-0.937110	-0.231826
H314	H	1.168592	-0.603777	0.101507
H315	H	1.501925	-0.270443	0.434840
Br316	Br	0.675865	-0.232164	-0.198964
Br317	Br	1.009198	0.101169	0.134369
Br318	Br	1.342531	0.434503	0.467703
H319	H	0.944745	-0.825259	-0.341530
H320	H	1.278078	-0.491925	-0.008197
H321	H	1.611411	-0.158592	0.325136
