data_functionalizedCrystal
_audit_creation_method	'MofGen! by Chris Wilmer'
_symmetry_space_group_name_H-M	'P1'
_symmetry_Int_Tables_number	1
_symmetry_cell_setting	triclinic
loop_
_symmetry_equiv_pos_as_xyz
  x,y,z
_cell_length_a	11.792241
_cell_length_b	17.699083
_cell_length_c	16.176319
_cell_angle_alpha	90.004339
_cell_angle_beta	89.998216
_cell_angle_gamma	96.261785
loop_
_atom_site_label
_atom_site_type_symbol
_atom_site_fract_x
_atom_site_fract_y
_atom_site_fract_z
O1	O	1.505668	-0.103735	-0.068668
O2	O	1.175199	-0.114426	-0.068688
O3	O	1.349770	0.001059	-0.068670
O4	O	1.331097	-0.219220	-0.068686
O5	O	1.349750	0.001060	0.068823
O6	O	1.175178	-0.114425	0.068806
O7	O	1.505648	-0.103734	0.068825
Cu8	Cu	1.340411	-0.109080	0.081370
Cu9	Cu	1.340435	-0.109080	-0.081232
O10	O	1.331076	-0.219219	0.068808
C11	C	1.132906	-0.113754	0.000057
C12	C	1.006916	-0.111744	0.000049
C13	C	0.776248	-0.108048	0.000073
C14	C	0.904609	-0.110101	0.000060
C15	C	1.547941	-0.104406	0.000079
C16	C	1.673930	-0.106416	0.000081
C17	C	1.349091	0.029260	0.000077
C18	C	1.347083	0.113289	0.000077
C19	C	1.331756	-0.247420	0.000059
C20	C	1.333763	-0.331449	0.000053
N21	N	1.340402	-0.109079	0.195735
C22	C	1.449553	0.161364	0.000084
C23	C	1.447660	0.240317	0.000077
C24	C	1.343297	0.271194	0.000068
C25	C	1.240819	0.223113	0.000058
C26	C	1.242713	0.144161	0.000060
C27	C	1.233178	0.541517	0.000051
C28	C	1.231292	0.620475	0.000052
C29	C	1.438126	0.637673	0.000068
C30	C	1.440020	0.558721	0.000070
C31	C	1.337543	0.510647	0.000055
C32	C	1.339596	0.425037	0.000062
C33	C	1.341242	0.356803	0.000067
N34	N	1.340453	-0.109075	-0.195597
C35	C	1.409104	-0.155294	0.238996
C36	C	1.409116	-0.155291	0.325543
C37	C	1.340420	-0.109077	0.368827
C38	C	1.271715	-0.062857	0.325560
C39	C	1.271710	-0.062856	0.239014
C40	C	1.271736	-0.062858	0.674588
C41	C	1.271744	-0.062864	0.761140
C42	C	1.409143	-0.155293	0.761117
C43	C	1.409137	-0.155292	0.674572
C44	C	1.340438	-0.109069	0.631312
C45	C	1.340427	-0.109072	0.537468
C46	C	1.340424	-0.109078	0.462670
H47	H	1.534538	0.136230	0.000096
H48	H	1.149735	0.502384	0.000040
H49	H	1.215801	-0.025228	0.796379
H50	H	1.531101	0.279457	0.000084
C51	C	1.118010	0.654043	0.000204
C52	C	1.110849	0.698854	0.070952
C53	C	1.006511	0.729781	0.071126
H54	H	1.112879	0.684536	-0.047687
H55	H	1.057215	0.614126	0.000238
H56	H	1.171627	0.738765	0.070910
H57	H	1.115959	0.668378	0.118854
H58	H	0.945716	0.689864	0.071159
H59	H	1.001389	0.760271	0.023232
H60	H	1.001634	0.760183	0.119130
C61	C	1.483813	-0.205496	0.192155
C62	C	1.544004	-0.245952	0.248571
C63	C	1.612852	-0.292198	0.205454
H64	H	1.437327	-0.240184	0.158390
H65	H	1.536190	-0.174730	0.158412
H66	H	1.491633	-0.276716	0.282300
H67	H	1.590511	-0.211284	0.282338
H68	H	1.665229	-0.261432	0.171711
H69	H	1.566358	-0.326881	0.171691
H70	H	1.653708	-0.319648	0.243725
H71	H	1.155844	0.248259	0.000046
C72	C	1.197019	-0.012656	0.627777
C73	C	1.136835	0.027796	0.684210
C74	C	1.067979	0.074044	0.641115
H75	H	1.243499	0.022035	0.594014
H76	H	1.144638	-0.043420	0.594033
H77	H	1.189211	0.058559	0.717941
H78	H	1.090335	-0.006874	0.717975
H79	H	1.015597	0.043279	0.607370
H80	H	1.114467	0.108729	0.607354
H81	H	1.027128	0.101491	0.679398
H82	H	1.215787	-0.025224	0.360809
H83	H	1.521567	0.676825	0.000075
C84	C	1.196994	-0.012656	0.192191
C85	C	1.136809	0.027801	0.248619
C86	C	1.067960	0.074049	0.205516
H87	H	1.243478	0.022031	0.158428
H88	H	1.144612	-0.043421	0.158446
H89	H	1.189184	0.058564	0.282349
H90	H	1.090303	-0.006866	0.282383
H91	H	1.015579	0.043284	0.171772
H92	H	1.114453	0.108731	0.171755
H93	H	1.027109	0.101500	0.243796
H94	H	1.465084	-0.192927	0.796350
C95	C	1.131337	0.092089	0.000094
C96	C	1.039532	0.136026	0.000107
C97	C	0.936913	0.088084	0.000144
H98	H	1.127625	0.060915	-0.047842
H99	H	1.127703	0.060945	0.048059
H100	H	1.043164	0.167157	-0.047853
H101	H	1.043206	0.167199	0.048039
H102	H	0.933279	0.056940	0.048109
H103	H	0.933213	0.056912	-0.047792
H104	H	0.874612	0.117888	0.000161
C105	C	1.483864	-0.205337	0.372552
C106	C	1.560882	-0.159792	0.422216
C107	C	1.629774	-0.205867	0.465522
H108	H	1.437397	-0.239972	0.406384
H109	H	1.524838	-0.232845	0.334402
H110	H	1.519912	-0.132296	0.460363
H111	H	1.607374	-0.125158	0.388405
H112	H	1.670748	-0.233375	0.427371
H113	H	1.583298	-0.240500	0.499349
H114	H	1.682046	-0.174971	0.499218
C115	C	1.553446	0.525344	0.000036
C116	C	1.642782	0.584346	0.000017
C117	C	1.747288	0.553630	-0.000029
H118	H	1.558640	0.494916	0.047969
H119	H	1.558548	0.494921	-0.047931
H120	H	1.637682	0.614756	0.047979
H121	H	1.637625	0.614779	-0.047913
H122	H	1.752390	0.523207	-0.047995
H123	H	1.752470	0.523202	0.047906
H124	H	1.807915	0.593658	-0.000049
C125	C	1.483847	-0.205491	0.627728
C126	C	1.544042	-0.245949	0.684139
C127	C	1.612891	-0.292191	0.641018
H128	H	1.437362	-0.240178	0.593961
H129	H	1.536222	-0.174722	0.593985
H130	H	1.491673	-0.276716	0.717867
H131	H	1.590548	-0.211282	0.717908
H132	H	1.665266	-0.261422	0.607276
H133	H	1.566398	-0.326873	0.607253
H134	H	1.653749	-0.319642	0.679287
