data_functionalizedCrystal
_audit_creation_method	'MofGen! by Chris Wilmer'
_symmetry_space_group_name_H-M	'P1'
_symmetry_Int_Tables_number	1
_symmetry_cell_setting	triclinic
loop_
_symmetry_equiv_pos_as_xyz
  x,y,z
_cell_length_a	17.640112
_cell_length_b	18.101395
_cell_length_c	18.101376
_cell_angle_alpha	89.903391
_cell_angle_beta	101.150850
_cell_angle_gamma	101.255692
loop_
_atom_site_label
_atom_site_type_symbol
_atom_site_fract_x
_atom_site_fract_y
_atom_site_fract_z
Zn1	Zn	1.208463	-0.065458	-0.190201
Zn2	Zn	1.708463	0.434542	0.309799
Zn3	Zn	1.208258	-0.189495	-0.066401
Zn4	Zn	1.708258	0.310505	0.433599
Zn5	Zn	1.076212	-0.090679	-0.091385
Zn6	Zn	1.576212	0.409321	0.408615
Zn7	Zn	1.076253	-0.214301	-0.215166
Zn8	Zn	1.576253	0.285699	0.284834
O9	O	1.142296	-0.139983	-0.140788
O10	O	1.642296	0.360017	0.359212
O11	O	1.319028	-0.060975	-0.152875
O12	O	1.819028	0.439025	0.347125
O13	O	1.190639	-0.176561	0.033898
O14	O	1.690639	0.323439	0.533898
O15	O	1.093824	0.016312	-0.104500
O16	O	1.593824	0.516312	0.395500
O17	O	1.318878	-0.152104	-0.061920
O18	O	1.818878	0.347896	0.438080
O19	O	1.190988	0.034842	-0.177100
O20	O	1.690988	0.534842	0.322900
O21	O	1.093626	-0.103961	0.015543
O22	O	1.593626	0.396039	0.515543
O23	O	0.965625	-0.128015	-0.128708
O24	O	1.465625	0.371985	0.371292
O25	O	1.093893	-0.194383	-0.315469
O26	O	1.593893	0.305617	0.184531
O27	O	0.965655	-0.218839	-0.219650
O28	O	1.465655	0.281161	0.280350
O29	O	1.191027	-0.085029	-0.297127
O30	O	1.691027	0.414971	0.202873
O31	O	1.190679	-0.296431	-0.086128
O32	O	1.690679	0.203569	0.413872
O33	O	1.093695	-0.314656	-0.195425
O34	O	1.593695	0.185344	0.304575
C35	C	0.936965	-0.178856	-0.179599
C36	C	1.436965	0.321144	0.320401
C37	C	0.849123	-0.195504	-0.196221
C38	C	1.349123	0.304496	0.303779
C39	C	0.560035	-0.013499	-0.014526
C40	C	1.060035	0.486501	0.485474
C41	C	0.477495	-0.029157	-0.030154
C42	C	0.977495	0.470843	0.469846
C43	C	0.477580	-0.123863	-0.124689
C44	C	0.977580	0.376137	0.375311
C45	C	0.560122	-0.108210	-0.109071
C46	C	1.060122	0.391790	0.390929
C47	C	0.601343	-0.053028	-0.053988
C48	C	1.101343	0.446972	0.446012
C49	C	0.601430	-0.147739	-0.148533
C50	C	1.101430	0.352261	0.351467
C51	C	0.683966	-0.132091	-0.132914
C52	C	1.183966	0.367909	0.367086
C53	C	0.725193	-0.076913	-0.077832
C54	C	1.225193	0.423087	0.422168
C55	C	0.683879	-0.037379	-0.038369
C56	C	1.183879	0.462621	0.461631
C57	C	0.560208	-0.202925	-0.203612
C58	C	1.060208	0.297075	0.296388
C59	C	0.601516	-0.242454	-0.243075
C60	C	1.101516	0.257546	0.256925
C61	C	0.684053	-0.226802	-0.227459
C62	C	1.184053	0.273198	0.272541
C63	C	0.725280	-0.171624	-0.172377
C64	C	1.225280	0.328376	0.327623
C65	C	0.725367	-0.266335	-0.266923
C66	C	1.225367	0.233665	0.233077
C67	C	0.807902	-0.250686	-0.251303
C68	C	1.307902	0.249314	0.248697
C69	C	0.807815	-0.155975	-0.156758
C70	C	1.307815	0.344025	0.343242
C71	C	1.142191	-0.332414	-0.140787
C72	C	1.642191	0.167586	0.359213
C73	C	1.142218	-0.414723	-0.140797
C74	C	1.642218	0.085277	0.359203
C75	C	1.142391	-0.713781	-0.140804
C76	C	1.642391	-0.213781	0.359196
C77	C	1.081513	-0.693926	-0.209686
C78	C	1.581513	-0.193926	0.290314
C79	C	1.081224	-0.608363	-0.209561
C80	C	1.581224	-0.108363	0.290439
C81	C	1.142305	-0.565415	-0.140801
C82	C	1.642305	-0.065415	0.359199
C83	C	1.119698	-0.600942	-0.067027
C84	C	1.619698	-0.100942	0.432973
C85	C	1.119306	-0.686661	-0.067444
C86	C	1.619306	-0.186661	0.432556
C87	C	1.226009	-0.666264	-0.144984
C88	C	1.726009	-0.166264	0.355016
C89	C	1.225519	-0.580704	-0.146789
C90	C	1.725519	-0.080704	0.353211
C91	C	1.142258	-0.481564	-0.140795
C92	C	1.642258	0.018436	0.359205
C93	C	1.142437	-0.797632	-0.140806
C94	C	1.642437	-0.297632	0.359194
C95	C	1.348430	-0.100959	-0.101826
C96	C	1.848430	0.399041	0.398174
C97	C	1.436272	-0.084330	-0.085223
C98	C	1.936272	0.415670	0.414777
C99	C	1.142488	-0.139659	-0.333915
C100	C	1.642488	0.360341	0.166085
C101	C	1.142569	-0.139521	-0.416214
C102	C	1.642569	0.360479	0.083786
C103	C	1.142424	0.053203	-0.140802
C104	C	1.642424	0.553203	0.359198
C105	C	1.142479	0.135527	-0.140808
C106	C	1.642479	0.635527	0.359192
C107	C	1.142151	-0.140244	0.051595
C108	C	1.642151	0.359756	0.551595
C109	C	1.142223	-0.140144	0.133923
C110	C	1.642223	0.359856	0.633923
C111	C	1.142453	-0.139730	0.433056
C112	C	1.642453	0.360270	0.933056
C113	C	1.204114	-0.184714	0.413440
C114	C	1.704114	0.315286	0.913440
C115	C	1.203870	-0.185092	0.327777
C116	C	1.703870	0.314908	0.827777
C117	C	1.142339	-0.139936	0.284653
C118	C	1.642339	0.360064	0.784653
C119	C	1.059241	-0.177387	0.300219
C120	C	1.559241	0.322613	0.800219
C121	C	1.059664	-0.177613	0.385944
C122	C	1.559664	0.322387	0.885944
C123	C	1.163136	-0.057340	0.405145
C124	C	1.663136	0.442660	0.905145
C125	C	1.164912	-0.057511	0.319829
C126	C	1.664912	0.442489	0.819829
C127	C	1.142270	-0.140051	0.200780
C128	C	1.642270	0.359949	0.700780
C129	C	1.142516	-0.139617	0.516928
C130	C	1.642516	0.360383	1.016928
H131	H	0.717443	0.007567	0.006474
H132	H	1.217443	0.507567	0.506474
C133	C	1.287694	-0.150582	0.456884
C134	C	1.787694	0.349418	0.956884
N135	N	1.350648	-0.124874	0.489611
N136	N	1.850648	0.375126	0.989611
H137	H	1.242565	-0.557043	-0.201005
H138	H	1.742565	-0.057043	0.298995
H139	H	0.593600	0.031447	0.030317
H140	H	1.093600	0.531447	0.530317
C141	C	0.556163	-0.303152	-0.303665
C142	C	1.056163	0.196848	0.196335
N143	N	0.522005	-0.348868	-0.349305
N144	N	1.022005	0.151132	0.150695
C145	C	0.853343	-0.294167	-0.294717
C146	C	1.353343	0.205833	0.205283
N147	N	0.887570	-0.326918	-0.327417
N148	N	1.387570	0.173082	0.172583
H149	H	0.691792	-0.311269	-0.311766
H150	H	1.191792	0.188731	0.188234
H151	H	1.042058	-0.238329	0.402782
H152	H	1.542058	0.261671	0.902782
H153	H	0.443864	0.003042	0.001980
H154	H	0.943864	0.503042	0.501980
C155	C	1.102459	-0.011793	0.420995
C156	C	1.602459	0.488207	0.920995
N157	N	1.056756	0.022509	0.432940
N158	N	1.556756	0.522509	0.932940
H159	H	0.444006	-0.168795	-0.169535
H160	H	0.944006	0.331205	0.330465
C161	C	1.290044	-0.539623	-0.082249
C162	C	1.790044	-0.039623	0.417751
N163	N	1.338642	-0.508683	-0.033632
N164	N	1.838642	-0.008683	0.466368
H165	H	1.041288	-0.237596	0.275563
H166	H	1.541288	0.262404	0.775563
C167	C	1.243599	-0.015472	0.449331
C168	C	1.743599	0.484528	0.949331
N169	N	1.304207	0.016055	0.482612
N170	N	1.804207	0.516055	0.982612
H171	H	1.012046	-0.146410	0.270901
H172	H	1.512046	0.353590	0.770901
H173	H	1.190639	-0.245066	0.432599
H174	H	1.690639	0.254934	0.932599
H175	H	0.841380	-0.111029	-0.111915
H176	H	1.341380	0.388971	0.388085
H177	H	0.493002	-0.215665	-0.216327
H178	H	0.993002	0.284335	0.283673
H179	H	1.226066	-0.029562	0.310933
H180	H	1.726066	0.470438	0.810933
H181	H	1.095374	-0.584549	-0.264758
H182	H	1.595374	-0.084549	0.235242
C183	C	1.287285	-0.682089	-0.076951
C184	C	1.787285	-0.182089	0.423049
N185	N	1.333433	-0.694014	-0.025709
N186	N	1.833433	-0.194014	0.474291
C187	C	1.100435	-0.718013	-0.284546
C188	C	1.600435	-0.218013	0.215454
N189	N	1.114686	-0.736161	-0.340932
N190	N	1.614686	-0.236161	0.159068
C191	C	1.108561	-0.008109	0.280192
C192	C	1.608561	0.491891	0.780192
N193	N	1.066112	0.029098	0.250336
N194	N	1.566112	0.529098	0.750336
C195	C	1.253836	-0.690008	-0.215303
C196	C	1.753836	-0.190008	0.284697
N197	N	1.274785	-0.707894	-0.268271
N198	N	1.774785	-0.207894	0.231729
C199	C	0.998289	-0.738861	-0.207754
C200	C	1.498289	-0.238861	0.292246
N201	N	0.935605	-0.772704	-0.206293
N202	N	1.435605	-0.272704	0.293707
C203	C	0.997480	-0.596651	-0.207561
C204	C	1.497480	-0.096651	0.292439
N205	N	0.934396	-0.587831	-0.206074
N206	N	1.434396	-0.087831	0.293926
C207	C	1.185386	-0.267196	0.296851
C208	C	1.685386	0.232804	0.796851
N209	N	1.171459	-0.329040	0.273558
N210	N	1.671459	0.170960	0.773558
H211	H	0.792398	-0.064174	-0.065115
H212	H	1.292398	0.435826	0.434885
C213	C	1.036726	-0.729407	-0.060186
C214	C	1.536726	-0.229407	0.439814
N215	N	0.974524	-0.761600	-0.054722
N216	N	1.474524	-0.261600	0.445278
H217	H	1.161720	-0.699399	-0.015221
H218	H	1.661720	-0.199399	0.484779
C219	C	1.177707	-0.562504	0.003267
C220	C	1.677707	-0.062504	0.503267
N221	N	1.221399	-0.533549	0.056212
N222	N	1.721399	-0.033549	0.556212
C223	C	0.995517	-0.136483	0.401774
C224	C	1.495517	0.363517	0.901774
N225	N	0.947196	-0.105511	0.413694
N226	N	1.447196	0.394489	0.913694
H227	H	1.059219	-0.591032	-0.061224
H228	H	1.559219	-0.091032	0.438776
H229	H	1.265508	-0.159766	0.318278
H230	H	1.765508	0.340234	0.818278
