data_functionalizedCrystal
_audit_creation_method	'MofGen! by Chris Wilmer'
_symmetry_space_group_name_H-M	'P1'
_symmetry_Int_Tables_number	1
_symmetry_cell_setting	triclinic
loop_
_symmetry_equiv_pos_as_xyz
  x,y,z
_cell_length_a	6.394989
_cell_length_b	17.699083
_cell_length_c	16.776229
_cell_angle_alpha	90.001114
_cell_angle_beta	90.003593
_cell_angle_gamma	84.890363
loop_
_atom_site_label
_atom_site_type_symbol
_atom_site_fract_x
_atom_site_fract_y
_atom_site_fract_z
O1	O	-0.264131	-1.006774	-0.066171
O2	O	0.235869	-0.506774	0.433829
O3	O	-0.298495	-0.786746	-0.066197
O4	O	0.201505	-0.286746	0.433803
O5	O	0.022767	-0.899883	-0.066184
O6	O	0.522767	-0.399883	0.433816
O7	O	-0.585393	-0.893637	-0.066184
O8	O	-0.085393	-0.393637	0.433816
O9	O	0.022786	-0.899868	0.066392
O10	O	0.522786	-0.399868	0.566392
O11	O	-0.298476	-0.786731	0.066380
O12	O	0.201524	-0.286731	0.566380
O13	O	-0.264112	-1.006758	0.066405
O14	O	0.235888	-0.506758	0.566405
Zn15	Zn	-0.281290	-0.896742	0.087442
Zn16	Zn	0.218710	-0.396742	0.587442
Zn17	Zn	-0.281316	-0.896763	-0.087233
Zn18	Zn	0.218684	-0.396763	0.412767
O19	O	-0.585374	-0.893621	0.066393
O20	O	-0.085374	-0.393621	0.566393
C21	C	-0.297254	-0.758529	0.000088
C22	C	0.202746	-0.258529	0.500088
C23	C	-0.293560	-0.674473	0.000078
C24	C	0.206440	-0.174473	0.500078
C25	C	-0.265353	-1.034976	0.000119
C26	C	0.234647	-0.534976	0.500119
C27	C	-0.269047	-1.119031	0.000123
C28	C	0.230953	-0.619031	0.500123
N29	N	-0.281271	-0.896733	0.206653
N30	N	0.218729	-0.396733	0.706653
C31	C	0.100592	-0.898640	0.000101
C32	C	0.600592	-0.398640	0.500101
C33	C	0.336808	-0.894866	0.000100
C34	C	0.836808	-0.394866	0.500100
N35	N	-0.281319	-0.896777	-0.206444
N36	N	0.218681	-0.396777	0.293556
C37	C	-0.482134	-0.627777	0.000079
C38	C	0.017866	-0.127777	0.500079
C39	C	-0.478651	-0.548798	0.000089
C40	C	0.021349	-0.048798	0.500089
C41	C	-0.286591	-0.516517	0.000093
C42	C	0.213409	-0.016517	0.500093
C43	C	-0.098003	-0.563220	0.000095
C44	C	0.401997	-0.063220	0.500095
C45	C	-0.101488	-0.642197	0.000091
C46	C	0.398512	-0.142197	0.500091
C47	C	-0.083942	-0.244713	0.000115
C48	C	0.416058	0.255287	0.500115
C49	C	-0.080470	-0.165730	0.000117
C50	C	0.419530	0.334270	0.500117
C51	C	-0.461104	-0.151314	0.000113
C52	C	0.038896	0.348686	0.500113
C53	C	-0.464590	-0.230291	0.000109
C54	C	0.035410	0.269709	0.500109
C55	C	-0.276002	-0.276987	0.000115
C56	C	0.223998	0.223013	0.500115
C57	C	-0.279782	-0.362625	0.000105
C58	C	0.220218	0.137375	0.500105
C59	C	-0.282810	-0.430881	0.000097
C60	C	0.217190	0.069119	0.500097
C61	C	-0.139075	-0.946847	0.248376
C62	C	0.360925	-0.446847	0.748376
C63	C	-0.139073	-0.946851	0.331828
C64	C	0.360927	-0.446851	0.831828
C65	C	-0.281280	-0.896745	0.373556
C66	C	0.218720	-0.396745	0.873556
C67	C	-0.423483	-0.846626	0.331828
C68	C	0.076517	-0.346626	0.831828
C69	C	-0.423473	-0.846619	0.248377
C70	C	0.076527	-0.346619	0.748377
C71	C	-0.423524	-0.846654	0.668375
C72	C	0.076476	-0.346654	1.168375
C73	C	-0.423527	-0.846667	0.751831
C74	C	0.076473	-0.346667	1.251831
C75	C	-0.139124	-0.946886	0.751826
C76	C	0.360876	-0.446886	1.251826
C77	C	-0.139114	-0.946879	0.668375
C78	C	0.360886	-0.446879	1.168375
C79	C	-0.281309	-0.896758	0.626654
C80	C	0.218691	-0.396758	1.126654
C81	C	-0.281307	-0.896753	0.536166
C82	C	0.218693	-0.396753	1.036166
C83	C	-0.281294	-0.896753	0.464043
C84	C	0.218706	-0.396753	0.964043
H85	H	-0.632207	-0.510780	0.000089
H86	H	-0.132207	-0.010780	0.500089
O87	O	0.014253	-1.000948	0.796825
O88	O	0.514253	-0.500948	1.296825
H89	H	0.177050	-0.989765	0.780808
H90	H	0.677050	-0.489765	1.280808
O91	O	-0.576877	-0.792589	0.376835
O92	O	-0.076877	-0.292589	0.876835
H93	H	-0.675748	-0.757738	0.333800
H94	H	-0.175748	-0.257738	0.833800
H95	H	-0.638531	-0.654053	0.000075
H96	H	-0.138531	-0.154053	0.500075
O97	O	0.119458	-0.295070	0.000123
O98	O	0.619458	0.204930	0.500123
H99	H	0.211380	-0.283373	-0.053914
H100	H	0.711380	0.216627	0.446086
O101	O	-0.576944	-0.792634	0.796843
O102	O	-0.076944	-0.292634	1.296843
H103	H	-0.675823	-0.757780	0.753813
H104	H	-0.175823	-0.257780	1.253813
H105	H	-0.539308	-0.805845	0.634412
H106	H	-0.039308	-0.305845	1.134412
O107	O	0.014275	-1.000917	0.623366
O108	O	0.514275	-0.500917	1.123366
H109	H	0.113173	-1.035759	0.666399
H110	H	0.613173	-0.535759	1.166399
H111	H	-0.539261	-0.805811	0.214407
H112	H	-0.039261	-0.305811	0.714407
O113	O	-0.664523	-0.100950	0.000124
O114	O	-0.164523	0.399050	0.500124
H115	H	-0.629847	-0.040608	0.000140
H116	H	-0.129847	0.459392	0.500140
H117	H	-0.023283	-0.987652	0.214406
H118	H	0.476717	-0.487652	0.714406
O119	O	0.126691	-0.130910	0.000127
O120	O	0.626691	0.369090	0.500127
H121	H	0.137354	-0.095268	0.054162
H122	H	0.637354	0.404732	0.554162
O123	O	-0.671737	-0.265111	0.000116
O124	O	-0.171737	0.234889	0.500116
H125	H	-0.802284	-0.219370	0.000129
H126	H	-0.302284	0.280630	0.500129
O127	O	0.101903	-0.692566	0.000097
O128	O	0.601903	-0.192566	0.500097
H129	H	0.109417	-0.728900	-0.053935
H130	H	0.609417	-0.228900	0.446065
O131	O	0.109156	-0.528408	0.000107
O132	O	0.609156	-0.028408	0.500107
H133	H	0.119861	-0.492774	-0.053930
H134	H	0.619861	0.007226	0.446070
O135	O	0.014257	-1.000915	0.376832
O136	O	0.514257	-0.500915	0.876832
H137	H	0.113112	-1.035767	0.333796
H138	H	0.613112	-0.535767	0.833796
