data_functionalizedCrystal
_audit_creation_method	'MofGen! by Chris Wilmer'
_symmetry_space_group_name_H-M	'P1'
_symmetry_Int_Tables_number	1
_symmetry_cell_setting	triclinic
loop_
_symmetry_equiv_pos_as_xyz
  x,y,z
_cell_length_a	12.759401
_cell_length_b	12.759394
_cell_length_c	12.759393
_cell_angle_alpha	90.030600
_cell_angle_beta	90.018496
_cell_angle_gamma	90.014017
loop_
_atom_site_label
_atom_site_type_symbol
_atom_site_fract_x
_atom_site_fract_y
_atom_site_fract_z
Zn1	Zn	1.606262	-0.418200	0.593988
Zn2	Zn	1.606158	-0.593919	0.418311
Zn3	Zn	1.430564	-0.418255	0.418328
Zn4	Zn	1.430555	-0.593838	0.593953
O5	O	1.518385	-0.506053	0.506145
O6	O	1.753269	-0.441520	0.570692
O7	O	1.582826	-0.570674	0.271293
O8	O	1.453917	-0.271227	0.441651
O9	O	1.753193	-0.570620	0.441623
O10	O	1.583002	-0.271186	0.570708
O11	O	1.453817	-0.441614	0.271305
O12	O	1.283541	-0.441536	0.441617
O13	O	1.453902	-0.570482	0.740979
O14	O	1.283535	-0.570536	0.570648
O15	O	1.582993	-0.441442	0.741005
O16	O	1.582817	-0.740929	0.441589
O17	O	1.453802	-0.740870	0.570632
C18	C	1.245417	-0.506034	0.506131
C19	C	1.128641	-0.506051	0.506150
C20	C	1.073803	-0.573329	0.573225
C21	C	0.964079	-0.573342	0.573236
C22	C	0.964040	-0.438796	0.439088
C23	C	1.073762	-0.438779	0.439083
C24	C	1.128681	-0.640601	0.640292
C25	C	1.073843	-0.707885	0.707372
C26	C	0.964119	-0.707898	0.707383
C27	C	0.909233	-0.640627	0.640315
C28	C	1.518326	-0.779021	0.506128
C29	C	1.518397	-0.895797	0.506156
C30	C	1.652713	-0.895597	0.640643
C31	C	1.719903	-0.950358	0.707895
C32	C	1.719966	-1.060079	0.707918
C33	C	1.652828	-1.115043	0.640684
C34	C	1.585637	-1.060282	0.573432
C35	C	1.585584	-0.950558	0.573414
C36	C	1.451318	-1.060482	0.438951
C37	C	1.451260	-0.950761	0.438921
C38	C	1.384181	-1.115446	0.371717
C39	C	1.316994	-1.060685	0.304458
C40	C	1.316935	-0.950957	0.304437
C41	C	1.384069	-0.896000	0.371669
C42	C	1.792418	-0.506073	0.506160
C43	C	1.909194	-0.506082	0.506166
C44	C	1.518458	-0.505947	0.780179
C45	C	1.518489	-0.505902	0.896955
C46	C	1.518472	-0.232020	0.506186
C47	C	1.518509	-0.115243	0.506203
C48	C	1.518372	-0.506083	0.233178
C49	C	1.518544	-0.505832	0.116402
C50	C	1.585716	-0.438704	0.951833
C51	C	1.585741	-0.438666	1.061557
C52	C	1.451310	-0.573033	1.061517
C53	C	1.451280	-0.573065	0.951795
C54	C	1.652926	-0.371541	0.896993
C55	C	1.720159	-0.304339	0.951871
C56	C	1.720184	-0.304301	1.061595
C57	C	1.652976	-0.371465	1.116442
H58	H	0.819888	-0.640635	0.640338
H59	H	1.384232	-1.204787	0.371744
H60	H	0.919343	-0.384029	0.384483
H61	H	1.652915	-0.371567	0.807651
C62	C	1.794080	-0.230462	0.891545
H63	H	1.784445	-0.240114	0.818338
H64	H	1.778735	-0.159864	0.909538
H65	H	1.864672	-0.245848	0.909531
H66	H	1.652989	-0.371417	1.205787
C67	C	1.243153	-1.121144	0.230511
H68	H	1.252814	-1.194333	0.240156
H69	H	1.172546	-1.103204	0.245822
H70	H	1.258562	-1.103209	0.159924
H71	H	0.919473	-0.762677	0.762010
C72	C	1.377335	-0.646979	0.891421
H73	H	1.386937	-0.637369	0.818220
H74	H	1.392686	-0.717568	0.909382
H75	H	1.306751	-0.631582	0.909402
H76	H	1.218024	-0.640599	0.640288
H77	H	1.774921	-0.249574	1.106273
C78	C	1.134213	-0.781880	0.781137
H79	H	1.207414	-0.772246	0.771517
H80	H	1.116266	-0.766598	0.851758
H81	H	1.116212	-0.852455	0.765628
C82	C	1.243023	-0.890728	0.230459
H83	H	1.203056	-0.939180	0.190421
H84	H	1.197207	-0.847929	0.270603
H85	H	1.283214	-0.847932	0.184696
H86	H	1.118412	-0.383987	0.384472
H87	H	1.384032	-0.806659	0.371655
C88	C	1.652648	-0.774907	0.640621
H89	H	1.702248	-0.750016	0.690297
H90	H	1.670827	-0.750117	0.572832
H91	H	1.584824	-0.750129	0.658743
C92	C	1.793753	-0.889897	0.781844
H93	H	1.784103	-0.816708	0.772194
H94	H	1.778360	-0.907838	0.852427
H95	H	1.864362	-0.907837	0.766514
C96	C	1.793877	-1.120318	0.781888
H97	H	1.833857	-1.071874	0.821923
H98	H	1.753693	-1.163124	0.827639
H99	H	1.839696	-1.163108	0.741728
H100	H	1.396591	-0.627714	1.106182
C101	C	1.652894	-1.235733	0.640713
H102	H	1.702527	-1.260474	0.690393
H103	H	1.585100	-1.260595	0.658830
H104	H	1.671115	-1.260589	0.572931
