data_functionalizedCrystal
_audit_creation_method	'MofGen! by Chris Wilmer'
_symmetry_space_group_name_H-M	'P1'
_symmetry_Int_Tables_number	1
_symmetry_cell_setting	triclinic
loop_
_symmetry_equiv_pos_as_xyz
  x,y,z
_cell_length_a	17.640112
_cell_length_b	21.295417
_cell_length_c	17.640968
_cell_angle_alpha	101.233941
_cell_angle_beta	87.860920
_cell_angle_gamma	101.255243
loop_
_atom_site_label
_atom_site_type_symbol
_atom_site_fract_x
_atom_site_fract_y
_atom_site_fract_z
Zn1	Zn	1.247775	-0.018088	0.195079
Zn2	Zn	1.581109	0.315246	0.528412
Zn3	Zn	1.914442	0.648579	0.861746
Zn4	Zn	1.221984	-0.147965	0.068090
Zn5	Zn	1.555317	0.185368	0.401423
Zn6	Zn	1.888651	0.518701	0.734756
Zn7	Zn	1.095101	-0.059037	0.093723
Zn8	Zn	1.428434	0.274296	0.427056
Zn9	Zn	1.761767	0.607630	0.760390
Zn10	Zn	1.120726	-0.139679	0.220672
Zn11	Zn	1.454060	0.193654	0.554005
Zn12	Zn	1.787393	0.526988	0.887339
O13	O	1.171397	-0.091192	0.144391
O14	O	1.504730	0.242141	0.477724
O15	O	1.838063	0.575475	0.811058
O16	O	1.350626	-0.021647	0.156795
O17	O	1.683959	0.311687	0.490129
O18	O	2.017292	0.645020	0.823462
O19	O	1.183635	-0.156774	-0.034784
O20	O	1.516968	0.176559	0.298549
O21	O	1.850301	0.509892	0.631882
O22	O	1.115422	0.034498	0.107185
O23	O	1.448756	0.367832	0.440518
O24	O	1.782089	0.701165	0.773851
O25	O	1.331677	-0.117067	0.063497
O26	O	1.665010	0.216266	0.396830
O27	O	1.998344	0.549599	0.730163
O28	O	1.227592	0.064584	0.181651
O29	O	1.560925	0.397917	0.514984
O30	O	1.894259	0.731250	0.848317
O31	O	1.090414	-0.091439	-0.015952
O32	O	1.423747	0.241894	0.317382
O33	O	1.757080	0.575228	0.650715
O34	O	0.992228	-0.083404	0.132001
O35	O	1.325562	0.249930	0.465335
O36	O	1.658895	0.583263	0.798668
O37	O	1.159098	-0.102944	0.323551
O38	O	1.492431	0.230389	0.656885
O39	O	1.825765	0.563723	0.990218
O40	O	1.011055	-0.142651	0.225270
O41	O	1.344389	0.190682	0.558604
O42	O	1.677722	0.524016	0.891937
O43	O	1.252440	-0.013611	0.304748
O44	O	1.585773	0.319722	0.638081
O45	O	1.919107	0.653055	0.971415
O46	O	1.208483	-0.234969	0.088313
O47	O	1.541816	0.098364	0.421646
O48	O	1.875149	0.431697	0.754980
O49	O	1.134089	-0.228881	0.200415
O50	O	1.467423	0.104452	0.533748
O51	O	1.800756	0.437785	0.867081
C52	C	0.974087	-0.116572	0.184195
C53	C	1.307420	0.216761	0.517528
C54	C	1.640754	0.550094	0.850862
C55	C	0.889681	-0.127442	0.201241
C56	C	1.223014	0.205892	0.534575
C57	C	1.556347	0.539225	0.867908
C58	C	0.563038	-0.008607	0.014898
C59	C	0.896371	0.324727	0.348231
C60	C	1.229704	0.658060	0.681564
C61	C	0.483727	-0.018831	0.030926
C62	C	0.817061	0.314503	0.364259
C63	C	1.150394	0.647836	0.697592
C64	C	0.503352	-0.080668	0.127879
C65	C	0.836686	0.252665	0.461212
C66	C	1.170019	0.585998	0.794546
C67	C	0.582667	-0.070447	0.111862
C68	C	0.916000	0.262887	0.445195
C69	C	1.249333	0.596220	0.778529
C70	C	0.612502	-0.034416	0.055370
C71	C	0.945836	0.298917	0.388703
C72	C	1.279169	0.632251	0.722036
C73	C	0.632131	-0.096256	0.152334
C74	C	0.965465	0.237077	0.485667
C75	C	1.298798	0.570411	0.819001
C76	C	0.711438	-0.086038	0.136315
C77	C	1.044772	0.247296	0.469648
C78	C	1.378105	0.580629	0.802982
C79	C	0.741280	-0.050010	0.079824
C80	C	1.074613	0.283323	0.413157
C81	C	1.407947	0.616656	0.746491
C82	C	0.691809	-0.024198	0.039351
C83	C	1.025143	0.309136	0.372684
C84	C	1.358476	0.642469	0.706017
C85	C	0.602293	-0.132290	0.208822
C86	C	0.935627	0.201043	0.542155
C87	C	1.268960	0.534376	0.875489
C88	C	0.651758	-0.158100	0.249294
C89	C	0.985091	0.175234	0.582627
C90	C	1.318425	0.508567	0.915961
C91	C	0.731067	-0.147878	0.233279
C92	C	1.064401	0.185456	0.566613
C93	C	1.397734	0.518789	0.899946
C94	C	0.760909	-0.111850	0.176788
C95	C	1.094242	0.221483	0.510122
C96	C	1.427576	0.554816	0.843455
C97	C	0.780538	-0.173690	0.273752
C98	C	1.113871	0.159643	0.607086
C99	C	1.447205	0.492976	0.940419
C100	C	0.859845	-0.163472	0.257733
C101	C	1.193178	0.169861	0.591067
C102	C	1.526511	0.503194	0.924400
C103	C	0.840216	-0.101632	0.160769
C104	C	1.173549	0.231701	0.494103
C105	C	1.506882	0.565034	0.827436
C106	C	1.171292	-0.254764	0.144372
C107	C	1.504625	0.078570	0.477705
C108	C	1.837959	0.411903	0.811039
C109	C	1.171322	-0.324726	0.144375
C110	C	1.504655	0.008607	0.477709
C111	C	1.837989	0.341940	0.811042
C112	C	1.229708	-0.341867	0.183190
C113	C	1.563041	-0.008534	0.516523
C114	C	1.896374	0.324799	0.849857
C115	C	1.229738	-0.407603	0.183203
C116	C	1.563072	-0.074269	0.516537
C117	C	1.896405	0.259064	0.849870
C118	C	1.171388	-0.456196	0.144387
C119	C	1.504722	-0.122863	0.477720
C120	C	1.838055	0.210470	0.811053
C121	C	1.112992	-0.439049	0.105570
C122	C	1.446326	-0.105716	0.438904
C123	C	1.779659	0.227617	0.772237
C124	C	1.112959	-0.373314	0.105565
C125	C	1.446292	-0.039981	0.438898
C126	C	1.779626	0.293352	0.772231
N127	N	1.152210	-0.573067	0.079078
N128	N	1.485544	-0.239734	0.412411
N129	N	1.818877	0.093600	0.745744
N130	N	1.152247	-0.635511	0.079084
N131	N	1.485580	-0.302178	0.412418
N132	N	1.818913	0.031155	0.745751
C133	C	1.171484	-0.654253	0.144403
C134	C	1.504817	-0.320920	0.477736
C135	C	1.838151	0.012414	0.811070
N136	N	1.190699	-0.608189	0.209713
N137	N	1.524032	-0.274856	0.543047
N138	N	1.857365	0.058478	0.876380
N139	N	1.190666	-0.545738	0.209705
N140	N	1.523999	-0.212405	0.543038
N141	N	1.857333	0.120928	0.876372
C142	C	1.171418	-0.527477	0.144389
C143	C	1.504751	-0.194143	0.477722
C144	C	1.838084	0.139190	0.811056
C145	C	1.229906	-0.742671	0.183236
C146	C	1.563240	-0.409337	0.516569
C147	C	1.896573	-0.076004	0.849903
C148	C	1.229932	-0.808408	0.183252
C149	C	1.563265	-0.475074	0.516585
C150	C	1.896599	-0.141741	0.849918
C151	C	1.113189	-0.839854	0.105611
C152	C	1.446522	-0.506521	0.438944
C153	C	1.779855	-0.173187	0.772278
C154	C	1.113160	-0.774117	0.105603
C155	C	1.446494	-0.440784	0.438936
C156	C	1.779827	-0.107451	0.772270
C157	C	1.171523	-0.725529	0.144414
C158	C	1.504856	-0.392196	0.477747
C159	C	1.838190	-0.058863	0.811080
C160	C	1.369477	-0.065713	0.104432
C161	C	1.702810	0.267620	0.437765
C162	C	2.036143	0.600953	0.771098
C163	C	1.453887	-0.054856	0.087404
C164	C	1.787220	0.278477	0.420737
C165	C	2.120553	0.611811	0.754070
C166	C	1.211504	-0.052786	0.342476
C167	C	1.544838	0.280548	0.675809
C168	C	1.878171	0.613881	1.009143
C169	C	1.228596	-0.036419	0.426888
C170	C	1.561929	0.296914	0.760221
C171	C	1.895263	0.630248	1.093555
C172	C	1.171526	0.073024	0.144422
C173	C	1.504859	0.406357	0.477756
C174	C	1.838192	0.739691	0.811089
C175	C	1.171581	0.143003	0.144436
C176	C	1.504914	0.476336	0.477769
C177	C	1.838247	0.809670	0.811102
C178	C	1.131488	-0.129398	-0.052932
C179	C	1.464822	0.203935	0.280401
C180	C	1.798155	0.537268	0.613734
C181	C	1.114544	-0.145568	-0.137374
C182	C	1.447877	0.187765	0.195960
C183	C	1.781211	0.521098	0.529293
C184	C	1.041845	-0.215147	0.753451
C185	C	1.375179	0.118186	1.086785
C186	C	1.708512	0.451520	1.420118
C187	C	1.057921	-0.199758	0.832766
C188	C	1.391255	0.133575	1.166099
C189	C	1.724588	0.466909	1.499433
C190	C	1.155110	-0.106744	0.813178
C191	C	1.488444	0.226589	1.146511
C192	C	1.821777	0.559923	1.479844
C193	C	1.139040	-0.122123	0.733860
C194	C	1.472373	0.211210	1.067193
C195	C	1.805707	0.544543	1.400527
C196	C	1.082407	-0.176326	0.704003
C197	C	1.415740	0.157007	1.037337
C198	C	1.749074	0.490341	1.370670
C199	C	1.179602	-0.083302	0.684412
C200	C	1.512935	0.250031	1.017746
C201	C	1.846268	0.583365	1.351079
C202	C	1.163535	-0.098682	0.605101
C203	C	1.496868	0.234651	0.938435
C204	C	1.830202	0.567984	1.271768
C205	C	1.106906	-0.152884	0.575238
C206	C	1.440240	0.180450	0.908571
C207	C	1.773573	0.513783	1.241905
C208	C	1.066340	-0.191706	0.624692
C209	C	1.399674	0.141627	0.958026
C210	C	1.733007	0.474960	1.291359
C211	C	1.236238	-0.029102	0.714270
C212	C	1.569571	0.304231	1.047603
C213	C	1.902905	0.637564	1.380936
C214	C	1.276800	0.009719	0.664822
C215	C	1.610133	0.343052	0.998155
C216	C	1.943466	0.676385	1.331489
C217	C	1.260729	-0.005659	0.585510
C218	C	1.594063	0.327675	0.918843
C219	C	1.927396	0.661008	1.252177
C220	C	1.204101	-0.059860	0.555647
C221	C	1.537434	0.273473	0.888980
C222	C	1.870768	0.606807	1.222313
C223	C	1.301296	0.033164	0.536056
C224	C	1.634629	0.366497	0.869389
C225	C	1.967962	0.699831	1.202722
C226	C	1.285229	0.017784	0.456745
C227	C	1.618562	0.351117	0.790078
C228	C	1.951895	0.684450	1.123411
C229	C	1.188034	-0.075240	0.476336
C230	C	1.521368	0.258093	0.809669
C231	C	1.854701	0.591426	1.143002
H232	H	0.805857	-0.041693	0.066781
H233	H	1.139190	0.291640	0.400114
H234	H	1.472524	0.624974	0.733447
F235	F	1.292071	-0.826648	0.224575
F236	F	1.625405	-0.493314	0.557909
F237	F	1.958738	-0.159981	0.891242
H238	H	1.065482	-0.478619	0.073968
H239	H	1.398815	-0.145285	0.407301
H240	H	1.732149	0.188048	0.740634
F241	F	1.291886	-0.425851	0.224513
F242	F	1.625219	-0.092518	0.557846
F243	F	1.958552	0.240816	0.891179
F244	F	1.006059	-0.249391	0.592914
F245	F	1.339392	0.083942	0.926247
F246	F	1.672726	0.417276	1.259581
H247	H	1.318257	0.049396	0.416483
H248	H	1.651590	0.382730	0.749816
H249	H	1.984924	0.716063	1.083149
F250	F	0.594796	0.029747	-0.045223
F251	F	0.928130	0.363080	0.288110
F252	F	1.261463	0.696413	0.621443
F253	F	0.871974	-0.063279	0.100648
F254	F	1.205308	0.270054	0.433982
F255	F	1.538641	0.603388	0.767315
H256	H	1.277427	-0.703108	0.214841
H257	H	1.610760	-0.369775	0.548174
H258	H	1.944094	-0.036441	0.881507
H259	H	0.627454	-0.187438	0.295288
H260	H	0.960787	0.145895	0.628621
H261	H	1.294121	0.479229	0.961954
F262	F	1.215383	-0.049061	0.844962
F263	F	1.548717	0.284272	1.178295
F264	F	1.882050	0.617606	1.511628
H265	H	0.479048	-0.110007	0.173873
H266	H	0.812382	0.223327	0.507206
H267	H	1.145715	0.556660	0.840539
F268	F	0.431083	0.008637	-0.012160
F269	F	0.764417	0.341971	0.321174
F270	F	1.097750	0.675304	0.654507
F271	F	1.089810	-0.169256	0.490826
F272	F	1.423143	0.164078	0.824160
F273	F	1.756477	0.497411	1.157493
H274	H	0.756232	-0.203032	0.319743
H275	H	1.089565	0.130301	0.653076
H276	H	1.422899	0.463635	0.986409
F277	F	0.981564	-0.272832	0.721673
F278	F	1.314897	0.060501	1.055006
F279	F	1.648231	0.393835	1.388339
F280	F	1.253339	-0.012736	0.798680
F281	F	1.586672	0.320597	1.132014
F282	F	1.920006	0.653930	1.465347
H283	H	0.900121	-0.184488	0.290691
H284	H	1.233454	0.148845	0.624024
H285	H	1.566788	0.482179	0.957357
H286	H	1.347411	0.077292	0.560376
H287	H	1.680744	0.410625	0.893710
H288	H	2.014078	0.743958	1.227043
H289	H	1.065413	-0.359360	0.073957
H290	H	1.398747	-0.026027	0.407290
H291	H	1.732080	0.307307	0.740623
F292	F	1.051018	-0.755875	0.064290
F293	F	1.384351	-0.422541	0.397623
F294	F	1.717684	-0.089208	0.730957
H295	H	1.322912	0.053849	0.689142
H296	H	1.656246	0.387182	1.022475
H297	H	1.989579	0.720516	1.355809
H298	H	1.065675	-0.879418	0.074012
H299	H	1.399008	-0.546085	0.407345
H300	H	1.732342	-0.212751	0.740678
H301	H	0.716105	0.005154	-0.006639
H302	H	1.049439	0.338487	0.326694
H303	H	1.382772	0.671820	0.660027
H304	H	1.141900	-0.119365	0.452029
H305	H	1.475233	0.213969	0.785362
H306	H	1.808567	0.547302	1.118695
H307	H	1.277229	-0.302308	0.214794
H308	H	1.610562	0.031025	0.548127
H309	H	1.943895	0.364359	0.881461
F310	F	0.517885	-0.143173	0.225862
F311	F	0.851218	0.190160	0.559195
F312	F	1.184552	0.523494	0.892528
H313	H	1.024887	-0.231375	0.873025
H314	H	1.358220	0.101958	1.206358
H315	H	1.691554	0.435292	1.539692
