data_functionalizedCrystal
_audit_creation_method	'MofGen! by Chris Wilmer'
_symmetry_space_group_name_H-M	'P1'
_symmetry_Int_Tables_number	1
_symmetry_cell_setting	triclinic
loop_
_symmetry_equiv_pos_as_xyz
  x,y,z
_cell_length_a	14.044220
_cell_length_b	17.666332
_cell_length_c	14.044220
_cell_angle_alpha	90.006987
_cell_angle_beta	93.188878
_cell_angle_gamma	90.004261
loop_
_atom_site_label
_atom_site_type_symbol
_atom_site_fract_x
_atom_site_fract_y
_atom_site_fract_z
O1	O	1.277175	0.062871	0.230170
O2	O	1.777175	0.562871	0.730170
O3	O	1.000503	0.062890	0.221864
O4	O	1.500503	0.562890	0.721864
O5	O	1.134686	0.062873	0.087681
O6	O	1.634686	0.562873	0.587681
O7	O	1.142992	0.062888	0.364353
O8	O	1.642992	0.562888	0.864353
O9	O	1.134660	-0.063024	0.087671
O10	O	1.634660	0.436976	0.587671
O11	O	1.000477	-0.063007	0.221854
O12	O	1.500477	0.436993	0.721854
O13	O	1.277148	-0.063026	0.230160
O14	O	1.777148	0.436974	0.730160
Cu15	Cu	1.138810	-0.074512	0.226006
Cu16	Cu	1.638810	0.425488	0.726006
Cu17	Cu	1.138841	0.074376	0.226018
Cu18	Cu	1.638841	0.574376	0.726018
O19	O	1.142965	-0.063009	0.364343
O20	O	1.642965	0.436991	0.864343
C21	C	0.964868	-0.000056	0.218223
C22	C	1.464868	0.499944	0.718223
C23	C	0.858725	-0.000049	0.207379
C24	C	1.358725	0.499951	0.707379
N25	N	1.138795	-0.179231	0.225998
N26	N	1.638795	0.320769	0.725998
C27	C	0.664388	-0.000065	0.187553
C28	C	1.164388	0.499935	0.687553
C29	C	0.613258	-0.000064	0.264467
C30	C	1.113258	0.499936	0.764467
C31	C	0.505122	-0.000073	0.253435
C32	C	1.005122	0.499927	0.753435
C33	C	0.772534	-0.000056	0.198583
C34	C	1.272534	0.499944	0.698583
C35	C	1.198235	-0.218848	0.166615
C36	C	1.698235	0.281152	0.666615
C37	C	1.198240	-0.298096	0.166611
C38	C	1.698240	0.201904	0.666611
C39	C	1.138816	-0.337723	0.226007
C40	C	1.638816	0.162277	0.726007
C41	C	1.079364	-0.298097	0.285393
C42	C	1.579364	0.201903	0.785393
C43	C	1.079354	-0.218851	0.285389
C44	C	1.579354	0.281149	0.785389
N45	N	1.133806	-0.462137	0.309456
N46	N	1.633806	0.037863	0.809456
N47	N	1.133821	-0.537418	0.309457
N48	N	1.633821	-0.037418	0.809457
C49	C	1.138842	-0.576487	0.226022
C50	C	1.638842	-0.076487	0.726022
N51	N	1.143866	-0.537433	0.142584
N52	N	1.643866	-0.037433	0.642584
N53	N	1.143855	-0.462145	0.142583
N54	N	1.643855	0.037855	0.642583
C55	C	1.138820	-0.423652	0.226018
C56	C	1.638820	0.076348	0.726018
C57	C	1.198291	-0.702034	0.166630
C58	C	1.698291	-0.202034	0.666630
C59	C	1.198289	-0.781283	0.166624
C60	C	1.698289	-0.281283	0.666624
C61	C	1.079419	-0.781282	0.285415
C62	C	1.579419	-0.281282	0.785415
C63	C	1.079415	-0.702035	0.285412
C64	C	1.579415	-0.202035	0.785412
C65	C	1.138856	-0.662415	0.226021
C66	C	1.638856	-0.162415	0.726021
C67	C	1.312783	-0.000078	0.233800
C68	C	1.812783	0.499922	0.733800
C69	C	1.418926	-0.000080	0.244645
C70	C	1.918926	0.499920	0.744645
C71	C	1.131037	-0.000075	0.052054
C72	C	1.631037	0.499925	0.552054
C73	C	1.120193	-0.000075	-0.054088
C74	C	1.620193	0.499925	0.445912
N75	N	1.138863	0.179095	0.226019
N76	N	1.638863	0.679095	0.726019
C77	C	1.100366	-0.000063	-0.248426
C78	C	1.600366	0.499937	0.251574
C79	C	1.177281	-0.000066	-0.299556
C80	C	1.677281	0.499934	0.200444
C81	C	1.166249	-0.000059	-0.407692
C82	C	1.666249	0.499941	0.092308
C83	C	1.111397	-0.000070	-0.140280
C84	C	1.611397	0.499930	0.359720
C85	C	1.146614	-0.000059	0.399969
C86	C	1.646614	0.499941	0.899969
C87	C	1.157459	-0.000054	0.506112
C88	C	1.657459	0.499946	1.006112
H89	H	0.650697	-0.000057	0.338600
H90	H	1.150697	0.499943	0.838600
H91	H	1.026239	-0.000056	-0.285863
H92	H	1.526239	0.499944	0.214137
H93	H	0.626951	-0.000073	0.113425
H94	H	1.126951	0.499927	0.613425
H95	H	1.246633	-0.186593	0.118253
H96	H	1.746633	0.313407	0.618253
H97	H	1.030978	-0.330365	0.333752
H98	H	1.530978	0.169635	0.833752
C99	C	1.263628	-0.341684	0.101289
C100	C	1.763628	0.158316	0.601289
H101	H	1.299030	-0.306738	0.065922
H102	H	1.799030	0.193262	0.565922
H103	H	1.225935	-0.372611	0.058625
H104	H	1.725935	0.127389	0.558625
H105	H	1.306276	-0.372585	0.139031
H106	H	1.806276	0.127415	0.639031
C107	C	1.013974	-0.175270	0.350720
C108	C	1.513974	0.324730	0.850720
H109	H	0.978586	-0.210217	0.386098
H110	H	1.478586	0.289783	0.886098
H111	H	0.971330	-0.144362	0.312994
H112	H	1.471330	0.355638	0.812994
H113	H	1.051682	-0.144350	0.393389
H114	H	1.551682	0.355650	0.893389
H115	H	1.251414	-0.000020	-0.262117
H116	H	1.751414	0.499980	0.237883
H117	H	1.246689	-0.813540	0.118262
H118	H	1.746689	-0.313540	0.618262
C119	C	1.014053	-0.824863	0.350749
C120	C	1.514053	-0.324863	0.850749
H121	H	1.022574	-0.877733	0.342251
H122	H	1.522574	-0.377733	0.842251
H123	H	0.949459	-0.811885	0.334958
H124	H	1.449459	-0.311885	0.834958
H125	H	1.029811	-0.811866	0.415353
H126	H	1.529811	-0.311866	0.915353
H127	H	1.246689	-0.669774	0.118267
H128	H	1.746689	-0.169774	0.618267
H129	H	1.031017	-0.669776	0.333771
H130	H	1.531017	-0.169776	0.833771
