data_functionalizedCrystal
_audit_creation_method	'MofGen! by Chris Wilmer'
_symmetry_space_group_name_H-M	'P1'
_symmetry_Int_Tables_number	1
_symmetry_cell_setting	triclinic
loop_
_symmetry_equiv_pos_as_xyz
  x,y,z
_cell_length_a	19.288862
_cell_length_b	19.288864
_cell_length_c	17.766277
_cell_angle_alpha	90.023209
_cell_angle_beta	90.013866
_cell_angle_gamma	83.135763
loop_
_atom_site_label
_atom_site_type_symbol
_atom_site_fract_x
_atom_site_fract_y
_atom_site_fract_z
O1	O	-0.086649	-0.921352	-0.062848
O2	O	-0.098338	-0.719092	-0.062798
O3	O	0.008637	-0.826067	-0.062805
O4	O	-0.193624	-0.814377	-0.062841
O5	O	0.008643	-0.826048	0.062383
O6	O	-0.098332	-0.719073	0.062390
O7	O	-0.086643	-0.921334	0.062341
Cu8	Cu	-0.092487	-0.820202	0.073796
Cu9	Cu	-0.092494	-0.820224	-0.074254
O10	O	-0.193618	-0.814358	0.062348
C11	C	0.034516	-0.825682	-0.000207
C12	C	0.111620	-0.824554	-0.000197
C13	C	-0.097959	-0.693206	-0.000197
C14	C	-0.096830	-0.616102	-0.000177
C15	C	0.156316	-0.887322	-0.000207
C16	C	0.228764	-0.886262	-0.000216
C17	C	0.256511	-0.822430	-0.000199
C18	C	0.211805	-0.759653	-0.000193
C19	C	0.139359	-0.760715	-0.000192
C20	C	0.364801	-0.772245	0.043669
C21	C	0.437245	-0.771185	0.043672
C22	C	0.479957	-0.819152	-0.000206
C23	C	0.450217	-0.868190	-0.044078
C24	C	0.377771	-0.869252	-0.044077
C25	C	0.335065	-0.821271	-0.000201
C26	C	0.603209	-0.880775	-0.000226
C27	C	0.675658	-0.879713	-0.000239
C28	C	0.658697	-0.753102	-0.000209
C29	C	0.586251	-0.754167	-0.000204
C30	C	0.558511	-0.818005	-0.000208
C31	C	-0.087022	-0.947219	-0.000262
C32	C	-0.088151	-1.024323	-0.000287
C33	C	0.780503	-0.814745	-0.000241
C34	C	0.703400	-0.815880	-0.000224
C35	C	-0.159598	-0.571405	-0.000200
C36	C	-0.158537	-0.498958	-0.000208
C37	C	-0.094705	-0.471211	-0.000209
C38	C	-0.031929	-0.515918	-0.000181
C39	C	-0.032991	-0.588363	-0.000166
C40	C	-0.044528	-0.362956	-0.044084
C41	C	-0.043468	-0.290512	-0.044104
C42	C	-0.091425	-0.247766	-0.000254
C43	C	-0.140454	-0.277472	0.043608
C44	C	-0.141517	-0.349917	0.043624
C45	C	-0.093546	-0.392657	-0.000225
C46	C	-0.153047	-0.124513	-0.000284
C47	C	-0.151984	-0.052065	-0.000288
C48	C	-0.025374	-0.069026	-0.000268
C49	C	-0.026439	-0.141473	-0.000257
C50	C	-0.090278	-0.169211	-0.000269
N51	N	-0.092482	-0.820191	0.177927
N52	N	-0.092493	-0.820240	-0.178384
C53	C	-0.045137	-0.867575	0.217310
C54	C	-0.045134	-0.867579	0.296112
C55	C	-0.092488	-0.820206	0.335527
C56	C	-0.139837	-0.772813	0.296134
C57	C	-0.139834	-0.772805	0.217334
C58	C	-0.155776	-0.810906	0.460355
C59	C	-0.155779	-0.810918	0.539154
C60	C	-0.092496	-0.820224	0.578574
C61	C	-0.029207	-0.829533	0.539184
C62	C	-0.029204	-0.829525	0.460384
C63	C	-0.092496	-0.820208	0.420973
C64	C	-0.045144	-0.867615	0.703403
C65	C	-0.045139	-0.867614	0.782206
C66	C	-0.139848	-0.772851	0.782227
C67	C	-0.139846	-0.772849	0.703425
C68	C	-0.092495	-0.820234	0.664018
H69	H	0.133736	-0.939304	-0.000214
F70	F	0.346122	-0.921437	-0.090770
F71	F	0.276341	-0.953071	-0.000228
H72	H	-0.207313	-0.803344	0.571219
F73	F	0.040368	-0.189045	-0.000237
H74	H	-0.178392	-0.734239	0.328230
H75	H	0.461453	-0.731253	0.079391
F76	F	0.038151	-0.839426	0.418466
F77	F	-0.227541	-0.600923	-0.000210
H78	H	-0.006581	-0.906198	0.814273
F79	F	-0.225346	-0.451380	-0.000231
F80	F	0.005255	-0.918044	0.661462
F81	F	-0.190241	-0.722419	0.661507
F82	F	0.538679	-0.687359	-0.000190
H83	H	0.026600	-0.046436	-0.000315
F84	F	0.038149	-0.839442	0.581130
F85	F	-0.223136	-0.801052	0.418410
F86	F	0.008707	-0.258903	-0.090792
H87	H	0.484992	-0.907249	-0.079808
F88	F	0.688223	-0.685167	-0.000195
F89	F	0.319350	-0.721189	0.090374
F90	F	0.006520	-0.408444	-0.090759
F91	F	0.573685	-0.948717	-0.000228
H92	H	0.712049	-0.930828	-0.000252
H93	H	-0.181436	-0.374100	0.079340
F94	F	0.241337	-0.691719	-0.000181
H95	H	-0.178389	-0.734219	0.185267
F96	F	-0.190242	-0.722429	0.824171
F97	F	0.091788	-0.693906	-0.000182
H98	H	-0.179506	-0.242669	0.079316
H99	H	0.020044	-0.493322	-0.000192
H100	H	-0.203099	-0.015673	-0.000302
F101	F	-0.220989	-0.154037	-0.000291
H102	H	0.018124	-0.624756	-0.000148
H103	H	-0.006579	-0.906158	0.185227
H104	H	-0.006578	-0.906166	0.328184
