data_functionalizedCrystal
_audit_creation_method	'MofGen! by Chris Wilmer'
_symmetry_space_group_name_H-M	'P1'
_symmetry_Int_Tables_number	1
_symmetry_cell_setting	triclinic
loop_
_symmetry_equiv_pos_as_xyz
  x,y,z
_cell_length_a	15.944564
_cell_length_b	15.021413
_cell_length_c	15.944551
_cell_angle_alpha	90.008907
_cell_angle_beta	83.501336
_cell_angle_gamma	89.997172
loop_
_atom_site_label
_atom_site_type_symbol
_atom_site_fract_x
_atom_site_fract_y
_atom_site_fract_z
O1	O	-1.114522	0.073929	-0.108372
O2	O	-0.869974	0.073950	-0.121717
O3	O	-0.998926	0.073945	0.007230
O4	O	-0.985570	0.073935	-0.237319
O5	O	-0.998906	-0.074120	0.007212
O6	O	-0.869953	-0.074114	-0.121735
O7	O	-1.114502	-0.074135	-0.108390
Zn8	Zn	-0.992224	-0.097633	-0.115066
Zn9	Zn	-0.992251	0.097448	-0.115041
O10	O	-0.985550	-0.074129	-0.237337
C11	C	-0.838670	-0.000079	-0.121170
C12	C	-0.745425	-0.000070	-0.119504
C13	C	-0.530569	-0.000085	-0.035589
C14	C	-0.469559	0.072917	-0.074540
C15	C	-0.574700	-0.000081	-0.116488
C16	C	-0.469561	-0.073062	-0.074577
C17	C	-0.409788	-0.000095	-0.113570
C18	C	-0.514918	0.072981	-0.155461
C19	C	-0.514927	-0.073064	-0.155487
C20	C	-0.453935	-0.000044	-0.194497
C21	C	-0.669701	-0.000072	-0.118167
C22	C	-0.314787	-0.000097	-0.111898
C23	C	-0.145807	-0.000104	-0.108925
C24	C	-0.239057	-0.000106	-0.110558
N25	N	-0.992212	-0.230770	-0.115082
C26	C	-0.986114	-0.000098	-0.268622
C27	C	-0.987777	-0.000102	-0.361868
C28	C	-0.932575	-0.470451	-0.174679
C29	C	-1.008475	-0.529793	-0.190989
C30	C	-0.992234	-0.412377	-0.115061
C31	C	-0.916354	-0.529777	-0.098769
C32	C	-0.992247	-0.587801	-0.115042
C33	C	-1.068172	-0.470413	-0.131409
C34	C	-0.976001	-0.470392	-0.039156
C35	C	-1.051955	-0.529707	-0.055434
C36	C	-0.992224	-0.311320	-0.115073
C37	C	-0.992265	-0.688856	-0.115029
N38	N	-0.992270	0.230586	-0.115019
C39	C	-1.071680	-0.000096	-0.576729
C40	C	-1.032708	-0.073097	-0.637752
C41	C	-0.990784	-0.000094	-0.532594
C42	C	-1.032709	0.072883	-0.637720
C43	C	-0.993695	-0.000083	-0.697507
C44	C	-0.951789	-0.073156	-0.592389
C45	C	-0.951802	0.072890	-0.592350
C46	C	-0.912771	-0.000129	-0.653356
C47	C	-0.989109	-0.000102	-0.437592
C48	C	-0.995363	-0.000082	-0.792508
C49	C	-0.998361	-0.000084	0.038515
C50	C	-0.996699	-0.000075	0.131761
H51	H	-0.535049	-0.134787	-0.189684
N52	N	-0.869351	-0.437819	-0.237981
N53	N	-0.872758	-0.456885	-0.313833
H54	H	-0.828109	-0.433840	-0.358542
H55	H	-1.132361	-0.444446	-0.145257
H56	H	-1.022218	-0.555884	-0.255172
N57	N	-1.115326	-0.562135	0.007826
N58	N	-1.191138	-0.542917	0.004392
H59	H	-1.235896	-0.565820	0.049067
H60	H	-0.917591	-0.134939	-0.572404
N61	N	-0.828459	-0.000178	-0.694944
N62	N	-0.779609	-0.062911	-0.683236
H63	H	-0.720064	-0.062950	-0.712608
N64	N	-1.155918	-0.000200	-0.534954
N65	N	-1.204750	-0.062987	-0.546534
H66	H	-1.264241	-0.063065	-0.517030
H67	H	-0.563902	0.000008	0.031547
H68	H	-0.420776	-0.000006	-0.261702
N69	N	-0.444355	0.150348	-0.031602
N70	N	-0.472126	0.163362	0.043890
H71	H	-0.454331	0.218047	0.074220
N72	N	-0.540007	0.150476	-0.198362
N73	N	-0.616156	0.162997	-0.206545
H74	H	-0.633877	0.217723	-0.236848
H75	H	-0.917623	0.134615	-0.572212
N76	N	-0.958725	-0.437642	0.041337
N77	N	-0.890575	-0.456626	0.068851
H78	H	-0.878366	-0.433497	0.125700
N79	N	-0.835846	-0.562473	-0.081477
N80	N	-0.807778	-0.542365	-0.013876
H81	H	-0.750917	-0.565453	-0.001669
N82	N	-1.075672	0.150292	-0.662918
N83	N	-1.151171	0.163269	-0.635151
H84	H	-1.181521	0.217934	-0.652947
H85	H	-1.066915	-0.134819	-0.657868
H86	H	-0.449467	-0.134777	-0.040353
