data_functionalizedCrystal
_audit_creation_method	'MofGen! by Chris Wilmer'
_symmetry_space_group_name_H-M	'P1'
_symmetry_Int_Tables_number	1
_symmetry_cell_setting	triclinic
loop_
_symmetry_equiv_pos_as_xyz
  x,y,z
_cell_length_a	17.699077
_cell_length_b	15.944493
_cell_length_c	16.176319
_cell_angle_alpha	89.999072
_cell_angle_beta	89.993140
_cell_angle_gamma	83.377810
loop_
_atom_site_label
_atom_site_type_symbol
_atom_site_fract_x
_atom_site_fract_y
_atom_site_fract_z
O1	O	1.004243	0.106201	-0.068725
O2	O	0.783885	0.120026	-0.068728
O3	O	0.900104	-0.009177	-0.068733
O4	O	0.888024	0.235405	-0.068719
O5	O	0.900088	-0.009186	0.068760
O6	O	0.783869	0.120018	0.068766
O7	O	1.004227	0.106193	0.068768
Cu8	Cu	0.894047	0.113105	0.081321
Cu9	Cu	0.894066	0.113114	-0.081280
O10	O	0.888008	0.235396	0.068774
C11	C	0.755679	0.119528	0.000019
C12	C	0.671659	0.118044	0.000017
C13	C	0.632181	0.117341	0.074965
C14	C	0.553237	0.115933	0.074966
C15	C	0.513770	0.115235	0.000018
C16	C	0.553253	0.115936	-0.074936
C17	C	0.632197	0.117338	-0.074936
C18	C	0.234881	0.110284	-0.074938
C19	C	0.155931	0.108885	-0.074933
C20	C	0.155921	0.108879	0.074964
C21	C	0.234865	0.110280	0.074964
C22	C	0.274342	0.110977	0.000011
C23	C	0.359943	0.112501	0.000011
C24	C	0.428170	0.113717	0.000017
C25	C	0.899603	-0.040475	0.000010
C26	C	0.898122	-0.133721	-0.000000
C27	C	0.966532	-0.369626	0.000016
C28	C	0.929649	-0.420112	-0.067775
C29	C	0.895379	-0.304436	0.000010
C30	C	0.929617	-0.420096	0.067782
C31	C	0.892735	-0.469340	0.000023
C32	C	0.858516	-0.353693	-0.067838
C33	C	0.858494	-0.353674	0.067781
C34	C	0.821559	-0.404126	-0.000027
C35	C	0.896905	-0.209439	0.000001
C36	C	0.891204	-0.564334	0.000025
C37	C	1.032433	0.106691	0.000020
C38	C	1.116453	0.108175	0.000017
C39	C	0.888509	0.266694	0.000029
C40	C	0.889990	0.359940	0.000034
N41	N	0.894039	0.113097	0.195686
N42	N	0.894079	0.113115	-0.195646
C43	C	0.945516	0.055909	0.238948
C44	C	0.945520	0.055908	0.325495
C45	C	0.894050	0.113100	0.368779
C46	C	0.842567	0.170291	0.325511
C47	C	0.842560	0.170287	0.238966
C48	C	0.842593	0.170307	0.674539
C49	C	0.842605	0.170308	0.761091
C50	C	0.945553	0.055928	0.761069
C51	C	0.945546	0.055924	0.674524
C52	C	0.894061	0.113112	0.631263
C53	C	0.894056	0.113111	0.537419
C54	C	0.894057	0.113106	0.462622
H55	H	0.266994	0.110853	0.135995
H56	H	0.664309	0.117916	0.135997
H57	H	0.521114	0.115362	-0.135961
Br58	Br	0.499662	0.114992	0.176686
Br59	Br	0.979740	-0.468459	-0.163300
H60	H	0.123770	0.108308	0.135995
H61	H	0.828491	-0.324806	-0.125211
H62	H	0.987461	0.009356	0.639285
H63	H	0.123800	0.108316	-0.135968
H64	H	0.800654	0.216855	0.360758
Br65	Br	0.288447	0.111228	-0.176661
H66	H	0.800673	0.216872	0.639324
Br67	Br	1.068682	-0.343792	-0.000090
H68	H	0.664338	0.117912	-0.135967
H69	H	0.987473	0.009360	0.796301
Br70	Br	0.719329	-0.429690	-0.000085
Br71	Br	0.808459	-0.305279	0.163311
Br72	Br	0.772748	0.247931	0.819834
Br73	Br	0.979711	-0.468429	0.163301
Br74	Br	1.015379	-0.021707	0.180215
Br75	Br	1.015381	-0.021708	0.384211
H76	H	0.800641	0.216855	0.203743
