data_functionalizedCrystal
_audit_creation_method	'MofGen! by Chris Wilmer'
_symmetry_space_group_name_H-M	'P1'
_symmetry_Int_Tables_number	1
_symmetry_cell_setting	triclinic
loop_
_symmetry_equiv_pos_as_xyz
  x,y,z
_cell_length_a	19.188930
_cell_length_b	10.654550
_cell_length_c	9.730223
_cell_angle_alpha	90.000193
_cell_angle_beta	89.985926
_cell_angle_gamma	96.185158
loop_
_atom_site_label
_atom_site_type_symbol
_atom_site_fract_x
_atom_site_fract_y
_atom_site_fract_z
O1	O	0.927166	-0.156774	-0.114729
O2	O	1.427166	0.343226	0.385271
O3	O	0.723993	-0.177880	-0.114634
O4	O	1.223993	0.322120	0.385366
O5	O	0.830251	0.015511	-0.114679
O6	O	1.330251	0.515511	0.385321
O7	O	0.820908	-0.350165	-0.114684
O8	O	1.320908	0.149835	0.385316
O9	O	0.830250	0.015506	0.113901
O10	O	1.330250	0.515506	0.613901
O11	O	0.723992	-0.177885	0.113946
O12	O	1.223992	0.322115	0.613946
O13	O	0.927165	-0.156779	0.113851
O14	O	1.427165	0.343221	0.613851
Zn15	Zn	0.825578	-0.167333	0.150190
Zn16	Zn	1.325578	0.332667	0.650190
Zn17	Zn	0.825580	-0.167326	-0.150973
Zn18	Zn	1.325580	0.332674	0.349027
O19	O	0.820907	-0.350170	0.113896
O20	O	1.320907	0.149830	0.613896
C21	C	0.697977	-0.177199	-0.000332
C22	C	1.197977	0.322801	0.499668
C23	C	0.620459	-0.175147	-0.000296
C24	C	1.120459	0.324853	0.499704
C25	C	0.829564	0.062292	-0.000390
C26	C	1.329564	0.562292	0.499610
C27	C	0.827512	0.201692	-0.000394
C28	C	1.327512	0.701692	0.499606
N29	N	0.825582	-0.167336	0.355727
N30	N	1.325582	0.332664	0.855727
C31	C	0.576277	-0.288622	-0.000319
C32	C	1.076277	0.211378	0.499681
C33	C	0.503441	-0.286695	-0.000334
C34	C	1.003441	0.213305	0.499666
C35	C	0.474789	-0.171286	-0.000354
C36	C	0.974789	0.328714	0.499646
C37	C	0.518981	-0.057795	-0.000323
C38	C	1.018981	0.442205	0.499677
C39	C	0.591816	-0.059726	-0.000294
C40	C	1.091816	0.440274	0.499706
N41	N	0.366233	-0.083068	-0.078203
N42	N	0.866233	0.416932	0.421797
N43	N	0.297042	-0.081242	-0.078234
N44	N	0.797042	0.418758	0.421766
C45	C	0.255343	-0.165461	-0.000438
C46	C	0.755343	0.334539	0.499562
N47	N	0.285446	-0.251596	0.077373
N48	N	0.785446	0.248404	0.577373
N49	N	0.354643	-0.253426	0.077397
N50	N	0.854643	0.246574	0.577397
C51	C	0.395813	-0.169179	-0.000384
C52	C	0.895813	0.330821	0.499616
C53	C	0.132183	-0.276855	-0.000475
C54	C	0.632183	0.223145	0.499525
C55	C	0.059345	-0.274922	-0.000482
C56	C	0.559345	0.225078	0.499518
C57	C	0.074887	-0.046020	-0.000484
C58	C	0.574887	0.453980	0.499516
C59	C	0.147723	-0.047955	-0.000464
C60	C	0.647723	0.452045	0.499536
C61	C	0.176366	-0.163376	-0.000466
C62	C	0.676366	0.336624	0.499534
C63	C	0.953181	-0.157460	-0.000454
C64	C	1.453181	0.342540	0.499546
C65	C	1.030699	-0.159512	-0.000499
C66	C	1.530699	0.340488	0.499501
C67	C	0.821594	-0.396951	-0.000396
C68	C	1.321594	0.103049	0.499604
C69	C	0.823646	-0.536351	-0.000401
C70	C	1.323646	-0.036351	0.499599
C71	C	0.890075	0.282501	-0.000419
C72	C	1.390075	0.782501	0.499581
C73	C	0.888142	0.413481	-0.000427
C74	C	1.388142	0.913481	0.499573
C75	C	0.761078	0.382829	-0.000380
C76	C	1.261078	0.882829	0.499620
C77	C	0.763011	0.251852	-0.000382
C78	C	1.263011	0.751852	0.499618
C79	C	0.963434	0.300199	-0.000440
C80	C	1.463434	0.800199	0.499560
C81	C	0.961502	0.431179	-0.000449
C82	C	1.461502	0.931179	0.499551
N83	N	0.825581	-0.167313	-0.356510
N84	N	1.325581	0.332687	0.143490
C85	C	0.872645	-0.081732	0.427633
C86	C	1.372645	0.418268	0.927633
C87	C	0.872643	-0.081716	0.571516
C88	C	1.372643	0.418284	1.071516
C89	C	0.778513	-0.252922	0.571574
C90	C	1.278513	0.247078	1.071574
C91	C	0.778512	-0.252930	0.427693
C92	C	1.278512	0.247070	0.927693
C93	C	0.926993	0.017109	0.427601
C94	C	1.426993	0.517109	0.927601
C95	C	0.926991	0.017124	0.571484
C96	C	1.426991	0.517124	1.071484
H97	H	0.599593	-0.382607	-0.000324
H98	H	1.099593	0.117393	0.499676
H99	H	0.980643	-0.003259	0.610509
H100	H	1.480643	0.496741	1.110509
H101	H	0.467461	-0.379103	-0.000350
H102	H	0.967461	0.120897	0.499650
H103	H	0.495648	0.036172	-0.000357
H104	H	0.995648	0.536172	0.499643
H105	H	0.983673	0.477293	-0.099153
H106	H	1.483673	0.977293	0.400847
H107	H	0.910029	0.107988	0.616110
H108	H	1.410029	0.607988	1.116110
H109	H	0.989142	0.473522	0.095197
H110	H	1.489142	0.973522	0.595197
Cl111	Cl	0.684358	0.150266	-0.000385
Cl112	Cl	1.184358	0.650266	0.499615
Cl113	Cl	0.168195	-0.421952	-0.000465
Cl114	Cl	0.668195	0.078048	0.499535
H115	H	0.992128	0.271450	-0.096107
H116	H	1.492128	0.771450	0.403893
Cl117	Cl	0.999488	0.245941	0.151929
Cl118	Cl	1.499488	0.745941	0.651929
Cl119	Cl	0.203269	0.094708	-0.000442
Cl120	Cl	0.703269	0.594708	0.499558
H121	H	0.708564	0.423686	-0.000372
H122	H	1.208564	0.923686	0.499628
Cl123	Cl	0.719336	-0.360533	0.337295
Cl124	Cl	1.219336	0.139467	0.837295
Cl125	Cl	0.719342	-0.360519	0.662054
Cl126	Cl	1.219342	0.139481	1.162054
Cl127	Cl	0.908588	0.165753	0.367306
Cl128	Cl	1.408588	0.665753	0.867306
H129	H	0.977683	-0.012407	0.382950
H130	H	1.477683	0.487593	0.882950
Cl131	Cl	0.003801	-0.417591	-0.000504
Cl132	Cl	0.503801	0.082409	0.499496
H133	H	0.627789	0.032682	-0.000276
H134	H	1.127789	0.532682	0.499724
H135	H	0.051560	0.047949	-0.000585
H136	H	0.551560	0.547949	0.499415
