data_functionalizedCrystal
_audit_creation_method	'MofGen! by Chris Wilmer'
_symmetry_space_group_name_H-M	'P1'
_symmetry_Int_Tables_number	1
_symmetry_cell_setting	triclinic
loop_
_symmetry_equiv_pos_as_xyz
  x,y,z
_cell_length_a	9.065218
_cell_length_b	10.065875
_cell_length_c	9.065218
_cell_angle_alpha	81.078217
_cell_angle_beta	85.015885
_cell_angle_gamma	98.878472
loop_
_atom_site_label
_atom_site_type_symbol
_atom_site_fract_x
_atom_site_fract_y
_atom_site_fract_z
O1	O	1.981701	0.113491	0.194956
O2	O	1.552416	0.113493	0.212703
O3	O	1.775931	0.113489	-0.010812
O4	O	1.758186	0.113495	0.418471
O5	O	1.733312	-0.113499	0.031982
O6	O	1.509797	-0.113495	0.255497
O7	O	1.939082	-0.113497	0.237751
Zn8	Zn	1.717673	-0.149535	0.253419
Zn9	Zn	1.773825	0.149531	0.197035
O10	O	1.715567	-0.113493	0.461266
C11	C	1.476120	-0.000001	0.232394
C12	C	1.312277	-0.000000	0.227295
N13	N	1.679361	-0.353640	0.291898
C14	C	1.760486	-0.421420	0.210414
C15	C	1.731012	-0.578587	0.240040
C16	C	2.015378	0.000000	0.218059
C17	C	2.179223	0.000008	0.223157
C18	C	1.752917	-0.000003	-0.044402
C19	C	1.747818	0.000004	-0.208246
N20	N	1.812148	0.353636	0.158544
C21	C	1.738582	0.000002	0.494855
C22	C	1.743682	0.000004	0.658698
H23	H	1.851756	-0.363097	0.118712
H24	H	1.639726	-0.636907	0.331736
H25	H	1.903424	-0.588044	0.066837
F26	F	1.560049	-0.429869	0.411746
