data_functionalizedCrystal
_audit_creation_method	'MofGen! by Chris Wilmer'
_symmetry_space_group_name_H-M	'P1'
_symmetry_Int_Tables_number	1
_symmetry_cell_setting	triclinic
loop_
_symmetry_equiv_pos_as_xyz
  x,y,z
_cell_length_a	13.897449
_cell_length_b	29.839131
_cell_length_c	13.897441
_cell_angle_alpha	90.042797
_cell_angle_beta	90.020733
_cell_angle_gamma	90.036508
loop_
_atom_site_label
_atom_site_type_symbol
_atom_site_fract_x
_atom_site_fract_y
_atom_site_fract_z
Zn1	Zn	1.474585	-0.178824	0.545299
Zn2	Zn	1.474430	-0.253959	0.383966
Zn3	Zn	1.313274	-0.178845	0.384018
Zn4	Zn	1.313207	-0.253929	0.545219
O5	O	1.393874	-0.216389	0.464626
O6	O	1.609546	-0.188794	0.523910
O7	O	1.453015	-0.244016	0.248992
O8	O	1.334766	-0.115975	0.405467
O9	O	1.609432	-0.243995	0.405380
O10	O	1.453280	-0.115959	0.523960
O11	O	1.334615	-0.188830	0.249029
O12	O	1.178284	-0.188802	0.405389
O13	O	1.334650	-0.243945	0.680211
O14	O	1.178234	-0.243966	0.523823
O15	O	1.453215	-0.188765	0.680270
O16	O	1.452950	-0.316822	0.405302
O17	O	1.334500	-0.316800	0.523773
C18	C	1.143260	-0.216383	0.464604
C19	C	1.036046	-0.216391	0.464617
C20	C	0.839750	-0.216393	0.464642
C21	C	0.948983	-0.216391	0.464626
C22	C	1.393727	-0.333112	0.464544
C23	C	1.393752	-0.383046	0.464542
C24	C	1.455571	-0.692646	0.526413
C25	C	1.455676	-0.880319	0.526471
O26	O	1.508092	-0.904548	0.579015
N27	N	1.394038	-0.903831	0.464733
C28	C	1.332365	-0.880422	0.402980
O29	O	1.279933	-0.904726	0.350476
C30	C	1.332256	-0.692750	0.402928
C31	C	1.393905	-0.669240	0.464663
C32	C	1.517214	-0.669137	0.588144
C33	C	1.517191	-0.622222	0.588125
C34	C	1.455525	-0.598816	0.526375
C35	C	1.393882	-0.622325	0.464644
C36	C	1.270579	-0.669341	0.341181
C37	C	1.270555	-0.622420	0.341175
C38	C	1.332204	-0.598911	0.402910
C39	C	1.332192	-0.552003	0.402876
N40	N	1.393830	-0.528492	0.464614
C41	C	1.455496	-0.551898	0.526364
C42	C	1.332428	-0.978952	0.403011
C43	C	1.332456	-1.025870	0.403022
C44	C	1.455766	-1.025765	0.526515
C45	C	1.455742	-0.978846	0.526497
C46	C	1.394065	-0.955441	0.464749
C47	C	1.455444	-0.453372	0.526319
C48	C	1.455418	-0.406452	0.526292
C49	C	1.332105	-0.406562	0.402804
C50	C	1.332134	-0.453477	0.402827
C51	C	1.393807	-0.476881	0.464592
O52	O	1.279796	-0.527746	0.350366
O53	O	1.507905	-0.527585	0.578874
C54	C	1.455594	-0.739562	0.526432
C55	C	1.393951	-0.763071	0.464701
C56	C	1.332285	-0.739665	0.402951
C57	C	1.393979	-0.809989	0.464712
C58	C	1.455645	-0.833395	0.526462
C59	C	1.517283	-0.809883	0.588200
C60	C	1.517260	-0.762968	0.588181
C61	C	1.270647	-0.763177	0.341213
C62	C	1.270676	-0.810092	0.341236
C63	C	1.332342	-0.833498	0.402986
C64	C	1.645467	-0.216395	0.464648
C65	C	1.752681	-0.216398	0.464658
C66	C	1.393942	-0.216349	0.716219
C67	C	1.393971	-0.216332	0.823433
C68	C	1.394048	-0.099211	0.464728
C69	C	1.394122	-0.049276	0.464772
C70	C	1.393861	-0.216396	0.214011
C71	C	1.394019	-0.216287	0.106798
C72	C	1.393998	-0.216302	1.019728
C73	C	1.393980	-0.216320	0.910495
H74	H	1.505623	-0.387312	0.576564
C75	C	1.585065	-0.737114	0.656100
H76	H	1.621782	-0.757779	0.692880
H77	H	1.627109	-0.718807	0.619246
H78	H	1.548127	-0.718811	0.698096
C79	C	1.585117	-0.835634	0.656124
H80	H	1.621835	-0.814916	0.692889
H81	H	1.548201	-0.853935	0.698119
H82	H	1.627175	-0.853934	0.619259
C83	C	1.523290	-0.479110	0.594250
H84	H	1.560002	-0.458383	0.631000
H85	H	1.486392	-0.497411	0.636260
H86	H	1.565353	-0.497408	0.557388
C87	C	1.264325	-0.479339	0.334918
H88	H	1.227593	-0.458677	0.298144
H89	H	1.301246	-0.497648	0.292931
H90	H	1.222280	-0.497638	0.371798
C91	C	1.202855	-0.835947	0.273324
H92	H	1.166122	-0.815284	0.236556
H93	H	1.239772	-0.854256	0.231331
H94	H	1.160811	-0.854248	0.310203
C95	C	1.202818	-0.737436	0.273277
H96	H	1.166122	-0.758162	0.236510
H97	H	1.160753	-0.719133	0.310117
H98	H	1.239739	-0.719140	0.231269
C99	C	1.523593	-1.051517	0.594442
H100	H	1.514769	-1.082826	0.585607
H101	H	1.588410	-1.043809	0.580395
H102	H	1.509422	-1.043809	0.659240
C103	C	1.585002	-0.596367	0.656038
H104	H	1.621721	-0.617032	0.692816
H105	H	1.627044	-0.578062	0.619177
H106	H	1.548069	-0.578064	0.698036
C107	C	1.523537	-0.952990	0.594422
H108	H	1.560258	-0.973653	0.631203
H109	H	1.565580	-0.934680	0.557573
H110	H	1.486590	-0.934691	0.636417
H111	H	1.220328	-0.603366	0.290893
C112	C	1.264648	-1.051725	0.335108
H113	H	1.227915	-1.031062	0.298341
H114	H	1.301572	-1.070031	0.293114
H115	H	1.222605	-1.070029	0.371980
C116	C	1.264274	-0.380809	0.334888
H117	H	1.273086	-0.349500	0.343733
H118	H	1.278418	-0.388516	0.270089
H119	H	1.199458	-0.388518	0.348963
H120	H	1.282202	-0.959899	0.352725
H121	H	1.220378	-0.688474	0.290909
H122	H	1.567430	-0.688189	0.638434
