data_functionalizedCrystal
_audit_creation_method	'MofGen! by Chris Wilmer'
_symmetry_space_group_name_H-M	'P1'
_symmetry_Int_Tables_number	1
_symmetry_cell_setting	triclinic
loop_
_symmetry_equiv_pos_as_xyz
  x,y,z
_cell_length_a	19.288840
_cell_length_b	15.995350
_cell_length_c	14.472311
_cell_angle_alpha	89.993946
_cell_angle_beta	89.987663
_cell_angle_gamma	83.309196
loop_
_atom_site_label
_atom_site_type_symbol
_atom_site_fract_x
_atom_site_fract_y
_atom_site_fract_z
O1	O	0.921630	0.104355	-0.076991
O2	O	1.171630	0.354355	0.173009
O3	O	1.421630	0.604355	0.423009
O4	O	1.671630	0.854355	0.673009
O5	O	0.719404	0.118467	-0.076958
O6	O	0.969404	0.368467	0.173042
O7	O	1.219404	0.618467	0.423042
O8	O	1.469404	0.868467	0.673042
O9	O	0.826045	-0.010498	-0.076975
O10	O	1.076045	0.239502	0.173025
O11	O	1.326045	0.489502	0.423025
O12	O	1.576045	0.739502	0.673025
O13	O	0.814989	0.233320	-0.076975
O14	O	1.064989	0.483320	0.173025
O15	O	1.314989	0.733320	0.423025
O16	O	1.564989	0.983320	0.673025
O17	O	0.826036	-0.010511	0.076707
O18	O	1.076036	0.239489	0.326707
O19	O	1.326036	0.489489	0.576707
O20	O	1.576036	0.739489	0.826707
O21	O	0.719394	0.118454	0.076724
O22	O	0.969394	0.368454	0.326724
O23	O	1.219394	0.618454	0.576724
O24	O	1.469394	0.868454	0.826724
O25	O	0.921621	0.104342	0.076691
O26	O	1.171621	0.354342	0.326691
O27	O	1.421621	0.604342	0.576691
O28	O	1.671621	0.854342	0.826691
Cu29	Cu	0.820507	0.111397	0.090740
Cu30	Cu	1.070507	0.361397	0.340740
Cu31	Cu	1.320507	0.611397	0.590740
Cu32	Cu	1.570507	0.861397	0.840740
Cu33	Cu	0.820518	0.111412	-0.091007
Cu34	Cu	1.070518	0.361412	0.158993
Cu35	Cu	1.320518	0.611412	0.408993
Cu36	Cu	1.570518	0.861412	0.658993
O37	O	0.814980	0.233307	0.076708
O38	O	1.064980	0.483307	0.326708
O39	O	1.314980	0.733307	0.576708
O40	O	1.564980	0.983307	0.826708
C41	C	0.693521	0.118010	-0.000113
C42	C	0.943521	0.368010	0.249887
C43	C	1.193521	0.618010	0.499887
C44	C	1.443521	0.868010	0.749887
C45	C	0.616413	0.116657	-0.000101
C46	C	0.866413	0.366657	0.249899
C47	C	1.116413	0.616657	0.499899
C48	C	1.366413	0.866657	0.749899
C49	C	0.580213	0.116014	-0.083875
C50	C	0.830213	0.366014	0.166125
C51	C	1.080213	0.616014	0.416125
C52	C	1.330213	0.866014	0.666125
C53	C	0.507763	0.114734	-0.083887
C54	C	0.757763	0.364734	0.166113
C55	C	1.007763	0.614734	0.416113
C56	C	1.257763	0.864734	0.666113
C57	C	0.471517	0.114080	-0.000119
C58	C	0.721517	0.364080	0.249881
C59	C	0.971517	0.614080	0.499881
C60	C	1.221517	0.864080	0.749881
C61	C	0.507726	0.114728	0.083667
C62	C	0.757726	0.364728	0.333667
C63	C	1.007726	0.614728	0.583667
C64	C	1.257726	0.864728	0.833667
C65	C	0.580173	0.116017	0.083676
C66	C	0.830173	0.366017	0.333676
C67	C	1.080173	0.616017	0.583676
C68	C	1.330173	0.866017	0.833676
C69	C	0.362053	0.062990	0.064046
C70	C	0.612053	0.312990	0.314046
C71	C	0.862053	0.562990	0.564046
C72	C	1.112053	0.812990	0.814046
C73	C	0.289607	0.061696	0.064034
C74	C	0.539607	0.311696	0.314034
C75	C	0.789607	0.561696	0.564034
C76	C	1.039607	0.811696	0.814034
C77	C	0.248063	0.110109	-0.000143
C78	C	0.498063	0.360109	0.249857
C79	C	0.748063	0.610109	0.499857
C80	C	0.998063	0.860109	0.749857
C81	C	0.278976	0.159805	-0.064323
C82	C	0.528976	0.409805	0.185677
C83	C	0.778976	0.659805	0.435677
C84	C	1.028976	0.909805	0.685677
C85	C	0.351424	0.161094	-0.064314
C86	C	0.601424	0.411094	0.185686
C87	C	0.851424	0.661094	0.435686
C88	C	1.101424	0.911094	0.685686
C89	C	0.392960	0.112683	-0.000119
C90	C	0.642960	0.362683	0.249881
C91	C	0.892960	0.612683	0.499881
C92	C	1.142960	0.862683	0.749881
C93	C	0.133305	0.108079	-0.083935
C94	C	0.383305	0.358079	0.166065
C95	C	0.633305	0.608079	0.416065
C96	C	0.883305	0.858079	0.666065
C97	C	0.060852	0.106804	-0.083943
C98	C	0.310852	0.356804	0.166057
C99	C	0.560852	0.606804	0.416057
C100	C	0.810852	0.856804	0.666057
C101	C	0.060817	0.106789	0.083613
C102	C	0.310817	0.356789	0.333613
C103	C	0.560817	0.606789	0.583613
C104	C	0.810817	0.856789	0.833613
C105	C	0.133267	0.108073	0.083618
C106	C	0.383267	0.358073	0.333618
C107	C	0.633267	0.608073	0.583618
C108	C	0.883267	0.858073	0.833618
C109	C	0.169507	0.108714	-0.000158
C110	C	0.419507	0.358714	0.249842
C111	C	0.669507	0.608714	0.499842
C112	C	0.919507	0.858714	0.749842
C113	C	0.825583	-0.041698	-0.000135
C114	C	1.075583	0.208302	0.249865
C115	C	1.325583	0.458302	0.499865
C116	C	1.575583	0.708302	0.749865
C117	C	0.824213	-0.134643	-0.000140
C118	C	1.074213	0.115357	0.249860
C119	C	1.324213	0.365357	0.499860
C120	C	1.574213	0.615357	0.749860
C121	C	0.819292	-0.472371	-0.000136
C122	C	1.069292	-0.222371	0.249864
C123	C	1.319292	0.027629	0.499864
C124	C	1.569292	0.277629	0.749864
C125	C	0.743344	-0.424642	-0.000469
C126	C	0.993344	-0.174642	0.249531
C127	C	1.243344	0.075358	0.499531
C128	C	1.493344	0.325358	0.749531
C129	C	0.744715	-0.327957	-0.000123
C130	C	0.994715	-0.077957	0.249877
C131	C	1.244715	0.172043	0.499877
C132	C	1.494715	0.422043	0.749877
C133	C	0.821733	-0.304820	-0.000139
C134	C	1.071733	-0.054820	0.249861
C135	C	1.321733	0.195180	0.499861
C136	C	1.571733	0.445180	0.749861
C137	C	0.859188	-0.346050	0.087613
C138	C	1.109188	-0.096050	0.337613
C139	C	1.359188	0.153950	0.587613
C140	C	1.609188	0.403950	0.837613
C141	C	0.857280	-0.442678	0.087687
C142	C	1.107280	-0.192678	0.337687
C143	C	1.357280	0.057322	0.587687
C144	C	1.607280	0.307322	0.837687
C145	C	0.858860	-0.443028	-0.087078
C146	C	1.108860	-0.193028	0.162922
C147	C	1.358860	0.056972	0.412922
C148	C	1.608860	0.306972	0.662922
C149	C	0.858842	-0.346083	-0.088238
C150	C	1.108842	-0.096083	0.161762
C151	C	1.358842	0.153917	0.411762
C152	C	1.608842	0.403917	0.661762
C153	C	0.823116	-0.210128	-0.000137
C154	C	1.073116	0.039872	0.249863
C155	C	1.323116	0.289872	0.499863
C156	C	1.573116	0.539872	0.749863
C157	C	0.817911	-0.567064	-0.000132
C158	C	1.067911	-0.317064	0.249868
C159	C	1.317911	-0.067064	0.499868
C160	C	1.567911	0.182936	0.749868
C161	C	0.947504	0.104799	-0.000156
C162	C	1.197504	0.354799	0.249844
C163	C	1.447504	0.604799	0.499844
C164	C	1.697504	0.854799	0.749844
C165	C	1.024612	0.106152	-0.000174
C166	C	1.274612	0.356152	0.249826
C167	C	1.524612	0.606152	0.499826
C168	C	1.774612	0.856152	0.749826
C169	C	0.815441	0.264507	-0.000134
C170	C	1.065441	0.514507	0.249866
C171	C	1.315441	0.764507	0.499866
C172	C	1.565441	1.014507	0.749866
C173	C	0.816812	0.357452	-0.000135
C174	C	1.066812	0.607452	0.249865
C175	C	1.316812	0.857452	0.499865
C176	C	1.566812	1.107452	0.749865
N177	N	0.820504	0.111386	0.218571
N178	N	1.070504	0.361386	0.468571
N179	N	1.320504	0.611386	0.718571
N180	N	1.570504	0.861386	0.968571
N181	N	0.820527	0.111416	-0.218838
N182	N	1.070527	0.361416	0.031162
N183	N	1.320527	0.611416	0.281162
N184	N	1.570527	0.861416	0.531162
C185	C	0.820511	0.111397	0.407071
C186	C	1.070511	0.361397	0.657071
C187	C	1.320511	0.611397	0.907071
C188	C	1.570511	0.861397	1.157071
C189	C	0.877586	0.042413	0.446264
C190	C	1.127586	0.292413	0.696264
C191	C	1.377586	0.542413	0.946264
C192	C	1.627586	0.792413	1.196264
C193	C	0.877793	0.042595	0.553352
C194	C	1.127793	0.292595	0.803352
C195	C	1.377793	0.542595	1.053352
C196	C	1.627793	0.792595	1.303352
C197	C	0.820519	0.111406	0.592662
C198	C	1.070519	0.361406	0.842662
C199	C	1.320519	0.611406	1.092662
C200	C	1.570519	0.861406	1.342662
C201	C	0.836048	0.198818	0.553765
C202	C	1.086048	0.448818	0.803765
C203	C	1.336048	0.698818	1.053765
C204	C	1.586048	0.948818	1.303765
C205	C	0.836454	0.198408	0.446644
C206	C	1.086454	0.448408	0.696644
C207	C	1.336454	0.698408	0.946644
C208	C	1.586454	0.948408	1.196644
C209	C	0.747736	0.093756	0.446574
C210	C	0.997736	0.343756	0.696574
C211	C	1.247736	0.593756	0.946574
C212	C	1.497736	0.843756	1.196574
C213	C	0.748228	0.091774	0.553702
C214	C	0.998228	0.341774	0.803702
C215	C	1.248228	0.591774	1.053702
C216	C	1.498228	0.841774	1.303702
C217	C	0.820522	0.111416	0.697550
C218	C	1.070522	0.361416	0.947550
C219	C	1.320522	0.611416	1.197550
C220	C	1.570522	0.861416	1.447550
C221	C	0.820510	0.111392	0.302183
C222	C	1.070510	0.361392	0.552183
C223	C	1.320510	0.611392	0.802183
C224	C	1.570510	0.861392	1.052183
H225	H	0.609647	0.116541	0.151897
H226	H	0.859647	0.366541	0.401897
H227	H	1.109647	0.616541	0.651897
H228	H	1.359647	0.866541	0.901897
F229	F	0.469149	0.114036	0.172818
F230	F	0.719149	0.364036	0.422818
F231	F	0.969149	0.614036	0.672818
F232	F	1.219149	0.864036	0.922818
H233	H	0.712992	-0.443051	-0.063397
H234	H	0.962992	-0.193051	0.186603
H235	H	1.212992	0.056949	0.436603
H236	H	1.462992	0.306949	0.686603
F237	F	0.783142	0.267538	0.587042
F238	F	1.033142	0.517538	0.837042
F239	F	1.283142	0.767538	1.087042
F240	F	1.533142	1.017538	1.337042
H241	H	0.715272	-0.299416	-0.063026
H242	H	0.965272	-0.049416	0.186974
H243	H	1.215272	0.200584	0.436974
H244	H	1.465272	0.450584	0.686974
H245	H	0.888507	0.214736	0.580579
H246	H	1.138507	0.464736	0.830579
H247	H	1.388507	0.714736	1.080579
H248	H	1.638507	0.964736	1.330579
F249	F	0.826404	-0.469733	-0.174015
F250	F	1.076404	-0.219733	0.075985
F251	F	1.326404	0.030267	0.325985
F252	F	1.576404	0.280267	0.575985
F253	F	0.732807	0.007733	0.586950
F254	F	0.982807	0.257733	0.836950
F255	F	1.232807	0.507733	1.086950
F256	F	1.482807	0.757733	1.336950
F257	F	0.703736	-0.450387	0.081113
F258	F	0.953736	-0.200387	0.331113
F259	F	1.203736	0.049613	0.581113
F260	F	1.453736	0.299613	0.831113
F261	F	0.705960	-0.291388	0.082248
F262	F	0.955960	-0.041388	0.332248
F263	F	1.205960	0.208612	0.582248
F264	F	1.455960	0.458612	0.832248
H265	H	0.031306	0.106262	0.151818
H266	H	0.281306	0.356262	0.401818
H267	H	0.531306	0.606262	0.651818
H268	H	0.781306	0.856262	0.901818
F269	F	0.933146	-0.327876	0.091867
F270	F	1.183146	-0.077876	0.341867
F271	F	1.433146	0.172124	0.591867
F272	F	1.683146	0.422124	0.841867
H273	H	0.732739	0.031373	0.419569
H274	H	0.982739	0.281373	0.669569
H275	H	1.232739	0.531373	0.919569
H276	H	1.482739	0.781373	1.169569
F277	F	0.690141	0.153192	0.588670
F278	F	0.940141	0.403192	0.838670
F279	F	1.190141	0.653192	1.088670
F280	F	1.440141	0.903192	1.338670
F281	F	0.932253	-0.326284	-0.095185
F282	F	1.182253	-0.076284	0.154815
F283	F	1.432253	0.173716	0.404815
F284	F	1.682253	0.423716	0.654815
H285	H	0.162742	0.108591	0.151836
H286	H	0.412742	0.358591	0.401836
H287	H	0.662742	0.608591	0.651836
H288	H	0.912742	0.858591	0.901836
H289	H	0.831457	-0.318723	-0.153155
H290	H	1.081457	-0.068723	0.096845
H291	H	1.331457	0.181277	0.346845
H292	H	1.581457	0.431277	0.596845
F293	F	0.825176	-0.308831	0.172985
F294	F	1.075176	-0.058831	0.422985
F295	F	1.325176	0.191169	0.672985
F296	F	1.575176	0.441169	0.922985
F297	F	0.406260	0.011460	0.132358
F298	F	0.656260	0.261460	0.382358
F299	F	0.906260	0.511460	0.632358
F300	F	1.156260	0.761460	0.882358
H301	H	0.705266	0.144062	0.421228
H302	H	0.955266	0.394062	0.671228
H303	H	1.205266	0.644062	0.921228
H304	H	1.455266	0.894062	1.171228
H305	H	0.914856	-0.475006	-0.087680
H306	H	1.164856	-0.225006	0.162320
H307	H	1.414856	0.024994	0.412320
H308	H	1.664856	0.274994	0.662320
F309	F	0.256713	0.008822	0.132353
F310	F	0.506713	0.258822	0.382353
F311	F	0.756713	0.508822	0.632353
F312	F	1.006713	0.758822	0.882353
H313	H	0.829960	-0.460879	0.153295
H314	H	1.079960	-0.210879	0.403295
H315	H	1.329960	0.039121	0.653295
H316	H	1.579960	0.289121	0.903295
F317	F	0.930159	-0.485115	0.092886
F318	F	1.180159	-0.235115	0.342886
F319	F	1.430159	0.014885	0.592886
F320	F	1.680159	0.264885	0.842886
F321	F	0.865758	-0.042330	0.587730
F322	F	1.115758	0.207670	0.837730
F323	F	1.365758	0.457670	1.087730
F324	F	1.615758	0.707670	1.337730
H325	H	0.868546	-0.022778	0.420495
H326	H	1.118546	0.227222	0.670495
H327	H	1.368546	0.477222	0.920495
H328	H	1.618546	0.727222	1.170495
F329	F	0.947787	0.056940	0.411062
F330	F	1.197787	0.306940	0.661062
F331	F	1.447787	0.556940	0.911062
F332	F	1.697787	0.806940	1.161062
H333	H	0.931806	0.053874	0.578963
H334	H	1.181806	0.303874	0.828963
H335	H	1.431806	0.553874	1.078963
H336	H	1.681806	0.803874	1.328963
F337	F	0.784570	0.267952	0.412753
F338	F	1.034570	0.517952	0.662753
F339	F	1.284570	0.767952	0.912753
F340	F	1.534570	1.017952	1.162753
F341	F	0.618778	0.116699	-0.173038
F342	F	0.868778	0.366699	0.076962
F343	F	1.118778	0.616699	0.326962
F344	F	1.368778	0.866699	0.576962
F345	F	0.469228	0.114050	-0.173054
F346	F	0.719228	0.364050	0.076946
F347	F	0.969228	0.614050	0.326946
F348	F	1.219228	0.864050	0.576946
H349	H	0.031379	0.106286	-0.152165
H350	H	0.281379	0.356286	0.097835
H351	H	0.531379	0.606286	0.347835
H352	H	0.781379	0.856286	0.597835
H353	H	0.376589	0.201560	-0.116569
H354	H	0.626589	0.451560	0.133431
H355	H	0.876589	0.701560	0.383431
H356	H	1.126589	0.951560	0.633431
F357	F	0.234768	0.211337	-0.132627
F358	F	0.484768	0.461337	0.117373
F359	F	0.734768	0.711337	0.367373
F360	F	0.984768	0.961337	0.617373
F361	F	0.905814	0.218717	0.413963
F362	F	1.155814	0.468717	0.663963
F363	F	1.405814	0.718717	0.913963
F364	F	1.655814	0.968717	1.163963
H365	H	0.162812	0.108610	-0.152151
H366	H	0.412812	0.358610	0.097849
H367	H	0.662812	0.608610	0.347849
H368	H	0.912812	0.858610	0.597849
