data_functionalizedCrystal
_audit_creation_method	'MofGen! by Chris Wilmer'
_symmetry_space_group_name_H-M	'P1'
_symmetry_Int_Tables_number	1
_symmetry_cell_setting	triclinic
loop_
_symmetry_equiv_pos_as_xyz
  x,y,z
_cell_length_a	27.732064
_cell_length_b	27.731996
_cell_length_c	26.210047
_cell_angle_alpha	89.998501
_cell_angle_beta	89.998671
_cell_angle_gamma	82.635407
loop_
_atom_site_label
_atom_site_type_symbol
_atom_site_fract_x
_atom_site_fract_y
_atom_site_fract_z
O1	O	0.640915	0.057550	-0.042344
O2	O	1.140915	0.557550	0.457656
O3	O	0.500121	0.066287	-0.042366
O4	O	1.000121	0.566287	0.457634
O5	O	0.574904	-0.008480	-0.042344
O6	O	1.074904	0.491520	0.457656
O7	O	0.566132	0.132317	-0.042367
O8	O	1.066132	0.632317	0.457633
O9	O	0.574890	-0.008468	0.042514
O10	O	1.074890	0.491532	0.542514
O11	O	0.500107	0.066299	0.042492
O12	O	1.000107	0.566299	0.542492
O13	O	0.640901	0.057561	0.042514
O14	O	1.140901	0.557561	0.542514
Cu15	Cu	0.570502	0.061931	0.050251
Cu16	Cu	1.070502	0.561931	0.550251
Cu17	Cu	0.570519	0.061917	-0.050104
Cu18	Cu	1.070519	0.561917	0.449896
O19	O	0.566118	0.132328	0.042491
O20	O	1.066118	0.632328	0.542491
C21	C	0.482107	0.066108	0.000060
C22	C	0.982107	0.566108	0.500060
C23	C	0.428453	0.065552	0.000052
C24	C	0.928453	0.565552	0.500052
C25	C	0.574717	-0.026481	0.000087
C26	C	1.074717	0.473519	0.500087
C27	C	0.574174	-0.080138	0.000092
C28	C	1.074174	0.419862	0.500092
C29	C	0.051389	0.017584	0.000089
C30	C	0.551389	0.517584	0.500089
C31	C	0.253049	0.019630	0.000076
C32	C	0.753049	0.519630	0.500076
O33	O	0.284309	-0.017592	0.000101
O34	O	0.784309	0.482408	0.500101
N35	N	0.272168	0.063966	0.000066
N36	N	0.772168	0.563966	0.500066
C37	C	0.240869	0.107793	0.000063
C38	C	0.740869	0.607793	0.500063
O39	O	0.261758	0.145549	0.000060
O40	O	0.761758	0.645549	0.500060
C41	C	0.039210	0.105746	0.000080
C42	C	0.539210	0.605746	0.500080
C43	C	0.020094	0.061407	0.000085
C44	C	0.520094	0.561407	0.500085
C45	C	0.032272	-0.026751	0.000094
C46	C	0.532272	0.473249	0.500094
C47	C	-0.018140	-0.027262	0.000095
C48	C	0.481860	0.472738	0.500095
C49	C	-0.049435	0.016562	0.000090
C50	C	0.450565	0.516562	0.500090
C51	C	-0.030318	0.060896	0.000085
C52	C	0.469682	0.560896	0.500085
C53	C	0.007912	0.149572	0.000081
C54	C	0.507912	0.649572	0.500081
C55	C	-0.042506	0.149057	0.000087
C56	C	0.457494	0.649057	0.500087
C57	C	-0.061622	0.104718	0.000091
C58	C	0.438378	0.604718	0.500091
C59	C	-0.112026	0.104209	0.000082
C60	C	0.387974	0.604209	0.500082
N61	N	-0.131145	0.059873	0.000091
N62	N	0.368855	0.559873	0.500091
C63	C	-0.099849	0.016050	0.000096
C64	C	0.400151	0.516050	0.500096
C65	C	0.346743	0.108864	0.000053
C66	C	0.846743	0.608864	0.500053
C67	C	0.397158	0.109376	0.000048
C68	C	0.897158	0.609376	0.500048
C69	C	0.409334	0.021213	0.000061
C70	C	0.909334	0.521213	0.500061
C71	C	0.358919	0.020702	0.000063
C72	C	0.858919	0.520702	0.500063
C73	C	0.327624	0.064529	0.000063
C74	C	0.827624	0.564529	0.500063
C75	C	-0.205719	0.014980	0.000096
C76	C	0.294281	0.514980	0.500096
C77	C	-0.256136	0.014473	0.000095
C78	C	0.243864	0.514473	0.500095
C79	C	-0.268308	0.102635	0.000084
C80	C	0.231692	0.602635	0.500084
C81	C	-0.217895	0.103142	0.000083
C82	C	0.282105	0.603142	0.500083
C83	C	-0.186601	0.059311	0.000091
C84	C	0.313399	0.559311	0.500091
O85	O	-0.143313	0.141411	0.000062
O86	O	0.356687	0.641411	0.500062
O87	O	-0.120748	-0.021702	0.000110
O88	O	0.379252	0.478298	0.500110
C89	C	0.101801	0.018095	0.000089
C90	C	0.601801	0.518095	0.500089
C91	C	0.120918	0.062430	0.000083
C92	C	0.620918	0.562430	0.500083
C93	C	0.089623	0.106253	0.000079
C94	C	0.589623	0.606253	0.500079
C95	C	0.171332	0.062941	0.000078
C96	C	0.671332	0.562941	0.500078
C97	C	0.202628	0.019118	0.000083
C98	C	0.702628	0.519118	0.500083
C99	C	0.183508	-0.025218	0.000092
C100	C	0.683508	0.474782	0.500092
C101	C	0.133096	-0.025729	0.000093
C102	C	0.633096	0.474271	0.500093
C103	C	0.108742	0.150589	0.000069
C104	C	0.608742	0.650589	0.500069
C105	C	0.159154	0.151096	0.000068
C106	C	0.659154	0.651096	0.500068
C107	C	0.190450	0.107273	0.000073
C108	C	0.690450	0.607273	0.500073
C109	C	0.570767	-0.412861	-0.046189
C110	C	1.070767	0.087139	0.453811
C111	C	0.568706	-0.614519	-0.046199
C112	C	1.068706	-0.114519	0.453801
O113	O	0.568425	-0.640595	-0.085538
O114	O	1.068425	-0.140595	0.414462
N115	N	0.568442	-0.639730	0.000057
N116	N	1.068442	-0.139730	0.500057
C117	C	0.568690	-0.614522	0.046318
C118	C	1.068690	-0.114522	0.546318
O119	O	0.568414	-0.640592	0.085661
O120	O	1.068414	-0.140592	0.585661
C121	C	0.570748	-0.412865	0.046327
C122	C	1.070748	0.087135	0.546327
C123	C	0.571017	-0.387657	0.000068
C124	C	1.071017	0.112343	0.500068
C125	C	0.571035	-0.387653	-0.092444
C126	C	1.071035	0.112347	0.407556
C127	C	0.571553	-0.337242	-0.092442
C128	C	1.071553	0.162758	0.407558
C129	C	0.571803	-0.312038	-0.046184
C130	C	1.071803	0.187962	0.453816
C131	C	0.571535	-0.337246	0.000071
C132	C	1.071535	0.162754	0.500071
C133	C	0.570993	-0.387658	0.092588
C134	C	1.070993	0.112342	0.592588
C135	C	0.571506	-0.337240	0.092586
C136	C	1.071506	0.162760	0.592586
C137	C	0.571775	-0.312032	0.046327
C138	C	1.071775	0.187968	0.546327
C139	C	0.572302	-0.261631	0.046332
C140	C	1.072302	0.238369	0.546332
N141	N	0.572566	-0.236420	0.000076
N142	N	1.072566	0.263580	0.500076
C143	C	0.572316	-0.261624	-0.046182
C144	C	1.072316	0.238376	0.453818
C145	C	0.567611	-0.720396	0.046310
C146	C	1.067611	-0.220396	0.546310
C147	C	0.567098	-0.770810	0.046308
C148	C	1.067098	-0.270810	0.546308
C149	C	0.567112	-0.770803	-0.046209
C150	C	1.067112	-0.270803	0.453791
C151	C	0.567629	-0.720388	-0.046206
C152	C	1.067629	-0.220388	0.453794
C153	C	0.567875	-0.695185	0.000055
C154	C	1.067875	-0.195185	0.500055
C155	C	0.573404	-0.155757	-0.046172
C156	C	1.073404	0.344243	0.453828
C157	C	0.573924	-0.105341	-0.046166
C158	C	1.073924	0.394659	0.453834
C159	C	0.573907	-0.105352	0.046351
C160	C	1.073907	0.394648	0.546351
C161	C	0.573390	-0.155764	0.046345
C162	C	1.073390	0.344236	0.546345
C163	C	0.573137	-0.180964	0.000079
C164	C	1.073137	0.319036	0.500079
O165	O	0.572578	-0.235523	0.085650
O166	O	1.072578	0.264477	0.585650
O167	O	0.572582	-0.235544	-0.085519
O168	O	1.072582	0.264456	0.414481
C169	C	0.570249	-0.463272	-0.046192
C170	C	1.070249	0.036728	0.453808
C171	C	0.569981	-0.488479	0.000063
C172	C	1.069981	0.011521	0.500063
C173	C	0.570231	-0.463276	0.046320
C174	C	1.070231	0.036724	0.546320
C175	C	0.569467	-0.538894	0.000061
C176	C	1.069467	-0.038894	0.500061
C177	C	0.569218	-0.564097	-0.046197
C178	C	1.069218	-0.064097	0.453803
C179	C	0.569482	-0.538887	-0.092453
C180	C	1.069482	-0.038887	0.407547
C181	C	0.569999	-0.488475	-0.092450
C182	C	1.069999	0.011525	0.407550
C183	C	0.569967	-0.488487	0.092576
C184	C	1.069967	0.011513	0.592576
C185	C	0.569449	-0.538898	0.092569
C186	C	1.069449	-0.038898	0.592569
C187	C	0.569200	-0.564102	0.046312
C188	C	1.069200	-0.064102	0.546312
C189	C	0.658915	0.057740	0.000086
C190	C	1.158915	0.557740	0.500086
C191	C	0.712569	0.058296	0.000091
C192	C	1.212569	0.558296	0.500091
C193	C	0.566305	0.150330	0.000059
C194	C	1.066305	0.650330	0.500059
C195	C	0.566848	0.203986	0.000051
C196	C	1.066848	0.703986	0.500051
N197	N	0.570494	0.061940	0.120835
N198	N	1.070494	0.561940	0.620835
N199	N	0.570532	0.061904	-0.120688
N200	N	1.070532	0.561904	0.379312
C201	C	0.603630	0.028818	0.473359
C202	C	1.103630	0.528818	0.973359
C203	C	0.603641	0.028811	0.687017
C204	C	1.103641	0.528811	1.187017
O205	O	0.631795	0.000651	0.714648
O206	O	1.131795	0.500651	1.214648
N207	N	0.570522	0.061907	0.713729
N208	N	1.070522	0.561907	1.213729
C209	C	0.537396	0.095004	0.687022
C210	C	1.037396	0.595004	1.187022
O211	O	0.509224	0.123150	0.714644
O212	O	1.009224	0.623150	1.214644
C213	C	0.537384	0.095008	0.473364
C214	C	1.037384	0.595008	0.973364
C215	C	0.570508	0.061914	0.446656
C216	C	1.070508	0.561914	0.946656
C217	C	0.636751	-0.004274	0.446650
C218	C	1.136751	0.495726	0.946650
C219	C	0.636749	-0.004270	0.393239
C220	C	1.136749	0.495730	0.893239
C221	C	0.603627	0.028825	0.366536
C222	C	1.103627	0.528825	0.866536
C223	C	0.570507	0.061918	0.393244
C224	C	1.070507	0.561918	0.893244
C225	C	0.504256	0.128103	0.446659
C226	C	1.004256	0.628103	0.946659
C227	C	0.504255	0.128100	0.393241
C228	C	1.004255	0.628100	0.893241
C229	C	0.537379	0.095006	0.366532
C230	C	1.037379	0.595006	0.866532
C231	C	0.537383	0.095017	0.313130
C232	C	1.037383	0.595017	0.813130
N233	N	0.570502	0.061922	0.286419
N234	N	1.070502	0.561922	0.786419
C235	C	0.603624	0.028826	0.313122
C236	C	1.103624	0.528826	0.813122
C237	C	0.537406	0.095000	0.799195
C238	C	1.037406	0.595000	1.299195
C239	C	0.537410	0.095000	0.852609
C240	C	1.037410	0.595000	1.352609
C241	C	0.603653	0.028806	0.852601
C242	C	1.103653	0.528806	1.352601
C243	C	0.603652	0.028809	0.799186
C244	C	1.103652	0.528809	1.299186
C245	C	0.570525	0.061905	0.772484
C246	C	1.070525	0.561905	1.272484
C247	C	0.603619	0.028837	0.200954
C248	C	1.103619	0.528837	0.700954
C249	C	0.603616	0.028845	0.147538
C250	C	1.103616	0.528845	0.647538
C251	C	0.537371	0.095036	0.147551
C252	C	1.037371	0.595036	0.647551
C253	C	0.537375	0.095030	0.200962
C254	C	1.037375	0.595030	0.700962
C255	C	0.570501	0.061926	0.227662
C256	C	1.070501	0.561926	0.727662
O257	O	0.509240	0.123159	0.285467
O258	O	1.009240	0.623159	0.785467
O259	O	0.631785	0.000677	0.285490
O260	O	1.131785	0.500677	0.785490
C261	C	0.603631	0.028814	0.526770
C262	C	1.103631	0.528814	1.026770
C263	C	0.570510	0.061906	0.553479
C264	C	1.070510	0.561906	1.053479
C265	C	0.537388	0.095002	0.526776
C266	C	1.037388	0.595002	1.026776
C267	C	0.570514	0.061906	0.606893
C268	C	1.070514	0.561906	1.106893
C269	C	0.603636	0.028810	0.633596
C270	C	1.103636	0.528810	1.133596
C271	C	0.636754	-0.004285	0.606885
C272	C	1.136754	0.495715	1.106885
C273	C	0.636753	-0.004282	0.553473
C274	C	1.136753	0.495718	1.053473
C275	C	0.504270	0.128098	0.553487
C276	C	1.004270	0.628098	1.053487
C277	C	0.504274	0.128091	0.606899
C278	C	1.004274	0.628091	1.106899
C279	C	0.537396	0.094996	0.633602
C280	C	1.037396	0.594996	1.133602
H281	H	-0.271697	-0.021635	0.000097
H282	H	0.228303	0.478365	0.500097
H283	H	0.570830	-0.408168	-0.130115
H284	H	1.070830	0.091832	0.369885
H285	H	0.571770	-0.316722	-0.130110
H286	H	1.071770	0.183278	0.369890
N287	N	0.569164	-0.566081	0.142468
N288	N	1.069164	-0.066081	0.642468
H289	H	0.539273	-0.553159	0.162683
H290	H	1.039273	-0.053159	0.662683
H291	H	0.568816	-0.601837	0.135412
H292	H	1.068816	-0.101837	0.635412
N293	N	0.574209	-0.078143	-0.096055
N294	N	1.074209	0.421857	0.403945
H295	H	0.604096	-0.091056	-0.116279
H296	H	1.104096	0.408944	0.383721
H297	H	0.544124	-0.082776	-0.116241
H298	H	1.044124	0.417224	0.383759
N299	N	0.573145	-0.182935	-0.096072
N300	N	1.073145	0.317065	0.403928
H301	H	0.573399	-0.159311	-0.125370
H302	H	1.073399	0.340689	0.374630
H303	H	0.602913	-0.207991	-0.098075
H304	H	1.102913	0.292009	0.401925
H305	H	0.567847	-0.699868	-0.083874
H306	H	1.067847	-0.199868	0.416126
H307	H	0.083265	0.186276	0.000066
H308	H	0.583265	0.686276	0.500066
H309	H	0.117537	-0.061833	0.000097
H310	H	0.617537	0.438167	0.500097
N311	N	0.501680	0.130702	0.770395
N312	N	1.001680	0.630702	1.270395
H313	H	0.480416	0.112379	0.748236
H314	H	0.980416	0.612379	1.248236
H315	H	0.480736	0.151659	0.795456
H316	H	0.980736	0.651659	1.295456
H317	H	-0.033699	-0.063367	0.000101
H318	H	0.466301	0.436633	0.500101
H319	H	0.412717	0.145480	0.000037
H320	H	0.912717	0.645480	0.500037
N321	N	0.672476	-0.039977	0.524666
N322	N	1.172476	0.460023	1.024666
H323	H	0.706738	-0.034645	0.533961
H324	H	1.206738	0.465355	1.033961
H325	H	0.667130	-0.074232	0.533976
H326	H	1.167130	0.425768	1.033976
H327	H	0.566910	-0.791333	-0.083874
H328	H	1.066910	-0.291333	0.416126
H329	H	0.570171	-0.467971	0.130245
H330	H	1.070171	0.032029	0.630245
H331	H	0.321266	0.144555	0.000052
H332	H	0.821266	0.644555	0.500052
N333	N	-0.197277	0.150964	0.000074
N334	N	0.302723	0.650964	0.500074
H335	H	-0.176634	0.153145	0.031532
H336	H	0.323366	0.653145	0.531532
H337	H	-0.176653	0.153111	-0.031403
H338	H	0.323347	0.653111	0.468597
H339	H	-0.180245	-0.020712	0.000103
H340	H	0.319755	0.479288	0.500103
N341	N	0.501658	0.130731	0.229773
N342	N	1.001658	0.630731	0.729773
H343	H	0.480678	0.151700	0.204749
H344	H	0.980678	0.651700	0.704749
H345	H	0.480430	0.112371	0.251934
H346	H	0.980430	0.612371	0.751934
H347	H	0.566886	-0.791331	0.083977
H348	H	1.066886	-0.291331	0.583977
N349	N	0.468524	0.163793	0.475457
N350	N	0.968524	0.663793	0.975457
H351	H	0.447268	0.145459	0.497617
H352	H	0.947268	0.645459	0.997617
H353	H	0.486856	0.185067	0.497590
H354	H	0.986856	0.685067	0.997590
H355	H	0.663723	-0.031227	0.468387
H356	H	1.163723	0.468773	0.968387
N357	N	0.567883	-0.693220	0.096211
N358	N	1.067883	-0.193220	0.596211
H359	H	0.598073	-0.676447	0.098280
H360	H	1.098073	-0.176447	0.598280
H361	H	0.538100	-0.668186	0.098247
H362	H	1.038100	-0.168186	0.598247
H363	H	0.057749	-0.062439	0.000099
H364	H	0.557749	0.437561	0.500099
N365	N	-0.302067	0.149900	0.000077
N366	N	0.197933	0.649900	0.500077
H367	H	-0.336904	0.142844	0.000081
H368	H	0.163096	0.642844	0.500081
H369	H	-0.295915	0.169240	0.031534
H370	H	0.204085	0.669240	0.531534
H371	H	0.630591	0.001895	0.125793
H372	H	1.130591	0.501895	0.625793
N373	N	0.217268	-0.072485	0.000095
N374	N	0.717268	0.427515	0.500095
H375	H	0.252104	-0.065429	0.000094
H376	H	0.752104	0.434571	0.500094
H377	H	0.211117	-0.091820	0.031557
H378	H	0.711117	0.408180	0.531557
H379	H	0.343358	-0.015402	0.000067
H380	H	0.843358	0.484598	0.500067
H381	H	0.477301	0.155045	0.628641
H382	H	0.977301	0.655045	1.128641
H383	H	0.174713	0.187204	0.000061
H384	H	0.674713	0.687204	0.500061
N385	N	0.570704	-0.414838	0.142482
N386	N	1.070704	0.085162	0.642482
H387	H	0.570937	-0.391214	0.171781
H388	H	1.070937	0.108786	0.671781
H389	H	0.540511	-0.431610	0.144492
H390	H	1.040511	0.068390	0.644492
H391	H	0.477278	0.155050	0.371503
H392	H	0.977278	0.655050	0.871503
N393	N	0.569221	-0.566081	-0.142343
N394	N	1.069221	-0.066081	0.357657
H395	H	0.599294	-0.561454	-0.162556
H396	H	1.099294	-0.061454	0.337444
H397	H	0.568838	-0.601830	-0.135272
H398	H	1.068838	-0.101830	0.364728
H399	H	0.571699	-0.316721	0.130258
H400	H	1.071699	0.183279	0.630258
H401	H	0.434824	-0.014470	0.000063
H402	H	0.934824	0.485530	0.500063
N403	N	0.573108	-0.182957	0.096236
N404	N	1.073108	0.317043	0.596236
H405	H	0.573347	-0.159339	0.125540
H406	H	1.073347	0.340661	0.625540
H407	H	0.542914	-0.199726	0.098246
H408	H	1.042914	0.300274	0.598246
H409	H	0.574112	-0.084823	0.084013
H410	H	1.074112	0.415177	0.584013
N411	N	0.639379	-0.006890	0.881407
N412	N	1.139379	0.493110	1.381407
H413	H	0.634352	-0.001866	0.919296
H414	H	1.134352	0.498134	1.419296
H415	H	0.634056	-0.041145	0.872074
H416	H	1.134056	0.458855	1.372074
H417	H	0.510442	0.121953	0.874352
H418	H	1.010442	0.621953	1.374352
H419	H	0.570218	-0.467956	-0.130119
H420	H	1.070218	0.032044	0.369881
N421	N	0.639349	-0.006864	0.229747
N422	N	1.139349	0.493136	0.729747
H423	H	0.660330	-0.027823	0.204716
H424	H	1.160330	0.472177	0.704716
H425	H	0.660576	0.011498	0.251906
H426	H	1.160576	0.511498	0.751906
N427	N	0.639366	-0.006892	0.770376
N428	N	1.139366	0.493108	1.270376
H429	H	0.660626	0.011430	0.748208
H430	H	1.160626	0.511430	1.248208
H431	H	0.660316	-0.027851	0.795430
H432	H	1.160316	0.472149	1.295430
N433	N	0.028522	0.197395	0.000071
N434	N	0.528522	0.697395	0.500071
H435	H	0.001040	0.225074	0.000070
H436	H	0.501040	0.725074	0.500070
H437	H	0.049174	0.199535	0.031526
H438	H	0.549174	0.699535	0.531526
N439	N	0.672474	-0.039967	0.364436
N440	N	1.172474	0.460033	0.864436
H441	H	0.693453	-0.060932	0.389464
H442	H	1.193453	0.439068	0.889464
H443	H	0.654133	-0.061213	0.342277
H444	H	1.154133	0.438787	0.842277
H445	H	-0.067984	0.184746	0.000089
H446	H	0.432016	0.684746	0.500089
H447	H	0.510405	0.121984	0.125801
H448	H	1.010405	0.621984	0.625801
H449	H	0.663726	-0.031232	0.628635
H450	H	1.163726	0.468768	1.128635
H451	H	0.477297	0.155048	0.531750
H452	H	0.977297	0.655048	1.031750
