data_functionalizedCrystal
_audit_creation_method	'MofGen! by Chris Wilmer'
_symmetry_space_group_name_H-M	'P1'
_symmetry_Int_Tables_number	1
_symmetry_cell_setting	triclinic
loop_
_symmetry_equiv_pos_as_xyz
  x,y,z
_cell_length_a	14.971482
_cell_length_b	14.853568
_cell_length_c	13.448316
_cell_angle_alpha	90.002017
_cell_angle_beta	89.993798
_cell_angle_gamma	96.376102
loop_
_atom_site_label
_atom_site_type_symbol
_atom_site_fract_x
_atom_site_fract_y
_atom_site_fract_z
O1	O	1.186971	-0.117472	-0.082669
O2	O	0.926573	-0.131545	-0.082672
O3	O	1.063727	0.006723	-0.082675
O4	O	1.049817	-0.255739	-0.082665
O5	O	1.063710	0.006731	0.082708
O6	O	0.926556	-0.131536	0.082712
O7	O	1.186954	-0.117463	0.082715
Cu8	Cu	1.056753	-0.124499	0.097814
Cu9	Cu	1.056774	-0.124509	-0.097771
O10	O	1.049799	-0.255731	0.082718
C11	C	0.893239	-0.130912	0.000019
C12	C	0.793942	-0.129027	0.000017
C13	C	0.747288	-0.128135	0.090169
C14	C	0.653989	-0.126350	0.090170
C15	C	0.607345	-0.125464	0.000018
C16	C	0.654006	-0.126354	-0.090141
C17	C	0.747304	-0.128132	-0.090140
C18	C	0.459544	-0.122649	-0.090134
C19	C	0.366239	-0.120873	-0.090135
C20	C	0.366228	-0.120868	0.090176
C21	C	0.459526	-0.122646	0.090176
C22	C	0.506181	-0.123537	0.000017
C23	C	1.063088	0.040316	0.000013
C24	C	1.061199	0.140399	0.000003
C25	C	0.971741	0.552915	0.000014
C26	C	1.134684	0.574228	0.000016
C27	C	1.136460	0.480195	0.000012
C28	C	1.055875	0.422517	0.000010
C29	C	0.973515	0.458873	0.000013
C30	C	1.218819	0.443832	0.000019
C31	C	1.220599	0.349793	0.000016
C32	C	1.140013	0.292114	0.000007
C33	C	1.057649	0.328475	0.000009
C34	C	0.977065	0.270797	0.000007
C35	C	0.894700	0.307156	0.000002
C36	C	0.892929	0.401193	0.000004
C37	C	1.141784	0.198077	0.000005
C38	C	0.978838	0.176755	0.000006
C39	C	1.220287	-0.118096	0.000022
C40	C	1.319585	-0.119980	0.000017
N41	N	1.056745	-0.124491	0.235379
C42	C	1.050438	0.710676	0.000024
C43	C	1.052325	0.610593	0.000016
N44	N	1.056788	-0.124509	-0.235336
C45	C	1.117496	-0.063292	0.287418
C46	C	1.117502	-0.063291	0.391521
C47	C	1.056760	-0.124495	0.443583
C48	C	0.996003	-0.185697	0.391537
C49	C	0.995994	-0.185693	0.287436
C50	C	0.996028	-0.185703	0.608517
C51	C	0.996038	-0.185709	0.712625
C52	C	1.117536	-0.063301	0.712602
C53	C	1.117527	-0.063297	0.608501
C54	C	1.056770	-0.124501	0.556462
H55	H	0.328264	-0.120152	-0.163544
F56	F	1.304576	0.505220	0.000039
F57	F	0.884086	0.591611	-0.000000
H58	H	0.616009	-0.125609	0.163581
H59	H	0.497500	-0.123373	0.163586
F60	F	0.509195	-0.123594	-0.186092
F61	F	1.220442	0.635614	0.000032
H62	H	1.287665	0.320198	0.000019
H63	H	0.946541	-0.235528	0.433932
H64	H	1.208844	0.168477	0.000016
H65	H	1.166963	-0.013456	0.245035
H66	H	0.616022	-0.125626	-0.163544
F67	F	1.182158	0.001845	0.446905
H68	H	1.167005	-0.013467	0.754978
F69	F	0.931386	-0.250850	0.768027
F70	F	1.182179	0.001837	0.553092
F71	F	0.931360	-0.250842	0.553137
H72	H	0.785289	-0.128860	-0.163551
H73	H	0.913216	0.129799	0.000000
F74	F	0.805278	0.439896	-0.000005
H75	H	0.829088	0.260183	0.000007
H76	H	0.785257	-0.128864	0.163581
F77	F	0.316575	-0.119920	0.186131
F78	F	0.931331	-0.250828	0.232053
