data_functionalizedCrystal
_audit_creation_method	'MofGen! by Chris Wilmer'
_symmetry_space_group_name_H-M	'P1'
_symmetry_Int_Tables_number	1
_symmetry_cell_setting	triclinic
loop_
_symmetry_equiv_pos_as_xyz
  x,y,z
_cell_length_a	23.196402
_cell_length_b	23.196402
_cell_length_c	23.196401
_cell_angle_alpha	90.004120
_cell_angle_beta	120.002339
_cell_angle_gamma	119.995420
loop_
_atom_site_label
_atom_site_type_symbol
_atom_site_fract_x
_atom_site_fract_y
_atom_site_fract_z
Zr1	Zr	-0.630994	0.555419	-0.075655
O2	O	-0.751268	0.463366	-0.167706
O3	O	-0.510729	0.583629	-0.047440
O4	O	-0.631010	0.583620	-0.167715
O5	O	-0.630971	0.463392	0.047448
O6	O	-0.631011	0.678490	-0.167718
O7	O	-0.630987	0.463374	-0.047431
O8	O	-0.415851	0.678506	0.047432
O9	O	-0.846132	0.463376	-0.167702
O10	O	-0.560193	0.666472	-0.035405
O11	O	-0.560180	0.595685	0.035405
O12	O	-0.701795	0.595675	-0.106204
O13	O	-0.701782	0.524887	-0.035394
Zr14	Zr	-0.630970	0.706754	0.075660
Zr15	Zr	-0.630996	0.706726	-0.075660
Zr16	Zr	-0.630968	0.555447	0.075666
Zr17	Zr	-0.782290	0.555436	-0.075649
Zr18	Zr	-0.479674	0.706737	0.075655
O19	O	-0.751235	0.678544	0.047445
O20	O	-0.751272	0.678504	-0.167713
O21	O	-0.751231	0.463405	0.047453
O22	O	-0.510695	0.798807	0.167711
O23	O	-0.510732	0.798768	-0.047447
O24	O	-0.510692	0.583669	0.167719
O25	O	-0.630992	0.798781	-0.047442
O26	O	-0.630954	0.678552	0.167720
O27	O	-0.630952	0.583683	0.167724
O28	O	-0.630976	0.798799	0.047436
O29	O	-0.846134	0.583645	-0.167706
O30	O	-0.415830	0.678528	0.167712
O31	O	-0.415832	0.798797	0.167708
O32	O	-0.415852	0.798774	0.047428
O33	O	-0.846111	0.463399	-0.047422
O34	O	-0.846113	0.583667	-0.047427
O35	O	-0.560169	0.666498	0.106209
O36	O	-0.560182	0.737286	0.035400
O37	O	-0.701784	0.666488	-0.035399
O38	O	-0.701771	0.595701	0.035410
C39	C	-0.441733	0.631065	-0.000005
C40	C	-0.377504	0.631058	-0.000007
C41	C	-0.295068	0.683332	0.052255
C42	C	-0.234708	0.683336	0.052262
C43	C	-0.256789	0.631071	-0.000005
C44	C	-0.339239	0.578788	-0.052273
C45	C	-0.399597	0.578781	-0.052274
C46	C	-0.201213	0.614785	-0.063802
C47	C	-0.140854	0.614797	-0.063801
C48	C	-0.070629	0.631088	-0.000003
C49	C	-0.060759	0.647383	0.063800
C50	C	-0.121117	0.647376	0.063799
C51	C	-0.191347	0.631072	-0.000010
C52	C	0.077260	0.683369	0.052271
C53	C	0.137620	0.683369	0.052278
C54	C	0.033085	0.578824	-0.052262
C55	C	-0.027271	0.578822	-0.052263
C56	C	-0.005178	0.631098	0.000003
C57	C	-0.630979	0.441825	0.000009
C58	C	-0.630978	0.377591	0.000012
C59	C	0.179768	0.631105	0.000010
C60	C	0.115534	0.631103	0.000011
C61	C	-0.557065	0.384372	0.036961
C62	C	-0.557064	0.324017	0.036964
C63	C	-0.630980	0.256883	0.000004
C64	C	-0.704902	0.250105	-0.036947
C65	C	-0.704901	0.310459	-0.036944
C66	C	-0.687615	0.132949	-0.061910
C67	C	-0.687613	0.072597	-0.061916
C68	C	-0.630986	0.070729	-0.000007
C69	C	-0.574347	0.129227	0.061907
C70	C	-0.574346	0.189581	0.061910
C71	C	-0.630989	0.191435	-0.000004
C72	C	-0.557067	0.012069	0.036949
C73	C	-0.557069	-0.048288	0.036954
C74	C	-0.704909	-0.122200	-0.036965
C75	C	-0.704905	-0.061843	-0.036963
C76	C	-0.630982	0.005289	-0.000008
C77	C	-0.631014	0.631051	-0.189276
C78	C	-0.631025	0.631040	-0.253516
C79	C	-0.630985	0.820348	-0.000004
C80	C	-0.630986	0.884582	-0.000006
C81	C	-0.631028	0.683306	-0.283681
C82	C	-0.631011	0.683322	-0.344028
C83	C	-0.631009	0.631060	-0.374215
C84	C	-0.631002	0.578789	-0.344041
C85	C	-0.631010	0.578779	-0.283691
C86	C	-0.678501	0.567283	-0.493593
C87	C	-0.678498	0.567293	-0.553944
C88	C	-0.630980	0.631091	-0.560351
C89	C	-0.583476	0.694884	-0.506406
C90	C	-0.583484	0.694874	-0.446056
C91	C	-0.630999	0.631065	-0.439654
C92	C	-0.630963	0.683379	-0.655951
C93	C	-0.630942	0.683395	-0.716296
C94	C	-0.630941	0.578857	-0.716312
C95	C	-0.630954	0.578846	-0.655964
C96	C	-0.630969	0.631107	-0.625789
C97	C	-0.630949	0.631121	0.189282
C98	C	-0.630938	0.631133	0.253522
C99	C	-0.441736	0.820327	-0.000011
C100	C	-0.377508	0.884553	-0.000016
C101	C	-0.441701	0.631100	0.189275
C102	C	-0.377460	0.631105	0.253512
C103	C	-0.441704	0.820362	0.189268
C104	C	-0.377464	0.884600	0.253503
C105	C	-0.820260	0.441811	-0.189262
C106	C	-0.884499	0.377573	-0.253497
C107	C	-0.820227	0.441846	0.000017
C108	C	-0.884456	0.377620	0.000022
C109	C	-0.820263	0.631073	-0.189269
C110	C	-0.884503	0.631068	-0.253506
C111	C	-0.347351	0.877750	-0.036984
C112	C	-0.287011	0.938092	-0.037002
C113	C	-0.256823	1.005236	-0.000049
C114	C	-0.286986	1.012037	0.036920
C115	C	-0.347329	0.951696	0.036934
C116	C	-0.347287	0.668071	0.320644
C117	C	-0.286935	0.668072	0.381007
C118	C	-0.256753	0.631112	0.374237
C119	C	-0.286933	0.594141	0.307098
C120	C	-0.347288	0.594136	0.246736
C121	C	-0.347304	0.951723	0.246706
C122	C	-0.286953	1.012088	0.307056
C123	C	-0.256759	1.005327	0.374202
C124	C	-0.286925	0.938196	0.380997
C125	C	-0.347280	0.877834	0.320648
C126	C	-0.914667	0.310450	-0.246701
C127	C	-0.975037	0.250085	-0.307051
C128	C	-1.005234	0.256846	-0.374196
C129	C	-0.975063	0.323977	-0.380991
C130	C	-0.914699	0.384339	-0.320642
C131	C	-0.914618	0.384423	0.036983
C132	C	-0.974976	0.324081	0.036985
C133	C	-1.005165	0.256937	0.000029
C134	C	-0.975000	0.250136	-0.036937
C135	C	-0.914648	0.310477	-0.036943
C136	C	-0.914665	0.668036	-0.246713
C137	C	-0.975018	0.668046	-0.307065
C138	C	-1.005211	0.631083	-0.374209
C139	C	-0.975043	0.594114	-0.381000
C140	C	-0.914687	0.594109	-0.320649
H141	H	0.095250	0.725933	0.094833
Br142	Br	-0.174849	1.087256	0.456098
H143	H	-0.148895	0.601532	-0.115752
H144	H	-0.113078	0.660641	0.115748
H145	H	-0.890091	0.698136	-0.192047
Br146	Br	-0.388227	0.543965	0.155630
H147	H	-0.999574	0.698149	-0.301522
H148	H	-0.890084	0.304931	-0.192033
Br149	Br	-0.873663	0.475538	0.087141
Br150	Br	-0.388230	0.718242	0.329851
Br151	Br	-1.016035	0.543946	-0.472130
Br152	Br	-0.630990	0.507866	-0.385003
H153	H	-0.630934	0.536307	-0.740888
Br154	Br	-1.015968	0.158989	-0.297812
Br155	Br	-0.245988	0.718252	0.472115
Br156	Br	-0.805226	-0.213306	-0.087118
H157	H	-1.054357	0.631092	-0.423345
Br158	Br	0.249505	0.754311	0.123219
H159	H	-1.054308	0.207810	0.000039
Br160	Br	-1.015900	0.333328	0.087159
H161	H	-0.207608	0.631122	0.423393
H162	H	-0.207687	1.054363	-0.000065
Br163	Br	-0.246006	1.103166	0.087071
Br164	Br	-0.873766	0.543926	-0.329881
Br165	Br	-0.511483	0.507832	-0.123206
H166	H	-0.277072	0.725898	0.094816
Br167	Br	-0.296519	0.592671	-0.150394
Br168	Br	-0.388201	0.786739	0.329884
H169	H	-0.999590	0.195460	-0.067025
H170	H	-0.262397	1.066743	0.301511
H171	H	-0.371875	0.957244	0.067042
Br172	Br	-0.805219	0.301257	-0.087092
H173	H	-0.631037	0.725861	-0.259113
H174	H	-0.167576	0.725904	0.094822
H175	H	-0.371879	0.957241	0.192039
Br176	Br	0.034555	0.669516	0.150392
Br177	Br	0.003110	0.507887	-0.123193
H178	H	-0.496874	0.066731	0.067055
Br179	Br	-0.245963	0.543984	0.297922
Br180	Br	-0.388309	0.786634	-0.087144
H181	H	-0.357214	0.536234	-0.094828
Br182	Br	-0.139156	0.507875	-0.123196
H183	H	-0.496871	0.439030	0.067048
H184	H	-0.528232	0.237206	0.112324
Br185	Br	-0.456747	0.333214	0.087111
H186	H	-0.631008	0.536217	-0.259130
H187	H	-0.544782	0.746835	-0.511619
Br188	Br	-0.497481	0.126707	0.145929
Br189	Br	-1.087159	0.174917	-0.456093
Br190	Br	-0.245940	0.929033	0.472128
H191	H	-0.890137	0.438993	-0.326184
Br192	Br	-0.246087	0.928845	-0.087176
Br193	Br	-0.873716	0.301232	-0.087106
H194	H	-0.999658	0.329473	-0.435668
Br195	Br	-0.805221	-0.071045	-0.087114
Br196	Br	-0.764484	-0.006788	-0.145938
Br197	Br	-0.456750	-0.039083	0.087115
H198	H	-0.733740	0.134456	-0.112324
Br199	Br	-0.805217	0.158996	-0.087102
H200	H	-0.544803	0.746816	-0.402135
Br201	Br	-0.630980	0.754305	-0.614995
Br202	Br	-0.631013	0.754261	-0.384972
H203	H	-0.717182	0.515350	-0.597865
H204	H	-0.630957	0.536284	-0.631404
Br205	Br	-0.630934	0.754338	-0.757232
Br206	Br	-0.743058	0.480698	-0.484937
