data_functionalizedCrystal
_audit_creation_method	'MofGen! by Chris Wilmer'
_symmetry_space_group_name_H-M	'P1'
_symmetry_Int_Tables_number	1
_symmetry_cell_setting	triclinic
loop_
_symmetry_equiv_pos_as_xyz
  x,y,z
_cell_length_a	6.817900
_cell_length_b	16.418055
_cell_length_c	17.982968
_cell_angle_alpha	95.668608
_cell_angle_beta	102.451960
_cell_angle_gamma	103.389726
loop_
_atom_site_label
_atom_site_type_symbol
_atom_site_fract_x
_atom_site_fract_y
_atom_site_fract_z
V1	V	-4.014610	-0.116671	-0.237815
V2	V	-3.514610	0.383329	0.262185
O3	O	-4.002841	0.004799	-0.233016
O4	O	-3.502841	0.504799	0.266984
O5	O	-3.965742	-0.230562	-0.236450
O6	O	-3.465742	0.269438	0.263550
O7	O	-3.961123	-0.115230	-0.341414
O8	O	-3.461123	0.384770	0.158586
O9	O	-4.007492	-0.111331	-0.127324
O10	O	-3.507492	0.388669	0.372676
V11	V	-4.498958	-0.102100	-0.224567
V12	V	-3.998958	0.397900	0.275433
O13	O	-4.274059	-0.148634	-0.266874
O14	O	-3.774059	0.351366	0.233126
O15	O	-4.689706	-0.070137	-0.195508
O16	O	-4.189706	0.429863	0.304492
O17	O	-4.324619	0.011792	-0.225932
O18	O	-3.824619	0.511792	0.274068
O19	O	-4.628123	-0.223570	-0.229367
O20	O	-4.128123	0.276430	0.270633
O21	O	-4.623472	-0.107440	-0.335058
O22	O	-4.123472	0.392560	0.164942
O23	O	-4.329238	-0.103540	-0.120968
O24	O	-3.829238	0.396460	0.379032
C25	C	-3.810793	-0.258315	-0.232766
C26	C	-3.310793	0.241685	0.267234
C27	C	-3.852090	-0.351425	-0.232341
C28	C	-3.352090	0.148575	0.267659
C29	C	-3.804901	-0.111197	-0.366658
C30	C	-3.304901	0.388803	0.133342
C31	C	-3.842450	-0.110773	-0.451353
C32	C	-3.342450	0.389227	0.048647
C33	C	-4.167783	-0.657420	-0.234815
C34	C	-3.667783	-0.157420	0.265185
C35	C	-4.128991	-0.569931	-0.235202
C36	C	-3.628991	-0.069931	0.264798
C37	C	-3.765145	-0.561362	-0.227567
C38	C	-3.265145	-0.061362	0.272433
C39	C	-3.803935	-0.648848	-0.227175
C40	C	-3.303935	-0.148848	0.272825
C41	C	-4.005261	-0.696875	-0.230802
C42	C	-3.505261	-0.196875	0.269198
C43	C	-3.927680	-0.521901	-0.231583
C44	C	-3.427680	-0.021901	0.268417
C45	C	-3.885619	-0.427042	-0.232003
C46	C	-3.385619	0.072958	0.267997
C47	C	-4.047324	-0.791740	-0.230381
C48	C	-3.547324	-0.291740	0.269619
C49	C	-4.041993	-0.114771	-0.495033
C50	C	-3.541993	0.385229	0.004967
C51	C	-4.077263	-0.114372	-0.574613
C52	C	-3.577263	0.385628	-0.074613
C53	C	-3.912989	-0.109981	-0.610512
C54	C	-3.412989	0.390019	-0.110512
C55	C	-3.713427	-0.105980	-0.566824
C56	C	-3.213427	0.394020	-0.066824
C57	C	-3.678158	-0.106373	-0.487245
C58	C	-3.178158	0.393627	0.012755
C59	C	-3.855661	-0.104394	-0.887758
C60	C	-3.355661	0.395606	-0.387758
C61	C	-3.890949	-0.104004	-0.967343
C62	C	-3.390949	0.395996	-0.467343
C63	C	-4.254766	-0.112393	-0.975126
C64	C	-3.754766	0.387607	-0.475126
C65	C	-4.219497	-0.112786	-0.895547
C66	C	-3.719497	0.387214	-0.395547
C67	C	-4.019937	-0.108781	-0.851866
C68	C	-3.519937	0.391219	-0.351866
C69	C	-3.981696	-0.109212	-0.765576
C70	C	-3.481696	0.390788	-0.265576
C71	C	-3.951231	-0.109556	-0.696800
C72	C	-3.451231	0.390444	-0.196800
C73	C	-4.142910	0.039540	-0.229614
C74	C	-3.642910	0.539540	0.270386
C75	C	-4.080850	0.132649	-0.230044
C76	C	-3.580850	0.632649	0.269956
C77	C	-4.148802	-0.107576	-0.095720
C78	C	-3.648802	0.392424	0.404280
C79	C	-4.090492	-0.107996	-0.011025
C80	C	-3.590492	0.392004	0.488975
H81	H	-4.331712	-0.696521	-0.237767
H82	H	-3.831712	-0.196521	0.262233
H83	H	-4.261336	-0.537810	-0.238468
H84	H	-3.761336	-0.037810	0.261532
Cl85	Cl	-3.512060	-0.500978	-0.223005
Cl86	Cl	-3.012060	-0.000978	0.276995
Cl87	Cl	-3.599600	-0.698451	-0.222121
Cl88	Cl	-3.099600	-0.198451	0.277879
Cl89	Cl	-4.248530	-0.120297	-0.449913
Cl90	Cl	-3.748530	0.379703	0.050087
H91	H	-4.239745	-0.117623	-0.610174
H92	H	-3.739745	0.382377	-0.110174
H93	H	-3.579673	-0.102400	-0.596058
H94	H	-3.079673	0.397600	-0.096058
H95	H	-4.353271	-0.116366	-0.866323
H96	H	-3.853271	0.383634	-0.366323
Cl97	Cl	-4.505645	-0.117424	-1.030043
Cl98	Cl	-4.005645	0.382576	-0.530043
H99	H	-3.757164	-0.100426	-0.996568
H100	H	-3.257164	0.399574	-0.496568
Cl101	Cl	-3.604802	-0.099382	-0.832859
Cl102	Cl	-3.104802	0.400618	-0.332859
H103	H	-3.515660	-0.103097	-0.451678
H104	H	-3.015660	0.396903	0.048322
