data_functionalizedCrystal
_audit_creation_method	'MofGen! by Chris Wilmer'
_symmetry_space_group_name_H-M	'P1'
_symmetry_Int_Tables_number	1
_symmetry_cell_setting	triclinic
loop_
_symmetry_equiv_pos_as_xyz
  x,y,z
_cell_length_a	10.654550
_cell_length_b	15.995350
_cell_length_c	9.130313
_cell_angle_alpha	90.000982
_cell_angle_beta	89.996220
_cell_angle_gamma	83.988639
loop_
_atom_site_label
_atom_site_type_symbol
_atom_site_fract_x
_atom_site_fract_y
_atom_site_fract_z
O1	O	1.666298	0.117599	-0.121912
O2	O	1.300673	0.128803	-0.121888
O3	O	1.493480	0.001371	-0.121899
O4	O	1.473491	0.245030	-0.121900
O5	O	1.493478	0.001375	0.121700
O6	O	1.300671	0.128807	0.121711
O7	O	1.666295	0.117602	0.121687
Cu8	Cu	1.483483	0.123205	0.143942
Cu9	Cu	1.483486	0.123201	-0.144142
O10	O	1.473488	0.245034	0.121698
C11	C	1.253885	0.127982	-0.000085
C12	C	1.114473	0.125521	-0.000076
C13	C	1.034008	0.200551	-0.000098
C14	C	0.903017	0.198233	-0.000123
C15	C	0.932971	0.045849	-0.000111
C16	C	1.063959	0.048168	-0.000075
C17	C	1.016713	0.288528	-0.000111
C18	C	0.885722	0.286211	-0.000137
C19	C	1.492652	-0.029827	-0.000102
C20	C	1.490175	-0.122791	-0.000110
C21	C	1.481278	-0.460591	-0.000105
C22	C	1.343964	-0.413954	-0.000642
C23	C	1.346442	-0.317249	-0.000093
C24	C	1.485691	-0.293004	-0.000108
C25	C	1.553417	-0.333687	0.138991
C26	C	1.549968	-0.430342	0.139108
C27	C	1.552807	-0.430688	-0.137910
C28	C	1.552775	-0.333743	-0.139748
C29	C	1.488192	-0.198292	-0.000106
C30	C	1.478780	-0.555303	-0.000098
C31	C	1.713084	0.118423	-0.000119
C32	C	1.852495	0.120884	-0.000137
C33	C	1.474316	0.276232	-0.000101
C34	C	1.476793	0.369197	-0.000103
N35	N	1.483490	0.123207	0.346564
N36	N	1.483488	0.123192	-0.346765
C37	C	1.568887	0.066800	0.423211
C38	C	1.568883	0.066789	0.576548
C39	C	1.398083	0.179602	0.576578
C40	C	1.398081	0.179607	0.423244
C41	C	1.667501	0.001671	0.423195
C42	C	1.667497	0.001661	0.576532
H43	H	1.289082	-0.432806	-0.100393
N44	N	1.305953	0.240431	0.340571
H45	H	1.251850	0.276156	0.412417
H46	H	1.354006	0.277755	0.276945
H47	H	1.758418	0.022063	0.375631
N48	N	1.484533	-0.454974	0.276836
H49	H	1.544154	-0.495000	0.336001
H50	H	1.458198	-0.403025	0.336794
H51	H	1.637779	-0.059156	0.624082
N52	N	0.878482	-0.037577	-0.000131
H53	H	0.949337	-0.084757	-0.000114
H54	H	0.824766	-0.041857	0.090161
H55	H	1.045593	0.322938	0.101840
N56	N	1.795081	0.020662	0.631668
H57	H	1.852016	0.029154	0.545673
H58	H	1.784839	0.073417	0.693174
H59	H	1.289324	-0.433864	0.098560
N60	N	1.150750	-0.032756	-0.000014
H61	H	1.098870	-0.082108	-0.000017
H62	H	1.205782	-0.035127	-0.090298
N63	N	0.829850	0.330100	-0.135187
H64	H	0.767533	0.379047	-0.105156
H65	H	0.899472	0.351304	-0.195386
H66	H	0.839702	0.312800	0.105032
N67	N	1.063461	0.325631	-0.139422
H68	H	1.022518	0.385095	-0.151433
H69	H	1.158101	0.325924	-0.134231
N70	N	1.640216	-0.083573	0.368049
H71	H	1.628032	-0.121616	0.454038
H72	H	1.560996	-0.077247	0.306560
N73	N	1.275467	-0.280740	0.132229
H74	H	1.202384	-0.239725	0.099313
H75	H	1.242534	-0.327526	0.190376
N76	N	1.275922	-0.280004	-0.132165
H77	H	1.242942	-0.326402	-0.191266
H78	H	1.202897	-0.239071	-0.098819
H79	H	1.506376	-0.305577	0.242515
H80	H	1.654321	-0.317791	-0.148158
H81	H	1.328544	0.225521	0.639026
N82	N	1.487272	-0.297955	-0.276052
H83	H	1.549022	-0.269550	-0.337837
H84	H	1.454451	-0.344839	-0.334049
N85	N	1.683498	-0.472291	0.147464
H86	H	1.744339	-0.427971	0.151063
H87	H	1.693547	-0.508117	0.238640
N88	N	1.688944	-0.314223	0.145814
H89	H	1.707785	-0.278756	0.058597
H90	H	1.702922	-0.282491	0.239032
H91	H	1.507914	-0.451490	-0.243339
N92	N	1.686912	-0.471974	-0.139173
H93	H	1.701318	-0.509867	-0.050965
H94	H	1.701912	-0.506332	-0.231519
