data_functionalizedCrystal
_audit_creation_method	'MofGen! by Chris Wilmer'
_symmetry_space_group_name_H-M	'P1'
_symmetry_Int_Tables_number	1
_symmetry_cell_setting	triclinic
loop_
_symmetry_equiv_pos_as_xyz
  x,y,z
_cell_length_a	29.839134
_cell_length_b	16.994747
_cell_length_c	29.839125
_cell_angle_alpha	89.991363
_cell_angle_beta	90.021980
_cell_angle_gamma	90.005924
loop_
_atom_site_label
_atom_site_type_symbol
_atom_site_fract_x
_atom_site_fract_y
_atom_site_fract_z
Zn1	Zn	0.686814	-0.314247	0.254207
Zn2	Zn	1.186814	0.185753	0.754207
Zn3	Zn	0.686786	-0.446127	0.179112
Zn4	Zn	1.186786	0.053873	0.679112
Zn5	Zn	0.611697	-0.314229	0.179077
Zn6	Zn	1.111697	0.185771	0.679077
Zn7	Zn	0.611685	-0.446101	0.254200
Zn8	Zn	1.111685	0.053899	0.754200
O9	O	0.649246	-0.380176	0.216649
O10	O	1.149246	0.119824	0.716649
O11	O	0.749678	-0.331759	0.244263
O12	O	1.249678	0.168241	0.744263
O13	O	0.676819	-0.428635	0.116240
O14	O	1.176819	0.071365	0.616240
O15	O	0.621679	-0.203850	0.189031
O16	O	1.121679	0.296150	0.689031
O17	O	0.749657	-0.428651	0.189091
O18	O	1.249657	0.071349	0.689091
O19	O	0.676867	-0.203863	0.244230
O20	O	1.176867	0.296137	0.744230
O21	O	0.621651	-0.331730	0.116214
O22	O	1.121651	0.168270	0.616214
O23	O	0.548828	-0.331704	0.189025
O24	O	1.048828	0.168296	0.689025
O25	O	0.621657	-0.428606	0.317068
O26	O	1.121657	0.071394	0.817068
O27	O	0.548819	-0.428589	0.244217
O28	O	1.048819	0.071411	0.744217
O29	O	0.676855	-0.331734	0.317074
O30	O	1.176855	0.168266	0.817074
O31	O	0.676807	-0.556505	0.189084
O32	O	1.176807	-0.056505	0.689084
O33	O	0.621630	-0.556486	0.244251
O34	O	1.121630	-0.056486	0.744251
C35	C	0.532523	-0.380143	0.216617
C36	C	1.032523	0.119857	0.716617
C37	C	0.482589	-0.380147	0.216613
C38	C	0.982589	0.119853	0.716613
C39	C	0.649220	-0.585116	0.216669
C40	C	1.149220	-0.085116	0.716669
C41	C	0.649223	-0.674438	0.216668
C42	C	1.149223	-0.174438	0.716668
Zn43	Zn	0.611710	-0.945316	0.179064
Zn44	Zn	1.111710	-0.445316	0.679064
Zn45	Zn	0.686834	-0.945312	0.254188
Zn46	Zn	1.186834	-0.445312	0.754188
Zn47	Zn	0.611700	-0.813493	0.254193
Zn48	Zn	1.111700	-0.313493	0.754193
Zn49	Zn	0.686795	-0.813382	0.179097
Zn50	Zn	1.186795	-0.313382	0.679097
O51	O	0.649260	-0.879376	0.216635
O52	O	1.149260	-0.379376	0.716635
O53	O	0.621696	-1.055697	0.189014
O54	O	1.121696	-0.555697	0.689014
O55	O	0.676880	-0.927870	0.317055
O56	O	1.176880	-0.427870	0.817055
O57	O	0.548834	-0.831028	0.244215
O58	O	1.048834	-0.331028	0.744215
O59	O	0.676890	-1.055693	0.244206
O60	O	1.176890	-0.555693	0.744206
O61	O	0.548842	-0.927877	0.189019
O62	O	1.048842	-0.427877	0.689019
O63	O	0.621679	-0.831024	0.317059
O64	O	1.121679	-0.331024	0.817059
O65	O	0.621641	-0.703097	0.244247
O66	O	1.121641	-0.203097	0.744247
O67	O	0.676822	-0.830839	0.116226
O68	O	1.176822	-0.330839	0.616226
O69	O	0.676812	-0.703016	0.189075
O70	O	1.176812	-0.203016	0.689075
O71	O	0.621658	-0.927770	0.116202
O72	O	1.121658	-0.427770	0.616202
O73	O	0.749696	-0.927763	0.244238
O74	O	1.249696	-0.427763	0.744238
O75	O	0.749667	-0.830835	0.189070
O76	O	1.249667	-0.330835	0.689070
C77	C	0.172950	-0.430699	0.245353
C78	C	0.672950	0.069301	0.745353
C79	C	-0.014723	-0.430721	0.245373
C80	C	0.485277	0.069279	0.745373
O81	O	-0.038984	-0.473665	0.269789
O82	O	0.461016	0.026335	0.769789
N83	N	-0.038196	-0.380205	0.216683
N84	N	0.461804	0.119795	0.716683
C85	C	-0.014749	-0.329676	0.187988
C86	C	0.485251	0.170324	0.687988
O87	O	-0.039020	-0.286704	0.163589
O88	O	0.460980	0.213296	0.663589
C89	C	0.172924	-0.329650	0.187971
C90	C	0.672924	0.170350	0.687971
C91	C	0.196395	-0.380176	0.216659
C92	C	0.696395	0.119824	0.716659
C93	C	0.196421	-0.481219	0.274039
C94	C	0.696421	0.018781	0.774039
C95	C	0.243337	-0.481216	0.274032
C96	C	0.743337	0.018784	0.774032
C97	C	0.266781	-0.430693	0.245339
C98	C	0.766781	0.069307	0.745339
C99	C	0.243310	-0.380172	0.216652
C100	C	0.743310	0.119828	0.716652
C101	C	0.196371	-0.279118	0.159279
C102	C	0.696371	0.220882	0.659279
C103	C	0.243292	-0.279115	0.159278
C104	C	0.743292	0.220885	0.659278
C105	C	0.266762	-0.329640	0.187966
C106	C	0.766762	0.170360	0.687966
C107	C	0.313670	-0.329646	0.187952
C108	C	0.813670	0.170354	0.687952
N109	N	0.337143	-0.380162	0.216642
N110	N	0.837143	0.119838	0.716642
C111	C	0.313699	-0.430686	0.245335
C112	C	0.813699	0.069314	0.745335
C113	C	-0.113279	-0.329694	0.187999
C114	C	0.386721	0.170306	0.687999
C115	C	-0.160197	-0.329701	0.188002
C116	C	0.339803	0.170299	0.688002
C117	C	-0.160168	-0.430746	0.245388
C118	C	0.339832	0.069254	0.745388
C119	C	-0.113250	-0.430742	0.245381
C120	C	0.386750	0.069258	0.745381
C121	C	-0.089806	-0.380210	0.216688
C122	C	0.410194	0.119790	0.716688
C123	C	0.412225	-0.430676	0.245318
C124	C	0.912225	0.069324	0.745318
C125	C	0.459144	-0.430671	0.245307
C126	C	0.959144	0.069329	0.745307
C127	C	0.459111	-0.329624	0.187924
C128	C	0.959111	0.170376	0.687924
C129	C	0.412196	-0.329632	0.187933
C130	C	0.912196	0.170368	0.687933
C131	C	0.388754	-0.380160	0.216633
C132	C	0.888754	0.119840	0.716633
O133	O	0.337960	-0.286719	0.163552
O134	O	0.837960	0.213281	0.663552
O135	O	0.337979	-0.473639	0.269737
O136	O	0.837979	0.026361	0.769737
C137	C	0.126035	-0.430702	0.245360
C138	C	0.626035	0.069298	0.745360
C139	C	0.102564	-0.380182	0.216673
C140	C	0.602564	0.119818	0.716673
C141	C	0.126008	-0.329658	0.187980
C142	C	0.626008	0.170342	0.687980
C143	C	0.055646	-0.380189	0.216677
C144	C	0.555646	0.119811	0.716677
C145	C	0.032201	-0.430712	0.245371
C146	C	0.532201	0.069288	0.745371
C147	C	0.055675	-0.481228	0.274060
C148	C	0.555675	0.018772	0.774060
C149	C	0.102590	-0.481225	0.274053
C150	C	0.602590	0.018775	0.774053
C151	C	0.102535	-0.279142	0.159290
C152	C	0.602535	0.220858	0.659290
C153	C	0.055619	-0.279150	0.159299
C154	C	0.555619	0.220850	0.659299
C155	C	0.032175	-0.329673	0.187992
C156	C	0.532175	0.170327	0.687992
C157	C	0.766424	-0.380210	0.216682
C158	C	1.266424	0.119790	0.716682
C159	C	0.816358	-0.380225	0.216696
C160	C	1.316358	0.119775	0.716696
C161	C	0.649258	-0.380169	0.333827
C162	C	1.149258	0.119831	0.833827
C163	C	0.649263	-0.380166	0.383762
C164	C	1.149263	0.119834	0.883762
C165	C	0.649274	-0.174436	0.216626
C166	C	1.149274	0.325564	0.716626
C167	C	0.649288	-0.085114	0.216617
C168	C	1.149288	0.414886	0.716617
C169	C	0.649259	-0.380126	0.099927
C170	C	1.149259	0.119874	0.599927
C171	C	0.649341	-0.379907	0.049992
C172	C	1.149341	0.120093	0.549992
C173	C	0.678035	-0.329592	0.693411
C174	C	1.178035	0.170408	1.193411
C175	C	0.678057	-0.329525	0.881084
C176	C	1.178057	0.170475	1.381084
O177	O	0.702486	-0.286600	0.905354
O178	O	1.202486	0.213400	1.405354
N179	N	0.649323	-0.379955	0.904547
N180	N	1.149323	0.120045	1.404547
C181	C	0.620579	-0.430401	0.881089
C182	C	1.120579	0.069599	1.381089
O183	O	0.596136	-0.473287	0.905352
O184	O	1.096136	0.026713	1.405352
C185	C	0.620554	-0.430464	0.693417
C186	C	1.120554	0.069536	1.193417
C187	C	0.649294	-0.380037	0.669956
C188	C	1.149294	0.119963	1.169956
C189	C	0.706771	-0.279168	0.669951
C190	C	1.206771	0.220832	1.169951
C191	C	0.706767	-0.279189	0.623035
C192	C	1.206767	0.220811	1.123035
C193	C	0.678026	-0.329633	0.599580
C194	C	1.178026	0.170367	1.099580
C195	C	0.649290	-0.380057	0.623041
C196	C	1.149290	0.119943	1.123041
C197	C	0.591809	-0.480906	0.669959
C198	C	1.091809	0.019094	1.169959
C199	C	0.591804	-0.480916	0.623038
C200	C	1.091804	0.019084	1.123038
C201	C	0.620544	-0.430488	0.599578
C202	C	1.120544	0.069512	1.099578
C203	C	0.620545	-0.430521	0.552670
C204	C	1.120545	0.069479	1.052670
N205	N	0.649279	-0.380092	0.529207
N206	N	1.149279	0.119908	1.029207
C207	C	0.678020	-0.329648	0.552662
C208	C	1.178020	0.170352	1.052662
C209	C	0.620594	-0.430366	0.979620
C210	C	1.120594	0.069634	1.479620
C211	C	0.620601	-0.430351	1.026537
C212	C	1.120601	0.069649	1.526537
C213	C	0.678078	-0.329474	1.026530
C214	C	1.178078	0.170526	1.526530
C215	C	0.678074	-0.329493	0.979611
C216	C	1.178074	0.170507	1.479611
C217	C	0.649328	-0.379936	0.956157
C218	C	1.149328	0.120064	1.456157
C219	C	0.678009	-0.329695	0.454136
C220	C	1.178009	0.170305	0.954136
C221	C	0.678004	-0.329722	0.407217
C222	C	1.178004	0.170278	0.907217
C223	C	0.620525	-0.430596	0.407229
C224	C	1.120525	0.069404	0.907229
C225	C	0.620531	-0.430572	0.454144
C226	C	1.120531	0.069428	0.954144
C227	C	0.649275	-0.380115	0.477597
C228	C	1.149275	0.119885	0.977597
O229	O	0.596125	-0.473418	0.528372
O230	O	1.096125	0.026582	1.028372
O231	O	0.702452	-0.286755	0.528391
O232	O	1.202452	0.213245	1.028391
C233	C	0.678039	-0.329572	0.740327
C234	C	1.178039	0.170428	1.240327
C235	C	0.649302	-0.379996	0.763787
C236	C	1.149302	0.120004	1.263787
C237	C	0.620561	-0.430440	0.740332
C238	C	1.120561	0.069560	1.240332
C239	C	0.649309	-0.379981	0.810705
C240	C	1.149309	0.120019	1.310705
C241	C	0.678049	-0.329537	0.834160
C242	C	1.178049	0.170463	1.334160
C243	C	0.706784	-0.279107	0.810697
C244	C	1.206784	0.220893	1.310697
C245	C	0.706779	-0.279128	0.763782
C246	C	1.206779	0.220872	1.263782
C247	C	0.591827	-0.480870	0.763795
C248	C	1.091827	0.019130	1.263795
C249	C	0.591834	-0.480846	0.810711
C250	C	1.091834	0.019154	1.310711
C251	C	0.620575	-0.430402	0.834166
C252	C	1.120575	0.069598	1.334166
C253	C	0.765982	-0.879289	0.216658
C254	C	1.265982	-0.379289	0.716658
C255	C	0.815917	-0.879274	0.216681
C256	C	1.315917	-0.379274	0.716681
C257	C	0.649237	-0.879293	0.099457
C258	C	1.149237	-0.379293	0.599457
C259	C	0.649227	-0.879257	0.049523
C260	C	1.149227	-0.379257	0.549523
C261	C	0.532081	-0.879465	0.216614
C262	C	1.032081	-0.379465	0.716614
C263	C	0.482147	-0.879504	0.216605
C264	C	0.982147	-0.379504	0.716605
C265	C	0.649251	-0.879503	0.333358
C266	C	1.149251	-0.379503	0.833358
C267	C	0.649135	-0.879690	0.383292
C268	C	1.149135	-0.379690	0.883292
C269	C	0.839369	-0.929780	0.245392
C270	C	1.339369	-0.429780	0.745392
C271	C	0.886287	-0.929782	0.245413
C272	C	1.386287	-0.429782	0.745413
C273	C	0.909753	-0.879274	0.216726
C274	C	1.409753	-0.379274	0.716726
C275	C	0.886298	-0.828766	0.188012
C276	C	1.386298	-0.328766	0.688012
C277	C	0.839380	-0.828769	0.187989
C278	C	1.339380	-0.328769	0.687989
C279	C	0.620497	-0.929708	0.026058
C280	C	1.120497	-0.429708	0.526058
C281	C	0.620479	-0.929675	-0.020861
C282	C	1.120479	-0.429675	0.479139
C283	C	0.649193	-0.879194	-0.044314
C284	C	1.149193	-0.379194	0.455686
C285	C	0.677923	-0.828738	-0.020846
C286	C	1.177923	-0.328738	0.479154
C287	C	0.677939	-0.828768	0.026072
C288	C	1.177939	-0.328768	0.526072
C289	C	0.458691	-0.829091	0.245338
C290	C	0.958691	-0.329091	0.745338
C291	C	0.411772	-0.829111	0.245330
C292	C	0.911772	-0.329111	0.745330
C293	C	0.388311	-0.879549	0.216589
C294	C	0.888311	-0.379549	0.716589
C295	C	0.411770	-0.929964	0.187852
C296	C	0.911770	-0.429964	0.687852
C297	C	0.458688	-0.929939	0.187859
C298	C	0.958688	-0.429939	0.687859
C299	C	0.620547	-0.828988	0.406724
C300	C	1.120547	-0.328988	0.906724
C301	C	0.620430	-0.829163	0.453643
C302	C	1.120430	-0.329163	0.953643
C303	C	0.648904	-0.880035	0.477128
C304	C	1.148904	-0.380035	0.977128
C305	C	0.677494	-0.930741	0.453693
C306	C	1.177494	-0.430741	0.953693
C307	C	0.677608	-0.930570	0.406775
C308	C	1.177608	-0.430570	0.906775
H309	H	0.478252	-0.471817	0.268669
H310	H	0.978252	0.028183	0.768669
H311	H	0.700891	-0.971855	0.387700
H312	H	1.200891	-0.471855	0.887700
H313	H	0.701301	-0.787639	-0.039948
H314	H	1.201301	-0.287639	0.460052
O315	O	0.589520	-0.984152	0.051345
O316	O	1.089520	-0.484152	0.551345
H317	H	0.594353	-0.975709	0.087914
H318	H	1.094353	-0.475709	0.587914
H319	H	0.597149	-0.787868	0.472717
H320	H	1.097149	-0.287868	0.972717
O321	O	0.649179	-0.879188	-0.094919
O322	O	1.149179	-0.379188	0.405081
H323	H	0.615286	-0.863278	-0.107294
H324	H	1.115286	-0.363278	0.392706
O325	O	0.386943	-0.485231	0.276239
O326	O	0.886943	0.014769	0.776239
H327	H	0.411153	-0.520381	0.296169
H328	H	0.911153	-0.020381	0.796169
H329	H	0.568423	-0.521949	0.744703
H330	H	1.068423	-0.021949	1.244703
H331	H	0.947957	-0.879279	0.216750
H332	H	1.447957	-0.379279	0.716750
O333	O	0.589482	-0.984081	-0.046168
O334	O	1.089482	-0.484081	0.453832
H335	H	0.569522	-1.019188	-0.021975
H336	H	1.069522	-0.519188	0.478025
O337	O	0.127813	-0.224658	0.128329
O338	O	0.627813	0.275342	0.628329
H339	H	0.118811	-0.162770	0.136074
H340	H	0.618811	0.337230	0.636074
O341	O	0.709002	-0.275330	0.381912
O342	O	1.209002	0.224670	0.881912
H343	H	0.728984	-0.240245	0.406107
H344	H	1.228984	0.259755	0.906107
O345	O	0.386478	-0.774736	0.276330
O346	O	0.886478	-0.274736	0.776330
H347	H	0.365098	-0.734588	0.256229
H348	H	0.865098	-0.234588	0.756229
H349	H	0.701336	-0.787687	0.045173
H350	H	1.201336	-0.287687	0.545173
O351	O	0.560794	-0.535322	0.597746
O352	O	1.060794	-0.035322	1.097746
H353	H	0.580886	-0.575472	0.576380
H354	H	1.080886	-0.075472	1.076380
H355	H	0.648807	-0.880165	0.515331
H356	H	1.148807	-0.380165	1.015331
O357	O	0.268575	-0.224610	0.128328
O358	O	0.768575	0.275390	0.628328
H359	H	0.305143	-0.233086	0.133143
H360	H	0.805143	0.266914	0.633143
H361	H	0.477788	-0.788016	0.268743
H362	H	0.977788	-0.288016	0.768743
H363	H	0.393085	-0.288492	0.164571
H364	H	0.893085	0.211508	0.664571
H365	H	0.905378	-0.970911	0.268798
H366	H	1.405378	-0.470911	0.768798
O367	O	0.337706	-0.879577	0.216586
O368	O	0.837706	-0.379577	0.716586
H369	H	0.325341	-0.836051	0.241400
H370	H	0.825341	-0.336051	0.741400
H371	H	0.392660	-0.971027	0.164452
H372	H	0.892660	-0.471027	0.664452
O373	O	0.483986	-0.984319	0.156869
O374	O	0.983986	-0.484319	0.656869
H375	H	0.459785	-1.019397	0.136888
H376	H	0.959785	-0.519397	0.636888
O377	O	0.814064	-0.984306	0.276309
O378	O	1.314064	-0.484306	0.776309
H379	H	0.838260	-1.019443	0.296261
H380	H	1.338260	-0.519443	0.796261
O381	O	0.589833	-0.774118	0.381398
O382	O	1.089833	-0.274118	0.881398
H383	H	0.569933	-0.738903	0.405581
H384	H	1.069933	-0.238903	0.905581
H385	H	0.568432	-0.521917	0.829808
H386	H	1.068432	-0.021917	1.329808
O387	O	0.708208	-0.985603	0.479025
O388	O	1.208208	-0.485603	0.979025
H389	H	0.703325	-0.977189	0.515586
H390	H	1.203325	-0.477189	1.015586
H391	H	0.820289	-0.787636	0.164610
H392	H	1.320289	-0.287636	0.664610
H393	H	-0.094196	-0.288545	0.164631
H394	H	0.405804	0.211455	0.664631
H395	H	0.262442	-0.522357	0.297394
H396	H	0.762442	-0.022357	0.797394
H397	H	0.177338	-0.522362	0.297407
H398	H	0.677338	-0.022362	0.797407
H399	H	0.036513	-0.238007	0.135933
H400	H	0.536513	0.261993	0.635933
O401	O	-0.087935	-0.485227	0.276328
O402	O	0.412065	0.014773	0.776328
H403	H	-0.112124	-0.520354	0.296281
H404	H	0.387876	-0.020354	0.796281
H405	H	-0.179265	-0.471884	0.268751
H406	H	0.320735	0.028116	0.768751
H407	H	-0.179303	-0.288567	0.164637
H408	H	0.320697	0.211433	0.664637
H409	H	0.177269	-0.237977	0.135916
H410	H	0.677269	0.262023	0.635916
H411	H	0.121696	-0.522368	0.297415
H412	H	0.621696	-0.022368	0.797415
O413	O	0.484402	-0.275128	0.156978
O414	O	0.984402	0.224872	0.656978
H415	H	0.520969	-0.283611	0.161800
H416	H	1.020969	0.216389	0.661800
H417	H	0.036578	-0.522369	0.297422
H418	H	0.536578	-0.022369	0.797422
O419	O	0.709014	-0.275282	0.479429
O420	O	1.209014	0.224718	0.979429
H421	H	0.728997	-0.240233	0.455227
H422	H	1.228997	0.259767	0.955227
H423	H	0.730169	-0.238124	0.603938
H424	H	1.230169	0.261876	1.103938
H425	H	0.905411	-0.787644	0.164656
H426	H	1.405411	-0.287644	0.664656
O427	O	0.560805	-0.535285	0.695257
O428	O	1.060805	-0.035285	1.195257
H429	H	0.540816	-0.570349	0.671057
H430	H	1.040816	-0.070349	1.171057
H431	H	0.730176	-0.238086	0.689043
H432	H	1.230176	0.261914	1.189043
O433	O	0.709068	-0.275100	0.954307
O434	O	1.209068	0.224900	1.454307
H435	H	0.729051	-0.240021	0.978504
H436	H	1.229051	0.259979	1.478504
H437	H	0.597203	-0.471423	1.045635
H438	H	1.097203	0.028577	1.545635
O439	O	0.709070	-0.275049	1.051831
O440	O	1.209070	0.224951	1.551831
H441	H	0.704239	-0.283508	1.088396
H442	H	1.204239	0.216492	1.588396
H443	H	0.597134	-0.471641	0.473247
H444	H	1.097134	0.028359	0.973247
O445	O	0.589573	-0.484761	0.954334
O446	O	1.089573	0.015239	1.454334
H447	H	0.597262	-0.546672	0.963351
H448	H	1.097262	-0.046672	1.463351
O449	O	0.589522	-0.484994	0.381927
O450	O	1.089522	0.015006	0.881927
H451	H	0.609616	-0.525137	0.360559
H452	H	1.109616	-0.025137	0.860559
O453	O	0.737777	-0.224738	0.738480
O454	O	1.237777	0.275262	1.238480
H455	H	0.730080	-0.162826	0.747470
H456	H	1.230080	0.337174	1.247470
O457	O	0.737775	-0.224681	0.835999
O458	O	1.237775	0.275319	1.335999
H459	H	0.732940	-0.233136	0.872564
H460	H	1.232940	0.266864	1.372564
