data_functionalizedCrystal
_audit_creation_method	'MofGen! by Chris Wilmer'
_symmetry_space_group_name_H-M	'P1'
_symmetry_Int_Tables_number	1
_symmetry_cell_setting	triclinic
loop_
_symmetry_equiv_pos_as_xyz
  x,y,z
_cell_length_a	18.101398
_cell_length_b	18.101395
_cell_length_c	18.101389
_cell_angle_alpha	89.983159
_cell_angle_beta	90.024327
_cell_angle_gamma	89.973629
loop_
_atom_site_label
_atom_site_type_symbol
_atom_site_fract_x
_atom_site_fract_y
_atom_site_fract_z
Zn1	Zn	1.132121	0.295001	0.418847
Zn2	Zn	1.632121	0.795001	0.918847
Zn3	Zn	1.132017	0.418826	0.295009
Zn4	Zn	1.632017	0.918826	0.795009
Zn5	Zn	1.008280	0.294993	0.295008
Zn6	Zn	1.508280	0.794993	0.795008
Zn7	Zn	1.008231	0.418795	0.418797
Zn8	Zn	1.508231	0.918795	0.918797
O9	O	1.070162	0.356904	0.356915
O10	O	1.570162	0.856904	0.856915
O11	O	1.235740	0.311443	0.402440
O12	O	1.735740	0.811443	0.902440
O13	O	1.115580	0.402410	0.191376
O14	O	1.615580	0.902410	0.691376
O15	O	1.024772	0.191361	0.311456
O16	O	1.524772	0.691361	0.811456
O17	O	1.235664	0.402417	0.311457
O18	O	1.735664	0.902417	0.811457
O19	O	1.115757	0.191367	0.402440
O20	O	1.615757	0.691367	0.902440
O21	O	1.024671	0.311430	0.191375
O22	O	1.524671	0.811430	0.691375
O23	O	0.904641	0.311399	0.311408
O24	O	1.404641	0.811399	0.811408
O25	O	1.024688	0.402363	0.522437
O26	O	1.524688	0.902363	1.022437
O27	O	0.904604	0.402356	0.402355
O28	O	1.404604	0.902356	0.902355
O29	O	1.115710	0.311412	0.522473
O30	O	1.615710	0.811412	1.022473
O31	O	1.115532	0.522455	0.311409
O32	O	1.615532	1.022455	0.811409
O33	O	1.024587	0.522432	0.402356
O34	O	1.524587	1.022432	0.902356
C35	C	0.877752	0.356874	0.356877
C36	C	1.377752	0.856874	0.856877
C37	C	0.795437	0.356879	0.356878
C38	C	1.295437	0.856879	0.856878
C39	C	1.070063	0.549314	0.356893
C40	C	1.570063	1.049314	0.856893
C41	C	1.070088	0.631628	0.356909
C42	C	1.570088	1.131628	0.856909
C43	C	0.496347	0.356925	0.356940
C44	C	0.996347	0.856925	0.856940
C45	C	0.527670	0.299412	0.299997
C46	C	1.027670	0.799412	0.799997
C47	C	0.613288	0.299566	0.299754
C48	C	1.113288	0.799566	0.799754
C49	C	0.644729	0.356901	0.356909
C50	C	1.144729	0.856901	0.856909
C51	C	0.613611	0.434909	0.335587
C52	C	1.113611	0.934909	0.835587
C53	C	0.527966	0.434590	0.335191
C54	C	1.027966	0.934590	0.835191
C55	C	0.527961	0.337109	0.435339
C56	C	1.027961	0.837109	0.935339
C57	C	0.613612	0.335371	0.434911
C58	C	1.113612	0.835371	0.934911
C59	C	0.728589	0.356893	0.356893
C60	C	1.228589	0.856893	0.856893
C61	C	0.412487	0.356939	0.356954
C62	C	0.912487	0.856939	0.856954
C63	C	1.070205	0.356885	0.550077
C64	C	1.570205	0.856885	1.050077
C65	C	1.070223	0.356877	0.632391
C66	C	1.570223	0.856877	1.132391
C67	C	1.263324	0.356934	0.356954
C68	C	1.763324	0.856934	0.856954
C69	C	1.345638	0.356948	0.356971
C70	C	1.845638	0.856948	0.856971
C71	C	1.070282	0.163742	0.356953
C72	C	1.570282	0.663742	0.856953
C73	C	1.070333	0.081428	0.356970
C74	C	1.570333	0.581428	0.856970
C75	C	1.070251	0.930719	0.356949
C76	C	1.570251	1.430719	0.856949
C77	C	1.013163	0.899410	0.414312
C78	C	1.513163	1.399410	0.914312
C79	C	1.012892	0.813792	0.414133
C80	C	1.512892	1.313792	0.914133
C81	C	1.070170	0.782337	0.356930
C82	C	1.570170	1.282337	0.856930
C83	C	1.049041	0.813472	0.278878
C84	C	1.549041	1.313472	0.778878
C85	C	1.048673	0.899117	0.279221
C86	C	1.548673	1.399117	0.779221
C87	C	1.148593	0.899073	0.376950
C88	C	1.648593	1.399073	0.876950
C89	C	1.148132	0.813422	0.378661
C90	C	1.648132	1.313422	0.878661
C91	C	1.070126	0.698477	0.356914
C92	C	1.570126	1.198477	0.856914
C93	C	1.070293	1.014579	0.356959
C94	C	1.570293	1.514579	0.856959
C95	C	1.070162	0.356869	0.164505
C96	C	1.570162	0.856869	0.664505
C97	C	1.070287	0.356668	0.082191
C98	C	1.570287	0.856668	0.582191
C99	C	1.070266	0.356738	0.931482
C100	C	1.570266	0.856738	1.431482
C101	C	1.012801	0.413780	0.900134
C102	C	1.512801	0.913780	1.400134
C103	C	1.012956	0.414045	0.814516
C104	C	1.512956	0.914045	1.314516
C105	C	1.070244	0.356807	0.783100
C106	C	1.570244	0.856807	1.283100
C107	C	1.148270	0.377998	0.814206
C108	C	1.648270	0.877998	1.314206
C109	C	1.147949	0.378372	0.899851
C110	C	1.647949	0.878372	1.399851
C111	C	1.050385	0.278379	0.899905
C112	C	1.550385	0.778379	1.399905
C113	C	1.048649	0.278832	0.814254
C114	C	1.548649	0.778832	1.314254
C115	C	1.070237	0.356845	0.699240
C116	C	1.570237	0.856845	1.199240
C117	C	1.070279	0.356702	1.015342
C118	C	1.570279	0.856702	1.515342
H119	H	0.634329	0.241719	0.313119
H120	H	1.134329	0.741719	0.813119
H121	H	0.633741	0.312665	0.241661
H122	H	1.133741	0.812665	0.741661
H123	H	0.507099	0.241388	0.313215
H124	H	1.007099	0.741388	0.813215
Br125	Br	0.492010	0.243949	0.467651
Br126	Br	0.992010	0.743949	0.967651
H127	H	1.026252	0.919970	0.472374
H128	H	1.526252	1.419970	0.972374
Br129	Br	1.180702	0.935007	0.470196
Br130	Br	1.680702	1.435007	0.970196
Br131	Br	0.649300	0.463412	0.241092
Br132	Br	1.149300	0.963412	0.741092
H133	H	0.507705	0.378999	0.477766
H134	H	1.007705	0.878999	0.977766
Br135	Br	0.494607	0.462601	0.239665
Br136	Br	0.994607	0.962601	0.739665
Br137	Br	0.953225	0.932515	0.250983
Br138	Br	1.453225	1.432515	0.750983
Br139	Br	0.916969	0.935396	0.392528
Br140	Br	1.416969	1.435396	0.892528
H141	H	1.192217	0.338629	0.920590
H142	H	1.692217	0.838629	1.420590
Br143	Br	1.221553	0.310928	0.780299
Br144	Br	1.721553	0.810928	1.280299
Br145	Br	1.034409	0.509986	0.936075
Br146	Br	1.534409	1.009986	1.436075
Br147	Br	1.219487	0.932832	0.307327
Br148	Br	1.719487	1.432832	0.807327
H149	H	0.633975	0.478909	0.375763
H150	H	1.133975	0.978909	0.875763
Br151	Br	0.493423	0.508431	0.401297
Br152	Br	0.993423	1.008431	0.901297
Br153	Br	0.491736	0.320979	0.203737
Br154	Br	0.991736	0.820979	0.703737
H155	H	1.164065	0.793071	0.436103
H156	H	1.664065	1.293071	0.936103
H157	H	0.633956	0.277966	0.450989
H158	H	1.133956	0.777966	0.950989
H159	H	0.954823	0.793362	0.400884
H160	H	1.454823	1.293362	0.900884
H161	H	0.635017	0.374209	0.479611
H162	H	1.135017	0.874209	0.979611
Br163	Br	0.916069	0.391901	0.934435
Br164	Br	1.416069	0.891901	1.434435
H165	H	1.026111	0.792740	0.472007
H166	H	1.526111	1.292740	0.972007
Br167	Br	1.222780	0.777722	0.314108
Br168	Br	1.722780	1.277722	0.814108
Br169	Br	1.120146	0.207544	0.933694
Br170	Br	1.620146	0.707544	1.433694
H171	H	1.088449	0.919830	0.235023
H172	H	1.588449	1.419830	0.735023
H173	H	1.089313	0.793097	0.234972
H174	H	1.589313	1.293097	0.734972
Br175	Br	0.916522	0.391936	0.779455
Br176	Br	1.416522	0.891936	1.279455
Br177	Br	0.954601	0.777822	0.250131
Br178	Br	1.454601	1.277822	0.750131
Br179	Br	1.034877	0.510843	0.780373
Br180	Br	1.534877	1.010843	1.280373
H181	H	1.164804	0.435654	0.919836
H182	H	1.664804	0.935654	1.419836
H183	H	1.165415	0.434671	0.792765
H184	H	1.665415	0.934671	1.292765
Br185	Br	0.957201	0.246203	0.935878
Br186	Br	1.457201	0.746203	1.435878
H187	H	0.991229	0.262852	0.793921
H188	H	1.491229	0.762852	1.293921
H189	H	1.087450	0.234076	0.792868
H190	H	1.587450	0.734076	1.292868
