data_functionalizedCrystal
_audit_creation_method	'MofGen! by Chris Wilmer'
_symmetry_space_group_name_H-M	'P1'
_symmetry_Int_Tables_number	1
_symmetry_cell_setting	triclinic
loop_
_symmetry_equiv_pos_as_xyz
  x,y,z
_cell_length_a	14.560432
_cell_length_b	18.878441
_cell_length_c	18.878441
_cell_angle_alpha	89.999813
_cell_angle_beta	60.000143
_cell_angle_gamma	60.002809
loop_
_atom_site_label
_atom_site_type_symbol
_atom_site_fract_x
_atom_site_fract_y
_atom_site_fract_z
Zr1	Zr	1.005302	-0.092961	0.682378
O2	O	1.196892	-0.206057	0.569275
O3	O	0.813705	-0.058293	0.717051
O4	O	1.005299	-0.206065	0.717051
O5	O	1.005304	0.058283	0.569274
O6	O	1.005304	-0.206069	0.833619
O7	O	1.005299	-0.058285	0.569275
O8	O	0.662577	0.058268	0.833618
O9	O	1.348030	-0.206054	0.569275
O10	O	0.892518	-0.043508	0.818831
O11	O	0.892518	0.043488	0.731837
O12	O	1.118095	-0.130494	0.731838
O13	O	1.118095	-0.043498	0.644844
Zr14	Zr	1.005319	0.092945	0.868290
Zr15	Zr	1.005311	-0.092967	0.868291
Zr16	Zr	1.005311	0.092951	0.682377
Zr17	Zr	1.246350	-0.092957	0.682378
Zr18	Zr	0.764272	0.092941	0.868290
O19	O	1.196917	0.058277	0.833617
O20	O	1.196905	-0.206066	0.833619
O21	O	1.196905	0.058286	0.569274
O22	O	0.813729	0.206041	0.981393
O23	O	0.813717	-0.058302	0.981394
O24	O	0.813717	0.206050	0.717049
O25	O	1.005318	-0.058299	0.981394
O26	O	1.005323	0.206049	0.833617
O27	O	1.005318	0.206053	0.717049
O28	O	1.005323	0.058269	0.981393
O29	O	1.348037	-0.206059	0.717051
O30	O	0.662584	0.206043	0.833618
O31	O	0.662591	0.206038	0.981393
O32	O	0.662584	0.058263	0.981394
O33	O	1.348037	-0.058279	0.569274
O34	O	1.348044	-0.058284	0.717050
O35	O	0.892526	0.130478	0.818830
O36	O	0.892526	0.043482	0.905824
O37	O	1.118103	-0.043504	0.818831
O38	O	1.118103	0.043492	0.731837
C39	C	0.703797	-0.000013	0.775335
C40	C	0.601466	-0.000015	0.775335
C41	C	1.005300	-0.000000	0.542786
C42	C	1.005296	0.000003	0.463862
C43	C	1.005321	0.232540	0.775333
C44	C	1.005325	0.311464	0.775332
C45	C	0.601460	-0.090849	0.866149
C46	C	0.553385	-0.136267	0.911551
C47	C	0.457236	-0.136265	0.911549
C48	C	0.409156	-0.090838	0.866141
C49	C	0.457231	-0.045420	0.820738
C50	C	0.553385	-0.045429	0.820744
C51	C	0.457230	0.045417	0.729931
C52	C	0.553386	0.045411	0.729927
C53	C	0.409150	0.090844	0.684523
C54	C	0.457231	0.136258	0.639114
C55	C	0.553388	0.136253	0.639118
C56	C	0.601461	0.090829	0.684524
C57	C	1.306825	-0.000002	0.775334
C58	C	1.409156	-0.000001	0.775333
C59	C	1.005300	-0.232556	0.775335
C60	C	1.005296	-0.311480	0.775336
C61	C	1.123073	0.303140	0.729924
C62	C	1.123069	0.377301	0.729920
C63	C	1.005315	0.459786	0.775330
C64	C	0.887558	0.468109	0.820739
C65	C	0.887564	0.393948	0.820738
C66	C	0.887555	0.622679	0.820741
C67	C	0.887549	0.696844	0.820744
C68	C	1.123059	0.606031	0.729923
C69	C	1.123065	0.531871	0.729922
C70	C	1.005308	0.540199	0.775333
C71	C	0.887549	0.045405	0.472190
C72	C	0.887553	0.045406	0.398029
C73	C	1.005306	-0.000002	0.315540
C74	C	1.123063	-0.045406	0.307214
C75	C	1.123057	-0.045401	0.381374
C76	C	1.123067	-0.045415	0.152644
C77	C	1.123073	-0.045421	0.078478
C78	C	0.887562	0.045392	0.169299
C79	C	0.887557	0.045397	0.243459
C80	C	1.005314	-0.000009	0.235127
C81	C	1.005321	-0.000016	1.007882
C82	C	1.005325	-0.000019	1.086806
C83	C	0.703808	-0.000021	1.007882
C84	C	0.601480	-0.000026	1.086807
C85	C	0.703808	0.232534	0.775333
C86	C	0.601480	0.311457	0.775333
C87	C	0.703818	0.232526	1.007881
C88	C	0.601495	0.311447	1.086806
C89	C	1.306803	-0.232542	0.542787
C90	C	1.409127	-0.311463	0.463862
C91	C	1.306814	0.000005	0.542786
C92	C	1.409141	0.000010	0.463861
C93	C	1.306814	-0.232550	0.775335
C94	C	1.409141	-0.311473	0.775335
C95	C	0.553422	-0.045444	1.078462
C96	C	0.457288	-0.045465	1.152613
C97	C	0.409207	-0.000064	1.235109
C98	C	0.457275	0.045356	1.243452
C99	C	0.553414	0.045372	1.169302
C100	C	0.553430	0.393936	0.820742
C101	C	0.457296	0.468099	0.820739
C102	C	0.409207	0.459782	0.775331
C103	C	0.457267	0.377295	0.729916
C104	C	0.553406	0.303133	0.729915
C105	C	0.553442	0.303097	1.169287
C106	C	0.457312	0.377244	1.243452
C107	C	0.409229	0.459739	1.235134
C108	C	0.457290	0.468087	1.152644
C109	C	0.553426	0.393941	1.078481
C110	C	1.457191	-0.303113	0.381381
C111	C	1.553351	-0.377260	0.307216
C112	C	1.601440	-0.459755	0.315534
C113	C	1.553372	-0.468103	0.398024
C114	C	1.457219	-0.393957	0.472188
C115	C	1.457210	0.045420	0.472206
C116	C	1.553370	0.045421	0.398055
C117	C	1.601454	0.000017	0.315559
C118	C	1.553382	-0.045399	0.307216
C119	C	1.457230	-0.045405	0.381366
C120	C	1.457200	-0.303128	0.820752
C121	C	1.553334	-0.377277	0.820769
C122	C	1.601415	-0.459771	0.775364
C123	C	1.553347	-0.468114	0.729945
C124	C	1.457208	-0.393966	0.729934
H125	H	0.679761	-0.090864	0.866146
H126	H	0.330924	-0.000083	1.295479
H127	H	1.592538	-0.535279	0.404787
F128	F	0.604538	0.184599	0.590798
H129	H	1.218951	0.370515	0.692946
H130	H	0.592538	0.400751	1.011323
F131	F	1.604488	-0.368357	0.219433
H132	H	0.592578	0.235932	1.176076
H133	H	0.791664	0.629467	0.857715
H134	H	1.218950	0.464710	0.692951
F135	F	0.604528	0.215355	0.681586
H136	H	1.592547	-0.082366	0.240038
H137	H	1.592494	0.082408	0.404866
F138	F	0.406162	0.555880	0.869080
H139	H	1.679732	-0.520122	0.255139
H140	H	1.218962	0.235981	0.692950
H141	H	0.592531	0.082362	1.176109
H142	H	1.418089	-0.400773	0.692946
F143	F	0.762241	0.402811	0.869065
H144	H	0.330949	0.520106	1.295529
H145	H	1.418086	-0.400766	0.539346
F146	F	0.604589	0.402808	0.869079
H147	H	0.592538	-0.173251	0.948524
F148	F	1.248399	-0.093755	-0.009313
H149	H	0.330925	0.520176	0.775339
H150	H	1.218942	0.599252	0.692945
H151	H	0.791682	0.535275	0.857708
H152	H	0.791680	0.082357	0.176081
H153	H	0.418098	0.370535	0.692946
H154	H	1.418067	0.082400	0.539372
H155	H	0.418089	-0.173244	0.948523
H156	H	0.418114	0.082320	1.310630
F157	F	1.703788	0.000032	0.236649
H158	H	1.418095	-0.082381	0.374559
H159	H	1.418067	-0.235964	0.857726
F160	F	1.604480	-0.368379	0.869107
F161	F	1.703739	-0.538679	0.775382
H162	H	1.592510	-0.535290	0.692977
H163	H	0.330855	-0.090832	0.866152
F164	F	0.762217	0.093730	0.559978
F165	F	1.406027	-0.215322	0.372508
F166	F	0.406174	0.368341	1.331235
H167	H	0.330854	0.090847	0.684529
F168	F	0.762223	0.784631	0.869099
H169	H	0.418072	0.173245	0.602151
H170	H	0.679756	0.090817	0.684528
H171	H	0.791671	0.082379	0.404818
F172	F	0.406144	-0.093806	1.143715
F173	F	0.762230	0.093719	0.331250
F174	F	1.248398	-0.093738	0.143772
H175	H	1.218940	-0.082362	0.374587
F176	F	0.604579	-0.093773	0.990670
F177	F	1.248386	-0.093726	0.219421
H178	H	0.418127	0.535264	1.145884
