data_functionalizedCrystal
_audit_creation_method	'MofGen! by Chris Wilmer'
_symmetry_space_group_name_H-M	'P1'
_symmetry_Int_Tables_number	1
_symmetry_cell_setting	triclinic
loop_
_symmetry_equiv_pos_as_xyz
  x,y,z
_cell_length_a	12.759401
_cell_length_b	18.215405
_cell_length_c	12.759393
_cell_angle_alpha	89.962431
_cell_angle_beta	89.981504
_cell_angle_gamma	90.025046
loop_
_atom_site_label
_atom_site_type_symbol
_atom_site_fract_x
_atom_site_fract_y
_atom_site_fract_z
Zn1	Zn	1.606181	-0.292938	-0.593937
Zn2	Zn	1.606044	-0.416024	-0.418239
Zn3	Zn	1.430483	-0.292976	-0.418277
Zn4	Zn	1.430440	-0.415967	-0.593881
O5	O	1.518287	-0.354476	-0.506084
O6	O	1.753184	-0.309273	-0.570639
O7	O	1.582716	-0.399741	-0.271223
O8	O	1.453865	-0.189987	-0.441618
O9	O	1.753083	-0.399704	-0.441554
O10	O	1.582949	-0.189959	-0.570675
O11	O	1.453732	-0.309339	-0.271251
O12	O	1.283456	-0.309284	-0.441563
O13	O	1.453792	-0.399607	-0.740909
O14	O	1.283425	-0.399645	-0.570578
O15	O	1.582908	-0.309218	-0.740951
O16	O	1.582675	-0.519001	-0.441499
O17	O	1.453660	-0.518959	-0.570542
C18	C	1.245320	-0.354463	-0.506069
C19	C	1.128543	-0.354475	-0.506088
C20	C	1.073692	-0.401601	-0.573155
C21	C	0.963968	-0.401610	-0.573167
C22	C	0.963956	-0.307365	-0.439035
C23	C	1.073678	-0.307353	-0.439029
C24	C	1.073699	-0.456015	-0.650592
C25	C	0.963975	-0.456025	-0.650604
C26	C	1.518176	-0.545683	-0.506033
C27	C	1.518225	-0.627482	-0.506047
C28	C	1.585561	-0.815673	-0.438977
C29	C	1.585608	-0.892531	-0.439003
C30	C	1.451148	-0.892528	-0.573265
C31	C	1.451107	-0.815671	-0.573244
C32	C	1.518312	-0.777245	-0.506094
C33	C	1.518400	-0.930961	-0.506141
C34	C	1.518450	-1.014295	-0.506169
C35	C	1.518263	-0.693906	-0.506067
C36	C	1.792320	-0.354491	-0.506098
C37	C	1.909097	-0.354497	-0.506105
C38	C	1.518361	-0.354402	-0.780117
C39	C	1.518392	-0.354370	-0.896894
C40	C	1.518427	-0.162523	-0.506157
C41	C	1.518487	-0.080724	-0.506189
C42	C	1.585632	-0.307300	-0.951779
C43	C	1.585657	-0.307274	-1.061503
C44	C	1.451199	-0.401394	-1.061447
C45	C	1.451170	-0.401416	-0.951725
C46	C	1.663263	-0.252963	-0.951813
C47	C	1.663288	-0.252936	-1.061537
C48	C	1.518274	-0.354497	-0.233116
C49	C	1.518447	-0.354322	-0.116340
H50	H	1.103511	-0.440815	-0.732001
H51	H	1.396467	-0.439695	-1.106104
O52	O	1.755440	-0.277434	-0.911320
C53	C	1.773824	-0.349890	-0.945484
H54	H	1.728295	-0.360376	-1.020866
H55	H	1.861143	-0.357756	-0.960708
H56	H	1.746901	-0.390126	-0.882507
O57	O	1.637120	-0.184996	-0.916365
C58	C	1.536511	-0.166198	-0.953309
H59	H	1.491097	-0.218342	-0.972777
H60	H	1.492872	-0.134110	-0.890252
H61	H	1.544208	-0.130941	-1.026768
O62	O	1.114323	-0.520511	-0.615491
C63	C	1.176477	-0.507313	-0.526117
H64	H	1.150841	-0.453792	-0.487615
H65	H	1.166558	-0.554485	-0.468191
H66	H	1.262289	-0.502990	-0.550272
O67	O	0.923465	-0.431871	-0.742968
C68	C	0.957722	-0.477813	-0.824994
H69	H	0.980223	-0.533747	-0.791808
H70	H	0.891922	-0.484811	-0.884581
H71	H	1.028718	-0.452032	-0.864921
H72	H	1.396430	-0.923824	-0.627935
H73	H	1.634188	-0.198783	-1.095593
H74	H	0.934165	-0.513008	-0.628663
O75	O	1.650957	-0.929973	-0.373962
C76	C	1.636603	-1.006050	-0.388391
H77	H	1.602075	-1.016505	-0.469413
H78	H	1.715347	-1.035194	-0.381446
H79	H	1.580784	-1.027968	-0.325984
O80	O	1.760306	-0.271099	-1.097246
C81	C	1.760144	-0.271048	-1.207748
H82	H	1.693802	-0.234655	-1.237406
H83	H	1.838250	-0.248990	-1.237673
H84	H	1.748250	-0.329456	-1.237520
O85	O	1.126911	-0.261645	-0.373738
C86	C	1.100035	-0.277622	-0.268983
H87	H	1.069853	-0.336413	-0.263512
H88	H	1.172174	-0.271222	-0.217092
H89	H	1.036347	-0.238150	-0.241638
O90	O	0.910495	-0.261669	-0.373922
C91	C	0.801888	-0.271770	-0.388326
H92	H	0.786892	-0.328592	-0.422592
H93	H	0.760161	-0.266722	-0.309644
H94	H	0.770790	-0.228165	-0.444386
H95	H	1.640285	-0.784388	-0.384302
H96	H	1.396345	-0.784381	-0.627904
H97	H	1.396413	-0.439743	-0.907041
