data_functionalizedCrystal
_audit_creation_method	'MofGen! by Chris Wilmer'
_symmetry_space_group_name_H-M	'P1'
_symmetry_Int_Tables_number	1
_symmetry_cell_setting	triclinic
loop_
_symmetry_equiv_pos_as_xyz
  x,y,z
_cell_length_a	19.288864
_cell_length_b	14.421503
_cell_length_c	19.288865
_cell_angle_alpha	90.000948
_cell_angle_beta	83.136245
_cell_angle_gamma	90.021447
loop_
_atom_site_label
_atom_site_type_symbol
_atom_site_fract_x
_atom_site_fract_y
_atom_site_fract_z
O1	O	0.921353	0.077420	0.086638
O2	O	1.254686	0.410753	0.419971
O3	O	1.588019	0.744086	0.753305
O4	O	0.719092	0.077358	0.098327
O5	O	1.052425	0.410691	0.431660
O6	O	1.385759	0.744024	0.764993
O7	O	0.826067	0.077372	-0.008648
O8	O	1.159400	0.410705	0.324685
O9	O	1.492733	0.744039	0.658019
O10	O	0.814378	0.077405	0.193613
O11	O	1.147711	0.410738	0.526946
O12	O	1.481045	0.744072	0.860279
O13	O	0.826049	-0.076851	-0.008632
O14	O	1.159382	0.256482	0.324701
O15	O	1.492716	0.589815	0.658035
O16	O	0.719074	-0.076866	0.098343
O17	O	1.052408	0.256467	0.431676
O18	O	1.385741	0.589801	0.765009
O19	O	0.921335	-0.076804	0.086654
O20	O	1.254668	0.256529	0.419987
O21	O	1.588002	0.589863	0.753321
Cu22	Cu	0.820203	-0.090917	0.092500
Cu23	Cu	1.153536	0.242417	0.425833
Cu24	Cu	1.486870	0.575750	0.759166
Cu25	Cu	0.820224	0.091470	0.092481
Cu26	Cu	1.153557	0.424804	0.425814
Cu27	Cu	1.486891	0.758137	0.759148
O28	O	0.814360	-0.076818	0.193629
O29	O	1.147693	0.256515	0.526962
O30	O	1.481027	0.589848	0.860295
C31	C	0.693207	0.000238	0.097959
C32	C	1.026540	0.333571	0.431292
C33	C	1.359873	0.666904	0.764625
C34	C	0.616103	0.000213	0.096830
C35	C	0.949436	0.333547	0.430163
C36	C	1.282770	0.666880	0.763496
C37	C	0.571407	0.000238	0.159598
C38	C	0.904740	0.333571	0.492931
C39	C	1.238073	0.666905	0.826264
C40	C	0.498960	0.000248	0.158537
C41	C	0.832293	0.333581	0.491870
C42	C	1.165626	0.666915	0.825204
C43	C	0.471212	0.000252	0.094705
C44	C	0.804545	0.333585	0.428038
C45	C	1.137879	0.666919	0.761371
C46	C	0.515918	0.000222	0.031929
C47	C	0.849252	0.333555	0.365262
C48	C	1.182585	0.666889	0.698595
C49	C	0.588364	0.000202	0.032991
C50	C	0.921697	0.333536	0.366324
C51	C	1.255030	0.666869	0.699658
C52	C	0.362956	0.054306	0.044520
C53	C	0.696290	0.387640	0.377853
C54	C	1.029623	0.720973	0.711187
C55	C	0.290512	0.054331	0.043460
C56	C	0.623845	0.387665	0.376793
C57	C	0.957179	0.720998	0.710127
C58	C	0.247767	0.000308	0.091425
C59	C	0.581100	0.333641	0.424758
C60	C	0.914433	0.666974	0.758092
C61	C	0.277473	-0.053729	0.140462
C62	C	0.610806	0.279604	0.473795
C63	C	0.944140	0.612937	0.807128
C64	C	0.349919	-0.053749	0.141524
C65	C	0.683252	0.279585	0.474857
C66	C	1.016585	0.612918	0.808191
C67	C	0.392658	0.000272	0.093546
C68	C	0.725991	0.333606	0.426879
C69	C	1.059325	0.666939	0.760212
C70	C	0.124514	0.000342	0.153047
C71	C	0.457848	0.333675	0.486381
C72	C	0.791181	0.667009	0.819714
C73	C	0.052066	0.000346	0.151984
C74	C	0.385400	0.333680	0.485317
C75	C	0.718733	0.667013	0.818650
C76	C	0.069026	0.000329	0.025374
C77	C	0.402360	0.333663	0.358707
C78	C	0.735693	0.666996	0.692040
C79	C	0.141473	0.000316	0.026439
C80	C	0.474806	0.333649	0.359772
C81	C	0.808140	0.666982	0.693106
C82	C	0.169212	0.000326	0.090277
C83	C	0.502546	0.333660	0.423611
C84	C	0.835879	0.666993	0.756944
N85	N	0.820193	-0.219198	0.092513
N86	N	1.153527	0.114135	0.425846
N87	N	1.486860	0.447469	0.759179
C88	C	0.770720	-0.468858	0.141956
C89	C	1.104053	-0.135525	0.475289
C90	C	1.437386	0.197808	0.808622
C91	C	0.833441	-0.530639	0.155241
C92	C	1.166774	-0.197305	0.488574
C93	C	1.500107	0.136028	0.821907
C94	C	0.820210	-0.408359	0.092496
C95	C	1.153544	-0.075026	0.425829
C96	C	1.486877	0.258307	0.759163
C97	C	0.757505	-0.530673	0.079227
C98	C	1.090839	-0.197339	0.412560
C99	C	1.424172	0.135994	0.745894
C100	C	0.820221	-0.591081	0.092481
C101	C	1.153554	-0.257747	0.425815
C102	C	1.486888	0.075586	0.759148
C103	C	0.882963	-0.468779	0.105812
C104	C	1.216296	-0.135446	0.439146
C105	C	1.549630	0.197888	0.772479
C106	C	0.806986	-0.468808	0.029771
C107	C	1.140320	-0.135474	0.363105
C108	C	1.473653	0.197859	0.696438
C109	C	0.869753	-0.530560	0.043030
C110	C	1.203086	-0.197227	0.376363
C111	C	1.536419	0.136106	0.709696
C112	C	0.820203	-0.303098	0.092506
C113	C	1.153536	0.030235	0.425839
C114	C	1.486870	0.363568	0.759173
C115	C	0.820235	-0.696340	0.092471
C116	C	1.153569	-0.363006	0.425804
C117	C	1.486902	-0.029673	0.759137
C118	C	0.947220	0.000318	0.087022
C119	C	1.280553	0.333651	0.420355
C120	C	1.613887	0.666985	0.753689
C121	C	1.024324	0.000349	0.088151
C122	C	1.357657	0.333682	0.421484
C123	C	1.690990	0.667015	0.754818
C124	C	0.825682	0.000257	-0.034516
C125	C	1.159015	0.333591	0.298817
C126	C	1.492348	0.666924	0.632150
C127	C	0.824553	0.000249	-0.111620
C128	C	1.157886	0.333582	0.221713
C129	C	1.491219	0.666916	0.555047
N130	N	0.820239	0.219752	0.092463
N131	N	1.153572	0.553085	0.425796
N132	N	1.486906	0.886418	0.759129
C133	C	0.887321	0.000264	-0.156316
C134	C	1.220654	0.333597	0.177017
C135	C	1.553987	0.666930	0.510350
C136	C	0.886260	0.000278	-0.228763
C137	C	1.219593	0.333611	0.104570
C138	C	1.552927	0.666945	0.437903
C139	C	0.822428	0.000259	-0.256511
C140	C	1.155761	0.333592	0.076822
C141	C	1.489094	0.666926	0.410156
C142	C	0.759652	0.000250	-0.211805
C143	C	1.092985	0.333583	0.121529
C144	C	1.426318	0.666916	0.454862
C145	C	0.760714	0.000244	-0.139359
C146	C	1.094047	0.333578	0.193974
C147	C	1.427381	0.666911	0.527307
C148	C	0.772242	-0.053778	-0.364793
C149	C	1.105575	0.279556	-0.031459
C150	C	1.438909	0.612889	0.301874
C151	C	0.771182	-0.053778	-0.437237
C152	C	1.104515	0.279555	-0.103904
C153	C	1.437849	0.612888	0.229429
C154	C	0.819148	0.000279	-0.479956
C155	C	1.152481	0.333612	-0.146623
C156	C	1.485815	0.666945	0.186710
C157	C	0.868186	0.054324	-0.450224
C158	C	1.201519	0.387658	-0.116891
C159	C	1.534852	0.720991	0.216443
C160	C	0.869248	0.054319	-0.377778
C161	C	1.202581	0.387653	-0.044445
C162	C	1.535915	0.720986	0.288888
C163	C	0.821269	0.000265	-0.335065
C164	C	1.154602	0.333598	-0.001732
C165	C	1.487935	0.666932	0.331602
C166	C	0.880770	0.000310	-0.603209
C167	C	1.214104	0.333644	-0.269875
C168	C	1.547437	0.666977	0.063458
C169	C	0.879707	0.000330	-0.675657
C170	C	1.213040	0.333664	-0.342323
C171	C	1.546374	0.666997	-0.008990
C172	C	0.753097	0.000293	-0.658697
C173	C	1.086430	0.333626	-0.325363
C174	C	1.419763	0.666959	0.007970
C175	C	0.754162	0.000282	-0.586250
C176	C	1.087495	0.333615	-0.252917
C177	C	1.420829	0.666949	0.080417
C178	C	0.818001	0.000286	-0.558511
C179	C	1.151334	0.333620	-0.225178
C180	C	1.484667	0.666953	0.108156
C181	C	0.814745	0.000298	0.219497
C182	C	1.148078	0.333632	0.552830
C183	C	1.481412	0.666965	0.886164
C184	C	0.815874	0.000313	0.296601
C185	C	1.149207	0.333646	0.629934
C186	C	1.482541	0.666980	0.963267
H187	H	0.624756	0.000183	-0.018124
H188	H	0.958090	0.333516	0.315210
H189	H	1.291423	0.666849	0.648543
H190	H	0.937375	0.000294	-0.265162
H191	H	1.270708	0.333627	0.068171
H192	H	1.604041	0.666960	0.401505
H193	H	0.728909	-0.441766	0.183815
H194	H	1.062243	-0.108433	0.517149
H195	H	1.395576	0.224901	0.850482
F196	F	0.486386	0.000222	-0.036006
F197	F	0.819720	0.333555	0.297327
F198	F	1.153053	0.666888	0.630661
H199	H	0.703049	0.000265	-0.549857
H200	H	1.036383	0.333598	-0.216524
H201	H	1.369716	0.666931	0.116810
H202	H	0.374103	-0.097750	0.181449
H203	H	0.707436	0.235583	0.514783
H204	H	1.040769	0.568916	0.848116
H205	H	0.795772	-0.441627	-0.023250
H206	H	1.129105	-0.108294	0.310083
H207	H	1.462438	0.225040	0.643417
H208	H	0.844636	-0.557798	0.208279
H209	H	1.177969	-0.224464	0.541612
H210	H	1.511302	0.108869	0.874946
H211	H	0.911656	-0.557482	0.001195
H212	H	1.244989	-0.224149	0.334528
H213	H	1.578322	0.109184	0.667861
H214	H	0.242671	-0.097721	0.179519
H215	H	0.576004	0.235612	0.512852
H216	H	0.909338	0.568945	0.846186
F217	F	0.154039	0.000346	0.220989
F218	F	0.487372	0.333680	0.554322
F219	F	0.820706	0.667013	0.887655
H220	H	0.015674	0.000361	0.203099
H221	H	0.349008	0.333695	0.536433
H222	H	0.682341	0.667028	0.869766
F223	F	0.952297	-0.433397	0.120554
F224	F	1.285630	-0.100064	0.453887
F225	F	1.618964	0.233269	0.787220
F226	F	0.921433	0.111841	-0.346137
F227	F	1.254766	0.445174	-0.012804
F228	F	1.588100	0.778508	0.320530
H229	H	0.709599	0.000232	-0.102967
H230	H	1.042933	0.333566	0.230367
H231	H	1.376266	0.666899	0.563700
F232	F	0.039500	0.000324	-0.042562
F233	F	0.372834	0.333658	0.290772
F234	F	0.706167	0.666991	0.624105
F235	F	0.688188	-0.566210	0.064565
F236	F	1.021522	-0.232876	0.397898
F237	F	1.354855	0.100457	0.731231
F238	F	0.721187	-0.111318	-0.319334
F239	F	1.054521	0.222015	0.013999
F240	F	1.387854	0.555349	0.347333
H241	H	0.939303	0.000270	-0.133736
H242	H	1.272636	0.333604	0.199597
H243	H	1.605970	0.666937	0.532931
H244	H	0.266330	0.098335	0.003534
H245	H	0.599664	0.431668	0.336868
H246	H	0.932997	0.765002	0.670201
H247	H	0.593987	0.000249	0.211580
H248	H	0.927320	0.333582	0.544913
H249	H	1.260654	0.666915	0.878247
F250	F	0.189044	0.000294	-0.040368
F251	F	0.522377	0.333627	0.292965
F252	F	0.855711	0.666961	0.626298
H253	H	0.907244	0.098343	-0.485005
H254	H	1.240577	0.431677	-0.151672
H255	H	1.573911	0.765010	0.181662
H256	H	0.731250	-0.097780	-0.461439
H257	H	1.064583	0.235553	-0.128106
H258	H	1.397916	0.568887	0.205228
F259	F	0.948712	0.000311	-0.573684
F260	F	1.282045	0.333644	-0.240351
F261	F	1.615378	0.666977	0.092983
H262	H	0.930822	0.000347	-0.712049
H263	H	1.264156	0.333681	-0.378715
H264	H	1.597489	0.667014	-0.045382
F265	F	0.685161	0.000277	-0.688223
F266	F	1.018495	0.333610	-0.354889
F267	F	1.351828	0.666944	-0.021556
F268	F	0.691717	0.000235	-0.241337
F269	F	1.025050	0.333569	0.091997
F270	F	1.358384	0.666902	0.425330
F271	F	0.451382	0.000272	0.225346
F272	F	0.784715	0.333605	0.558679
F273	F	1.118048	0.666939	0.892012
F274	F	0.408443	0.111809	-0.006535
F275	F	0.741776	0.445142	0.326798
F276	F	1.075110	0.778476	0.660132
