data_functionalizedCrystal
_audit_creation_method	'MofGen! by Chris Wilmer'
_symmetry_space_group_name_H-M	'P1'
_symmetry_Int_Tables_number	1
_symmetry_cell_setting	triclinic
loop_
_symmetry_equiv_pos_as_xyz
  x,y,z
_cell_length_a	18.215407
_cell_length_b	16.625546
_cell_length_c	18.215407
_cell_angle_alpha	90.013442
_cell_angle_beta	90.010236
_cell_angle_gamma	90.022916
loop_
_atom_site_label
_atom_site_type_symbol
_atom_site_fract_x
_atom_site_fract_y
_atom_site_fract_z
Zn1	Zn	1.125015	-0.321125	0.416109
Zn2	Zn	1.124949	-0.455929	0.293040
Zn3	Zn	1.001968	-0.321115	0.293057
Zn4	Zn	1.001918	-0.455921	0.416065
O5	O	1.063462	-0.388522	0.354568
O6	O	1.227990	-0.339015	0.399796
O7	O	1.108628	-0.438044	0.190058
O8	O	1.018338	-0.208284	0.309405
O9	O	1.227942	-0.438055	0.309377
O10	O	1.108740	-0.208292	0.399811
O11	O	1.018275	-0.338997	0.190070
O12	O	0.898977	-0.338989	0.309363
O13	O	1.018254	-0.438041	0.519055
O14	O	0.898941	-0.438031	0.399736
O15	O	1.108692	-0.339008	0.519088
O16	O	1.108580	-0.568760	0.309335
O17	O	1.018190	-0.568754	0.399721
C18	C	0.872256	-0.388509	0.354547
C19	C	0.790457	-0.388522	0.354555
C20	C	0.602264	-0.440174	0.401554
C21	C	0.525405	-0.440177	0.401563
C22	C	0.525413	-0.336885	0.307598
C23	C	0.602270	-0.336879	0.307593
C24	C	0.640694	-0.388528	0.354570
C25	C	0.486978	-0.388537	0.354584
C26	C	0.403644	-0.388539	0.354594
C27	C	0.724033	-0.388525	0.354562
C28	C	1.063393	-0.598013	0.354537
C29	C	1.063430	-0.687634	0.354549
C30	C	1.063559	-1.015810	0.354625
C31	C	1.063521	-0.924502	0.354606
C32	C	1.063494	-0.851725	0.354587
C33	C	1.063457	-0.760411	0.354568
C34	C	1.255415	-0.388537	0.354590
C35	C	1.337214	-0.388543	0.354599
C36	C	1.063475	-0.388525	0.546521
C37	C	1.063480	-0.388526	0.628320
C38	C	1.063552	-0.178214	0.354615
C39	C	1.063591	-0.088592	0.354635
C40	C	1.110557	-0.336967	0.816532
C41	C	1.110553	-0.336967	0.893390
C42	C	1.016380	-0.440096	0.893346
C43	C	1.016381	-0.440091	0.816488
C44	C	1.063474	-0.388528	0.778083
C45	C	1.063469	-0.388532	0.931799
C46	C	1.063464	-0.388532	1.015133
C47	C	1.063478	-0.388527	0.694744
C48	C	1.063450	-0.388538	1.163362
C49	C	1.063462	-0.388535	1.081563
H50	H	0.633545	-0.482228	0.439807
N51	N	0.483964	-0.281199	0.256921
H52	H	0.497349	-0.223602	0.268435
H53	H	0.429458	-0.289118	0.264078
N54	N	1.161327	-0.281346	0.934861
H55	H	1.191156	-0.248680	0.898867
H56	H	1.195372	-0.314162	0.966753
N57	N	0.483954	-0.495883	0.452235
H58	H	0.519960	-0.528601	0.481990
H59	H	0.452048	-0.533146	0.422216
N60	N	1.161351	-0.281358	0.775110
H61	H	1.154214	-0.289182	0.720587
H62	H	1.213901	-0.293921	0.788559
H63	H	0.978034	-0.482078	0.785183
N64	N	0.643727	-0.281163	0.256925
H65	H	0.607725	-0.248446	0.227165
H66	H	0.675603	-0.313917	0.222812
N67	N	0.965578	-0.495696	0.934768
H68	H	0.972718	-0.487873	0.989291
H69	H	0.976997	-0.553286	0.921327
