data_functionalizedCrystal
_audit_creation_method	'MofGen! by Chris Wilmer'
_symmetry_space_group_name_H-M	'P1'
_symmetry_Int_Tables_number	1
_symmetry_cell_setting	triclinic
loop_
_symmetry_equiv_pos_as_xyz
  x,y,z
_cell_length_a	11.026607
_cell_length_b	14.519709
_cell_length_c	10.065875
_cell_angle_alpha	98.804604
_cell_angle_beta	79.302338
_cell_angle_gamma	96.133081
loop_
_atom_site_label
_atom_site_type_symbol
_atom_site_fract_x
_atom_site_fract_y
_atom_site_fract_z
O1	O	1.628737	0.375708	-0.113512
O2	O	1.275335	0.331718	-0.113511
O3	O	1.461404	0.221020	-0.113499
O4	O	1.442668	0.486407	-0.113524
O5	O	1.425923	0.242237	0.113487
O6	O	1.239855	0.352935	0.113475
O7	O	1.593256	0.396926	0.113475
Zn8	Zn	1.410922	0.378299	0.149514
Zn9	Zn	1.457669	0.350345	-0.149550
O10	O	1.407187	0.507624	0.113463
C11	C	1.212366	0.334211	-0.000018
C12	C	1.077600	0.310019	-0.000017
C13	C	1.003940	0.376818	-0.000024
C14	C	0.864652	0.351815	-0.000024
C15	C	1.442790	0.197125	-0.000006
C16	C	1.440173	0.094312	-0.000005
C17	C	1.430544	-0.282174	-0.000040
C18	C	1.433218	-0.177425	-0.000030
C19	C	1.435358	-0.093934	-0.000021
C20	C	1.438033	0.010822	-0.000014
C21	C	1.656225	0.394432	-0.000022
C22	C	1.790993	0.418624	-0.000031
C23	C	1.425802	0.531519	-0.000034
C24	C	1.428420	0.634330	-0.000043
N25	N	1.379027	0.397378	0.353617
N26	N	1.489574	0.331260	-0.353654
C27	C	1.446564	0.356976	0.421401
C28	C	1.422027	0.371668	0.578566
H29	H	1.043996	0.452517	-0.000024
O30	O	0.816903	0.261508	0.000223
C31	C	0.838107	0.228328	0.117766
H32	H	0.851804	0.290006	0.199930
H33	H	0.924594	0.188045	0.091189
C34	C	0.709116	0.087430	0.070158
C35	C	0.725928	0.163183	0.171078
H36	H	0.639922	0.047242	0.103042
H37	H	0.694834	0.109781	-0.009036
H38	H	0.781196	0.053871	0.048020
H39	H	0.653856	0.196747	0.193203
H40	H	0.740196	0.140836	0.250277
O41	O	1.029845	0.219717	0.000230
C42	C	1.051050	0.186537	0.117772
H43	H	1.064746	0.248215	0.199937
H44	H	1.137536	0.146254	0.091195
C45	C	0.922059	0.045638	0.070165
C46	C	0.938871	0.121392	0.171085
H47	H	0.852865	0.005450	0.103048
H48	H	0.907776	0.067990	-0.009029
H49	H	0.994139	0.012080	0.048026
H50	H	0.866798	0.154955	0.193209
H51	H	0.953138	0.099044	0.250284
H52	H	0.831041	0.494329	-0.000029
H53	H	1.522548	0.311504	0.363081
O54	O	1.288445	0.451741	0.423031
C55	C	1.314135	0.543106	0.388232
H56	H	1.377059	0.541036	0.284440
H57	H	1.362258	0.589048	0.468610
C58	C	1.114905	0.586186	0.509327
C59	C	1.192181	0.583642	0.381842
H60	H	1.039679	0.611193	0.505391
H61	H	1.097598	0.524632	0.532777
H62	H	1.155022	0.624470	0.576295
H63	H	1.152070	0.545349	0.314880
H64	H	1.209478	0.645190	0.358380
O65	O	1.331292	0.425793	0.648277
C66	C	1.243240	0.371740	0.730926
H67	H	1.287883	0.309451	0.752185
H68	H	1.161997	0.345614	0.675960
C69	C	1.141670	0.508635	0.840629
C70	C	1.196503	0.432134	0.866749
H71	H	1.112835	0.545888	0.924408
H72	H	1.200988	0.545051	0.784944
H73	H	1.073973	0.486851	0.794821
H74	H	1.264207	0.453918	0.912540
H75	H	1.137195	0.395722	0.922445
O76	O	1.580079	0.276802	0.576990
C77	C	1.554245	0.185510	0.612050
H78	H	1.450877	0.172844	0.651352
H79	H	1.608410	0.177216	0.695001
C80	C	1.719450	0.129659	0.436930
C81	C	1.592489	0.114099	0.485191
H82	H	1.743045	0.085609	0.358681
H83	H	1.736859	0.191165	0.413312
H84	H	1.764572	0.122749	0.506068
H85	H	1.547369	0.121021	0.416060
H86	H	1.575073	0.052593	0.508795
