data_functionalizedCrystal
_audit_creation_method	'MofGen! by Chris Wilmer'
_symmetry_space_group_name_H-M	'P1'
_symmetry_Int_Tables_number	1
_symmetry_cell_setting	triclinic
loop_
_symmetry_equiv_pos_as_xyz
  x,y,z
_cell_length_a	12.759401
_cell_length_b	16.625545
_cell_length_c	12.759393
_cell_angle_alpha	90.033904
_cell_angle_beta	90.018567
_cell_angle_gamma	90.024602
loop_
_atom_site_label
_atom_site_type_symbol
_atom_site_fract_x
_atom_site_fract_y
_atom_site_fract_z
Zn1	Zn	1.606176	-0.320975	0.593966
Zn2	Zn	1.606037	-0.455831	0.418279
Zn3	Zn	1.430478	-0.321014	0.418305
Zn4	Zn	1.430433	-0.455767	0.593920
O5	O	1.518281	-0.388397	0.506118
O6	O	1.753179	-0.338874	0.570669
O7	O	1.582709	-0.437991	0.271262
O8	O	1.453862	-0.208177	0.441637
O9	O	1.753077	-0.437953	0.441593
O10	O	1.582946	-0.208147	0.570695
O11	O	1.453727	-0.338942	0.271281
O12	O	1.283451	-0.338879	0.441593
O13	O	1.453786	-0.437843	0.740948
O14	O	1.283418	-0.437881	0.570617
O15	O	1.582903	-0.338811	0.740981
O16	O	1.582666	-0.568655	0.441548
O17	O	1.453651	-0.568608	0.570591
C18	C	1.245314	-0.388378	0.506103
C19	C	1.128537	-0.388389	0.506122
C20	C	1.073721	-0.336896	0.573436
C21	C	0.963997	-0.336912	0.573443
C22	C	0.963915	-0.439920	0.438818
C23	C	1.073637	-0.439900	0.438807
C24	C	1.073768	-0.277428	0.651164
C25	C	0.964044	-0.277443	0.651171
C26	C	1.518167	-0.597888	0.506085
C27	C	1.518214	-0.687509	0.506106
C28	C	1.518255	-0.760291	0.506127
C29	C	1.518316	-0.851600	0.506150
C30	C	1.518371	-0.924376	0.506163
C31	C	1.518431	-1.015690	0.506185
C32	C	1.792314	-0.388416	0.506133
C33	C	1.909091	-0.388425	0.506140
C34	C	1.518355	-0.388315	0.780151
C35	C	1.518386	-0.388281	0.896928
C36	C	1.518424	-0.178088	0.506174
C37	C	1.518485	-0.088467	0.506198
C38	C	1.518268	-0.388420	0.233150
C39	C	1.518441	-0.388227	0.116374
C40	C	1.585627	-0.336710	0.951809
C41	C	1.585652	-0.336681	1.061533
C42	C	1.451192	-0.439800	1.061485
C43	C	1.451163	-0.439824	0.951763
C44	C	1.663259	-0.277178	0.951838
C45	C	1.663284	-0.277149	1.061562
H46	H	0.934295	-0.294247	0.732506
F47	F	1.118292	-0.306752	0.752116
F48	F	1.625132	-0.199634	1.106075
F49	F	0.919563	-0.199877	0.613267
F50	F	1.764251	-0.306435	0.907344
H51	H	1.744651	-0.293875	1.091340
F52	F	1.379582	-0.494701	0.893358
H53	H	1.641506	-0.214734	0.922085
F54	F	0.905476	-0.494737	0.367180
F55	F	1.131972	-0.494686	0.367137
F56	F	1.379653	-0.494653	1.119854
F57	F	1.112701	-0.195772	0.622869
