data_functionalizedCrystal
_audit_creation_method	'MofGen! by Chris Wilmer'
_symmetry_space_group_name_H-M	'P1'
_symmetry_Int_Tables_number	1
_symmetry_cell_setting	triclinic
loop_
_symmetry_equiv_pos_as_xyz
  x,y,z
_cell_length_a	12.759395
_cell_length_b	12.594516
_cell_length_c	12.759387
_cell_angle_alpha	90.028490
_cell_angle_beta	90.020509
_cell_angle_gamma	90.017589
loop_
_atom_site_label
_atom_site_type_symbol
_atom_site_fract_x
_atom_site_fract_y
_atom_site_fract_z
Zn1	Zn	1.606259	-0.423642	0.594022
Zn2	Zn	1.606145	-0.601660	0.418349
Zn3	Zn	1.430557	-0.423700	0.418359
Zn4	Zn	1.430545	-0.601584	0.593989
O5	O	1.518377	-0.512647	0.506180
O6	O	1.753265	-0.447264	0.570729
O7	O	1.582811	-0.578109	0.271330
O8	O	1.453917	-0.274747	0.441679
O9	O	1.753181	-0.578053	0.441663
O10	O	1.583004	-0.274704	0.570738
O11	O	1.453807	-0.447363	0.271336
O12	O	1.283534	-0.447290	0.441646
O13	O	1.453897	-0.577924	0.741014
O14	O	1.283526	-0.577980	0.570681
O15	O	1.582993	-0.447191	0.741039
O16	O	1.582799	-0.750595	0.441631
O17	O	1.453786	-0.750540	0.570672
C18	C	1.245409	-0.512634	0.506162
C19	C	1.128632	-0.512654	0.506179
C20	C	1.518308	-0.789188	0.506169
C21	C	1.518374	-0.907493	0.506200
C22	C	1.128662	-0.648962	0.640325
C23	C	1.073816	-0.717124	0.707401
C24	C	0.964094	-0.717137	0.707414
C25	C	0.909216	-0.648978	0.640346
C26	C	0.964062	-0.580816	0.573270
C27	C	1.073786	-0.580812	0.573262
C28	C	0.964033	-0.444504	0.439130
C29	C	1.073754	-0.444495	0.439111
C30	C	0.909155	-0.376345	0.372062
C31	C	0.964001	-0.308186	0.304979
C32	C	1.073729	-0.308177	0.304968
C33	C	1.128600	-0.376332	0.372034
C34	C	1.448198	-0.976755	0.576336
C35	C	1.422596	-1.047624	0.480469
C36	C	1.544072	-1.047422	0.602083
C37	C	1.492722	-0.976805	0.410282
C38	C	1.614242	-0.976596	0.531961
C39	C	1.588677	-1.047434	0.436028
C40	C	1.792410	-0.512660	0.506198
C41	C	1.909187	-0.512666	0.506206
C42	C	1.518456	-0.512542	0.780213
C43	C	1.518490	-0.512498	0.896990
C44	C	1.518474	-0.235026	0.506213
C45	C	1.518516	-0.116720	0.506227
C46	C	1.518358	-0.512674	0.233212
C47	C	1.518528	-0.512418	0.116436
C48	C	1.652927	-0.376375	0.897035
C49	C	1.720160	-0.308297	0.951919
C50	C	1.720185	-0.308258	1.061641
C51	C	1.652968	-0.376302	1.116481
C52	C	1.585735	-0.444380	1.061598
C53	C	1.585719	-0.444413	0.951874
C54	C	1.451295	-0.580496	1.061553
C55	C	1.451273	-0.580542	0.951831
C56	C	1.384078	-0.648540	1.116393
C57	C	1.316848	-0.716624	1.061510
C58	C	1.316826	-0.716661	0.951781
C59	C	1.384040	-0.648619	0.896947
H60	H	1.118510	-0.772616	0.762008
H61	H	1.262065	-0.772087	0.907102
H62	H	1.218003	-0.648966	0.640314
C63	C	0.904730	-0.791249	0.780285
C64	C	0.976267	-0.850950	0.839006
C65	C	0.921619	-0.919239	0.906138
H66	H	0.861955	-0.750706	0.826224
H67	H	0.861919	-0.837635	0.740045
H68	H	1.019060	-0.804570	0.879243
H69	H	1.019044	-0.891515	0.793095
H70	H	0.878808	-0.965625	0.865898
H71	H	0.878846	-0.878687	0.952070
H72	H	0.970148	-0.959761	0.945981
H73	H	1.217941	-0.376334	0.372029
C74	C	0.790028	-0.376160	0.372182
C75	C	0.753752	-0.274874	0.399193
C76	C	0.644018	-0.274670	0.399323
H77	H	0.765043	-0.394412	0.304387
H78	H	0.765182	-0.426469	0.421764
H79	H	0.778587	-0.224581	0.349614
H80	H	0.778707	-0.256602	0.466988
H81	H	0.619172	-0.324978	0.448905
H82	H	0.619044	-0.292925	0.331526
H83	H	0.619391	-0.205951	0.417659
H84	H	1.388745	-0.945719	0.635562
H85	H	1.470951	-0.945913	0.329184
C86	C	0.790089	-0.649182	0.640479
C87	C	0.753804	-0.723477	0.713561
C88	C	0.644070	-0.723704	0.713700
H89	H	0.765161	-0.580584	0.658805
H90	H	0.765194	-0.667558	0.572669
H91	H	0.778688	-0.705095	0.781356
H92	H	0.778703	-0.792086	0.695253
H93	H	0.619175	-0.742080	0.645891
H94	H	0.619152	-0.655103	0.732024
H95	H	0.619436	-0.774119	0.763278
H96	H	0.919310	-0.252692	0.250383
H97	H	1.118378	-0.252663	0.250354
H98	H	1.341588	-1.078847	0.458703
C99	C	1.667752	-1.088508	0.356706
C100	C	1.640436	-1.052556	0.256538
C101	C	1.713241	-1.090385	0.183436
H102	H	1.735639	-1.063136	0.374275
H103	H	1.667765	-1.163937	0.357485
H104	H	1.640433	-0.977142	0.255761
H105	H	1.572560	-1.077924	0.238936
H106	H	1.713255	-1.165815	0.184215
H107	H	1.781125	-1.065011	0.201015
H108	H	1.694712	-1.066006	0.115463
C109	C	1.722289	-0.935166	0.561116
C110	C	1.789401	-1.020939	0.580220
C111	C	1.888938	-0.982814	0.607107
H112	H	1.749316	-0.893702	0.505134
H113	H	1.717258	-0.892595	0.622397
H114	H	1.794435	-1.063493	0.518946
H115	H	1.762408	-1.062412	0.636207
H116	H	1.883907	-0.940243	0.668388
H117	H	1.915955	-0.941350	0.551121
H118	H	1.934483	-1.041004	0.620081
C119	C	1.572839	-1.088638	0.710280
C120	C	1.499047	-1.052803	0.783368
C121	C	1.525512	-1.090734	0.883052
H122	H	1.573293	-1.164054	0.709502
H123	H	1.640395	-1.063242	0.729108
H124	H	1.431509	-1.078205	0.764545
H125	H	1.498582	-0.977392	0.784179
H126	H	1.593068	-1.065337	0.901880
H127	H	1.525966	-1.166148	0.882263
H128	H	1.475455	-1.066417	0.932656
H129	H	1.384099	-0.648499	1.205734
H130	H	1.652986	-0.376255	1.205822
H131	H	1.652922	-0.376409	0.807694
H132	H	1.774884	-0.252895	0.907255
C133	C	1.243992	-0.790452	1.121239
C134	C	1.258416	-0.775858	1.229075
C135	C	1.191329	-0.843863	1.284134
H136	H	1.173361	-0.774943	1.103373
H137	H	1.259346	-0.862000	1.103317
H138	H	1.243054	-0.704327	1.246990
H139	H	1.329032	-0.791375	1.246973
H140	H	1.206683	-0.915410	1.266211
H141	H	1.120703	-0.828348	1.266259
H142	H	1.201113	-0.833977	1.357306
C143	C	1.383913	-0.648866	0.777820
C144	C	1.310671	-0.723069	0.741488
C145	C	1.310543	-0.723337	0.631754
H146	H	1.365740	-0.580251	0.752865
H147	H	1.451685	-0.667349	0.752983
H148	H	1.242915	-0.704581	0.766314
H149	H	1.328827	-0.791695	0.766414
H150	H	1.378314	-0.741820	0.606917
H151	H	1.292372	-0.654719	0.606809
H152	H	1.260857	-0.773690	0.607088
H153	H	1.774926	-0.252817	1.106327
