data_functionalizedCrystal
_audit_creation_method	'MofGen! by Chris Wilmer'
_symmetry_space_group_name_H-M	'P1'
_symmetry_Int_Tables_number	1
_symmetry_cell_setting	triclinic
loop_
_symmetry_equiv_pos_as_xyz
  x,y,z
_cell_length_a	21.395362
_cell_length_b	14.908520
_cell_length_c	21.395356
_cell_angle_alpha	86.728885
_cell_angle_beta	90.042977
_cell_angle_gamma	93.337688
loop_
_atom_site_label
_atom_site_type_symbol
_atom_site_fract_x
_atom_site_fract_y
_atom_site_fract_z
Zn1	Zn	0.943511	-0.358806	0.368962
Zn2	Zn	1.276844	-0.025473	0.702295
Zn3	Zn	1.610177	0.307860	1.035628
Zn4	Zn	0.937384	-0.509674	0.270229
Zn5	Zn	1.270717	-0.176341	0.603562
Zn6	Zn	1.604051	0.156993	0.936895
Zn7	Zn	0.838725	-0.358873	0.264166
Zn8	Zn	1.172058	-0.025539	0.597499
Zn9	Zn	1.505391	0.307794	0.930832
Zn10	Zn	0.832664	-0.509669	0.374933
Zn11	Zn	1.165998	-0.176335	0.708267
Zn12	Zn	1.499331	0.156998	1.041600
O13	O	0.888071	-0.434255	0.319572
O14	O	1.221404	-0.100922	0.652906
O15	O	1.554738	0.232411	0.986239
O16	O	1.030377	-0.378794	0.355903
O17	O	1.363710	-0.045461	0.689236
O18	O	1.697044	0.287873	1.022569
O19	O	0.924269	-0.489700	0.181748
O20	O	1.257602	-0.156367	0.515081
O21	O	1.590936	0.176967	0.848414
O22	O	0.857725	-0.232617	0.273030
O23	O	1.191058	0.100717	0.606364
O24	O	1.524392	0.434050	0.939697
O25	O	1.025876	-0.489636	0.283364
O26	O	1.359209	-0.156302	0.616698
O27	O	1.692542	0.177031	0.950031
O28	O	0.934711	-0.232568	0.350023
O29	O	1.268044	0.100765	0.683357
O30	O	1.601378	0.434099	1.016690
O31	O	0.851784	-0.378907	0.177293
O32	O	1.185118	-0.045573	0.510626
O33	O	1.518451	0.287760	0.843960
O34	O	0.750242	-0.378901	0.278821
O35	O	1.083575	-0.045568	0.612154
O36	O	1.416908	0.287765	0.945487
O37	O	0.847396	-0.489626	0.461818
O38	O	1.180729	-0.156293	0.795151
O39	O	1.514062	0.177040	1.128485
O40	O	0.745789	-0.489690	0.360201
O41	O	1.079123	-0.156357	0.693535
O42	O	1.412456	0.176976	1.026868
O43	O	0.928834	-0.378789	0.457430
O44	O	1.262168	-0.045455	0.790764
O45	O	1.595501	0.287878	1.124097
O46	O	0.918392	-0.635921	0.289155
O47	O	1.251726	-0.302587	0.622488
O48	O	1.585059	0.030746	0.955821
O49	O	0.841455	-0.635917	0.366081
O50	O	1.174788	-0.302583	0.699414
O51	O	1.508122	0.030750	1.032747
C52	C	0.725281	-0.434303	0.319502
C53	C	1.058615	-0.100970	0.652835
C54	C	1.391948	0.232364	0.986168
C55	C	0.655638	-0.434345	0.319487
C56	C	0.988972	-0.101012	0.652820
C57	C	1.322305	0.232321	0.986154
C58	C	0.878618	-0.668653	0.328937
C59	C	1.211952	-0.335320	0.662271
C60	C	1.545285	-0.001986	0.995604
C61	C	0.874632	-0.768929	0.332965
C62	C	1.207965	-0.435596	0.666298
C63	C	1.541298	-0.102263	0.999631
C64	C	0.620620	-0.492110	0.361805
C65	C	0.953953	-0.158776	0.695138
C66	C	1.287287	0.174557	1.028472
C67	C	0.555186	-0.492088	0.361832
C68	C	0.888519	-0.158754	0.695165
C69	C	1.221852	0.174579	1.028499
C70	C	0.524771	-0.434311	0.319530
C71	C	0.858105	-0.100977	0.652864
C72	C	1.191438	0.232356	0.986197
C73	C	0.559798	-0.376535	0.277209
C74	C	0.893131	-0.043202	0.610542
C75	C	1.226465	0.290132	0.943876
C76	C	0.625231	-0.376552	0.277187
C77	C	0.958565	-0.043219	0.610521
C78	C	1.291898	0.290114	0.943854
C79	C	0.421338	-0.427056	0.262834
C80	C	0.754671	-0.093722	0.596168
C81	C	1.088004	0.239611	0.929501
C82	C	0.355905	-0.427045	0.262855
C83	C	0.689238	-0.093711	0.596188
C84	C	1.022572	0.239622	0.929522
C85	C	0.322953	-0.434252	0.319597
C86	C	0.656286	-0.100918	0.652930
C87	C	0.989620	0.232415	0.986264
C88	C	0.355441	-0.441489	0.376321
C89	C	0.688774	-0.108155	0.709654
C90	C	1.022108	0.225178	1.042987
C91	C	0.420874	-0.441506	0.376299
C92	C	0.754208	-0.108173	0.709632
C93	C	1.087541	0.225161	1.042966
C94	C	0.453820	-0.434285	0.319549
C95	C	0.787153	-0.100951	0.652883
C96	C	1.120487	0.232382	0.986216
C97	C	0.216983	-0.491995	0.361948
C98	C	0.550317	-0.158662	0.695281
C99	C	0.883650	0.174672	1.028614
C100	C	0.151548	-0.491967	0.361976
C101	C	0.484881	-0.158633	0.695309
C102	C	0.818214	0.174700	1.028642
C103	C	0.156161	-0.376419	0.277347
C104	C	0.489495	-0.043085	0.610681
C105	C	0.822828	0.290248	0.944014
C106	C	0.221596	-0.376443	0.277325
C107	C	0.554929	-0.043109	0.610658
C108	C	0.888262	0.290224	0.943992
C109	C	0.252002	-0.434235	0.319624
C110	C	0.585336	-0.100902	0.652958
C111	C	0.918669	0.232431	0.986291
C112	C	0.947338	-0.957302	0.260494
C113	C	1.280671	-0.623969	0.593828
C114	C	1.614005	-0.290636	0.927161
C115	C	0.943594	-1.051521	0.264276
C116	C	1.276928	-0.718187	0.597610
C117	C	1.610261	-0.384854	0.930943
C118	C	0.863405	-1.051586	0.344314
C119	C	1.196738	-0.718253	0.677647
C120	C	1.530071	-0.384920	1.010980
C121	C	0.867148	-0.957368	0.340532
C122	C	1.200482	-0.624035	0.673865
C123	C	1.533815	-0.290701	1.007198
C124	C	0.909116	-0.910229	0.298620
C125	C	1.242449	-0.576896	0.631953
C126	C	1.575782	-0.243562	0.965286
C127	C	0.912856	-0.816009	0.294835
C128	C	1.246189	-0.482676	0.628168
C129	C	1.579522	-0.149342	0.961502
C130	C	0.832670	-0.816076	0.374875
C131	C	1.166003	-0.482743	0.708208
C132	C	1.499336	-0.149410	1.041542
C133	C	0.828926	-0.910295	0.378657
C134	C	1.162259	-0.576962	0.711990
C135	C	1.495593	-0.243628	1.045324
C136	C	1.051496	-0.434208	0.319644
C137	C	1.384829	-0.100875	0.652977
C138	C	1.718163	0.232459	0.986310
C139	C	1.121138	-0.434188	0.319674
C140	C	1.454472	-0.100855	0.653008
C141	C	1.787805	0.232479	0.986341
C142	C	0.888122	-0.434199	0.482993
C143	C	1.221456	-0.100866	0.816327
C144	C	1.554789	0.232467	1.149660
C145	C	0.888144	-0.434176	0.552634
C146	C	1.221478	-0.100842	0.885967
C147	C	1.554811	0.232491	1.219300
C148	C	0.897577	-0.198942	0.310184
C149	C	1.230911	0.134391	0.643518
C150	C	1.564244	0.467724	0.976851
C151	C	0.901629	-0.098666	0.306184
C152	C	1.234962	0.234667	0.639517
C153	C	1.568295	0.568001	0.972851
C154	C	0.888058	-0.434246	0.156784
C155	C	1.221392	-0.100913	0.490118
C156	C	1.554725	0.232421	0.823451
C157	C	0.888168	-0.434016	0.087134
C158	C	1.221501	-0.100682	0.420468
C159	C	1.554835	0.232651	0.753801
C160	C	0.850413	-0.376479	0.583017
C161	C	1.183746	-0.043146	0.916351
C162	C	1.517079	0.290188	1.249684
C163	C	0.850411	-0.376462	0.648452
C164	C	1.183744	-0.043129	0.981785
C165	C	1.517078	0.290204	1.315119
C166	C	0.888153	-0.434133	0.683500
C167	C	1.221486	-0.100799	1.016834
C168	C	1.554820	0.232534	1.350167
C169	C	0.925887	-0.491840	0.653110
C170	C	1.259220	-0.158507	0.986443
C171	C	1.592554	0.174826	1.319776
C172	C	0.925883	-0.491862	0.587676
C173	C	1.259216	-0.158529	0.921010
C174	C	1.592549	0.174805	1.254343
C175	C	0.944322	-0.441203	0.787489
C176	C	1.277656	-0.107870	1.120822
C177	C	1.610989	0.225464	1.454156
C178	C	0.944328	-0.441175	0.852921
C179	C	1.277661	-0.107842	1.186254
C180	C	1.610995	0.225491	1.519588
C181	C	0.888166	-0.434072	0.885319
C182	C	1.221499	-0.100738	1.218652
C183	C	1.554832	0.232595	1.551986
C184	C	0.831997	-0.426977	0.852276
C185	C	1.165330	-0.093644	1.185609
C186	C	1.498664	0.239689	1.518943
C187	C	0.831993	-0.426999	0.786843
C188	C	1.165326	-0.093665	1.120176
C189	C	1.498659	0.239668	1.453509
C190	C	0.888162	-0.434116	0.754452
C191	C	1.221495	-0.100783	1.087786
C192	C	1.554828	0.232550	1.421119
C193	C	0.850429	-0.376354	0.986654
C194	C	1.183762	-0.043021	1.319987
C195	C	1.517096	0.290313	1.653321
C196	C	0.850426	-0.376344	1.052090
C197	C	1.183760	-0.043010	1.385424
C198	C	1.517093	0.290323	1.718757
C199	C	0.925908	-0.491717	1.056746
C200	C	1.259242	-0.158384	1.390080
C201	C	1.592575	0.174950	1.723413
C202	C	0.925905	-0.491732	0.991312
C203	C	1.259238	-0.158399	1.324645
C204	C	1.592572	0.174935	1.657978
C205	C	0.888167	-0.434046	0.956269
C206	C	1.221500	-0.100713	1.289602
C207	C	1.554833	0.232621	1.622936
H208	H	0.645373	-0.539168	0.396249
H209	H	0.978706	-0.205835	0.729583
H210	H	1.312040	0.127499	1.062916
H211	H	0.241742	-0.539049	0.396394
H212	H	0.575075	-0.205716	0.729727
H213	H	0.908409	0.127618	1.063060
O214	O	0.319908	-0.449239	0.437526
O215	O	0.653241	-0.115906	0.770859
O216	O	0.986574	0.217427	1.104192
H217	H	0.353490	-0.454272	0.476962
H218	H	0.686824	-0.120939	0.810296
H219	H	1.020157	0.212395	1.143629
H220	H	0.786265	-0.421187	0.878653
H221	H	1.119598	-0.087853	1.211986
H222	H	1.452931	0.245480	1.545319
O223	O	0.984828	-1.102282	0.223155
O224	O	1.318161	-0.768949	0.556488
O225	O	1.651494	-0.435615	0.889822
H226	H	1.014991	-1.145118	0.252964
H227	H	1.348324	-0.811785	0.586297
H228	H	1.681657	-0.478452	0.919631
O229	O	0.526995	-0.314218	0.231585
O230	O	0.860328	0.019116	0.564918
O231	O	1.193662	0.352449	0.898252
H232	H	0.562342	-0.274046	0.202157
H233	H	0.895675	0.059287	0.535490
H234	H	1.229008	0.392621	0.868824
H235	H	0.794759	-0.948688	0.412782
H236	H	1.128092	-0.615355	0.746115
H237	H	1.461426	-0.282022	1.079449
H238	H	0.123037	-0.539004	0.396440
H239	H	0.456370	-0.205670	0.729773
H240	H	0.789703	0.127663	1.063106
H241	H	0.819680	-0.329510	0.554490
H242	H	1.153014	0.003824	0.887823
H243	H	1.486347	0.337157	1.221156
O244	O	1.004909	-0.448822	0.888554
O245	O	1.338243	-0.115489	1.221887
O246	O	1.671576	0.217845	1.555221
H247	H	0.995480	-0.447600	0.939496
H248	H	1.328813	-0.114267	1.272829
H249	H	1.662146	0.219066	1.606162
H250	H	0.250108	-0.329409	0.242862
H251	H	0.583441	0.003924	0.576195
H252	H	0.916775	0.337258	0.909529
O253	O	0.809725	-0.314145	0.948850
O254	O	1.143059	0.019188	1.282184
O255	O	1.476392	0.352521	1.615517
H256	H	0.759925	-0.329635	0.961985
H257	H	1.093258	0.003698	1.295318
H258	H	1.426591	0.337032	1.628651
H259	H	0.801544	-0.777739	0.405918
H260	H	1.134878	-0.444406	0.739251
H261	H	1.468211	-0.111072	1.072584
O262	O	1.004901	-0.448858	0.752546
O263	O	1.338235	-0.115525	1.085880
O264	O	1.671568	0.217808	1.419213
H265	H	1.043960	-0.453771	0.786513
H266	H	1.377293	-0.120438	1.119847
H267	H	1.710626	0.212896	1.453180
H268	H	0.829241	-1.089983	0.378440
H269	H	1.162574	-0.756650	0.711773
H270	H	1.495908	-0.423317	1.045107
O271	O	0.966608	-0.553959	0.958539
O272	O	1.299942	-0.220626	1.291872
O273	O	1.633275	0.112708	1.625206
H274	H	0.960261	-0.544291	0.907152
H275	H	1.293595	-0.210957	1.240485
H276	H	1.626928	0.122376	1.573818
O277	O	0.966592	-0.554042	0.690914
O278	O	1.299925	-0.220708	1.024247
O279	O	1.633258	0.112625	1.357580
H280	H	0.952976	-0.624854	0.681178
H281	H	1.286309	-0.291521	1.014511
H282	H	1.619642	0.041812	1.347844
H283	H	0.956611	-0.538844	0.562939
H284	H	1.289945	-0.205511	0.896272
H285	H	1.623278	0.127822	1.229605
H286	H	0.819696	-0.329363	1.076827
H287	H	1.153029	0.003970	1.410161
H288	H	1.486363	0.337304	1.743494
O289	O	0.123368	-0.314107	0.231714
O290	O	0.456702	0.019227	0.565048
O291	O	0.790035	0.352560	0.898381
H292	H	0.071984	-0.323804	0.238834
H293	H	0.405317	0.009529	0.572167
H294	H	0.738651	0.342863	0.905501
H295	H	0.329458	-0.421157	0.216668
H296	H	0.662792	-0.087824	0.550001
H297	H	0.996125	0.245509	0.883334
O298	O	0.958122	-0.765160	0.249637
O299	O	1.291455	-0.431826	0.582970
O300	O	1.624788	-0.098493	0.916304
H301	H	0.984076	-0.813726	0.223767
H302	H	1.317410	-0.480393	0.557101
H303	H	1.650743	-0.147059	0.890434
H304	H	0.819687	-0.329474	0.673195
H305	H	1.153020	0.003859	1.006528
H306	H	1.486353	0.337192	1.339862
O307	O	0.771418	-0.419341	0.751200
O308	O	1.104751	-0.086007	1.084534
O309	O	1.438084	0.247326	1.417867
H310	H	0.732362	-0.414397	0.784716
H311	H	1.065696	-0.081063	1.118049
H312	H	1.399029	0.252270	1.451383
H313	H	0.447323	-0.447396	0.422485
H314	H	0.780657	-0.114063	0.755819
H315	H	1.113990	0.219271	1.089152
O316	O	0.992599	-0.906450	0.215293
O317	O	1.325932	-0.573116	0.548626
O318	O	1.659265	-0.239783	0.881959
H319	H	1.018551	-0.955013	0.189418
H320	H	1.351884	-0.621679	0.522751
H321	H	1.685217	-0.288346	0.856084
H322	H	0.448162	-0.421183	0.216625
H323	H	0.781495	-0.087850	0.549958
H324	H	1.114829	0.245484	0.883292
H325	H	0.653743	-0.329511	0.242727
H326	H	0.987077	0.003822	0.576060
H327	H	1.320410	0.337156	0.909393
O328	O	0.966619	-0.553920	1.094538
O329	O	1.299952	-0.220587	1.427871
O330	O	1.633285	0.112746	1.761204
H331	H	0.960286	-0.544210	1.145143
H332	H	1.293619	-0.210877	1.478476
H333	H	1.626953	0.122457	1.811810
H334	H	0.526668	-0.539126	0.396295
H335	H	0.860002	-0.205792	0.729628
H336	H	1.193335	0.127541	1.062961
