data_functionalizedCrystal
_audit_creation_method	'MofGen! by Chris Wilmer'
_symmetry_space_group_name_H-M	'P1'
_symmetry_Int_Tables_number	1
_symmetry_cell_setting	triclinic
loop_
_symmetry_equiv_pos_as_xyz
  x,y,z
_cell_length_a	12.811457
_cell_length_b	9.065218
_cell_length_c	11.892276
_cell_angle_alpha	85.688865
_cell_angle_beta	99.759449
_cell_angle_gamma	95.472633
loop_
_atom_site_label
_atom_site_type_symbol
_atom_site_fract_x
_atom_site_fract_y
_atom_site_fract_z
O1	O	1.397727	-0.203141	0.049290
O2	O	1.090319	-0.221917	0.017775
O3	O	1.250377	0.002135	0.034186
O4	O	1.237669	-0.427192	0.032879
O5	O	1.262572	-0.014888	0.223438
O6	O	1.102514	-0.238940	0.207027
O7	O	1.409922	-0.220164	0.238542
Zn8	Zn	1.258154	-0.232255	0.252832
Zn9	Zn	1.242087	-0.209826	0.003484
O10	O	1.249864	-0.444215	0.222131
C11	C	1.057041	-0.228855	0.108364
C12	C	0.939714	-0.224148	0.096336
C13	C	0.732541	-0.233835	0.280079
C14	C	0.622303	-0.229413	0.268783
C15	C	0.608997	-0.210869	0.062449
C16	C	0.719235	-0.215292	0.073745
C17	C	0.781004	-0.226777	0.182563
C18	C	0.891244	-0.231211	0.193858
C19	C	0.877937	-0.212657	-0.012475
C20	C	0.767698	-0.208234	-0.023771
C21	C	1.255253	0.048606	0.128685
C22	C	1.251601	0.212437	0.128305
C23	C	1.443200	-0.213226	0.147950
C24	C	1.560527	-0.217932	0.159971
C25	C	1.244988	-0.490686	0.127629
C26	C	1.248639	-0.654517	0.128002
N27	N	1.269128	-0.247561	0.423006
C28	C	1.154630	-0.087941	0.647968
C29	C	1.162325	-0.098649	0.767095
C30	C	1.292206	-0.279693	0.780390
C31	C	1.284511	-0.268984	0.661263
C32	C	1.215722	-0.173104	0.595056
C33	C	1.208034	-0.162388	0.475927
C34	C	1.337909	-0.343439	0.489223
C35	C	1.345604	-0.354147	0.608350
N36	N	1.231112	-0.194520	0.833310
H37	H	0.941534	-0.240571	0.282464
C38	C	1.367856	-0.385167	0.853223
H39	H	1.403134	-0.434368	0.804651
H40	H	1.418904	-0.329672	0.904622
H41	H	1.328190	-0.456559	0.895317
H42	H	1.387656	-0.412783	0.446130
H43	H	0.782833	-0.243207	0.368683
H44	H	0.917405	-0.206918	-0.091879
H45	H	0.582849	-0.235168	0.348190
H46	H	1.112575	-0.029303	0.810171
C47	C	1.421265	-0.459610	0.681178
H48	H	1.456543	-0.508803	0.632600
H49	H	1.472313	-0.404106	0.732571
H50	H	1.381611	-0.531010	0.723279
C51	C	1.132365	-0.056933	0.403100
H52	H	1.097075	-0.007760	0.451679
H53	H	1.172005	0.014462	0.360990
H54	H	1.081313	-0.112457	0.351715
C55	C	0.541041	-0.198228	-0.057238
H56	H	0.468447	-0.196610	-0.049994
H57	H	0.563609	-0.109279	-0.097039
H58	H	0.549130	-0.281023	-0.098516
H59	H	0.717392	-0.198876	-0.112368
C60	C	1.078971	0.017524	0.575138
H61	H	1.043685	0.066708	0.623713
H62	H	1.118618	0.088908	0.533028
H63	H	1.027915	-0.037994	0.523752
