data_functionalizedCrystal
_audit_creation_method	'MofGen! by Chris Wilmer'
_symmetry_space_group_name_H-M	'P1'
_symmetry_Int_Tables_number	1
_symmetry_cell_setting	triclinic
loop_
_symmetry_equiv_pos_as_xyz
  x,y,z
_cell_length_a	17.077402
_cell_length_b	17.077404
_cell_length_c	17.077396
_cell_angle_alpha	90.019200
_cell_angle_beta	89.971638
_cell_angle_gamma	89.977404
loop_
_atom_site_label
_atom_site_type_symbol
_atom_site_fract_x
_atom_site_fract_y
_atom_site_fract_z
Zn1	Zn	-0.312520	-1.200034	-0.443889
Zn2	Zn	-0.443797	-1.199945	-0.312625
Zn3	Zn	-0.312547	-1.068771	-0.312632
Zn4	Zn	-0.443746	-1.068732	-0.443844
O5	O	-0.378153	-1.134370	-0.378248
O6	O	-0.329945	-1.309869	-0.426492
O7	O	-0.426419	-1.182523	-0.202779
O8	O	-0.202697	-1.086237	-0.330066
O9	O	-0.426393	-1.309803	-0.330053
O10	O	-0.202677	-1.182675	-0.426499
O11	O	-0.329991	-1.086150	-0.202784
O12	O	-0.329941	-0.958919	-0.330022
O13	O	-0.426306	-1.086171	-0.553697
O14	O	-0.426332	-0.958890	-0.426423
O15	O	-0.329895	-1.182638	-0.553730
O16	O	-0.553637	-1.182486	-0.330010
O17	O	-0.553600	-1.086084	-0.426416
C18	C	-0.378135	-0.930423	-0.378219
C19	C	-0.378146	-0.843173	-0.378225
C20	C	-0.428411	-0.802188	-0.428339
C21	C	-0.428412	-0.720208	-0.428349
C22	C	-0.378149	-0.679213	-0.378240
C23	C	-0.327878	-0.720203	-0.328124
C24	C	-0.327874	-0.802182	-0.328119
C25	C	-0.327890	-0.549333	-0.328137
C26	C	-0.327894	-0.467349	-0.328141
C27	C	-0.428427	-0.467359	-0.428367
C28	C	-0.428424	-0.549338	-0.428362
C29	C	-0.378153	-0.590322	-0.378245
C30	C	-0.582101	-1.134292	-0.378224
C31	C	-0.669350	-1.134331	-0.378241
C32	C	-0.710263	-1.184519	-0.428494
C33	C	-0.792243	-1.184552	-0.428511
C34	C	-0.833310	-1.134400	-0.378269
C35	C	-0.792392	-1.084207	-0.328014
C36	C	-0.710413	-1.084170	-0.328002
C37	C	-0.963262	-1.084287	-0.328041
C38	C	-1.045246	-1.084324	-0.328052
C39	C	-1.045092	-1.184669	-0.428550
C40	C	-0.963113	-1.184633	-0.428538
C41	C	-0.922201	-1.134440	-0.378281
C42	C	-0.173408	-1.134470	-0.378288
C43	C	-0.086159	-1.134512	-0.378305
C44	C	-0.378092	-1.134410	-0.582992
C45	C	-0.378066	-1.134427	-0.670242
C46	C	-0.378167	-0.339115	-0.378268
C47	C	-0.378160	-0.426364	-0.378255
C48	C	-0.327850	-1.084261	-0.711234
C49	C	-0.327832	-1.084273	-0.793215
C50	C	-0.378027	-1.134457	-0.834201
C51	C	-0.428249	-1.184625	-0.793203
C52	C	-0.428270	-1.184608	-0.711224
C53	C	-0.428200	-1.184659	-0.964073
C54	C	-0.428178	-1.184678	-1.046058
C55	C	-0.327762	-1.084325	-1.046064
C56	C	-0.327783	-1.084307	-0.964085
C57	C	-0.378004	-1.134477	-0.923092
C58	C	-0.378157	-1.134376	-0.174300
C59	C	-0.377961	-1.134512	-0.087050
H60	H	-0.286950	-0.686819	-0.287328
H61	H	-0.469344	-0.686842	-0.469156
O62	O	-0.273632	-1.030192	-0.919878
H63	H	-0.287079	-0.968577	-0.935591
H64	H	-0.825835	-1.043369	-0.287110
O65	O	-0.482630	-0.593559	-0.482409
H66	H	-0.517581	-0.551289	-0.517266
O67	O	-0.918815	-1.238740	-0.482707
H68	H	-0.961034	-1.273650	-0.517655
O69	O	-0.482432	-1.238715	-0.667006
H70	H	-0.447312	-1.278656	-0.629663
H71	H	-0.286869	-1.043476	-1.079444
H72	H	-0.825550	-1.225426	-0.469426
O73	O	-0.273678	-0.593543	-0.274076
H74	H	-0.238736	-0.551266	-0.239224
O75	O	-0.273674	-1.030163	-0.837432
H76	H	-0.233739	-1.065323	-0.874805
O77	O	-0.273669	-0.846393	-0.274059
H78	H	-0.238726	-0.804116	-0.239208
H79	H	-0.286970	-1.043400	-0.677869
H80	H	-0.469051	-1.225541	-1.079427
H81	H	-0.469357	-0.433985	-0.469177
H82	H	-0.469344	-0.835560	-0.469141
H83	H	-0.469123	-1.225481	-0.826581
O84	O	-0.482366	-1.238769	-0.919857
H85	H	-0.447242	-1.278709	-0.882517
O86	O	-0.273677	-0.423128	-0.274106
H87	H	-0.238709	-0.465398	-0.239265
H88	H	-0.676832	-1.225362	-0.469403
O89	O	-1.089212	-1.238802	-0.482765
H90	H	-1.153116	-1.230396	-0.474343
H91	H	-1.078681	-1.043483	-0.287144
O92	O	-0.666287	-1.030041	-0.273792
H93	H	-0.628954	-0.990060	-0.308881
H94	H	-0.929954	-1.043412	-0.287119
