data_functionalizedCrystal
_audit_creation_method	'MofGen! by Chris Wilmer'
_symmetry_space_group_name_H-M	'P1'
_symmetry_Int_Tables_number	1
_symmetry_cell_setting	triclinic
loop_
_symmetry_equiv_pos_as_xyz
  x,y,z
_cell_length_a	16.109318
_cell_length_b	16.109304
_cell_length_c	14.586319
_cell_angle_alpha	89.999019
_cell_angle_beta	90.000075
_cell_angle_gamma	83.465600
loop_
_atom_site_label
_atom_site_type_symbol
_atom_site_fract_x
_atom_site_fract_y
_atom_site_fract_z
O1	O	1.103123	0.106935	-0.076158
O2	O	1.353123	0.356935	0.173842
O3	O	1.603123	0.606935	0.423842
O4	O	1.853123	0.856935	0.673842
O5	O	0.861063	0.120219	-0.076176
O6	O	1.111063	0.370219	0.173824
O7	O	1.361063	0.620219	0.423824
O8	O	1.611063	0.870219	0.673824
O9	O	0.988741	-0.007454	-0.076167
O10	O	1.238741	0.242546	0.173833
O11	O	1.488741	0.492546	0.423833
O12	O	1.738741	0.742546	0.673833
O13	O	0.975445	0.234607	-0.076167
O14	O	1.225445	0.484607	0.173833
O15	O	1.475445	0.734607	0.423833
O16	O	1.725445	0.984607	0.673833
O17	O	0.988732	-0.007456	0.076314
O18	O	1.238732	0.242544	0.326314
O19	O	1.488732	0.492544	0.576314
O20	O	1.738732	0.742544	0.826314
O21	O	0.861054	0.120217	0.076305
O22	O	1.111054	0.370217	0.326305
O23	O	1.361054	0.620217	0.576305
O24	O	1.611054	0.870217	0.826305
O25	O	1.103114	0.106933	0.076323
O26	O	1.353114	0.356933	0.326323
O27	O	1.603114	0.606933	0.576323
O28	O	1.853114	0.856933	0.826323
Cu29	Cu	0.982083	0.113575	0.090236
Cu30	Cu	1.232083	0.363575	0.340236
Cu31	Cu	1.482083	0.613575	0.590236
Cu32	Cu	1.732083	0.863575	0.840236
Cu33	Cu	0.982094	0.113577	-0.090090
Cu34	Cu	1.232094	0.363577	0.159910
Cu35	Cu	1.482094	0.613577	0.409910
Cu36	Cu	1.732094	0.863577	0.659910
O37	O	0.975436	0.234605	0.076314
O38	O	1.225436	0.484605	0.326314
O39	O	1.475436	0.734605	0.576314
O40	O	1.725436	0.984605	0.826314
C41	C	0.830084	0.119677	0.000062
C42	C	1.080084	0.369677	0.250062
C43	C	1.330084	0.619677	0.500062
C44	C	1.580084	0.869677	0.750062
C45	C	0.737789	0.118056	0.000055
C46	C	0.987789	0.368056	0.250055
C47	C	1.237789	0.618056	0.500055
C48	C	1.487789	0.868056	0.750055
C49	C	0.438720	0.112822	-0.083046
C50	C	0.688720	0.362822	0.166954
C51	C	0.938720	0.612822	0.416954
C52	C	1.188720	0.862822	0.666954
C53	C	0.525442	0.114340	-0.083052
C54	C	0.775442	0.364340	0.166948
C55	C	1.025442	0.614340	0.416948
C56	C	1.275442	0.864340	0.666948
C57	C	0.525451	0.114326	0.083191
C58	C	0.775451	0.364326	0.333191
C59	C	1.025451	0.614326	0.583191
C60	C	1.275451	0.864326	0.833191
C61	C	0.438732	0.112803	0.083196
C62	C	0.688732	0.362803	0.333196
C63	C	0.938732	0.612803	0.583196
C64	C	1.188732	0.862803	0.833196
C65	C	0.395368	0.112055	0.000074
C66	C	0.645368	0.362055	0.250074
C67	C	0.895368	0.612055	0.500074
C68	C	1.145368	0.862055	0.750074
C69	C	0.568809	0.115096	0.000064
C70	C	0.818809	0.365096	0.250064
C71	C	1.068809	0.615096	0.500064
C72	C	1.318809	0.865096	0.750064
C73	C	0.662836	0.116741	0.000059
C74	C	0.912836	0.366741	0.250059
C75	C	1.162836	0.616741	0.500059
C76	C	1.412836	0.866741	0.750059
C77	C	0.301336	0.110408	0.000079
C78	C	0.551336	0.360408	0.250079
C79	C	0.801336	0.610408	0.500079
C80	C	1.051336	0.860408	0.750079
C81	C	0.988198	-0.038430	0.000071
C82	C	1.238198	0.211570	0.250071
C83	C	1.488198	0.461570	0.500071
C84	C	1.738198	0.711570	0.750071
C85	C	0.986582	-0.130725	0.000065
C86	C	1.236582	0.119275	0.250065
C87	C	1.486582	0.369275	0.500065
C88	C	1.736582	0.619275	0.750065
C89	C	0.982853	-0.343061	-0.083049
C90	C	1.232853	-0.093061	0.166951
C91	C	1.482853	0.156939	0.416951
C92	C	1.732853	0.406939	0.666951
C93	C	0.981327	-0.429782	-0.083049
C94	C	1.231327	-0.179782	0.166951
C95	C	1.481327	0.070218	0.416951
C96	C	1.731327	0.320218	0.666951
C97	C	0.981322	-0.429781	0.083194
C98	C	1.231322	-0.179781	0.333194
C99	C	1.481322	0.070219	0.583194
C100	C	1.731322	0.320219	0.833194
C101	C	0.982842	-0.343061	0.083193
C102	C	1.232842	-0.093061	0.333193
C103	C	1.482842	0.156939	0.583193
C104	C	1.732842	0.406939	0.833193
C105	C	0.983612	-0.299704	0.000068
C106	C	1.233612	-0.049704	0.250068
C107	C	1.483612	0.200296	0.500068
C108	C	1.733612	0.450296	0.750068
C109	C	0.980565	-0.473144	0.000070
C110	C	1.230565	-0.223144	0.250070
C111	C	1.480565	0.026856	0.500070
C112	C	1.730565	0.276856	0.750070
C113	C	0.978911	-0.567170	0.000072
C114	C	1.228911	-0.317170	0.250072
C115	C	1.478911	-0.067170	0.500072
C116	C	1.728911	0.182830	0.750072
C117	C	0.985265	-0.205672	0.000066
C118	C	1.235265	0.044328	0.250066
C119	C	1.485265	0.294328	0.500066
C120	C	1.735265	0.544328	0.750066
C121	C	1.134093	0.107474	0.000082
C122	C	1.384093	0.357474	0.250082
C123	C	1.634093	0.607474	0.500082
C124	C	1.884093	0.857474	0.750082
C125	C	1.226388	0.109095	0.000084
C126	C	1.476388	0.359095	0.250084
C127	C	1.726388	0.609095	0.500084
C128	C	1.976388	0.859095	0.750084
C129	C	0.975979	0.265581	0.000073
C130	C	1.225979	0.515581	0.250073
C131	C	1.475979	0.765581	0.500073
C132	C	1.725979	1.015581	0.750073
C133	C	0.977595	0.357876	0.000074
C134	C	1.227595	0.607876	0.250074
C135	C	1.477595	0.857876	0.500074
C136	C	1.727595	1.107876	0.750074
N137	N	0.982082	0.113573	0.217068
N138	N	1.232082	0.363573	0.467068
N139	N	1.482082	0.613573	0.717068
N140	N	1.732082	0.863573	0.967068
N141	N	0.982102	0.113572	-0.216922
N142	N	1.232102	0.363572	0.033078
N143	N	1.482102	0.613572	0.283078
N144	N	1.732102	0.863572	0.533078
C145	C	1.038637	0.057058	0.452078
C146	C	1.288637	0.307058	0.702078
C147	C	1.538637	0.557058	0.952078
C148	C	1.788637	0.807058	1.202078
C149	C	1.038639	0.057056	0.548060
C150	C	1.288639	0.307056	0.798060
C151	C	1.538639	0.557056	1.048060
C152	C	1.788639	0.807056	1.298060
C153	C	0.925541	0.170090	0.548061
C154	C	1.175541	0.420090	0.798061
C155	C	1.425541	0.670090	1.048061
C156	C	1.675541	0.920090	1.298061
C157	C	0.925535	0.170087	0.452082
C158	C	1.175535	0.420087	0.702082
C159	C	1.425535	0.670087	0.952082
C160	C	1.675535	0.920087	1.202082
C161	C	0.982088	0.113572	0.404093
C162	C	1.232088	0.363572	0.654093
C163	C	1.482088	0.613572	0.904093
C164	C	1.732088	0.863572	1.154093
C165	C	0.982096	0.113573	0.596054
C166	C	1.232096	0.363573	0.846054
C167	C	1.482096	0.613573	1.096054
C168	C	1.732096	0.863573	1.346054
C169	C	0.982098	0.113571	0.700121
C170	C	1.232098	0.363571	0.950121
C171	C	1.482098	0.613571	1.200121
C172	C	1.732098	0.863571	1.450121
C173	C	0.982085	0.113573	0.300019
C174	C	1.232085	0.363573	0.550019
C175	C	1.482085	0.613573	0.800019
C176	C	1.732085	0.863573	1.050019
H177	H	0.560735	0.114963	-0.150737
H178	H	0.810735	0.364963	0.099263
H179	H	1.060735	0.614963	0.349263
H180	H	1.310735	0.864963	0.599263
H181	H	0.983455	-0.307758	0.150881
H182	H	1.233455	-0.057758	0.400881
H183	H	1.483455	0.192242	0.650881
H184	H	1.733455	0.442242	0.900881
F185	F	0.983669	-0.296920	-0.171518
F186	F	1.233669	-0.046920	0.078482
F187	F	1.483669	0.203080	0.328482
F188	F	1.733669	0.453080	0.578482
F189	F	1.098823	-0.003092	0.401009
F190	F	1.348823	0.246908	0.651009
F191	F	1.598823	0.496908	0.901009
F192	F	1.848823	0.746908	1.151009
F193	F	0.392573	0.112024	-0.171511
F194	F	0.642573	0.362024	0.078489
F195	F	0.892573	0.612024	0.328489
F196	F	1.142573	0.862024	0.578489
F197	F	1.098824	-0.003095	0.599126
F198	F	1.348824	0.246905	0.849126
F199	F	1.598824	0.496905	1.099126
F200	F	1.848824	0.746905	1.349126
H201	H	0.560768	0.114937	0.150866
H202	H	0.810768	0.364937	0.400866
H203	H	1.060768	0.614937	0.650866
H204	H	1.310768	0.864937	0.900866
H205	H	0.403434	0.112178	0.150887
H206	H	0.653434	0.362178	0.400887
H207	H	0.903434	0.612178	0.650887
H208	H	1.153434	0.862178	0.900887
F209	F	0.980518	-0.475921	-0.171514
F210	F	1.230518	-0.225921	0.078486
F211	F	1.480518	0.024079	0.328486
F212	F	1.730518	0.274079	0.578486
F213	F	0.980502	-0.475931	0.171656
F214	F	1.230502	-0.225931	0.421656
F215	F	1.480502	0.024069	0.671656
F216	F	1.730502	0.274069	0.921656
F217	F	0.865359	0.230236	0.599141
F218	F	1.115359	0.480236	0.849141
F219	F	1.365359	0.730236	1.099141
F220	F	1.615359	0.980236	1.349141
H221	H	0.879482	0.216108	0.413009
H222	H	1.129482	0.466108	0.663009
H223	H	1.379482	0.716108	0.913009
H224	H	1.629482	0.966108	1.163009
