data_functionalizedCrystal
_audit_creation_method	'MofGen! by Chris Wilmer'
_symmetry_space_group_name_H-M	'P1'
_symmetry_Int_Tables_number	1
_symmetry_cell_setting	triclinic
loop_
_symmetry_equiv_pos_as_xyz
  x,y,z
_cell_length_a	13.033293
_cell_length_b	12.645330
_cell_length_c	13.032268
_cell_angle_alpha	97.149830
_cell_angle_beta	89.079182
_cell_angle_gamma	97.182513
loop_
_atom_site_label
_atom_site_type_symbol
_atom_site_fract_x
_atom_site_fract_y
_atom_site_fract_z
Zn1	Zn	1.498489	-0.329810	-0.781490
Zn2	Zn	1.998489	0.170190	-0.281490
Zn3	Zn	1.520245	-0.482152	-0.609521
Zn4	Zn	2.020245	0.017848	-0.109521
Zn5	Zn	1.348349	-0.324212	-0.587666
Zn6	Zn	1.848349	0.175788	-0.087666
Zn7	Zn	1.326499	-0.526344	-0.759562
Zn8	Zn	1.826499	-0.026344	-0.259562
O9	O	1.423396	-0.415630	-0.684560
O10	O	1.923396	0.084370	-0.184560
O11	O	1.645293	-0.333867	-0.777002
O12	O	2.145293	0.166133	-0.277002
O13	O	1.515691	-0.440364	-0.462713
O14	O	2.015691	0.059636	0.037287
O15	O	1.368305	-0.176606	-0.613408
O16	O	1.868305	0.323394	-0.113408
O17	O	1.661276	-0.445792	-0.650657
O18	O	2.161276	0.054208	-0.150657
O19	O	1.478613	-0.180719	-0.755810
O20	O	1.978613	0.319281	-0.255810
O21	O	1.389401	-0.324326	-0.446656
O22	O	1.889401	0.175674	0.053344
O23	O	1.201533	-0.367177	-0.592145
O24	O	1.701533	0.132823	-0.092145
O25	O	1.331065	-0.521111	-0.906380
O26	O	1.831065	-0.021111	-0.406380
O27	O	1.185480	-0.515682	-0.718436
O28	O	1.685480	-0.015682	-0.218436
O29	O	1.457426	-0.376718	-0.922490
O30	O	1.957426	0.123282	-0.422490
O31	O	1.494504	-0.636363	-0.629394
O32	O	1.994504	-0.136363	-0.129394
O33	O	1.352160	-0.668830	-0.739628
O34	O	1.852160	-0.168830	-0.239628
C35	C	1.156191	-0.445619	-0.650540
C36	C	1.656191	0.054381	-0.150540
C37	C	1.041876	-0.458477	-0.636011
C38	C	1.541876	0.041523	-0.136011
C39	C	0.982990	-0.408945	-0.692143
C40	C	1.482990	0.091055	-0.192143
C41	C	0.864840	-0.422234	-0.677127
C42	C	1.364840	0.077766	-0.177127
C43	C	1.423347	-0.691062	-0.684529
C44	C	1.923347	-0.191062	-0.184529
C45	C	1.423416	-0.808887	-0.684562
C46	C	1.923416	-0.308887	-0.184562
C47	C	1.512858	-0.955973	-0.615036
C48	C	2.012858	-0.455973	-0.115036
C49	C	1.513091	-0.833411	-0.615264
C50	C	2.013091	-0.333411	-0.115264
C51	C	1.439035	-0.865700	-0.796699
C52	C	1.939035	-0.365700	-0.296699
C53	C	1.439718	-0.988166	-0.796357
C54	C	1.939718	-0.488166	-0.296357
C55	C	1.318189	-0.984407	-0.643016
C56	C	1.818189	-0.484407	-0.143016
C57	C	1.319019	-0.861391	-0.640651
C58	C	1.819019	-0.361391	-0.140651
C59	C	1.691644	-0.385525	-0.718713
C60	C	2.191644	0.114475	-0.218713
C61	C	1.805956	-0.372696	-0.733267
C62	C	2.305956	0.127304	-0.233267
C63	C	1.389381	-0.454468	-0.952792
C64	C	1.889381	0.045532	-0.452792
C65	C	1.374886	-0.471019	-1.067097
C66	C	1.874886	0.028981	-0.567097
C67	C	1.423469	-0.139122	-0.684617
C68	C	1.923469	0.360878	-0.184617
C69	C	1.423501	-0.021291	-0.684641
C70	C	1.923501	0.478709	-0.184641
C71	C	1.430945	-0.406955	-1.126029
C72	C	1.930945	0.093045	-0.626029
C73	C	1.415965	-0.424060	-1.244169
C74	C	1.915965	0.075940	-0.744169
C75	C	1.457337	-0.376859	-0.417378
C76	C	1.957337	0.123141	0.082622
C77	C	1.472031	-0.359987	-0.303099
C78	C	1.972031	0.140013	0.196901
H79	H	1.504915	-0.793809	-0.532549
H80	H	2.004915	-0.293809	-0.032549
H81	H	1.020046	-0.356697	-0.751312
H82	H	1.520046	0.143303	-0.251312
C83	C	0.745731	-0.576218	-0.647340
C84	C	1.245731	-0.076218	-0.147340
C85	C	0.814834	-0.492772	-0.597240
C86	C	1.314834	0.007228	-0.097240
H87	H	0.714865	-0.619767	-0.598022
H88	H	1.214865	-0.119767	-0.098022
H89	H	0.693482	-0.546860	-0.680599
H90	H	1.193482	-0.046860	-0.180599
H91	H	0.781987	-0.618629	-0.697367
H92	H	1.281987	-0.118629	-0.197367
H93	H	0.778577	-0.450355	-0.547219
H94	H	1.278577	0.049645	-0.047219
H95	H	0.867090	-0.522131	-0.563965
H96	H	1.367090	-0.022131	-0.063965
C97	C	0.963325	-0.302654	-0.812578
C98	C	1.463325	0.197346	-0.312578
C99	C	0.855961	-0.302166	-0.813161
C100	C	1.355961	0.197834	-0.313161
H101	H	0.994193	-0.259118	-0.861905
H102	H	1.494193	0.240882	-0.361905
H103	H	0.989619	-0.275064	-0.745730
H104	H	1.489619	0.224936	-0.245730
H105	H	0.978974	-0.374112	-0.829720
H106	H	1.478974	0.125888	-0.329720
H107	H	0.840311	-0.230708	-0.796010
H108	H	1.340311	0.269292	-0.296010
H109	H	0.829658	-0.329751	-0.880024
H110	H	1.329658	0.170249	-0.380024
C111	C	1.202204	-1.083522	-0.534235
C112	C	1.702204	-0.583522	-0.034235
C113	C	1.295427	-1.015092	-0.533574
C114	C	1.795427	-0.515092	-0.033574
H115	H	1.188166	-1.102468	-0.466669
H116	H	1.688166	-0.602468	0.033331
H117	H	1.147715	-1.047910	-0.555595
H118	H	1.647715	-0.547910	-0.055595
H119	H	1.207517	-1.146605	-0.580879
H120	H	1.707517	-0.646605	-0.080879
H121	H	1.290112	-0.952005	-0.486936
H122	H	1.790112	-0.452005	0.013064
H123	H	1.349930	-1.050703	-0.512200
H124	H	1.849930	-0.550703	-0.012200
H125	H	1.490025	-0.339442	-1.089020
H126	H	1.990025	0.160558	-0.589020
C127	C	0.922762	-0.612457	-0.606228
C128	C	1.422762	-0.112457	-0.106228
C129	C	0.991866	-0.529011	-0.556128
C130	C	1.491866	-0.029011	-0.056128
H131	H	0.891897	-0.656006	-0.556909
H132	H	1.391897	-0.156006	-0.056909
H133	H	0.870514	-0.583100	-0.639486
H134	H	1.370514	-0.083100	-0.139486
H135	H	0.959018	-0.654869	-0.656254
H136	H	1.459018	-0.154869	-0.156254
H137	H	0.955608	-0.486595	-0.506106
H138	H	1.455608	0.013405	-0.006106
H139	H	1.044122	-0.558370	-0.522852
H140	H	1.544122	-0.058370	-0.022852
H141	H	1.531113	-0.292467	-1.266096
H142	H	2.031113	0.207533	-0.766096
C143	C	1.336806	-0.514517	-1.401481
C144	C	1.836806	-0.014517	-0.901481
C145	C	1.336203	-0.515211	-1.294115
C146	C	1.836203	-0.015211	-0.794115
H147	H	1.287571	-0.570794	-1.432315
H148	H	1.787571	-0.070794	-0.932315
H149	H	1.319556	-0.447512	-1.417128
H150	H	1.819556	0.052488	-0.917128
H151	H	1.403700	-0.524792	-1.427817
H152	H	1.903700	-0.024792	-0.927817
H153	H	1.269311	-0.504927	-1.267778
H154	H	1.769311	-0.004927	-0.767778
H155	H	1.353447	-0.582232	-1.278461
H156	H	1.853447	-0.082232	-0.778461
C157	C	1.506925	-1.092693	-0.501941
C158	C	2.006925	-0.592693	-0.001941
C159	C	1.502177	-0.982834	-0.503096
C160	C	2.002177	-0.482834	-0.003096
H161	H	1.500331	-1.109276	-0.432830
H162	H	2.000331	-0.609276	0.067170
H163	H	1.452284	-1.132916	-0.542684
H164	H	1.952284	-0.632916	-0.042684
H165	H	1.571392	-1.110386	-0.529510
H166	H	2.071392	-0.610386	-0.029510
H167	H	1.437707	-0.965142	-0.475533
H168	H	1.937707	-0.465142	0.024467
H169	H	1.556822	-0.942598	-0.462337
H170	H	2.056822	-0.442598	0.037663
H171	H	1.590732	-0.980333	-0.643405
H172	H	2.090732	-0.480333	-0.143405
C173	C	1.682102	-0.866546	-0.676982
C174	C	2.182102	-0.366546	-0.176982
C175	C	1.618760	-0.785081	-0.653928
C176	C	2.118760	-0.285081	-0.153928
H177	H	1.747336	-0.836708	-0.700863
H178	H	2.247336	-0.336708	-0.200863
H179	H	1.691536	-0.899137	-0.616534
H180	H	2.191536	-0.399137	-0.116534
H181	H	1.650396	-0.919033	-0.729199
H182	H	2.150396	-0.419033	-0.229199
H183	H	1.650462	-0.732597	-0.601705
H184	H	2.150462	-0.232597	-0.101705
H185	H	1.609328	-0.752473	-0.714384
H186	H	2.109328	-0.252473	-0.214384
H187	H	1.306993	-0.823307	-0.558060
H188	H	1.806993	-0.323307	-0.058060
C189	C	1.603815	-0.927535	-0.869034
C190	C	2.103815	-0.427535	-0.369034
C191	C	1.543085	-1.019210	-0.841772
C192	C	2.043085	-0.519210	-0.341772
H193	H	1.667634	-0.946698	-0.897064
H194	H	2.167634	-0.446698	-0.397064
H195	H	1.568318	-0.897333	-0.919133
H196	H	2.068318	-0.397333	-0.419133
H197	H	1.616695	-0.876407	-0.809385
H198	H	2.116695	-0.376407	-0.309385
H199	H	1.530199	-1.070335	-0.901422
H200	H	2.030199	-0.570335	-0.401422
H201	H	1.578590	-1.049428	-0.791669
H202	H	2.078590	-0.549428	-0.291669
H203	H	1.315796	-0.538523	-1.104105
H204	H	1.815796	-0.038523	-0.604105
H205	H	1.376733	-1.032945	-0.850753
H206	H	1.876733	-0.532945	-0.350753
C207	C	1.256877	-0.888291	-0.832180
C208	C	1.756877	-0.388291	-0.332180
C209	C	1.353040	-0.846779	-0.869379
C210	C	1.853040	-0.346779	-0.369379
H211	H	1.203785	-0.876601	-0.877041
H212	H	1.703785	-0.376601	-0.377041
H213	H	1.255655	-0.963152	-0.829472
H214	H	1.755655	-0.463152	-0.329472
H215	H	1.245971	-0.853257	-0.764802
H216	H	1.745971	-0.353257	-0.264802
H217	H	1.363949	-0.881818	-0.936754
H218	H	1.863949	-0.381818	-0.436754
H219	H	1.354264	-0.771903	-0.872098
H220	H	1.854264	-0.271903	-0.372098
H221	H	1.514655	-0.829549	-0.830629
H222	H	2.014655	-0.329549	-0.330629
H223	H	1.249967	-0.845571	-0.686518
H224	H	1.749967	-0.345571	-0.186518
H225	H	1.251780	-1.028469	-0.693543
H226	H	1.751780	-0.528469	-0.193543
