data_functionalizedCrystal
_audit_creation_method	'MofGen! by Chris Wilmer'
_symmetry_space_group_name_H-M	'P1'
_symmetry_Int_Tables_number	1
_symmetry_cell_setting	triclinic
loop_
_symmetry_equiv_pos_as_xyz
  x,y,z
_cell_length_a	10.908878
_cell_length_b	10.967819
_cell_length_c	10.065875
_cell_angle_alpha	110.771277
_cell_angle_beta	83.393046
_cell_angle_gamma	72.685094
loop_
_atom_site_label
_atom_site_type_symbol
_atom_site_fract_x
_atom_site_fract_y
_atom_site_fract_z
O1	O	0.094571	1.719410	0.517886
O2	O	0.126656	1.334901	0.427454
O3	O	-0.077861	1.578126	0.484652
O4	O	0.299088	1.476185	0.460687
O5	O	-0.038711	1.531714	0.246749
O6	O	0.165806	1.288489	0.189551
O7	O	0.133722	1.672998	0.279982
Zn8	Zn	0.155980	1.473374	0.196994
Zn9	Zn	0.104397	1.534525	0.510442
O10	O	0.338239	1.429773	0.222784
C11	C	0.146853	1.263243	0.297107
C12	C	0.148692	1.118873	0.263153
C13	C	0.131141	0.929346	0.336190
C14	C	0.129232	1.078561	0.371275
C15	C	-0.106416	1.564447	0.367943
C16	C	-0.249829	1.592820	0.374621
C17	C	-0.295703	1.489297	0.350276
C18	C	-0.443927	1.518619	0.357177
C19	C	0.366793	1.443452	0.339496
C20	C	0.510204	1.415081	0.332828
C21	C	0.113523	1.744657	0.410333
C22	C	0.111683	1.889028	0.444296
N23	N	0.191182	1.431650	-0.016923
C24	C	0.116638	1.520001	-0.063925
C25	C	0.143740	1.487897	-0.228642
N26	N	0.069184	1.576261	0.724363
H27	H	0.149219	0.853394	0.217661
O28	O	-0.333686	1.724527	0.405540
C29	C	-0.262260	1.815098	0.426877
H30	H	-0.153200	1.751593	0.368964
H31	H	-0.303223	1.894796	0.379724
H32	H	-0.272601	1.872142	0.549191
H33	H	0.111167	1.154506	0.489810
H34	H	0.227627	1.388479	-0.310343
O35	O	-0.405763	1.283363	0.301607
C36	C	-0.406784	1.191400	0.162440
H37	H	-0.440862	1.253423	0.094860
H38	H	-0.302692	1.110454	0.103939
H39	H	-0.477619	1.135960	0.175985
O40	O	-0.527878	1.650238	0.387894
C41	C	-0.486326	1.694139	0.280679
H42	H	-0.423911	1.598518	0.176020
H43	H	-0.576811	1.758949	0.256466
H44	H	-0.424657	1.760450	0.322854
H45	H	-0.225242	1.378957	0.324317
H46	H	0.032747	1.619406	0.017776
O47	O	0.291109	1.313007	-0.114547
C48	C	0.238703	1.230332	-0.216637
H49	H	0.139553	1.299572	-0.221608
H50	H	0.310545	1.177757	-0.329546
H51	H	0.223634	1.146815	-0.181313
O52	O	0.170010	1.028318	0.121777
C53	C	0.059961	0.987235	0.104836
H54	H	-0.031165	1.069737	0.194408
H55	H	0.041145	0.976254	-0.007179
H56	H	0.080915	0.882494	0.113577
O57	O	-0.031178	1.694627	-0.178228
C58	C	-0.122744	1.658158	-0.104395
H59	H	-0.071424	1.549392	-0.108592
H60	H	-0.162567	1.737526	0.014766
H61	H	-0.208282	1.658068	-0.159653
H62	H	0.093619	0.964976	0.562824
