data_functionalizedCrystal
_audit_creation_method	'MofGen! by Chris Wilmer'
_symmetry_space_group_name_H-M	'P1'
_symmetry_Int_Tables_number	1
_symmetry_cell_setting	triclinic
loop_
_symmetry_equiv_pos_as_xyz
  x,y,z
_cell_length_a	19.805407
_cell_length_b	12.645330
_cell_length_c	19.805407
_cell_angle_alpha	90.008886
_cell_angle_beta	90.007417
_cell_angle_gamma	90.017692
loop_
_atom_site_label
_atom_site_type_symbol
_atom_site_fract_x
_atom_site_fract_y
_atom_site_fract_z
Zn1	Zn	1.034695	-0.422198	0.382747
Zn2	Zn	1.534695	0.077802	0.882747
Zn3	Zn	1.034652	-0.599437	0.269570
Zn4	Zn	1.534652	-0.099437	0.769570
Zn5	Zn	0.921534	-0.422188	0.269572
Zn6	Zn	1.421534	0.077812	0.769572
Zn7	Zn	0.921491	-0.599420	0.382717
Zn8	Zn	1.421491	-0.099420	0.882717
O9	O	0.978093	-0.510811	0.326152
O10	O	1.478093	-0.010811	0.826152
O11	O	1.129406	-0.445721	0.367746
O12	O	1.629406	0.054279	0.867746
O13	O	1.019646	-0.575927	0.174854
O14	O	1.519646	-0.075927	0.674854
O15	O	0.936582	-0.273842	0.284598
O16	O	1.436582	0.226158	0.784598
O17	O	1.129374	-0.575937	0.284596
O18	O	1.629374	-0.075937	0.784596
O19	O	1.019721	-0.273850	0.367747
O20	O	1.519721	0.226150	0.867747
O21	O	0.936539	-0.445703	0.174855
O22	O	1.436539	0.054297	0.674855
O23	O	0.826812	-0.445687	0.284569
O24	O	1.326812	0.054313	0.784569
O25	O	0.936508	-0.575909	0.477438
O26	O	1.436508	-0.075909	0.977438
O27	O	0.826780	-0.575898	0.367696
O28	O	1.326780	-0.075898	0.867696
O29	O	1.019679	-0.445705	0.477460
O30	O	1.519679	0.054295	0.977460
O31	O	1.019604	-0.747782	0.284567
O32	O	1.519604	-0.247782	0.784567
O33	O	0.936465	-0.747770	0.367695
O34	O	1.436465	-0.247770	0.867695
C35	C	0.802237	-0.510790	0.326130
C36	C	1.302237	-0.010790	0.826130
C37	C	0.727005	-0.510807	0.326136
C38	C	1.227005	-0.010807	0.826136
C39	C	0.691662	-0.578711	0.369351
C40	C	1.191662	-0.078711	0.869351
C41	C	0.620974	-0.578712	0.369360
C42	C	1.120974	-0.078712	0.869360
C43	C	0.585629	-0.510816	0.326152
C44	C	1.085629	-0.010816	0.826152
C45	C	0.620977	-0.442905	0.282935
C46	C	1.120977	0.057095	0.782935
C47	C	0.691664	-0.442898	0.282930
C48	C	1.191664	0.057102	0.782930
C49	C	0.335904	-0.442928	0.282958
C50	C	0.835904	0.057072	0.782958
C51	C	0.265212	-0.442942	0.282965
C52	C	0.765212	0.057058	0.782965
C53	C	0.265213	-0.578742	0.369388
C54	C	0.765213	-0.078742	0.869388
C55	C	0.335900	-0.578736	0.369383
C56	C	0.835900	-0.078736	0.869383
C57	C	0.371242	-0.510822	0.326169
C58	C	0.871242	-0.010822	0.826169
C59	C	0.447890	-0.510819	0.326160
C60	C	0.947890	-0.010819	0.826160
C61	C	0.508982	-0.510823	0.326157
C62	C	1.008982	-0.010823	0.826157
C63	C	0.978044	-0.786240	0.326142
C64	C	1.478044	-0.286240	0.826142
C65	C	0.978084	-0.904070	0.326161
C66	C	1.478084	-0.404070	0.826161
C67	C	0.925997	-1.071671	0.378618
C68	C	1.425997	-0.571671	0.878618
C69	C	0.925731	-0.949111	0.378449
C70	C	1.425731	-0.449111	0.878449
C71	C	0.958793	-0.948633	0.254828
C72	C	1.458793	-0.448633	0.754828
C73	C	0.958475	-1.071232	0.255147
C74	C	1.458475	-0.571232	0.755147
C75	C	1.049781	-1.071168	0.344457
C76	C	1.549781	-0.571168	0.844457
C77	C	1.049341	-0.948562	0.346017
C78	C	1.549341	-0.448562	0.846017
C79	C	1.154636	-0.510832	0.326174
C80	C	1.654636	-0.010832	0.826174
C81	C	1.229868	-0.510841	0.326183
C82	C	1.729868	-0.010841	0.826183
C83	C	0.978093	-0.510806	0.502694
C84	C	1.478093	-0.010806	1.002694
C85	C	0.978094	-0.510804	0.577926
C86	C	1.478094	-0.010804	1.077926
C87	C	0.978161	-0.234305	0.326176
C88	C	1.478161	0.265695	0.826176
C89	C	0.978190	-0.116475	0.326186
C90	C	1.478190	0.383525	0.826186
C91	C	0.934826	-0.443004	0.613270
C92	C	1.434826	0.056996	1.113270
C93	C	0.934824	-0.443010	0.683959
C94	C	1.434824	0.056990	1.183959
C95	C	0.978093	-0.510813	0.719302
C96	C	1.478093	-0.010813	1.219302
C97	C	1.021362	-0.578621	0.683953
C98	C	1.521362	-0.078621	1.183953
C99	C	1.021360	-0.578619	0.613266
C100	C	1.521360	-0.078619	1.113266
C101	C	1.021369	-0.578633	0.969026
C102	C	1.521369	-0.078633	1.469026
C103	C	1.021368	-0.578628	1.039718
C104	C	1.521368	-0.078628	1.539718
C105	C	0.934832	-0.443025	1.039719
C106	C	1.434832	0.056975	1.539719
C107	C	0.934831	-0.443022	0.969032
C108	C	1.434831	0.056978	1.469032
C109	C	0.978097	-0.510833	0.933689
C110	C	1.478097	-0.010833	1.433689
C111	C	0.978098	-0.510827	0.857041
C112	C	1.478098	-0.010827	1.357041
C113	C	0.978096	-0.510815	0.795949
C114	C	1.478096	-0.010815	1.295949
C115	C	0.978090	-0.510837	1.150296
C116	C	1.478090	-0.010837	1.650296
C117	C	0.978097	-0.510832	1.075064
C118	C	1.478097	-0.010832	1.575064
H119	H	0.937799	-0.918981	0.431342
H120	H	1.437799	-0.418981	0.931342
Cl121	Cl	1.112542	-0.901210	0.291355
Cl122	Cl	1.612542	-0.401210	0.791355
Cl123	Cl	0.380324	-0.357547	0.228634
Cl124	Cl	0.880324	0.142453	0.728634
Cl125	Cl	0.878835	-0.901371	0.230499
Cl126	Cl	1.378835	-0.401371	0.730499
H127	H	0.899599	-0.387807	0.940259
H128	H	1.399599	0.112193	1.440259
Cl129	Cl	0.880436	-0.357779	1.084155
Cl130	Cl	1.380436	0.142221	1.584155
Cl131	Cl	0.220779	-0.664121	0.423715
Cl132	Cl	0.720779	-0.164121	0.923715
H133	H	1.056605	-0.633845	1.068493
H134	H	1.556605	-0.133845	1.568493
H135	H	0.236437	-0.387646	0.247779
H136	H	0.736437	0.112354	0.747779
H137	H	0.592194	-0.387617	0.247757
H138	H	1.092194	0.112383	0.747757
H139	H	0.720440	-0.387599	0.247744
H140	H	1.220440	0.112401	0.747744
H141	H	1.056591	-0.633860	0.940258
H142	H	1.556591	-0.133860	1.440258
Cl143	Cl	0.944452	-1.117120	0.460551
Cl144	Cl	1.444452	-0.617120	0.960551
Cl145	Cl	0.880397	-0.357821	0.728388
Cl146	Cl	1.380397	0.142179	1.228388
Cl147	Cl	1.075753	-0.663866	0.728384
Cl148	Cl	1.575753	-0.163866	1.228384
H149	H	0.872656	-0.919871	0.366345
H150	H	1.372656	-0.419871	0.866345
H151	H	0.873254	-1.102566	0.366668
H152	H	1.373254	-0.602566	0.866668
Cl153	Cl	1.109819	-1.115919	0.285509
Cl154	Cl	1.609819	-0.615919	0.785509
H155	H	0.906142	-1.099917	0.239669
H156	H	1.406142	-0.599917	0.739669
H157	H	0.364674	-0.634028	0.404565
H158	H	0.864674	-0.134028	0.904565
H159	H	0.994842	-1.100871	0.214749
H160	H	1.494842	-0.600871	0.714749
Cl161	Cl	1.075753	-0.663862	0.568833
Cl162	Cl	1.575753	-0.163862	1.068833
H163	H	0.720434	-0.634004	0.404534
H164	H	1.220434	-0.134004	0.904534
H165	H	0.995604	-0.919457	0.214695
H166	H	1.495604	-0.419457	0.714695
H167	H	0.592200	-0.634007	0.404549
H168	H	1.092200	-0.134007	0.904549
H169	H	1.067382	-1.102034	0.395589
H170	H	1.567382	-0.602034	0.895589
H171	H	1.063890	-0.919434	0.398514
H172	H	1.563890	-0.419434	0.898514
H173	H	0.899596	-0.387785	0.584499
H174	H	1.399596	0.112215	1.084499
