data_functionalizedCrystal
_audit_creation_method	'MofGen! by Chris Wilmer'
_symmetry_space_group_name_H-M	'P1'
_symmetry_Int_Tables_number	1
_symmetry_cell_setting	triclinic
loop_
_symmetry_equiv_pos_as_xyz
  x,y,z
_cell_length_a	27.732048
_cell_length_b	27.731996
_cell_length_c	9.565339
_cell_angle_alpha	89.994276
_cell_angle_beta	90.001982
_cell_angle_gamma	82.632022
loop_
_atom_site_label
_atom_site_type_symbol
_atom_site_fract_x
_atom_site_fract_y
_atom_site_fract_z
O1	O	0.640916	0.057515	-0.116098
O2	O	0.500121	0.066261	-0.116143
O3	O	0.574904	-0.008511	-0.116088
O4	O	0.566133	0.132286	-0.116152
O5	O	0.574899	-0.008506	0.116432
O6	O	0.500115	0.066265	0.116378
O7	O	0.640910	0.057520	0.116422
Zn8	Zn	0.570512	0.061893	0.153318
Zn9	Zn	0.570520	0.061887	-0.153038
O10	O	0.566127	0.132291	0.116368
C11	C	0.482111	0.066079	0.000112
C12	C	0.428456	0.065527	0.000096
C13	C	0.574721	-0.026516	0.000176
C14	C	0.574179	-0.080172	0.000190
C15	C	0.089634	0.106231	0.000139
C16	C	-0.112026	0.104180	0.000152
O17	O	-0.143288	0.141402	0.000196
N18	N	-0.131141	0.059844	0.000170
C19	C	-0.099838	0.016017	0.000193
O20	O	-0.120724	-0.021740	0.000222
C21	C	0.101820	0.018069	0.000189
C22	C	0.120933	0.062408	0.000158
C23	C	0.108747	0.150567	0.000109
C24	C	0.159159	0.151079	0.000098
C25	C	0.190457	0.107256	0.000117
C26	C	0.171344	0.062920	0.000147
C27	C	0.133122	-0.025757	0.000223
C28	C	0.183539	-0.025240	0.000225
C29	C	0.202652	0.019099	0.000194
C30	C	0.253055	0.019609	0.000155
N31	N	0.272171	0.063946	0.000138
C32	C	0.240872	0.107769	0.000118
C33	C	-0.205712	0.014943	0.000192
C34	C	-0.256126	0.014430	0.000190
C35	C	-0.268310	0.102594	0.000152
C36	C	-0.217895	0.103106	0.000144
C37	C	-0.186597	0.059280	0.000174
C38	C	0.346741	0.108842	0.000094
C39	C	0.397158	0.109350	0.000077
C40	C	0.409337	0.021187	0.000123
C41	C	0.358925	0.020678	0.000132
C42	C	0.327627	0.064510	0.000123
O43	O	0.284346	-0.017592	0.000127
O44	O	0.261767	0.145521	0.000120
C45	C	0.039222	0.105719	0.000150
C46	C	0.020109	0.061384	0.000180
C47	C	0.051408	0.017560	0.000199
C48	C	-0.030305	0.060871	0.000178
C49	C	-0.061604	0.104694	0.000159
C50	C	-0.042489	0.149030	0.000142
C51	C	0.007923	0.149543	0.000131
C52	C	0.032292	-0.026776	0.000216
C53	C	-0.018120	-0.027285	0.000226
C54	C	-0.049419	0.016539	0.000207
C55	C	0.570767	-0.412891	-0.126626
C56	C	0.568706	-0.614549	-0.126651
O57	O	0.568422	-0.640622	-0.234445
N58	N	0.568447	-0.639764	0.000094
C59	C	0.568700	-0.614560	0.126855
O60	O	0.568427	-0.640633	0.234659
C61	C	0.570757	-0.412902	0.126879
C62	C	0.571021	-0.387691	0.000125
C63	C	0.571031	-0.387679	-0.253369
C64	C	0.571549	-0.337268	-0.253362
C65	C	0.571803	-0.312068	-0.126611
C66	C	0.571539	-0.337280	0.000133
C67	C	0.571007	-0.387699	0.253638
C68	C	0.571520	-0.337281	0.253633
C69	C	0.571784	-0.312070	0.126879
C70	C	0.572311	-0.261669	0.126891
N71	N	0.572571	-0.236454	0.000146
C72	C	0.572316	-0.261654	-0.126605
C73	C	0.567620	-0.720434	0.126834
C74	C	0.567107	-0.770848	0.126828
C75	C	0.567112	-0.770833	-0.126679
C76	C	0.567629	-0.720418	-0.126671
C77	C	0.567880	-0.695219	0.000088
C78	C	0.573404	-0.155787	-0.126579
C79	C	0.573924	-0.105372	-0.126561
C80	C	0.573916	-0.105390	0.126945
C81	C	0.573399	-0.155802	0.126927
C82	C	0.573141	-0.180999	0.000154
O83	O	0.572591	-0.235564	0.234629
O84	O	0.572578	-0.235571	-0.234393
C85	C	0.570249	-0.463302	-0.126633
C86	C	0.569986	-0.488513	0.000110
C87	C	0.570240	-0.463314	0.126861
C88	C	0.569472	-0.538928	0.000105
C89	C	0.569218	-0.564127	-0.126646
C90	C	0.569477	-0.538913	-0.253392
C91	C	0.569995	-0.488502	-0.253384
C92	C	0.569981	-0.488528	0.253606
C93	C	0.569463	-0.538940	0.253589
C94	C	0.569209	-0.564139	0.126838
C95	C	0.658920	0.057701	0.000165
C96	C	0.712575	0.058254	0.000171
C97	C	0.566310	0.150296	0.000101
C98	C	0.566853	0.203952	0.000077
N99	N	0.570510	0.061897	0.362397
N100	N	0.570525	0.061879	-0.362117
C101	C	0.535915	0.096465	0.453575
C102	C	0.579525	0.105519	0.546763
C103	C	0.526919	0.052847	0.546764
C104	C	0.614142	0.070972	0.453533
C105	C	0.561507	0.018282	0.453526
C106	C	0.605149	0.027317	0.546672
H107	H	0.321264	0.144533	0.000091
H108	H	0.023479	0.185648	0.000107
O109	O	0.662991	0.081161	0.399519
H110	H	0.691695	0.052611	0.437675
O111	O	0.569180	-0.566125	0.390319
H112	H	0.601905	-0.593651	0.396414
O113	O	0.573128	-0.182960	-0.263311
H114	H	0.539931	-0.201365	-0.269403
H115	H	0.506685	0.125725	0.412699
O116	O	0.574207	-0.078182	-0.263284
H117	H	0.574615	-0.038892	-0.241996
H118	H	0.570189	-0.468016	0.356825
O119	O	0.569195	-0.566094	-0.390110
H120	H	0.601914	-0.593626	-0.396172
O121	O	0.589611	0.154359	0.601100
H122	H	0.560835	0.182999	0.563853
H123	H	0.490049	0.045200	0.587721
H124	H	0.634443	-0.001926	0.587292
H125	H	0.567844	-0.699895	-0.229886
O126	O	0.551395	-0.030551	0.399222
H127	H	0.518081	-0.025681	0.333743
O128	O	0.417773	0.157174	0.000066
H129	H	0.387536	0.187560	0.000076
H130	H	0.083267	0.186255	0.000098
O131	O	0.179771	0.198902	0.000105
H132	H	0.149530	0.229285	0.000117
O133	O	-0.197281	0.150928	0.000136
H134	H	-0.227520	0.181312	0.000134
H135	H	0.573188	-0.176331	0.230140
O136	O	-0.276738	-0.033393	0.000205
H137	H	-0.299416	-0.035732	0.094974
O138	O	-0.302072	0.149862	0.000153
H139	H	-0.340338	0.142052	0.000172
H140	H	0.117570	-0.061863	0.000250
O141	O	-0.171956	-0.032329	0.000219
H142	H	-0.193723	-0.063241	0.000219
H143	H	0.209021	-0.060930	0.000251
H144	H	0.567827	-0.699921	0.230063
H145	H	0.343363	-0.015426	0.000138
O146	O	0.566833	-0.798036	0.263546
H147	H	0.566439	-0.837328	0.242264
H148	H	0.434830	-0.014493	0.000133
H149	H	0.570822	-0.408191	-0.356591
O150	O	-0.076251	0.196299	0.000138
H151	H	-0.114517	0.188488	0.000164
O152	O	-0.038729	-0.075112	0.000275
H153	H	-0.026131	-0.096160	-0.094474
O154	O	0.066048	-0.074045	0.000235
H155	H	0.044281	-0.104957	0.000241
H156	H	0.571762	-0.316745	-0.356578
O157	O	0.566827	-0.798012	-0.263400
H158	H	0.599547	-0.825543	-0.269478
O159	O	0.570720	-0.414885	0.390352
H160	H	0.537853	-0.400650	0.451097
O161	O	0.571796	-0.310102	0.390355
H162	H	0.571531	-0.336107	0.478483
H163	H	0.574126	-0.084864	0.230143
H164	H	0.570210	-0.467979	-0.356600
