data_functionalizedCrystal
_audit_creation_method	'MofGen! by Chris Wilmer'
_symmetry_space_group_name_H-M	'P1'
_symmetry_Int_Tables_number	1
_symmetry_cell_setting	triclinic
loop_
_symmetry_equiv_pos_as_xyz
  x,y,z
_cell_length_a	12.594517
_cell_length_b	12.594516
_cell_length_c	11.169409
_cell_angle_alpha	90.031354
_cell_angle_beta	90.023484
_cell_angle_gamma	90.015853
loop_
_atom_site_label
_atom_site_type_symbol
_atom_site_fract_x
_atom_site_fract_y
_atom_site_fract_z
Zn1	Zn	1.627290	-0.423662	0.678668
Zn2	Zn	2.127290	0.076338	1.178668
Zn3	Zn	1.627174	-0.601688	0.477988
Zn4	Zn	2.127174	-0.101688	0.977988
Zn5	Zn	1.449287	-0.423723	0.477990
Zn6	Zn	1.949287	0.076277	0.977990
Zn7	Zn	1.449276	-0.601598	0.678621
Zn8	Zn	1.949276	-0.101598	1.178621
O9	O	1.538256	-0.512668	0.578317
O10	O	2.038256	-0.012668	1.078317
O11	O	1.776220	-0.447289	0.652067
O12	O	2.276220	0.052711	1.152067
O13	O	1.603533	-0.578144	0.310039
O14	O	2.103533	-0.078144	0.810039
O15	O	1.472952	-0.274769	0.504631
O16	O	1.972952	0.225231	1.004631
O17	O	1.776135	-0.578084	0.504628
O18	O	2.276135	-0.078084	1.004628
O19	O	1.603730	-0.274724	0.652068
O20	O	2.103730	0.225276	1.152068
O21	O	1.472840	-0.447394	0.310040
O22	O	1.972840	0.052606	0.810040
O23	O	1.300340	-0.447307	0.504584
O24	O	1.800340	0.052693	1.004584
O25	O	1.472933	-0.577931	0.846577
O26	O	1.972933	-0.077931	1.346577
O27	O	1.300331	-0.577990	0.651987
O28	O	1.800331	-0.077990	1.151987
O29	O	1.603720	-0.447202	0.846612
O30	O	2.103720	0.052798	1.346612
O31	O	1.603522	-0.750622	0.504582
O32	O	2.103522	-0.250622	1.004582
O33	O	1.472821	-0.750556	0.651986
O34	O	1.972821	-0.250556	1.151986
C35	C	1.261716	-0.512646	0.578281
C36	C	1.761716	-0.012646	1.078281
C37	C	1.143410	-0.512663	0.578295
C38	C	1.643410	-0.012663	1.078295
C39	C	1.074130	-0.441487	0.498275
C40	C	1.574130	0.058513	0.998275
C41	C	1.003319	-0.538578	0.468759
C42	C	1.503319	-0.038578	0.968759
C43	C	1.003423	-0.415619	0.607832
C44	C	1.503423	0.084381	1.107832
C45	C	1.074156	-0.609805	0.548721
C46	C	1.574156	-0.109805	1.048721
C47	C	1.074267	-0.486781	0.687845
C48	C	1.574267	0.013219	1.187845
C49	C	1.003487	-0.583939	0.658370
C50	C	1.503487	-0.083939	1.158370
C51	C	1.538187	-0.789209	0.578305
C52	C	2.038187	-0.289209	1.078305
C53	C	1.538254	-0.907514	0.578340
C54	C	2.038254	-0.407514	1.078340
C55	C	1.467159	-0.976770	0.658456
C56	C	1.967159	-0.476770	1.158456
C57	C	1.441222	-1.047644	0.548941
C58	C	1.941222	-0.547644	1.048941
C59	C	1.564288	-1.047439	0.687874
C60	C	2.064288	-0.547439	1.187874
C61	C	1.512266	-0.976830	0.468767
C62	C	2.012266	-0.476830	0.968767
C63	C	1.635377	-0.976619	0.607773
C64	C	2.135377	-0.476619	1.107773
C65	C	1.609477	-1.047461	0.498183
C66	C	2.109477	-0.547461	0.998183
C67	C	1.815877	-0.512690	0.578353
C68	C	2.315877	-0.012690	1.078353
C69	C	1.934183	-0.512699	0.578368
C70	C	2.434183	-0.012699	1.078368
C71	C	1.538338	-0.512549	0.891359
C72	C	2.038338	-0.012549	1.391359
C73	C	1.538373	-0.512499	1.024759
C74	C	2.038373	-0.012499	1.524759
C75	C	1.538356	-0.235047	0.578355
C76	C	2.038356	0.264953	1.078355
C77	C	1.538398	-0.116741	0.578371
C78	C	2.038398	0.383259	1.078371
C79	C	1.538236	-0.512708	0.266492
C80	C	2.038236	-0.012708	0.766492
C81	C	1.538408	-0.512459	0.133093
C82	C	2.038408	-0.012459	0.633093
H83	H	1.105455	-0.464837	0.780429
H84	H	1.605455	0.035163	1.280429
O85	O	1.332511	-1.088972	0.515969
O86	O	1.832511	-0.588972	1.015969
H87	H	1.310458	-1.059461	0.425705
H88	H	1.810458	-0.559461	0.925705
H89	H	1.586250	-1.078455	0.780493
H90	H	2.086250	-0.578455	1.280493
O91	O	1.483056	-0.935929	0.346042
O92	O	1.983056	-0.435929	0.846042
H93	H	1.402755	-0.965081	0.321541
H94	H	1.902755	-0.465081	0.821541
H95	H	1.717427	-0.945401	0.632695
H96	H	2.217427	-0.445401	1.132695
O97	O	1.115242	-0.361839	0.408539
O98	O	1.615242	0.138161	0.908539
H99	H	1.086827	-0.383600	0.317701
H100	H	1.586827	0.116400	0.817701
H101	H	1.406929	-0.945730	0.726110
H102	H	1.906929	-0.445730	1.226110
H103	H	0.972297	-0.333546	0.632742
H104	H	1.472297	0.166454	1.132742
O105	O	1.689204	-1.088327	0.408365
O106	O	2.189204	-0.588327	0.908365
H107	H	1.667404	-1.059895	0.317583
H108	H	2.167404	-0.559895	0.817583
O109	O	0.962651	-0.663778	0.748047
O110	O	1.462651	-0.163778	1.248047
H111	H	0.914199	-0.622358	0.816662
H112	H	1.414199	-0.122358	1.316662
O113	O	0.962025	-0.567611	0.346092
O114	O	1.462025	-0.067611	0.846092
H115	H	0.990307	-0.508401	0.279795
H116	H	1.490307	-0.008401	0.779795
H117	H	1.105097	-0.691913	0.523667
H118	H	1.605097	-0.191913	1.023667
