data_functionalizedCrystal
_audit_creation_method	'MofGen! by Chris Wilmer'
_symmetry_space_group_name_H-M	'P1'
_symmetry_Int_Tables_number	1
_symmetry_cell_setting	triclinic
loop_
_symmetry_equiv_pos_as_xyz
  x,y,z
_cell_length_a	29.839131
_cell_length_b	12.594517
_cell_length_c	12.594509
_cell_angle_alpha	90.021327
_cell_angle_beta	89.969204
_cell_angle_gamma	89.958498
loop_
_atom_site_label
_atom_site_type_symbol
_atom_site_fract_x
_atom_site_fract_y
_atom_site_fract_z
Zn1	Zn	-0.178842	-1.627077	-0.601841
Zn2	Zn	0.321158	-1.127077	-0.101841
Zn3	Zn	-0.253977	-1.626888	-0.423854
Zn4	Zn	0.246023	-1.126888	0.076146
Zn5	Zn	-0.178861	-1.449081	-0.423870
Zn6	Zn	0.321139	-0.949081	0.076130
Zn7	Zn	-0.253946	-1.448984	-0.601785
Zn8	Zn	0.246054	-0.948984	-0.101785
O9	O	-0.216407	-1.538008	-0.512837
O10	O	0.283593	-1.038008	-0.012837
O11	O	-0.188814	-1.775998	-0.578248
O12	O	0.311186	-1.275998	-0.078248
O13	O	-0.244034	-1.603264	-0.274911
O14	O	0.255966	-1.103264	0.225089
O15	O	-0.115992	-1.472813	-0.447508
O16	O	0.384008	-0.972813	0.052492
O17	O	-0.244015	-1.775859	-0.447482
O18	O	0.255985	-1.275859	0.052518
O19	O	-0.115978	-1.603586	-0.578263
O20	O	0.384022	-1.103586	-0.078263
O21	O	-0.188847	-1.472629	-0.274922
O22	O	0.311153	-0.972629	0.225078
O23	O	-0.188816	-1.300122	-0.447453
O24	O	0.311184	-0.800122	0.052547
O25	O	-0.243962	-1.472646	-0.750738
O26	O	0.256038	-0.972646	-0.250738
O27	O	-0.243981	-1.300051	-0.578167
O28	O	0.256019	-0.800051	-0.078167
O29	O	-0.188784	-1.603491	-0.750779
O30	O	0.311216	-1.103491	-0.250779
O31	O	-0.316840	-1.603169	-0.447427
O32	O	0.183160	-1.103169	0.052573
O33	O	-0.316817	-1.472463	-0.578152
O34	O	0.183183	-0.972463	-0.078152
C35	C	-0.216398	-1.261467	-0.512806
C36	C	0.283602	-0.761467	-0.012806
C37	C	-0.216404	-1.143161	-0.512818
C38	C	0.283596	-0.643161	-0.012818
C39	C	-0.333129	-1.537814	-0.512805
C40	C	0.166871	-1.037814	-0.012805
C41	C	-0.383064	-1.537829	-0.512826
C42	C	0.116936	-1.037829	-0.012826
C43	C	-0.216367	-1.538079	-0.790458
C44	C	0.283633	-1.038079	-0.290458
C45	C	-0.216350	-1.538109	-0.908764
C46	C	0.283650	-1.038109	-0.408764
C47	C	-0.739654	-1.469993	-0.580901
C48	C	-0.239654	-0.969993	-0.080901
C49	C	-0.551981	-1.469852	-0.580868
C50	C	-0.051981	-0.969852	-0.080868
O51	O	-0.527720	-1.411944	-0.638727
O52	O	-0.027720	-0.911944	-0.138727
N53	N	-0.528509	-1.537941	-0.512858
N54	N	-0.028509	-1.037941	-0.012858
C55	C	-0.551957	-1.606075	-0.444857
C56	C	-0.051957	-1.106075	0.055143
O57	O	-0.527686	-1.663993	-0.387018
O58	O	-0.027686	-1.163993	0.112982
C59	C	-0.739629	-1.606220	-0.444897
C60	C	-0.239629	-1.106220	0.055103
C61	C	-0.763100	-1.538119	-0.512903
C62	C	-0.263100	-1.038119	-0.012903
C63	C	-0.763125	-1.401898	-0.648903
C64	C	-0.263125	-0.901898	-0.148903
C65	C	-0.810040	-1.401930	-0.648906
C66	C	-0.310040	-0.901930	-0.148906
C67	C	-0.833485	-1.470056	-0.580908
C68	C	-0.333485	-0.970056	-0.080908
C69	C	-0.810015	-1.538151	-0.512906
C70	C	-0.310015	-1.038151	-0.012906
C71	C	-0.763077	-1.674359	-0.376902
C72	C	-0.263077	-1.174359	0.123098
C73	C	-0.809998	-1.674391	-0.376919
C74	C	-0.309998	-1.174391	0.123081
C75	C	-0.833468	-1.606290	-0.444926
C76	C	-0.333468	-1.106290	0.055074
C77	C	-0.880376	-1.606309	-0.444912
C78	C	-0.380376	-1.106309	0.055088
N79	N	-0.903848	-1.538220	-0.512921
N80	N	-0.403848	-1.038220	-0.012921
C81	C	-0.880403	-1.470094	-0.580920
C82	C	-0.380403	-0.970094	-0.080920
C83	C	-0.453427	-1.605992	-0.444840
C84	C	0.046573	-1.105992	0.055160
C85	C	-0.406509	-1.605955	-0.444828
C86	C	0.093491	-1.105955	0.055172
C87	C	-0.406536	-1.469733	-0.580841
C88	C	0.093464	-0.969733	-0.080841
C89	C	-0.453455	-1.469766	-0.580846
C90	C	0.046545	-0.969766	-0.080846
C91	C	-0.476899	-1.537904	-0.512849
C92	C	0.023101	-1.037904	-0.012849
C93	C	-0.978929	-1.470165	-0.580921
C94	C	-0.478929	-0.970165	-0.080921
C95	C	-1.025849	-1.470200	-0.580916
C96	C	-0.525849	-0.970200	-0.080916
C97	C	-1.025817	-1.606425	-0.444908
C98	C	-0.525817	-1.106425	0.055092
C99	C	-0.978901	-1.606387	-0.444909
C100	C	-0.478901	-1.106387	0.055091
C101	C	-0.955459	-1.538253	-0.512924
C102	C	-0.455459	-1.038253	-0.012924
O103	O	-0.904666	-1.664195	-0.387091
O104	O	-0.404666	-1.164195	0.112909
O105	O	-0.904682	-1.412201	-0.638767
O106	O	-0.404682	-0.912201	-0.138767
C107	C	-0.692739	-1.469961	-0.580898
C108	C	-0.192739	-0.969961	-0.080898
C109	C	-0.669269	-1.538056	-0.512896
C110	C	-0.169269	-1.038056	-0.012896
C111	C	-0.692714	-1.606182	-0.444898
C112	C	-0.192714	-1.106182	0.055102
C113	C	-0.622351	-1.538018	-0.512884
C114	C	-0.122351	-1.038018	-0.012884
C115	C	-0.598906	-1.469892	-0.580883
C116	C	-0.098906	-0.969892	-0.080883
C117	C	-0.622378	-1.401803	-0.648892
C118	C	-0.122378	-0.901803	-0.148892
C119	C	-0.669294	-1.401835	-0.648896
C120	C	-0.169294	-0.901835	-0.148896
C121	C	-0.669241	-1.674271	-0.376888
C122	C	-0.169241	-1.174271	0.123112
C123	C	-0.622326	-1.674233	-0.376889
C124	C	-0.122326	-1.174233	0.123111
C125	C	-0.598880	-1.606106	-0.444887
C126	C	-0.098880	-1.106106	0.055113
C127	C	-0.099228	-1.538231	-0.512894
C128	C	0.400772	-1.038231	-0.012894
C129	C	-0.049294	-1.538326	-0.512917
C130	C	0.450706	-1.038326	-0.012917
C131	C	-0.216416	-1.815628	-0.512870
C132	C	0.283584	-1.315628	-0.012870
C133	C	-0.216420	-1.933934	-0.512883
C134	C	0.283580	-1.433934	-0.012883
C135	C	-0.186360	-1.073916	-0.441859
C136	C	0.313640	-0.573916	0.058141
C137	C	-0.227339	-1.003062	-0.415674
C138	C	0.272661	-0.503062	0.084326
C139	C	-0.175445	-1.003217	-0.539020
C140	C	0.324555	-0.503217	-0.039020
C141	C	-0.257405	-1.073865	-0.486583
C142	C	0.242595	-0.573865	0.013417
C143	C	-0.205484	-1.074026	-0.609974
C144	C	0.294516	-0.574026	-0.109974
C145	C	-0.246491	-1.003204	-0.583827
C146	C	0.253509	-0.503204	-0.083827
C147	C	-0.246345	-1.466965	-0.977995
C148	C	0.253655	-0.966965	-0.477995
C149	C	-0.257322	-1.564074	-1.048784
C150	C	0.242678	-1.064074	-0.548784
C151	C	-0.205346	-1.441076	-1.048774
C152	C	0.294654	-0.941076	-0.548774
C153	C	-0.227349	-1.635269	-0.977995
C154	C	0.272651	-1.135269	-0.477995
C155	C	-0.175355	-1.512205	-0.977979
C156	C	0.324645	-1.012205	-0.477979
C157	C	-0.186316	-1.609381	-1.048736
C158	C	0.313684	-1.109381	-0.548736
C159	C	-0.216413	-1.537998	-0.236296
C160	C	0.283587	-1.037998	0.263704
C161	C	-0.216304	-1.538174	-0.117992
C162	C	0.283696	-1.038174	0.382008
H163	H	-1.044956	-1.414741	-0.636297
H164	H	-0.544956	-0.914741	-0.136297
H165	H	-0.140805	-0.972127	-0.561119
H166	H	0.359195	-0.472127	-0.061119
H167	H	-0.236585	-0.971893	-0.333539
H168	H	0.263415	-0.471893	0.166461
H169	H	-0.160977	-1.104964	-0.381777
H170	H	0.339023	-0.604964	0.118223
H171	H	-0.829084	-1.729881	-0.321550
H172	H	-0.329084	-1.229881	0.178450
H173	H	-1.044914	-1.661888	-0.389541
H174	H	-0.544914	-1.161888	0.110459
H175	H	-0.196225	-1.105220	-0.692085
H176	H	0.303775	-0.605220	-0.192085
H177	H	-0.292061	-1.104770	-0.464357
H178	H	0.207939	-0.604770	0.035643
H179	H	-0.271749	-1.406848	-0.946934
H180	H	0.228251	-0.906848	-0.446934
H181	H	-0.291971	-1.586019	-1.079885
H182	H	0.208029	-1.086019	-0.579885
H183	H	-0.236676	-1.717380	-0.947035
H184	H	0.263324	-1.217380	-0.447035
H185	H	-0.472561	-1.414318	-0.636229
H186	H	0.027439	-0.914318	-0.136229
H187	H	-0.959847	-1.414686	-0.636307
H188	H	-0.459847	-0.914686	-0.136307
H189	H	-0.387439	-1.414260	-0.636206
H190	H	0.112561	-0.914260	-0.136206
H191	H	-0.196059	-1.358990	-1.079865
H192	H	0.303941	-0.858990	-0.579865
H193	H	-0.140715	-1.490232	-0.946854
H194	H	0.359285	-0.990232	-0.446854
H195	H	-0.829145	-1.346473	-0.704283
H196	H	-0.329145	-0.846473	-0.204283
H197	H	-0.744040	-1.346422	-0.704280
H198	H	-0.244040	-0.846422	-0.204280
H199	H	-0.603282	-1.346328	-0.704255
H200	H	-0.103282	-0.846328	-0.204255
H201	H	-0.387402	-1.661397	-0.389440
H202	H	0.112598	-1.161397	0.110560
H203	H	-0.688325	-1.729750	-0.321516
H204	H	-0.188325	-1.229750	0.178484
H205	H	-0.160931	-1.669643	-1.079601
H206	H	0.339069	-1.169643	-0.579601
H207	H	-0.959792	-1.661830	-0.389521
H208	H	-0.459792	-1.161830	0.110479
H209	H	-0.743974	-1.729813	-0.321525
H210	H	-0.243974	-1.229813	0.178475
H211	H	-0.603219	-1.729686	-0.321501
H212	H	-0.103219	-1.229686	0.178499
H213	H	-0.472511	-1.661480	-0.389464
H214	H	0.027489	-1.161480	0.110536
H215	H	-0.688399	-1.346381	-0.704275
H216	H	-0.188399	-0.846381	-0.204275
H217	H	-0.271935	-0.972351	-0.643862
H218	H	0.228065	-0.472351	-0.143862
