data_functionalizedCrystal
_audit_creation_method	'MofGen! by Chris Wilmer'
_symmetry_space_group_name_H-M	'P1'
_symmetry_Int_Tables_number	1
_symmetry_cell_setting	triclinic
loop_
_symmetry_equiv_pos_as_xyz
  x,y,z
_cell_length_a	18.050591
_cell_length_b	16.120484
_cell_length_c	16.120297
_cell_angle_alpha	95.614431
_cell_angle_beta	87.127539
_cell_angle_gamma	87.078125
loop_
_atom_site_label
_atom_site_type_symbol
_atom_site_fract_x
_atom_site_fract_y
_atom_site_fract_z
Zn1	Zn	1.097108	0.356841	0.489590
Zn2	Zn	1.347108	0.606841	0.739590
Zn3	Zn	1.597108	0.856841	0.989590
Zn4	Zn	1.847108	1.106841	1.239590
Zn5	Zn	1.097015	0.489530	0.356900
Zn6	Zn	1.347015	0.739530	0.606900
Zn7	Zn	1.597015	0.989530	0.856900
Zn8	Zn	1.847015	1.239530	1.106900
Zn9	Zn	0.979550	0.349767	0.349821
Zn10	Zn	1.229550	0.599767	0.599821
Zn11	Zn	1.479550	0.849767	0.849821
Zn12	Zn	1.729550	1.099767	1.099821
Zn13	Zn	0.966254	0.496560	0.496606
Zn14	Zn	1.216254	0.746560	0.746606
Zn15	Zn	1.466254	0.996560	0.996606
Zn16	Zn	1.716254	1.246560	1.246606
O17	O	1.034982	0.423175	0.423229
O18	O	1.284982	0.673175	0.673229
O19	O	1.534982	0.923175	0.923229
O20	O	1.784982	1.173175	1.173229
O21	O	1.201019	0.374461	0.472014
O22	O	1.451019	0.624461	0.722014
O23	O	1.701019	0.874461	0.972014
O24	O	1.951019	1.124461	1.222014
O25	O	1.086958	0.465088	0.239000
O26	O	1.336958	0.715088	0.489000
O27	O	1.586958	0.965088	0.739000
O28	O	1.836958	1.215088	0.989000
O29	O	1.000748	0.233740	0.362463
O30	O	1.250748	0.483740	0.612463
O31	O	1.500748	0.733740	0.862463
O32	O	1.750748	0.983740	1.112463
O33	O	1.200950	0.471947	0.374528
O34	O	1.450950	0.721947	0.624528
O35	O	1.700950	0.971947	0.874528
O36	O	1.950950	1.221947	1.124528
O37	O	1.087118	0.238938	0.465150
O38	O	1.337118	0.488938	0.715150
O39	O	1.587118	0.738938	0.965150
O40	O	1.837118	0.988938	1.215150
O41	O	1.000658	0.362404	0.233799
O42	O	1.250658	0.612404	0.483799
O43	O	1.500658	0.862404	0.733799
O44	O	1.750658	1.112404	0.983799
O45	O	0.873864	0.369221	0.369266
O46	O	1.123864	0.619221	0.619266
O47	O	1.373864	0.869221	0.869266
O48	O	1.623864	1.119221	1.119266
O49	O	0.978086	0.483929	0.612637
O50	O	1.228086	0.733929	0.862637
O51	O	1.478086	0.983929	1.112637
O52	O	1.728086	1.233929	1.362637
O53	O	0.864095	0.477070	0.477109
O54	O	1.114095	0.727070	0.727109
O55	O	1.364095	0.977070	0.977109
O56	O	1.614095	1.227070	1.227109
O57	O	1.074225	0.381277	0.607482
O58	O	1.324225	0.631277	0.857482
O59	O	1.574225	0.881277	1.107482
O60	O	1.824225	1.131277	1.357482
O61	O	1.074065	0.607428	0.381332
O62	O	1.324065	0.857428	0.631332
O63	O	1.574065	1.107428	0.881332
O64	O	1.824065	1.357428	1.131332
O65	O	0.977995	0.612593	0.483973
O66	O	1.227995	0.862593	0.733973
O67	O	1.477995	1.112593	0.983973
O68	O	1.727995	1.362593	1.233973
C69	C	1.024597	0.640339	0.434200
C70	C	1.274597	0.890339	0.684200
C71	C	1.524597	1.140339	0.934200
C72	C	1.774597	1.390339	1.184200
C73	C	1.020220	0.733244	0.438921
C74	C	1.270220	0.983244	0.688921
C75	C	1.520220	1.233244	0.938921
C76	C	1.770220	1.483244	1.188921
C77	C	0.842033	0.423141	0.423182
C78	C	1.092033	0.673141	0.673182
C79	C	1.342033	0.923141	0.923182
C80	C	1.592033	1.173141	1.173182
C81	C	0.759487	0.423148	0.423182
C82	C	1.009487	0.673148	0.673182
C83	C	1.259487	0.923148	0.923182
C84	C	1.509487	1.173148	1.173182
C85	C	1.045427	0.205163	0.412234
C86	C	1.295427	0.455163	0.662234
C87	C	1.545427	0.705163	0.912234
C88	C	1.795427	0.955163	1.162234
C89	C	1.049878	0.112260	0.407548
C90	C	1.299878	0.362260	0.657548
C91	C	1.549878	0.612260	0.907548
C92	C	1.799878	0.862260	1.157548
C93	C	0.565324	0.364442	0.364662
C94	C	0.815324	0.614442	0.614662
C95	C	1.065324	0.864442	0.864662
C96	C	1.315324	1.114442	1.114662
C97	C	0.513265	0.439636	0.347956
C98	C	0.763265	0.689636	0.597956
C99	C	1.013265	0.939636	0.847956
C100	C	1.263265	1.189636	1.097956
C101	C	0.608354	0.423175	0.423221
C102	C	0.858354	0.673175	0.673221
C103	C	1.108354	0.923175	0.923221
C104	C	1.358354	1.173175	1.173221
C105	C	0.513331	0.348007	0.439927
C106	C	0.763331	0.598007	0.689927
C107	C	1.013331	0.848007	0.939927
C108	C	1.263331	1.098007	1.189927
C109	C	0.462366	0.423195	0.423257
C110	C	0.712366	0.673195	0.673257
C111	C	0.962366	0.923195	0.923257
C112	C	1.212366	1.173195	1.173257
C113	C	0.557381	0.498408	0.406476
C114	C	0.807381	0.748408	0.656476
C115	C	1.057381	0.998408	0.906476
C116	C	1.307381	1.248408	1.156476
C117	C	0.557453	0.406729	0.498481
C118	C	0.807453	0.656729	0.748481
C119	C	1.057453	0.906729	0.998481
C120	C	1.307453	1.156729	1.248481
C121	C	0.505411	0.481978	0.481805
C122	C	0.755411	0.731978	0.731805
C123	C	1.005411	0.981978	0.981805
C124	C	1.255411	1.231978	1.231805
C125	C	0.692454	0.423163	0.423198
C126	C	0.942454	0.673163	0.673198
C127	C	1.192454	0.923163	0.923198
C128	C	1.442454	1.173163	1.173198
C129	C	0.378268	0.423216	0.423280
C130	C	0.628268	0.673216	0.673280
C131	C	0.878268	0.923216	0.923280
C132	C	1.128268	1.173216	1.173280
C133	C	1.228684	0.423209	0.423278
C134	C	1.478684	0.673209	0.673278
C135	C	1.728684	0.923209	0.923278
C136	C	1.978684	1.173209	1.173278
C137	C	1.311228	0.423223	0.423298
C138	C	1.561228	0.673223	0.673298
C139	C	1.811228	0.923223	0.923298
C140	C	2.061228	1.173223	1.173298
C141	C	1.024683	0.434176	0.641234
C142	C	1.274683	0.684176	0.891234
C143	C	1.524683	0.934176	1.141234
C144	C	1.774683	1.184176	1.391234
C145	C	1.020294	0.438865	0.734134
C146	C	1.270294	0.688865	0.984134
C147	C	1.520294	0.938865	1.234134
C148	C	1.770294	1.188865	1.484134
C149	C	1.012234	0.903343	0.447559
C150	C	1.262234	1.153343	0.697559
C151	C	1.512234	1.403343	0.947559
C152	C	1.762234	1.653343	1.197559
C153	C	1.057862	0.942166	0.398914
C154	C	1.307862	1.192166	0.648914
C155	C	1.557862	1.442166	0.898914
C156	C	1.807862	1.692166	1.148914
C157	C	1.053418	1.036815	0.403719
C158	C	1.303418	1.286815	0.653719
C159	C	1.553418	1.536815	0.903719
C160	C	1.803418	1.786815	1.153719
C161	C	1.016677	0.808686	0.442754
C162	C	1.266677	1.058686	0.692754
C163	C	1.516677	1.308686	0.942754
C164	C	1.766677	1.558686	1.192754
C165	C	1.045286	0.412155	0.206070
C166	C	1.295286	0.662155	0.456070
C167	C	1.545286	0.912155	0.706070
C168	C	1.795286	1.162155	0.956070
C169	C	1.049830	0.407231	0.113158
C170	C	1.299830	0.657231	0.363158
C171	C	1.549830	0.907231	0.613158
C172	C	1.799830	1.157231	0.863158
C173	C	1.012255	0.447406	0.904224
C174	C	1.262255	0.697406	1.154224
C175	C	1.512255	0.947406	1.404224
C176	C	1.762255	1.197406	1.654224
C177	C	1.057867	0.398693	0.943074
C178	C	1.307867	0.648693	1.193074
C179	C	1.557867	0.898693	1.443074
C180	C	1.807867	1.148693	1.693074
C181	C	1.053394	0.403445	1.037718
C182	C	1.303394	0.653445	1.287718
C183	C	1.553394	0.903445	1.537718
C184	C	1.803394	1.153445	1.787718
C185	C	1.016727	0.442655	0.809572
C186	C	1.266727	0.692655	1.059572
C187	C	1.516727	0.942655	1.309572
C188	C	1.766727	1.192655	1.559572
H189	H	0.591457	0.314821	0.315093
H190	H	0.841457	0.564821	0.565093
H191	H	1.091457	0.814821	0.815093
H192	H	1.341457	1.064821	1.065093
H193	H	0.576729	0.562000	0.392290
H194	H	0.826729	0.812000	0.642290
H195	H	1.076729	1.062000	0.892290
H196	H	1.326729	1.312000	1.142290
H197	H	1.100262	0.904319	0.353658
H198	H	1.350262	1.154319	0.603658
H199	H	1.600262	1.404319	0.853658
H200	H	1.850262	1.654319	1.103658
H201	H	0.969849	0.492677	0.942040
H202	H	1.219849	0.742677	1.192040
H203	H	1.469849	0.992677	1.442040
H204	H	1.719849	1.242677	1.692040
H205	H	0.493857	0.284437	0.454014
H206	H	0.743857	0.534437	0.704014
H207	H	0.993857	0.784437	0.954014
H208	H	1.243857	1.034437	1.204014
H209	H	0.969837	0.941187	0.492810
H210	H	1.219837	1.191187	0.742810
H211	H	1.469837	1.441187	0.992810
H212	H	1.719837	1.691187	1.242810
H213	H	1.100276	0.353418	0.905256
H214	H	1.350276	0.603418	1.155256
H215	H	1.600276	0.853418	1.405256
H216	H	1.850276	1.103418	1.655256
H217	H	0.479411	0.531710	0.531344
H218	H	0.729411	0.781710	0.781344
H219	H	0.979411	1.031710	1.031344
H220	H	1.229411	1.281710	1.281344
H221	H	0.493768	0.453561	0.284326
H222	H	0.743768	0.703561	0.534326
H223	H	0.993768	0.953561	0.784326
H224	H	1.243768	1.203561	1.034326
H225	H	0.576969	0.392780	0.562090
H226	H	0.826969	0.642780	0.812090
H227	H	1.076969	0.892780	1.062090
H228	H	1.326969	1.142780	1.312090
