data_functionalizedCrystal
_audit_creation_method	'MofGen! by Chris Wilmer'
_symmetry_space_group_name_H-M	'P1'
_symmetry_Int_Tables_number	1
_symmetry_cell_setting	triclinic
loop_
_symmetry_equiv_pos_as_xyz
  x,y,z
_cell_length_a	18.215407
_cell_length_b	18.215404
_cell_length_c	18.215399
_cell_angle_alpha	90.027515
_cell_angle_beta	89.983101
_cell_angle_gamma	89.978718
loop_
_atom_site_label
_atom_site_type_symbol
_atom_site_fract_x
_atom_site_fract_y
_atom_site_fract_z
Zn1	Zn	1.125077	0.293042	-0.416060
Zn2	Zn	1.458411	0.626375	-0.082727
Zn3	Zn	1.791744	0.959708	0.250606
Zn4	Zn	1.124988	0.416113	-0.292995
Zn5	Zn	1.458321	0.749446	0.040338
Zn6	Zn	1.791655	1.082780	0.373672
Zn7	Zn	1.002010	0.293059	-0.293014
Zn8	Zn	1.335343	0.626393	0.040319
Zn9	Zn	1.668677	0.959726	0.373653
Zn10	Zn	1.001978	0.416066	-0.416026
Zn11	Zn	1.335311	0.749399	-0.082693
Zn12	Zn	1.668645	1.082732	0.250640
O13	O	1.063513	0.354570	-0.354524
O14	O	1.396847	0.687903	-0.021191
O15	O	1.730180	1.021237	0.312143
O16	O	1.228050	0.309380	-0.399742
O17	O	1.561383	0.642713	-0.066409
O18	O	1.894716	0.976047	0.266925
O19	O	1.108651	0.399817	-0.190013
O20	O	1.441984	0.733150	0.143320
O21	O	1.775317	1.066484	0.476653
O22	O	1.018386	0.190073	-0.309359
O23	O	1.351719	0.523406	0.023975
O24	O	1.685052	0.856739	0.357308
O25	O	1.227984	0.399800	-0.309326
O26	O	1.561317	0.733133	0.024007
O27	O	1.894651	1.066466	0.357340
O28	O	1.108803	0.190060	-0.399760
O29	O	1.442136	0.523393	-0.066427
O30	O	1.775470	0.856726	0.266906
O31	O	1.018299	0.309410	-0.190027
O32	O	1.351633	0.642743	0.143306
O33	O	1.684966	0.976077	0.476639
O34	O	0.899021	0.309364	-0.309326
O35	O	1.232355	0.642697	0.024008
O36	O	1.565688	0.976031	0.357341
O37	O	1.018332	0.399719	-0.519015
O38	O	1.351665	0.733052	-0.185682
O39	O	1.684998	1.066386	0.147652
O40	O	0.898998	0.399736	-0.399702
O41	O	1.232331	0.733069	-0.066369
O42	O	1.565665	1.066403	0.266965
O43	O	1.108772	0.309334	-0.519040
O44	O	1.442105	0.642667	-0.185707
O45	O	1.775439	0.976001	0.147626
O46	O	1.108620	0.519091	-0.309293
O47	O	1.441953	0.852424	0.024040
O48	O	1.775286	1.185758	0.357373
O49	O	1.018245	0.519056	-0.399684
O50	O	1.351578	0.852390	-0.066350
O51	O	1.684912	1.185723	0.266983
C52	C	0.872307	0.354547	-0.354513
C53	C	1.205640	0.687881	-0.021179
C54	C	1.538974	1.021214	0.312154
C55	C	0.790508	0.354555	-0.354525
C56	C	1.123842	0.687889	-0.021192
C57	C	1.457175	1.021222	0.312141
C58	C	0.525458	0.401704	-0.401518
C59	C	0.858791	0.735037	-0.068185
C60	C	1.192124	1.068371	0.265148
C61	C	0.602316	0.401698	-0.401515
C62	C	0.935650	0.735031	-0.068182
C63	C	1.268983	1.068364	0.265152
C64	C	0.602310	0.307452	-0.307542
C65	C	0.935644	0.640786	0.025791
C66	C	1.268977	0.974119	0.359124
C67	C	0.525453	0.307463	-0.307543
C68	C	0.858786	0.640796	0.025790
C69	C	1.192120	0.974130	0.359124
C70	C	0.487029	0.354588	-0.354535
C71	C	0.820362	0.687921	-0.021202
C72	C	1.153695	1.021254	0.312132
C73	C	0.640745	0.354571	-0.354531
C74	C	0.974078	0.687904	-0.021198
C75	C	1.307411	1.021238	0.312136
C76	C	0.724078	0.354564	-0.354527
C77	C	1.057412	0.687897	-0.021194
C78	C	1.390745	1.021230	0.312140
C79	C	0.403690	0.354596	-0.354538
C80	C	0.737023	0.687929	-0.021205
C81	C	1.070356	1.021263	0.312128
C82	C	1.063439	0.545776	-0.354499
C83	C	1.396773	0.879110	-0.021165
C84	C	1.730106	1.212443	0.312168
C85	C	1.063475	0.627575	-0.354513
C86	C	1.396808	0.960908	-0.021179
C87	C	1.730141	1.294242	0.312154
C88	C	1.063558	0.354519	-0.546477
C89	C	1.396892	0.687853	-0.213144
C90	C	1.730225	1.021186	0.120190
C91	C	1.063577	0.354498	-0.628276
C92	C	1.396911	0.687831	-0.294943
C93	C	1.730244	1.021164	0.038391
C94	C	1.255466	0.354593	-0.354536
C95	C	1.588800	0.687926	-0.021202
C96	C	1.922133	1.021260	0.312131
C97	C	1.337265	0.354603	-0.354541
C98	C	1.670598	0.687936	-0.021207
C99	C	2.003932	1.021270	0.312126
C100	C	1.110647	0.815763	-0.307543
C101	C	1.443980	1.149096	0.025791
C102	C	1.777314	1.482429	0.359124
C103	C	1.110681	0.892621	-0.307565
C104	C	1.444015	1.225955	0.025769
C105	C	1.777348	1.559288	0.359102
C106	C	1.016492	0.892625	-0.401611
C107	C	1.349826	1.225958	-0.068278
C108	C	1.683159	1.559292	0.265056
C109	C	1.016462	0.815768	-0.401592
C110	C	1.349796	1.149101	-0.068259
C111	C	1.683129	1.482434	0.265074
C112	C	1.063539	0.777339	-0.354554
C113	C	1.396872	1.110672	-0.021221
C114	C	1.730205	1.444005	0.312113
C115	C	1.063603	0.931055	-0.354595
C116	C	1.396936	1.264388	-0.021261
C117	C	1.730270	1.597721	0.312072
C118	C	1.063640	1.014388	-0.354619
C119	C	1.396973	1.347722	-0.021285
C120	C	1.730306	1.681055	0.312048
C121	C	1.063503	0.694000	-0.354531
C122	C	1.396836	1.027333	-0.021197
C123	C	1.730169	1.360666	0.312136
C124	C	1.063613	1.162617	-0.354579
C125	C	1.396946	1.495950	-0.021245
C126	C	1.730279	1.829284	0.312088
C127	C	1.063667	1.080818	-0.354636
C128	C	1.397000	1.414151	-0.021303
C129	C	1.730333	1.747485	0.312031
C130	C	1.110687	0.307390	-0.816484
C131	C	1.444020	0.640723	-0.483151
C132	C	1.777353	0.974057	-0.149818
C133	C	1.110695	0.307369	-0.893343
C134	C	1.444029	0.640702	-0.560010
C135	C	1.777362	0.974035	-0.226676
C136	C	1.016520	0.401491	-0.893306
C137	C	1.349853	0.734825	-0.559972
C138	C	1.683187	1.068158	-0.226639
C139	C	1.016508	0.401509	-0.816448
C140	C	1.349841	0.734842	-0.483115
C141	C	1.683175	1.068175	-0.149782
C142	C	1.063596	0.354459	-0.778040
C143	C	1.396929	0.687792	-0.444706
C144	C	1.730262	1.021126	-0.111373
C145	C	1.063616	0.354420	-0.931756
C146	C	1.396950	0.687754	-0.598422
C147	C	1.730283	1.021087	-0.265089
C148	C	1.063625	0.354397	-1.015089
C149	C	1.396959	0.687731	-0.681756
C150	C	1.730292	1.021064	-0.348423
C151	C	1.063586	0.354481	-0.694701
C152	C	1.396919	0.687814	-0.361367
C153	C	1.730252	1.021147	-0.028034
C154	C	1.063511	0.354567	-0.163318
C155	C	1.396844	0.687901	0.170016
C156	C	1.730178	1.021234	0.503349
C157	C	1.063635	0.354382	-0.081519
C158	C	1.396968	0.687715	0.251814
C159	C	1.730301	1.021048	0.585147
H160	H	0.633605	0.269084	-0.269284
H161	H	0.966938	0.602418	0.064049
H162	H	1.300271	0.935751	0.397383
O163	O	0.965740	0.452240	-0.934735
O164	O	1.299073	0.785573	-0.601401
O165	O	1.632406	1.118906	-0.268068
H166	H	0.907985	0.439609	-0.919982
H167	H	1.241318	0.772943	-0.586649
H168	H	1.574652	1.106276	-0.253316
H169	H	1.149043	0.923903	-0.269284
H170	H	1.482376	1.257236	0.064049
H171	H	1.815709	1.590570	0.397382
H172	H	1.148980	0.784475	-0.269242
H173	H	1.482314	1.117809	0.064091
H174	H	1.815647	1.451142	0.397424
O175	O	0.483996	0.256640	-0.256868
O176	O	0.817329	0.589973	0.076465
O177	O	1.150662	0.923307	0.409798
H178	H	0.523625	0.223861	-0.224200
H179	H	0.856958	0.557194	0.109133
H180	H	1.190292	0.890527	0.442466
O181	O	0.965704	0.934072	-0.452330
O182	O	1.299038	1.267406	-0.118997
O183	O	1.632371	1.600739	0.214336
H184	H	0.973630	0.993972	-0.444438
H185	H	1.306963	1.327305	-0.111105
H186	H	1.640296	1.660639	0.222229
H187	H	0.978101	0.784481	-0.439878
H188	H	1.311434	1.117814	-0.106545
H189	H	1.644768	1.451147	0.226789
H190	H	1.149026	0.269077	-0.785214
H191	H	1.482360	0.602411	-0.451881
H192	H	1.815693	0.935744	-0.118547
H193	H	0.978156	0.439837	-0.785146
H194	H	1.311489	0.773170	-0.451812
H195	H	1.644822	1.106504	-0.118479
O196	O	1.161483	0.256603	-0.934816
O197	O	1.494816	0.589936	-0.601483
O198	O	1.828150	0.923270	-0.268149
H199	H	1.219236	0.269238	-0.920080
H200	H	1.552569	0.602571	-0.586747
H201	H	1.885902	0.935904	-0.253414
O202	O	0.484011	0.452586	-0.452142
O203	O	0.817344	0.785919	-0.118809
O204	O	1.150677	1.119252	0.214524
H205	H	0.523648	0.485371	-0.484788
H206	H	0.856982	0.818704	-0.151455
H207	H	1.190315	1.152037	0.181879
H208	H	0.633602	0.440065	-0.439773
H209	H	0.966935	0.773399	-0.106439
H210	H	1.300269	1.106732	0.226894
