data_functionalizedCrystal
_audit_creation_method	'MofGen! by Chris Wilmer'
_symmetry_space_group_name_H-M	'P1'
_symmetry_Int_Tables_number	1
_symmetry_cell_setting	triclinic
loop_
_symmetry_equiv_pos_as_xyz
  x,y,z
_cell_length_a	19.288864
_cell_length_b	11.792241
_cell_length_c	17.766277
_cell_angle_alpha	89.993523
_cell_angle_beta	89.976791
_cell_angle_gamma	83.664831
loop_
_atom_site_label
_atom_site_type_symbol
_atom_site_fract_x
_atom_site_fract_y
_atom_site_fract_z
O1	O	0.922157	0.141582	-0.062836
O2	O	0.720005	0.160681	-0.062785
O3	O	0.825987	-0.014113	-0.062806
O4	O	0.816176	0.316377	-0.062814
O5	O	0.825968	-0.014122	0.062382
O6	O	0.719986	0.160673	0.062404
O7	O	0.922139	0.141573	0.062352
Cu8	Cu	0.821061	0.151122	0.073809
Cu9	Cu	0.821083	0.151133	-0.074241
O10	O	0.816157	0.316368	0.062374
C11	C	0.694116	0.160063	-0.000184
C12	C	0.617002	0.158218	-0.000164
C13	C	0.572888	0.260779	-0.000178
C14	C	0.500431	0.259046	-0.000187
C15	C	0.472091	0.154746	-0.000196
C16	C	0.516215	0.052171	-0.000177
C17	C	0.588670	0.053907	-0.000161
C18	C	0.363370	0.072757	-0.044078
C19	C	0.290916	0.071025	-0.044099
C20	C	0.248615	0.149387	-0.000241
C21	C	0.278776	0.229499	0.043627
C22	C	0.351232	0.231235	0.043643
C23	C	0.393526	0.152852	-0.000212
C24	C	0.125935	0.250076	-0.000263
C25	C	0.053477	0.248339	-0.000267
C26	C	0.069262	0.041460	-0.000265
C27	C	0.141718	0.043201	-0.000254
C28	C	0.170050	0.147512	-0.000257
C29	C	0.825361	-0.056399	-0.000212
C30	C	0.823517	-0.182385	-0.000212
C31	C	0.820125	-0.413045	-0.000224
C32	C	0.822009	-0.284689	-0.000218
C33	C	0.948028	0.142192	-0.000250
C34	C	1.025142	0.144037	-0.000275
C35	C	0.816783	0.358654	-0.000222
C36	C	0.818627	0.484640	-0.000226
N37	N	0.821050	0.151114	0.177939
N38	N	0.821099	0.151132	-0.178371
C39	C	0.867994	0.073753	0.217316
C40	C	0.867998	0.073748	0.296118
C41	C	0.821065	0.151123	0.335540
C42	C	0.774112	0.228490	0.296153
C43	C	0.774105	0.228486	0.217353
C44	C	0.812354	0.254534	0.460377
C45	C	0.812366	0.254540	0.539175
C46	C	0.821084	0.151137	0.578586
C47	C	0.829804	0.047723	0.539188
C48	C	0.829797	0.047719	0.460388
C49	C	0.821067	0.151136	0.420985
C50	C	0.868035	0.073764	0.703409
C51	C	0.868034	0.073757	0.782213
C52	C	0.774151	0.228509	0.782246
C53	C	0.774148	0.228506	0.703444
C54	C	0.821094	0.151135	0.664030
H55	H	0.046188	-0.043463	-0.000319
H56	H	0.735876	0.291484	0.185291
H57	H	0.149004	0.335012	-0.000255
H58	H	0.595951	0.345717	-0.000182
C59	C	0.258308	-0.016077	-0.091745
C60	C	0.310860	-0.084363	-0.130125
C61	C	0.280851	-0.164627	-0.174015
H62	H	0.227078	0.022342	-0.127082
H63	H	0.233540	-0.062639	-0.060139
H64	H	0.335616	-0.037807	-0.161728
H65	H	0.342094	-0.122808	-0.094806
H66	H	0.256084	-0.211189	-0.142410
H67	H	0.249621	-0.126198	-0.209348
H68	H	0.316504	-0.210975	-0.200056
C69	C	0.723043	0.312367	0.338911
C70	C	0.654723	0.294217	0.319800
C71	C	0.607655	0.371450	0.359181
H72	H	0.730769	0.388135	0.326017
H73	H	0.729725	0.301286	0.391489
H74	H	0.648043	0.305308	0.267234
H75	H	0.646974	0.218465	0.332696
H76	H	0.614337	0.360368	0.411759
H77	H	0.615388	0.447213	0.346284
H78	H	0.561295	0.359139	0.346225
H79	H	0.805270	0.338745	0.571247
H80	H	0.836895	-0.036484	0.428313
C81	C	0.919043	-0.010306	0.338747
C82	C	0.960161	-0.078051	0.287364
C83	C	1.007195	-0.155486	0.326603
H84	H	0.893963	-0.057552	0.369507
H85	H	0.948147	0.030376	0.369452
H86	H	0.931061	-0.118730	0.256672
H87	H	0.985256	-0.030836	0.256602
H88	H	1.036298	-0.114804	0.357308
H89	H	0.982109	-0.202724	0.357362
H90	H	1.035103	-0.201453	0.291746
H91	H	0.464507	0.342567	-0.000196
H92	H	0.375786	0.296462	0.079364
H93	H	0.397806	0.008943	-0.079797
C94	C	0.189583	-0.068192	-0.000404
C95	C	0.176766	-0.130997	-0.064824
C96	C	0.220852	-0.233615	-0.064990
H97	H	0.180968	-0.111116	0.043199
H98	H	0.236804	-0.052270	-0.000434
H99	H	0.129556	-0.146921	-0.064786
H100	H	0.185386	-0.088107	-0.108436
H101	H	0.268073	-0.217694	-0.065020
H102	H	0.212233	-0.276530	-0.021385
H103	H	0.212166	-0.276236	-0.108701
H104	H	0.017560	0.331860	-0.000274
H105	H	0.493136	-0.032752	-0.000195
H106	H	0.805242	0.338743	0.428295
H107	H	0.906259	0.010759	0.671318
C108	C	0.232950	0.314872	0.091135
C109	C	0.242232	0.425777	0.068175
C110	C	0.200049	0.504499	0.111906
H111	H	0.245540	0.305366	0.142618
H112	H	0.185443	0.302557	0.084879
H113	H	0.289729	0.438088	0.074437
H114	H	0.229638	0.435320	0.016698
H115	H	0.152542	0.492184	0.105650
H116	H	0.212643	0.494983	0.163386
H117	H	0.206336	0.579757	0.096329
C118	C	0.636454	-0.057574	-0.000190
C119	C	0.596131	-0.149292	-0.000216
C120	C	0.640127	-0.252006	-0.000255
H121	H	0.665041	-0.061362	0.043458
H122	H	0.665057	-0.061254	-0.043860
H123	H	0.567540	-0.145614	0.043450
H124	H	0.567546	-0.145542	-0.043860
H125	H	0.668730	-0.255685	-0.043924
H126	H	0.668711	-0.255782	0.043394
H127	H	0.612774	-0.314248	-0.000279
H128	H	0.836902	-0.036478	0.571275
C129	C	0.919084	-0.010290	0.824832
C130	C	0.960206	-0.078022	0.773445
C131	C	1.007249	-0.155446	0.812680
H132	H	0.894012	-0.057547	0.855593
H133	H	0.948185	0.030399	0.855537
H134	H	0.931110	-0.118708	0.742754
H135	H	0.985294	-0.030796	0.742683
H136	H	1.036350	-0.114758	0.843384
H137	H	0.982171	-0.202695	0.843439
H138	H	1.035160	-0.201405	0.777820
H139	H	0.735934	0.291505	0.814342
C140	C	0.723154	0.312638	0.660822
C141	C	0.682064	0.380421	0.712209
C142	C	0.635083	0.457947	0.672974
H143	H	0.694022	0.272063	0.630099
H144	H	0.748296	0.359841	0.630080
H145	H	0.656923	0.333224	0.742938
H146	H	0.711177	0.421021	0.742934
H147	H	0.660225	0.505150	0.642232
H148	H	0.605956	0.417362	0.642252
H149	H	0.607202	0.503954	0.707833
H150	H	0.906219	0.010750	0.185228
