data_functionalizedCrystal
_audit_creation_method	'MofGen! by Chris Wilmer'
_symmetry_space_group_name_H-M	'P1'
_symmetry_Int_Tables_number	1
_symmetry_cell_setting	triclinic
loop_
_symmetry_equiv_pos_as_xyz
  x,y,z
_cell_length_a	14.044220
_cell_length_b	16.176319
_cell_length_c	17.699092
_cell_angle_alpha	90.001079
_cell_angle_beta	88.237623
_cell_angle_gamma	89.997191
loop_
_atom_site_label
_atom_site_type_symbol
_atom_site_fract_x
_atom_site_fract_y
_atom_site_fract_z
O1	O	1.257298	-0.068653	0.182437
O2	O	1.590631	0.264680	0.515770
O3	O	1.923965	0.598014	0.849103
O4	O	0.981344	-0.068674	0.175853
O5	O	1.314677	0.264659	0.509187
O6	O	1.648010	0.597993	0.842520
O7	O	1.127113	-0.068661	0.069494
O8	O	1.460446	0.264672	0.402827
O9	O	1.793780	0.598006	0.736160
O10	O	1.111528	-0.068666	0.288796
O11	O	1.444862	0.264667	0.622129
O12	O	1.778195	0.598001	0.955463
O13	O	1.127091	0.068832	0.069499
O14	O	1.460424	0.402165	0.402832
O15	O	1.793758	0.735499	0.736165
O16	O	0.981322	0.068819	0.175858
O17	O	1.314655	0.402152	0.509191
O18	O	1.647988	0.735486	0.842525
O19	O	1.257276	0.068840	0.182442
O20	O	1.590609	0.402174	0.515775
O21	O	1.923943	0.735507	0.849108
Cu22	Cu	1.119297	0.081384	0.179150
Cu23	Cu	1.452630	0.414717	0.512484
Cu24	Cu	1.785963	0.748051	0.845817
Cu25	Cu	1.119323	-0.081218	0.179144
Cu26	Cu	1.452656	0.252116	0.512478
Cu27	Cu	1.785989	0.585449	0.845811
O28	O	1.111506	0.068827	0.288801
O29	O	1.444840	0.402161	0.622134
O30	O	1.778173	0.735494	0.955468
C31	C	0.946025	0.000070	0.172974
C32	C	1.279358	0.333403	0.506307
C33	C	1.612691	0.666736	0.839641
C34	C	0.840818	0.000062	0.164378
C35	C	1.174152	0.333395	0.497711
C36	C	1.507485	0.666728	0.831045
N37	N	1.119342	-0.195583	0.179135
N38	N	1.452675	0.137750	0.512468
N39	N	1.786008	0.471084	0.845802
C40	C	1.126542	0.000084	0.041261
C41	C	1.459876	0.333418	0.374594
C42	C	1.793209	0.666751	0.707927
C43	C	1.124863	0.000080	-0.042873
C44	C	1.458196	0.333414	0.290460
C45	C	1.791530	0.666747	0.623794
C46	C	0.648193	0.000078	0.148663
C47	C	0.981526	0.333412	0.481996
C48	C	1.314859	0.666745	0.815329
C49	C	0.590421	0.000081	0.209629
C50	C	0.923755	0.333414	0.542962
C51	C	1.257088	0.666747	0.876295
C52	C	0.483238	0.000090	0.200884
C53	C	0.816571	0.333423	0.534218
C54	C	1.149904	0.666756	0.867551
C55	C	0.755386	0.000069	0.157406
C56	C	1.088720	0.333402	0.490739
C57	C	1.422053	0.666736	0.824072
C58	C	1.292595	0.000095	0.185321
C59	C	1.625928	0.333428	0.518654
C60	C	1.959261	0.666761	0.851988
C61	C	1.397801	0.000097	0.193917
C62	C	1.731134	0.333431	0.527250
C63	C	2.064468	0.666764	0.860583
N64	N	1.119285	0.195749	0.179154
N65	N	1.452619	0.529082	0.512488
N66	N	1.785952	0.862416	0.845821
C67	C	1.183896	0.761137	0.132058
C68	C	1.517230	1.094471	0.465391
C69	C	1.850563	1.427804	0.798725
C70	C	1.183892	0.674590	0.132063
C71	C	1.517226	1.007924	0.465396
C72	C	1.850559	1.341257	0.798730
C73	C	1.119328	0.631324	0.179141
C74	C	1.452661	0.964658	0.512475
C75	C	1.785995	1.297991	0.845808
C76	C	1.054770	0.674610	0.226224
C77	C	1.388104	1.007943	0.559557
C78	C	1.721437	1.341277	0.892890
C79	C	1.054780	0.761156	0.226222
C80	C	1.388113	1.094489	0.559555
C81	C	1.721446	1.427822	0.892889
C82	C	1.054732	0.325582	0.226232
C83	C	1.388065	0.658915	0.559565
C84	C	1.721398	0.992249	0.892898
C85	C	1.054725	0.239030	0.226228
C86	C	1.388059	0.572364	0.559561
C87	C	1.721392	0.905697	0.892894
C88	C	1.183844	0.239017	0.132072
C89	C	1.517178	0.572350	0.465406
C90	C	1.850511	0.905683	0.798739
C91	C	1.183854	0.325562	0.132071
C92	C	1.517187	0.658895	0.465404
C93	C	1.850520	0.992229	0.798738
C94	C	1.119300	0.368840	0.179156
C95	C	1.452633	0.702174	0.512489
C96	C	1.785966	1.035507	0.845822
C97	C	1.119306	0.462684	0.179151
C98	C	1.452640	0.796018	0.512484
C99	C	1.785973	1.129351	0.845817
C100	C	1.119316	0.537482	0.179143
C101	C	1.452650	0.870815	0.512476
C102	C	1.785983	1.204149	0.845810
C103	C	1.124088	-0.074868	-0.082397
C104	C	1.457422	0.258465	0.250936
C105	C	1.790755	0.591798	0.584269
C106	C	1.122504	-0.074869	-0.161450
C107	C	1.455838	0.258464	0.171884
C108	C	1.789171	0.591797	0.505217
C109	C	1.121702	0.000079	-0.200976
C110	C	1.455035	0.333412	0.132357
C111	C	1.788369	0.666746	0.465690
C112	C	1.122474	0.075033	-0.161446
C113	C	1.455807	0.408367	0.171887
C114	C	1.789141	0.741700	0.505220
C115	C	1.124051	0.075034	-0.082395
C116	C	1.457384	0.408367	0.250938
C117	C	1.790718	0.741700	0.584271
C118	C	1.116112	0.075034	-0.480250
C119	C	1.449446	0.408367	-0.146917
C120	C	1.782779	0.741701	0.186417
C121	C	1.114538	0.075028	-0.559307
C122	C	1.447871	0.408361	-0.225973
C123	C	1.781205	0.741695	0.107360
C124	C	1.114566	-0.074869	-0.559304
C125	C	1.447899	0.258464	-0.225971
C126	C	1.781232	0.591798	0.107362
C127	C	1.116143	-0.074869	-0.480253
C128	C	1.449476	0.258465	-0.146920
C129	C	1.782809	0.591798	0.186413
C130	C	1.116910	0.000085	-0.440730
C131	C	1.450243	0.333418	-0.107397
C132	C	1.783576	0.666752	0.225937
C133	C	1.118625	0.000085	-0.355013
C134	C	1.451959	0.333419	-0.021679
C135	C	1.785292	0.666752	0.311654
C136	C	1.119993	0.000080	-0.286692
C137	C	1.453327	0.333413	0.046641
C138	C	1.786660	0.666746	0.379974
C139	C	1.112077	0.000080	0.317034
C140	C	1.445411	0.333413	0.650367
C141	C	1.778744	0.666747	0.983701
C142	C	1.113756	0.000079	0.401168
C143	C	1.447090	0.333412	0.734501
C144	C	1.780423	0.666745	1.067834
H145	H	0.621459	0.000075	0.268390
H146	H	0.954793	0.333408	0.601724
H147	H	1.288126	0.666742	0.935057
N148	N	0.609249	0.000086	0.074956
N149	N	0.942582	0.333419	0.408289
N150	N	1.275915	0.666753	0.741622
N151	N	0.520969	0.000092	0.067869
N152	N	0.854303	0.333426	0.401203
N153	N	1.187636	0.666759	0.734536
H154	H	0.493454	0.000096	0.015814
H155	H	0.826787	0.333429	0.349148
H156	H	1.160120	0.666762	0.682481
H157	H	1.121878	-0.135900	-0.193627
H158	H	1.455211	0.197433	0.139706
H159	H	1.788544	0.530767	0.473040
N160	N	1.249847	0.805316	0.083956
N161	N	1.583181	1.138649	0.417290
N162	N	1.916514	1.471982	0.750623
N163	N	1.307481	0.766659	0.041927
N164	N	1.640814	1.099992	0.375261
N165	N	1.974147	1.433325	0.708594
H166	H	1.354062	0.797857	0.007954
H167	H	1.687396	1.131190	0.341288
H168	H	2.020729	1.464523	0.674621
H169	H	1.236458	0.639352	0.093730
H170	H	1.569792	0.972686	0.427063
H171	H	1.903125	1.306019	0.760397
N172	N	1.249736	0.194792	0.083943
N173	N	1.583069	0.528126	0.417276
N174	N	1.916403	0.861459	0.750610
N175	N	1.248528	0.204459	0.013910
N176	N	1.581862	0.537793	0.347244
N177	N	1.915195	0.871126	0.680577
H178	H	1.295039	0.173218	-0.020094
H179	H	1.628373	0.506551	0.313240
H180	H	1.961706	0.839885	0.646573
H181	H	1.236425	0.360787	0.093733
H182	H	1.569758	0.694120	0.427066
H183	H	1.903091	1.027453	0.760399
N184	N	1.113689	0.151590	-0.599682
N185	N	1.447023	0.484924	-0.266349
N186	N	1.780356	0.818257	0.066984
N187	N	1.046023	0.168296	-0.641326
N188	N	1.379357	0.501629	-0.307993
N189	N	1.712690	0.834962	0.025341
H190	H	1.045422	0.222365	-0.669842
H191	H	1.378756	0.555698	-0.336509
H192	H	1.712089	0.889031	-0.003175
N193	N	1.124889	-0.151428	-0.042026
N194	N	1.458222	0.181905	0.291308
N195	N	1.791555	0.515238	0.624641
N196	N	1.058989	-0.168157	0.004550
N197	N	1.392323	0.165176	0.337883
N198	N	1.725656	0.498510	0.671217
H199	H	1.059550	-0.222230	0.033061
H200	H	1.392884	0.111103	0.366395
H201	H	1.726217	0.444437	0.699728
H202	H	1.002168	0.360812	0.264568
H203	H	1.335501	0.694145	0.597901
H204	H	1.668835	1.027479	0.931235
H205	H	1.002148	0.203805	0.264567
H206	H	1.335481	0.537138	0.597901
H207	H	1.668814	0.870471	0.931234
N208	N	0.988832	0.630405	0.274315
N209	N	1.322165	0.963739	0.607648
N210	N	1.655499	1.297072	0.940982
N211	N	0.988831	0.553133	0.274310
N212	N	1.322164	0.886467	0.607644
N213	N	1.655497	1.219800	0.940977
H214	H	0.942259	0.521913	0.308275
H215	H	1.275592	0.855247	0.641608
H216	H	1.608926	1.188580	0.974942
N217	N	0.988833	0.805355	0.274316
N218	N	1.322167	1.138688	0.607649
N219	N	1.655500	1.472021	0.940983
N220	N	0.931190	0.766717	0.316346
N221	N	1.264523	1.100051	0.649680
N222	N	1.597857	1.433384	0.983013
H223	H	0.884614	0.797931	0.350316
H224	H	1.217948	1.131265	0.683650
H225	H	1.551281	1.464598	1.016983
N226	N	1.116922	0.151593	-0.439883
N227	N	1.450255	0.484926	-0.106550
N228	N	1.783589	0.818259	0.226783
N229	N	1.184579	0.168322	-0.398239
N230	N	1.517912	0.501655	-0.064906
N231	N	1.851245	0.834989	0.268427
H232	H	1.185153	0.222395	-0.369726
H233	H	1.518486	0.555728	-0.036393
H234	H	1.851819	0.889061	0.296941
H235	H	1.116801	-0.135899	-0.448075
H236	H	1.450134	0.197434	-0.114742
H237	H	1.783467	0.530767	0.218592
H238	H	1.113936	-0.135900	-0.591494
H239	H	1.447270	0.197433	-0.258160
H240	H	1.780603	0.530767	0.075173
H241	H	1.121815	0.136058	-0.193635
H242	H	1.455148	0.469391	0.139698
H243	H	1.788482	0.802724	0.473032
H244	H	1.124669	0.136064	-0.050215
H245	H	1.458002	0.469398	0.283118
H246	H	1.791335	0.802731	0.616452
