data_functionalizedCrystal
_audit_creation_method	'MofGen! by Chris Wilmer'
_symmetry_space_group_name_H-M	'P1'
_symmetry_Int_Tables_number	1
_symmetry_cell_setting	triclinic
loop_
_symmetry_equiv_pos_as_xyz
  x,y,z
_cell_length_a	10.723024
_cell_length_b	17.699083
_cell_length_c	16.176319
_cell_angle_alpha	90.007696
_cell_angle_beta	89.993811
_cell_angle_gamma	96.124558
loop_
_atom_site_label
_atom_site_type_symbol
_atom_site_fract_x
_atom_site_fract_y
_atom_site_fract_z
O1	O	1.655373	-0.106155	-0.068726
O2	O	1.292047	-0.116315	-0.068733
O3	O	1.483975	-0.001110	-0.068722
O4	O	1.463445	-0.221359	-0.068737
O5	O	1.483949	-0.001103	0.068772
O6	O	1.292020	-0.116308	0.068761
O7	O	1.655347	-0.106147	0.068767
Cu8	Cu	1.473681	-0.111227	0.081318
Cu9	Cu	1.473712	-0.111236	-0.081283
O10	O	1.463419	-0.221352	0.068757
C11	C	1.245547	-0.115572	0.000013
C12	C	1.107030	-0.113360	0.000011
C13	C	1.701847	-0.106890	0.000020
C14	C	1.840363	-0.109102	0.000017
N15	N	1.473668	-0.111220	0.195684
C16	C	1.916451	-0.044640	0.000020
C17	C	2.059616	-0.046925	0.000017
C18	C	1.483226	0.027095	0.000025
C19	C	1.481019	0.111127	0.000025
C20	C	1.464168	-0.249557	0.000008
C21	C	1.466374	-0.333589	0.000002
C22	C	1.593677	0.159037	0.000029
C23	C	1.591596	0.237994	0.000021
C24	C	1.476856	0.269038	0.000017
C25	C	1.364189	0.221122	0.000011
C26	C	1.366272	0.142167	0.000012
C27	C	1.355789	0.539538	0.000004
C28	C	1.353715	0.618499	0.000005
C29	C	1.581113	0.635365	0.000013
C30	C	1.583196	0.556410	0.000014
C31	C	1.470530	0.508500	0.000004
C32	C	1.472788	0.422887	0.000011
C33	C	1.474597	0.354650	0.000016
N34	N	1.473735	-0.111236	-0.195649
C35	C	1.558680	-0.060228	0.238953
C36	C	1.558686	-0.060228	0.325500
C37	C	1.473686	-0.111223	0.368776
C38	C	1.388666	-0.162217	0.325501
C39	C	1.388654	-0.162213	0.238956
C40	C	1.388708	-0.162231	0.674529
C41	C	1.388729	-0.162232	0.761081
C42	C	1.558740	-0.060246	0.761073
C43	C	1.558729	-0.060242	0.674528
C44	C	1.473705	-0.111233	0.631260
C45	C	1.473697	-0.111232	0.537416
C46	C	1.473699	-0.111228	0.462619
H47	H	1.875604	0.012240	0.000038
H48	H	1.672851	0.674383	0.000017
O49	O	1.641033	-0.010562	0.632467
C50	C	1.667556	0.092877	0.535030
C51	C	1.574274	0.036570	0.582551
H52	H	1.613619	0.131008	0.494674
H53	H	1.729916	0.060063	0.494372
H54	H	1.728205	0.129281	0.580918
H55	H	1.513543	0.000152	0.536723
H56	H	1.512002	0.069430	0.623222
H57	H	1.683333	0.277000	0.000026
H58	H	1.627968	-0.018724	0.796311
O59	O	1.694545	0.526129	0.000053
C60	C	1.798532	0.411970	-0.000002
C61	C	1.672340	0.446160	-0.000021
H62	H	1.780623	0.347311	-0.000079
H63	H	1.854207	0.431604	0.057551
H64	H	1.854196	0.431693	-0.057531
H65	H	1.616574	0.426454	0.057469
H66	H	1.616760	0.426530	-0.057612
H67	H	2.124994	0.008260	0.000014
O68	O	1.889024	-0.176982	0.000155
C69	C	1.903260	-0.295337	0.071346
C70	C	1.848096	-0.218481	0.071304
H71	H	1.870170	-0.328918	0.128855
H72	H	2.010046	-0.285132	0.071398
H73	H	1.870331	-0.328882	0.013776
H74	H	1.880929	-0.184896	0.128864
H75	H	1.741315	-0.228741	0.071209
H76	H	2.041659	-0.168548	0.000005
H77	H	1.260275	0.643772	0.000003
H78	H	1.274534	0.103158	0.000009
H79	H	1.627908	-0.018706	0.360729
O80	O	1.306026	-0.211795	0.802993
C81	C	1.137422	-0.312975	0.793873
C82	C	1.230987	-0.256879	0.746304
H83	H	1.076747	-0.349451	0.748061
H84	H	1.075124	-0.279985	0.834385
H85	H	1.191199	-0.351055	0.834398
H86	H	1.177313	-0.218786	0.705734
H87	H	1.293284	-0.289916	0.705844
O88	O	1.306303	-0.211805	0.632420
C89	C	1.279418	-0.315066	0.534748
C90	C	1.372878	-0.258947	0.582371
H91	H	1.333207	-0.353205	0.494285
H92	H	1.217183	-0.282095	0.494186
H93	H	1.218660	-0.351479	0.580569
H94	H	1.433719	-0.222520	0.536610
H95	H	1.435026	-0.291964	0.622945
H96	H	1.687112	0.133768	0.000038
O97	O	1.246235	0.493114	0.000042
C98	C	1.020460	0.484724	-0.000001
C99	C	1.144443	0.537391	-0.000028
H100	H	0.938129	0.520500	-0.000075
H101	H	1.015654	0.447360	0.057555
H102	H	1.015818	0.447314	-0.057527
H103	H	1.149168	0.574848	0.057459
H104	H	1.149197	0.574703	-0.057622
H105	H	1.627902	-0.018706	0.203722
H106	H	1.270766	0.246404	0.000002
H107	H	1.319451	-0.203735	0.360742
H108	H	1.319428	-0.203735	0.203727
