data_functionalizedCrystal
_audit_creation_method	'MofGen! by Chris Wilmer'
_symmetry_space_group_name_H-M	'P1'
_symmetry_Int_Tables_number	1
_symmetry_cell_setting	triclinic
loop_
_symmetry_equiv_pos_as_xyz
  x,y,z
_cell_length_a	16.109301
_cell_length_b	10.654550
_cell_length_c	15.186229
_cell_angle_alpha	89.997420
_cell_angle_beta	89.999006
_cell_angle_gamma	83.973243
loop_
_atom_site_label
_atom_site_type_symbol
_atom_site_fract_x
_atom_site_fract_y
_atom_site_fract_z
O1	O	1.104090	0.161420	-0.073178
O2	O	0.862148	0.181508	-0.073190
O3	O	0.988682	-0.011350	-0.073180
O4	O	0.977556	0.354279	-0.073187
O5	O	0.988673	-0.011353	0.073277
O6	O	0.862139	0.181506	0.073267
O7	O	1.104082	0.161418	0.073279
Zn8	Zn	0.983109	0.171461	0.096527
Zn9	Zn	0.983120	0.171465	-0.096437
O10	O	0.977548	0.354276	0.073270
C11	C	0.831164	0.180693	0.000037
C12	C	0.738854	0.178254	0.000032
C13	C	0.430489	0.284717	0.000046
C14	C	0.517223	0.287021	0.000041
C15	C	0.535735	0.058200	0.000033
C16	C	0.449003	0.055898	0.000032
C17	C	0.396381	0.169160	0.000043
C18	C	0.569848	0.173766	0.000039
C19	C	0.663889	0.176264	0.000033
C20	C	0.302335	0.166663	0.000047
C21	C	0.987861	-0.058139	0.000047
C22	C	0.985417	-0.197549	0.000044
C23	C	1.059918	-0.278045	0.000050
C24	C	1.057616	-0.409035	0.000044
C25	C	0.906306	-0.379019	0.000029
C26	C	0.908608	-0.248032	0.000029
C27	C	1.136726	-0.227562	0.000066
C28	C	1.211233	-0.308060	0.000073
C29	C	1.208932	-0.439049	0.000067
C30	C	1.132123	-0.489541	0.000053
C31	C	1.135066	0.162233	0.000050
C32	C	1.227375	0.164673	0.000049
C33	C	0.978369	0.401065	0.000040
C34	C	0.980813	0.540475	0.000038
N35	N	0.983107	0.171458	0.228219
N36	N	0.983128	0.171458	-0.228130
C37	C	1.039156	0.086089	0.453946
C38	C	1.039159	0.086086	0.546136
C39	C	0.927074	0.256831	0.546137
C40	C	0.927068	0.256827	0.453949
C41	C	0.983114	0.171458	0.407856
C42	C	0.983122	0.171459	0.592234
C43	C	0.983125	0.171456	0.692190
C44	C	0.983110	0.171458	0.307893
H45	H	0.387646	0.376942	0.000054
C46	C	0.865420	0.350740	0.403246
H47	H	0.832050	0.401596	0.443899
H48	H	0.830552	0.305548	0.367288
H49	H	0.895632	0.403030	0.367278
H50	H	1.084791	0.016574	0.416420
C51	C	0.593617	-0.066381	0.000023
H52	H	0.560880	-0.135532	0.000012
H53	H	0.627838	-0.070251	0.051095
H54	H	0.627834	-0.070226	-0.051057
C55	C	1.100809	-0.007815	0.596832
H56	H	1.134188	-0.058648	0.556175
H57	H	1.070607	-0.060108	0.632800
H58	H	1.135679	0.037387	0.632788
H59	H	0.881444	0.326339	0.583674
H60	H	1.269599	-0.504588	0.000064
H61	H	0.544988	0.381119	0.000042
C62	C	1.129588	-0.633626	0.000041
H63	H	1.073175	-0.652165	0.000029
H64	H	1.157006	-0.668812	0.051112
H65	H	1.157010	-0.668789	-0.051040
H66	H	0.421234	-0.038208	0.000027
H67	H	1.138608	-0.120905	0.000073
H68	H	1.273768	-0.266940	0.000062
H69	H	0.843772	-0.420140	0.000019
H70	H	0.847943	-0.182489	0.000025
