data_functionalizedCrystal
_audit_creation_method	'MofGen! by Chris Wilmer'
_symmetry_space_group_name_H-M	'P1'
_symmetry_Int_Tables_number	1
_symmetry_cell_setting	triclinic
loop_
_symmetry_equiv_pos_as_xyz
  x,y,z
_cell_length_a	9.065218
_cell_length_b	9.730223
_cell_length_c	10.654551
_cell_angle_alpha	90.001379
_cell_angle_beta	95.249426
_cell_angle_gamma	89.996981
loop_
_atom_site_label
_atom_site_type_symbol
_atom_site_fract_x
_atom_site_fract_y
_atom_site_fract_z
O1	O	1.959392	-0.114286	-0.184158
O2	O	1.530025	-0.114287	-0.199263
O3	O	1.754580	-0.114285	-0.009010
O4	O	1.734837	-0.114288	-0.374410
O5	O	1.754567	0.114295	-0.009008
O6	O	1.530012	0.114293	-0.199260
O7	O	1.959379	0.114294	-0.184155
Zn8	Zn	1.744693	0.150586	-0.191707
Zn9	Zn	1.744711	-0.150578	-0.191711
O10	O	1.734824	0.114292	-0.374408
C11	C	1.475040	0.000003	-0.197810
C12	C	1.311220	0.000002	-0.193469
N13	N	1.744692	0.356122	-0.191704
C14	C	1.844165	0.571941	-0.107493
C15	C	1.844156	0.428058	-0.107494
C16	C	1.645239	0.428076	-0.275927
C17	C	1.645256	0.571957	-0.275932
C18	C	2.014364	0.000001	-0.185608
C19	C	2.178184	-0.000007	-0.189949
C20	C	1.753123	0.000002	0.037795
C21	C	1.748786	-0.000006	0.177255
N22	N	1.744717	0.643885	-0.191707
C23	C	1.746757	-0.124606	0.242766
C24	C	1.742669	-0.124609	0.373802
C25	C	1.742644	0.124602	0.373807
C26	C	1.746722	0.124603	0.242772
C27	C	1.736281	-0.000001	0.578787
C28	C	1.740620	-0.000009	0.439327
H29	H	1.925154	0.630502	-0.038914
C30	C	1.740495	-0.261680	0.445863
N31	N	1.738877	-0.364928	0.500141
C32	C	1.535847	0.651100	-0.368577
N33	N	1.453446	0.710711	-0.438355
H34	H	1.748365	0.226074	0.189431
C35	C	1.740380	0.261663	0.445888
N36	N	1.738677	0.364901	0.500178
C37	C	1.953552	0.348926	-0.014847
N38	N	2.035953	0.289324	0.054939
C39	C	1.535827	0.348941	-0.368559
N40	N	1.453410	0.289338	-0.438328
H41	H	1.748433	-0.226070	0.189425
