data_functionalizedCrystal
_audit_creation_method	'MofGen! by Chris Wilmer'
_symmetry_space_group_name_H-M	'P1'
_symmetry_Int_Tables_number	1
_symmetry_cell_setting	triclinic
loop_
_symmetry_equiv_pos_as_xyz
  x,y,z
_cell_length_a	10.723024
_cell_length_b	9.130313
_cell_length_c	10.723024
_cell_angle_alpha	90.000107
_cell_angle_beta	84.467869
_cell_angle_gamma	89.999953
loop_
_atom_site_label
_atom_site_type_symbol
_atom_site_fract_x
_atom_site_fract_y
_atom_site_fract_z
O1	O	1.657181	0.121786	0.175022
O2	O	1.294029	0.121790	0.191775
O3	O	1.483982	0.121783	0.001822
O4	O	1.467229	0.121794	0.364974
O5	O	1.483980	-0.121816	0.001827
O6	O	1.294027	-0.121808	0.191780
O7	O	1.657179	-0.121813	0.175027
Cu8	Cu	1.475603	-0.144053	0.183404
Cu9	Cu	1.475605	0.144031	0.183398
O10	O	1.467226	-0.121805	0.364980
C11	C	1.247528	-0.000008	0.190558
C12	C	1.108974	-0.000007	0.186911
N13	N	1.475610	-0.346676	0.183407
C14	C	1.033991	-0.000002	0.293198
C15	C	0.890788	-0.000001	0.289431
C16	C	1.559743	-0.423331	0.099325
C17	C	1.559739	-0.576668	0.099310
C18	C	1.391466	-0.576681	0.267471
C19	C	1.391465	-0.423347	0.267479
C20	C	1.643888	-0.346661	0.015254
C21	C	1.728029	-0.423316	-0.068834
C22	C	1.728025	-0.576653	-0.068849
C23	C	1.643881	-0.653334	0.015224
C24	C	1.703680	-0.000011	0.176243
C25	C	1.842234	-0.000003	0.179891
C26	C	1.482762	-0.000015	-0.044675
C27	C	1.479114	-0.000010	-0.183229
N28	N	1.475608	0.346653	0.183384
C29	C	1.585401	-0.000009	-0.258212
C30	C	1.581634	-0.000004	-0.401415
C31	C	1.468447	-0.000004	0.411477
C32	C	1.472094	0.000000	0.550031
H33	H	0.826355	0.000009	0.380421
H34	H	0.906659	0.000003	0.088896
O35	O	1.309567	-0.651101	0.349013
C36	C	1.093214	-0.697969	0.420194
C37	C	1.185823	-0.613625	0.327754
H38	H	0.993147	-0.667678	0.403057
H39	H	1.107562	-0.820746	0.405745
H40	H	1.110385	-0.667848	0.520289
H41	H	1.168708	-0.643624	0.227624
H42	H	1.171453	-0.490870	0.342313
H43	H	1.796527	-0.639064	-0.137325
O44	O	1.363448	0.000196	-0.373246
C45	C	1.170477	0.126449	-0.309355
C46	C	1.293456	0.126391	-0.396347
H47	H	1.113866	0.228482	-0.327983
H48	H	1.113683	0.024577	-0.328039
H49	H	1.192887	0.126373	-0.207567
H50	H	1.271159	0.126519	-0.498165
H51	H	1.350214	0.228255	-0.377555
O52	O	1.309869	-0.348937	0.349331
C53	C	1.238539	-0.302081	0.565651
C54	C	1.331041	-0.386417	0.473097
H55	H	1.255606	-0.332376	0.665735
H56	H	1.252993	-0.179304	0.551316
H57	H	1.138464	-0.332207	0.548406
H58	H	1.431151	-0.356414	0.490284
H59	H	1.316478	-0.509174	0.487452
O60	O	1.697186	-0.000078	-0.208125
C61	C	1.802864	0.000005	-0.019730
C62	C	1.676178	0.000049	-0.076282
H63	H	1.785923	0.000139	0.086872
H64	H	1.858242	-0.101965	-0.052024
H65	H	1.858223	0.101926	-0.052188
H66	H	1.620717	-0.101803	-0.043851
H67	H	1.620895	0.102087	-0.043994
H68	H	1.075814	-0.000008	0.386984
H69	H	1.067152	0.000028	0.093125
H70	H	1.385328	0.000001	-0.225051
O71	O	1.690309	-0.000066	-0.478094
C72	C	1.915950	0.000027	-0.492215
C73	C	1.792967	0.000062	-0.405230
H74	H	1.998981	0.000162	-0.433340
H75	H	1.920035	-0.101940	-0.553835
H76	H	1.919874	0.101951	-0.553880
H77	H	1.788961	-0.101793	-0.343488
H78	H	1.788933	0.102097	-0.343695
O79	O	1.809633	-0.348929	-0.150695
C80	C	1.880938	-0.302149	-0.367034
C81	C	1.788431	-0.386434	-0.274448
H82	H	1.863846	-0.332464	-0.467107
H83	H	1.866516	-0.179364	-0.352722
H84	H	1.981010	-0.332301	-0.349801
H85	H	1.688323	-0.356405	-0.291624
H86	H	1.802963	-0.509199	-0.288781
H87	H	1.643901	-0.221806	0.015261
H88	H	1.643877	-0.778192	0.015196
