data_functionalizedCrystal
_audit_creation_method	'MofGen! by Chris Wilmer'
_symmetry_space_group_name_H-M	'P1'
_symmetry_Int_Tables_number	1
_symmetry_cell_setting	triclinic
loop_
_symmetry_equiv_pos_as_xyz
  x,y,z
_cell_length_a	12.837932
_cell_length_b	15.944493
_cell_length_c	11.295483
_cell_angle_alpha	94.100278
_cell_angle_beta	85.460332
_cell_angle_gamma	89.152373
loop_
_atom_site_label
_atom_site_type_symbol
_atom_site_fract_x
_atom_site_fract_y
_atom_site_fract_z
O1	O	1.382395	0.213275	-0.098997
O2	O	1.080592	0.202486	-0.099000
O3	O	1.239767	0.086264	-0.099008
O4	O	1.223220	0.329497	-0.098989
O5	O	1.225786	0.096454	0.099043
O6	O	1.066611	0.212677	0.099051
O7	O	1.368415	0.223466	0.099055
Cu8	Cu	1.216236	0.219002	0.117137
Cu9	Cu	1.232770	0.206950	-0.117082
O10	O	1.209239	0.339688	0.099063
C11	C	1.034982	0.203937	0.000025
C12	C	0.919907	0.193069	0.000023
C13	C	1.232101	0.060010	0.000012
C14	C	1.230075	-0.033402	-0.000003
C15	C	0.770081	0.102227	0.000018
C16	C	0.878205	0.112434	0.000018
C17	C	0.853475	0.263502	0.000031
C18	C	0.745351	0.253296	0.000030
C19	C	0.703658	0.172655	0.000022
C20	C	0.595532	0.162449	0.000013
C21	C	0.570803	0.313517	0.000034
C22	C	0.678927	0.323724	0.000035
C23	C	1.323767	-0.261665	0.000021
C24	C	1.280134	-0.321299	-0.097629
C25	C	1.226317	-0.204422	0.000012
C26	C	1.266328	-0.311230	0.097634
C27	C	1.222694	-0.369621	0.000031
C28	C	1.182716	-0.262831	-0.097719
C29	C	1.168918	-0.252753	0.097632
C30	C	1.125216	-0.312361	-0.000041
C31	C	1.228407	-0.109256	-0.000000
C32	C	1.220597	-0.464785	0.000034
C33	C	1.414025	0.222014	0.000027
C34	C	1.529101	0.232883	0.000021
C35	C	1.216906	0.365942	0.000039
C36	C	1.218933	0.459353	0.000047
N37	N	1.204615	0.227478	0.281873
N38	N	1.244400	0.198468	-0.281819
C39	C	1.328057	0.137402	0.531157
C40	C	1.319282	0.143814	0.655821
C41	C	1.178285	0.246710	0.655868
C42	C	1.187060	0.240298	0.531204
C43	C	1.261950	0.185643	0.468853
C44	C	1.270729	0.179236	0.344186
C45	C	1.129728	0.282127	0.344236
C46	C	1.120953	0.288539	0.468900
H47	H	0.561589	0.096788	0.000002
O48	O	1.423932	-0.235028	-0.000326
C49	C	1.595716	-0.239953	-0.103665
C50	C	1.482321	-0.270187	-0.103412
H51	H	1.642961	-0.268380	-0.186989
H52	H	1.596311	-0.168425	-0.102904
H53	H	1.631843	-0.260717	-0.021230
H54	H	1.446125	-0.249483	-0.185833
H55	H	1.481797	-0.341713	-0.104112
O56	O	1.343498	0.126076	0.283799
C57	C	1.482456	0.024726	0.296916
C58	C	1.400077	0.084885	0.365447
H59	H	1.528237	-0.008580	0.362899
H60	H	1.441869	-0.023890	0.238590
H61	H	1.538300	0.062165	0.238511
H62	H	1.344209	0.047517	0.423917
H63	H	1.440734	0.133502	0.423698
O64	O	1.400830	0.084249	0.470766
C65	C	1.539808	-0.017086	0.483871
C66	C	1.457421	0.043062	0.552408
H67	H	1.585599	-0.050389	0.549849
H68	H	1.499227	-0.065707	0.425545
H69	H	1.595642	0.020361	0.425465
H70	H	1.401563	0.005686	0.610879
H71	H	1.498072	0.091683	0.610659
O72	O	0.942757	0.044056	0.000218
C73	C	1.071991	-0.026793	0.102772
C74	C	0.998918	0.050681	0.102707
H75	H	1.117432	-0.021455	0.185613
H76	H	1.023661	-0.086203	0.102843
H77	H	1.129033	-0.030050	0.019849
H78	H	0.941861	0.054019	0.185617
H79	H	1.047314	0.110054	0.102575
O80	O	1.336094	-0.356877	-0.196241
C81	C	1.356339	-0.371594	-0.410674
C82	C	1.292882	-0.331238	-0.299102
H83	H	1.321414	-0.350894	-0.493864
H84	H	1.440930	-0.350824	-0.410646
H85	H	1.353611	-0.442998	-0.410100
H86	H	1.295525	-0.259830	-0.299602
H87	H	1.208321	-0.352075	-0.299172
H88	H	1.147419	-0.241554	-0.180362
H89	H	1.041213	-0.334551	-0.000096
H90	H	1.121971	-0.222834	0.180191
O91	O	0.729743	0.023841	0.000052
C92	C	0.765687	-0.124927	-0.000060
C93	C	0.811503	-0.036200	-0.000068
H94	H	0.831768	-0.173496	-0.000182
H95	H	0.709870	-0.129278	0.082840
H96	H	0.721497	-0.137693	-0.082928
H97	H	0.855743	-0.023376	0.082744
H98	H	0.867264	-0.031894	-0.083023
H99	H	1.301676	-0.332619	0.180184
O100	O	1.105397	0.299690	0.716400
C101	C	0.922460	0.336373	0.754557
C102	C	1.004899	0.276307	0.685948
H103	H	0.841190	0.317501	0.729943
H104	H	0.927457	0.332650	0.854372
H105	H	0.937717	0.403483	0.730087
H106	H	0.989695	0.209172	0.710318
H107	H	0.999882	0.280103	0.586150
O108	O	1.048070	0.341529	0.529422
C109	C	0.865140	0.378240	0.567563
C110	C	0.947568	0.318156	0.498971
H111	H	0.783867	0.359376	0.542949
H112	H	0.870131	0.374528	0.667380
H113	H	0.880414	0.445344	0.543076
H114	H	0.932349	0.251026	0.523358
H115	H	0.942557	0.321941	0.399171
H116	H	0.887439	0.329157	0.000048
H117	H	0.712888	0.389379	0.000046
O118	O	0.506187	0.381866	-0.000123
C119	C	0.377063	0.452762	-0.102780
C120	C	0.450171	0.375307	-0.102726
H121	H	0.331771	0.447494	-0.185738
H122	H	0.319899	0.456034	-0.019958
H123	H	0.425461	0.512136	-0.102719
H124	H	0.401859	0.315890	-0.102829
H125	H	0.507338	0.372110	-0.185541
O126	O	1.065604	0.329121	0.283770
C127	C	1.007482	0.468335	0.245733
C128	C	1.080166	0.415213	0.314260
H129	H	1.019214	0.537950	0.270378
H130	H	1.026614	0.454443	0.145906
H131	H	0.922744	0.451927	0.270248
H132	H	1.164928	0.431590	0.289846
H133	H	1.060945	0.429112	0.414071
H134	H	1.373112	0.104530	0.706545
