data_functionalizedCrystal
_audit_creation_method	'MofGen! by Chris Wilmer'
_symmetry_space_group_name_H-M	'P1'
_symmetry_Int_Tables_number	1
_symmetry_cell_setting	triclinic
loop_
_symmetry_equiv_pos_as_xyz
  x,y,z
_cell_length_a	8.559649
_cell_length_b	14.044220
_cell_length_c	7.088929
_cell_angle_alpha	83.206932
_cell_angle_beta	95.325015
_cell_angle_gamma	81.483771
loop_
_atom_site_label
_atom_site_type_symbol
_atom_site_fract_x
_atom_site_fract_y
_atom_site_fract_z
O1	O	2.100735	-0.021003	-0.158955
O2	O	1.642435	0.027448	-0.158968
O3	O	1.864708	-0.134262	-0.158943
O4	O	1.878463	0.140708	-0.158981
O5	O	1.894406	-0.155917	0.159035
O6	O	1.672134	0.005793	0.159010
O7	O	2.130433	-0.042657	0.159023
Cu8	Cu	1.903995	-0.020409	0.188051
Cu9	Cu	1.868874	0.005200	-0.187996
O10	O	1.908161	0.119053	0.158998
C11	C	1.598278	0.020292	0.000019
C12	C	1.422455	0.031222	0.000015
C13	C	1.873535	-0.179966	0.000047
C14	C	1.855571	-0.283884	0.000048
C15	C	1.822727	-0.474153	0.000020
C16	C	1.950133	-0.541060	0.000018
C17	C	1.931858	-0.646933	0.000002
C18	C	1.841000	-0.368270	0.000036
C19	C	2.174590	-0.035501	0.000031
C20	C	2.350412	-0.046430	0.000023
C21	C	1.899334	0.164757	0.000004
C22	C	1.917296	0.268676	-0.000011
N23	N	1.928709	-0.038422	0.452541
N24	N	1.844171	0.023205	-0.452487
H25	H	1.423242	-0.121272	0.000024
H26	H	2.072921	-0.518820	-0.000107
O27	O	1.739435	0.099357	0.450320
C28	C	1.466674	0.178597	0.388646
C29	C	1.585121	0.092318	0.498885
H30	H	1.341879	0.172924	0.427839
H31	H	1.501676	0.249580	0.427913
H32	H	1.468774	0.177124	0.228448
H33	H	1.583081	0.093698	0.659108
H34	H	1.550078	0.021373	0.459459
O35	O	1.676170	-0.500597	-0.000318
C36	C	1.412076	-0.482412	-0.164977
C37	C	1.577987	-0.452382	-0.164862
H38	H	1.332638	-0.443428	-0.297976
H39	H	1.423151	-0.564303	-0.165107
H40	H	1.357578	-0.461686	-0.031835
H41	H	1.632579	-0.473042	-0.297981
H42	H	1.566807	-0.370493	-0.164632
O43	O	1.335380	0.120485	-0.000258
C44	C	1.125613	0.243992	-0.165081
C45	C	1.224081	0.142883	-0.164986
H46	H	1.035627	0.262141	-0.298270
H47	H	1.060239	0.244050	-0.032105
H48	H	1.208170	0.300671	-0.164992
H49	H	1.141636	0.086147	-0.165143
H50	H	1.289473	0.142907	-0.297951
O51	O	2.033470	-0.114535	0.549864
C52	C	2.306199	-0.193848	0.611336
C53	C	2.187741	-0.107591	0.501037
H54	H	2.430948	-0.188274	0.571870
H55	H	2.304330	-0.192386	0.771569
H56	H	2.270981	-0.264787	0.572125
H57	H	2.222876	-0.036608	0.540089
H58	H	2.189629	-0.109139	0.340831
