data_functionalizedCrystal
_audit_creation_method	'MofGen! by Chris Wilmer'
_symmetry_space_group_name_H-M	'P1'
_symmetry_Int_Tables_number	1
_symmetry_cell_setting	triclinic
loop_
_symmetry_equiv_pos_as_xyz
  x,y,z
_cell_length_a	12.645331
_cell_length_b	21.295418
_cell_length_c	12.645323
_cell_angle_alpha	90.032304
_cell_angle_beta	90.015738
_cell_angle_gamma	90.026635
loop_
_atom_site_label
_atom_site_type_symbol
_atom_site_fract_x
_atom_site_fract_y
_atom_site_fract_z
Zn1	Zn	1.620660	-0.250617	0.599195
Zn2	Zn	2.120660	0.249383	1.099195
Zn3	Zn	1.620511	-0.355892	0.421912
Zn4	Zn	2.120511	0.144108	0.921912
Zn5	Zn	1.443374	-0.250639	0.421961
Zn6	Zn	1.943374	0.249361	0.921961
Zn7	Zn	1.443326	-0.355851	0.599149
Zn8	Zn	1.943326	0.144149	1.099149
O9	O	1.531968	-0.303250	0.510554
O10	O	2.031968	0.196750	1.010554
O11	O	1.768987	-0.264590	0.575677
O12	O	2.268987	0.235410	1.075677
O13	O	1.596972	-0.341956	0.273571
O14	O	2.096972	0.158044	0.773571
O15	O	1.466974	-0.162547	0.445511
O16	O	1.966974	0.337453	0.945511
O17	O	1.768878	-0.341935	0.445428
O18	O	2.268878	0.158065	0.945428
O19	O	1.597225	-0.162531	0.575724
O20	O	2.097225	0.337469	1.075724
O21	O	1.466830	-0.264627	0.273607
O22	O	1.966830	0.235373	0.773607
O23	O	1.295021	-0.264588	0.445467
O24	O	1.795021	0.235412	0.945467
O25	O	1.466892	-0.341865	0.747503
O26	O	1.966892	0.158135	1.247503
O27	O	1.294985	-0.341886	0.575646
O28	O	1.794985	0.158114	1.075646
O29	O	1.597178	-0.264551	0.747537
O30	O	2.097178	0.235449	1.247537
O31	O	1.596925	-0.443976	0.445383
O32	O	2.096925	0.056024	0.945383
O33	O	1.466748	-0.443946	0.575599
O34	O	1.966748	0.056054	1.075599
C35	C	1.256538	-0.303235	0.510557
C36	C	1.756538	0.196765	1.010557
C37	C	1.138708	-0.303244	0.510583
C38	C	1.638708	0.196756	1.010583
C39	C	0.971157	-0.352140	0.592052
C40	C	1.471157	0.147860	1.092052
C41	C	1.093717	-0.351982	0.592393
C42	C	1.593717	0.148018	1.092393
C43	C	1.094249	-0.236943	0.541119
C44	C	1.594249	0.263057	1.041119
C45	C	0.971651	-0.237242	0.541693
C46	C	1.471651	0.262758	1.041693
C47	C	0.971458	-0.320116	0.398320
C48	C	1.471458	0.179884	0.898320
C49	C	1.094063	-0.321566	0.398926
C50	C	1.594063	0.178434	0.898926
C51	C	1.531844	-0.466801	0.510504
C52	C	2.031844	0.033199	1.010504
C53	C	1.531888	-0.536769	0.510518
C54	C	2.031888	-0.036769	1.010518
C55	C	1.600006	-1.036222	0.442922
C56	C	2.100006	-0.536222	0.942922
C57	C	1.599965	-0.970479	0.442897
C58	C	2.099965	-0.470479	0.942897
C59	C	1.532117	-0.937609	0.510629
C60	C	2.032117	-0.437609	1.010629
C61	C	1.464285	-0.970486	0.578371
C62	C	1.964285	-0.470486	1.078371
C63	C	1.464320	-1.036227	0.578387
C64	C	1.964320	-0.536227	1.078387
N65	N	1.523880	-0.834354	0.603392
N66	N	2.023880	-0.334354	1.103392
N67	N	1.523854	-0.771902	0.603375
N68	N	2.023854	-0.271902	1.103375
C69	C	1.532007	-0.739534	0.510584
C70	C	2.032007	-0.239534	1.010584
N71	N	1.540208	-0.771976	0.417810
N72	N	2.040208	-0.271976	0.917810
N73	N	1.540241	-0.834434	0.417829
N74	N	2.040241	-0.334434	0.917829
C75	C	1.532071	-0.866323	0.510619
C76	C	2.032071	-0.366323	1.010619
C77	C	1.599786	-0.635379	0.442814
C78	C	2.099786	-0.135379	0.942814
C79	C	1.599738	-0.569635	0.442787
C80	C	2.099738	-0.069635	0.942787
C81	C	1.464063	-0.569643	0.578270
C82	C	1.964063	-0.069643	1.078270
C83	C	1.464105	-0.635386	0.578287
C84	C	1.964105	-0.135386	1.078287
C85	C	1.531972	-0.668250	0.510561
C86	C	2.031972	-0.168250	1.010561
C87	C	1.808473	-0.303264	0.510552
C88	C	2.308473	0.196736	1.010552
C89	C	1.926303	-0.303271	0.510551
C90	C	2.426303	0.196729	1.010551
C91	C	1.532046	-0.303201	0.787060
C92	C	2.032046	0.196799	1.287060
C93	C	1.532079	-0.303180	0.904890
C94	C	2.032079	0.196820	1.404890
C95	C	1.532121	-0.139059	0.510628
C96	C	2.032121	0.360941	1.010628
C97	C	1.532187	-0.069091	0.510660
C98	C	2.032187	0.430909	1.010660
C99	C	1.531951	-0.303253	0.235125
C100	C	2.031951	0.196747	0.735125
C101	C	1.532123	-0.303096	0.117295
C102	C	2.032123	0.196904	0.617295
C103	C	1.449863	-0.351590	1.072433
C104	C	1.949863	0.148410	1.572433
C105	C	1.450078	-0.351829	0.949873
C106	C	1.950078	0.148171	1.449873
C107	C	1.643774	-0.321184	0.949392
C108	C	2.143774	0.178816	1.449392
C109	C	1.643323	-0.321488	1.071991
C110	C	2.143323	0.178512	1.571991
C111	C	1.503657	-0.236496	1.072106
C112	C	2.003657	0.263504	1.572106
C113	C	1.501165	-0.236895	0.949500
C114	C	2.001165	0.263105	1.449500
H115	H	1.124978	-0.222394	0.622277
H116	H	1.624978	0.277606	1.122277
H117	H	1.655045	-0.662138	0.387665
H118	H	2.155045	-0.162138	0.887665
H119	H	1.408815	-0.542881	0.633414
H120	H	1.908815	-0.042881	1.133414
Br121	Br	1.684690	-0.401480	0.898223
Br122	Br	2.184690	0.098520	1.398223
H123	H	1.654961	-0.542873	0.387621
H124	H	2.154961	-0.042873	0.887621
H125	H	0.942451	-0.284520	0.337595
H126	H	1.442451	0.215480	0.837595
H127	H	0.943080	-0.222953	0.623739
H128	H	1.443080	0.277047	1.123739
H129	H	1.468869	-0.401203	0.920546
H130	H	1.968869	0.098797	1.420546
H131	H	1.408883	-0.662148	0.633450
H132	H	1.908883	-0.162148	1.133450
H133	H	0.940522	-0.367639	0.370568
H134	H	1.440522	0.132361	0.870568
Br135	Br	1.748872	-0.265134	1.121463
Br136	Br	2.248872	0.234866	1.621463
Br137	Br	1.312032	-0.333047	0.899715
Br138	Br	1.812032	0.166953	1.399715
H139	H	1.655265	-1.062976	0.387770
H140	H	2.155265	-0.562976	0.887770
H141	H	1.706706	-0.286981	0.920257
H142	H	2.206706	0.213019	1.420257
H143	H	0.941651	-0.401469	0.573124
H144	H	1.441651	0.098531	1.073124
H145	H	1.655193	-0.943712	0.387735
H146	H	2.155193	-0.443712	0.887735
H147	H	1.409040	-0.943720	0.633517
H148	H	1.909040	-0.443720	1.133517
H149	H	1.409094	-1.062989	0.633551
H150	H	1.909094	-0.562989	1.133551
Br151	Br	1.311396	-0.332990	1.121564
Br152	Br	1.811396	0.167010	1.621564
Br153	Br	1.364155	-0.214266	0.901040
Br154	Br	1.864155	0.285734	1.401040
H155	H	1.123775	-0.401148	0.573254
H156	H	1.623775	0.098852	1.073254
H157	H	1.556703	-0.198855	0.918880
H158	H	2.056703	0.301145	1.418880
H159	H	1.468471	-0.400655	1.103239
H160	H	1.968471	0.099345	1.603239
Br161	Br	1.370269	-0.209142	1.123632
Br162	Br	1.870269	0.290858	1.623632
Br163	Br	1.683542	-0.402634	1.119661
Br164	Br	2.183542	0.097366	1.619661
H165	H	0.940369	-0.341136	0.674727
H166	H	1.440369	0.158864	1.174727
Br167	Br	1.142649	-0.333402	0.730997
Br168	Br	1.642649	0.166598	1.230997
H169	H	1.123132	-0.370354	0.375895
H170	H	1.623132	0.129646	0.875895
H171	H	0.941981	-0.199525	0.485055
H172	H	1.441981	0.300475	0.985055
Br173	Br	1.142822	-0.174602	0.445278
Br174	Br	1.642822	0.325398	0.945278
H175	H	1.563571	-0.200366	1.101120
H176	H	2.063571	0.299634	1.601120
H177	H	1.124689	-0.288554	0.334943
H178	H	1.624689	0.211446	0.834943
