data_functionalizedCrystal
_audit_creation_method	'MofGen! by Chris Wilmer'
_symmetry_space_group_name_H-M	'P1'
_symmetry_Int_Tables_number	1
_symmetry_cell_setting	triclinic
loop_
_symmetry_equiv_pos_as_xyz
  x,y,z
_cell_length_a	16.109302
_cell_length_b	16.109301
_cell_length_c	18.366186
_cell_angle_alpha	89.993749
_cell_angle_beta	89.989012
_cell_angle_gamma	83.461682
loop_
_atom_site_label
_atom_site_type_symbol
_atom_site_fract_x
_atom_site_fract_y
_atom_site_fract_z
O1	O	1.103137	0.106871	-0.060582
O2	O	1.603137	0.606871	0.439418
O3	O	0.861075	0.120170	-0.060577
O4	O	1.361075	0.620170	0.439423
O5	O	0.988756	-0.007510	-0.060575
O6	O	1.488756	0.492490	0.439425
O7	O	0.975456	0.234552	-0.060584
O8	O	1.475456	0.734552	0.439416
O9	O	0.988734	-0.007517	0.060525
O10	O	1.488734	0.492483	0.560525
O11	O	0.861053	0.120164	0.060523
O12	O	1.361053	0.620164	0.560523
O13	O	1.103115	0.106865	0.060517
O14	O	1.603115	0.606865	0.560517
Zn15	Zn	0.982081	0.113513	0.079747
Zn16	Zn	1.482081	0.613513	0.579747
Zn17	Zn	0.982109	0.113522	-0.079807
Zn18	Zn	1.482109	0.613522	0.420193
O19	O	0.975435	0.234545	0.060515
O20	O	1.475435	0.734545	0.560515
C21	C	0.830089	0.119628	-0.000026
C22	C	1.330089	0.619628	0.499974
C23	C	0.737794	0.118013	-0.000024
C24	C	1.237794	0.618013	0.499976
C25	C	0.525441	0.114274	0.065980
C26	C	1.025441	0.614274	0.565980
C27	C	0.438721	0.112747	0.065978
C28	C	0.938721	0.612747	0.565978
C29	C	0.438755	0.112758	-0.066051
C30	C	0.938755	0.612758	0.433949
C31	C	0.525475	0.114279	-0.066048
C32	C	1.025475	0.614279	0.433952
C33	C	0.568815	0.115041	-0.000030
C34	C	1.068815	0.615041	0.499970
C35	C	0.395375	0.111994	-0.000036
C36	C	0.895375	0.611994	0.499964
C37	C	0.301350	0.110338	-0.000039
C38	C	0.801350	0.610338	0.499961
C39	C	0.662847	0.116695	-0.000027
C40	C	1.162847	0.616695	0.499973
C41	C	0.988206	-0.038488	-0.000025
C42	C	1.488206	0.461512	0.499975
C43	C	0.986591	-0.130784	-0.000026
C44	C	1.486591	0.369216	0.499974
C45	C	1.057074	-0.439782	-0.000041
C46	C	1.557074	0.060218	0.499959
C47	C	1.058599	-0.353062	-0.000036
C48	C	1.558599	0.146938	0.499964
C49	C	0.907111	-0.333189	-0.000023
C50	C	1.407111	0.166811	0.499977
C51	C	0.905586	-0.419907	-0.000022
C52	C	1.405586	0.080093	0.499978
C53	C	0.980570	-0.473202	-0.000035
C54	C	1.480570	0.026798	0.499965
C55	C	0.983620	-0.299763	-0.000031
C56	C	1.483620	0.200237	0.499969
C57	C	0.985273	-0.205737	-0.000027
C58	C	1.485273	0.294263	0.499973
C59	C	0.978917	-0.567234	-0.000038
C60	C	1.478917	-0.067234	0.499962
C61	C	1.134101	0.107407	-0.000035
C62	C	1.634101	0.607407	0.499965
C63	C	1.226396	0.109022	-0.000042
C64	C	1.726396	0.609022	0.499958
C65	C	0.975984	0.265523	-0.000036
C66	C	1.475984	0.765523	0.499964
C67	C	0.977600	0.357819	-0.000040
C68	C	1.477600	0.857819	0.499960
N69	N	0.982067	0.113507	0.188638
N70	N	1.482067	0.613507	0.688638
N71	N	0.982129	0.113521	-0.188698
N72	N	1.482129	0.613521	0.311302
C73	C	1.038623	0.056998	0.226739
C74	C	1.538623	0.556998	0.726739
C75	C	1.038628	0.056994	0.302967
C76	C	1.538628	0.556994	0.802967
C77	C	0.982086	0.113514	0.341091
C78	C	1.482086	0.613514	0.841091
C79	C	0.925520	0.170027	0.302981
C80	C	1.425520	0.670027	0.802981
C81	C	0.925511	0.170024	0.226754
C82	C	1.425511	0.670024	0.726754
C83	C	0.971173	0.189236	0.461848
C84	C	1.471173	0.689236	0.961848
C85	C	0.971188	0.189241	0.538073
C86	C	1.471188	0.689241	1.038073
C87	C	0.982109	0.113524	0.576198
C88	C	1.482109	0.613524	1.076198
C89	C	0.993034	0.037800	0.538089
C90	C	1.493034	0.537800	1.038089
C91	C	0.993025	0.037797	0.461863
C92	C	1.493025	0.537797	0.961863
C93	C	0.982089	0.113524	0.423746
C94	C	1.482089	0.613524	0.923746
C95	C	1.038674	0.057007	0.696955
C96	C	1.538674	0.557007	1.196955
C97	C	1.038673	0.057002	0.773184
C98	C	1.538673	0.557002	1.273184
C99	C	0.925569	0.170042	0.773196
C100	C	1.425569	0.670042	1.273196
C101	C	0.925565	0.170040	0.696968
C102	C	1.425565	0.670040	1.196968
C103	C	0.982122	0.113523	0.658852
C104	C	1.482122	0.613523	1.158852
H105	H	0.403410	0.112123	0.119730
H106	H	0.903410	0.612123	0.619730
H107	H	0.560726	0.114894	0.119736
H108	H	1.060726	0.614894	0.619736
O109	O	0.392010	0.111949	-0.137255
O110	O	0.892010	0.611949	0.362745
H111	H	0.324420	0.110773	-0.126169
H112	H	0.824420	0.610773	0.373831
H113	H	1.001918	-0.023861	0.430837
H114	H	1.501918	0.476139	0.930837
O115	O	1.099640	-0.003953	0.344070
O116	O	1.599640	0.496047	0.844070
H117	H	1.064669	-0.044380	0.378812
H118	H	1.564669	0.455620	0.878812
H119	H	1.118131	-0.483172	-0.000051
H120	H	1.618131	0.016828	0.499949
H121	H	1.084723	0.010985	0.665919
H122	H	1.584723	0.510985	1.165919
H123	H	1.084673	0.010977	0.195708
H124	H	1.584673	0.510977	0.695708
H125	H	0.560791	0.114902	-0.119805
H126	H	1.060791	0.614902	0.380195
H127	H	0.846061	-0.289786	-0.000015
H128	H	1.346061	0.210214	0.499985
H129	H	1.120896	-0.325856	-0.000040
H130	H	1.620896	0.174144	0.499960
O131	O	0.864586	0.231021	0.814292
O132	O	1.364586	0.731021	1.314292
H133	H	0.824187	0.196027	0.849044
H134	H	1.324187	0.696027	1.349044
O135	O	0.823066	-0.455959	-0.000009
O136	O	1.323066	0.044041	0.499991
H137	H	0.818753	-0.494997	-0.049361
H138	H	1.318753	0.005003	0.450639
H139	H	1.001927	-0.023856	0.569129
H140	H	1.501927	0.476144	1.069129
O141	O	1.099684	-0.003941	0.814285
O142	O	1.599684	0.496059	1.314285
H143	H	1.139015	-0.043230	0.774971
H144	H	1.639015	0.456770	1.274971
H145	H	0.962298	0.250900	0.569096
H146	H	1.462298	0.750900	1.069096
H147	H	0.879516	0.216058	0.665944
H148	H	1.379516	0.716058	1.165944
O149	O	0.959398	0.270907	0.420729
O150	O	1.459398	0.770907	0.920729
H151	H	0.951819	0.323561	0.460033
H152	H	1.451819	0.823561	0.960033
O153	O	0.864537	0.230994	0.344093
O154	O	1.364537	0.730994	0.844093
H155	H	0.874051	0.221511	0.403500
H156	H	1.374051	0.721511	0.903500
H157	H	0.879455	0.216041	0.195731
H158	H	1.379455	0.716041	0.695731
