data_functionalizedCrystal
_audit_creation_method	'MofGen! by Chris Wilmer'
_symmetry_space_group_name_H-M	'P1'
_symmetry_Int_Tables_number	1
_symmetry_cell_setting	triclinic
loop_
_symmetry_equiv_pos_as_xyz
  x,y,z
_cell_length_a	13.339070
_cell_length_b	19.288864
_cell_length_c	18.366186
_cell_angle_alpha	90.022894
_cell_angle_beta	89.997828
_cell_angle_gamma	80.617230
loop_
_atom_site_label
_atom_site_type_symbol
_atom_site_fract_x
_atom_site_fract_y
_atom_site_fract_z
O1	O	0.126087	-0.945923	-0.060787
O2	O	0.626087	-0.445923	0.439213
O3	O	0.143095	-0.746977	-0.060738
O4	O	0.643095	-0.246977	0.439262
O5	O	-0.012569	-0.823618	-0.060755
O6	O	0.487431	-0.323618	0.439245
O7	O	0.281750	-0.869283	-0.060770
O8	O	0.781750	-0.369283	0.439230
O9	O	-0.012576	-0.823598	0.060345
O10	O	0.487424	-0.323598	0.560345
O11	O	0.143088	-0.746958	0.060362
O12	O	0.643088	-0.246958	0.560362
O13	O	0.126079	-0.945904	0.060312
O14	O	0.626079	-0.445904	0.560312
Zn15	Zn	0.134582	-0.846427	0.079564
Zn16	Zn	0.634582	-0.346427	0.579564
Zn17	Zn	0.134592	-0.846453	-0.079989
Zn18	Zn	0.634592	-0.346453	0.420011
O19	O	0.281743	-0.869263	0.060329
O20	O	0.781743	-0.369263	0.560329
C21	C	0.142544	-0.720984	-0.000182
C22	C	0.642544	-0.220984	0.499818
C23	C	0.140901	-0.643560	-0.000162
C24	C	0.640901	-0.143560	0.499838
C25	C	-0.050226	-0.815894	-0.000204
C26	C	0.449774	-0.315894	0.499796
C27	C	-0.162423	-0.792901	-0.000201
C28	C	0.337577	-0.292901	0.499799
C29	C	0.126630	-0.971897	-0.000245
C30	C	0.626630	-0.471897	0.499755
C31	C	0.128273	-1.049320	-0.000269
C32	C	0.628273	-0.549320	0.499731
C33	C	-0.528031	-0.971681	-0.000245
C34	C	-0.028031	-0.471681	0.499755
C35	C	-0.422617	-0.993286	-0.000244
C36	C	0.077383	-0.493286	0.499756
C37	C	-0.357563	-0.943192	-0.000233
C38	C	0.142437	-0.443192	0.499767
C39	C	-0.397934	-0.871489	-0.000224
C40	C	0.102066	-0.371489	0.499776
C41	C	-0.503359	-0.849881	-0.000220
C42	C	-0.003359	-0.349881	0.499780
C43	C	-0.332891	-0.821392	-0.000208
C44	C	0.167109	-0.321392	0.499792
C45	C	-0.373262	-0.749689	-0.000198
C46	C	0.126738	-0.249689	0.499802
C47	C	-0.478677	-0.728085	-0.000195
C48	C	0.021323	-0.228085	0.499805
C49	C	-0.543730	-0.778180	-0.000205
C50	C	-0.043730	-0.278180	0.499795
C51	C	-0.227467	-0.842999	-0.000212
C52	C	0.272533	-0.342999	0.499788
C53	C	-0.202795	-0.721199	-0.000187
C54	C	0.297205	-0.221199	0.499813
C55	C	-0.308209	-0.699594	-0.000188
C56	C	0.191791	-0.199594	0.499812
C57	C	0.319401	-0.876987	-0.000223
C58	C	0.819401	-0.376987	0.499777
C59	C	0.431598	-0.899980	-0.000231
C60	C	0.931598	-0.399980	0.499769
N61	N	0.134575	-0.846415	0.188455
N62	N	0.634575	-0.346415	0.688455
C63	C	0.232238	-0.616663	-0.000179
C64	C	0.732238	-0.116663	0.499821
C65	C	0.230694	-0.543915	-0.000187
C66	C	0.730694	-0.043915	0.499813
C67	C	0.137809	-0.498067	-0.000193
C68	C	0.637809	0.001933	0.499807
C69	C	0.046461	-0.524972	-0.000173
C70	C	0.546461	-0.024972	0.499827
C71	C	0.048007	-0.597719	-0.000157
C72	C	0.548007	-0.097719	0.499843
C73	C	0.064794	-0.375583	-0.042640
C74	C	0.564794	0.124417	0.457360
C75	C	0.063252	-0.302838	-0.042660
C76	C	0.563252	0.197162	0.457340
C77	C	0.133037	-0.273691	-0.000237
C78	C	0.633037	0.226309	0.499763
C79	C	0.204382	-0.317301	0.042197
C80	C	0.704382	0.182699	0.542197
C81	C	0.205928	-0.390048	0.042212
C82	C	0.705928	0.109952	0.542212
C83	C	0.136123	-0.419184	-0.000209
C84	C	0.636123	0.080816	0.499791
C85	C	0.222706	-0.167913	-0.000261
C86	C	0.722706	0.332087	0.499739
C87	C	0.221159	-0.095163	-0.000264
C88	C	0.721159	0.404837	0.499736
C89	C	0.036923	-0.076222	-0.000257
C90	C	0.536923	0.423778	0.499743
C91	C	0.038473	-0.148970	-0.000247
C92	C	0.538473	0.351030	0.499753
C93	C	0.131367	-0.194812	-0.000252
C94	C	0.631367	0.305188	0.499748
N95	N	0.134592	-0.846470	-0.188881
N96	N	0.634592	-0.346470	0.311119
C97	C	0.065680	-0.880373	0.226548
C98	C	0.565680	-0.380373	0.726548
C99	C	0.065676	-0.880377	0.302776
C100	C	0.565676	-0.380377	0.802776
C101	C	0.134583	-0.846432	0.340908
C102	C	0.634583	-0.346432	0.840908
C103	C	0.203482	-0.812466	0.302806
C104	C	0.703482	-0.312466	0.802806
C105	C	0.203478	-0.812457	0.226580
C106	C	0.703478	-0.312457	0.726580
C107	C	0.226676	-0.855080	0.461665
C108	C	0.726676	-0.355080	0.961665
C109	C	0.226682	-0.855093	0.537890
C110	C	0.726682	-0.355093	1.037890
C111	C	0.134596	-0.846454	0.576016
C112	C	0.634596	-0.346454	1.076016
C113	C	0.042500	-0.837815	0.537907
C114	C	0.542500	-0.337815	1.037907
C115	C	0.042496	-0.837806	0.461681
C116	C	0.542496	-0.337806	0.961681
C117	C	0.134595	-0.846437	0.423563
C118	C	0.634595	-0.346437	0.923563
C119	C	0.065691	-0.880418	0.696763
C120	C	0.565691	-0.380418	1.196763
C121	C	0.065685	-0.880416	0.772993
C122	C	0.565685	-0.380416	1.272993
C123	C	0.203500	-0.812510	0.773021
C124	C	0.703500	-0.312510	1.273021
C125	C	0.203497	-0.812507	0.696793
C126	C	0.703497	-0.312507	1.196793
C127	C	0.134594	-0.846464	0.658669
C128	C	0.634594	-0.346464	1.158669
H129	H	-0.194607	-0.901380	-0.000219
H130	H	0.305393	-0.401380	0.499781
H131	H	-0.629568	-0.760592	-0.000209
H132	H	-0.129568	-0.260592	0.499791
O133	O	-0.379071	-1.070617	-0.000269
O134	O	0.120929	-0.570617	0.499731
H135	H	-0.442014	-1.101821	-0.000287
H136	H	0.057986	-0.601821	0.499713
O137	O	-0.598190	-1.025708	-0.000248
O138	O	-0.098190	-0.525708	0.499752
H139	H	-0.678275	-0.998635	-0.000244
H140	H	-0.178275	-0.498635	0.499756
O141	O	-0.008634	-0.917030	0.655635
O142	O	0.491366	-0.417030	1.155635
H143	H	-0.056556	-0.940634	0.694933
H144	H	0.443444	-0.440634	1.194933
O145	O	-0.008615	-0.917054	0.814085
O146	O	0.491385	-0.417054	1.314085
H147	H	-0.056515	-0.940672	0.774765
H148	H	0.443485	-0.440672	1.274765
H149	H	0.009573	-0.908021	0.195510
H150	H	0.509573	-0.408021	0.695510
O151	O	-0.050514	-0.626731	-0.000144
O152	O	0.449486	-0.126731	0.499856
H153	H	-0.054219	-0.659389	0.049224
H154	H	0.445781	-0.159389	0.549224
O155	O	0.332425	-0.666109	-0.000178
O156	O	0.832425	-0.166109	0.499822
H157	H	0.337526	-0.699679	0.049185
H158	H	0.837526	-0.199679	0.549185
O159	O	-0.522226	-0.650750	-0.000175
O160	O	-0.022226	-0.150750	0.499825
H161	H	-0.459285	-0.619545	-0.000174
H162	H	0.040715	-0.119545	0.499826
O163	O	-0.063267	-0.026784	-0.000259
O164	O	0.436733	0.473216	0.499741
H165	H	-0.068385	0.006782	-0.049625
H166	H	0.431615	0.506782	0.450375
H167	H	-0.341094	-0.641212	-0.000180
H168	H	0.158906	-0.141212	0.499820
O169	O	-0.132645	-0.667160	-0.000178
O170	O	0.367355	-0.167160	0.499822
H171	H	-0.052559	-0.694230	-0.000191
H172	H	0.447441	-0.194230	0.499809
H173	H	-0.029167	-0.487638	-0.000188
H174	H	0.470833	0.012362	0.499812
H175	H	0.305074	-0.522011	-0.000198
H176	H	0.805074	-0.022011	0.499802
H177	H	0.009572	-0.908031	0.333797
H178	H	0.509572	-0.408031	0.833797
O179	O	-0.060040	-0.177989	-0.000235
O180	O	0.439960	0.322011	0.499765
H181	H	-0.124891	-0.133888	-0.000245
H182	H	0.375109	0.366112	0.499755
H183	H	0.259602	-0.784858	0.665776
H184	H	0.759602	-0.284858	1.165776
H185	H	0.259581	-0.784803	0.195564
H186	H	0.759581	-0.284803	0.695564
O187	O	-0.056825	-0.828477	0.420574
O188	O	0.443175	-0.328477	0.920574
H189	H	-0.120863	-0.822465	0.459885
H190	H	0.379137	-0.322465	0.959885
H191	H	0.005163	-0.267337	-0.077215
H192	H	0.505163	0.232663	0.422785
O193	O	0.277828	-0.775898	0.814136
O194	O	0.777828	-0.275898	1.314136
H195	H	0.266262	-0.781612	0.873542
H196	H	0.766262	-0.281612	1.373542
O197	O	0.282833	-0.437082	0.088006
O198	O	0.782833	0.062918	0.588006
H199	H	0.331089	-0.404598	0.117518
H200	H	0.831089	0.095402	0.617518
H201	H	-0.271731	-0.960787	-0.000232
H202	H	0.228269	-0.460787	0.499768
O203	O	0.279654	-0.285878	0.087963
O204	O	0.779654	0.214122	0.587963
H205	H	0.266588	-0.227966	0.080834
H206	H	0.766588	0.272034	0.580834
H207	H	-0.032485	-0.830780	0.568947
H208	H	0.467515	-0.330780	1.068947
O209	O	-0.010474	-0.407018	-0.088403
O210	O	0.489526	0.092982	0.411597
H211	H	-0.060329	-0.364476	-0.117921
H212	H	0.439671	0.135524	0.382079
O213	O	0.326007	-0.864425	0.578992
O214	O	0.826007	-0.364425	1.078992
H215	H	0.390039	-0.870421	0.539676
H216	H	0.890039	-0.370421	1.039676
O217	O	0.326003	-0.864404	0.420545
O218	O	0.826003	-0.364404	0.920545
H219	H	0.390041	-0.870425	0.459848
H220	H	0.890041	-0.370425	0.959848
H221	H	0.298346	-0.205239	-0.000254
H222	H	0.798346	0.294761	0.499746
H223	H	0.295539	-0.073266	-0.000273
H224	H	0.795539	0.426734	0.499727
H225	H	0.259586	-0.784826	0.333857
H226	H	0.759586	-0.284826	0.833857
