data_functionalizedCrystal
_audit_creation_method	'MofGen! by Chris Wilmer'
_symmetry_space_group_name_H-M	'P1'
_symmetry_Int_Tables_number	1
_symmetry_cell_setting	triclinic
loop_
_symmetry_equiv_pos_as_xyz
  x,y,z
_cell_length_a	18.050591
_cell_length_b	13.032721
_cell_length_c	13.032268
_cell_angle_alpha	76.710373
_cell_angle_beta	82.843153
_cell_angle_gamma	97.201340
loop_
_atom_site_label
_atom_site_type_symbol
_atom_site_fract_x
_atom_site_fract_y
_atom_site_fract_z
Zn1	Zn	1.031220	-0.499207	0.654387
Zn2	Zn	1.531220	0.000793	1.154387
Zn3	Zn	1.031139	-0.654292	0.499335
Zn4	Zn	1.531139	-0.154292	0.999335
Zn5	Zn	0.925098	-0.476689	0.476788
Zn6	Zn	1.425098	0.023311	0.976788
Zn7	Zn	0.888950	-0.676748	0.676851
Zn8	Zn	1.388950	-0.176748	1.176851
O9	O	0.969102	-0.576734	0.576840
O10	O	1.469102	-0.076734	1.076840
O11	O	1.135128	-0.519805	0.633854
O12	O	1.635128	-0.019805	1.133854
O13	O	1.032166	-0.611910	0.347727
O14	O	1.532166	-0.111910	0.847727
O15	O	0.954337	-0.331048	0.481509
O16	O	1.454337	0.168952	0.981509
O17	O	1.135069	-0.633745	0.519938
O18	O	1.635069	-0.133745	1.019938
O19	O	1.032304	-0.347592	0.611991
O20	O	1.532304	0.152408	1.111991
O21	O	0.954258	-0.481427	0.331161
O22	O	1.454258	0.018573	0.831161
O23	O	0.816383	-0.503202	0.503292
O24	O	1.316383	-0.003202	1.003292
O25	O	0.892729	-0.672019	0.822488
O26	O	1.392729	-0.172019	1.322488
O27	O	0.789826	-0.650184	0.650278
O28	O	1.289826	-0.150184	1.150278
O29	O	0.997254	-0.541581	0.805984
O30	O	1.497254	-0.041581	1.305984
O31	O	0.997115	-0.805899	0.541720
O32	O	1.497115	-0.305899	1.041720
O33	O	0.892650	-0.822398	0.672141
O34	O	1.392650	-0.322398	1.172141
C35	C	0.940969	-0.852689	0.611838
C36	C	1.440969	-0.352689	1.111838
C37	C	0.928998	-0.970749	0.626846
C38	C	1.428998	-0.470749	1.126846
C39	C	0.776159	-0.576687	0.576776
C40	C	1.276159	-0.076687	1.076776
C41	C	0.693613	-0.576696	0.576778
C42	C	1.193613	-0.076696	1.076778
C43	C	0.975384	-1.015191	0.569055
C44	C	1.475384	-0.515191	1.069055
C45	C	0.963013	-1.137212	0.584565
C46	C	1.463013	-0.637212	1.084565
C47	C	0.508574	-0.496705	0.497000
C48	C	1.008574	0.003295	0.997000
C49	C	0.451966	-0.590267	0.483163
C50	C	0.951966	-0.090267	0.983163
C51	C	0.542474	-0.576734	0.576830
C52	C	1.042474	-0.076734	1.076830
C53	C	0.451997	-0.483206	0.590668
C54	C	0.951997	0.016794	1.090668
C55	C	0.396482	-0.576762	0.576877
C56	C	0.896482	-0.076762	1.076877
C57	C	0.486954	-0.670340	0.562949
C58	C	0.986954	-0.170340	1.062949
C59	C	0.486991	-0.563220	0.670491
C60	C	0.986991	-0.063220	1.170491
C61	C	0.430395	-0.656853	0.656699
C62	C	0.930395	-0.156853	1.156699
C63	C	0.626577	-0.576716	0.576800
C64	C	1.126577	-0.076716	1.076800
C65	C	0.312380	-0.576791	0.576909
C66	C	0.812380	-0.076791	1.076909
C67	C	1.162797	-0.576782	0.576905
C68	C	1.662797	-0.076782	1.076905
C69	C	1.245338	-0.576803	0.576932
C70	C	1.745338	-0.076803	1.076932
C71	C	0.940968	-0.611817	0.853849
C72	C	1.440968	-0.111817	1.353849
C73	C	0.928979	-0.626767	0.971893
C74	C	1.428979	-0.126767	1.471893
C75	C	0.997362	-0.299704	0.541729
C76	C	1.497362	0.200296	1.041729
C77	C	1.009405	-0.181651	0.526767
C78	C	1.509405	0.318349	1.026767
C79	C	0.997176	-0.541712	0.300900
C80	C	1.497176	-0.041712	0.800900
C81	C	1.009339	-0.526462	0.182818
C82	C	1.509339	-0.026462	0.682818
C83	C	0.975351	-0.568893	1.016355
C84	C	1.475351	-0.068893	1.516355
C85	C	0.962961	-0.584344	1.138360
C86	C	1.462961	-0.084344	1.638360
H87	H	1.024258	-0.962908	0.508100
H88	H	1.524258	-0.462908	1.008100
H89	H	0.914141	-1.189495	0.645532
H90	H	1.414141	-0.689495	1.145532
H91	H	1.024222	-0.507904	0.964096
H92	H	1.524222	-0.007904	1.464096
H93	H	0.914080	-0.645326	1.190614
H94	H	1.414080	-0.145326	1.690614
O95	O	0.507485	-0.775139	0.547330
O96	O	1.007485	-0.275139	1.047330
H97	H	0.569045	-0.774286	0.547387
H98	H	1.069045	-0.274286	1.047387
H99	H	1.058213	-0.465466	1.130564
H100	H	1.558213	0.034534	1.630564
O101	O	1.074152	-1.112412	0.446018
O102	O	1.574152	-0.612412	0.946018
H103	H	1.051523	-1.055084	0.385556
H104	H	1.551523	-0.555084	0.885556
H105	H	0.880102	-0.687745	1.024150
H106	H	1.380102	-0.187745	1.524150
O107	O	0.864254	-1.039991	0.707588
O108	O	1.364254	-0.539991	1.207588
H109	H	0.864691	-1.124964	0.707090
H110	H	1.364691	-0.624964	1.207090
O111	O	0.507747	-0.548027	0.775336
O112	O	1.007747	-0.048027	1.275336
H113	H	0.456433	-0.539673	0.827346
H114	H	0.956433	-0.039673	1.327346
H115	H	0.542427	-0.429084	0.429433
H116	H	1.042427	0.070916	0.929433
O117	O	0.431258	-0.605441	0.378281
O118	O	0.931258	-0.105441	0.878281
H119	H	0.462977	-0.538904	0.312120
H120	H	0.962977	-0.038904	0.812120
H121	H	0.436371	-0.404105	0.602319
H122	H	0.936371	0.095895	1.102319
O123	O	0.385701	-0.746598	0.746154
O124	O	0.885701	-0.246598	1.246154
H125	H	0.399631	-0.824101	0.734419
H126	H	0.899631	-0.324101	1.234419
