data_functionalizedCrystal
_audit_creation_method	'MofGen! by Chris Wilmer'
_symmetry_space_group_name_H-M	'P1'
_symmetry_Int_Tables_number	1
_symmetry_cell_setting	triclinic
loop_
_symmetry_equiv_pos_as_xyz
  x,y,z
_cell_length_a	23.096457
_cell_length_b	19.902436
_cell_length_c	19.902436
_cell_angle_alpha	90.004631
_cell_angle_beta	59.997401
_cell_angle_gamma	59.999713
loop_
_atom_site_label
_atom_site_type_symbol
_atom_site_fract_x
_atom_site_fract_y
_atom_site_fract_z
Zr1	Zr	0.633672	-0.088097	0.647329
O2	O	0.754480	-0.195392	0.540028
O3	O	0.512880	-0.055209	0.680220
O4	O	0.633680	-0.195386	0.680207
O5	O	0.633669	0.055364	0.540053
O6	O	0.633669	-0.195377	0.790786
O7	O	0.633680	-0.055214	0.540040
O8	O	0.417579	0.055374	0.790809
O9	O	0.849758	-0.195387	0.540030
O10	O	0.562550	-0.041171	0.776774
O11	O	0.562550	0.041346	0.694260
O12	O	0.704776	-0.123695	0.694245
O13	O	0.704776	-0.041178	0.611731
Zr14	Zr	0.633637	0.088278	0.823710
Zr15	Zr	0.633654	-0.088082	0.823689
Zr16	Zr	0.633654	0.088264	0.647350
Zr17	Zr	0.785630	-0.088089	0.647333
Zr18	Zr	0.481679	0.088271	0.823705
O19	O	0.754429	0.055391	0.790819
O20	O	0.754455	-0.195371	0.790789
O21	O	0.754455	0.055370	0.540057
O22	O	0.512829	0.195573	0.931011
O23	O	0.512854	-0.055189	0.930982
O24	O	0.512854	0.195553	0.680249
O25	O	0.633640	-0.055183	0.930985
O26	O	0.633629	0.195568	0.790832
O27	O	0.633640	0.195559	0.680253
O28	O	0.633629	0.055396	0.930998
O29	O	0.849744	-0.195376	0.680213
O30	O	0.417565	0.195557	0.790825
O31	O	0.417551	0.195569	0.931008
O32	O	0.417565	0.055385	0.930992
O33	O	0.849744	-0.055204	0.540047
O34	O	0.849729	-0.055193	0.680230
O35	O	0.562533	0.123876	0.776794
O36	O	0.562533	0.041359	0.859308
O37	O	0.704759	-0.041164	0.776778
O38	O	0.704759	0.041353	0.694264
C39	C	0.443579	0.000081	0.735514
C40	C	0.379069	0.000078	0.735512
C41	C	0.633677	0.000073	0.514919
C42	C	0.633684	0.000067	0.440050
C43	C	0.633632	0.220691	0.735545
C44	C	0.633624	0.295560	0.735554
C45	C	0.348768	-0.042998	0.778578
C46	C	0.288146	-0.042991	0.778586
C47	C	0.257838	0.000081	0.735512
C48	C	0.288143	0.043166	0.692444
C49	C	0.348759	0.043165	0.692444
N50	N	0.195451	-0.005898	0.665408
N51	N	0.137870	-0.005901	0.665410
C52	C	0.075206	0.000088	0.735511
N53	N	0.072307	0.006066	0.805609
N54	N	0.129895	0.006065	0.805606
C55	C	0.192111	0.000087	0.735508
C56	C	-0.020829	-0.042983	0.778590
C57	C	-0.081456	-0.042970	0.778600
C58	C	-0.081451	0.043182	0.692450
C59	C	-0.020831	0.043175	0.692448
C60	C	0.009479	0.000088	0.735516
C61	C	0.823730	0.000100	0.735525
C62	C	0.888240	0.000103	0.735527
C63	C	0.633677	-0.220509	0.735493
C64	C	0.633684	-0.295379	0.735485
C65	C	0.633665	0.567562	0.735508
C66	C	0.543946	0.591129	0.787321
C67	C	0.543889	0.513291	0.787613
C68	C	0.633644	0.432619	0.735531
C69	C	0.678194	0.435041	0.773492
C70	C	0.677620	0.513269	0.773871
C71	C	0.679476	0.512260	0.645712
C72	C	0.677790	0.435339	0.645854
C73	C	0.633637	0.356352	0.735543
C74	C	0.633674	0.643828	0.735499
C75	C	0.633644	0.000099	0.168048
C76	C	0.723363	-0.051709	0.144477
C77	C	0.723420	-0.051997	0.222315
C78	C	0.633665	0.000083	0.302991
C79	C	0.589115	-0.037882	0.300574
C80	C	0.589688	-0.038265	0.222346
C81	C	0.587833	0.089895	0.223349
C82	C	0.589519	0.089757	0.300270
C83	C	0.633672	0.000075	0.379258
C84	C	0.633635	0.000104	0.091783
C85	C	0.633632	0.000109	0.956119
C86	C	0.633624	0.000115	1.030989
C87	C	0.443557	0.000099	0.956114
C88	C	0.379039	0.000102	1.030982
C89	C	0.443557	0.220681	0.735540
C90	C	0.379039	0.295548	0.735547
C91	C	0.443534	0.220699	0.956140
C92	C	0.379009	0.295572	1.031016
C93	C	0.823775	-0.220518	0.514899
C94	C	0.888300	-0.295390	0.440023
C95	C	0.823752	0.000082	0.514925
C96	C	0.888270	0.000079	0.440057
C97	C	0.823752	-0.220500	0.735499
C98	C	0.888270	-0.295366	0.735492
C99	C	0.348750	-0.042984	1.023059
C100	C	0.288137	-0.042997	1.093398
C101	C	0.257811	0.000080	1.171660
C102	C	0.288106	0.043168	1.179581
C103	C	0.348722	0.043176	1.109242
C104	C	0.348732	0.373793	0.778631
C105	C	0.288120	0.444145	0.778635
C106	C	0.257811	0.436250	0.735558
C107	C	0.288124	0.357996	0.692468
C108	C	0.348739	0.287646	0.692460
C109	C	0.348707	0.287660	1.109258
C110	C	0.288088	0.358004	1.179619
C111	C	0.257767	0.436259	1.171737
C112	C	0.288074	0.444170	1.093487
C113	C	0.348697	0.373826	1.023127
C114	C	0.918609	-0.287478	0.361781
C115	C	0.979247	-0.357822	0.291420
C116	C	1.009572	-0.436077	0.299302
C117	C	0.979260	-0.443988	0.377552
C118	C	0.918627	-0.373645	0.447911
C119	C	0.918566	0.043158	0.447980
C120	C	0.979195	0.043152	0.377641
C121	C	1.009523	0.000072	0.299379
C122	C	0.979225	-0.043012	0.291458
C123	C	0.918601	-0.043010	0.361797
C124	C	0.918559	-0.287444	0.778578
C125	C	0.979172	-0.357783	0.778587
C126	C	1.009499	-0.436042	0.735506
C127	C	0.979203	-0.443962	0.692419
C128	C	0.918587	-0.373625	0.692415
H129	H	0.263470	-0.078070	0.813657
H130	H	1.003928	-0.078086	0.227728
H131	H	0.263378	0.507894	1.087081
H132	H	0.373361	0.380280	0.959422
H133	H	1.003853	0.078240	0.384107
N134	N	0.885928	-0.089476	0.353245
H135	H	0.914343	-0.116763	0.292992
H136	H	0.825076	-0.049925	0.380550
H137	H	1.058887	0.000078	0.242112
H138	H	0.373403	0.380238	0.813710
H139	H	0.893877	-0.223728	0.813660
H140	H	0.523121	-0.001962	0.357390
N141	N	0.885922	-0.382175	0.645940
H142	H	0.914337	-0.442427	0.618651
H143	H	0.896480	-0.354876	0.602630
H144	H	0.524037	0.131607	0.357732
N145	N	1.011922	-0.528375	0.645954
H146	H	1.037085	-0.534977	0.585689
H147	H	0.965647	-0.534926	0.668606
H148	H	0.893922	-0.223765	0.355347
H149	H	1.003958	-0.507712	0.383960
H150	H	0.263437	0.351579	0.657395
N151	N	0.497520	0.643993	0.874540
H152	H	0.495398	0.695918	0.874200
H153	H	0.526140	0.612559	0.900402
H154	H	0.893877	0.078244	0.511698
H155	H	0.745570	0.492335	0.606927
N156	N	0.625868	0.131891	0.175253
H157	H	0.646385	0.147707	0.202379
H158	H	0.583494	0.182938	0.174034
H159	H	1.058857	-0.493309	0.735516
N160	N	0.381450	-0.089466	0.825034
H161	H	0.335195	-0.066867	0.885297
H162	H	0.424461	-0.082922	0.818439
N163	N	0.255454	0.089628	0.645991
H164	H	0.212458	0.083092	0.652524
H165	H	0.301754	0.067010	0.585747
H166	H	0.373376	0.078267	1.115705
N167	N	0.255395	0.349470	1.264013
H168	H	0.301644	0.318385	1.270597
H169	H	0.230234	0.318423	1.270540
H170	H	0.263446	0.507856	0.813727
H171	H	0.758409	-0.117549	0.104559
N172	N	1.011853	-0.349235	0.825049
H173	H	1.001297	-0.376485	0.868406
H174	H	0.983435	-0.288970	0.852278
H175	H	0.263406	0.078240	1.243311
H176	H	0.373441	-0.078073	0.959340
N177	N	0.497322	0.515630	0.875351
H178	H	0.476751	0.567288	0.913988
H179	H	0.534780	0.465815	0.882628
N180	N	0.630105	-0.124579	0.302612
H181	H	0.627571	-0.123838	0.354781
H182	H	0.689194	-0.159458	0.253349
N183	N	1.011931	-0.349287	0.207026
H184	H	1.037062	-0.318197	0.200447
H185	H	0.965642	-0.318244	0.200497
N186	N	0.381442	0.089630	0.645996
H187	H	0.353044	0.116922	0.618712
H188	H	0.442296	0.050075	0.602683
H189	H	-0.106127	0.078252	0.657379
H190	H	0.003848	-0.078063	0.813661
N191	N	-0.114145	-0.089428	0.825056
H192	H	-0.085742	-0.116723	0.852336
H193	H	-0.103593	-0.132731	0.785497
H194	H	0.743446	0.493922	0.738568
H195	H	0.003843	0.078249	0.657376
N196	N	0.497572	0.514840	0.753909
H197	H	0.477009	0.566208	0.738727
H198	H	0.449582	0.514578	0.797069
H199	H	0.208454	0.493540	0.735571
N200	N	0.632534	0.127337	0.299783
H201	H	0.691254	0.092858	0.249777
H202	H	0.631245	0.129319	0.351251
N203	N	0.497255	0.643114	0.753853
H204	H	0.533809	0.651884	0.704770
H205	H	0.447752	0.698094	0.797948
H206	H	1.058943	-0.493349	0.242004
H207	H	0.645952	0.549820	0.839949
H208	H	0.744188	0.378229	0.737570
N209	N	0.381467	0.203253	0.645938
H210	H	0.353078	0.208935	0.618638
H211	H	0.370942	0.172147	0.685445
H212	H	0.373386	0.223947	1.115691
H213	H	0.263478	-0.078084	1.086932
N214	N	0.769692	-0.018241	0.220788
H215	H	0.790240	-0.003044	0.169426
H216	H	0.817689	-0.061365	0.221056
N217	N	0.885936	-0.382185	0.532300
H218	H	0.914349	-0.442434	0.526608
H219	H	0.825086	-0.354884	0.563360
N220	N	0.500284	0.141266	0.249747
H221	H	0.499496	0.143468	0.199491
H222	H	0.471207	0.198858	0.285275
N223	N	0.637207	0.432996	0.860188
H224	H	0.589790	0.430502	0.875014
H225	H	0.616411	0.484262	0.899599
N226	N	0.641456	0.560331	0.603696
H227	H	0.644979	0.608944	0.600747
H228	H	0.582143	0.580526	0.636045
N229	N	0.634769	0.435829	0.608281
H230	H	0.586883	0.434293	0.649171
H231	H	0.674329	0.386037	0.557013
N232	N	0.764531	0.359231	0.590410
H233	H	0.776494	0.321744	0.622783
H234	H	0.803813	0.375626	0.568158
H235	H	0.758574	-0.026374	0.105315
H236	H	0.208453	0.000067	1.228927
N237	N	0.770023	-0.139734	0.219957
H238	H	0.790605	-0.178374	0.168293
H239	H	0.732593	-0.147045	0.269768
N240	N	0.631635	-0.125788	0.173925
H241	H	0.649581	-0.163759	0.203497
H242	H	0.681059	-0.142043	0.117384
N243	N	0.502504	0.008477	0.247955
H244	H	0.470747	0.067012	0.283352
H245	H	0.476218	-0.018921	0.280257
N246	N	0.192381	0.512126	1.247628
H247	H	0.177788	0.495231	1.298388
H248	H	0.142119	0.545952	1.247597
