data_functionalizedCrystal
_audit_creation_method	'MofGen! by Chris Wilmer'
_symmetry_space_group_name_H-M	'P1'
_symmetry_Int_Tables_number	1
_symmetry_cell_setting	triclinic
loop_
_symmetry_equiv_pos_as_xyz
  x,y,z
_cell_length_a	29.839134
_cell_length_b	16.959454
_cell_length_c	16.959447
_cell_angle_alpha	90.026818
_cell_angle_beta	89.972203
_cell_angle_gamma	89.985063
loop_
_atom_site_label
_atom_site_type_symbol
_atom_site_fract_x
_atom_site_fract_y
_atom_site_fract_z
Zn1	Zn	0.686812	0.314774	-0.447157
Zn2	Zn	1.020145	0.648107	-0.113824
Zn3	Zn	1.353479	0.981440	0.219509
Zn4	Zn	0.686765	0.446966	-0.314987
Zn5	Zn	1.020098	0.780300	0.018346
Zn6	Zn	1.353431	1.113633	0.351680
Zn7	Zn	0.611687	0.314794	-0.314970
Zn8	Zn	0.945021	0.648127	0.018364
Zn9	Zn	1.278354	0.981460	0.351697
Zn10	Zn	0.611671	0.446902	-0.447101
Zn11	Zn	0.945004	0.780235	-0.113767
Zn12	Zn	1.278337	1.113569	0.219566
O13	O	0.649234	0.380859	-0.381054
O14	O	0.982567	0.714192	-0.047720
O15	O	1.315900	1.047526	0.285613
O16	O	0.749673	0.332328	-0.429656
O17	O	1.083006	0.665661	-0.096322
O18	O	1.416340	0.998994	0.237011
O19	O	0.676793	0.429468	-0.204374
O20	O	1.010126	0.762802	0.128960
O21	O	1.343459	1.096135	0.462293
O22	O	0.621680	0.204180	-0.332521
O23	O	0.955013	0.537514	0.000812
O24	O	1.288346	0.870847	0.334145
O25	O	0.749638	0.429449	-0.332551
O26	O	1.082971	0.762782	0.000783
O27	O	1.416305	1.096116	0.334116
O28	O	0.676873	0.204165	-0.429639
O29	O	1.010207	0.537499	-0.096306
O30	O	1.343540	0.870832	0.237028
O31	O	0.621634	0.332362	-0.204361
O32	O	0.954967	0.665695	0.128972
O33	O	1.288300	0.999029	0.462306
O34	O	0.548818	0.332300	-0.332466
O35	O	0.882151	0.665633	0.000867
O36	O	1.215485	0.998967	0.334200
O37	O	0.621651	0.429340	-0.557719
O38	O	0.954985	0.762673	-0.224386
O39	O	1.288318	1.096006	0.108948
O40	O	0.548806	0.429359	-0.429542
O41	O	0.882139	0.762693	-0.096209
O42	O	1.215472	1.096026	0.237125
O43	O	0.676857	0.332265	-0.557761
O44	O	1.010191	0.665599	-0.224427
O45	O	1.343524	0.998932	0.108906
O46	O	0.676776	0.557569	-0.332496
O47	O	1.010110	0.890902	0.000838
O48	O	1.343443	1.224235	0.334171
O49	O	0.621605	0.557521	-0.429559
O50	O	0.954938	0.890855	-0.096226
O51	O	1.288272	1.224188	0.237108
C52	C	0.532511	0.380825	-0.380997
C53	C	0.865844	0.714159	-0.047663
C54	C	1.199178	1.047492	0.285670
C55	C	0.482577	0.380830	-0.380991
C56	C	0.815910	0.714163	-0.047658
C57	C	1.149243	1.047497	0.285676
C58	C	0.649196	0.586225	-0.381040
C59	C	0.982529	0.919559	-0.047707
C60	C	1.315863	1.252892	0.285627
C61	C	0.649221	0.674082	-0.381061
C62	C	0.982554	1.007415	-0.047728
C63	C	1.315888	1.340748	0.285606
C64	C	0.649258	0.380793	-0.587222
C65	C	0.982591	0.714127	-0.253889
C66	C	1.315924	1.047460	0.079445
C67	C	0.649268	0.380765	-0.675079
C68	C	0.982601	0.714099	-0.341745
C69	C	1.315935	1.047432	-0.008412
C70	C	0.172936	0.431473	-0.431539
C71	C	0.506270	0.764806	-0.098206
C72	C	0.839603	1.098139	0.235128
C73	C	-0.014737	0.431495	-0.431574
C74	C	0.318597	0.764828	-0.098241
C75	C	0.651930	1.098161	0.235092
O76	O	-0.038999	0.474516	-0.474518
O77	O	0.294334	0.807849	-0.141185
O78	O	0.627668	1.141182	0.192148
N79	N	-0.038208	0.380888	-0.381113
N80	N	0.295125	0.714221	-0.047780
N81	N	0.628458	1.047555	0.285554
C82	C	-0.014759	0.330268	-0.330643
C83	C	0.318574	0.663601	0.002690
C84	C	0.651908	0.996935	0.336023
O85	O	-0.039029	0.287219	-0.287730
O86	O	0.294304	0.620552	0.045604
O87	O	0.627637	0.953885	0.378937
C88	C	0.172913	0.330242	-0.330613
C89	C	0.506246	0.663576	0.002721
C90	C	0.839580	0.996909	0.336054
C91	C	0.196382	0.380858	-0.381071
C92	C	0.529716	0.714192	-0.047738
C93	C	0.863049	1.047525	0.285595
C94	C	0.196406	0.482084	-0.481994
C95	C	0.529739	0.815417	-0.148661
C96	C	0.863072	1.148750	0.184672
C97	C	0.243321	0.482081	-0.481982
C98	C	0.576655	0.815414	-0.148649
C99	C	0.909988	1.148747	0.184685
C100	C	0.266767	0.431466	-0.431514
C101	C	0.600101	0.764800	-0.098181
C102	C	0.933434	1.098133	0.235152
C103	C	0.243298	0.380855	-0.381059
C104	C	0.576631	0.714189	-0.047726
C105	C	0.909965	1.047522	0.285608
C106	C	0.196362	0.279619	-0.280147
C107	C	0.529695	0.612953	0.053186
C108	C	0.863028	0.946286	0.386519
C109	C	0.243283	0.279616	-0.280146
C110	C	0.576616	0.612949	0.053188
C111	C	0.909949	0.946283	0.386521
C112	C	0.266752	0.330232	-0.330604
C113	C	0.600085	0.663565	0.002729
C114	C	0.933419	0.996899	0.336062
C115	C	0.313659	0.330238	-0.330579
C116	C	0.646993	0.663571	0.002754
C117	C	0.980326	0.996905	0.336087
N118	N	0.337131	0.380845	-0.381040
N119	N	0.670465	0.714178	-0.047707
N120	N	1.003798	1.047512	0.285626
C121	C	0.313685	0.431459	-0.431508
C122	C	0.647018	0.764793	-0.098175
C123	C	0.980352	1.098126	0.235159
C124	C	-0.113290	0.330286	-0.330662
C125	C	0.220044	0.663620	0.002672
C126	C	0.553377	0.996953	0.336005
C127	C	-0.160208	0.330294	-0.330668
C128	C	0.173126	0.663627	0.002665
C129	C	0.506459	0.996960	0.335998
C130	C	-0.160182	0.431519	-0.431601
C131	C	0.173151	0.764853	-0.098267
C132	C	0.506485	1.098186	0.235066
C133	C	-0.113263	0.431515	-0.431589
C134	C	0.220070	0.764849	-0.098256
C135	C	0.553403	1.098182	0.235077
C136	C	-0.089818	0.380893	-0.381123
C137	C	0.243515	0.714227	-0.047790
C138	C	0.576849	1.047560	0.285544
C139	C	0.412211	0.431449	-0.431478
C140	C	0.745544	0.764783	-0.098144
C141	C	1.078878	1.098116	0.235189
C142	C	0.459131	0.431444	-0.431459
C143	C	0.792464	0.764778	-0.098125
C144	C	1.125797	1.098111	0.235208
C145	C	0.459101	0.330216	-0.330530
C146	C	0.792434	0.663549	0.002804
C147	C	1.125768	0.996883	0.336137
C148	C	0.412185	0.330224	-0.330545
C149	C	0.745519	0.663557	0.002788
C150	C	1.078852	0.996890	0.336121
C151	C	0.388742	0.380843	-0.381026
C152	C	0.722075	0.714176	-0.047693
C153	C	1.055408	1.047510	0.285641
O154	O	0.337951	0.287234	-0.287664
O155	O	0.671284	0.620567	0.045669
O156	O	1.004617	0.953900	0.379003
O157	O	0.337964	0.474490	-0.474428
O158	O	0.671297	0.807823	-0.141094
O159	O	1.004630	1.141157	0.192239
C160	C	0.126021	0.431476	-0.431551
C161	C	0.459354	0.764809	-0.098218
C162	C	0.792688	1.098142	0.235115
C163	C	0.102552	0.380864	-0.381096
C164	C	0.435885	0.714198	-0.047763
C165	C	0.769218	1.047531	0.285570
C166	C	0.125998	0.330250	-0.330629
C167	C	0.459331	0.663584	0.002705
C168	C	0.792664	0.996917	0.336038
C169	C	0.055634	0.380872	-0.381103
C170	C	0.388967	0.714205	-0.047769
C171	C	0.722300	1.047538	0.285564
C172	C	0.032188	0.431486	-0.431570
C173	C	0.365521	0.764819	-0.098237
C174	C	0.698854	1.098153	0.235096
C175	C	0.055659	0.482093	-0.482031
C176	C	0.388993	0.815426	-0.148698
C177	C	0.722326	1.148759	0.184635
C178	C	0.102575	0.482090	-0.482019
C179	C	0.435908	0.815423	-0.148686
C180	C	0.769241	1.148756	0.184648
C181	C	0.102526	0.279643	-0.280167
C182	C	0.435859	0.612977	0.053166
C183	C	0.769193	0.946310	0.386499
C184	C	0.055610	0.279651	-0.280183
C185	C	0.388944	0.612985	0.053150
C186	C	0.722277	0.946318	0.386483
C187	C	0.032164	0.330265	-0.330651
C188	C	0.365498	0.663599	0.002682
C189	C	0.698831	0.996932	0.336016
C190	C	0.766412	0.380893	-0.381111
C191	C	1.099745	0.714226	-0.047778
C192	C	1.433079	1.047560	0.285555
C193	C	0.816346	0.380908	-0.381136
C194	C	1.149680	0.714241	-0.047803
C195	C	1.483013	1.047574	0.285531
C196	C	0.649284	0.174691	-0.381084
C197	C	0.982617	0.508024	-0.047751
C198	C	1.315950	0.841357	0.285582
C199	C	0.649305	0.086834	-0.381098
C200	C	0.982638	0.420167	-0.047764
C201	C	1.315972	0.753501	0.285569
C202	C	0.620548	1.045563	-0.431589
C203	C	0.953881	1.378896	-0.098256
C204	C	1.287214	1.712229	0.235078
C205	C	0.678045	1.045552	-0.330599
C206	C	1.011378	1.378885	0.002735
C207	C	1.344711	1.712219	0.336068
C208	C	0.678029	0.963006	-0.330591
C209	C	1.011362	1.296339	0.002742
C210	C	1.344696	1.629673	0.336075
C211	C	0.649272	0.921735	-0.381083
C212	C	0.982605	1.255068	-0.047750
C213	C	1.315938	1.588401	0.285584
C214	C	0.620530	0.963009	-0.431582
C215	C	0.953863	1.296343	-0.098248
C216	C	1.287197	1.629676	0.235085
C217	C	0.706767	0.921725	-0.280088
C218	C	1.040100	1.255059	0.053245
C219	C	1.373434	1.588392	0.386579
C220	C	0.706752	0.839174	-0.280078
C221	C	1.040085	1.172508	0.053255
C222	C	1.373419	1.505841	0.386589
C223	C	0.677997	0.797902	-0.330574
C224	C	1.011330	1.131235	0.002759
C225	C	1.344663	1.464568	0.336093
C226	C	0.649254	0.839181	-0.381076
C227	C	0.982588	1.172514	-0.047742
C228	C	1.315921	1.505848	0.285591
C229	C	0.620497	0.797910	-0.431567
C230	C	0.953830	1.131243	-0.098234
C231	C	1.287164	1.464577	0.235100
C232	C	0.591756	0.839188	-0.482073
C233	C	0.925090	1.172521	-0.148740
C234	C	1.258423	1.505855	0.184594
C235	C	0.591775	0.921736	-0.482078
C236	C	0.925108	1.255070	-0.148744
C237	C	1.258441	1.588403	0.184589
C238	C	0.677978	0.715353	-0.330569
C239	C	1.011312	1.048686	0.002764
C240	C	1.344645	1.382020	0.336097
C241	C	0.620479	0.715356	-0.431560
C242	C	0.953813	1.048690	-0.098226
C243	C	1.287146	1.382023	0.235107
C244	C	0.620589	0.330123	-1.046554
C245	C	0.953922	0.663456	-0.713221
C246	C	1.287255	0.996790	-0.379887
C247	C	0.678026	0.431241	-1.046555
C248	C	1.011360	0.764574	-0.713221
C249	C	1.344693	1.097908	-0.379888
C250	C	0.678018	0.431259	-0.964009
C251	C	1.011352	0.764593	-0.630675
C252	C	1.344685	1.097926	-0.297342
C253	C	0.649295	0.380710	-0.922732
C254	C	0.982628	0.714043	-0.589398
C255	C	1.315962	1.047376	-0.256065
C256	C	0.620579	0.330142	-0.964000
C257	C	0.953912	0.663475	-0.630667
C258	C	1.287246	0.996808	-0.297334
C259	C	0.706730	0.481832	-0.922734
C260	C	1.040064	0.815166	-0.589401
C261	C	1.373397	1.148499	-0.256067
C262	C	0.706724	0.481853	-0.840183
C263	C	1.040057	0.815187	-0.506849
C264	C	1.373390	1.148520	-0.173516
C265	C	0.678002	0.431299	-0.798904
C266	C	1.011335	0.764632	-0.465571
C267	C	1.344669	1.097966	-0.132238
C268	C	0.649285	0.380728	-0.840178
C269	C	0.982619	0.714062	-0.506845
C270	C	1.315952	1.047395	-0.173511
C271	C	0.620562	0.330179	-0.798901
C272	C	0.953895	0.663512	-0.465568
C273	C	1.287228	0.996845	-0.132234
C274	C	0.591847	0.279603	-0.840173
C275	C	0.925180	0.612936	-0.506840
C276	C	1.258514	0.946270	-0.173507
C277	C	0.591858	0.279587	-0.922722
C278	C	0.925191	0.612921	-0.589389
C279	C	1.258524	0.946254	-0.256055
C280	C	0.677991	0.431315	-0.716356
C281	C	1.011325	0.764648	-0.383022
C282	C	1.344658	1.097982	-0.049689
C283	C	0.620552	0.330197	-0.716347
C284	C	0.953886	0.663530	-0.383014
C285	C	1.287219	0.996864	-0.049681
C286	C	0.649236	0.380867	-0.175687
C287	C	0.982569	0.714201	0.157646
C288	C	1.315902	1.047534	0.490979
C289	C	0.649312	0.380673	-0.087831
C290	C	0.982646	0.714006	0.245502
C291	C	1.315979	1.047339	0.578835
H292	H	0.478237	0.472665	-0.472549
H293	H	0.811571	0.805998	-0.139215
H294	H	1.144904	1.139331	0.194118
F295	F	0.590032	0.276297	-1.090478
F296	F	0.923365	0.609630	-0.757145
F297	F	1.256698	0.942964	-0.423812
H298	H	-0.094158	0.472730	-0.472679
H299	H	0.239176	0.806064	-0.139345
H300	H	0.572509	1.139397	0.193988
H301	H	0.597149	1.079175	-0.472712
H302	H	0.930482	1.412508	-0.139379
H303	H	1.263816	1.745842	0.193955
F304	F	0.589873	0.671439	-0.485305
F305	F	0.923207	1.004772	-0.151972
F306	F	1.256540	1.338105	0.181362
F307	F	0.561279	0.225806	-0.796234
F308	F	0.894612	0.559139	-0.462900
F309	F	1.227945	0.892473	-0.129567
F310	F	0.708648	1.089478	-0.276865
F311	F	1.041982	1.422811	0.056468
F312	F	1.375315	1.756144	0.389802
F313	F	0.737372	0.965653	-0.226358
F314	F	1.070705	1.298986	0.106975
F315	F	1.404039	1.632319	0.440308
F316	F	0.737343	0.795250	-0.226331
F317	F	1.070676	1.128584	0.107002
F318	F	1.404009	1.461917	0.440336
H319	H	0.701376	0.681748	-0.289444
H320	H	1.034710	1.015082	0.043889
H321	H	1.368043	1.348415	0.377222
H322	H	0.121611	0.238426	-0.239070
H323	H	0.454944	0.571760	0.094264
H324	H	0.788278	0.905093	0.427597
F325	F	0.708590	0.485042	-1.090487
F326	F	1.041924	0.818376	-0.757153
F327	F	1.375257	1.151709	-0.423820
H328	H	0.597164	0.289029	-0.682745
H329	H	0.930497	0.622362	-0.349412
H330	H	1.263830	0.955696	-0.016079
H331	H	0.701374	0.472487	-0.682755
H332	H	1.034707	0.805820	-0.349422
H333	H	1.368040	1.139154	-0.016089
H334	H	0.393129	0.472667	-0.472586
H335	H	0.726462	0.806000	-0.139252
H336	H	1.059795	1.139333	0.194081
F337	F	0.268293	0.535950	-0.535691
F338	F	0.601626	0.869283	-0.202358
F339	F	0.934960	1.202617	0.130976
F340	F	0.171460	0.535958	-0.535715
F341	F	0.504793	0.869292	-0.202381
F342	F	0.838126	1.202625	0.130952
F343	F	-0.185143	0.485384	-0.485316
F344	F	0.148190	0.818717	-0.151982
F345	F	0.481524	1.152050	0.181351
H346	H	-0.179312	0.289085	-0.289572
H347	H	0.154021	0.622418	0.043762
H348	H	0.487354	0.955752	0.377095
H349	H	0.568479	0.238413	-0.956333
H350	H	0.901812	0.571746	-0.623000
H351	H	1.235146	0.905079	-0.289667
H352	H	0.730111	0.522996	-0.956348
H353	H	1.063444	0.856329	-0.623014
H354	H	1.396777	1.189663	-0.289681
H355	H	0.730104	0.523036	-0.806586
H356	H	1.063438	0.856369	-0.473252
H357	H	1.396771	1.189702	-0.139919
H358	H	-0.094205	0.289063	-0.289562
H359	H	0.239129	0.622396	0.043771
H360	H	0.572462	0.955729	0.377105
F361	F	0.171394	0.225742	-0.226445
F362	F	0.504727	0.559075	0.106888
F363	F	0.838061	0.892409	0.440221
H364	H	0.262369	0.238388	-0.239054
H365	H	0.595703	0.571721	0.094280
H366	H	0.929036	0.905054	0.427613
H367	H	0.393076	0.289010	-0.289456
H368	H	0.726409	0.622343	0.043877
H369	H	1.059742	0.955676	0.377210
H370	H	0.478199	0.289010	-0.289438
H371	H	0.811532	0.622343	0.043896
H372	H	1.144866	0.955676	0.377229
H373	H	0.036506	0.238435	-0.239086
H374	H	0.369839	0.571768	0.094247
H375	H	0.703172	0.905101	0.427580
F376	F	0.030698	0.535964	-0.535739
F377	F	0.364031	0.869297	-0.202406
F378	F	0.697365	1.202630	0.130927
F379	F	0.127547	0.535962	-0.535725
F380	F	0.460880	0.869296	-0.202392
F381	F	0.794213	1.202629	0.130942
H382	H	0.568340	0.805575	-0.523180
H383	H	0.901673	1.138909	-0.189847
H384	H	1.235007	1.472242	0.143487
H385	H	0.568375	0.955352	-0.523196
H386	H	0.901709	1.288686	-0.189863
H387	H	1.235042	1.622019	0.143471
