data_functionalizedCrystal
_audit_creation_method	'MofGen! by Chris Wilmer'
_symmetry_space_group_name_H-M	'P1'
_symmetry_Int_Tables_number	1
_symmetry_cell_setting	triclinic
loop_
_symmetry_equiv_pos_as_xyz
  x,y,z
_cell_length_a	19.805407
_cell_length_b	19.805405
_cell_length_c	19.805398
_cell_angle_alpha	89.970920
_cell_angle_beta	90.011351
_cell_angle_gamma	89.969510
loop_
_atom_site_label
_atom_site_type_symbol
_atom_site_fract_x
_atom_site_fract_y
_atom_site_fract_z
Zn1	Zn	1.034661	0.269521	0.382685
Zn2	Zn	1.534661	0.769521	0.882685
Zn3	Zn	1.034575	0.382711	0.269496
Zn4	Zn	1.534575	0.882711	0.769496
Zn5	Zn	0.921488	0.269536	0.269514
Zn6	Zn	1.421488	0.769536	0.769514
Zn7	Zn	0.921426	0.382668	0.382646
Zn8	Zn	1.421426	0.882668	0.882646
O9	O	0.978037	0.326109	0.326085
O10	O	1.478037	0.826109	0.826085
O11	O	1.129366	0.284547	0.367680
O12	O	1.629366	0.784547	0.867680
O13	O	1.019564	0.367723	0.174782
O14	O	1.519564	0.867723	0.674782
O15	O	0.936563	0.174817	0.284550
O16	O	1.436563	0.674817	0.784550
O17	O	1.129303	0.367708	0.284520
O18	O	1.629303	0.867708	0.784520
O19	O	1.019710	0.174806	0.367696
O20	O	1.519710	0.674806	0.867696
O21	O	0.936480	0.284573	0.174795
O22	O	1.436480	0.784573	0.674795
O23	O	0.826763	0.284531	0.284512
O24	O	1.326763	0.784531	0.784512
O25	O	0.936456	0.367634	0.477368
O26	O	1.436456	0.867634	0.977368
O27	O	0.826717	0.367649	0.367630
O28	O	1.326717	0.867649	0.867630
O29	O	1.019650	0.284505	0.477397
O30	O	1.519650	0.784505	0.977397
O31	O	1.019503	0.477422	0.284482
O32	O	1.519503	0.977422	0.784482
O33	O	0.936373	0.477390	0.367613
O34	O	1.436373	0.977390	0.867613
C35	C	0.802181	0.326088	0.326069
C36	C	1.302181	0.826088	0.826069
C37	C	0.726949	0.326095	0.326078
C38	C	1.226949	0.826095	0.826078
C39	C	0.691639	0.282870	0.369445
C40	C	1.191639	0.782870	0.869445
C41	C	0.620950	0.282873	0.369448
C42	C	1.120950	0.782873	0.869448
C43	C	0.585574	0.326106	0.326086
C44	C	1.085574	0.826106	0.826086
C45	C	0.620889	0.369333	0.282714
C46	C	1.120889	0.869333	0.782714
C47	C	0.691577	0.369325	0.282709
C48	C	1.191577	0.869325	0.782709
C49	C	0.335816	0.369363	0.282735
C50	C	0.835816	0.869363	0.782735
C51	C	0.265124	0.369369	0.282745
C52	C	0.765124	0.869369	0.782745
C53	C	0.265190	0.282911	0.369474
C54	C	0.765190	0.782911	0.869474
C55	C	0.335877	0.282904	0.369468
C56	C	0.835877	0.782904	0.869468
C57	C	0.371186	0.326128	0.326094
C58	C	0.871186	0.826128	0.826094
C59	C	0.447835	0.326123	0.326091
C60	C	0.947835	0.826123	0.826091
C61	C	0.508927	0.326115	0.326092
C62	C	1.008927	0.826115	0.826092
C63	C	0.977940	0.501965	0.326056
C64	C	1.477940	1.001965	0.826056
C65	C	0.977961	0.577197	0.326067
C66	C	1.477961	1.077197	0.826067
C67	C	1.021226	0.612477	0.369394
C68	C	1.521226	1.112477	0.869394
C69	C	1.021243	0.683165	0.369405
C70	C	1.521243	1.183165	0.869405
C71	C	0.977997	0.718572	0.326084
C72	C	1.477997	1.218572	0.826084
C73	C	0.934727	0.683287	0.282755
C74	C	1.434727	1.183287	0.782755
C75	C	0.934707	0.612600	0.282748
C76	C	1.434707	1.112600	0.782748
C77	C	0.934803	0.968361	0.282782
C78	C	1.434803	1.468361	0.782782
C79	C	0.934827	1.039053	0.282791
C80	C	1.434827	1.539053	0.782791
C81	C	1.021339	1.038926	0.369440
C82	C	1.521339	1.538926	0.869440
C83	C	1.021319	0.968239	0.369433
C84	C	1.521319	1.468239	0.869433
C85	C	0.978047	0.932960	0.326106
C86	C	1.478047	1.432960	0.826106
C87	C	0.978029	0.856311	0.326096
C88	C	1.478029	1.356311	0.826096
C89	C	0.978018	0.795219	0.326091
C90	C	1.478018	1.295219	0.826091
C91	C	1.154580	0.326131	0.326102
C92	C	1.654580	0.826131	0.826102
C93	C	1.229812	0.326140	0.326110
C94	C	1.729812	0.826140	0.826110
C95	C	0.978055	0.326063	0.502628
C96	C	1.478055	0.826063	1.002628
C97	C	0.978063	0.326043	0.577860
C98	C	1.478063	0.826043	1.077860
C99	C	0.978125	1.149566	0.326123
C100	C	1.478125	1.649566	0.826123
C101	C	0.978090	1.074334	0.326123
C102	C	1.478090	1.574334	0.826123
C103	C	0.978058	0.326106	0.150229
C104	C	1.478058	0.826106	0.650229
C105	C	0.978182	0.325934	0.074998
C106	C	1.478182	0.825934	0.574998
C107	C	1.021432	0.369232	1.039642
C108	C	1.521432	0.869232	1.539642
C109	C	1.021413	0.369250	0.968954
C110	C	1.521413	0.869250	1.468954
C111	C	0.978147	0.325967	0.933622
C112	C	1.478147	0.825967	1.433622
C113	C	0.934892	0.282668	0.968982
C114	C	1.434892	0.782668	1.468982
C115	C	0.934908	0.282654	1.039670
C116	C	1.434908	0.782654	1.539670
C117	C	0.934827	0.282726	0.683909
C118	C	1.434827	0.782726	1.183909
C119	C	0.934816	0.282742	0.613217
C120	C	1.434816	0.782742	1.113217
C121	C	1.021332	0.369322	0.613193
C122	C	1.521332	0.869322	1.113193
C123	C	1.021348	0.369308	0.683880
C124	C	1.521348	0.869308	1.183880
C125	C	0.978091	0.326012	0.719235
C126	C	1.478091	0.826012	1.219235
C127	C	0.978111	0.325993	0.795883
C128	C	1.478111	0.825993	1.295883
C129	C	0.978130	0.325982	0.856975
C130	C	1.478130	0.825982	1.356975
H131	H	0.236322	0.404576	0.247433
H132	H	0.736322	0.904576	0.747433
H133	H	0.364557	0.404560	0.247418
H134	H	0.864557	0.904560	0.747418
N135	N	1.067964	0.930049	0.416155
N136	N	1.567964	1.430049	0.916155
H137	H	1.095375	0.963126	0.443607
H138	H	1.595375	1.463126	0.943607
H139	H	1.040379	0.900725	0.447449
H140	H	1.540379	1.400725	0.947449
N141	N	1.067995	1.076979	0.416188
N142	N	1.567995	1.576979	0.916188
H143	H	1.095387	1.043821	0.443630
H144	H	1.595387	1.543821	0.943630
H145	H	1.099348	1.106305	0.388677
H146	H	1.599348	1.606305	0.888677
N147	N	0.888180	1.077240	0.236063
N148	N	1.388180	1.577240	0.736063
H149	H	0.839808	1.064976	0.246534
H150	H	1.339808	1.564976	0.746534
H151	H	0.894820	1.127361	0.242662
H152	H	1.394820	1.627361	0.742662
H153	H	0.899690	0.247396	1.068455
H154	H	1.399690	0.747396	1.568455
H155	H	0.592080	0.404530	0.247405
H156	H	1.092080	0.904530	0.747405
N157	N	1.068098	0.415922	1.077740
N158	N	1.568098	0.915922	1.577740
H159	H	1.040576	0.447278	1.107059
H160	H	1.540576	0.947278	1.607059
H161	H	1.099484	0.388371	1.107038
H162	H	1.599484	0.888371	1.607038
N163	N	1.068059	0.415950	0.930818
N164	N	1.568059	0.915950	1.430818
H165	H	1.095473	0.443365	0.963925
H166	H	1.595473	0.943365	1.463925
H167	H	1.099390	0.388407	0.901495
H168	H	1.599390	0.888407	1.401495
H169	H	1.056582	0.404551	0.712644
H170	H	1.556582	0.904551	1.212644
H171	H	0.899512	0.712121	0.247485
H172	H	1.399512	1.212121	0.747485
N173	N	0.374028	0.236272	0.416238
N174	N	0.874028	0.736272	0.916238
H175	H	0.403362	0.204869	0.388785
H176	H	0.903362	0.704869	0.888785
H177	H	0.403313	0.263864	0.447544
H178	H	0.903313	0.763864	0.947544
H179	H	0.899571	0.939642	0.247503
H180	H	1.399571	1.439642	0.747503
H181	H	0.899603	0.247472	0.712686
H182	H	1.399603	0.747472	1.212686
N183	N	0.888041	0.574545	0.236019
N184	N	1.388041	1.074545	0.736019
H185	H	0.860648	0.607700	0.208575
H186	H	1.360648	1.107700	0.708575
H187	H	0.915605	0.545211	0.204717
H188	H	1.415605	1.045211	0.704717
N189	N	1.067988	0.416024	0.575061
N190	N	1.567988	0.916024	1.075061
H191	H	1.061349	0.409533	0.524919
H192	H	1.561349	0.909533	1.024919
H193	H	1.057489	0.464356	0.587473
H194	H	1.557489	0.964356	1.087473
N195	N	0.729665	0.415943	0.235931
N196	N	1.229665	0.915943	0.735931
H197	H	0.696530	0.443332	0.208463
H198	H	1.196530	0.943332	0.708463
H199	H	0.758990	0.447299	0.263421
H200	H	1.258990	0.947299	0.763421
N201	N	0.888152	0.236053	0.575106
N202	N	1.388152	0.736053	1.075106
H203	H	0.860751	0.208622	0.608229
H204	H	1.360751	0.708622	1.108229
H205	H	0.856809	0.263606	0.545766
H206	H	1.356809	0.763606	1.045766
H207	H	0.236432	0.247714	0.404789
H208	H	0.736432	0.747714	0.904789
N209	N	1.067874	0.574290	0.416116
N210	N	1.567874	1.074290	0.916116
H211	H	1.095283	0.607369	0.443566
H212	H	1.595283	1.107369	0.943566
H213	H	1.040292	0.544964	0.447411
H214	H	1.540292	1.044964	0.947411
H215	H	1.056479	0.711887	0.404682
H216	H	1.556479	1.211887	0.904682
N217	N	0.888224	0.235982	0.930882
N218	N	1.388224	0.735982	1.430882
H219	H	0.856833	0.263490	0.901544
H220	H	1.356833	0.763490	1.401544
H221	H	0.915792	0.204632	0.901604
H222	H	1.415792	0.704632	1.401604
N223	N	0.729792	0.236244	0.416218
N224	N	1.229792	0.736244	0.916218
H225	H	0.696694	0.208861	0.443691
H226	H	1.196694	0.708861	0.943691
H227	H	0.759128	0.204882	0.388722
H228	H	1.259128	0.704882	0.888722
H229	H	0.592203	0.247676	0.404763
H230	H	1.092203	0.747676	0.904763
