data_functionalizedCrystal
_audit_creation_method	'MofGen! by Chris Wilmer'
_symmetry_space_group_name_H-M	'P1'
_symmetry_Int_Tables_number	1
_symmetry_cell_setting	triclinic
loop_
_symmetry_equiv_pos_as_xyz
  x,y,z
_cell_length_a	21.295417
_cell_length_b	17.077404
_cell_length_c	17.077396
_cell_angle_alpha	89.980499
_cell_angle_beta	89.966808
_cell_angle_gamma	90.030732
loop_
_atom_site_label
_atom_site_type_symbol
_atom_site_fract_x
_atom_site_fract_y
_atom_site_fract_z
Zn1	Zn	-0.250605	1.200013	-0.443817
Zn2	Zn	-0.355878	1.199903	-0.312540
Zn3	Zn	-0.250628	1.068745	-0.312565
Zn4	Zn	-0.355841	1.068695	-0.443764
O5	O	-0.303238	1.134339	-0.378171
O6	O	-0.264577	1.309845	-0.426415
O7	O	-0.341942	1.182479	-0.202697
O8	O	-0.162535	1.086225	-0.330008
O9	O	-0.341920	1.309764	-0.329966
O10	O	-0.162519	1.182667	-0.426439
O11	O	-0.264614	1.086118	-0.202715
O12	O	-0.264578	0.958891	-0.329957
O13	O	-0.341857	1.086140	-0.553618
O14	O	-0.341878	0.958855	-0.426348
O15	O	-0.264540	1.182619	-0.553657
O16	O	-0.443963	1.182431	-0.329915
O17	O	-0.443935	1.086033	-0.426324
C18	C	-0.303227	0.930391	-0.378150
C19	C	-0.303237	0.843141	-0.378159
C20	C	-0.343548	0.802153	-0.428270
C21	C	-0.343549	0.720172	-0.428282
C22	C	-0.303242	0.679182	-0.378180
C23	C	-0.262927	0.720176	-0.328067
C24	C	-0.262923	0.802155	-0.328059
C25	C	-0.262940	0.549306	-0.328086
C26	C	-0.262944	0.467322	-0.328093
C27	C	-0.343566	0.467323	-0.428309
C28	C	-0.343562	0.549302	-0.428301
C29	C	-0.303247	0.590291	-0.378187
C30	C	-0.466790	1.134236	-0.378128
C31	C	-0.536758	1.134264	-0.378136
C32	C	-0.569618	1.184503	-0.327987
C33	C	-0.635360	1.184539	-0.328004
C34	C	-0.668240	1.134323	-0.378163
C35	C	-0.635372	1.084081	-0.428321
C36	C	-0.569631	1.084051	-0.428308
N37	N	-0.771506	1.065655	-0.384140
N38	N	-0.833958	1.065685	-0.384148
C39	C	-0.866315	1.134411	-0.378208
N40	N	-0.833862	1.203107	-0.372244
N41	N	-0.771405	1.203076	-0.372231
C42	C	-0.739526	1.134351	-0.378183
C43	C	-0.970461	1.184694	-0.328075
C44	C	-1.036204	1.184732	-0.328098
C45	C	-1.036215	1.084267	-0.428411
C46	C	-0.970473	1.084236	-0.428392
C47	C	-0.937599	1.134449	-0.378220
C48	C	-0.139048	1.134464	-0.378232
C49	C	-0.069080	1.134517	-0.378258
C50	C	-0.303192	1.134386	-0.582916
C51	C	-0.303172	1.134407	-0.670166
C52	C	-0.303250	1.339083	-0.378194
C53	C	-0.303255	1.426333	-0.378203
C54	C	-0.262910	1.184645	-0.711177
C55	C	-0.262889	1.184654	-0.793158
C56	C	-0.303134	1.134429	-0.834125
C57	C	-0.343397	1.084185	-0.793108
C58	C	-0.343415	1.084172	-0.711129
C59	C	-0.343360	1.084217	-0.963978
C60	C	-0.343343	1.084231	-1.045963
C61	C	-0.262834	1.184699	-1.046007
C62	C	-0.262851	1.184686	-0.964028
C63	C	-0.303116	1.134443	-0.923016
C64	C	-0.303239	1.134337	-0.174224
C65	C	-0.303081	1.134469	-0.086974
H66	H	-0.230106	0.582677	-0.287285
O67	O	-0.223904	1.233516	-0.671349
C68	C	-0.259752	1.284170	-0.623907
H69	H	-0.309326	1.288991	-0.648592
H70	H	-0.236984	1.344595	-0.622996
H71	H	-0.261932	1.259887	-0.561772
O72	O	-0.537777	1.035283	-0.477131
C73	C	-0.553766	1.052414	-0.555388
H74	H	-0.601475	1.082612	-0.557056
H75	H	-0.556034	0.995743	-0.590535
H76	H	-0.516719	1.092740	-0.581852
O77	O	-0.382769	0.842002	-0.476828
C78	C	-0.423371	0.889394	-0.432043
H79	H	-0.427199	0.864661	-0.370212
H80	H	-0.471843	0.890306	-0.460325
H81	H	-0.403902	0.951535	-0.429379
O82	O	-0.223867	0.427454	-0.279369
C83	C	-0.259636	0.379958	-0.228599
H84	H	-0.309204	0.404636	-0.223586
H85	H	-0.236779	0.378985	-0.168259
H86	H	-0.261849	0.317848	-0.252896
O87	O	-0.382517	1.035477	-1.085678
C88	C	-0.445267	1.052577	-1.065648
H89	H	-0.446598	1.082734	-1.006127
H90	H	-0.473483	0.995897	-1.062835
H91	H	-0.466462	1.092928	-1.111784
H92	H	-0.376138	1.043291	-0.930589
O93	O	-0.938479	1.035388	-0.476991
C94	C	-0.900527	0.984686	-0.432243
H95	H	-0.890696	1.012402	-0.372778
H96	H	-0.854285	0.974127	-0.464195
H97	H	-0.925910	0.926530	-0.423570
H98	H	-1.062958	1.225648	-0.287263
H99	H	-0.376163	1.043288	-0.826470
H100	H	-0.376389	0.433946	-0.469116
H101	H	-0.230106	0.686795	-0.287276
O102	O	-0.223761	1.233533	-0.832875
C103	C	-0.188237	1.277850	-0.779137
H104	H	-0.214035	1.280537	-0.720691
H105	H	-0.181524	1.339707	-0.802838
H106	H	-0.140426	1.249145	-0.770430
H107	H	-0.943694	1.225583	-0.287224
O108	O	-0.667378	1.035410	-0.477083
C109	C	-0.705333	1.080090	-0.527842
H110	H	-0.715156	1.139597	-0.500212
H111	H	-0.751579	1.048130	-0.538341
H112	H	-0.679958	1.088671	-0.586017
H113	H	-0.376375	0.686803	-0.469086
H114	H	-0.230095	0.835527	-0.287258
H115	H	-1.062985	1.043384	-0.469255
H116	H	-0.376194	1.043255	-0.677738
O117	O	-0.223700	1.233500	-0.924352
C118	C	-0.188168	1.277862	-0.978127
H119	H	-0.185971	1.245724	-1.036562
H120	H	-0.138578	1.286269	-0.954458
H121	H	-0.211222	1.337463	-0.986846
H122	H	-0.230048	1.225607	-1.079403
O123	O	-0.537783	1.233359	-0.279234
C124	C	-0.580890	1.277697	-0.234962
H125	H	-0.627732	1.280412	-0.267125
H126	H	-0.561859	1.339543	-0.226645
H127	H	-0.587935	1.248992	-0.175319
H128	H	-0.662120	1.225453	-0.287167
O129	O	-0.382736	0.589001	-0.477042
C130	C	-0.418331	0.535246	-0.521262
H131	H	-0.392555	0.476823	-0.524050
H132	H	-0.425108	0.558960	-0.583090
H133	H	-0.466110	0.526488	-0.492406
