data_functionalizedCrystal
_audit_creation_method	'MofGen! by Chris Wilmer'
_symmetry_space_group_name_H-M	'P1'
_symmetry_Int_Tables_number	1
_symmetry_cell_setting	triclinic
loop_
_symmetry_equiv_pos_as_xyz
  x,y,z
_cell_length_a	17.038272
_cell_length_b	15.995350
_cell_length_c	16.098538
_cell_angle_alpha	92.725104
_cell_angle_beta	87.069734
_cell_angle_gamma	87.301965
loop_
_atom_site_label
_atom_site_type_symbol
_atom_site_fract_x
_atom_site_fract_y
_atom_site_fract_z
O1	O	-1.040907	-0.178336	0.069145
O2	O	-0.540907	0.321664	0.569145
O3	O	-0.813276	-0.175448	0.069170
O4	O	-0.313276	0.324552	0.569170
O5	O	-0.933314	-0.055448	0.069156
O6	O	-0.433314	0.444552	0.569156
O7	O	-0.920869	-0.298337	0.069159
O8	O	-0.420869	0.201663	0.569159
O9	O	-0.926302	-0.062428	-0.069356
O10	O	-0.426302	0.437572	0.430644
O11	O	-0.806264	-0.182428	-0.069342
O12	O	-0.306264	0.317572	0.430658
O13	O	-1.033895	-0.185317	-0.069367
O14	O	-0.533895	0.314683	0.430633
Zn15	Zn	-0.918966	-0.184981	-0.091347
Zn16	Zn	-0.418966	0.315019	0.408653
Zn17	Zn	-0.928205	-0.175784	0.091149
Zn18	Zn	-0.428205	0.324216	0.591149
O19	O	-0.913857	-0.305317	-0.069353
O20	O	-0.413857	0.194683	0.430647
C21	C	-0.780642	-0.176312	-0.000083
C22	C	-0.280642	0.323688	0.499917
C23	C	-0.693847	-0.168477	-0.000074
C24	C	-0.193847	0.331523	0.499926
C25	C	-1.066529	-0.184453	-0.000112
C26	C	-0.566529	0.315547	0.499888
C27	C	-1.153324	-0.192287	-0.000116
C28	C	-0.653324	0.307713	0.499884
C29	C	-0.643751	-0.240406	-0.000074
C30	C	-0.143751	0.259594	0.499926
C31	C	-0.562198	-0.233040	-0.000085
C32	C	-0.062198	0.266960	0.499915
C33	C	-0.530743	-0.153745	-0.000091
C34	C	-0.030743	0.346255	0.499909
C35	C	-0.580846	-0.081811	-0.000094
C36	C	-0.080846	0.418189	0.499906
C37	C	-0.662397	-0.089178	-0.000088
C38	C	-0.162397	0.410822	0.499912
C39	C	-0.284978	-0.127720	-0.000113
C40	C	0.215022	0.372280	0.499887
C41	C	-0.203421	-0.120359	-0.000117
C42	C	0.296579	0.379641	0.499883
C43	C	-0.184778	-0.271589	-0.000110
C44	C	0.315222	0.228411	0.499890
C45	C	-0.266331	-0.278948	-0.000099
C46	C	0.233669	0.221052	0.499901
C47	C	-0.316427	-0.207014	-0.000106
C48	C	0.183573	0.292986	0.499894
C49	C	-0.447383	-0.146214	-0.000100
C50	C	0.052617	0.353786	0.499900
C51	C	-0.399785	-0.214546	-0.000103
C52	C	0.100215	0.285454	0.499897
C53	C	-0.929293	-0.027707	-0.000099
C54	C	-0.429293	0.472293	0.499901
C55	C	-0.927751	0.065354	-0.000094
C56	C	-0.427751	0.565354	0.499906
C57	C	-0.917878	-0.333058	-0.000097
C58	C	-0.417878	0.166942	0.499903
C59	C	-0.919420	-0.426118	-0.000096
C60	C	-0.419420	0.073882	0.499904
N61	N	-0.912667	-0.191258	-0.215895
N62	N	-0.412667	0.308742	0.284105
C63	C	-0.922212	0.403496	-0.000096
C64	C	-0.422212	0.903496	0.499904
C65	C	-0.836739	0.362167	0.000224
C66	C	-0.336739	0.862167	0.500224
C67	C	-0.838266	0.265352	-0.000088
C68	C	-0.338266	0.765352	0.499912
C69	C	-0.924960	0.235740	-0.000094
C70	C	-0.424960	0.735740	0.499906
C71	C	-0.963121	0.269827	-0.079195
C72	C	-0.463121	0.769827	0.420805
C73	C	-0.960970	0.366613	-0.079261
C74	C	-0.460970	0.866613	0.420739
C75	C	-0.970710	0.374783	0.078253
C76	C	-0.470710	0.874783	0.578253
C77	C	-0.970743	0.277892	0.079299
C78	C	-0.470743	0.777892	0.579299
C79	C	-0.926517	0.140931	-0.000096
C80	C	-0.426517	0.640931	0.499904
C81	C	-0.920657	0.498304	-0.000100
C82	C	-0.420657	0.998304	0.499900
C83	C	-0.963634	-0.140345	-0.259486
C84	C	-0.463634	0.359655	0.240514
C85	C	-0.959235	-0.144745	-0.346674
C86	C	-0.459235	0.355255	0.153326
C87	C	-0.903871	-0.200061	-0.390270
C88	C	-0.403871	0.299939	0.109730
C89	C	-0.852898	-0.250975	-0.346673
C90	C	-0.352898	0.249025	0.153327
C91	C	-0.857295	-0.246571	-0.259486
C92	C	-0.357295	0.253429	0.240514
C93	C	-0.887934	-0.216011	-0.653519
C94	C	-0.387934	0.283989	-0.153519
C95	C	-0.883543	-0.220413	-0.740712
C96	C	-0.383543	0.279587	-0.240712
C97	C	-0.989879	-0.114181	-0.740706
C98	C	-0.489879	0.385819	-0.240706
C99	C	-0.994274	-0.109786	-0.653518
C100	C	-0.494274	0.390214	-0.153518
C101	C	-0.943298	-0.160697	-0.609929
C102	C	-0.443298	0.339303	-0.109929
C103	C	-0.899374	-0.204561	-0.479391
C104	C	-0.399374	0.295439	0.020609
C105	C	-0.947791	-0.156192	-0.520810
C106	C	-0.447791	0.343808	-0.020810
N107	N	-0.934510	-0.169501	0.215698
N108	N	-0.434510	0.330499	0.715698
H109	H	-0.669354	-0.304977	-0.000068
H110	H	-0.169354	0.195023	0.499932
H111	H	-1.008720	-0.095305	-0.223996
H112	H	-0.508720	0.404695	0.276004
H113	H	-0.802023	0.237002	-0.056880
H114	H	-0.302023	0.737002	0.443120
H115	H	-0.815791	-0.288028	-0.223996
H116	H	-0.315791	0.211972	0.276004
H117	H	-0.143982	-0.330153	-0.000106
H118	H	0.356018	0.169847	0.499894
H119	H	-0.945795	0.400335	0.138206
H120	H	-0.445795	0.900335	0.638206
C121	C	-0.434388	-0.301769	-0.000096
C122	C	0.065612	0.198231	0.499904
N123	N	-0.460458	-0.367465	-0.000088
N124	N	0.039542	0.132535	0.499912
H125	H	-0.325756	-0.069146	-0.000120
H126	H	0.174244	0.430854	0.499880
H127	H	-1.026664	0.251016	-0.082140
H128	H	-0.526664	0.751016	0.417860
H129	H	-0.846429	-0.257467	-0.618035
H130	H	-0.346429	0.242533	-0.118035
C131	C	-0.791990	-0.311815	-0.394632
C132	C	-0.291990	0.188185	0.105368
N133	N	-0.746113	-0.357641	-0.430754
N134	N	-0.246113	0.142359	0.069246
H135	H	-0.291936	-0.343518	-0.000085
H136	H	0.208064	0.156482	0.499915
C137	C	-1.056482	0.251386	0.085742
C138	C	-0.556482	0.751386	0.585742
N139	N	-1.121064	0.231425	0.090588
N140	N	-0.621064	0.731425	0.590588
H141	H	-0.703186	-0.030606	-0.000088
H142	H	-0.203186	0.469394	0.499912
C143	C	-0.919527	0.230304	-0.158713
C144	C	-0.419527	0.730304	0.341287
N145	N	-0.886687	0.200537	-0.218604
N146	N	-0.386687	0.700537	0.281396
H147	H	-1.039355	-0.064743	-0.618024
H148	H	-0.539355	0.435257	-0.118024
C149	C	-1.055896	0.411666	0.078970
C150	C	-0.555896	0.911666	0.578970
N151	N	-1.120054	0.439451	0.079504
N152	N	-0.620054	0.939451	0.579504
H153	H	-1.031380	-0.072731	-0.776205
H154	H	-0.531380	0.427269	-0.276205
H155	H	-0.927230	0.384125	-0.138385
H156	H	-0.427230	0.884125	0.361615
H157	H	-0.942876	0.255788	0.137815
H158	H	-0.442876	0.755788	0.637815
C159	C	-1.045514	0.403895	-0.084128
C160	C	-0.545514	0.903895	0.415872
N161	N	-1.109191	0.431973	-0.087799
N162	N	-0.609191	0.931973	0.412201
H163	H	-0.555229	-0.017248	-0.000110
H164	H	-0.055229	0.482752	0.499890
C165	C	-0.168823	-0.033124	-0.000122
C166	C	0.331177	0.466876	0.499878
N167	N	-0.142765	0.032578	-0.000124
N168	N	0.357235	0.532578	0.499876
C169	C	-0.412775	-0.058991	-0.000101
C170	C	0.087225	0.441009	0.499899
N171	N	-0.386706	0.006706	-0.000102
N172	N	0.113294	0.506706	0.499898
H173	H	-1.000736	-0.103287	-0.382166
H174	H	-0.500736	0.396713	0.117834
H175	H	-0.807991	0.242148	0.056614
H176	H	-0.307991	0.742148	0.556614
H177	H	-0.805442	0.385992	0.056949
H178	H	-0.305442	0.885992	0.556949
C179	C	-1.008683	-0.095338	-0.472851
C180	C	-0.508683	0.404662	0.027149
N181	N	-1.054547	-0.049503	-0.436722
N182	N	-0.554547	0.450497	0.063278
C183	C	-0.786932	0.388044	-0.075989
C184	C	-0.286932	0.888044	0.424011
N185	N	-0.749423	0.407526	-0.133400
N186	N	-0.249423	0.907526	0.366600
C187	C	-0.822634	-0.281266	-0.788665
C188	C	-0.322634	0.218734	-0.288665
N189	N	-0.776760	-0.327097	-0.824784
N190	N	-0.276760	0.172903	-0.324784
H191	H	-0.854297	-0.249602	-0.514894
H192	H	-0.354297	0.250398	-0.014894
H193	H	-0.521412	-0.291612	-0.000084
H194	H	-0.021412	0.208388	0.499916
