data_functionalizedCrystal
_audit_creation_method	'MofGen! by Chris Wilmer'
_symmetry_space_group_name_H-M	'P1'
_symmetry_Int_Tables_number	1
_symmetry_cell_setting	triclinic
loop_
_symmetry_equiv_pos_as_xyz
  x,y,z
_cell_length_a	6.817900
_cell_length_b	12.840976
_cell_length_c	16.418038
_cell_angle_alpha	81.895512
_cell_angle_beta	75.793737
_cell_angle_gamma	88.343600
loop_
_atom_site_label
_atom_site_type_symbol
_atom_site_fract_x
_atom_site_fract_y
_atom_site_fract_z
V1	V	-3.899289	0.281783	0.117857
O2	O	-3.888287	0.320362	-0.003638
O3	O	-3.852584	0.237594	0.231743
O4	O	-3.794880	0.423960	0.116933
O5	O	-3.946390	0.132705	0.111967
V6	V	-4.389955	0.269086	0.103220
O7	O	-4.144879	0.309635	0.149966
O8	O	-4.594562	0.241235	0.071112
O9	O	-4.213454	0.313276	-0.010666
O10	O	-4.518354	0.230508	0.224716
O11	O	-4.460251	0.418164	0.109111
O12	O	-4.271157	0.126910	0.104144
C13	C	-3.699809	0.222243	0.259479
C14	C	-3.742536	0.187061	0.352588
C15	C	-3.622073	0.578098	0.113040
C16	C	-3.626202	0.459967	0.113034
C17	C	-3.942709	0.174165	0.400615
C18	C	-3.982884	0.141122	0.488104
C19	C	-3.822882	0.120969	0.527562
C20	C	-3.622691	0.133870	0.479529
C21	C	-3.582520	0.166919	0.392043
C22	C	-4.086194	-0.027244	0.108093
C23	C	-4.103194	0.090892	0.108069
V24	V	-3.882253	0.767939	0.117889
O25	O	-3.918757	0.921315	0.112011
O26	O	-3.787971	0.621098	0.116952
O27	O	-3.834013	0.767356	0.231775
O28	O	-3.872397	0.774044	-0.003607
V29	V	-4.370977	0.810780	0.103259
O30	O	-4.129778	0.740575	0.149997
O31	O	-4.572858	0.860829	0.071157
O32	O	-4.242446	0.946374	0.104194
O33	O	-4.451664	0.663320	0.109138
O34	O	-4.498024	0.810591	0.224757
O35	O	-4.196404	0.800116	-0.010630
C36	C	-4.029572	0.328622	-0.038397
C37	C	-3.966081	0.363811	-0.131505
C38	C	-3.680790	0.764667	0.259505
C39	C	-3.722184	0.767332	0.352614
C40	C	-4.013560	0.785838	-0.038369
C41	C	-3.951442	0.782137	-0.131480
C42	C	-3.997461	0.777344	0.571127
C43	C	-4.036339	0.779857	0.658611
C44	C	-3.676148	0.772128	0.650001
C45	C	-3.637272	0.769622	0.562517
C46	C	-3.797936	0.772225	0.523083
C47	C	-3.875690	0.777244	0.698051
C48	C	-3.917841	0.779969	0.792906
C49	C	-3.755782	0.769502	0.428222
C50	C	-4.110893	0.376709	-0.179532
C51	C	-4.051261	0.409757	-0.267020
C52	C	-3.846816	0.429913	-0.306478
C53	C	-3.701993	0.417009	-0.258445
C54	C	-3.761625	0.383955	-0.170960
H55	H	-4.145899	0.130620	0.527200
C56	C	-3.393239	0.672473	0.470959
C57	C	-3.417936	0.763989	0.509701
H58	H	-3.257839	0.669003	0.438349
H59	H	-3.421743	0.612678	0.513287
H60	H	-3.483368	0.673684	0.434955
H61	H	-3.327817	0.762774	0.545710
H62	H	-3.389410	0.823800	0.467367
H63	H	-4.277373	0.360304	-0.147417
C64	C	-3.461426	0.294265	-0.148552
C65	C	-3.602424	0.369794	-0.118174
H66	H	-3.363128	0.285531	-0.115970
H67	H	-3.528813	0.229210	-0.143981
H68	H	-3.396692	0.316844	-0.206305
H69	H	-3.667170	0.347212	-0.060422
H70	H	-3.535030	0.434863	-0.122736
C71	C	-4.280389	0.876998	0.750159
C72	C	-4.255663	0.785478	0.711423
H73	H	-4.415800	0.880468	0.782758
H74	H	-4.190288	0.875798	0.786164
H75	H	-4.251879	0.936797	0.707821
H76	H	-4.284159	0.725678	0.753761
H77	H	-4.345792	0.786668	0.675415
H78	H	-4.128286	0.779464	0.539022
C79	C	-4.166068	0.357000	-0.382188
C80	C	-4.210475	0.423944	-0.319804
H81	H	-4.264370	0.365755	-0.414768
H82	H	-4.035799	0.373732	-0.418210
H83	H	-4.167955	0.286107	-0.355890
H84	H	-4.208573	0.494837	-0.346102
H85	H	-4.340778	0.407218	-0.283776
C86	C	-3.325911	0.114125	0.276873
C87	C	-3.362474	0.181074	0.339253
H88	H	-3.190061	0.122867	0.244284
H89	H	-3.347413	0.043244	0.303169
H90	H	-3.415447	0.130873	0.240852
H91	H	-3.272947	0.164321	0.375278
H92	H	-3.340952	0.251971	0.312955
H93	H	-3.545346	0.770007	0.682119
H94	H	-3.798286	0.456826	-0.377715
H95	H	-3.535530	0.433423	-0.290585
H96	H	-4.073016	0.190563	0.368499
H97	H	-3.855620	0.094058	0.598799
H98	H	-3.492429	0.117456	0.511669
