data_functionalizedCrystal
_audit_creation_method	'MofGen! by Chris Wilmer'
_symmetry_space_group_name_H-M	'P1'
_symmetry_Int_Tables_number	1
_symmetry_cell_setting	triclinic
loop_
_symmetry_equiv_pos_as_xyz
  x,y,z
_cell_length_a	12.759401
_cell_length_b	12.759400
_cell_length_c	17.077396
_cell_angle_alpha	90.026420
_cell_angle_beta	89.985850
_cell_angle_gamma	89.985155
loop_
_atom_site_label
_atom_site_type_symbol
_atom_site_fract_x
_atom_site_fract_y
_atom_site_fract_z
Zn1	Zn	1.606210	0.418253	-0.443794
Zn2	Zn	1.606118	0.593956	-0.312534
Zn3	Zn	1.430526	0.418292	-0.312549
Zn4	Zn	1.430501	0.593891	-0.443765
O5	O	1.518339	0.506098	-0.378160
O6	O	1.753219	0.441571	-0.426388
O7	O	1.582797	0.570698	-0.202689
O8	O	1.453880	0.271266	-0.329977
O9	O	1.753151	0.570660	-0.329952
O10	O	1.582954	0.271237	-0.426402
O11	O	1.453790	0.441638	-0.202700
O12	O	1.283501	0.441575	-0.329949
O13	O	1.453838	0.570549	-0.553616
O14	O	1.283483	0.570587	-0.426353
O15	O	1.582931	0.441508	-0.553637
O16	O	1.582773	0.740969	-0.329924
O17	O	1.453748	0.740921	-0.426339
C18	C	1.245371	0.506079	-0.378150
C19	C	1.128595	0.506096	-0.378164
C20	C	1.518277	0.779066	-0.378144
C21	C	1.518346	0.895842	-0.378163
C22	C	1.518430	0.232065	-0.378194
C23	C	1.518469	0.115288	-0.378208
C24	C	1.073751	0.573380	-0.428278
C25	C	0.964027	0.573393	-0.428287
C26	C	0.964000	0.438836	-0.328060
C27	C	1.073722	0.438818	-0.328056
C28	C	1.128623	0.640658	-0.478387
C29	C	1.073779	0.707948	-0.528505
C30	C	0.964055	0.707961	-0.528513
C31	C	0.909175	0.640684	-0.478404
C32	C	1.792372	0.506118	-0.378172
C33	C	1.909149	0.506127	-0.378176
C34	C	1.585604	0.950694	-0.328016
C35	C	1.585668	1.060418	-0.328040
C36	C	1.451208	1.060429	-0.428362
C37	C	1.451150	0.950707	-0.428341
C38	C	1.652800	0.895830	-0.277838
C39	C	1.720063	0.950682	-0.227686
C40	C	1.720127	1.060406	-0.227710
C41	C	1.652929	1.115278	-0.277887
C42	C	1.518392	0.506017	-0.582905
C43	C	1.518414	0.505982	-0.670155
C44	C	1.451261	0.438773	-0.711150
C45	C	1.451278	0.438749	-0.793130
C46	C	1.518454	0.505930	-0.834114
C47	C	1.585611	0.573147	-0.793113
C48	C	1.585588	0.573175	-0.711134
C49	C	1.585656	0.573081	-0.963983
C50	C	1.585681	0.573052	-1.045968
C51	C	1.451346	0.438655	-1.045979
C52	C	1.451323	0.438683	-0.964000
C53	C	1.518481	0.505899	-0.923005
C54	C	1.518347	0.506104	-0.174213
C55	C	1.518528	0.505842	-0.086963
H56	H	1.118470	0.762716	-0.569307
H57	H	1.396563	0.384060	-0.677786
N58	N	1.132878	0.366245	-0.274004
H59	H	1.113764	0.382469	-0.217897
H60	H	1.210694	0.376473	-0.281674
N61	N	0.904809	0.366296	-0.274005
H62	H	0.923904	0.291243	-0.286286
H63	H	0.826998	0.376617	-0.281638
H64	H	1.774903	1.105064	-0.186880
H65	H	1.640382	0.627756	-1.079335
H66	H	1.640279	0.627896	-0.677757
N67	N	1.658086	0.645583	-0.919768
H68	H	1.700647	0.688133	-0.958172
H69	H	1.706712	0.602833	-0.885762
N70	N	1.792535	0.891503	-0.173570
H71	H	1.835155	0.942904	-0.141808
H72	H	1.841103	0.845906	-0.205544
H73	H	1.652752	0.806487	-0.277811
N74	N	1.378845	0.366263	-0.837347
H75	H	1.336290	0.323705	-0.798945
H76	H	1.421636	0.317637	-0.871372
H77	H	1.217966	0.640656	-0.478384
H78	H	1.396627	0.383974	-0.930633
H79	H	1.652995	1.204623	-0.277909
H80	H	0.919404	0.762745	-0.569327
N81	N	1.378731	1.119606	-0.482475
H82	H	1.388973	1.197438	-0.474877
H83	H	1.303698	1.100497	-0.470205
N84	N	0.790830	0.640704	-0.478418
H85	H	0.764373	0.659929	-0.424547
H86	H	0.764497	0.568646	-0.492976
N87	N	1.658063	0.645602	-0.837323
H88	H	1.733131	0.629298	-0.823060
H89	H	1.641627	0.720645	-0.823031
H90	H	1.396383	0.906046	-0.469176
N91	N	1.378920	0.366146	-1.090189
H92	H	1.389125	0.376320	-1.148342
H93	H	1.303873	0.382482	-1.075856
