data_functionalizedCrystal
_audit_creation_method	'MofGen! by Chris Wilmer'
_symmetry_space_group_name_H-M	'P1'
_symmetry_Int_Tables_number	1
_symmetry_cell_setting	triclinic
loop_
_symmetry_equiv_pos_as_xyz
  x,y,z
_cell_length_a	16.120484
_cell_length_b	16.120530
_cell_length_c	16.120297
_cell_angle_alpha	90.128140
_cell_angle_beta	84.385569
_cell_angle_gamma	89.832673
loop_
_atom_site_label
_atom_site_type_symbol
_atom_site_fract_x
_atom_site_fract_y
_atom_site_fract_z
Zn1	Zn	-0.422264	-1.224987	0.554813
Zn2	Zn	0.077736	-0.724987	1.054813
Zn3	Zn	-0.554948	-1.224883	0.422118
Zn4	Zn	-0.054948	-0.724883	0.922118
Zn5	Zn	-0.408180	-1.093726	0.408056
Zn6	Zn	0.091820	-0.593726	0.908056
Zn7	Zn	-0.554181	-1.078880	0.554051
Zn8	Zn	-0.054181	-0.578880	1.054051
O9	O	-0.484893	-1.155619	0.484760
O10	O	0.015107	-0.655619	0.984760
O11	O	-0.446081	-1.341009	0.543415
O12	O	0.053919	-0.841009	1.043415
O13	O	-0.529906	-1.213654	0.303620
O14	O	-0.029906	-0.713654	0.803620
O15	O	-0.293418	-1.117395	0.421958
O16	O	0.206582	-0.617395	0.921958
O17	O	-0.543563	-1.340932	0.445925
O18	O	-0.043563	-0.840932	0.945925
O19	O	-0.303765	-1.213832	0.529780
O20	O	0.196235	-0.713832	1.029780
O21	O	-0.422076	-1.117294	0.293289
O22	O	0.077924	-0.617294	0.793289
O23	O	-0.421332	-0.975721	0.421218
O24	O	0.078668	-0.475721	0.921218
O25	O	-0.542255	-1.092092	0.670785
O26	O	-0.042255	-0.592092	1.170785
O27	O	-0.528598	-0.964814	0.528480
O28	O	-0.028598	-0.464814	1.028480
O29	O	-0.445336	-1.199436	0.671345
O30	O	0.054664	-0.699436	1.171345
O31	O	-0.671477	-1.199258	0.445185
O32	O	-0.171477	-0.699258	0.945185
O33	O	-0.670913	-1.091990	0.542116
O34	O	-0.170913	-0.591990	1.042116
C35	C	-0.701438	-1.144023	0.495113
C36	C	-0.201438	-0.644023	0.995113
C37	C	-0.794083	-1.139137	0.499574
C38	C	-0.294083	-0.639137	0.999574
C39	C	-0.473354	-0.940181	0.473241
C40	C	0.026646	-0.440181	0.973241
C41	C	-0.468438	-0.848013	0.468334
C42	C	0.031562	-0.348013	0.968334
C43	C	-0.495281	-1.144119	0.702152
C44	C	0.004719	-0.644119	1.202152
C45	C	-0.499708	-1.139219	0.794791
C46	C	0.000292	-0.639219	1.294791
C47	C	-0.963706	-1.130220	0.507736
C48	C	-0.463706	-0.630220	1.007736
C49	C	-1.005249	-1.181166	0.461804
C50	C	-0.505249	-0.681166	0.961804
C51	C	-1.099633	-1.176204	0.466346
C52	C	-0.599633	-0.676204	0.966346
C53	C	-0.869313	-1.135180	0.503196
C54	C	-0.369313	-0.635180	1.003196
C55	C	-0.267505	-1.167282	0.474385
C56	C	0.232495	-0.667282	0.974385
C57	C	-0.174867	-1.172251	0.469964
C58	C	0.325133	-0.672251	0.969964
C59	C	-0.496479	-1.371899	0.496324
C60	C	0.003521	-0.871899	0.996324
C61	C	-0.501416	-1.464064	0.501252
C62	C	-0.001416	-0.964064	1.001252
C63	C	-0.459445	-0.679262	0.459381
C64	C	0.040555	-0.179262	0.959381
C65	C	-0.510407	-0.632810	0.510202
C66	C	-0.010407	-0.132810	1.010202
C67	C	-0.505403	-0.538911	0.505220
C68	C	-0.005403	-0.038911	1.005220
C69	C	-0.464448	-0.773169	0.464361
C70	C	0.035552	-0.273169	0.964361
C71	C	-0.474489	-1.167125	0.268213
C72	C	0.025511	-0.667125	0.768213
C73	C	-0.469836	-1.172198	0.175571
C74	C	0.030164	-0.672198	0.675571
C75	C	-0.507770	-1.130243	0.964403
C76	C	-0.007770	-0.630243	1.464403
C77	C	-0.461776	-1.181172	1.005965
C78	C	0.038224	-0.681172	1.505965
C79	C	-0.466262	-1.176177	1.100342
C80	C	0.033738	-0.676177	1.600342
C81	C	-0.503285	-1.135236	0.870017
C82	C	-0.003285	-0.635236	1.370017
H83	H	-0.969931	-1.228508	0.419069
H84	H	-0.469931	-0.728508	0.919069
C85	C	-0.574435	-0.674348	0.574028
C86	C	-0.074435	-0.174348	1.074028
C87	C	-0.579420	-0.769615	0.578979
C88	C	-0.079420	-0.269615	1.078979
C89	C	-0.643449	-0.811156	0.642798
C90	C	-0.143449	-0.311156	1.142798
C91	C	-0.702493	-0.757431	0.701667
C92	C	-0.202493	-0.257431	1.201667
C93	C	-0.697510	-0.662158	0.696718
C94	C	-0.197510	-0.162158	1.196718
C95	C	-0.633481	-0.620617	0.632898
C96	C	-0.133481	-0.120617	1.132898
H97	H	-0.535711	-0.809391	0.535399
H98	H	-0.035711	-0.309391	1.035399
H99	H	-0.647138	-0.881684	0.646461
H100	H	-0.147138	-0.381684	1.146461
H101	H	-0.749891	-0.788182	0.748910
H102	H	-0.249891	-0.288182	1.248910
H103	H	-0.741220	-0.622382	0.740297
H104	H	-0.241220	-0.122382	1.240297
H105	H	-0.629792	-0.550089	0.629235
H106	H	-0.129792	-0.050089	1.129235
H107	H	-0.412060	-0.648511	0.412135
H108	H	0.087940	-0.148511	0.912135
H109	H	-0.419031	-1.228524	0.970668
H110	H	0.080969	-0.728524	1.470668
C111	C	-0.565519	-1.066280	1.012080
C112	C	-0.065519	-0.566280	1.512080
C113	C	-0.569981	-1.061321	1.107824
C114	C	-0.069981	-0.561321	1.607824
C115	C	-0.627732	-0.997362	1.155513
C116	C	-0.127732	-0.497362	1.655513
C117	C	-0.681022	-0.938362	1.107459
C118	C	-0.181022	-0.438362	1.607459
C119	C	-0.676562	-0.943320	1.011710
C120	C	-0.176562	-0.443320	1.511710
C121	C	-0.618811	-1.007278	0.964021
C122	C	-0.118811	-0.507278	1.464021
H123	H	-0.530531	-1.104998	1.143401
H124	H	-0.030531	-0.604998	1.643401
H125	H	-0.631033	-0.993693	1.226393
H126	H	-0.131033	-0.493693	1.726393
H127	H	-0.723773	-0.891016	1.142762
H128	H	-0.223773	-0.391016	1.642762
H129	H	-0.716012	-0.899643	0.976133
H130	H	-0.216012	-0.399643	1.476133
H131	H	-0.615509	-1.010948	0.893141
H132	H	-0.115509	-0.510948	1.393141
H133	H	-0.999022	-1.082881	0.550467
H134	H	-0.499022	-0.582881	1.050467
