data_functionalizedCrystal
_audit_creation_method	'MofGen! by Chris Wilmer'
_symmetry_space_group_name_H-M	'P1'
_symmetry_Int_Tables_number	1
_symmetry_cell_setting	triclinic
loop_
_symmetry_equiv_pos_as_xyz
  x,y,z
_cell_length_a	6.817900
_cell_length_b	11.102289
_cell_length_c	16.255661
_cell_angle_alpha	93.854258
_cell_angle_beta	103.488922
_cell_angle_gamma	108.605707
loop_
_atom_site_label
_atom_site_type_symbol
_atom_site_fract_x
_atom_site_fract_y
_atom_site_fract_z
V1	V	-4.052939	-0.176866	-0.263871
O2	O	-4.013087	0.007443	-0.258848
O3	O	-4.030117	-0.349679	-0.262066
O4	O	-4.004166	-0.174609	-0.378954
O5	O	-4.039217	-0.168840	-0.141151
V6	V	-4.533301	-0.154766	-0.249193
O7	O	-4.321131	-0.225344	-0.296069
O8	O	-4.715306	-0.106287	-0.216995
O9	O	-4.332916	0.018048	-0.250997
O10	O	-4.690550	-0.339074	-0.254216
O11	O	-4.664420	-0.162792	-0.371913
O12	O	-4.358867	-0.157023	-0.134109
C13	C	-3.881352	-0.391793	-0.257903
C14	C	-3.943976	-0.533073	-0.257195
C15	C	-4.156467	-0.605936	-0.261084
C16	C	-4.215301	-0.738685	-0.260425
C17	C	-3.849130	-0.725694	-0.251985
C18	C	-3.790303	-0.592949	-0.252650
C19	C	-4.367872	-0.613436	-0.265953
C20	C	-4.426706	-0.746185	-0.265294
C21	C	-3.848248	-0.168471	-0.407005
C22	C	-3.889824	-0.167770	-0.501086
C23	C	-3.799137	-0.159385	-0.723905
C24	C	-3.971599	-0.267595	-0.793381
C25	C	-3.966013	-0.166454	-0.673335
C26	C	-3.867658	-0.057005	-0.771496
C27	C	-4.039592	-0.165176	-0.839718
C28	C	-4.137972	-0.274760	-0.741581
C29	C	-4.033954	-0.064074	-0.719680
C30	C	-4.206557	-0.172315	-0.789137
C31	C	-3.923622	-0.167190	-0.577485
C32	C	-4.082002	-0.164450	-0.935567
C33	C	-4.145024	0.060155	-0.255158
C34	C	-4.061638	0.201433	-0.255872
C35	C	-4.178128	-0.163164	-0.106054
C36	C	-4.115789	-0.163859	-0.011972
H37	H	-3.617283	-0.533630	-0.249493
H38	H	-4.490850	-0.770930	-0.207484
H39	H	-4.544592	-0.804296	-0.327993
H40	H	-3.724024	-0.774462	-0.248286
O41	O	-4.485108	-0.591008	-0.339443
C42	C	-4.758031	-0.683505	-0.472625
C43	C	-4.625378	-0.709090	-0.389447
H44	H	-4.871503	-0.778955	-0.513069
H45	H	-4.645325	-0.629122	-0.510167
H46	H	-4.855576	-0.623478	-0.456186
H47	H	-4.527819	-0.769151	-0.405810
H48	H	-4.738198	-0.763413	-0.351928
O49	O	-4.412434	-0.178633	-0.822975
C50	C	-4.645411	-0.075696	-0.899572
C51	C	-4.412156	-0.068355	-0.861270
H52	H	-4.645264	0.013439	-0.930559
H53	H	-4.730616	-0.080725	-0.846647
H54	H	-4.733049	-0.165298	-0.949924
H55	H	-4.324337	0.021239	-0.810929
H56	H	-4.327114	-0.063396	-0.914243
H57	H	-3.945686	-0.353640	-0.825466
O58	O	-3.732118	0.052819	-0.787797
C59	C	-3.698756	0.246439	-0.850608
C60	C	-3.852511	0.122104	-0.832224
H61	H	-3.796030	0.302504	-0.886513
H62	H	-3.597922	0.221086	-0.891288
H63	H	-3.588458	0.307820	-0.787567
H64	H	-3.962942	0.060664	-0.895221
H65	H	-3.953194	0.147549	-0.791507
H66	H	-4.251849	-0.366887	-0.728114
O67	O	-4.065095	0.038432	-0.681337
C68	C	-4.264508	0.110820	-0.596737
C69	C	-4.229543	-0.005396	-0.640148
H70	H	-4.397431	0.075428	-0.563409
H71	H	-4.312580	0.170338	-0.647086
H72	H	-4.109263	0.172745	-0.547524
H73	H	-4.384715	-0.067417	-0.689355
H74	H	-4.181373	-0.064818	-0.589750
H75	H	-4.381190	-0.559977	-0.206282
H76	H	-3.626593	-0.154059	-0.695424
