data_functionalizedCrystal
_audit_creation_method	'MofGen! by Chris Wilmer'
_symmetry_space_group_name_H-M	'P1'
_symmetry_Int_Tables_number	1
_symmetry_cell_setting	triclinic
loop_
_symmetry_equiv_pos_as_xyz
  x,y,z
_cell_length_a	12.827893
_cell_length_b	25.639239
_cell_length_c	12.827885
_cell_angle_alpha	89.964018
_cell_angle_beta	89.980728
_cell_angle_gamma	90.038847
loop_
_atom_site_label
_atom_site_type_symbol
_atom_site_fract_x
_atom_site_fract_y
_atom_site_fract_z
Zn1	Zn	1.597502	-0.208123	-0.590798
Zn2	Zn	1.597325	-0.295568	-0.416040
Zn3	Zn	1.422743	-0.208149	-0.416073
Zn4	Zn	1.422658	-0.295530	-0.590740
O5	O	1.510057	-0.251843	-0.503413
O6	O	1.743715	-0.219728	-0.567627
O7	O	1.574128	-0.283999	-0.269808
O8	O	1.446035	-0.134980	-0.439288
O9	O	1.743584	-0.283974	-0.439232
O10	O	1.574430	-0.134961	-0.567659
O11	O	1.445863	-0.219772	-0.269832
O12	O	1.276496	-0.219735	-0.439232
O13	O	1.445890	-0.283908	-0.736984
O14	O	1.276433	-0.283933	-0.567560
O15	O	1.574348	-0.219691	-0.737027
O16	O	1.574045	-0.368728	-0.439176
O17	O	1.445718	-0.368700	-0.567528
C18	C	1.238547	-0.251833	-0.503394
C19	C	1.122394	-0.251841	-0.503410
C20	C	1.070613	-0.220032	-0.440022
C21	C	0.950562	-0.220040	-0.440038
C22	C	1.509881	-0.387685	-0.503365
C23	C	1.509902	-0.445799	-0.503379
C24	C	1.577051	-0.806164	-0.436694
C25	C	1.577092	-0.860769	-0.436708
O26	O	1.634003	-0.889007	-0.379957
N27	N	1.510241	-0.888082	-0.503482
C28	C	1.443352	-0.860787	-0.570254
O29	O	1.386495	-0.889033	-0.627053
C30	C	1.443318	-0.806184	-0.570244
C31	C	1.510166	-0.778874	-0.503458
C32	C	1.643895	-0.778854	-0.369914
C33	C	1.643853	-0.724254	-0.369899
C34	C	1.576967	-0.696963	-0.436664
C35	C	1.510124	-0.724273	-0.503443
C36	C	1.376436	-0.778891	-0.637021
C37	C	1.376407	-0.724284	-0.637006
C38	C	1.443255	-0.696974	-0.570220
C39	C	1.443196	-0.642382	-0.570193
N40	N	1.510047	-0.615070	-0.503419
C41	C	1.576933	-0.642360	-0.436654
C42	C	1.443431	-0.975458	-0.570270
C43	C	1.443460	-1.030060	-0.570275
C44	C	1.577201	-1.030038	-0.436730
C45	C	1.577166	-0.975435	-0.436721
C46	C	1.510282	-0.948145	-0.503496
C47	C	1.576838	-0.527695	-0.436627
C48	C	1.576787	-0.473090	-0.436615
C49	C	1.443051	-0.473117	-0.570163
C50	C	1.443097	-0.527717	-0.570172
C51	C	1.510000	-0.555005	-0.503400
O52	O	1.386317	-0.614109	-0.626918
O53	O	1.633790	-0.614108	-0.379875
C54	C	1.782627	-0.251853	-0.503432
C55	C	1.898780	-0.251857	-0.503441
C56	C	1.510129	-0.251792	-0.775983
C57	C	1.510160	-0.251771	-0.892136
C58	C	1.510262	-0.115470	-0.503484
C59	C	1.510349	-0.057355	-0.503514
C60	C	1.446711	-0.219983	-0.943933
C61	C	1.446741	-0.219961	-1.063983
C62	C	1.510046	-0.251855	-0.231903
C63	C	1.510217	-0.251729	-0.115750
H64	H	1.631223	-0.450855	-0.382226
H65	H	1.115158	-0.192795	-0.385738
H66	H	1.564502	-0.278969	-0.936668
C67	C	0.958922	-0.288651	-0.576762
C68	C	0.944077	-0.284463	-0.695592
C69	C	1.004227	-0.321257	-0.768913
C70	C	1.079223	-0.362240	-0.723405
C71	C	1.094072	-0.366430	-0.604570
C72	C	1.033921	-0.329636	-0.531248
H73	H	0.888557	-0.254124	-0.729285
H74	H	0.993235	-0.318155	-0.856883
H75	H	1.123750	-0.389477	-0.777682
H76	H	1.149591	-0.396769	-0.570877
H77	H	1.044914	-0.332738	-0.443278
H78	H	0.906032	-0.192805	-0.385774
H79	H	1.077849	-0.279082	-0.557688
H80	H	1.388668	-0.549954	-0.624558
H81	H	1.392363	-0.192788	-0.899401
C82	C	1.650424	-0.557707	-0.363173
C83	C	1.605216	-0.595297	-0.281094
C84	C	1.678794	-0.625309	-0.207635
C85	C	1.797582	-0.617730	-0.216256
C86	C	1.842796	-0.580137	-0.298338
C87	C	1.769218	-0.550126	-0.371797
H88	H	1.517277	-0.600909	-0.274709
H89	H	1.645323	-0.653137	-0.146872
H90	H	1.852049	-0.639946	-0.161877
H91	H	1.930735	-0.574525	-0.304723
H92	H	1.802689	-0.522297	-0.432560
C93	C	1.717475	-0.808867	-0.296462
C94	C	1.708996	-0.801395	-0.177658
C95	C	1.782575	-0.831403	-0.104194
C96	C	1.864635	-0.868882	-0.149533
C97	C	1.873118	-0.876355	-0.268343
C98	C	1.799538	-0.846347	-0.341808
H99	H	1.648247	-0.773650	-0.144090
H100	H	1.776295	-0.825870	-0.016243
H101	H	1.919103	-0.891095	-0.095151
H102	H	1.933866	-0.904101	-0.301912
H103	H	1.805818	-0.851880	-0.429759
H104	H	1.698289	-0.702021	-0.315519
C105	C	1.650784	-1.060064	-0.363293
C106	C	1.650822	-1.120126	-0.363318
C107	C	1.724400	-1.150153	-0.289885
C108	C	1.797940	-1.120119	-0.216426
C109	C	1.797905	-1.060054	-0.216398
C110	C	1.724327	-1.030027	-0.289832
H111	H	1.596381	-1.142361	-0.417698
H112	H	1.724426	-1.194617	-0.289906
H113	H	1.852407	-1.142348	-0.162067
H114	H	1.852347	-1.037819	-0.162018
H115	H	1.724302	-0.985563	-0.289810
H116	H	1.631600	-0.953202	-0.382338
C117	C	1.369917	-1.060098	-0.643733
C118	C	1.296348	-1.030071	-0.717168
C119	C	1.222809	-1.060107	-0.790634
C120	C	1.222838	-1.120168	-0.790664
C121	C	1.296410	-1.150198	-0.717225
C122	C	1.369950	-1.120163	-0.643760
H123	H	1.296324	-0.985607	-0.717149
H124	H	1.168346	-1.037876	-0.844998
H125	H	1.168400	-1.142402	-0.845047
H126	H	1.296434	-1.194662	-0.717245
H127	H	1.424412	-1.142393	-0.589396
C128	C	1.583610	-0.288498	-1.055591
C129	C	1.665601	-0.265826	-0.980548
C130	C	1.738994	-0.302595	-0.920380
C131	C	1.730395	-0.362036	-0.935255
C132	C	1.648400	-0.384711	-1.010302
C133	C	1.575008	-0.347942	-1.070470
H134	H	1.671970	-0.221821	-0.969533
H135	H	1.799692	-0.285808	-0.864825
H136	H	1.784725	-0.389254	-0.890715
H137	H	1.642032	-0.428716	-1.021316
H138	H	1.514310	-0.364728	-1.126024
C139	C	1.369480	-0.443089	-0.643600
C140	C	1.250689	-0.450653	-0.634978
C141	C	1.177124	-0.420623	-0.708420
C142	C	1.222349	-0.383029	-0.790484
C143	C	1.341147	-0.375464	-0.799110
C144	C	1.414712	-0.405494	-0.725668
H145	H	1.217205	-0.478483	-0.574226
H146	H	1.089182	-0.426223	-0.702034
H147	H	1.167892	-0.360799	-0.844850
H148	H	1.374631	-0.347633	-0.859862
H149	H	1.502654	-0.399893	-0.732054
H150	H	1.388957	-0.953242	-0.624644
C151	C	1.302904	-0.808920	-0.710496
C152	C	1.184107	-0.801467	-0.701878
C153	C	1.110571	-0.831493	-0.775362
C154	C	1.155834	-0.868973	-0.857463
C155	C	1.274637	-0.876428	-0.866085
C156	C	1.348173	-0.846401	-0.792602
H157	H	1.150595	-0.773720	-0.641098
H158	H	1.022625	-0.825975	-0.768979
H159	H	1.101398	-0.891201	-0.911860
H160	H	1.308149	-0.904174	-0.926865
H161	H	1.436119	-0.851920	-0.798985
H162	H	1.392425	-0.192744	-1.108527
C163	C	1.302828	-0.694266	-0.710458
C164	C	1.184040	-0.701841	-0.701828
C165	C	1.110459	-0.671824	-0.775275
C166	C	1.155665	-0.634231	-0.857352
C167	C	1.274459	-0.626654	-0.865985
C168	C	1.348040	-0.656671	-0.792538
H169	H	1.150570	-0.729671	-0.641066
H170	H	1.022520	-0.677433	-0.768883
H171	H	1.101196	-0.612011	-0.911722
H172	H	1.307929	-0.598824	-0.926747
H173	H	1.435979	-0.651062	-0.798930
