data_functionalizedCrystal
_audit_creation_method	'MofGen! by Chris Wilmer'
_symmetry_space_group_name_H-M	'P1'
_symmetry_Int_Tables_number	1
_symmetry_cell_setting	triclinic
loop_
_symmetry_equiv_pos_as_xyz
  x,y,z
_cell_length_a	10.489716
_cell_length_b	19.188930
_cell_length_c	8.965430
_cell_angle_alpha	90.005777
_cell_angle_beta	89.996741
_cell_angle_gamma	83.836959
loop_
_atom_site_label
_atom_site_type_symbol
_atom_site_fract_x
_atom_site_fract_y
_atom_site_fract_z
O1	O	1.691858	0.098418	0.124046
O2	O	1.320451	0.107681	0.124054
O3	O	1.516873	0.001465	0.124021
O4	O	1.495437	0.204634	0.124079
O5	O	1.516882	0.001468	-0.124058
O6	O	1.320460	0.107685	-0.124025
O7	O	1.691867	0.098421	-0.124033
Cu8	Cu	1.506165	0.103053	-0.146681
Cu9	Cu	1.506154	0.103049	0.146701
O10	O	1.495446	0.204637	-0.124000
C11	C	1.272939	0.106987	0.000015
C12	C	1.131355	0.104905	0.000016
C13	C	1.032224	0.170040	0.000039
C14	C	0.955653	0.135623	-0.122294
C15	C	0.955651	0.135604	0.122292
C16	C	1.056648	0.070515	-0.122417
C17	C	1.056651	0.070506	0.122279
C18	C	0.980129	0.036041	-0.000084
C19	C	1.516183	-0.024549	-0.000023
C20	C	1.514099	-0.102067	-0.000036
C21	C	1.629353	-0.146225	-0.000045
C22	C	1.627395	-0.219061	-0.000021
C23	C	1.510177	-0.247738	-0.000018
C24	C	1.394908	-0.203571	-0.000000
C25	C	1.396869	-0.130735	-0.000009
N26	N	1.420581	-0.356337	-0.084442
N27	N	1.418726	-0.425528	-0.084437
C28	C	1.504262	-0.467186	0.000012
N29	N	1.591742	-0.437039	0.084437
N30	N	1.593601	-0.367842	0.084425
C31	C	1.508038	-0.326714	-0.000007
C32	C	1.617401	-0.590321	0.000031
C33	C	1.615438	-0.663159	0.000064
C34	C	1.382948	-0.647667	0.000070
C35	C	1.384914	-0.574831	0.000052
C36	C	1.502144	-0.546163	0.000025
C37	C	1.739379	0.099115	0.000010
C38	C	1.880964	0.101198	0.000018
C39	C	1.496135	0.230651	0.000047
C40	C	1.498219	0.308170	0.000070
N41	N	1.506181	0.103056	-0.353030
C42	C	1.597049	0.053937	-0.450311
C43	C	1.481868	0.039803	-0.549718
C44	C	1.621318	0.117145	-0.549750
C45	C	1.390943	0.088889	-0.450248
C46	C	1.530468	0.166259	-0.450271
C47	C	1.415204	0.152151	-0.549633
N48	N	1.506147	0.103041	0.353051
H49	H	0.911548	0.163112	0.225699
F50	F	1.262244	-0.527833	0.000056
H51	H	1.100582	0.043036	-0.225942
F52	F	1.274195	-0.083738	0.000002
H53	H	1.709296	-0.699112	0.000065
H54	H	0.911559	0.163120	-0.225699
F55	F	1.062825	0.244093	-0.000090
F56	F	1.258195	-0.678181	0.000081
H57	H	1.673819	0.012378	-0.406699
F58	F	0.949844	-0.038067	-0.000197
F59	F	1.114319	0.034598	0.257443
F60	F	1.454978	-0.030068	-0.606804
F61	F	1.742165	-0.559808	-0.000005
F62	F	1.754120	-0.115718	-0.000042
H63	H	1.721252	-0.255021	-0.000023
F64	F	1.557398	0.236108	-0.393124
F65	F	1.270157	-0.234091	0.000013
H66	H	1.718701	0.129068	-0.593457
H67	H	1.293537	0.076906	-0.406725
F68	F	1.314639	0.206440	-0.606279
