data_functionalizedCrystal
_audit_creation_method	'MofGen! by Chris Wilmer'
_symmetry_space_group_name_H-M	'P1'
_symmetry_Int_Tables_number	1
_symmetry_cell_setting	triclinic
loop_
_symmetry_equiv_pos_as_xyz
  x,y,z
_cell_length_a	17.077404
_cell_length_b	15.297327
_cell_length_c	17.077396
_cell_angle_alpha	99.647268
_cell_angle_beta	89.980499
_cell_angle_gamma	99.707136
loop_
_atom_site_label
_atom_site_type_symbol
_atom_site_fract_x
_atom_site_fract_y
_atom_site_fract_z
Zn1	Zn	1.145953	-0.359161	-0.497895
Zn2	Zn	1.479286	-0.025827	-0.164561
Zn3	Zn	1.812619	0.307506	0.168772
Zn4	Zn	1.123133	-0.510035	-0.389335
Zn5	Zn	1.456466	-0.176702	-0.056001
Zn6	Zn	1.789799	0.156632	0.277332
Zn7	Zn	1.014680	-0.359192	-0.366647
Zn8	Zn	1.348013	-0.025859	-0.033314
Zn9	Zn	1.681346	0.307474	0.300019
Zn10	Zn	0.991934	-0.509981	-0.520550
Zn11	Zn	1.325267	-0.176648	-0.187217
Zn12	Zn	1.658600	0.156685	0.146117
O13	O	1.068925	-0.434592	-0.443607
O14	O	1.402258	-0.101259	-0.110273
O15	O	1.735591	0.232074	0.223060
O16	O	1.252771	-0.379184	-0.483507
O17	O	1.586104	-0.045850	-0.150174
O18	O	1.919438	0.287483	0.183159
O19	O	1.108715	-0.490061	-0.276484
O20	O	1.442049	-0.156728	0.056850
O21	O	1.775382	0.176606	0.390183
O22	O	1.051163	-0.232941	-0.365082
O23	O	1.384496	0.100392	-0.031748
O24	O	1.717829	0.433726	0.301585
O25	O	1.236005	-0.490030	-0.403749
O26	O	1.569339	-0.156697	-0.070415
O27	O	1.902672	0.176636	0.262918
O28	O	1.147608	-0.232918	-0.461508
O29	O	1.480942	0.100416	-0.128175
O30	O	1.814275	0.433749	0.205158
O31	O	1.029035	-0.379238	-0.259815
O32	O	1.362369	-0.045904	0.073518
O33	O	1.695702	0.287429	0.406851
O34	O	0.901817	-0.379186	-0.387050
O35	O	1.235150	-0.045852	-0.053716
O36	O	1.568483	0.287481	0.279617
O37	O	1.012395	-0.489939	-0.627386
O38	O	1.345729	-0.156606	-0.294053
O39	O	1.679062	0.176728	0.039280
O40	O	0.885105	-0.489970	-0.500121
O41	O	1.218439	-0.156636	-0.166788
O42	O	1.551772	0.176697	0.166545
O43	O	1.125553	-0.379132	-0.610742
O44	O	1.458886	-0.045798	-0.277408
O45	O	1.792219	0.287535	0.055925
O46	O	1.086659	-0.636275	-0.425717
O47	O	1.419993	-0.302942	-0.092383
O48	O	1.753326	0.030392	0.240950
O49	O	0.990268	-0.636236	-0.522120
O50	O	1.323601	-0.302902	-0.188787
O51	O	1.656935	0.030431	0.144546
C52	C	0.864979	-0.434576	-0.443583
C53	C	1.198313	-0.101243	-0.110249
C54	C	1.531646	0.232091	0.223084
C55	C	0.777727	-0.434591	-0.443594
C56	C	1.111061	-0.101257	-0.110261
C57	C	1.444394	0.232076	0.223072
C58	C	0.728043	-0.492363	-0.502403
C59	C	1.061376	-0.159030	-0.169070
C60	C	1.394710	0.174304	0.164263
C61	C	0.646062	-0.492365	-0.502416
C62	C	0.979395	-0.159032	-0.169083
C63	C	1.312729	0.174302	0.164251
C64	C	0.613767	-0.434599	-0.443616
C65	C	0.947100	-0.101265	-0.110283
C66	C	1.280433	0.232068	0.223051
C67	C	0.663458	-0.376820	-0.384804
C68	C	0.996791	-0.043486	-0.051470
C69	C	1.330124	0.289847	0.281863
C70	C	0.745438	-0.376814	-0.384795
C71	C	1.078771	-0.043481	-0.051462
C72	C	1.412104	0.289853	0.281872
C73	C	0.492585	-0.376838	-0.384825
C74	C	0.825918	-0.043504	-0.051492
C75	C	1.159252	0.289829	0.281841
C76	C	0.410599	-0.376844	-0.384833
C77	C	0.743933	-0.043511	-0.051500
C78	C	1.077266	0.289822	0.281834
C79	C	0.393210	-0.492389	-0.502446
C80	C	0.726543	-0.159055	-0.169113
C81	C	1.059876	0.174278	0.164220
C82	C	0.475189	-0.492383	-0.502438
C83	C	0.808523	-0.159049	-0.169104
C84	C	1.141856	0.174284	0.164229
C85	C	0.524875	-0.434605	-0.443624
C86	C	0.858208	-0.101272	-0.110291
C87	C	1.191541	0.232062	0.223042
C88	C	1.033541	-0.668990	-0.478856
C89	C	1.366874	-0.335657	-0.145522
C90	C	1.700207	-0.002323	0.187811
C91	C	1.018475	-0.769266	-0.493962
C92	C	1.351808	-0.435933	-0.160628
C93	C	1.685142	-0.102600	0.172705
C94	C	1.176925	-1.051885	-0.335910
C95	C	1.510258	-0.718552	-0.002577
C96	C	1.843592	-0.385218	0.330757
C97	C	1.191079	-0.957670	-0.321713
C98	C	1.524413	-0.624337	0.011620
C99	C	1.857746	-0.291004	0.344953
C100	C	1.147930	-0.910565	-0.364774
C101	C	1.481263	-0.577231	-0.031441
C102	C	1.814597	-0.243898	0.301892
C103	C	1.090623	-0.957683	-0.422034
C104	C	1.423956	-0.624350	-0.088701
C105	C	1.757289	-0.291016	0.244632
C106	C	1.076462	-1.051907	-0.436228
C107	C	1.409796	-0.718573	-0.102895
C108	C	1.743129	-0.385240	0.230439
C109	C	1.047467	-0.910586	-0.465092
C110	C	1.380801	-0.577253	-0.131759
C111	C	1.714134	-0.243920	0.201574
C112	C	0.990160	-0.957705	-0.522352
C113	C	1.323493	-0.624371	-0.189019
C114	C	1.656827	-0.291038	0.144314
C115	C	0.976003	-1.051919	-0.536544
C116	C	1.309336	-0.718586	-0.203211
C117	C	1.642669	-0.385252	0.130123
C118	C	1.019152	-1.099025	-0.493483
C119	C	1.352486	-0.765691	-0.160150
C120	C	1.685819	-0.432358	0.173184
C121	C	1.061628	-0.816363	-0.450898
C122	C	1.394961	-0.483029	-0.117565
C123	C	1.728294	-0.149696	0.215768
C124	C	0.961165	-0.816384	-0.551217
C125	C	1.294498	-0.483051	-0.217883
C126	C	1.627832	-0.149718	0.115450
C127	C	0.947010	-0.910599	-0.565413
C128	C	1.280344	-0.577266	-0.232080
C129	C	1.613677	-0.243932	0.101253
C130	C	1.273666	-0.434609	-0.443632
C131	C	1.607000	-0.101276	-0.110298
C132	C	1.940333	0.232057	0.223035
C133	C	1.360915	-0.434617	-0.443642
C134	C	1.694248	-0.101283	-0.110309
C135	C	2.027582	0.232050	0.223025
C136	C	1.068982	-0.434526	-0.648341
C137	C	1.402316	-0.101193	-0.315008
C138	C	1.735649	0.232141	0.018326
C139	C	1.069007	-0.434498	-0.735587
C140	C	1.402340	-0.101164	-0.402253
C141	C	1.735673	0.232169	-0.068920
C142	C	1.104468	-0.199279	-0.408237
C143	C	1.437802	0.134054	-0.074904
C144	C	1.771135	0.467387	0.258429
C145	C	1.119615	-0.099003	-0.393165
C146	C	1.452948	0.234330	-0.059831
C147	C	1.786282	0.567664	0.273502
C148	C	1.127930	-0.376795	-0.767910
C149	C	1.461263	-0.043462	-0.434577
C150	C	1.794597	0.289871	-0.101244
C151	C	1.127944	-0.376765	-0.849886
C152	C	1.461277	-0.043432	-0.516553
C153	C	1.794611	0.289901	-0.183220
C154	C	1.069037	-0.434443	-0.899538
C155	C	1.402371	-0.101109	-0.566205
C156	C	1.735704	0.232224	-0.232871
C157	C	1.010108	-0.492147	-0.867209
C158	C	1.343441	-0.158814	-0.533876
C159	C	1.676775	0.174519	-0.200542
C160	C	1.010091	-0.492172	-0.785234
C161	C	1.343425	-0.158839	-0.451900
C162	C	1.676758	0.174494	-0.118567
C163	C	1.010148	-0.492093	-1.038071
C164	C	1.343481	-0.158760	-0.704737
C165	C	1.676814	0.174573	-0.371404
C166	C	1.010165	-0.492070	-1.120052
C167	C	1.343498	-0.158737	-0.786719
C168	C	1.676831	0.174597	-0.453385
C169	C	1.128000	-0.376686	-1.102724
C170	C	1.461334	-0.043353	-0.769390
C171	C	1.794667	0.289980	-0.436057
C172	C	1.127984	-0.376711	-1.020748
C173	C	1.461317	-0.043378	-0.687415
C174	C	1.794651	0.289956	-0.354082
C175	C	1.069055	-0.434417	-0.988425
C176	C	1.402388	-0.101084	-0.655092
C177	C	1.735722	0.232249	-0.321759
C178	C	1.068922	-0.434593	-0.239659
C179	C	1.402256	-0.101260	0.093674
C180	C	1.735589	0.232073	0.427008
C181	C	1.069088	-0.434368	-0.152376
C182	C	1.402422	-0.101034	0.180958
C183	C	1.735755	0.232299	0.514291
H184	H	0.501481	-0.539426	-0.550314
H185	H	0.834814	-0.206093	-0.216981
H186	H	1.168147	0.127240	0.116352
F187	F	1.122616	-0.766227	-0.389960
F188	F	1.455949	-0.432893	-0.056626
F189	F	1.789283	-0.099560	0.276707
F190	F	0.340332	-0.553870	-0.565048
F191	F	0.673665	-0.220537	-0.231714
F192	F	1.006998	0.112796	0.101619
F193	F	0.798316	-0.315323	-0.322204
F194	F	1.131649	0.018010	0.011130
F195	F	1.464982	0.351344	0.344463
F196	F	1.252073	-0.907531	-0.260781
F197	F	1.585406	-0.574197	0.072552
F198	F	1.918740	-0.240864	0.405886
H199	H	1.159457	-0.833851	-0.353211
H200	H	1.492791	-0.500518	-0.019878
H201	H	1.826124	-0.167184	0.313456
H202	H	1.175927	-0.329781	-0.876200
H203	H	1.509260	0.003553	-0.542867
H204	H	1.842594	0.336886	-0.209534
F205	F	0.762406	-0.553852	-0.564984
F206	F	1.095739	-0.220518	-0.231651
F207	F	1.429072	0.112815	0.101682
H208	H	0.384309	-0.329795	-0.336961
H209	H	0.717642	0.003538	-0.003627
H210	H	1.050976	0.336872	0.329706
H211	H	1.175901	-0.329830	-0.727489
H212	H	1.509234	0.003503	-0.394156
H213	H	1.842568	0.336836	-0.060823
H214	H	0.962151	-0.539070	-1.011755
H215	H	1.295485	-0.205736	-0.678421
H216	H	1.628818	0.127597	-0.345088
F217	F	0.947464	-0.553449	-1.172893
F218	F	1.280798	-0.220116	-0.839559
F219	F	1.614131	0.113218	-0.506226
F220	F	1.190683	-0.315330	-0.967908
F221	F	1.524016	0.018004	-0.634574
F222	F	1.857350	0.351337	-0.301241
F223	F	0.593187	-0.553854	-0.565009
F224	F	0.926521	-0.220521	-0.231676
F225	F	1.259854	0.112813	0.101658
F226	F	0.545462	-0.315342	-0.322230
F227	F	0.878796	0.017991	0.011103
F228	F	1.212129	0.351324	0.344437
F229	F	1.003841	-1.199300	-0.508340
F230	F	1.337174	-0.865966	-0.175006
F231	F	1.670508	-0.532633	0.158327
F232	F	0.947412	-0.553529	-0.920053
F233	F	1.280745	-0.220196	-0.586720
F234	F	1.614079	0.113138	-0.253387
H235	H	0.962103	-0.539150	-0.758916
H236	H	1.295437	-0.205817	-0.425583
H237	H	1.628770	0.127516	-0.092249
F238	F	0.915234	-0.766256	-0.597044
F239	F	1.248568	-0.432923	-0.263711
F240	F	1.581901	-0.099589	0.069622
H241	H	0.637157	-0.329781	-0.336930
H242	H	0.970490	0.003552	-0.003597
H243	H	1.303824	0.336885	0.329736
H244	H	1.212046	-1.090247	-0.300851
H245	H	1.545380	-0.756914	0.032482
H246	H	1.878713	-0.423580	0.365816
F247	F	0.886021	-0.960756	-0.626352
F248	F	1.219355	-0.627423	-0.293019
F249	F	1.552688	-0.294090	0.040315
F250	F	0.915008	-1.102063	-0.597482
F251	F	1.248341	-0.768730	-0.264149
F252	F	1.581674	-0.435397	0.069185
F253	F	1.190718	-0.315271	-1.137125
F254	F	1.524051	0.018062	-0.803792
F255	F	1.857384	0.351395	-0.470458
