data_functionalizedCrystal
_audit_creation_method	'MofGen! by Chris Wilmer'
_symmetry_space_group_name_H-M	'P1'
_symmetry_Int_Tables_number	1
_symmetry_cell_setting	triclinic
loop_
_symmetry_equiv_pos_as_xyz
  x,y,z
_cell_length_a	12.811457
_cell_length_b	15.944551
_cell_length_c	11.892277
_cell_angle_alpha	85.640104
_cell_angle_beta	80.240024
_cell_angle_gamma	83.772498
loop_
_atom_site_label
_atom_site_type_symbol
_atom_site_fract_x
_atom_site_fract_y
_atom_site_fract_z
O1	O	1.395791	0.115642	-0.049084
O2	O	1.088204	0.126330	-0.017550
O3	O	1.250398	-0.001215	-0.034188
O4	O	1.233597	0.243188	-0.032445
O5	O	1.262433	0.008474	-0.223423
O6	O	1.100239	0.136020	-0.206785
O7	O	1.407826	0.125331	-0.238319
Zn8	Zn	1.255943	0.132214	-0.252597
Zn9	Zn	1.240087	0.119448	-0.003272
O10	O	1.245632	0.252877	-0.221681
C11	C	1.054861	0.130279	-0.108132
C12	C	0.937578	0.127600	-0.096108
C13	C	0.730315	0.133114	-0.279842
C14	C	0.620119	0.130596	-0.268550
C15	C	0.606988	0.120041	-0.062235
C16	C	0.717184	0.122559	-0.073526
C17	C	0.778844	0.129096	-0.182334
C18	C	0.889042	0.131620	-0.193624
C19	C	0.875910	0.121059	0.012691
C20	C	0.765713	0.118541	0.023982
C21	C	1.255718	-0.027671	-0.128734
C22	C	1.253627	-0.120935	-0.128521
C23	C	1.148094	-0.336708	-0.117686
C24	C	1.203033	-0.392522	-0.216014
C25	C	1.249844	-0.291694	-0.128124
C26	C	1.191192	-0.402059	-0.029446
C27	C	1.246182	-0.456639	-0.127736
C28	C	1.304817	-0.346276	-0.226533
C29	C	1.292956	-0.355811	-0.039879
C30	C	1.347971	-0.411606	-0.138238
C31	C	1.251951	-0.196673	-0.128349
C32	C	1.244084	-0.551658	-0.127520
C33	C	1.441169	0.121382	-0.147734
C34	C	1.558451	0.124061	-0.159750
C35	C	1.240312	0.279332	-0.127132
C36	C	1.242402	0.372596	-0.127338
N37	N	1.266773	0.140926	-0.422756
C38	C	1.153798	0.050058	-0.647879
C39	C	1.161392	0.056153	-0.766996
C40	C	1.289548	0.159215	-0.780107
C41	C	1.281954	0.153120	-0.660990
C42	C	1.214078	0.098539	-0.594881
C43	C	1.206490	0.092440	-0.475763
C44	C	1.334640	0.195506	-0.488875
C45	C	1.342234	0.201601	-0.607992
N46	N	1.229266	0.110729	0.166886
H47	H	0.556768	0.114704	0.026350
H48	H	1.098536	0.005611	-0.594052
H49	H	0.780518	0.138448	-0.368437
H50	H	1.151224	0.047996	-0.421938
O51	O	0.699207	0.111496	0.141335
H52	H	0.614426	0.110426	0.132808
O53	O	1.399653	0.247807	-0.431709
H54	H	1.485545	0.231468	-0.463208
H55	H	1.352839	-0.321870	-0.309909
H56	H	0.915432	0.117793	0.092089
H57	H	0.939244	0.136948	-0.282220
O58	O	1.096405	0.003842	-0.824168
H59	H	1.047948	-0.035145	-0.758183
O60	O	1.362766	0.218072	-0.851419
H61	H	1.357923	0.214156	-0.943152
H62	H	0.580611	0.133872	-0.347952
O63	O	1.036235	-0.293539	-0.106332
H64	H	0.999184	-0.307980	-0.179600
O65	O	1.152686	-0.414304	-0.314666
H66	H	1.069734	-0.384044	-0.305975
O67	O	1.127530	-0.434513	0.080890
H68	H	1.044610	-0.404219	0.089187
H69	H	1.397494	0.246042	-0.661834
H70	H	1.432505	-0.444029	-0.146957
H71	H	1.330938	-0.339346	0.034598
