data_functionalizedCrystal
_audit_creation_method	'MofGen! by Chris Wilmer'
_symmetry_space_group_name_H-M	'P1'
_symmetry_Int_Tables_number	1
_symmetry_cell_setting	triclinic
loop_
_symmetry_equiv_pos_as_xyz
  x,y,z
_cell_length_a	19.805407
_cell_length_b	14.908520
_cell_length_c	14.908294
_cell_angle_alpha	96.360837
_cell_angle_beta	93.277430
_cell_angle_gamma	93.320773
loop_
_atom_site_label
_atom_site_type_symbol
_atom_site_fract_x
_atom_site_fract_y
_atom_site_fract_z
Zn1	Zn	0.994809	-0.389878	-0.532597
Zn2	Zn	0.994733	-0.532523	-0.389967
Zn3	Zn	0.888555	-0.381180	-0.381251
Zn4	Zn	0.874668	-0.541196	-0.541272
O5	O	0.938191	-0.461194	-0.461272
O6	O	1.089514	-0.408811	-0.513693
O7	O	0.986428	-0.505177	-0.262150
O8	O	0.908493	-0.255669	-0.394049
O9	O	1.089458	-0.513612	-0.408903
O10	O	0.986558	-0.262060	-0.505242
O11	O	0.908419	-0.393986	-0.255747
O12	O	0.791997	-0.402396	-0.402462
O13	O	0.884825	-0.528393	-0.666782
O14	O	0.781795	-0.519959	-0.520029
O15	O	0.973092	-0.417221	-0.660408
O16	O	0.972962	-0.660338	-0.417316
O17	O	0.884751	-0.666710	-0.528480
C18	C	0.762337	-0.461175	-0.461241
C19	C	0.687104	-0.461190	-0.461251
C20	C	0.646465	-0.522487	-0.522380
C21	C	0.575776	-0.522489	-0.522392
C22	C	0.545727	-0.461199	-0.461272
C23	C	0.586371	-0.399895	-0.400140
C24	C	0.657059	-0.399889	-0.400133
C25	C	0.301296	-0.399917	-0.400172
C26	C	0.230603	-0.399929	-0.400182
C27	C	0.220013	-0.522517	-0.522431
C28	C	0.290701	-0.522511	-0.522424
C29	C	0.331339	-0.461205	-0.461296
C30	C	0.407988	-0.461202	-0.461284
C31	C	0.469080	-0.461205	-0.461279
C32	C	0.927359	-0.696368	-0.474805
C33	C	0.922786	-0.796978	-0.480625
C34	C	1.006131	-0.979345	-0.375899
C35	C	1.001836	-1.073877	-0.381365
C36	C	0.909905	-1.080576	-0.497025
C37	C	0.914200	-0.986044	-0.491559
C38	C	0.962314	-0.935432	-0.430994
C39	C	0.966605	-0.840898	-0.425524
C40	C	0.874677	-0.847599	-0.541188
C41	C	0.870383	-0.942131	-0.546654
C42	C	1.114731	-0.461214	-0.461303
C43	C	1.189963	-0.461223	-0.461316
C44	C	0.927418	-0.474745	-0.697355
C45	C	0.922827	-0.480519	-0.797960
C46	C	0.949083	-0.225103	-0.447705
C47	C	0.953724	-0.124496	-0.441924
C48	C	0.870403	-0.546528	-0.943077
C49	C	0.874715	-0.541109	-0.848550
C50	C	0.966630	-0.425342	-0.841902
C51	C	0.962318	-0.430761	-0.936429
C52	C	0.914203	-0.491357	-0.987013
C53	C	0.909895	-0.496780	-1.081542
C54	C	1.001806	-0.381008	-1.074892
C55	C	1.006118	-0.375589	-0.980365
C56	C	0.948964	-0.447632	-0.226103
C57	C	0.953698	-0.441602	-0.125484
H58	H	0.542691	-0.572404	-0.572169
N59	N	0.345110	-0.333783	-0.334245
H60	H	0.335108	-0.344022	-0.270355
H61	H	0.394436	-0.343091	-0.343585
N62	N	0.827409	-0.800237	-0.600611
H63	H	0.837428	-0.732671	-0.587959
H64	H	0.834200	-0.820433	-0.666223
N65	N	1.058020	-0.924744	-0.310583
H66	H	1.034234	-0.883161	-0.266340
H67	H	1.085113	-0.966966	-0.276569
N68	N	1.049097	-1.121242	-0.321945
H69	H	1.080227	-1.074832	-0.282750
H70	H	1.021702	-1.158105	-0.282290
N71	N	1.018495	-0.786304	-0.360203
H72	H	1.045603	-0.828472	-0.326134
H73	H	1.049893	-0.749150	-0.394821
N74	N	1.049048	-0.321480	-1.122269
H75	H	1.097510	-0.334594	-1.106631
H76	H	1.038963	-0.334125	-1.189814
N77	N	0.323111	-0.588622	-0.588340
H78	H	0.286640	-0.627455	-0.627069
H79	H	0.352226	-0.554247	-0.628167
H80	H	0.870738	-1.121801	-0.546340
N81	N	0.198193	-0.333817	-0.334256
H82	H	0.147246	-0.343131	-0.343534
H83	H	0.212848	-0.344092	-0.270395
N84	N	0.818492	-0.996722	-0.611976
H85	H	0.822419	-1.063272	-0.607079
H86	H	0.771556	-0.979448	-0.596866
H87	H	0.870719	-0.546122	-1.122726
H88	H	1.045290	-0.326251	-0.939167
H89	H	1.005799	-0.376003	-0.800700
H90	H	0.186917	-0.572432	-0.572208
H91	H	0.561900	-0.349987	-0.350379
H92	H	0.831230	-0.595874	-0.984263
N93	N	0.827465	-0.600602	-0.801158
H94	H	0.796330	-0.639806	-0.847550
H95	H	0.854865	-0.640250	-0.764347
H96	H	0.670926	-0.572400	-0.572148
H97	H	0.690147	-0.349971	-0.350360
