data_functionalizedCrystal
_audit_creation_method	'MofGen! by Chris Wilmer'
_symmetry_space_group_name_H-M	'P1'
_symmetry_Int_Tables_number	1
_symmetry_cell_setting	triclinic
loop_
_symmetry_equiv_pos_as_xyz
  x,y,z
_cell_length_a	19.188930
_cell_length_b	27.732048
_cell_length_c	18.266242
_cell_angle_alpha	89.988683
_cell_angle_beta	89.977082
_cell_angle_gamma	82.893716
loop_
_atom_site_label
_atom_site_type_symbol
_atom_site_fract_x
_atom_site_fract_y
_atom_site_fract_z
O1	O	0.925764	0.060348	-0.061124
O2	O	1.425764	0.560348	0.438876
O3	O	0.722401	0.068472	-0.061075
O4	O	1.222401	0.568472	0.438925
O5	O	0.830399	-0.005968	-0.061087
O6	O	1.330399	0.494032	0.438913
O7	O	0.817767	0.134787	-0.061112
O8	O	1.317767	0.634787	0.438888
O9	O	0.830381	-0.005971	0.060675
O10	O	1.330381	0.494029	0.560675
O11	O	0.722383	0.068468	0.060687
O12	O	1.222383	0.568468	0.560687
O13	O	0.925746	0.060344	0.060638
O14	O	1.425746	0.560344	0.560638
Zn15	Zn	0.824062	0.064405	0.079995
Zn16	Zn	1.324062	0.564405	0.579995
Zn17	Zn	0.824086	0.064410	-0.080432
Zn18	Zn	1.324086	0.564410	0.419568
O19	O	0.817749	0.134783	0.060650
O20	O	1.317749	0.634783	0.560650
C21	C	0.696383	0.068207	-0.000187
C22	C	1.196383	0.568207	0.499813
C23	C	0.618883	0.067417	-0.000168
C24	C	1.118883	0.567417	0.499832
C25	C	0.573681	0.111096	-0.000187
C26	C	1.073681	0.611096	0.499813
C27	C	0.500862	0.110354	-0.000195
C28	C	1.000862	0.610354	0.499805
C29	C	0.473249	0.065931	-0.000199
C30	C	0.973249	0.565931	0.499801
C31	C	0.518461	0.022246	-0.000175
C32	C	1.018461	0.522246	0.499825
C33	C	0.591278	0.022990	-0.000160
C34	C	1.091278	0.522990	0.499840
N35	N	0.365491	0.031976	-0.041663
N36	N	0.865491	0.531976	0.458337
N37	N	0.296317	0.031273	-0.041679
N38	N	0.796317	0.531273	0.458321
C39	C	0.253854	0.063689	-0.000243
C40	C	0.753854	0.563689	0.499757
N41	N	0.283177	0.096842	0.041201
N42	N	0.783177	0.596842	0.541201
N43	N	0.352358	0.097546	0.041213
N44	N	0.852358	0.597546	0.541213
C45	C	0.394291	0.065120	-0.000215
C46	C	0.894291	0.565120	0.499785
C47	C	0.129692	0.106566	-0.000270
C48	C	0.629692	0.606566	0.499730
C49	C	0.056872	0.105822	-0.000273
C50	C	0.556872	0.605822	0.499727
C51	C	0.074473	0.017714	-0.000261
C52	C	0.574473	0.517714	0.499739
C53	C	0.147292	0.018459	-0.000250
C54	C	0.647292	0.518459	0.499750
C55	C	0.174897	0.062886	-0.000258
C56	C	0.674897	0.562886	0.499742
C57	C	0.830125	-0.023977	-0.000204
C58	C	1.330125	0.476023	0.499796
C59	C	0.829326	-0.077635	-0.000198
C60	C	1.329326	0.422365	0.499802
C61	C	0.888119	-0.416270	-0.000250
C62	C	1.388119	0.083730	0.499750
C63	C	0.885157	-0.617939	-0.000259
C64	C	1.385157	-0.117939	0.499741
O65	O	0.938918	-0.649030	-0.000304
O66	O	1.438918	-0.149030	0.499696
N67	N	0.821118	-0.637258	-0.000243
N68	N	1.321118	-0.137258	0.499757
C69	C	0.757816	-0.606157	-0.000229
C70	C	1.257816	-0.106157	0.499771
O71	O	0.703280	-0.627217	-0.000223
O72	O	1.203280	-0.127217	0.499777
C73	C	0.760780	-0.404489	-0.000225
C74	C	1.260780	0.095511	0.499775
C75	C	0.824822	-0.385173	-0.000234
C76	C	1.324822	0.114827	0.499766
C77	C	0.952156	-0.396953	-0.000259
C78	C	1.452156	0.103047	0.499741
C79	C	0.952896	-0.346539	-0.000253
C80	C	1.452896	0.153461	0.499747
C81	C	0.889599	-0.315441	-0.000237
C82	C	1.389599	0.184559	0.499763
C83	C	0.825562	-0.334759	-0.000227
C84	C	1.325562	0.165241	0.499773
C85	C	0.697478	-0.373389	-0.000216
C86	C	1.197478	0.126611	0.499784
C87	C	0.698225	-0.322969	-0.000217
C88	C	1.198225	0.177031	0.499783
C89	C	0.762267	-0.303653	-0.000226
C90	C	1.262267	0.196347	0.499774
C91	C	0.763005	-0.253247	-0.000205
C92	C	1.263005	0.246753	0.499795
N93	N	0.827043	-0.233928	-0.000221
N94	N	1.327043	0.266072	0.499779
C95	C	0.890340	-0.265025	-0.000237
C96	C	1.390340	0.234975	0.499763
C97	C	0.756265	-0.712036	-0.000230
C98	C	1.256265	-0.212036	0.499770
C99	C	0.755524	-0.762452	-0.000230
C100	C	1.255524	-0.262452	0.499770
C101	C	0.882865	-0.774231	-0.000261
C102	C	1.382865	-0.274231	0.499739
C103	C	0.883605	-0.723813	-0.000256
C104	C	1.383605	-0.223813	0.499744
C105	C	0.820303	-0.692716	-0.000246
C106	C	1.320303	-0.192716	0.499754
C107	C	0.891889	-0.159151	-0.000223
C108	C	1.391889	0.340849	0.499777
C109	C	0.892623	-0.108732	-0.000214
C110	C	1.392623	0.391268	0.499786
C111	C	0.765283	-0.096958	-0.000186
C112	C	1.265283	0.403042	0.499814
C113	C	0.764549	-0.147373	-0.000192
C114	C	1.264549	0.352627	0.499808
C115	C	0.827857	-0.178468	-0.000213
C116	C	1.327857	0.321532	0.499787
O117	O	0.709272	-0.222127	-0.000168
O118	O	1.209272	0.277873	0.499832
O119	O	0.944868	-0.243956	-0.000259
O120	O	1.444868	0.256044	0.499741
C121	C	0.887379	-0.466684	-0.000256
C122	C	1.387379	0.033316	0.499744
C123	C	0.823342	-0.486001	-0.000246
C124	C	1.323342	0.013999	0.499754
C125	C	0.760045	-0.454904	-0.000230
C126	C	1.260045	0.045096	0.499770
C127	C	0.822601	-0.536418	-0.000246
C128	C	1.322601	-0.036418	0.499754
C129	C	0.885898	-0.567515	-0.000262
C130	C	1.385898	-0.067515	0.499738
C131	C	0.949936	-0.548195	-0.000278
C132	C	1.449936	-0.048195	0.499722
C133	C	0.950676	-0.497781	-0.000272
C134	C	1.450676	0.002219	0.499728
C135	C	0.696007	-0.474223	-0.000214
C136	C	1.196007	0.025777	0.499786
C137	C	0.695272	-0.524638	-0.000220
C138	C	1.195272	-0.024638	0.499780
C139	C	0.758569	-0.555735	-0.000236
C140	C	1.258569	-0.055735	0.499764
C141	C	0.951765	0.060609	-0.000251
C142	C	1.451765	0.560609	0.499749
C143	C	1.029264	0.061399	-0.000275
C144	C	1.529264	0.561399	0.499725
C145	C	0.818023	0.152793	-0.000235
C146	C	1.318023	0.652793	0.499765
C147	C	0.818821	0.206450	-0.000246
C148	C	1.318821	0.706450	0.499754
N149	N	0.824051	0.064402	0.189482
N150	N	1.324051	0.564402	0.689482
N151	N	0.824103	0.064410	-0.189919
N152	N	1.324103	0.564410	0.310081
C153	C	0.871887	0.031456	0.227785
C154	C	1.371887	0.531456	0.727785
C155	C	0.871892	0.031454	0.304430
C156	C	1.371892	0.531454	0.804430
C157	C	0.824066	0.064406	0.342769
C158	C	1.324066	0.564406	0.842769
C159	C	0.776220	0.097354	0.304456
C160	C	1.276220	0.597354	0.804456
C161	C	0.776213	0.097352	0.227813
C162	C	1.276213	0.597352	0.727813
N163	N	0.814718	0.107196	0.463095
N164	N	1.314718	0.607196	0.963095
N165	N	0.814729	0.107196	0.535903
N166	N	1.314729	0.607196	1.035903
C167	C	0.824086	0.064413	0.573691
C168	C	1.324086	0.564413	1.073691
N169	N	0.833444	0.021627	0.535921
N170	N	1.333444	0.521627	1.035921
N171	N	0.833436	0.021628	0.463106
N172	N	1.333436	0.521628	0.963106
C173	C	0.824069	0.064411	0.425876
C174	C	1.324069	0.564411	0.925876
C175	C	0.871930	0.031462	0.695102
C176	C	1.371930	0.531462	1.195102
C177	C	0.871929	0.031459	0.771748
C178	C	1.371929	0.531459	1.271748
C179	C	0.776261	0.097363	0.771772
C180	C	1.276261	0.597363	1.271772
C181	C	0.776258	0.097362	0.695127
C182	C	1.276258	0.597362	1.195127
C183	C	0.824096	0.064412	0.656797
C184	C	1.324096	0.564412	1.156797
H185	H	0.464051	0.145923	-0.000209
H186	H	0.964051	0.645923	0.499791
O187	O	1.012905	-0.479044	-0.000416
O188	O	1.512905	0.020956	0.499584
C189	C	1.051469	-0.494953	-0.063479
C190	C	1.551469	0.005047	0.436521
H191	H	1.014014	-0.505355	-0.107546
H192	H	1.514014	-0.005355	0.392454
H193	H	1.080848	-0.464471	-0.084653
H194	H	1.580848	0.035529	0.415347
H195	H	1.090729	-0.527897	-0.049232
H196	H	1.590729	-0.027897	0.450768
H197	H	0.152169	0.142741	-0.000266
H198	H	0.652169	0.642741	0.499734
O199	O	0.491607	-0.020894	-0.000311
O200	O	0.991607	0.479106	0.499689
C201	C	0.450037	-0.023953	-0.063373
C202	C	0.950037	0.476047	0.436627
H203	H	0.467015	0.001271	-0.107449
H204	H	0.967015	0.501271	0.392551
H205	H	0.457006	-0.062923	-0.084534
H206	H	0.957006	0.437077	0.415466
H207	H	0.392478	-0.012681	-0.049132
H208	H	0.892478	0.487319	0.450868
O209	O	0.945832	-0.705074	-0.000401
O210	O	1.445832	-0.205074	0.499599
C211	C	0.984398	-0.720984	-0.063463
C212	C	1.484398	-0.220984	0.436537
H213	H	0.946944	-0.731391	-0.107528
H214	H	1.446944	-0.231391	0.392472
H215	H	1.013773	-0.690501	-0.084641
H216	H	1.513773	-0.190501	0.415359
H217	H	1.023661	-0.753926	-0.049213
H218	H	1.523661	-0.253926	0.450787
O219	O	1.011442	-0.578388	-0.000166
O220	O	1.511442	-0.078388	0.499834
C221	C	1.050363	-0.569661	0.062875
C222	C	1.550363	-0.069661	0.562875
H223	H	1.013314	-0.552359	0.106966
H224	H	1.513314	-0.052359	0.606966
H225	H	1.078747	-0.605495	0.084029
H226	H	1.578747	-0.105495	0.584029
H227	H	1.090501	-0.544071	0.048609
H228	H	1.590501	-0.044071	0.548609
O229	O	0.954855	-0.089992	-0.000355
O230	O	1.454855	0.410008	0.499645
C231	C	0.993421	-0.105896	-0.063419
C232	C	1.493421	0.394104	0.436581
H233	H	0.955969	-0.116300	-0.107487
H234	H	1.455969	0.383700	0.392513
H235	H	1.022795	-0.075410	-0.084590
H236	H	1.522795	0.424590	0.415410
H237	H	1.032686	-0.138838	-0.049175
H238	H	1.532686	0.361162	0.450825
H239	H	1.005046	-0.330816	-0.000263
H240	H	1.505046	0.169184	0.499737
H241	H	0.628083	-0.012580	-0.000145
H242	H	1.128083	0.487420	0.499855
O243	O	0.953340	-0.189401	-0.000142
O244	O	1.453340	0.310599	0.499858
C245	C	0.956724	-0.218918	0.062926
C246	C	1.456724	0.281082	0.562926
H247	H	0.901331	-0.221367	0.083958
H248	H	1.401331	0.278633	0.583958
H249	H	0.983163	-0.256860	0.048736
H250	H	1.483163	0.243140	0.548736
H251	H	0.988415	-0.202396	0.107080
H252	H	1.488415	0.297604	0.607080
H253	H	0.020068	0.141392	-0.000285
H254	H	0.520068	0.641392	0.499715
O255	O	0.729768	0.129416	0.658029
O256	O	1.229768	0.629416	1.158029
C257	C	0.687543	0.158492	0.708299
C258	C	1.187543	0.658492	1.208299
H259	H	0.716167	0.158991	0.762918
H260	H	1.216167	0.658991	1.262918
H261	H	0.676471	0.197113	0.686146
H262	H	1.176471	0.697113	1.186146
H263	H	0.635850	0.142886	0.716483
H264	H	1.135850	0.642886	1.216483
O265	O	0.729735	0.129297	0.341776
O266	O	1.229735	0.629297	0.841776
C267	C	0.686940	0.103483	0.386131
C268	C	1.186940	0.603483	0.886131
H269	H	0.715162	0.065611	0.397611
H270	H	1.215162	0.565611	0.897611
H271	H	0.675683	0.123679	0.440025
H272	H	1.175683	0.623679	0.940025
H273	H	0.635373	0.100285	0.356624
H274	H	1.135373	0.600285	0.856624
H275	H	0.712400	-0.163101	-0.000164
H276	H	1.212400	0.336899	0.499836
O277	O	1.013712	-0.427088	-0.000240
O278	O	1.513712	0.072912	0.499760
C279	C	1.070382	-0.399216	-0.000268
C280	C	1.570382	0.100784	0.499732
H281	H	1.052228	-0.361554	0.022784
H282	H	1.552228	0.138446	0.522784
H283	H	1.114694	-0.417899	0.035078
H284	H	1.614694	0.082101	0.535078
H285	H	1.090051	-0.395658	-0.058686
H286	H	1.590051	0.104342	0.441314
O287	O	0.047542	-0.025397	-0.000298
O288	O	0.547542	0.474603	0.499702
C289	C	-0.026422	-0.016688	-0.000295
C290	C	0.473578	0.483312	0.499705
H291	H	-0.043917	0.021071	-0.023353
H292	H	0.456083	0.521071	0.476647
H293	H	-0.048457	-0.045103	-0.035648
H294	H	0.451543	0.454897	0.464352
H295	H	-0.046701	-0.018990	0.058117
H296	H	0.453299	0.481010	0.558117
H297	H	0.934404	-0.799559	-0.000274
H298	H	1.434404	-0.299559	0.499726
H299	H	0.184097	-0.017109	-0.000238
H300	H	0.684097	0.482891	0.499762
H301	H	0.704714	-0.686720	-0.000222
H302	H	1.204714	-0.186720	0.499778
O303	O	0.600379	0.154293	-0.000155
O304	O	1.100379	0.654293	0.499845
C305	C	0.544861	0.192686	-0.000191
C306	C	1.044861	0.692686	0.499809
H307	H	0.495520	0.179240	0.022850
H308	H	0.995520	0.679240	0.522850
H309	H	0.559723	0.223710	0.035161
H310	H	1.059723	0.723710	0.535161
H311	H	0.534446	0.206154	-0.058610
H312	H	1.034446	0.706154	0.441390
O313	O	0.918469	-0.000564	0.808845
O314	O	1.418469	0.499436	1.308845
C315	C	0.960677	-0.029652	0.758574
C316	C	1.460677	0.470348	1.258574
H317	H	0.961242	-0.009835	0.703933
H318	H	1.461242	0.490165	1.203933
H319	H	1.016516	-0.037116	0.780693
H320	H	1.516516	0.462884	1.280693
H321	H	0.938405	-0.065525	0.750446
H322	H	1.438405	0.434475	1.250446
O323	O	0.693252	-0.781133	-0.000246
O324	O	1.193252	-0.281133	0.499754
C325	C	0.637548	-0.742869	-0.000215
C326	C	1.137548	-0.242869	0.499785
H327	H	0.656752	-0.708656	-0.023269
H328	H	1.156752	-0.208656	0.476731
H329	H	0.592808	-0.753307	-0.035557
H330	H	1.092808	-0.253307	0.464443
H331	H	0.618041	-0.735702	0.058205
H332	H	1.118041	-0.235702	0.558205
O333	O	0.635205	-0.392065	-0.000244
O334	O	1.135205	0.107935	0.499756
C335	C	0.579506	-0.353797	-0.000216
C336	C	1.079506	0.146203	0.499784
H337	H	0.598717	-0.319585	-0.023266
H338	H	1.098717	0.180415	0.476734
H339	H	0.534767	-0.364232	-0.035564
H340	H	1.034767	0.135768	0.464436
H341	H	0.559994	-0.346631	0.058202
H342	H	1.059994	0.153369	0.558202
H343	H	0.646676	-0.297652	-0.000210
H344	H	1.146676	0.202348	0.499790
H345	H	0.737318	0.124191	0.802987
H346	H	1.237318	0.624191	1.302987
H347	H	0.643117	-0.540360	-0.000206
H348	H	1.143117	-0.040360	0.499794
H349	H	0.910838	0.004625	0.196579
H350	H	1.410838	0.504625	0.696579
H351	H	0.713749	-0.071630	-0.000171
H352	H	1.213749	0.428370	0.499829
O353	O	0.634453	-0.444088	-0.000162
O354	O	1.134453	0.055912	0.499838
C355	C	0.577780	-0.471957	-0.000168
C356	C	1.077780	0.028043	0.499832
H357	H	0.595924	-0.509627	0.022871
H358	H	1.095924	-0.009627	0.522871
H359	H	0.533458	-0.453283	0.035201
H360	H	1.033458	0.046717	0.535201
H361	H	0.558129	-0.475498	-0.058578
H362	H	1.058129	0.024502	0.441422
H363	H	0.910847	0.004625	0.335623
H364	H	1.410847	0.504625	0.835623
H365	H	0.737257	0.124181	0.196625
H366	H	1.237257	0.624181	0.696625
O367	O	0.918317	-0.000539	0.657757
O368	O	1.418317	0.499461	1.157757
C369	C	0.881285	-0.030307	0.613430
C370	C	1.381285	0.469693	1.113430
H371	H	0.826423	-0.010987	0.601992
H372	H	1.326423	0.489013	1.101992
H373	H	0.910506	-0.037959	0.559512
H374	H	1.410506	0.462041	1.059512
H375	H	0.876980	-0.066046	0.642938
H376	H	1.376980	0.433954	1.142938
