data_functionalizedCrystal
_audit_creation_method	'MofGen! by Chris Wilmer'
_symmetry_space_group_name_H-M	'P1'
_symmetry_Int_Tables_number	1
_symmetry_cell_setting	triclinic
loop_
_symmetry_equiv_pos_as_xyz
  x,y,z
_cell_length_a	15.944551
_cell_length_b	16.776229
_cell_length_c	17.699083
_cell_angle_alpha	90.007545
_cell_angle_beta	96.609124
_cell_angle_gamma	89.997350
loop_
_atom_site_label
_atom_site_type_symbol
_atom_site_fract_x
_atom_site_fract_y
_atom_site_fract_z
O1	O	1.114322	-0.066207	-0.097616
O2	O	1.614322	0.433793	0.402384
O3	O	0.869747	-0.066227	-0.109651
O4	O	1.369747	0.433773	0.390349
O5	O	0.998944	-0.066209	0.006544
O6	O	1.498944	0.433791	0.506544
O7	O	0.985125	-0.066224	-0.213811
O8	O	1.485125	0.433776	0.286189
O9	O	0.998927	0.066367	0.006551
O10	O	1.498927	0.566367	0.506551
O11	O	0.869730	0.066350	-0.109643
O12	O	1.369730	0.566350	0.390357
O13	O	1.114305	0.066370	-0.097609
O14	O	1.614305	0.566370	0.402391
Zn15	Zn	0.992015	0.087409	-0.103625
Zn16	Zn	1.492015	0.587409	0.396375
Zn17	Zn	0.992037	-0.087266	-0.103634
Zn18	Zn	1.492037	0.412734	0.396366
O19	O	0.985107	0.066352	-0.213803
O20	O	1.485107	0.566352	0.286197
C21	C	0.838445	0.000059	-0.109147
C22	C	1.338445	0.500059	0.390853
C23	C	0.745203	0.000052	-0.107650
C24	C	1.245203	0.500052	0.392350
N25	N	0.992005	0.206620	-0.103618
N26	N	1.492005	0.706620	0.396382
N27	N	0.992053	-0.206477	-0.103635
N28	N	1.492053	0.293523	0.396365
C29	C	0.530505	0.000072	-0.032046
C30	C	1.030505	0.500072	0.467954
C31	C	0.469419	-0.065297	-0.067158
C32	C	0.969419	0.434703	0.432842
C33	C	0.574482	0.000061	-0.104940
C34	C	1.074482	0.500061	0.395060
C35	C	0.469425	0.065413	-0.067168
C36	C	0.969425	0.565413	0.432832
C37	C	0.409575	0.000074	-0.102317
C38	C	0.909575	0.500074	0.397683
C39	C	0.514625	-0.065362	-0.140071
C40	C	1.014625	0.434638	0.359929
C41	C	0.514637	0.065406	-0.140071
C42	C	1.014637	0.565406	0.359929
C43	C	0.453569	0.000021	-0.175235
C44	C	0.953569	0.500021	0.324765
C45	C	0.669481	0.000053	-0.106449
C46	C	1.169481	0.500053	0.393551
C47	C	0.314577	0.000076	-0.100814
C48	C	0.814577	0.500076	0.399186
C49	C	1.145606	0.000082	-0.098112
C50	C	1.645606	0.500082	0.401888
C51	C	1.238849	0.000084	-0.099610
C52	C	1.738849	0.500084	0.400390
C53	C	0.998440	0.000079	0.034746
C54	C	1.498440	0.500079	0.534746
C55	C	0.996955	0.000079	0.118766
C56	C	1.496955	0.500079	0.618766
C57	C	1.049231	0.248345	-0.052188
C58	C	1.549231	0.748345	0.447812
C59	C	1.049236	0.331797	-0.052187
C60	C	1.549236	0.831797	0.447813
C61	C	0.992018	0.373523	-0.103621
C62	C	1.492018	0.873523	0.396379
C63	C	0.934786	0.331793	-0.155053
C64	C	1.434786	0.831793	0.344947
C65	C	0.934778	0.248342	-0.155050
C66	C	1.434778	0.748342	0.344950
C67	C	0.934816	0.668340	-0.155068
C68	C	1.434816	1.168340	0.344932
C69	C	0.934830	0.751796	-0.155069
C70	C	1.434830	1.251796	0.344931
C71	C	1.049274	0.751795	-0.052206
C72	C	1.549274	1.251795	0.447794
C73	C	1.049266	0.668345	-0.052202
C74	C	1.549266	1.168345	0.447798
C75	C	0.992032	0.626621	-0.103632
C76	C	1.492032	1.126621	0.396368
C77	C	0.992026	0.536133	-0.103631
C78	C	1.492026	1.036133	0.396369
C79	C	0.992027	0.464010	-0.103626
C80	C	1.492027	0.964010	0.396374
C81	C	0.985611	0.000062	-0.242005
C82	C	1.485611	0.500062	0.257995
C83	C	0.987097	0.000057	-0.326026
C84	C	1.487097	0.500057	0.173974
C85	C	1.072791	0.000087	0.167258
C86	C	1.572791	0.500087	0.667258
C87	C	1.071390	0.000080	0.246203
C88	C	1.571390	0.500080	0.746203
C89	C	0.994152	0.000071	0.276656
C90	C	1.494152	0.500071	0.776656
C91	C	0.918310	0.000061	0.228158
C92	C	1.418310	0.500061	0.728158
C93	C	0.919712	0.000063	0.149214
C94	C	1.419712	0.500063	0.649214
C95	C	0.912656	0.000054	0.546531
C96	C	1.412656	0.500054	1.046531
C97	C	0.911260	0.000055	0.625481
C98	C	1.411260	0.500055	1.125481
C99	C	1.064334	0.000071	0.643520
C100	C	1.564334	0.500071	1.143520
C101	C	1.065735	0.000073	0.564576
C102	C	1.565735	0.500073	1.064576
C103	C	0.989894	0.000059	0.516085
C104	C	1.489894	0.500059	1.016085
C105	C	0.991414	0.000065	0.430484
C106	C	1.491414	0.500065	0.930484
C107	C	0.992632	0.000070	0.362256
C108	C	1.492632	0.500070	0.862256
H109	H	0.563965	-0.000004	0.028449
H110	H	1.063965	0.499996	0.528449
H111	H	0.534696	0.120670	-0.170873
H112	H	1.034696	0.620670	0.329127
H113	H	1.095861	0.634374	-0.010323
H114	H	1.595861	1.134374	0.489677
H115	H	1.126087	0.000078	0.683011
H116	H	1.626087	0.500078	1.183011
H117	H	0.888194	0.365771	-0.196929
H118	H	1.388194	0.865771	0.303071
H119	H	0.449381	-0.120559	-0.036330
H120	H	0.949381	0.379441	0.463670
H121	H	1.135687	0.000099	0.142470
H122	H	1.635687	0.500099	0.642470
H123	H	0.420283	-0.000020	-0.235793
H124	H	0.920283	0.499980	0.264207
H125	H	0.888234	0.785768	-0.196954
H126	H	1.388234	1.285768	0.303046
H127	H	0.848360	0.000049	0.650272
H128	H	1.348360	0.500049	1.150272
H129	H	0.850901	0.000043	0.507059
H130	H	1.350901	0.500043	1.007059
H131	H	1.133144	0.000087	0.285683
H132	H	1.633144	0.500087	0.785683
H133	H	1.128630	0.000084	0.539786
H134	H	1.628630	0.500084	1.039786
H135	H	0.888178	0.214370	-0.196928
H136	H	1.388178	0.714370	0.303072
H137	H	0.449396	0.120676	-0.036320
H138	H	0.949396	0.620676	0.463680
H139	H	0.855422	0.000049	0.252959
H140	H	1.355422	0.500049	0.752959
H141	H	0.534555	-0.120688	-0.170882
H142	H	1.034555	0.379312	0.329118
H143	H	1.095833	0.365770	-0.010309
H144	H	1.595833	0.865770	0.489691
H145	H	1.095828	0.214378	-0.010308
H146	H	1.595828	0.714378	0.489692
H147	H	0.888215	0.634375	-0.196945
H148	H	1.388215	1.134375	0.303055
H149	H	1.095875	0.785775	-0.010327
H150	H	1.595875	1.285775	0.489673
H151	H	0.857958	0.000056	0.109733
H152	H	1.357958	0.500056	0.609733
