data_functionalizedCrystal
_audit_creation_method	'MofGen! by Chris Wilmer'
_symmetry_space_group_name_H-M	'P1'
_symmetry_Int_Tables_number	1
_symmetry_cell_setting	triclinic
loop_
_symmetry_equiv_pos_as_xyz
  x,y,z
_cell_length_a	15.297475
_cell_length_b	21.295417
_cell_length_c	15.296720
_cell_angle_alpha	80.361834
_cell_angle_beta	88.382886
_cell_angle_gamma	80.332118
loop_
_atom_site_label
_atom_site_type_symbol
_atom_site_fract_x
_atom_site_fract_y
_atom_site_fract_z
Zn1	Zn	1.253315	-0.489896	0.726513
Zn2	Zn	1.753315	0.010104	1.226513
Zn3	Zn	1.278561	-0.580536	0.580012
Zn4	Zn	1.778561	-0.080536	1.080012
Zn5	Zn	1.132199	-0.454534	0.554760
Zn6	Zn	1.632199	0.045466	1.054760
Zn7	Zn	1.106789	-0.574348	0.701142
Zn8	Zn	1.606789	-0.074348	1.201142
O9	O	1.192716	-0.524829	0.640607
O10	O	1.692716	-0.024829	1.140607
O11	O	1.379239	-0.519309	0.728265
O12	O	1.879239	-0.019309	1.228265
O13	O	1.280346	-0.551612	0.454090
O14	O	1.780346	-0.051612	0.954090
O15	O	1.148333	-0.371150	0.577592
O16	O	1.648333	0.128850	1.077592
O17	O	1.397787	-0.585901	0.620632
O18	O	1.897787	-0.085901	1.120632
O19	O	1.237317	-0.397130	0.703779
O20	O	1.737317	0.102870	1.203779
O21	O	1.172814	-0.459039	0.435537
O22	O	1.672814	0.040961	0.935537
O23	O	1.006253	-0.453039	0.552991
O24	O	1.506253	0.046961	1.052991
O25	O	1.105026	-0.575355	0.827080
O26	O	1.605026	-0.075355	1.327080
O27	O	0.987585	-0.541066	0.660538
O28	O	1.487585	-0.041066	1.160538
O29	O	1.212678	-0.513309	0.845720
O30	O	1.712678	-0.013309	1.345720
O31	O	1.255707	-0.667790	0.596031
O32	O	1.755707	-0.167790	1.096031
O33	O	1.129506	-0.663244	0.685025
O34	O	1.629506	-0.163244	1.185025
C35	C	0.965136	-0.492545	0.601272
C36	C	1.465136	0.007455	1.101272
C37	C	0.867773	-0.478750	0.584465
C38	C	1.367773	0.021250	1.084465
C39	C	0.554602	-0.623422	0.760730
C40	C	1.054602	-0.123422	1.260730
C41	C	0.646080	-0.636386	0.776518
C42	C	1.146080	-0.136386	1.276518
C43	C	0.701507	-0.596978	0.728507
C44	C	1.201507	-0.096978	1.228507
C45	C	0.665449	-0.544604	0.664703
C46	C	1.165449	-0.044604	1.164703
C47	C	0.573963	-0.531641	0.648908
C48	C	1.073963	-0.031641	1.148908
C49	C	0.720868	-0.505198	0.616685
C50	C	1.220868	-0.005198	1.116685
C51	C	0.684809	-0.452823	0.552882
C52	C	1.184809	0.047177	1.052882
C53	C	0.593332	-0.439862	0.537090
C54	C	1.093332	0.060138	1.037090
C55	C	0.537904	-0.479270	0.585102
C56	C	1.037904	0.020730	1.085102
C57	C	0.812354	-0.518160	0.632480
C58	C	1.312354	-0.018160	1.132480
C59	C	0.831715	-0.426380	0.520659
C60	C	1.331715	0.073620	1.020659
C61	C	0.740237	-0.413415	0.504870
C62	C	1.240237	0.086585	1.004870
C63	C	1.192609	-0.688359	0.640538
C64	C	1.692609	-0.188359	1.140538
C65	C	1.192639	-0.758333	0.640552
C66	C	1.692639	-0.258333	1.140552
C67	C	1.258392	-0.793558	0.594279
C68	C	1.758392	-0.293558	1.094279
C69	C	1.258429	-0.859308	0.594306
C70	C	1.758429	-0.359308	1.094306
C71	C	1.192700	-0.889827	0.640594
C72	C	1.692700	-0.389827	1.140594
C73	C	1.126942	-0.854594	0.686877
C74	C	1.626942	-0.354594	1.186877
C75	C	1.126911	-0.788847	0.686856
C76	C	1.626911	-0.288847	1.186856
N77	N	1.114918	-0.982893	0.634027
N78	N	1.614918	-0.482893	1.134027
N79	N	1.114951	-1.045351	0.634042
N80	N	1.614951	-0.545351	1.134042
C81	C	1.192790	-1.087921	0.640661
C82	C	1.692790	-0.587921	1.140661
N83	N	1.270600	-1.065673	0.647247
N84	N	1.770600	-0.565673	1.147247
N85	N	1.270567	-1.003210	0.647228
N86	N	1.770567	-0.503210	1.147228
C87	C	1.192726	-0.961119	0.640622
C88	C	1.692726	-0.461119	1.140622
C89	C	1.258588	-1.194441	0.594415
C90	C	1.758588	-0.694441	1.094415
C91	C	1.258626	-1.260193	0.594448
C92	C	1.758626	-0.760193	1.094448
C93	C	1.127132	-1.255477	0.687013
C94	C	1.627132	-0.755477	1.187013
C95	C	1.127101	-1.189727	0.686986
C96	C	1.627101	-0.689727	1.186986
C97	C	1.192829	-1.159213	0.640682
C98	C	1.692829	-0.659213	1.140682
C99	C	1.421184	-0.557239	0.680096
C100	C	1.921184	-0.057239	1.180096
C101	C	1.518543	-0.571051	0.696923
C102	C	2.018543	-0.071051	1.196923
C103	C	1.153201	-0.547586	0.869070
C104	C	1.653201	-0.047586	1.369070
C105	C	1.136362	-0.557284	0.966428
C106	C	1.636362	-0.057284	1.466428
C107	C	1.192843	-0.360665	0.640699
C108	C	1.692843	0.139335	1.140699
C109	C	1.192898	-0.290708	0.640738
C110	C	1.692898	0.209292	1.140738
C111	C	1.232127	-0.502121	0.413041
C112	C	1.732127	-0.002121	0.913041
C113	C	1.249136	-0.492270	0.315713
C114	C	1.749136	0.007730	0.815713
C115	C	1.313098	-0.455410	1.279682
C116	C	1.813098	0.044590	1.779682
C117	C	1.328925	-0.446300	1.188211
C118	C	1.828925	0.053700	1.688211
C119	C	1.280785	-0.474045	1.132761
C120	C	1.780785	0.025955	1.632761
C121	C	1.216817	-0.510902	1.168791
C122	C	1.716817	-0.010902	1.668791
C123	C	1.200994	-0.520017	1.260272
C124	C	1.700994	-0.020017	1.760272
C125	C	1.168681	-0.538652	1.113350
C126	C	1.668681	-0.038652	1.613350
C127	C	1.104713	-0.575509	1.149380
C128	C	1.604713	-0.075509	1.649380
C129	C	1.088892	-0.584622	1.240852
C130	C	1.588892	-0.084622	1.740852
C131	C	1.137031	-0.556877	1.296302
C132	C	1.637031	-0.056877	1.796302
C133	C	1.184504	-0.529537	1.021869
C134	C	1.684504	-0.029537	1.521869
C135	C	1.072400	-0.594144	1.002458
C136	C	1.572400	-0.094144	1.502458
C137	C	1.056573	-0.603254	1.093930
C138	C	1.556573	-0.103254	1.593930
H139	H	0.463414	-0.468716	0.572252
H140	H	0.963414	0.031284	1.072252
C141	C	1.034520	-0.691861	0.966850
C142	C	1.534520	-0.191861	1.466850
C143	C	1.019482	-0.624645	0.941514
C144	C	1.519482	-0.124645	1.441514
H145	H	1.001859	-0.710690	0.929218
H146	H	1.501859	-0.210690	1.429218
H147	H	1.015939	-0.702560	1.026477
H148	H	1.515939	-0.202560	1.526477
H149	H	1.095962	-0.707918	0.962024
H150	H	1.595962	-0.207918	1.462024
H151	H	0.958040	-0.608588	0.946348
H152	H	1.458040	-0.108588	1.446348
H153	H	1.038058	-0.613941	0.881873
H154	H	1.538058	-0.113941	1.381873
H155	H	1.293675	-0.466626	1.058281
H156	H	1.793675	0.033374	1.558281
C157	C	0.943985	-0.578786	0.706341
C158	C	1.443985	-0.078786	1.206341
C159	C	0.851984	-0.575725	0.702613
C160	C	1.351984	-0.075725	1.202613
H161	H	0.968448	-0.614328	0.749639
H162	H	1.468448	-0.114328	1.249639
H163	H	0.956762	-0.539926	0.721865
H164	H	1.456762	-0.039926	1.221865
H165	H	0.969137	-0.584190	0.650048
H166	H	1.469137	-0.084190	1.150048
H167	H	0.826831	-0.570317	0.758905
H168	H	1.326831	-0.070317	1.258905
H169	H	0.839199	-0.614594	0.687094
H170	H	1.339199	-0.114594	1.187094
C171	C	0.982552	-0.645912	1.225541
C172	C	1.482552	-0.145912	1.725541
C173	C	0.986268	-0.643772	1.133542
C174	C	1.486268	-0.143772	1.633542
H175	H	0.939152	-0.670930	1.249995
H176	H	1.439152	-0.170930	1.749995
H177	H	0.967172	-0.603302	1.238334
H178	H	1.467172	-0.103302	1.738334
H179	H	1.038810	-0.664966	1.250689
H180	H	1.538810	-0.164966	1.750689
H181	H	0.930011	-0.624714	1.108394
H182	H	1.430011	-0.124714	1.608394
H183	H	1.001642	-0.686390	1.120742
H184	H	1.501642	-0.186390	1.620742
C185	C	1.031046	-0.542064	1.412942
C186	C	1.531046	-0.042064	1.912942
C187	C	1.119633	-0.566892	1.396853
C188	C	1.619633	-0.066892	1.896853
H189	H	1.020309	-0.548243	1.475018
H190	H	1.520309	-0.048243	1.975018
H191	H	0.993234	-0.563867	1.385082
H192	H	1.493234	-0.063867	1.885082
H193	H	1.019522	-0.497238	1.389648
H194	H	1.519522	0.002762	1.889648
H195	H	1.131156	-0.611719	1.420141
H196	H	1.631156	-0.111719	1.920141
H197	H	1.157456	-0.545090	1.424724
H198	H	1.657456	-0.045090	1.924724
H199	H	0.876845	-0.394291	0.481562
H200	H	1.376845	0.105709	0.981562
H201	H	0.509466	-0.655505	0.799809
H202	H	1.009466	-0.155505	1.299809
H203	H	1.381010	-0.416293	1.158883
H204	H	1.881010	0.083707	1.658883
C205	C	1.094420	-1.125756	0.802652
C206	C	1.594420	-0.625756	1.302652
C207	C	1.054816	-1.151002	0.737844
C208	C	1.554816	-0.651002	1.237844
H209	H	1.049791	-1.101854	0.834056
H210	H	1.549791	-0.601854	1.334056
H211	H	1.133551	-1.098173	0.775079
H212	H	1.633551	-0.598173	1.275079
H213	H	1.126766	-1.160124	0.842784
H214	H	1.626766	-0.660124	1.342784
H215	H	1.022475	-1.116634	0.697708
H216	H	1.522475	-0.616634	1.197708
H217	H	1.015669	-1.178588	0.765418
H218	H	1.515669	-0.678588	1.265418
H219	H	1.073426	-0.879448	0.724567
H220	H	1.573426	-0.379448	1.224567
H221	H	1.236587	-0.499527	0.992543
H222	H	1.736587	0.000473	1.492543
H223	H	0.775992	-0.607537	0.741366
H224	H	1.275992	-0.107537	1.241366
H225	H	0.675432	-0.679031	0.828465
H226	H	1.175432	-0.179031	1.328465
H227	H	1.352292	-0.432829	1.324838
H228	H	1.852292	0.067171	1.824838
C229	C	0.621659	-0.350439	0.428150
C230	C	1.121659	0.149561	0.928150
C231	C	0.553695	-0.382294	0.466955
C232	C	1.053695	0.117706	0.966955
H233	H	0.597187	-0.314897	0.384856
H234	H	1.097187	0.185103	0.884856
H235	H	0.663123	-0.379534	0.400730
H236	H	1.163123	0.120466	0.900730
H237	H	0.650750	-0.335273	0.472550
H238	H	1.150750	0.164727	0.972550
H239	H	0.524608	-0.397464	0.422556
H240	H	1.024608	0.102536	0.922556
H241	H	0.512216	-0.353194	0.494375
H242	H	1.012216	0.146806	0.994375
H243	H	0.710865	-0.370771	0.452921
H244	H	1.210865	0.129229	0.952921
H245	H	1.036812	-0.614639	1.270186
H246	H	1.536812	-0.114639	1.770186
H247	H	1.311976	-0.887995	0.556626
H248	H	1.811976	-0.387995	1.056626
C249	C	1.388374	-0.804831	0.502793
C250	C	1.888374	-0.304831	1.002793
C251	C	1.330649	-0.760020	0.543397
C252	C	1.830649	-0.260020	1.043397
H253	H	1.432987	-0.784125	0.471388
H254	H	1.932987	-0.284125	0.971388
H255	H	1.356050	-0.821757	0.462671
H256	H	1.856050	-0.321757	0.962671
H257	H	1.415246	-0.838996	0.546786
H258	H	1.915246	-0.338996	1.046786
H259	H	1.303772	-0.725858	0.499403
H260	H	1.803772	-0.225858	0.999403
H261	H	1.362978	-0.743085	0.583522
H262	H	1.862978	-0.243085	1.083522
C263	C	0.996940	-0.790790	0.778355
C264	C	1.496940	-0.290790	1.278355
C265	C	1.054626	-0.750122	0.737717
C266	C	1.554626	-0.250122	1.237717
H267	H	0.952311	-0.766880	0.809748
H268	H	1.452311	-0.266880	1.309748
H269	H	1.029289	-0.825143	0.818491
H270	H	1.529289	-0.325143	1.318491
H271	H	0.970087	-0.807921	0.734380
H272	H	1.470087	-0.307921	1.234380
H273	H	1.081485	-0.732995	0.781692
H274	H	1.581485	-0.232995	1.281692
H275	H	1.022273	-0.715757	0.697577
H276	H	1.522273	-0.215757	1.197577
H277	H	1.312110	-1.169596	0.556715
H278	H	1.812110	-0.669596	1.056715
C279	C	0.997158	-1.244207	0.778508
C280	C	1.497158	-0.744207	1.278508
C281	C	1.054882	-1.289015	0.737898
C282	C	1.554882	-0.789015	1.237898
H283	H	0.952558	-1.264917	0.809929
H284	H	1.452558	-0.764917	1.309929
H285	H	0.970277	-1.210049	0.734523
H286	H	1.470277	-0.710049	1.234523
H287	H	1.029492	-1.227274	0.818625
H288	H	1.529492	-0.727274	1.318625
H289	H	1.022548	-1.305945	0.697776
H290	H	1.522548	-0.805945	1.197776
H291	H	1.081765	-1.323184	0.781888
H292	H	1.581765	-0.823184	1.281888
C293	C	1.388584	-1.258243	0.502932
C294	C	1.888584	-0.758243	1.002932
C295	C	1.330907	-1.298916	0.543580
C296	C	1.830907	-0.798916	1.043580
H297	H	1.433203	-1.282150	0.471523
H298	H	1.933203	-0.782150	0.971523
H299	H	1.415444	-1.241116	0.546895
H300	H	1.915444	-0.741116	1.046895
H301	H	1.356220	-1.223885	0.462799
H302	H	1.856220	-0.723885	0.962799
H303	H	1.363270	-1.333271	0.583717
H304	H	1.863270	-0.833271	1.083717
H305	H	1.304045	-1.316053	0.499612
H306	H	1.804045	-0.816053	0.999612
