data_functionalizedCrystal
_audit_creation_method	'MofGen! by Chris Wilmer'
_symmetry_space_group_name_H-M	'P1'
_symmetry_Int_Tables_number	1
_symmetry_cell_setting	triclinic
loop_
_symmetry_equiv_pos_as_xyz
  x,y,z
_cell_length_a	11.026607
_cell_length_b	12.503572
_cell_length_c	11.026607
_cell_angle_alpha	85.701682
_cell_angle_beta	108.586017
_cell_angle_gamma	94.293464
loop_
_atom_site_label
_atom_site_type_symbol
_atom_site_fract_x
_atom_site_fract_y
_atom_site_fract_z
O1	O	1.732471	0.089318	0.527857
O2	O	2.232471	0.589318	1.027857
O3	O	1.365891	0.089320	0.467093
O4	O	1.865891	0.589320	0.967093
O5	O	1.518799	0.089315	0.314185
O6	O	2.018799	0.589315	0.814185
O7	O	1.579563	0.089323	0.680765
O8	O	2.079563	0.589323	1.180765
O9	O	1.507305	-0.089326	0.325709
O10	O	2.007305	0.410674	0.825709
O11	O	1.354397	-0.089322	0.478617
O12	O	1.854397	0.410678	0.978617
O13	O	1.720977	-0.089323	0.539381
O14	O	2.220977	0.410677	1.039381
Cu15	Cu	1.536638	-0.105634	0.510051
Cu16	Cu	2.036638	0.394366	1.010051
Cu17	Cu	1.550231	0.105630	0.496423
Cu18	Cu	2.050231	0.605630	0.996423
O19	O	1.568069	-0.089319	0.692289
O20	O	2.068069	0.410681	1.192289
C21	C	1.312485	-0.000001	0.461645
C22	C	1.812485	0.499999	0.961645
C23	C	1.170471	-0.000000	0.428228
C24	C	1.670471	0.500000	0.928228
N25	N	1.527086	-0.254226	0.519638
N26	N	2.027086	0.245774	1.019638
C27	C	1.116822	0.000003	0.520498
C28	C	1.616822	0.500003	1.020498
C29	C	0.970043	0.000003	0.485962
C30	C	1.470043	0.500003	0.985962
C31	C	1.513037	-0.473341	0.533751
C32	C	2.013037	0.026659	1.033751
C33	C	1.573836	-0.526670	0.472718
C34	C	2.073836	-0.026670	0.972718
C35	C	1.566019	-0.648593	0.480571
C36	C	2.066019	-0.148593	0.980571
C37	C	1.520853	-0.351407	0.525900
C38	C	2.020853	0.148593	1.025900
C39	C	1.774384	-0.000001	0.544829
C40	C	2.274384	0.499999	1.044829
C41	C	1.916398	0.000006	0.578245
C42	C	2.416398	0.500006	1.078245
C43	C	1.501842	-0.000004	0.272288
C44	C	2.001842	0.499996	0.772288
C45	C	1.468426	-0.000000	0.130273
C46	C	1.968426	0.500000	0.630273
N47	N	1.559790	0.254222	0.486828
N48	N	2.059790	0.754222	0.986828
C49	C	1.560695	0.000001	0.076624
C50	C	2.060695	0.500001	0.576624
C51	C	1.526160	0.000005	-0.070155
C52	C	2.026160	0.500005	0.429845
C53	C	1.585026	0.000003	0.734186
C54	C	2.085026	0.500003	1.234186
C55	C	1.618443	0.000006	0.876200
C56	C	2.118443	0.500006	1.376200
H57	H	1.179554	-0.000001	0.625061
H58	H	1.679554	0.499999	1.125061
O59	O	1.756965	0.000008	-0.040733
O60	O	2.256965	0.500008	0.459267
H61	H	1.771915	-0.072808	0.025234
H62	H	2.271915	0.427192	0.525234
O63	O	1.650566	-0.465869	0.395691
O64	O	2.150566	0.034131	0.895691
H65	H	1.644753	-0.378259	0.401536
H66	H	2.144753	0.121741	0.901536
H67	H	1.455120	-0.519246	0.591898
H68	H	1.955120	-0.019246	1.091898
O69	O	1.699208	-0.000001	0.159703
O70	O	2.199208	0.499999	0.659703
H71	H	1.704597	-0.000010	0.261952
H72	H	2.204597	0.499990	0.761952
H73	H	1.363863	0.000007	0.067540
H74	H	1.863863	0.500007	0.567540
O75	O	0.886957	-0.000001	0.347447
O76	O	1.386957	0.499999	0.847447
H77	H	0.902925	-0.072820	0.304052
H78	H	1.402925	0.427180	0.804052
O79	O	1.387640	-0.000001	-0.153229
O80	O	1.887640	0.499999	0.346771
H81	H	1.382250	-0.000009	-0.255478
H82	H	1.882250	0.499991	0.244522
O83	O	1.087387	-0.000014	0.289718
O84	O	1.587387	0.499986	0.789718
H85	H	1.112733	0.072790	0.236915
H86	H	1.612733	0.572790	0.736915
O87	O	0.999471	0.000012	0.716765
O88	O	1.499471	0.500012	1.216765
H89	H	1.101721	0.000019	0.722157
H90	H	1.601721	0.500019	1.222157
