data_functionalizedCrystal
_audit_creation_method	'MofGen! by Chris Wilmer'
_symmetry_space_group_name_H-M	'P1'
_symmetry_Int_Tables_number	1
_symmetry_cell_setting	triclinic
loop_
_symmetry_equiv_pos_as_xyz
  x,y,z
_cell_length_a	10.654550
_cell_length_b	11.792241
_cell_length_c	9.130313
_cell_angle_alpha	89.998583
_cell_angle_beta	89.996220
_cell_angle_gamma	84.339159
loop_
_atom_site_label
_atom_site_type_symbol
_atom_site_fract_x
_atom_site_fract_y
_atom_site_fract_z
O1	O	1.667383	0.159415	-0.121920
O2	O	1.301862	0.174603	-0.121897
O3	O	1.493493	0.001859	-0.121899
O4	O	1.475752	0.332159	-0.121918
O5	O	1.493490	0.001864	0.121700
O6	O	1.301859	0.174608	0.121702
O7	O	1.667381	0.159419	0.121678
Cu8	Cu	1.484620	0.167014	0.143933
Cu9	Cu	1.484623	0.167008	-0.144151
O10	O	1.475750	0.332164	0.121680
C11	C	1.255066	0.173490	-0.000095
C12	C	1.115632	0.170154	-0.000085
C13	C	1.035858	0.271863	-0.000113
C14	C	0.904847	0.268721	-0.000138
C15	C	0.933394	0.062152	-0.000114
C16	C	1.064404	0.065295	-0.000079
C17	C	1.019376	0.391124	-0.000133
C18	C	0.888364	0.387982	-0.000158
C19	C	1.492377	-0.040432	-0.000100
C20	C	1.489042	-0.166454	-0.000101
C21	C	1.482908	-0.397180	-0.000125
C22	C	1.486316	-0.268787	-0.000112
C23	C	1.714177	0.160532	-0.000127
C24	C	1.853611	0.163869	-0.000146
C25	C	1.476865	0.374455	-0.000122
C26	C	1.480201	0.500476	-0.000130
N27	N	1.484627	0.167017	0.346555
N28	N	1.484625	0.166996	-0.346774
C29	C	1.569503	0.090552	0.423206
C30	C	1.569500	0.090539	0.576543
C31	C	1.399740	0.243465	0.576564
C32	C	1.399739	0.243472	0.423230
C33	C	1.667516	0.002265	0.423195
C34	C	1.667513	0.002251	0.576532
H35	H	0.842589	0.424026	0.105008
H36	H	1.129352	-0.017527	-0.000036
H37	H	0.846505	0.432916	-0.102114
H38	H	1.330615	0.305726	0.360822
H39	H	0.891668	-0.023221	-0.000132
C40	C	0.951685	0.489122	0.220937
C41	C	1.058806	0.454084	0.137493
H42	H	0.976032	0.527982	0.305902
H43	H	0.895297	0.538791	0.164284
H44	H	0.911089	0.424350	0.249234
H45	H	1.099397	0.518858	0.109186
H46	H	1.115215	0.404413	0.194156
H47	H	1.330625	0.305712	0.639010
H48	H	1.054925	0.429096	-0.105307
H49	H	1.758622	0.029909	0.375629
C50	C	1.621523	-0.186932	0.486290
C51	C	1.638891	-0.115499	0.367004
H52	H	1.603843	-0.259628	0.451596
H53	H	1.695999	-0.194948	0.544072
H54	H	1.552933	-0.154670	0.544087
H55	H	1.707489	-0.147757	0.309212
H56	H	1.564407	-0.107486	0.309198
C57	C	1.876694	0.044440	0.513428
C58	C	1.797721	0.028498	0.632718
H59	H	1.957072	0.060648	0.548118
H60	H	1.885799	-0.022838	0.455628
H61	H	1.840775	0.106336	0.455650
H62	H	1.833635	-0.033404	0.690490
H63	H	1.788619	0.095784	0.690542
H64	H	1.637233	-0.080191	0.624086
