data_functionalizedCrystal
_audit_creation_method	'MofGen! by Chris Wilmer'
_symmetry_space_group_name_H-M	'P1'
_symmetry_Int_Tables_number	1
_symmetry_cell_setting	triclinic
loop_
_symmetry_equiv_pos_as_xyz
  x,y,z
_cell_length_a	17.077404
_cell_length_b	21.395361
_cell_length_c	17.077396
_cell_angle_alpha	89.966749
_cell_angle_beta	89.980499
_cell_angle_gamma	90.030933
loop_
_atom_site_label
_atom_site_type_symbol
_atom_site_fract_x
_atom_site_fract_y
_atom_site_fract_z
Zn1	Zn	1.200012	-0.249435	-0.443817
Zn2	Zn	1.533345	0.083899	-0.110483
Zn3	Zn	1.866679	0.417232	0.222850
Zn4	Zn	1.199901	-0.354216	-0.312540
Zn5	Zn	1.533234	-0.020883	0.020794
Zn6	Zn	1.866568	0.312451	0.354127
Zn7	Zn	1.068744	-0.249457	-0.312565
Zn8	Zn	1.402077	0.083877	0.020769
Zn9	Zn	1.735410	0.417210	0.354102
Zn10	Zn	1.068694	-0.354179	-0.443763
Zn11	Zn	1.402027	-0.020846	-0.110430
Zn12	Zn	1.735360	0.312488	0.222903
O13	O	1.134338	-0.301822	-0.378171
O14	O	1.467671	0.031512	-0.044838
O15	O	1.801004	0.364845	0.288496
O16	O	1.309844	-0.263341	-0.426414
O17	O	1.643177	0.069993	-0.093081
O18	O	1.976511	0.403326	0.240252
O19	O	1.182477	-0.340344	-0.202696
O20	O	1.515811	-0.007011	0.130637
O21	O	1.849144	0.326322	0.463971
O22	O	1.086224	-0.161776	-0.330008
O23	O	1.419557	0.171557	0.003325
O24	O	1.752891	0.504891	0.336658
O25	O	1.309763	-0.340323	-0.329966
O26	O	1.643096	-0.006990	0.003368
O27	O	1.976429	0.326344	0.336701
O28	O	1.182666	-0.161760	-0.426439
O29	O	1.516000	0.171574	-0.093105
O30	O	1.849333	0.504907	0.240228
O31	O	1.086117	-0.263378	-0.202714
O32	O	1.419450	0.069955	0.130619
O33	O	1.752783	0.403289	0.463952
O34	O	0.958890	-0.263342	-0.329957
O35	O	1.292224	0.069991	0.003377
O36	O	1.625557	0.403325	0.336710
O37	O	1.086139	-0.340260	-0.553617
O38	O	1.419472	-0.006926	-0.220284
O39	O	1.752806	0.326407	0.113049
O40	O	0.958854	-0.340281	-0.426348
O41	O	1.292187	-0.006948	-0.093014
O42	O	1.625520	0.326386	0.240319
O43	O	1.182618	-0.263305	-0.553657
O44	O	1.515951	0.070029	-0.220323
O45	O	1.849284	0.403362	0.113010
O46	O	1.182429	-0.441889	-0.329914
O47	O	1.515762	-0.108556	0.003419
O48	O	1.849096	0.224778	0.336753
O49	O	1.086031	-0.441862	-0.426324
O50	O	1.419365	-0.108528	-0.092990
O51	O	1.752698	0.224805	0.240343
C52	C	0.930390	-0.301810	-0.378149
C53	C	1.263723	0.031523	-0.044816
C54	C	1.597056	0.364856	0.288517
C55	C	0.843140	-0.301821	-0.378159
C56	C	1.176473	0.031513	-0.044825
C57	C	1.509807	0.364846	0.288508
C58	C	0.802151	-0.341943	-0.428269
C59	C	1.135485	-0.008610	-0.094936
C60	C	1.468818	0.324724	0.238398
C61	C	0.720171	-0.341944	-0.428282
C62	C	1.053504	-0.008611	-0.094948
C63	C	1.386837	0.324722	0.238385
C64	C	0.679181	-0.301826	-0.378179
C65	C	1.012514	0.031507	-0.044846
C66	C	1.345847	0.364841	0.288487
C67	C	0.720175	-0.261699	-0.328067
C68	C	1.053508	0.071634	0.005267
C69	C	1.386842	0.404968	0.338600
C70	C	0.802154	-0.261695	-0.328059
C71	C	1.135487	0.071638	0.005275
C72	C	1.468821	0.404972	0.338608
C73	C	0.549305	-0.261711	-0.328086
C74	C	0.882638	0.071622	0.005248
C75	C	1.215972	0.404955	0.338581
C76	C	0.467320	-0.261716	-0.328092
C77	C	0.800654	0.071617	0.005241
C78	C	1.133987	0.404951	0.338574
C79	C	0.467322	-0.341961	-0.428309
C80	C	0.800655	-0.008627	-0.094975
C81	C	1.133989	0.324706	0.238358
C82	C	0.549301	-0.341957	-0.428301
C83	C	0.882634	-0.008623	-0.094967
C84	C	1.215967	0.324710	0.238366
C85	C	0.590290	-0.301830	-0.378187
C86	C	0.923623	0.031503	-0.044853
C87	C	1.256956	0.364836	0.288480
C88	C	1.134234	-0.464609	-0.378127
C89	C	1.467567	-0.131276	-0.044794
C90	C	1.800901	0.202057	0.288539
C91	C	1.134262	-0.534251	-0.378135
C92	C	1.467595	-0.200917	-0.044802
C93	C	1.800928	0.132416	0.288532
C94	C	1.184500	-0.566957	-0.327986
C95	C	1.517833	-0.233624	0.005347
C96	C	1.851167	0.099710	0.338681
C97	C	1.184537	-0.632392	-0.328004
C98	C	1.517870	-0.299059	0.005330
C99	C	1.851203	0.034274	0.338663
C100	C	1.134321	-0.665119	-0.378162
C101	C	1.467654	-0.331785	-0.044829
C102	C	1.800987	0.001548	0.288505
C103	C	1.084078	-0.632404	-0.428321
C104	C	1.417412	-0.299071	-0.094987
C105	C	1.750745	0.034262	0.238346
C106	C	1.084049	-0.566970	-0.428307
C107	C	1.417382	-0.233637	-0.094974
C108	C	1.750716	0.099696	0.238359
C109	C	1.063641	-0.768833	-0.384313
C110	C	1.396974	-0.435500	-0.050980
C111	C	1.730308	-0.102167	0.282353
C112	C	1.063669	-0.834266	-0.384321
C113	C	1.397003	-0.500933	-0.050988
C114	C	1.730336	-0.167599	0.282345
C115	C	1.134412	-0.866940	-0.378208
C116	C	1.467745	-0.533606	-0.044875
C117	C	1.801079	-0.200273	0.288459
C118	C	1.205129	-0.834172	-0.372070
C119	C	1.538462	-0.500839	-0.038737
C120	C	1.871795	-0.167505	0.294597
C121	C	1.205099	-0.768738	-0.372057
C122	C	1.538432	-0.435404	-0.038723
C123	C	1.871766	-0.102071	0.294610
C124	C	1.134347	-0.736071	-0.378182
C125	C	1.467681	-0.402738	-0.044849
C126	C	1.801014	-0.069405	0.288484
C127	C	1.184694	-0.970599	-0.328075
C128	C	1.518028	-0.637265	0.005258
C129	C	1.851361	-0.303932	0.338591
C130	C	1.184732	-1.036035	-0.328098
C131	C	1.518066	-0.702702	0.005235
C132	C	1.851399	-0.369369	0.338568
C133	C	1.084267	-1.036046	-0.428411
C134	C	1.417600	-0.702713	-0.095078
C135	C	1.750934	-0.369379	0.238255
C136	C	1.084236	-0.970611	-0.428392
C137	C	1.417569	-0.637277	-0.095059
C138	C	1.750903	-0.303944	0.238274
C139	C	1.134449	-0.937891	-0.378220
C140	C	1.467782	-0.604557	-0.044887
C141	C	1.801115	-0.271224	0.288446
C142	C	1.339082	-0.301833	-0.378193
C143	C	1.672415	0.031500	-0.044860
C144	C	2.005749	0.364833	0.288473
C145	C	1.426332	-0.301839	-0.378203
C146	C	1.759665	0.031495	-0.044869
C147	C	2.092998	0.364828	0.288464
C148	C	1.134385	-0.301775	-0.582915
C149	C	1.467719	0.031558	-0.249582
C150	C	1.801052	0.364891	0.083751
C151	C	1.134405	-0.301756	-0.670165
C152	C	1.467739	0.031578	-0.336832
C153	C	1.801072	0.364911	-0.003499
C154	C	1.134463	-0.138398	-0.378232
C155	C	1.467796	0.194935	-0.044899
C156	C	1.801130	0.528268	0.288435
C157	C	1.134517	-0.068757	-0.378258
C158	C	1.467850	0.264576	-0.044925
C159	C	1.801183	0.597910	0.288409
C160	C	1.184644	-0.261682	-0.711177
C161	C	1.517977	0.071651	-0.377844
C162	C	1.851310	0.404985	-0.044510
C163	C	1.184653	-0.261661	-0.793158
C164	C	1.517987	0.071672	-0.459824
C165	C	1.851320	0.405006	-0.126491
C166	C	1.134428	-0.301718	-0.834125
C167	C	1.467761	0.031616	-0.500791
C168	C	1.801094	0.364949	-0.167458
C169	C	1.084184	-0.341793	-0.793107
C170	C	1.417517	-0.008460	-0.459774
C171	C	1.750850	0.324873	-0.126441
C172	C	1.084171	-0.341811	-0.711128
C173	C	1.417504	-0.008477	-0.377795
C174	C	1.750838	0.324856	-0.044462
C175	C	1.084215	-0.341756	-0.963977
C176	C	1.417549	-0.008422	-0.630644
C177	C	1.750882	0.324911	-0.297311
C178	C	1.084229	-0.341739	-1.045962
C179	C	1.417562	-0.008406	-0.712629
C180	C	1.750896	0.324927	-0.379295
C181	C	1.184698	-0.261606	-1.046007
C182	C	1.518031	0.071727	-0.712673
C183	C	1.851364	0.405060	-0.379340
C184	C	1.184685	-0.261623	-0.964028
C185	C	1.518018	0.071710	-0.630694
C186	C	1.851352	0.405043	-0.297361
C187	C	1.134442	-0.301700	-0.923016
C188	C	1.467775	0.031633	-0.589683
C189	C	1.801108	0.364967	-0.256349
C190	C	1.134336	-0.301822	-0.174223
C191	C	1.467669	0.031511	0.159110
C192	C	1.801002	0.364844	0.492443
C193	C	1.134467	-0.301666	-0.086974
C194	C	1.467801	0.031668	0.246359
C195	C	1.801134	0.365001	0.579693
H196	H	0.582676	-0.229031	-0.287285
H197	H	0.916009	0.104303	0.046049
H198	H	1.249342	0.437636	0.379382
Br199	Br	1.301067	-0.724269	-0.363733
Br200	Br	1.634400	-0.390936	-0.030399
Br201	Br	1.967733	-0.057602	0.302934
H202	H	0.835520	-0.374614	-0.469066
H203	H	1.168853	-0.041281	-0.135732
H204	H	1.502186	0.292052	0.197601
Br205	Br	1.015933	-0.676817	-0.496399
Br206	Br	1.349267	-0.343483	-0.163066
Br207	Br	1.682600	-0.010150	0.170267
H208	H	1.043290	-0.374380	-0.930588
H209	H	1.376623	-0.041047	-0.597255
H210	H	1.709957	0.292286	-0.263921
Br211	Br	1.252856	-0.207266	-0.908429
Br212	Br	1.586189	0.126067	-0.575096
Br213	Br	1.919522	0.459401	-0.241763
Br214	Br	0.857783	-0.207237	-0.260054
Br215	Br	1.191116	0.126096	0.073280
Br216	Br	1.524449	0.459429	0.406613
H217	H	1.043383	-1.062691	-0.469255
H218	H	1.376717	-0.729358	-0.135921
H219	H	1.710050	-0.396024	0.197412
H220	H	1.225564	-0.229030	-0.826546
H221	H	1.558898	0.104303	-0.493213
H222	H	1.892231	0.437636	-0.159879
Br223	Br	1.252656	-0.522554	-0.259906
Br224	Br	1.585989	-0.189221	0.073427
Br225	Br	1.919323	0.144112	0.406760
Br226	Br	0.411691	-0.207274	-0.260090
Br227	Br	0.745024	0.126060	0.073244
Br228	Br	1.078357	0.459393	0.406577
H229	H	1.043329	-0.374356	-1.079315
H230	H	1.376663	-0.041022	-0.745982
H231	H	1.709996	0.292311	-0.412649
H232	H	0.686794	-0.229031	-0.287276
H233	H	1.020128	0.104302	0.046057
H234	H	1.353461	0.437636	0.379391
Br235	Br	1.252888	-0.207219	-1.101664
Br236	Br	1.586221	0.126114	-0.768331
Br237	Br	1.919555	0.459448	-0.434998
Br238	Br	1.301143	-0.878506	-0.363761
Br239	Br	1.634476	-0.545172	-0.030427
Br240	Br	1.967810	-0.211839	0.302906
H241	H	1.225450	-0.659027	-0.287166
H242	H	1.558783	-0.325694	0.046167
H243	H	1.892116	0.007639	0.379500
Br244	Br	0.411696	-0.396410	-0.496330
Br245	Br	0.745029	-0.063077	-0.162997
Br246	Br	1.078362	0.270257	0.170336
H247	H	1.225546	-0.229065	-0.677828
H248	H	1.558879	0.104268	-0.344494
H249	H	1.892212	0.437602	-0.011161
H250	H	1.225583	-0.943957	-0.287224
H251	H	1.558916	-0.610624	0.046109
H252	H	1.892250	-0.277290	0.379442
Br253	Br	0.967698	-0.878730	-0.392647
Br254	Br	1.301032	-0.545397	-0.059313
Br255	Br	1.634365	-0.212063	0.274020
Br256	Br	1.016015	-0.396153	-0.848705
Br257	Br	1.349348	-0.062820	-0.515371
Br258	Br	1.682681	0.270514	-0.182038
Br259	Br	1.252928	-1.080424	-0.260041
Br260	Br	1.586261	-0.747091	0.073292
Br261	Br	1.919594	-0.413758	0.406626
Br262	Br	1.016049	-0.926220	-0.496454
Br263	Br	1.349383	-0.592886	-0.163120
Br264	Br	1.682716	-0.259553	0.170213
H265	H	1.043138	-0.540340	-0.469145
H266	H	1.376471	-0.207007	-0.135812
H267	H	1.709805	0.126327	0.197521
H268	H	0.686801	-0.374617	-0.469086
H269	H	1.020135	-0.041283	-0.135752
H270	H	1.353468	0.292050	0.197581
Br271	Br	0.604931	-0.396410	-0.496290
Br272	Br	0.938264	-0.063077	-0.162956
Br273	Br	1.271597	0.270257	0.170377
H274	H	1.006029	-0.742237	-0.389295
H275	H	1.339363	-0.408904	-0.055961
H276	H	1.672696	-0.075570	0.277372
H277	H	1.043254	-0.374436	-0.677737
H278	H	1.376587	-0.041103	-0.344404
H279	H	1.709920	0.292230	-0.011071
