data_functionalizedCrystal
_audit_creation_method	'MofGen! by Chris Wilmer'
_symmetry_space_group_name_H-M	'P1'
_symmetry_Int_Tables_number	1
_symmetry_cell_setting	triclinic
loop_
_symmetry_equiv_pos_as_xyz
  x,y,z
_cell_length_a	17.038272
_cell_length_b	14.044220
_cell_length_c	13.101039
_cell_angle_alpha	93.667477
_cell_angle_beta	86.404528
_cell_angle_gamma	92.150217
loop_
_atom_site_label
_atom_site_type_symbol
_atom_site_fract_x
_atom_site_fract_y
_atom_site_fract_z
O1	O	1.055801	0.202095	-0.085089
O2	O	1.389134	0.535428	0.248244
O3	O	1.722467	0.868761	0.581577
O4	O	0.827941	0.198806	-0.085119
O5	O	1.161275	0.532139	0.248214
O6	O	1.494608	0.865473	0.581547
O7	O	0.938450	0.062191	-0.085095
O8	O	1.271784	0.395524	0.248239
O9	O	1.605117	0.728857	0.581572
O10	O	0.945292	0.338710	-0.085114
O11	O	1.278625	0.672044	0.248219
O12	O	1.611958	1.005377	0.581553
O13	O	0.930523	0.072010	0.085333
O14	O	1.263856	0.405343	0.418667
O15	O	1.597189	0.738677	0.752000
O16	O	0.820014	0.208625	0.085309
O17	O	1.153347	0.541959	0.418642
O18	O	1.486680	0.875292	0.751975
O19	O	1.047873	0.211914	0.085339
O20	O	1.381206	0.545247	0.418672
O21	O	1.714540	0.878581	0.752005
Zn22	Zn	0.932685	0.211829	0.112383
Zn23	Zn	1.266018	0.545162	0.445716
Zn24	Zn	1.599351	0.878495	0.779050
Zn25	Zn	0.943130	0.198891	-0.112163
Zn26	Zn	1.276463	0.532225	0.221170
Zn27	Zn	1.609796	0.865558	0.554503
O28	O	0.937364	0.348530	0.085314
O29	O	1.270697	0.681863	0.418647
O30	O	1.604031	1.015196	0.751981
C31	C	0.931492	0.031544	0.000119
C32	C	1.264826	0.364878	0.333453
C33	C	1.598159	0.698211	0.666786
C34	C	0.922561	-0.074402	0.000119
C35	C	1.255894	0.258932	0.333453
C36	C	1.589228	0.592265	0.666786
C37	C	0.794640	0.200726	0.000091
C38	C	1.127974	0.534059	0.333424
C39	C	1.461307	0.867393	0.666758
C40	C	0.707224	0.191806	0.000080
C41	C	1.040557	0.525140	0.333413
C42	C	1.373891	0.858473	0.666746
C43	C	0.906233	-0.268381	0.000103
C44	C	1.239567	0.064953	0.333436
C45	C	1.572900	0.398286	0.666769
C46	C	0.969578	-0.320905	0.000108
C47	C	1.302911	0.012428	0.333441
C48	C	1.636245	0.345761	0.666774
C49	C	0.960493	-0.428842	0.000098
C50	C	1.293827	-0.095509	0.333432
C51	C	1.627160	0.237825	0.666765
C52	C	0.915317	-0.160434	0.000112
C53	C	1.248650	0.172899	0.333445
C54	C	1.581984	0.506232	0.666779
C55	C	0.662839	0.273694	0.000075
C56	C	0.996172	0.607028	0.333408
C57	C	1.329506	0.940361	0.666741
C58	C	0.580701	0.265309	0.000090
C59	C	0.914034	0.598642	0.333423
C60	C	1.247368	0.931976	0.666756
C61	C	0.542950	0.175034	0.000102
C62	C	0.876283	0.508368	0.333435
C63	C	1.209617	0.841701	0.666769
C64	C	0.587341	0.093140	0.000110
C65	C	0.920675	0.426474	0.333443
C66	C	1.254008	0.759807	0.666777
C67	C	0.669477	0.101527	0.000102
C68	C	1.002811	0.434860	0.333436
C69	C	1.336144	0.768194	0.666769
C70	C	0.295118	0.145406	0.000131
C71	C	0.628451	0.478739	0.333465
C72	C	0.961785	0.812073	0.666798
C73	C	0.212976	0.137025	0.000136
C74	C	0.546309	0.470359	0.333469
C75	C	0.879643	0.803692	0.666802
C76	C	0.206341	0.309195	0.000117
C77	C	0.539675	0.642528	0.333451
C78	C	0.873008	0.975862	0.666784
C79	C	0.288480	0.317573	0.000104
C80	C	0.621813	0.650907	0.333437
C81	C	0.955146	0.984240	0.666770
C82	C	0.332863	0.235680	0.000117
C83	C	0.666197	0.569013	0.333450
C84	C	0.999530	0.902346	0.666784
C85	C	0.458992	0.166461	0.000114
C86	C	0.792326	0.499794	0.333447
C87	C	1.125659	0.833128	0.666780
C88	C	0.416819	0.244254	0.000113
C89	C	0.750153	0.577588	0.333446
C90	C	1.083486	0.910921	0.666779
C91	C	1.081174	0.209994	0.000126
C92	C	1.414508	0.543327	0.333460
C93	C	1.747841	0.876661	0.666793
C94	C	1.168591	0.218913	0.000131
C95	C	1.501924	0.552247	0.333464
C96	C	1.835258	0.885580	0.666797
C97	C	0.944322	0.379176	0.000098
C98	C	1.277656	0.712509	0.333431
C99	C	1.610989	1.045842	0.666764
C100	C	0.953254	0.485121	0.000091
C101	C	1.286587	0.818455	0.333424
C102	C	1.619921	1.151788	0.666758
N103	N	0.925562	0.220658	0.265630
N104	N	1.258895	0.553991	0.598963
N105	N	1.592229	0.887325	0.932296
N106	N	0.950258	0.190055	-0.265410
N107	N	1.283592	0.523388	0.067923
N108	N	1.616925	0.856722	0.401256
C109	C	0.915872	0.232680	0.474670
C110	C	1.249205	0.566013	0.808004
C111	C	1.582538	0.899346	1.141337
C112	C	0.959946	0.178037	0.525556
C113	C	1.293279	0.511370	0.858889
C114	C	1.626613	0.844703	1.192222
C115	C	0.954554	0.184725	0.641873
C116	C	1.287888	0.518059	0.975206
C117	C	1.621221	0.851392	1.308540
C118	C	0.921263	0.225992	0.358342
C119	C	1.254596	0.559325	0.691676
C120	C	1.587929	0.892659	1.025009
H121	H	1.030636	-0.284815	0.000047
H122	H	1.363969	0.048519	0.333380
H123	H	1.697302	0.381852	0.666714
Br124	Br	0.520466	0.376448	0.000079
Br125	Br	0.853800	0.709781	0.333413
Br126	Br	1.187133	1.043115	0.666746
H127	H	0.705615	0.034845	0.000106
H128	H	1.038948	0.368178	0.333439
H129	H	1.372282	0.701511	0.666773
Br130	Br	0.714064	0.396215	0.000047
Br131	Br	1.047398	0.729548	0.333381
Br132	Br	1.380731	1.062882	0.666714
H133	H	0.845184	-0.304474	0.000092
H134	H	1.178517	0.028860	0.333425
H135	H	1.511851	0.362193	0.666759
Br136	Br	0.339708	0.440093	0.000075
Br137	Br	0.673041	0.773426	0.333409
Br138	Br	1.006374	1.106759	0.666742
Br139	Br	0.146103	0.420330	0.000100
Br140	Br	0.479436	0.753663	0.333434
Br141	Br	0.812770	1.086997	0.666767
Br142	Br	0.161742	0.014503	0.000174
Br143	Br	0.495075	0.347836	0.333508
Br144	Br	0.828409	0.681170	0.666841
Br145	Br	1.029947	0.092120	0.452572
Br146	Br	1.363281	0.425454	0.785905
Br147	Br	1.696614	0.758787	1.119239
Br148	Br	0.355343	0.034264	0.000152
Br149	Br	0.688676	0.367597	0.333485
Br150	Br	1.022009	0.700930	0.666819
Br151	Br	0.536109	-0.029376	0.000137
Br152	Br	0.869442	0.303957	0.333470
Br153	Br	1.202775	0.637290	0.666803
H154	H	0.447559	0.317756	0.000108
H155	H	0.780893	0.651089	0.333442
H156	H	1.114226	0.984423	0.666775
Br157	Br	0.846235	0.319022	0.547654
Br158	Br	1.179569	0.652355	0.880988
Br159	Br	1.512902	0.985689	1.214321
H160	H	0.428245	0.092960	0.000153
H161	H	0.761578	0.426294	0.333486
H162	H	1.094912	0.759627	0.666819
