data_functionalizedCrystal
_audit_creation_method	'MofGen! by Chris Wilmer'
_symmetry_space_group_name_H-M	'P1'
_symmetry_Int_Tables_number	1
_symmetry_cell_setting	triclinic
loop_
_symmetry_equiv_pos_as_xyz
  x,y,z
_cell_length_a	18.101398
_cell_length_b	21.295417
_cell_length_c	18.101389
_cell_angle_alpha	90.021518
_cell_angle_beta	90.009745
_cell_angle_gamma	90.025259
loop_
_atom_site_label
_atom_site_type_symbol
_atom_site_fract_x
_atom_site_fract_y
_atom_site_fract_z
Zn1	Zn	1.132128	-0.250750	0.418535
Zn2	Zn	1.632128	0.249250	0.918535
Zn3	Zn	1.132027	-0.356003	0.294686
Zn4	Zn	1.632027	0.143997	0.794686
Zn5	Zn	1.008287	-0.250744	0.294727
Zn6	Zn	1.508287	0.249256	0.794727
Zn7	Zn	1.008241	-0.355977	0.418506
Zn8	Zn	1.508241	0.144023	0.918506
O9	O	1.070171	-0.303369	0.356614
O10	O	1.570171	0.196631	0.856614
O11	O	1.235748	-0.264726	0.402101
O12	O	1.735748	0.235274	0.902101
O13	O	1.115590	-0.342049	0.191059
O14	O	1.615590	0.157951	0.691059
O15	O	1.024776	-0.162655	0.311179
O16	O	1.524776	0.337345	0.811179
O17	O	1.235673	-0.342055	0.311110
O18	O	1.735673	0.157945	0.811110
O19	O	1.115762	-0.162660	0.402140
O20	O	1.615762	0.337340	0.902140
O21	O	1.024678	-0.264715	0.191089
O22	O	1.524678	0.235285	0.691089
O23	O	0.904648	-0.264690	0.311152
O24	O	1.404648	0.235310	0.811152
O25	O	1.024698	-0.342010	0.522143
O26	O	1.524698	0.157990	1.022143
O27	O	0.904614	-0.342004	0.402092
O28	O	1.404614	0.157996	0.902092
O29	O	1.115717	-0.264700	0.522164
O30	O	1.615717	0.235300	1.022164
O31	O	1.115545	-0.444089	0.311083
O32	O	1.615545	0.055911	0.811083
O33	O	1.024600	-0.444070	0.402053
O34	O	1.524600	0.055930	0.902053
C35	C	0.877760	-0.303344	0.356624
C36	C	1.377760	0.196656	0.856624
C37	C	0.795446	-0.303348	0.356646
C38	C	1.295446	0.196652	0.856646
C39	C	0.496355	-0.303385	0.356615
C40	C	0.996355	0.196615	0.856615
C41	C	0.527684	-0.352265	0.413550
C42	C	1.027684	0.147735	0.913550
C43	C	0.613302	-0.352112	0.413784
C44	C	1.113302	0.147888	0.913784
C45	C	0.644738	-0.303368	0.356630
C46	C	1.144738	0.196632	0.856630
C47	C	0.613681	-0.237068	0.377962
C48	C	1.113681	0.262932	0.877962
C49	C	0.528036	-0.237361	0.378367
C50	C	1.028036	0.262639	0.878367
C51	C	0.527903	-0.320222	0.278211
C52	C	1.027903	0.179778	0.778211
C53	C	0.613553	-0.321676	0.278630
C54	C	1.113553	0.178324	0.778630
C55	C	0.728597	-0.303353	0.356638
C56	C	1.228597	0.196647	0.856638
C57	C	0.412496	-0.303395	0.356609
C58	C	0.912496	0.196605	0.856609
C59	C	1.070076	-0.466920	0.356576
C60	C	1.570076	0.033080	0.856576
C61	C	1.070104	-0.536888	0.356585
C62	C	1.570104	-0.036888	0.856585
C63	C	1.117453	-0.569700	0.403982
C64	C	1.617453	-0.069700	0.903982
C65	C	1.117479	-0.635443	0.404000
C66	C	1.617479	-0.135443	0.904000
C67	C	1.070164	-0.668371	0.356608
C68	C	1.570164	-0.168371	0.856608
C69	C	1.022806	-0.635551	0.309208
C70	C	1.522806	-0.135551	0.809208
C71	C	1.022776	-0.569810	0.309196
C72	C	1.522776	-0.069810	0.809196
N73	N	1.064571	-0.771624	0.291797
N74	N	1.564571	-0.271624	0.791797
N75	N	1.064604	-0.834075	0.291810
N76	N	1.564604	-0.334075	0.791810
C77	C	1.070250	-0.866445	0.356642
C78	C	1.570250	-0.366445	0.856642
N79	N	1.075877	-0.834005	0.421461
N80	N	1.575877	-0.334005	0.921461
N81	N	1.075848	-0.771548	0.421447
N82	N	1.575848	-0.271548	0.921447
C83	C	1.070191	-0.739656	0.356616
C84	C	1.570191	-0.239656	0.856616
C85	C	1.117630	-0.970543	0.404063
C86	C	1.617630	-0.470543	0.904063
C87	C	1.117651	-1.036286	0.404082
C88	C	1.617651	-0.536286	0.904082
C89	C	1.022982	-1.036394	0.309283
C90	C	1.522982	-0.536394	0.809283
C91	C	1.022957	-0.970651	0.309270
C92	C	1.522957	-0.470651	0.809270
C93	C	1.070285	-0.937730	0.356659
C94	C	1.570285	-0.437730	0.856659
C95	C	1.263333	-0.303394	0.356604
C96	C	1.763333	0.196606	0.856604
C97	C	1.345647	-0.303405	0.356600
C98	C	1.845647	0.196595	0.856600
C99	C	1.070214	-0.303353	0.549776
C100	C	1.570214	0.196647	1.049776
C101	C	1.070232	-0.303346	0.632090
C102	C	1.570232	0.196654	1.132090
C103	C	1.070286	-0.139178	0.356668
C104	C	1.570286	0.360822	0.856668
C105	C	1.070335	-0.069210	0.356690
C106	C	1.570335	0.430790	0.856690
C107	C	1.070171	-0.303339	0.164203
C108	C	1.570171	0.196661	0.664203
C109	C	1.070296	-0.303168	0.081890
C110	C	1.570296	0.196832	0.581890
C111	C	1.070275	-0.303228	0.931181
C112	C	1.570275	0.196772	1.431181
C113	C	1.012811	-0.351714	0.899843
C114	C	1.512811	0.148286	1.399843
C115	C	1.012966	-0.351939	0.814224
C116	C	1.512966	0.148061	1.314224
C117	C	1.070253	-0.303286	0.782798
C118	C	1.570253	0.196714	1.282798
C119	C	1.148279	-0.321298	0.813883
C120	C	1.648279	0.178702	1.313883
C121	C	1.147959	-0.321617	0.899528
C122	C	1.647959	0.178383	1.399528
C123	C	1.050392	-0.236622	0.899615
C124	C	1.550392	0.263378	1.399615
C125	C	1.048656	-0.237006	0.813964
C126	C	1.548656	0.262994	1.313964
C127	C	1.070245	-0.303318	0.698939
C128	C	1.570245	0.196682	1.198939
C129	C	1.070288	-0.303197	1.015041
C130	C	1.570288	0.196803	1.515041
H131	H	0.633804	-0.340973	0.471876
H132	H	1.133804	0.159027	0.971876
H133	H	1.165426	-0.369471	0.792433
H134	H	1.665426	0.130529	1.292433
C135	C	1.217217	-0.896543	0.414422
C136	C	1.717217	-0.396543	0.914422
C137	C	1.169646	-0.934353	0.456159
C138	C	1.669646	-0.434353	0.956159
H139	H	1.249331	-0.874207	0.446586
H140	H	1.749331	-0.374207	0.946586
H141	H	1.189018	-0.867591	0.386195
H142	H	1.689018	-0.367591	0.886195
H143	H	1.245572	-0.922193	0.382186
H144	H	1.745572	-0.422193	0.882186
H145	H	1.141287	-0.908703	0.488392
H146	H	1.641287	-0.408703	0.988392
H147	H	1.197848	-0.963309	0.484398
H148	H	1.697848	-0.463309	0.984398
H149	H	1.026093	-0.401310	0.793736
H150	H	1.526093	0.098690	1.293736
H151	H	0.984280	-0.662365	0.270623
H152	H	1.484280	-0.162365	0.770623
H153	H	0.984404	-0.943934	0.270672
H154	H	1.484404	-0.443934	0.770672
H155	H	0.955107	-0.340667	0.793207
H156	H	1.455107	0.159333	1.293207
H157	H	1.164814	-0.370307	0.919504
H158	H	1.664814	0.129693	1.419504
H159	H	0.508075	-0.223080	0.435684
H160	H	1.008075	0.276920	0.935684
H161	H	0.633859	-0.370463	0.262542
H162	H	1.133859	0.129537	0.762542
H163	H	0.991235	-0.223423	0.793648
H164	H	1.491235	0.276577	1.293648
H165	H	1.192225	-0.287834	0.920259
H166	H	1.692225	0.212166	1.420259
C167	C	1.153955	-0.212732	0.738546
C168	C	1.653955	0.287268	1.238546
C169	C	1.101039	-0.185646	0.785098
C170	C	1.601039	0.314354	1.285098
H171	H	1.186301	-0.181025	0.720732
H172	H	1.686301	0.318975	1.220732
H173	H	1.129935	-0.232429	0.698037
H174	H	1.629935	0.267571	1.198037
H175	H	1.181523	-0.243105	0.765303
H176	H	1.681523	0.256895	1.265303
H177	H	1.073466	-0.155277	0.758340
H178	H	1.573466	0.344723	1.258340
H179	H	1.125061	-0.165939	0.825613
H180	H	1.625061	0.334061	1.325613
H181	H	1.192244	-0.287093	0.793528
H182	H	1.692244	0.212907	1.293528
C183	C	0.929203	-0.576521	0.215494
C184	C	1.429203	-0.076521	0.715494
C185	C	0.970730	-0.533739	0.257089
C186	C	1.470730	-0.033739	0.757089
H187	H	0.897077	-0.554250	0.183321
H188	H	1.397077	-0.054250	0.683321
H189	H	0.900867	-0.602164	0.247744
H190	H	1.400867	-0.102164	0.747744
H191	H	0.961503	-0.602156	0.187198
H192	H	1.461503	-0.102156	0.687198
H193	H	0.938430	-0.508107	0.285389
H194	H	1.438430	-0.008107	0.785389
H195	H	0.999068	-0.508085	0.224835
H196	H	1.499068	-0.008085	0.724835
H197	H	1.155988	-0.542897	0.442571
H198	H	1.655988	-0.042897	0.942571
C199	C	0.945282	-0.260395	0.975516
C200	C	1.445282	0.239605	1.475516
C201	C	0.974921	-0.214465	0.928776
C202	C	1.474921	0.285535	1.428776
H203	H	0.898688	-0.246720	0.993518
H204	H	1.398688	0.253280	1.493518
H205	H	0.977843	-0.267143	1.015891
H206	H	1.477843	0.232857	1.515891
H207	H	0.939205	-0.298469	0.948833
H208	H	1.439205	0.201531	1.448833
H209	H	0.981003	-0.176392	0.955461
H210	H	1.481003	0.323608	1.455461
H211	H	0.942352	-0.207709	0.888395
H212	H	1.442352	0.292291	1.388395
H213	H	0.507644	-0.284618	0.235790
H214	H	1.007644	0.215382	0.735790
H215	H	1.156208	-1.063001	0.442682
H216	H	1.656208	-0.563001	0.942682
H217	H	0.984452	-1.063203	0.270700
H218	H	1.484452	-0.563203	0.770700
C219	C	1.211051	-0.628740	0.497706
C220	C	1.711051	-0.128740	0.997706
C221	C	1.169522	-0.671519	0.456110
C222	C	1.669522	-0.171519	0.956110
H223	H	1.243179	-0.651012	0.529875
H224	H	1.743179	-0.151012	1.029875
H225	H	1.178757	-0.603107	0.525999
H226	H	1.678757	-0.103107	1.025999
H227	H	1.239391	-0.603095	0.465451
H228	H	1.739391	-0.103095	0.965451
H229	H	1.141177	-0.697162	0.488364
H230	H	1.641177	-0.197162	0.988364
H231	H	1.201820	-0.697163	0.427814
H232	H	1.701820	-0.197163	0.927814
C233	C	0.459391	-0.376713	0.186038
C234	C	0.959391	0.123287	0.686038
C235	C	0.498721	-0.384366	0.252038
C236	C	0.998721	0.115634	0.752038
H237	H	0.441372	-0.416315	0.169891
H238	H	0.941372	0.083685	0.669891
H239	H	0.491101	-0.359587	0.149411
H240	H	0.991101	0.140413	0.649411
H241	H	0.419020	-0.349053	0.194055
H242	H	0.919020	0.150947	0.694055
H243	H	0.539095	-0.412022	0.244019
H244	H	1.039095	0.087978	0.744019
H245	H	0.467009	-0.401501	0.288673
H246	H	0.967009	0.098499	0.788673
H247	H	0.954777	-0.340558	0.920444
H248	H	1.454777	0.159442	1.420444
H249	H	1.025808	-0.400784	0.921362
H250	H	1.525808	0.099216	1.421362
H251	H	1.092246	-0.200497	0.919882
H252	H	1.592246	0.299503	1.419882
H253	H	0.635146	-0.222528	0.434656
H254	H	1.135146	0.277472	0.934656
H255	H	0.634299	-0.401277	0.400413
H256	H	1.134299	0.098723	0.900413
H257	H	0.507070	-0.401591	0.400329
H258	H	1.007070	0.098409	0.900329
H259	H	0.506173	-0.341268	0.471306
H260	H	1.006173	0.158732	0.971306
H261	H	0.634952	-0.288659	0.233931
H262	H	1.134952	0.211341	0.733931
C263	C	0.422699	-0.186265	0.324702
C264	C	0.922699	0.313735	0.824702
C265	C	0.500054	-0.186513	0.324859
C266	C	1.000054	0.313487	0.824859
H267	H	0.405428	-0.154869	0.291675
H268	H	0.905428	0.345131	0.791675
H269	H	0.405166	-0.177586	0.373093
H270	H	0.905166	0.322414	0.873093
H271	H	0.405044	-0.226171	0.309221
H272	H	0.905044	0.273829	0.809221
H273	H	0.517709	-0.146608	0.340346
H274	H	1.017709	0.353392	0.840346
H275	H	0.517594	-0.195187	0.276458
H276	H	1.017594	0.304813	0.776458
C277	C	0.686485	-0.214475	0.270334
C278	C	1.186485	0.285525	0.770334
C279	C	0.641173	-0.186567	0.323736
C280	C	1.141173	0.313433	0.823736
H281	H	0.703461	-0.183296	0.236860
H282	H	1.203461	0.316704	0.736860
H283	H	0.659131	-0.245350	0.244112
H284	H	1.159131	0.254650	0.744112
H285	H	0.727601	-0.233696	0.293813
H286	H	1.227601	0.266304	0.793813
H287	H	0.600054	-0.167349	0.300257
H288	H	1.100054	0.332651	0.800257
H289	H	0.668528	-0.155680	0.349961
H290	H	1.168528	0.344320	0.849961
