data_functionalizedCrystal
_audit_creation_method	'MofGen! by Chris Wilmer'
_symmetry_space_group_name_H-M	'P1'
_symmetry_Int_Tables_number	1
_symmetry_cell_setting	triclinic
loop_
_symmetry_equiv_pos_as_xyz
  x,y,z
_cell_length_a	12.811457
_cell_length_b	12.837942
_cell_length_c	16.053802
_cell_angle_alpha	92.838962
_cell_angle_beta	92.831403
_cell_angle_gamma	89.411937
loop_
_atom_site_label
_atom_site_type_symbol
_atom_site_fract_x
_atom_site_fract_y
_atom_site_fract_z
O1	O	1.404505	0.141985	0.036916
O2	O	1.101762	0.155741	0.013991
O3	O	1.246420	-0.002100	0.024950
O4	O	1.259846	0.299826	0.025957
O5	O	1.238454	0.006551	0.163206
O6	O	1.093796	0.164393	0.152247
O7	O	1.396539	0.150637	0.175171
Zn8	Zn	1.243902	0.158888	0.185660
Zn9	Zn	1.254398	0.147489	0.003502
O10	O	1.251880	0.308478	0.164212
C11	C	1.058760	0.159031	0.080164
C12	C	0.942495	0.155932	0.071361
C13	C	1.237901	-0.036436	0.093734
C14	C	1.224375	-0.151636	0.092708
C15	C	0.715334	0.159522	0.205560
C16	C	0.606093	0.156610	0.197293
C17	C	0.614769	0.147189	0.046558
C18	C	0.724010	0.150101	0.054826
C19	C	0.774289	0.156269	0.134330
C20	C	0.883532	0.159188	0.142597
C21	C	0.892206	0.149759	-0.008137
C22	C	0.782965	0.146847	-0.016405
C23	C	1.386995	-0.391121	0.105005
C24	C	1.374290	-0.499362	0.104042
C25	C	1.186261	-0.476362	0.089812
C26	C	1.198966	-0.368121	0.090776
C27	C	1.299336	-0.325505	0.098374
C28	C	1.312040	-0.217261	0.099343
C29	C	1.124012	-0.194263	0.085108
C30	C	1.111307	-0.302504	0.084144
C31	C	1.439541	0.147347	0.108996
C32	C	1.555806	0.150445	0.117794
C33	C	1.260399	0.342814	0.095426
C34	C	1.273926	0.458013	0.096447
N35	N	1.236747	0.166668	0.309978
N36	N	1.261561	0.139702	-0.120815
C37	C	1.298327	0.099530	0.358337
C38	C	1.293332	0.104982	0.445366
C39	C	1.226763	0.177576	0.484034
C40	C	1.165176	0.244717	0.435668
C41	C	1.170166	0.239259	0.348641
C42	C	1.204964	0.201385	0.743792
C43	C	1.199981	0.206839	0.830826
C44	C	1.328136	0.067102	0.840517
C45	C	1.333125	0.061656	0.753488
C46	C	1.271534	0.128792	0.705130
N47	N	1.221658	0.183153	0.572991
N48	N	1.276634	0.123210	0.616174
H49	H	0.756271	0.164558	0.270295
H50	H	0.558095	0.159265	0.255296
H51	H	1.052633	-0.140825	0.079715
H52	H	1.120020	0.293928	0.309267
O53	O	0.566026	0.141339	-0.030707
C54	C	0.537030	0.222161	-0.162261
C55	C	0.592317	0.228899	-0.074792
H56	H	0.558248	0.292955	-0.197922
H57	H	0.563008	0.147981	-0.197688
H58	H	0.448833	0.220588	-0.155902
H59	H	0.680522	0.230514	-0.081075
H60	H	0.566253	0.303069	-0.039396
O61	O	1.397632	-0.009200	0.716141
C62	C	1.442181	-0.190858	0.693423
C63	C	1.369057	-0.110604	0.735627
H64	H	1.419119	-0.272860	0.709175
H65	H	1.435352	-0.183625	0.622868
H66	H	1.526266	-0.175489	0.717030
H67	H	1.284942	-0.125923	0.712087
H68	H	1.375976	-0.117856	0.806177
O69	O	1.145106	0.266712	0.696951
C70	C	1.017426	0.405849	0.696528
C71	C	1.085178	0.331941	0.749680
H72	H	0.968941	0.458590	0.739135
H73	H	1.070005	0.455637	0.659594
H74	H	0.963119	0.357975	0.651490
H75	H	1.139495	0.379732	0.794764
H76	H	1.032537	0.282150	0.786556
O77	O	1.459355	-0.563202	0.110590
C78	C	1.550048	-0.694236	0.189412
C79	C	1.453645	-0.622008	0.182088
H80	H	1.545474	-0.741783	0.247225
H81	H	1.552134	-0.749171	0.131497
H82	H	1.623950	-0.645160	0.194965
H83	H	1.379691	-0.671000	0.176561
H84	H	1.451652	-0.567068	0.240006
H85	H	0.940219	0.147117	-0.066138
H86	H	0.742013	0.141820	-0.081134
O87	O	1.100447	0.315097	0.473317
C88	C	0.954191	0.341963	0.560914
C89	C	1.027436	0.262144	0.518341
H90	H	0.895130	0.299180	0.597312
H91	H	1.002091	0.396775	0.605502
H92	H	0.911082	0.389031	0.511389
H93	H	1.070562	0.215003	0.567808
H94	H	0.979480	0.207402	0.473737
O95	O	1.409611	-0.176035	0.106687
C96	C	1.594765	-0.210275	0.120735
C97	C	1.484325	-0.257098	0.112408
H98	H	1.655201	-0.275792	0.125380
H99	H	1.608807	-0.163830	0.063672
H100	H	1.602040	-0.156524	0.179384
H101	H	1.476973	-0.310895	0.053792
H102	H	1.470333	-0.303482	0.169513
O103	O	1.484564	-0.349891	0.112355
C104	C	1.669720	-0.384120	0.126421
C105	C	1.559283	-0.430950	0.118084
H106	H	1.730159	-0.449633	0.131073
H107	H	1.683767	-0.337676	0.069358
H108	H	1.676983	-0.330366	0.185068
H109	H	1.551942	-0.484750	0.059470
H110	H	1.545285	-0.477332	0.175189
H111	H	0.924467	0.164217	0.207333
O112	O	1.088831	-0.517903	0.082322
C113	C	0.969486	-0.631202	0.001314
C114	C	1.079867	-0.584248	0.009706
H115	H	0.962196	-0.684835	-0.057402
H116	H	0.955491	-0.677765	0.058323
H117	H	0.909022	-0.565697	-0.003219
H118	H	1.140400	-0.649687	0.014214
H119	H	1.093773	-0.537659	-0.047305
O120	O	1.013885	-0.344075	0.076809
C121	C	0.910981	-0.500635	0.068970
C122	C	1.021371	-0.453697	0.077298
H123	H	0.916998	-0.589271	0.069345
H124	H	0.863769	-0.470142	0.123526
H125	H	0.870451	-0.477232	0.007807
H126	H	1.061992	-0.477080	0.138428
H127	H	1.068507	-0.484188	0.022698
O128	O	1.363016	0.028919	0.320910
C129	C	1.489641	-0.109066	0.339721
C130	C	1.416409	-0.029161	0.382210
H131	H	1.532845	-0.156030	0.389264
H132	H	1.441728	-0.163959	0.295210
H133	H	1.548620	-0.066305	0.303228
H134	H	1.357416	-0.071835	0.418747
H135	H	1.464391	0.025729	0.426673
H136	H	1.343474	0.050313	0.484739
H137	H	1.378279	0.012442	0.879898
H138	H	1.145770	0.265959	0.862305
