data_functionalizedCrystal
_audit_creation_method	'MofGen! by Chris Wilmer'
_symmetry_space_group_name_H-M	'P1'
_symmetry_Int_Tables_number	1
_symmetry_cell_setting	triclinic
loop_
_symmetry_equiv_pos_as_xyz
  x,y,z
_cell_length_a	34.571875
_cell_length_b	34.571051
_cell_length_c	34.567439
_cell_angle_alpha	60.004367
_cell_angle_beta	60.008842
_cell_angle_gamma	59.994195
loop_
_atom_site_label
_atom_site_type_symbol
_atom_site_fract_x
_atom_site_fract_y
_atom_site_fract_z
O1	O	0.053721	-0.565181	0.472559
O2	O	0.020283	-0.440038	0.380761
O3	O	0.099534	-0.519209	0.380676
O4	O	-0.025530	-0.486010	0.472643
O5	O	0.125831	-0.492917	0.406885
O6	O	0.046580	-0.413746	0.406969
O7	O	0.080018	-0.538889	0.498767
Zn8	Zn	0.067475	-0.472143	0.457030
Zn9	Zn	0.032827	-0.506784	0.422498
O10	O	0.000767	-0.459718	0.498852
N11	N	0.091122	-0.448505	0.480598
N12	N	0.009184	-0.530426	0.398930
C13	C	0.124402	-0.415465	0.717633
C14	C	0.328327	-0.415388	0.513477
C15	C	0.124221	-0.415437	0.513630
C16	C	0.124201	-0.211364	0.513624
C17	C	0.157075	-0.309853	0.546423
C18	C	0.157084	-0.382601	0.546423
C19	C	0.175289	-0.364414	0.564591
C20	C	0.254624	-0.350722	0.522790
C21	C	0.304220	-0.367243	0.506229
C22	C	0.304249	-0.447494	0.536832
C23	C	0.254655	-0.430972	0.553394
C24	C	0.169014	-0.285043	0.497667
C25	C	0.152454	-0.235444	0.481153
C26	C	0.112020	-0.235469	0.562154
C27	C	0.128580	-0.285068	0.578668
C28	C	0.108321	-0.370634	0.558439
C29	C	0.091776	-0.387168	0.541918
C30	C	0.172754	-0.427637	0.501375
C31	C	0.189301	-0.411103	0.517891
C32	C	0.108399	-0.370649	0.643978
C33	C	0.091911	-0.387197	0.693575
C34	C	0.172928	-0.427676	0.693511
C35	C	0.189415	-0.411128	0.643912
C36	C	0.157149	-0.382613	0.619147
C37	C	0.229844	-0.382585	0.546371
C38	C	0.105624	-0.433333	0.772186
C39	C	0.382878	-0.432925	0.495007
C40	C	0.105380	-0.433313	0.495792
C41	C	0.105683	-0.156808	0.496094
C42	C	-0.023527	-0.563458	0.161535
C43	C	-0.023851	-0.767445	0.365663
C44	C	-0.023821	-0.563448	0.365756
C45	C	-0.227785	-0.563229	0.365355
C46	C	-0.129302	-0.596153	0.332678
C47	C	-0.056593	-0.596234	0.332823
C48	C	-0.074746	-0.614396	0.314578
C49	C	-0.088477	-0.693710	0.356299
C50	C	-0.071982	-0.743310	0.372851
C51	C	0.008266	-0.743392	0.342376
C52	C	-0.008230	-0.693794	0.325823
C53	C	-0.154162	-0.608103	0.381422
C54	C	-0.203757	-0.591517	0.397874
C55	C	-0.203630	-0.551037	0.316836
C56	C	-0.154034	-0.567623	0.300384
C57	C	-0.068543	-0.547475	0.320829
C58	C	-0.052041	-0.530969	0.337421
C59	C	-0.011639	-0.611977	0.377990
C60	C	-0.028141	-0.628485	0.361404
C61	C	-0.068417	-0.547482	0.235199
C62	C	-0.051814	-0.530977	0.185602
C63	C	-0.011349	-0.611990	0.185649
C64	C	-0.027951	-0.628493	0.235248
C65	C	-0.056486	-0.596238	0.260022
C66	C	-0.056602	-0.668955	0.332787
C67	C	-0.005599	-0.544662	0.106983
C68	C	-0.006342	-0.821999	0.384121
C69	C	-0.005979	-0.544649	0.383673
C70	C	-0.282336	-0.544682	0.382817
N71	N	0.427518	-0.448428	0.480350
O72	O	0.589573	-0.456297	0.363634
O73	O	0.589761	-0.548399	0.488643
O74	O	0.589681	-0.548188	0.409364
O75	O	0.589654	-0.456508	0.442913
O76	O	0.510890	-0.521988	0.435708
O77	O	0.510970	-0.522199	0.514987
O78	O	0.510782	-0.430098	0.389978
Zn79	Zn	0.498366	-0.471989	0.456665
Zn80	Zn	0.602177	-0.506508	0.421956
O81	O	0.510862	-0.430308	0.469257
N82	N	0.673025	-0.530068	0.398267
N83	N	0.091092	-0.112167	0.480590
O84	O	-0.025539	0.049976	0.472612
O85	O	0.099472	0.050011	0.380491
O86	O	0.020155	0.049979	0.380751
O87	O	0.053778	0.050009	0.472352
O88	O	0.046458	-0.028818	0.407008
O89	O	0.125775	-0.028785	0.406748
O90	O	0.000764	-0.028821	0.498869
Zn91	Zn	0.067445	-0.041314	0.456977
Zn92	Zn	0.032791	0.062504	0.422382
O93	O	0.080081	-0.028788	0.498609
N94	N	0.009138	0.133358	0.398771
N95	N	0.091421	-0.448552	0.816827
O96	O	0.083469	-0.565164	0.978960
O97	O	-0.008614	-0.440110	0.979002
O98	O	-0.008399	-0.519410	0.978978
O99	O	0.083253	-0.485863	0.978984
O100	O	0.017837	-0.493128	0.900185
O101	O	0.017621	-0.413827	0.900208
O102	O	0.109704	-0.538881	0.900167
Zn103	Zn	0.067828	-0.472181	0.887677
Zn104	Zn	0.033262	-0.506810	0.991491
O105	O	0.109489	-0.459581	0.900191
N106	N	0.009668	-0.530444	1.062341
C107	C	0.030297	-0.411123	0.381218
C108	C	0.128439	-0.509167	0.381113
C109	C	0.070004	-0.567805	0.498310
C110	C	-0.028138	-0.469761	0.498415
C111	C	0.550388	-0.547982	0.517564
C112	C	0.550290	-0.547721	0.419387
C113	C	0.550153	-0.430514	0.361058
C114	C	0.550253	-0.430775	0.459234
C115	C	0.128339	0.010714	0.380902
C116	C	0.030148	0.010577	0.381256
C117	C	-0.028136	0.010574	0.498426
C118	C	0.070089	0.010613	0.498104
C119	C	-0.008178	-0.411214	0.939610
C120	C	-0.007906	-0.509413	0.939566
C121	C	0.109268	-0.567777	0.939558
C122	C	0.109002	-0.469572	0.939586
H123	H	0.082121	-0.347425	0.623816
H124	H	0.077290	0.010621	0.526881
H125	H	0.023152	-0.375173	0.352387
O126	O	-0.042624	-0.368349	0.939646
C127	C	-0.064643	-0.290291	0.939640
C128	C	-0.025596	-0.338817	0.939611
H129	H	-0.050888	-0.266398	0.939602
H130	H	-0.096948	-0.295244	0.972625
H131	H	-0.074994	-0.273296	0.906676
H132	H	-0.015205	-0.355839	0.972553
H133	H	0.006683	-0.333834	0.906604
H134	H	0.022945	0.010574	0.352477
O135	O	-0.071001	0.010653	0.532885
C136	C	-0.155286	0.051453	0.555785
C137	C	-0.106771	0.051424	0.516724
H138	H	-0.184220	0.084407	0.542730
H139	H	-0.155352	0.051492	0.588779
H140	H	-0.162204	0.018456	0.564756
H141	H	-0.099822	0.084415	0.507712
H142	H	-0.106728	0.051360	0.483755
H143	H	0.077150	-0.603753	0.527142
O144	O	-0.042184	-0.518030	0.939502
C145	C	-0.063839	-0.574305	0.939456
C146	C	-0.024973	-0.564606	0.939516
H147	H	-0.049941	-0.611965	0.939477
H148	H	-0.074180	-0.548093	0.906467
H149	H	-0.096185	-0.570045	0.972417
H150	H	0.007398	-0.568873	0.906578
H151	H	-0.014672	-0.590817	0.972527
H152	H	0.138179	-0.603691	0.939539
H153	H	0.164358	-0.516243	0.352233
H154	H	0.550436	-0.576894	0.553469
O155	O	0.044536	-0.375505	0.717618
C156	C	-0.034079	-0.333622	0.712442
C157	C	0.019558	-0.346819	0.685154
H158	H	-0.054290	-0.310436	0.686207
H159	H	-0.043849	-0.313406	0.735649
H160	H	-0.043806	-0.367290	0.735678
H161	H	0.029324	-0.313176	0.661892
H162	H	0.029299	-0.367054	0.661977
O163	O	0.204336	-0.455379	0.717491
C164	C	0.286435	-0.493745	0.712186
C165	C	0.250916	-0.462377	0.684969
H166	H	0.324104	-0.499404	0.685904
H167	H	0.280786	-0.529449	0.735392
H168	H	0.280707	-0.475573	0.735416
H169	H	0.256623	-0.480506	0.661714
H170	H	0.256575	-0.426674	0.661793
O171	O	-0.071009	-0.461239	0.532824
C172	C	-0.149036	-0.405123	0.554739
C173	C	-0.100505	-0.414708	0.515731
H174	H	-0.172900	-0.367507	0.540930
H175	H	-0.144091	-0.409363	0.587041
H176	H	-0.166056	-0.431424	0.565114
H177	H	-0.083458	-0.388416	0.505316
H178	H	-0.105481	-0.410485	0.483455
H179	H	0.137795	-0.462392	0.939581
O180	O	-0.102938	-0.767357	0.395634
C181	C	-0.125678	-0.823304	0.396421
C182	C	-0.090579	-0.796105	0.370558
H183	H	-0.115693	-0.846561	0.376164
H184	H	-0.163080	-0.797025	0.398532
H185	H	-0.124227	-0.846487	0.433739
H186	H	-0.091988	-0.772922	0.333229
H187	H	-0.053193	-0.822410	0.368485
H188	H	0.082085	-0.347427	0.581670
O189	O	0.044392	-0.375521	0.553653
C190	C	-0.034186	-0.333626	0.595599
C191	C	0.019463	-0.346786	0.582352
H192	H	-0.054356	-0.310383	0.618795
H193	H	-0.043949	-0.367277	0.615820
H194	H	-0.043968	-0.313447	0.561954
H195	H	0.029284	-0.366953	0.615971
H196	H	0.029197	-0.313118	0.562112
H197	H	0.550303	-0.576522	0.412207
H198	H	0.229113	-0.420876	0.623698
H199	H	0.550247	-0.401977	0.466412
O200	O	0.204115	-0.455304	0.473651
C201	C	0.286185	-0.493724	0.435208
C202	C	0.250719	-0.462380	0.466602
H203	H	0.323872	-0.499463	0.429508
H204	H	0.280474	-0.475552	0.399525
H205	H	0.280460	-0.529393	0.453380
H206	H	0.256422	-0.426705	0.448472
H207	H	0.256439	-0.480589	0.502283
H208	H	0.550093	-0.401597	0.325157
O209	O	0.171121	0.010925	0.346372
C210	C	0.255469	-0.029504	0.323168
C211	C	0.207050	-0.029794	0.362314
H212	H	0.284530	-0.062427	0.336039
H213	H	0.262253	0.003529	0.314320
H214	H	0.255463	-0.029414	0.290146
H215	H	0.207021	-0.029902	0.395360
H216	H	0.200285	-0.062825	0.371121
O217	O	0.230655	-0.461987	0.576272
C218	C	0.235920	-0.543333	0.604899
C219	C	0.263158	-0.508259	0.578972
H220	H	0.262187	-0.580753	0.607099
H221	H	0.212689	-0.533415	0.584642
H222	H	0.212715	-0.541798	0.642184
H223	H	0.286389	-0.509776	0.541687
H224	H	0.286360	-0.518189	0.599265
H225	H	0.229008	-0.420842	0.508101
H226	H	0.324395	-0.341295	0.487026
O227	O	0.328377	-0.494482	0.543564
C228	C	0.384385	-0.554478	0.506999
C229	C	0.357082	-0.501254	0.499306
H230	H	0.407607	-0.559969	0.471223
H231	H	0.358177	-0.574438	0.526671
H232	H	0.407609	-0.568428	0.528804
H233	H	0.333857	-0.487261	0.477490
H234	H	0.383315	-0.481326	0.479655
O235	O	-0.227836	-0.603188	0.445243
C236	C	-0.222731	-0.645075	0.523888
C237	C	-0.195404	-0.631898	0.470258
H238	H	-0.196522	-0.668281	0.544128
H239	H	-0.245942	-0.665265	0.533624
H240	H	-0.245966	-0.611400	0.533615
H241	H	-0.172144	-0.665548	0.460492
H242	H	-0.172224	-0.611690	0.460551
H243	H	0.192214	-0.305222	0.471410
O244	O	0.230598	-0.303707	0.515947
C245	C	0.235807	-0.225849	0.483816
C246	C	0.263076	-0.279083	0.491545
H247	H	0.262053	-0.205924	0.464078
H248	H	0.212625	-0.220302	0.519572
H249	H	0.212549	-0.211908	0.462049
H250	H	0.286360	-0.293060	0.513296
H251	H	0.286228	-0.284599	0.455773
O252	O	0.164028	-0.211391	0.433778
C253	C	0.160156	-0.196175	0.359521
C254	C	0.147027	-0.223452	0.413163
H255	H	0.146407	-0.205908	0.342840
H256	H	0.200310	-0.205921	0.342747
H257	H	0.143440	-0.156470	0.353269
H258	H	0.163710	-0.263162	0.419457
H259	H	0.106868	-0.213666	0.429910
O260	O	0.084332	-0.211463	0.593539
C261	C	0.046012	-0.216721	0.675624
C262	C	0.077363	-0.243965	0.640133
H263	H	0.040376	-0.242987	0.713304
H264	H	0.010299	-0.193524	0.669979
H265	H	0.064182	-0.193477	0.669861
H266	H	0.059235	-0.267234	0.645875
H267	H	0.113074	-0.267132	0.645788
H268	H	0.118851	-0.305270	0.618371
O269	O	-0.063473	-0.483597	0.161568
C270	C	-0.105347	-0.404987	0.166760
C271	C	-0.092189	-0.458631	0.194039
H272	H	-0.128557	-0.384786	0.193002
H273	H	-0.125524	-0.395182	0.143500
H274	H	-0.071668	-0.395278	0.143579
H275	H	-0.125843	-0.468378	0.217247
H276	H	-0.071994	-0.468406	0.217270
H277	H	0.011877	-0.638258	0.165483
O278	O	-0.096204	-0.516161	0.259281
C279	C	-0.171735	-0.487751	0.315199
C280	C	-0.140323	-0.523238	0.287950
H281	H	-0.207408	-0.493467	0.338392
H282	H	-0.177449	-0.450059	0.288954
H283	H	-0.153586	-0.493475	0.338448
H284	H	-0.158445	-0.517557	0.264701
H285	H	-0.134608	-0.560917	0.314221
H286	H	-0.018232	-0.668197	0.255455
H287	H	-0.061773	-0.491265	0.327657
O288	O	0.016050	-0.643353	0.405694
C289	C	0.089009	-0.707561	0.412141
C290	C	0.057694	-0.672060	0.380719
H291	H	0.122689	-0.730773	0.391957
H292	H	0.068806	-0.730786	0.445768
H293	H	0.098727	-0.687380	0.421953
H294	H	0.047967	-0.692202	0.370871
H295	H	0.077914	-0.648836	0.347115
O296	O	0.022796	-0.669818	0.303011
C297	C	0.104137	-0.675136	0.274506
C298	C	0.069050	-0.702346	0.300360
H299	H	0.141542	-0.701423	0.272346
H300	H	0.094197	-0.651923	0.294792
H301	H	0.102648	-0.651911	0.237207
H302	H	0.070521	-0.725597	0.337660
H303	H	0.079002	-0.725529	0.280038
O304	O	-0.016554	-0.675858	0.373118
C305	C	-0.020454	-0.750125	0.435972
C306	C	-0.033599	-0.696487	0.422784
H307	H	-0.034237	-0.766818	0.476127
H308	H	0.019704	-0.766910	0.422375
H309	H	-0.037126	-0.756351	0.419170
H310	H	-0.016958	-0.690218	0.439582
H311	H	-0.073760	-0.679729	0.436373
H312	H	0.047655	-0.763617	0.336709
O313	O	-0.135476	-0.669657	0.363069
C314	C	-0.213328	-0.674814	0.395036
C315	C	-0.160114	-0.702114	0.387401
H316	H	-0.233264	-0.701043	0.414718
H317	H	-0.218808	-0.651618	0.359250
H318	H	-0.227310	-0.651563	0.416823
H319	H	-0.146096	-0.725390	0.365631
H320	H	-0.154665	-0.725279	0.423203
H321	H	-0.091707	-0.521211	0.297556
H322	H	-0.134026	-0.631339	0.407719
H323	H	-0.223768	-0.527810	0.290539
H324	H	-0.133793	-0.557888	0.260690
