data_functionalizedCrystal
_audit_creation_method	'MofGen! by Chris Wilmer'
_symmetry_space_group_name_H-M	'P1'
_symmetry_Int_Tables_number	1
_symmetry_cell_setting	triclinic
loop_
_symmetry_equiv_pos_as_xyz
  x,y,z
_cell_length_a	13.185407
_cell_length_b	9.065218
_cell_length_c	8.140239
_cell_angle_alpha	89.997198
_cell_angle_beta	90.001624
_cell_angle_gamma	111.505316
loop_
_atom_site_label
_atom_site_type_symbol
_atom_site_fract_x
_atom_site_fract_y
_atom_site_fract_z
O1	O	-0.159273	1.894270	-0.136607
O2	O	-0.172338	1.459561	-0.136608
O3	O	-0.007793	1.751393	-0.136608
O4	O	-0.323819	1.602437	-0.136608
O5	O	-0.007791	1.751382	0.136619
O6	O	-0.172336	1.459549	0.136619
O7	O	-0.159271	1.894258	0.136620
Zn8	Zn	-0.165803	1.676902	0.180000
Zn9	Zn	-0.165806	1.676917	-0.179988
O10	O	-0.323817	1.602425	0.136619
C11	C	-0.171081	1.405089	0.000005
C12	C	-0.167327	1.242805	0.000004
C13	C	-0.364297	1.587330	0.000006
C14	C	-0.484913	1.542351	0.000005
C15	C	-0.778408	1.971614	-0.000012
C16	C	-0.665083	2.013879	-0.000021
C17	C	-0.620035	1.896001	-0.000014
C18	C	-0.688323	1.735850	0.000002
C19	C	-0.801659	1.693582	-0.000002
C20	C	-0.643286	1.617968	-0.000004
C21	C	-0.711575	1.457818	0.000011
C22	C	-0.824900	1.415557	0.000008
C23	C	-0.869948	1.533435	0.000001
C24	C	-0.529950	1.660237	-0.000001
C25	C	-0.553201	1.382204	0.000009
C26	C	-0.666527	1.339940	0.000018
C27	C	0.032688	1.766489	0.000002
C28	C	0.153304	1.811467	-0.000008
C29	C	-0.160528	1.948729	0.000003
C30	C	-0.164282	2.111013	-0.000007
N31	N	-0.165801	1.676902	0.425683
N32	N	-0.165800	1.676931	-0.425671
H33	H	-0.474360	1.790633	-0.000016
H34	H	-0.962225	1.499031	0.000014
H35	H	-0.722143	1.209543	0.000030
H36	H	-0.516524	1.286218	0.000011
H37	H	-0.880498	1.285152	0.000001
Br38	Br	-0.466234	1.953362	-0.000063
H39	H	-0.609490	2.144273	-0.000031
H40	H	-0.815098	2.067573	0.000004
