data_functionalizedCrystal
_audit_creation_method	'MofGen! by Chris Wilmer'
_symmetry_space_group_name_H-M	'P1'
_symmetry_Int_Tables_number	1
_symmetry_cell_setting	triclinic
loop_
_symmetry_equiv_pos_as_xyz
  x,y,z
_cell_length_a	31.640172
_cell_length_b	31.640171
_cell_length_c	19.376995
_cell_angle_alpha	72.106021
_cell_angle_beta	90.004155
_cell_angle_gamma	59.979319
loop_
_atom_site_label
_atom_site_type_symbol
_atom_site_fract_x
_atom_site_fract_y
_atom_site_fract_z
Zr1	Zr	0.415556	0.445569	-0.079183
O2	O	0.358470	0.512907	-0.175447
O3	O	0.433082	0.363766	-0.049648
O4	O	0.446685	0.424700	-0.175396
O5	O	0.334107	0.473479	0.049464
O6	O	0.516241	0.424695	-0.175382
O7	O	0.344867	0.451972	-0.049700
O8	O	0.491907	0.315694	0.049556
O9	O	0.358441	0.582479	-0.175475
O10	O	0.492433	0.402766	-0.037072
O11	O	0.432494	0.418821	0.036924
O12	O	0.448511	0.490563	-0.111128
O13	O	0.388572	0.506618	-0.037132
Zr14	Zr	0.509327	0.479860	0.078994
Zr15	Zr	0.526489	0.445560	-0.079162
Zr16	Zr	0.398394	0.479870	0.078973
Zr17	Zr	0.415508	0.556530	-0.079226
Zr18	Zr	0.509375	0.368900	0.079038
O19	O	0.491801	0.561664	0.049460
O20	O	0.516203	0.512893	-0.175417
O21	O	0.334069	0.561677	0.049430
O22	O	0.566413	0.412523	0.175258
O23	O	0.590815	0.363752	-0.049618
O24	O	0.408680	0.412536	0.175228
O25	O	0.590777	0.451951	-0.049653
O26	O	0.478198	0.500729	0.175207
O27	O	0.408642	0.500735	0.175194
O28	O	0.580016	0.473458	0.049511
O29	O	0.446618	0.582472	-0.175458
O30	O	0.478266	0.342958	0.175269
O31	O	0.566443	0.342950	0.175286
O32	O	0.580084	0.315686	0.049573
O33	O	0.344799	0.609744	-0.049762
O34	O	0.432976	0.609736	-0.049745
O35	O	0.476373	0.434866	0.110939
O36	O	0.536312	0.418812	0.036943
O37	O	0.492389	0.506609	-0.037113
O38	O	0.432450	0.522663	0.036883
C39	C	0.462501	0.323920	-0.000040
C40	C	0.462521	0.276815	-0.000021
C41	C	0.494854	-0.085920	0.054554
C42	C	0.494895	0.091042	0.054595
O43	O	0.522475	0.091383	0.101062
N44	N	0.462492	0.139669	-0.000054
C45	C	0.430079	0.144055	-0.054720
O46	O	0.402523	0.189476	-0.101206
C47	C	0.430040	-0.032907	-0.054763
C48	C	0.462442	-0.081533	-0.000107
C49	C	0.527253	-0.134545	0.109206
C50	C	0.527241	-0.178782	0.109197
C51	C	0.494829	-0.174394	0.054537
C52	C	0.462429	-0.125770	-0.000115
C53	C	0.397630	-0.028521	-0.109432
C54	C	0.397624	-0.072767	-0.109439
C55	C	0.430025	-0.121393	-0.054782
C56	C	0.430005	-0.165620	-0.054784
N57	N	0.462408	-0.214248	-0.000135
C58	C	0.494820	-0.218635	0.054526
C59	C	0.430101	0.236961	-0.054693
C60	C	0.430109	0.281202	-0.054682
C61	C	0.494927	0.228185	0.054633
C62	C	0.494915	0.183944	0.054624
C63	C	0.462504	0.188333	-0.000044
C64	C	0.494791	-0.311534	0.054504
C65	C	0.494774	-0.355772	0.054493
C66	C	0.429959	-0.302752	-0.054823
C67	C	0.429974	-0.258517	-0.054810
C68	C	0.462394	-0.262912	-0.000143
O69	O	0.402443	-0.166001	-0.101232
O70	O	0.522379	-0.264062	0.100995
C71	C	0.494866	-0.041683	0.054562
C72	C	0.462467	0.006941	-0.000090
C73	C	0.430055	0.011328	-0.054750
C74	C	0.462476	0.051182	-0.000078
C75	C	0.494888	0.046794	0.054582
C76	C	0.527291	-0.001833	0.109231
C77	C	0.527278	-0.046071	0.109223
C78	C	0.397652	0.059956	-0.109399
C79	C	0.397667	0.104191	-0.109386
C80	C	0.430079	0.099804	-0.054725
C81	C	0.323681	0.462727	-0.000121
C82	C	0.276587	0.462731	-0.000130
C83	C	0.007503	0.416883	0.038577
C84	C	-0.169484	0.416876	0.038591
O85	O	-0.172874	0.377906	0.071494
N86	N	-0.214541	0.462705	-0.000066
C87	C	-0.215350	0.508539	-0.038726
O88	O	-0.257735	0.547520	-0.071600
C89	C	-0.038364	0.508547	-0.038736
C90	C	0.006692	0.462714	-0.000082
C91	C	0.052558	0.371054	0.077228
C92	C	0.096802	0.371056	0.077221
C93	C	0.095991	0.416886	0.038562
C94	C	0.050936	0.462715	-0.000089
C95	C	-0.039175	0.554382	-0.077391
C96	C	0.005076	0.554380	-0.077388
C97	C	0.050133	0.508547	-0.038734
C98	C	0.094370	0.508548	-0.038755
N99	N	0.139427	0.462719	-0.000098
C100	C	0.140237	0.416888	0.038561
C101	C	-0.308268	0.508532	-0.038719
C102	C	-0.352515	0.508530	-0.038718
C103	C	-0.306645	0.416867	0.038601
C104	C	-0.262398	0.416868	0.038595
C105	C	-0.263212	0.462703	-0.000062
C106	C	0.233152	0.416895	0.038542
C107	C	0.277398	0.416900	0.038529
C108	C	0.231524	0.508563	-0.038786
C109	C	0.187282	0.508558	-0.038776
C110	C	0.188099	0.462720	-0.000107
O111	O	0.097797	0.547499	-0.071634
O112	O	0.182626	0.377916	0.071443
C113	C	-0.036741	0.416882	0.038584
C114	C	-0.081796	0.462711	-0.000067
C115	C	-0.082607	0.508541	-0.038726
C116	C	-0.126042	0.462709	-0.000066
C117	C	-0.125232	0.416878	0.038593
C118	C	-0.080175	0.371050	0.077250
C119	C	-0.035931	0.371051	0.077243
C120	C	-0.127664	0.554370	-0.077383
C121	C	-0.171906	0.554364	-0.077373
C122	C	-0.171095	0.508534	-0.038715
C123	C	0.601202	0.462703	-0.000068
C124	C	0.648296	0.462699	-0.000059
C125	C	0.483908	0.419810	-0.197923
C126	C	0.491194	0.405249	-0.265064
C127	C	0.462382	0.601510	-0.000149
C128	C	0.462362	0.648615	-0.000168
C129	C	0.524388	0.338899	-0.321044
C130	C	0.517539	0.352587	-0.257959
C131	C	0.471684	0.444244	-0.335263
C132	C	0.478526	0.430564	-0.398356
C133	C	0.504879	0.377891	-0.391240
C134	C	0.459018	0.469555	-0.468552
C135	C	0.465862	0.455875	-0.531639
C136	C	0.492215	0.403205	-0.524530
C137	C	0.511723	0.364211	-0.454327
C138	C	0.432668	0.522228	-0.475666
C139	C	0.413160	0.561219	-0.545862
C140	C	0.420001	0.547539	-0.608951
C141	C	0.446354	0.494869	-0.601842
C142	C	0.400492	0.586533	-0.679154
C143	C	0.407337	0.572854	-0.742241
C144	C	0.453198	0.481190	-0.664929
C145	C	0.440975	0.505619	0.197734
C146	C	0.433689	0.520181	0.264875
C147	C	0.601262	0.323908	-0.000013
C148	C	0.648376	0.276799	0.000014
C149	C	0.441035	0.366825	0.197789
C150	C	0.433769	0.334280	0.264948
C151	C	0.579795	0.366813	0.197815
C152	C	0.619624	0.334265	0.264984
C153	C	0.345088	0.558617	-0.198004
C154	C	0.305260	0.591165	-0.265172
C155	C	0.323622	0.601521	-0.000176
C156	C	0.276507	0.648631	-0.000203
C157	C	0.483849	0.558605	-0.197977
C158	C	0.491114	0.591149	-0.265137
C159	C	0.647598	0.246299	-0.038615
C160	C	0.691864	0.202037	-0.038604
C161	C	0.736907	0.188274	0.000041
C162	C	0.737684	0.218779	0.038671
C163	C	0.693419	0.263042	0.038655
C164	C	0.453261	0.327374	0.335129
C165	C	0.446431	0.296803	0.398239
C166	C	0.420114	0.273135	0.391166
C167	C	0.400620	0.280044	0.320978
C168	C	0.407446	0.310618	0.257870
C169	C	0.669620	0.310599	0.257902
C170	C	0.707048	0.280022	0.321008
C171	C	0.694479	0.273107	0.391195
C172	C	0.644478	0.296776	0.398275
C173	C	0.607051	0.327356	0.335170
C174	C	0.255263	0.614836	-0.258091
C175	C	0.217835	0.645427	-0.321197
C176	C	0.230404	0.652344	-0.391384
C177	C	0.280405	0.628672	-0.398464
C178	C	0.317833	0.598084	-0.335359
C179	C	0.277286	0.679134	0.038419
C180	C	0.233022	0.723404	0.038391
C181	C	0.187979	0.737168	-0.000256
C182	C	0.187202	0.706662	-0.038883
C183	C	0.231466	0.662395	-0.038858
C184	C	0.517434	0.614808	-0.258041
C185	C	0.524270	0.645382	-0.321139
C186	C	0.504783	0.652300	-0.391332
C187	C	0.478461	0.628637	-0.398426
C188	C	0.471629	0.598061	-0.335330
H189	H	0.553627	-0.218373	0.153703
H190	H	0.290634	0.634308	-0.455618
O191	O	0.786268	0.203933	0.080350
H192	H	0.784338	0.196643	0.139733
H193	H	0.497790	0.392068	-0.575901
H194	H	0.545702	0.664647	-0.315348
H195	H	0.233664	0.748237	0.069848
H196	H	0.724959	0.248205	0.442573
H197	H	0.747759	0.260752	0.315230
H198	H	0.177125	0.664697	-0.315418
O199	O	0.694264	0.295930	0.080334
H200	H	0.655919	0.329023	0.073836
O201	O	0.553125	0.352868	0.342811
H202	H	0.550679	0.342912	0.402220
H203	H	0.391705	0.604105	-0.551646
O204	O	0.230619	0.629496	-0.080515
H205	H	0.268963	0.596402	-0.074016
H206	H	0.199924	0.677252	-0.442762
H207	H	0.427097	0.533363	-0.424294
H208	H	0.245020	0.609206	-0.200947
H209	H	0.533305	0.609182	-0.200892
O210	O	0.371758	0.572546	-0.343000
H211	H	0.374205	0.582493	-0.402409
H212	H	0.151940	0.773214	-0.000270
H213	H	0.403705	0.240544	-0.099212
H214	H	0.533177	0.321319	-0.448530
H215	H	0.545841	0.296008	-0.315247
O216	O	0.012663	0.321616	0.118934
H217	H	0.029495	0.328278	0.161630
H218	H	0.553649	-0.138126	0.153718
H219	H	0.133486	0.333733	0.108694
H220	H	0.521316	0.224619	0.099141
H221	H	0.679863	0.316223	0.200758
H222	H	0.474690	0.346643	0.340902
H223	H	0.462596	0.634275	-0.455586
O224	O	0.325866	0.664300	0.080093
H225	H	0.318964	0.692959	0.106930
O226	O	0.630924	0.289308	0.473978
H227	H	0.665352	0.264061	0.516663
H228	H	0.150522	0.717875	-0.070348
O229	O	0.004224	0.603800	-0.119098
H230	H	-0.019688	0.634653	-0.096809
O231	O	0.386294	0.614905	-0.817958
H232	H	0.366814	0.653830	-0.812308
O233	O	0.512146	0.685287	-0.459385
H234	H	0.533718	0.700581	-0.442651
O235	O	0.443232	0.572551	-0.342987
H236	H	0.430826	0.582506	-0.402398
H237	H	0.521159	-0.395366	0.099004
H238	H	0.521190	-0.315120	0.099020
H239	H	-0.389197	0.545849	-0.070203
O240	O	0.529869	0.131496	0.113565
H241	H	0.552409	0.135883	0.151568
H242	H	0.371258	0.063536	-0.153912
O243	O	0.395163	0.333647	-0.113632
H244	H	0.372630	0.329258	-0.151646
H245	H	0.371249	0.011065	-0.153944
H246	H	0.371231	-0.069188	-0.153959
H247	H	0.450229	0.487130	-0.341047
O248	O	0.395026	-0.206066	-0.113757
H249	H	0.372488	-0.210451	-0.151769
H250	H	0.403568	-0.299188	-0.099324
H251	H	0.553663	-0.085661	0.153730
H252	H	0.371276	0.143785	-0.153893
O253	O	0.562256	-0.006565	0.168182
H254	H	0.556822	0.032368	0.158993
H255	H	0.314084	0.379576	0.070008
H256	H	0.533426	0.320832	-0.200801
H257	H	0.233824	0.379570	0.070031
O258	O	0.784649	0.140530	0.000062
H259	H	0.776535	0.121633	-0.033287
H260	H	-0.225714	0.379548	0.070077
O261	O	0.053438	0.321617	0.118918
H262	H	0.092206	0.289753	0.145784
H263	H	-0.305991	0.379549	0.070074
H264	H	-0.308938	0.545857	-0.070203
H265	H	0.379041	0.629419	-0.684937
O266	O	-0.087766	0.603817	-0.119081
H267	H	-0.094695	0.634646	-0.096758
O268	O	0.138681	0.557987	-0.080472
H269	H	0.131747	0.588822	-0.058158
O270	O	0.230663	0.557975	-0.080571
H271	H	0.269005	0.550266	-0.074104
H272	H	-0.079521	0.333732	0.108723
H273	H	-0.208591	0.591689	-0.108857
H274	H	-0.128331	0.591691	-0.108866
O275	O	0.481623	0.424377	-0.657259
H276	H	0.462655	0.405025	-0.626616
H277	H	0.610927	0.257501	-0.070093
H278	H	0.462309	0.291182	0.455382
O279	O	0.691021	0.169136	-0.080263
H280	H	0.652260	0.186140	-0.107124
O281	O	0.412762	0.240149	0.459236
H282	H	0.430746	0.239319	0.509222
H283	H	0.379192	0.260770	0.315230
H284	H	0.391575	0.316235	0.200728
