data_functionalizedCrystal
_audit_creation_method	'MofGen! by Chris Wilmer'
_symmetry_space_group_name_H-M	'P1'
_symmetry_Int_Tables_number	1
_symmetry_cell_setting	triclinic
loop_
_symmetry_equiv_pos_as_xyz
  x,y,z
_cell_length_a	10.654550
_cell_length_b	19.188930
_cell_length_c	9.730223
_cell_angle_alpha	89.993564
_cell_angle_beta	89.996251
_cell_angle_gamma	83.814841
loop_
_atom_site_label
_atom_site_type_symbol
_atom_site_fract_x
_atom_site_fract_y
_atom_site_fract_z
O1	O	1.665759	0.098059	-0.114420
O2	O	1.300083	0.107401	-0.114400
O3	O	1.493474	0.001144	-0.114384
O4	O	1.472368	0.204317	-0.114436
O5	O	1.493471	0.001146	0.114196
O6	O	1.300081	0.107404	0.114180
O7	O	1.665757	0.098061	0.114160
Zn8	Zn	1.482918	0.102733	0.150462
Zn9	Zn	1.482921	0.102730	-0.150702
O10	O	1.472366	0.204319	0.114144
C11	C	1.253298	0.106717	-0.000107
C12	C	1.113898	0.104664	-0.000098
C13	C	1.033089	0.167227	-0.000134
C14	C	0.902109	0.165295	-0.000157
C15	C	0.932761	0.038231	-0.000114
C16	C	1.063738	0.040164	-0.000081
C17	C	1.083249	0.231728	-0.000151
C18	C	1.002438	0.294296	-0.000189
C19	C	0.871458	0.292363	-0.000212
C20	C	0.821289	0.227863	-0.000198
C21	C	1.492789	-0.024871	-0.000090
C22	C	1.490737	-0.102389	-0.000078
C23	C	1.604213	-0.146570	-0.000078
C24	C	1.602285	-0.219407	-0.000099
C25	C	1.486876	-0.248058	-0.000094
C26	C	1.373386	-0.203867	-0.000102
C27	C	1.375316	-0.131032	-0.000094
N28	N	1.398658	-0.356639	0.077701
N29	N	1.396832	-0.425830	0.077696
C30	C	1.481052	-0.467505	-0.000121
N31	N	1.567186	-0.437377	-0.077917
N32	N	1.569016	-0.368180	-0.077906
C33	C	1.484770	-0.327034	-0.000104
C34	C	1.592445	-0.590665	-0.000147
C35	C	1.590513	-0.663502	-0.000177
C36	C	1.361610	-0.647960	-0.000166
C37	C	1.363545	-0.575125	-0.000149
C38	C	1.478966	-0.546481	-0.000133
C39	C	1.712541	0.098746	-0.000136
C40	C	1.851941	0.100798	-0.000154
C41	C	1.473051	0.230334	-0.000153
C42	C	1.475102	0.307852	-0.000174
N43	N	1.482925	0.102735	0.355998
N44	N	1.482924	0.102722	-0.356238
C45	C	1.568581	0.055700	0.427932
C46	C	1.568577	0.055692	0.571815
C47	C	1.397260	0.149759	0.571818
C48	C	1.397258	0.149764	0.427938
C49	C	1.654248	0.008672	0.355992
C50	C	1.739911	-0.038367	0.427925
C51	C	1.739908	-0.038375	0.571808
C52	C	1.654242	0.008655	0.643758
H53	H	1.698197	-0.123254	-0.000069
N54	N	1.654242	0.008684	0.200806
H55	H	1.739499	0.019289	0.166143
H56	H	1.636195	-0.038855	0.166256
N57	N	1.712915	-0.711155	-0.000173
H58	H	1.717204	-0.741730	0.084555
H59	H	1.717155	-0.741667	-0.084970
N60	N	0.784295	0.359842	-0.000165
H61	H	0.835951	0.400993	-0.000146
H62	H	0.729271	0.361830	-0.084890
H63	H	0.891902	-0.014283	-0.000125
N64	N	1.237129	-0.678852	-0.000176
H65	H	1.253123	-0.731697	-0.000185
H66	H	1.187485	-0.662737	0.084564
N67	N	1.241153	-0.527466	-0.000142
H68	H	1.167747	-0.556666	-0.000141
H69	H	1.236969	-0.496915	0.084600
N70	N	1.832305	-0.089103	0.649390
H71	H	1.784510	-0.120275	0.709092
H72	H	1.886545	-0.118841	0.581885
N73	N	1.716926	-0.559764	-0.000132
H74	H	1.766630	-0.575822	-0.084872
H75	H	1.700820	-0.506924	-0.000062
N76	N	0.680017	0.225783	-0.000218
H77	H	0.654501	0.200373	-0.084951
H78	H	0.654561	0.200391	0.084574
H79	H	1.809651	-0.076661	0.369336
N80	N	1.654247	0.008650	0.798946
H81	H	1.586989	0.045582	0.833606
H82	H	1.636288	-0.038908	0.833503
N83	N	1.304869	0.200481	0.649414
H84	H	1.317869	0.193342	0.751477
H85	H	1.319094	0.250088	0.624259
N86	N	1.056553	0.363858	-0.000206
H87	H	1.027076	0.391293	-0.084953
H88	H	1.027031	0.391244	0.084572
H89	H	1.279418	-0.227199	-0.000101
H90	H	1.327509	0.188064	0.369370
N91	N	1.724674	-0.267077	-0.000092
H92	H	1.775061	-0.257797	-0.084820
H93	H	1.774936	-0.257785	0.084706
N94	N	1.150902	-0.027315	-0.000037
H95	H	1.134839	-0.055430	-0.084768
H96	H	1.241449	-0.016244	0.000040
N97	N	1.252921	-0.083373	-0.000095
H98	H	1.179513	-0.112572	-0.000100
H99	H	1.248734	-0.052824	0.084649
H100	H	1.189898	0.233309	-0.000138
