data_functionalizedCrystal
_audit_creation_method	'MofGen! by Chris Wilmer'
_symmetry_space_group_name_H-M	'P1'
_symmetry_Int_Tables_number	1
_symmetry_cell_setting	triclinic
loop_
_symmetry_equiv_pos_as_xyz
  x,y,z
_cell_length_a	16.120490
_cell_length_b	12.594516
_cell_length_c	12.594510
_cell_angle_alpha	89.966418
_cell_angle_beta	87.081464
_cell_angle_gamma	87.104371
loop_
_atom_site_label
_atom_site_type_symbol
_atom_site_fract_x
_atom_site_fract_y
_atom_site_fract_z
Zn1	Zn	1.274658	-0.506356	-0.684237
Zn2	Zn	1.274580	-0.684379	-0.506255
Zn3	Zn	1.135232	-0.497373	-0.497256
Zn4	Zn	1.135232	-0.675246	-0.675179
O5	O	1.204926	-0.590839	-0.590732
O6	O	1.391316	-0.537553	-0.668184
O7	O	1.256062	-0.659635	-0.356113
O8	O	1.153760	-0.349621	-0.522084
O9	O	1.391258	-0.668345	-0.537421
O10	O	1.256196	-0.356221	-0.659458
O11	O	1.153684	-0.522243	-0.349501
O12	O	1.018565	-0.513387	-0.513301
O13	O	1.153760	-0.652780	-0.825329
O14	O	1.018565	-0.644070	-0.644021
O15	O	1.256196	-0.528697	-0.831984
O16	O	1.256062	-0.832111	-0.528638
O17	O	1.153684	-0.825401	-0.652747
C18	C	0.988314	-0.576763	-0.576702
C19	C	0.895646	-0.570768	-0.570725
C20	C	0.684715	-0.621932	-0.621736
C21	C	0.725987	-0.559831	-0.559812
C22	C	0.820394	-0.565918	-0.565886
C23	C	0.590300	-0.615846	-0.615663
C24	C	1.204887	-0.867377	-0.590711
C25	C	1.204947	-0.985686	-0.590742
C26	C	1.260695	-1.058554	-0.523320
C27	C	1.281071	-1.130563	-0.621786
C28	C	1.184675	-1.124483	-0.492345
C29	C	1.225362	-1.056140	-0.689262
C30	C	1.128931	-1.050051	-0.559753
C31	C	1.149278	-1.122026	-0.658284
C32	C	1.422383	-0.604970	-0.604817
C33	C	1.515051	-0.610991	-0.610819
C34	C	1.204987	-0.590722	-0.868357
C35	C	1.205013	-0.590672	-0.986664
C36	C	1.204987	-0.313222	-0.590778
C37	C	1.205013	-0.194918	-0.590797
C38	C	1.260748	-0.523163	-1.130302
C39	C	1.281109	-0.621605	-1.060797
C40	C	1.184689	-0.492244	-1.054599
C41	C	1.225449	-0.689137	-1.127950
C42	C	1.128993	-0.559708	-1.121756
C43	C	1.149326	-0.658215	-1.052282
C44	C	1.204913	-0.590881	-0.314190
C45	C	1.205048	-0.590642	-0.195894
H46	H	0.720281	-0.679666	-0.679308
H47	H	1.242471	-1.026203	-0.772565
H48	H	0.690419	-0.502093	-0.502235
C49	C	1.085624	-1.159571	-0.735434
N50	N	1.037683	-1.187850	-0.793546
C51	C	1.042149	-0.524294	-1.158193
N52	N	0.976739	-0.497608	-1.185641
C53	C	1.367978	-0.656972	-1.024392
N54	N	1.433409	-0.683602	-0.996973
H55	H	1.307847	-1.030569	-0.466358
H56	H	1.345384	-1.165769	-0.648027
C57	C	1.042075	-1.002446	-0.524259
N58	N	0.976655	-0.966585	-0.497512
H59	H	1.167502	-1.154547	-0.409108
H60	H	1.307902	-0.466163	-1.164443
H61	H	1.242747	-0.772387	-1.160002
H62	H	1.102207	-0.715362	-1.018339
C63	C	1.161441	-0.379807	-1.011135
N64	N	1.143937	-0.295118	-0.978403
