data_functionalizedCrystal
_audit_creation_method	'MofGen! by Chris Wilmer'
_symmetry_space_group_name_H-M	'P1'
_symmetry_Int_Tables_number	1
_symmetry_cell_setting	triclinic
loop_
_symmetry_equiv_pos_as_xyz
  x,y,z
_cell_length_a	16.625546
_cell_length_b	18.215407
_cell_length_c	16.625539
_cell_angle_alpha	89.984837
_cell_angle_beta	90.028532
_cell_angle_gamma	89.981912
loop_
_atom_site_label
_atom_site_type_symbol
_atom_site_fract_x
_atom_site_fract_y
_atom_site_fract_z
Zn1	Zn	-0.321109	-1.125065	0.455857
Zn2	Zn	0.012224	-0.791732	0.789190
Zn3	Zn	0.345557	-0.458399	1.122524
Zn4	Zn	-0.455948	-1.124984	0.321019
Zn5	Zn	-0.122615	-0.791651	0.654352
Zn6	Zn	0.210719	-0.458318	0.987686
Zn7	Zn	-0.321123	-1.002003	0.321042
Zn8	Zn	0.012211	-0.668670	0.654375
Zn9	Zn	0.345544	-0.335337	0.987709
Zn10	Zn	-0.455893	-1.001969	0.455813
Zn11	Zn	-0.122560	-0.668636	0.789147
Zn12	Zn	0.210773	-0.335302	1.122480
O13	O	-0.388518	-1.063506	0.388433
O14	O	-0.055185	-0.730172	0.721766
O15	O	0.278148	-0.396839	1.055099
O16	O	-0.339013	-1.228039	0.437979
O17	O	-0.005680	-0.894705	0.771312
O18	O	0.327654	-0.561372	1.104646
O19	O	-0.438092	-1.108651	0.208190
O20	O	-0.104758	-0.775318	0.541523
O21	O	0.228575	-0.441985	0.874856
O22	O	-0.208289	-1.018376	0.338953
O23	O	0.125045	-0.685043	0.672286
O24	O	0.458378	-0.351709	1.005620
O25	O	-0.438079	-1.227979	0.338914
O26	O	-0.104745	-0.894646	0.672248
O27	O	0.228588	-0.561313	1.005581
O28	O	-0.208279	-1.108789	0.438001
O29	O	0.125055	-0.775456	0.771334
O30	O	0.458388	-0.442122	1.104668
O31	O	-0.339036	-1.018298	0.208206
O32	O	-0.005703	-0.684964	0.541540
O33	O	0.327630	-0.351631	0.874873
O34	O	-0.338983	-0.899015	0.338911
O35	O	-0.005650	-0.565681	0.672244
O36	O	0.327684	-0.232348	1.005578
O37	O	-0.437985	-1.018317	0.568652
O38	O	-0.104652	-0.684984	0.901985
O39	O	0.228681	-0.351651	1.235318
O40	O	-0.437998	-0.898989	0.437927
O41	O	-0.104665	-0.565656	0.771260
O42	O	0.228668	-0.232323	1.104594
O43	O	-0.338960	-1.108756	0.568684
O44	O	-0.005627	-0.775422	0.902017
O45	O	0.327707	-0.442089	1.235350
O46	O	-0.568773	-1.108618	0.338872
O47	O	-0.235440	-0.775285	0.672206
O48	O	0.097894	-0.441951	1.005539
O49	O	-0.568733	-1.018239	0.437905
O50	O	-0.235400	-0.684906	0.771238
O51	O	0.097934	-0.351572	1.104572
C52	C	-0.598009	-1.063436	0.388399
C53	C	-0.264676	-0.730103	0.721732
C54	C	0.068657	-0.396769	1.055066
C55	C	-0.687630	-1.063473	0.388412
C56	C	-0.354297	-0.730140	0.721745
C57	C	-0.020964	-0.396807	1.055078
C58	C	-0.388487	-0.872299	0.388417
C59	C	-0.055154	-0.538966	0.721751
C60	C	0.278180	-0.205633	1.055084
C61	C	-0.388493	-0.790500	0.388430
C62	C	-0.055160	-0.457167	0.721763
C63	C	0.278174	-0.123834	1.055096
C64	C	-0.388465	-1.063542	0.598742
C65	C	-0.055132	-0.730208	0.932075
C66	C	0.278202	-0.396875	1.265408
C67	C	-0.388442	-1.063557	0.688363
C68	C	-0.055109	-0.730224	1.021696
C69	C	0.278224	-0.396890	1.355030
C70	C	-1.015806	-1.063602	0.388496
C71	C	-0.682473	-0.730268	0.721829
C72	C	-0.349139	-0.396935	1.055162
C73	C	-0.924497	-1.063564	0.388474
C74	C	-0.591164	-0.730230	0.721808
C75	C	-0.257831	-0.396897	1.055141
C76	C	-0.851721	-1.063537	0.388453
C77	C	-0.518388	-0.730204	0.721786
C78	C	-0.185054	-0.396870	1.055120
C79	C	-0.760407	-1.063500	0.388433
C80	C	-0.427073	-0.730167	0.721766
C81	C	-0.093740	-0.396833	1.055100
C82	C	-0.178209	-1.063596	0.388484
C83	C	0.155124	-0.730262	0.721818
C84	C	0.488457	-0.396929	1.055151
C85	C	-0.088588	-1.063634	0.388506
C86	C	0.244745	-0.730301	0.721840
C87	C	0.578078	-0.396967	1.055173
C88	C	-0.337009	-0.602336	0.440093
C89	C	-0.003676	-0.269003	0.773426
C90	C	0.329658	0.064330	1.106759
C91	C	-0.337013	-0.525478	0.440095
C92	C	-0.003680	-0.192144	0.773428
C93	C	0.329653	0.141189	1.106761
C94	C	-0.440015	-0.525427	0.336779
C95	C	-0.106682	-0.192093	0.670113
C96	C	0.226651	0.141240	1.003446
C97	C	-0.440006	-0.602284	0.336774
C98	C	-0.106673	-0.268951	0.670107
C99	C	0.226660	0.064383	1.003440
C100	C	-0.388505	-0.640737	0.388435
C101	C	-0.055171	-0.307404	0.721768
C102	C	0.278162	0.025930	1.055102
C103	C	-0.388518	-0.487021	0.388443
C104	C	-0.055184	-0.153687	0.721776
C105	C	0.278149	0.179646	1.055109
C106	C	-0.388523	-0.403687	0.388445
C107	C	-0.055189	-0.070354	0.721778
C108	C	0.278144	0.262980	1.055111
C109	C	-0.388498	-0.724076	0.388432
C110	C	-0.055165	-0.390743	0.721766
C111	C	0.278168	-0.057409	1.055099
C112	C	-0.388542	-0.255458	0.388447
C113	C	-0.055208	0.077875	0.721780
C114	C	0.278125	0.411208	1.055114
C115	C	-0.388529	-0.337257	0.388448
C116	C	-0.055196	-0.003924	0.721781
C117	C	0.278137	0.329409	1.055115
C118	C	-0.388513	-1.063512	0.178942
C119	C	-0.055180	-0.730179	0.512275
C120	C	0.278154	-0.396845	0.845609
C121	C	-0.388309	-1.063639	0.089321
C122	C	-0.054975	-0.730306	0.422655
C123	C	0.278358	-0.396973	0.755988
C124	C	-0.388425	-1.063569	0.761145
C125	C	-0.055091	-0.730236	1.094479
C126	C	0.278242	-0.396902	1.427812
C127	C	-0.388395	-1.063586	0.852454
C128	C	-0.055061	-0.730253	1.185787
C129	C	0.278272	-0.396919	1.519121
C130	C	-0.388366	-1.063603	0.925231
C131	C	-0.055033	-0.730270	1.258564
C132	C	0.278300	-0.396937	1.591897
C133	C	-0.388337	-1.063622	1.016545
C134	C	-0.055004	-0.730289	1.349878
C135	C	0.278330	-0.396955	1.683212
H136	H	-0.295070	-0.633642	0.482156
H137	H	0.038263	-0.300309	0.815489
H138	H	0.371596	0.033024	1.148823
H139	H	-0.295079	-0.494215	0.482158
H140	H	0.038254	-0.160882	0.815492
H141	H	0.371587	0.172451	1.148825
Cl142	Cl	-0.504760	-0.477081	0.271841
Cl143	Cl	-0.171426	-0.143748	0.605174
Cl144	Cl	0.161907	0.189586	0.938507
Cl145	Cl	-0.504741	-0.650563	0.271819
Cl146	Cl	-0.171407	-0.317229	0.605152
Cl147	Cl	0.161926	0.016104	0.938486
