data_functionalizedCrystal
_audit_creation_method	'MofGen! by Chris Wilmer'
_symmetry_space_group_name_H-M	'P1'
_symmetry_Int_Tables_number	1
_symmetry_cell_setting	triclinic
loop_
_symmetry_equiv_pos_as_xyz
  x,y,z
_cell_length_a	21.395362
_cell_length_b	13.897448
_cell_length_c	21.395355
_cell_angle_alpha	89.984371
_cell_angle_beta	89.956060
_cell_angle_gamma	90.033571
loop_
_atom_site_label
_atom_site_type_symbol
_atom_site_fract_x
_atom_site_fract_y
_atom_site_fract_z
Zn1	Zn	0.957916	-0.383718	-0.354598
Zn2	Zn	0.957842	-0.544997	-0.249826
Zn3	Zn	0.853131	-0.383763	-0.249799
Zn4	Zn	0.853124	-0.545017	-0.354531
O5	O	0.905503	-0.464374	-0.302189
O6	O	1.045584	-0.405085	-0.340739
O7	O	0.943924	-0.523620	-0.162145
O8	O	0.867065	-0.248775	-0.263718
O9	O	1.045530	-0.523576	-0.263764
O10	O	0.944050	-0.248742	-0.340714
O11	O	0.866993	-0.405161	-0.162125
O12	O	0.765452	-0.405181	-0.263653
O13	O	0.867053	-0.523610	-0.442218
O14	O	0.765447	-0.523654	-0.340599
O15	O	0.944043	-0.405104	-0.442267
O16	O	0.943918	-0.679982	-0.263698
O17	O	0.866981	-0.679996	-0.340624
C18	C	0.742716	-0.464425	-0.302116
C19	C	0.673074	-0.464470	-0.302100
C20	C	0.905458	-0.714988	-0.302170
C21	C	0.905495	-0.822202	-0.302184
C22	C	0.640375	-0.526240	-0.342105
C23	C	0.574940	-0.526217	-0.342133
C24	C	0.542206	-0.464433	-0.302144
C25	C	0.574913	-0.402650	-0.262136
C26	C	0.640348	-0.402669	-0.262114
C27	C	0.438480	-0.456662	-0.245739
C28	C	0.373047	-0.456650	-0.245760
C29	C	0.340385	-0.464370	-0.302214
C30	C	0.373165	-0.472121	-0.358647
C31	C	0.438599	-0.472140	-0.358625
C32	C	0.471254	-0.464405	-0.302164
C33	C	0.236734	-0.526118	-0.342253
C34	C	0.171297	-0.526088	-0.342282
C35	C	0.171272	-0.402526	-0.262279
C36	C	0.236707	-0.402551	-0.262255
C37	C	0.269434	-0.464352	-0.302242
C38	C	0.905561	-1.018497	-0.302223
C39	C	0.905523	-0.909265	-0.302203
C40	C	1.068927	-0.464323	-0.302262
C41	C	1.138568	-0.464302	-0.302293
C42	C	0.905555	-0.464354	-0.465612
C43	C	0.905578	-0.464346	-0.535253
C44	C	0.905566	-0.212781	-0.302221
C45	C	0.905593	-0.105567	-0.302234
C46	C	0.945665	-0.402637	-0.567993
C47	C	0.945664	-0.402596	-0.633429
C48	C	0.905582	-0.464280	-0.666122
C49	C	0.865488	-0.525993	-0.633374
C50	C	0.865485	-0.526026	-0.567940
C51	C	0.900619	-0.551135	-0.769788
C52	C	0.900626	-0.551103	-0.835221
C53	C	0.905586	-0.464178	-0.867942
C54	C	0.910553	-0.377282	-0.835223
C55	C	0.910550	-0.377315	-0.769788
C56	C	0.905580	-0.464251	-0.737074
C57	C	0.945675	-0.402419	-0.971635
C58	C	0.945669	-0.402376	-1.037072
C59	C	0.865496	-0.525782	-1.037016
C60	C	0.865498	-0.525817	-0.971580
C61	C	0.905591	-0.464137	-0.938894
C62	C	0.905488	-0.464324	-0.139401
C63	C	0.905587	-0.464060	-0.069760
H64	H	0.548311	-0.576517	-0.374713
C65	C	0.675934	-0.335762	-0.218636
C66	C	0.713436	-0.390301	-0.178413
C67	C	0.746235	-0.328701	-0.138357
H68	H	0.647142	-0.298936	-0.194764
H69	H	0.701546	-0.293813	-0.242625
H70	H	0.687826	-0.432233	-0.154426
H71	H	0.742240	-0.427125	-0.202267
H72	H	0.771847	-0.286752	-0.162346
H73	H	0.717438	-0.291878	-0.114489
H74	H	0.771688	-0.365696	-0.111065
H75	H	0.263381	-0.576435	-0.374815
H76	H	0.978310	-0.352411	-0.541384
H77	H	0.346364	-0.450344	-0.199808
H78	H	0.978306	-0.352340	-0.660091
C79	C	0.989121	-0.335401	-1.072734
C80	C	0.980527	-0.348545	-1.137035
C81	C	1.020536	-0.286851	-1.169907
H82	H	1.031242	-0.349447	-1.062122
H83	H	0.979960	-0.270580	-1.062032
H84	H	0.989693	-0.413351	-1.147732
H85	H	0.938415	-0.334492	-1.147665
H86	H	1.011375	-0.222031	-1.159205
H87	H	1.062655	-0.300903	-1.159290
H88	H	1.014707	-0.295755	-1.213538
H89	H	0.346573	-0.478406	-0.404617
C90	C	0.272248	-0.335375	-0.218918
C91	C	0.309873	-0.273625	-0.254451
C92	C	0.342616	-0.211717	-0.214550
H93	H	0.297776	-0.372109	-0.191556
H94	H	0.243404	-0.298518	-0.195115
H95	H	0.338714	-0.310479	-0.278243
H96	H	0.284361	-0.236870	-0.281811
H97	H	0.313771	-0.174860	-0.190748
H98	H	0.368140	-0.248459	-0.187190
H99	H	0.368143	-0.169807	-0.238654
C100	C	0.916063	-0.282888	-0.870711
C101	C	0.972340	-0.237629	-0.854856
C102	C	0.977442	-0.150685	-0.887547
H103	H	0.882038	-0.242222	-0.859987
H104	H	0.915385	-0.295282	-0.914372
H105	H	0.973013	-0.225232	-0.811205
H106	H	1.006375	-0.278267	-0.865582
H107	H	0.976764	-0.163079	-0.931208
H108	H	0.943414	-0.110027	-0.876820
H109	H	1.015628	-0.119970	-0.876798
H110	H	0.667017	-0.576562	-0.374666
C111	C	0.135761	-0.592997	-0.385798
C112	C	0.098282	-0.538466	-0.426049
C113	C	0.065543	-0.600071	-0.466150
H114	H	0.110134	-0.634978	-0.361863
H115	H	0.164607	-0.629787	-0.409642
H116	H	0.069439	-0.501693	-0.402207
H117	H	0.123893	-0.496487	-0.449997
H118	H	0.094390	-0.636860	-0.489994
H119	H	0.039920	-0.642049	-0.442210
H120	H	0.040115	-0.563080	-0.493468
H121	H	0.465068	-0.450372	-0.199765
C122	C	0.539459	-0.335626	-0.218615
C123	C	0.555313	-0.356477	-0.156595
C124	C	0.522673	-0.294741	-0.116487
H125	H	0.495795	-0.344400	-0.224269
H126	H	0.550238	-0.270824	-0.227817
H127	H	0.544530	-0.421264	-0.147396
H128	H	0.598972	-0.347698	-0.150921
H129	H	0.533452	-0.229938	-0.125690
H130	H	0.479011	-0.303519	-0.122147
H131	H	0.533430	-0.308874	-0.074403
H132	H	0.144621	-0.352216	-0.229722
C133	C	0.989277	-0.335610	-0.936111
C134	C	1.029434	-0.390238	-0.898595
C135	C	1.069616	-0.328729	-0.865871
H136	H	0.965396	-0.293583	-0.910512
H137	H	1.013185	-0.298866	-0.964967
H138	H	1.005529	-0.426966	-0.869743
H139	H	1.053329	-0.432263	-0.924179
H140	H	1.093524	-0.291984	-0.894726
H141	H	1.045730	-0.286704	-0.840275
H142	H	1.096871	-0.365785	-0.840416
C143	C	0.915807	-0.282929	-0.734297
C144	C	0.865514	-0.223340	-0.750163
C145	C	0.870328	-0.136389	-0.717475
H146	H	0.953921	-0.251942	-0.745018
H147	H	0.915063	-0.295356	-0.690636
H148	H	0.866264	-0.210911	-0.793815
H149	H	0.827393	-0.254296	-0.739441
H150	H	0.869583	-0.148816	-0.673814
H151	H	0.908444	-0.105411	-0.728198
H152	H	0.836202	-0.095951	-0.728231
H153	H	0.832855	-0.575997	-1.063634
H154	H	0.832859	-0.576073	-0.944923
C155	C	0.895197	-0.645540	-0.870629
C156	C	0.890826	-0.721669	-0.827971
C157	C	0.885816	-0.808678	-0.860564
H158	H	0.931086	-0.654137	-0.896183
H159	H	0.858863	-0.644329	-0.896116
H160	H	0.927157	-0.722881	-0.802495
H161	H	0.854938	-0.713104	-0.802416
H162	H	0.849482	-0.807467	-0.886051
H163	H	0.921706	-0.817265	-0.886117
H164	H	0.882844	-0.860341	-0.831625
C165	C	0.895316	-0.645483	-0.734214
C166	C	0.948283	-0.657790	-0.696667
C167	C	0.943406	-0.744691	-0.663894
H168	H	0.892387	-0.697283	-0.763021
H169	H	0.859009	-0.644274	-0.708633
H170	H	0.984580	-0.659006	-0.722245
H171	H	0.951222	-0.606011	-0.667849
H172	H	0.907099	-0.743482	-0.638314
H173	H	0.940476	-0.796484	-0.692706
H174	H	0.979340	-0.753048	-0.638411
C175	C	0.474075	-0.480504	-0.419960
C176	C	0.431473	-0.487237	-0.469409
C177	C	0.464131	-0.494926	-0.525921
H178	H	0.499576	-0.536417	-0.419164
H179	H	0.499620	-0.425223	-0.425551
H180	H	0.405939	-0.542513	-0.463819
H181	H	0.405970	-0.431331	-0.470226
H182	H	0.489676	-0.439645	-0.531513
H183	H	0.489631	-0.550839	-0.525118
H184	H	0.435230	-0.499487	-0.559480
C185	C	0.822007	-0.593125	-0.668785
C186	C	0.835614	-0.688564	-0.652867
C187	C	0.795564	-0.750430	-0.685468
H188	H	0.827711	-0.584402	-0.712455
H189	H	0.779902	-0.579082	-0.658018
H190	H	0.877709	-0.702602	-0.663638
H191	H	0.829907	-0.697317	-0.609203
H192	H	0.753459	-0.736388	-0.674701
H193	H	0.801270	-0.741699	-0.729136
H194	H	0.804787	-0.815192	-0.674667
C195	C	0.822065	-0.593089	-0.532308
C196	C	0.857528	-0.654906	-0.494762
C197	C	0.817552	-0.716691	-0.461922
H198	H	0.798177	-0.629914	-0.561075
H199	H	0.794786	-0.556239	-0.506722
H200	H	0.884796	-0.691753	-0.520346
H201	H	0.881415	-0.618108	-0.465984
H202	H	0.790273	-0.679841	-0.436336
H203	H	0.793665	-0.753509	-0.490694
H204	H	0.841607	-0.758635	-0.436439
