data_functionalizedCrystal
_audit_creation_method	'MofGen! by Chris Wilmer'
_symmetry_space_group_name_H-M	'P1'
_symmetry_Int_Tables_number	1
_symmetry_cell_setting	triclinic
loop_
_symmetry_equiv_pos_as_xyz
  x,y,z
_cell_length_a	12.827893
_cell_length_b	11.169416
_cell_length_c	11.169409
_cell_angle_alpha	89.969126
_cell_angle_beta	90.021188
_cell_angle_gamma	89.989689
loop_
_atom_site_label
_atom_site_type_symbol
_atom_site_fract_x
_atom_site_fract_y
_atom_site_fract_z
Zn1	Zn	1.597726	0.477711	0.678599
Zn2	Zn	1.597630	0.678451	0.477921
Zn3	Zn	1.422962	0.477781	0.477928
Zn4	Zn	1.422968	0.678351	0.678561
O5	O	1.510321	0.578073	0.578252
O6	O	1.743949	0.504352	0.651991
O7	O	1.574417	0.651904	0.309972
O8	O	1.446182	0.309822	0.504567
O9	O	1.743879	0.651836	0.504554
O10	O	1.574581	0.309770	0.651998
O11	O	1.446089	0.504472	0.309977
O12	O	1.276726	0.504374	0.504530
O13	O	1.446193	0.651664	0.846516
O14	O	1.276731	0.651732	0.651934
O15	O	1.574587	0.504255	0.846543
O16	O	1.574423	0.846388	0.504517
O17	O	1.446100	0.846314	0.651926
C18	C	1.238811	0.578050	0.578229
C19	C	1.122658	0.578069	0.578248
C20	C	1.510280	0.889898	0.578243
C21	C	1.510358	1.023298	0.578279
C22	C	1.510402	0.577940	0.891295
C23	C	1.510436	0.577883	1.024695
C24	C	1.070904	0.651100	0.651076
C25	C	0.950853	0.651122	0.651097
C26	C	1.782891	0.578097	0.578276
C27	C	1.899045	0.578108	0.578286
C28	C	1.510391	0.265031	0.578287
C29	C	1.510421	0.131631	0.578303
C30	C	1.510302	0.578120	0.266427
C31	C	1.510470	0.577838	0.133028
H32	H	1.115471	0.713605	0.713415
H33	H	0.906345	0.713650	0.713443
H34	H	1.078091	0.515556	0.515918
C35	C	0.959155	0.493632	0.494045
C36	C	1.034243	0.399529	0.546271
C37	C	1.094363	0.315053	0.462031
C38	C	1.079395	0.324680	0.325564
C39	C	1.004304	0.418787	0.273330
C40	C	0.944184	0.503263	0.357571
H41	H	1.045326	0.392399	0.647299
H42	H	1.149950	0.245389	0.500698
H43	H	1.123899	0.262146	0.263204
H44	H	0.993220	0.425917	0.172303
H45	H	0.888597	0.572927	0.318903
