data_functionalizedCrystal
_audit_creation_method	'MofGen! by Chris Wilmer'
_symmetry_space_group_name_H-M	'P1'
_symmetry_Int_Tables_number	1
_symmetry_cell_setting	triclinic
loop_
_symmetry_equiv_pos_as_xyz
  x,y,z
_cell_length_a	19.077105
_cell_length_b	14.908178
_cell_length_c	19.076919
_cell_angle_alpha	91.159747
_cell_angle_beta	89.923776
_cell_angle_gamma	90.879305
loop_
_atom_site_label
_atom_site_type_symbol
_atom_site_fract_x
_atom_site_fract_y
_atom_site_fract_z
Zn1	Zn	1.039568	-0.434467	0.420095
Zn2	Zn	1.037992	-0.578863	0.295834
Zn3	Zn	0.927303	-0.422436	0.298451
Zn4	Zn	0.915837	-0.578321	0.408612
O5	O	0.980175	-0.503522	0.355748
O6	O	1.137464	-0.458883	0.407322
O7	O	1.027448	-0.553304	0.198075
O8	O	0.947654	-0.298363	0.320489
O9	O	1.136306	-0.564970	0.316028
O10	O	1.030134	-0.307202	0.409860
O11	O	0.946126	-0.438378	0.199998
O12	O	0.827677	-0.437853	0.309354
O13	O	0.928111	-0.564047	0.508242
O14	O	0.819253	-0.552381	0.390288
O15	O	1.019015	-0.458358	0.516678
O16	O	1.016329	-0.704460	0.304893
O17	O	0.926582	-0.704062	0.387751
C18	C	0.798027	-0.493754	0.348859
C19	C	0.720102	-0.489597	0.345928
C20	C	0.679124	-0.547357	0.386615
C21	C	0.605905	-0.543439	0.383864
C22	C	0.573666	-0.481767	0.340423
C23	C	0.614649	-0.424002	0.299735
C24	C	0.687867	-0.427915	0.302490
C25	C	0.355158	-0.463656	0.327678
C26	C	0.281935	-0.459749	0.324924
C27	C	0.273196	-0.579186	0.409055
C28	C	0.346416	-0.583097	0.411803
C29	C	0.387393	-0.525329	0.371117
N30	N	0.498825	-0.477764	0.337609
N31	N	0.462232	-0.529329	0.373936
C32	C	0.970059	-0.736847	0.344808
C33	C	0.965794	-0.836670	0.340153
C34	C	1.043595	-1.033301	0.424563
C35	C	1.039591	-1.127093	0.420192
C36	C	0.953778	-1.118048	0.327045
C37	C	0.957782	-1.024256	0.331416
C38	C	1.002693	-0.981886	0.380176
C39	C	1.006701	-0.888092	0.384543
C40	C	0.920885	-0.879048	0.291399
C41	C	0.916880	-0.972840	0.287028
C42	C	1.163034	-0.513329	0.362664
C43	C	1.240957	-0.517508	0.365611
C44	C	0.972460	-0.512484	0.538609
C45	C	0.969172	-0.516303	0.616533
C46	C	0.990349	-0.269287	0.366747
C47	C	0.994684	-0.169470	0.371434
C48	C	0.987903	-0.494532	0.173603
C49	C	0.991338	-0.490467	0.095696
C50	C	1.014954	-0.463073	0.657536
C51	C	1.011856	-0.466657	0.730754
C52	C	0.962980	-0.523477	0.762968
C53	C	0.917193	-0.576709	0.721960
C54	C	0.920287	-0.573120	0.648744
C55	C	0.948646	-0.540110	0.981471
C56	C	0.945556	-0.543697	1.054693
C57	C	1.040219	-0.433644	1.063482
C58	C	1.043312	-0.430063	0.990264
C59	C	0.997523	-0.483291	0.949262
N60	N	0.959814	-0.527145	0.837809
N61	N	1.000686	-0.479619	0.874423
H62	H	0.705367	-0.597580	0.421987
C63	C	0.869924	-0.631679	0.603641
N64	N	0.831988	-0.675786	0.569670
H65	H	0.572544	-0.590474	0.416995
C66	C	0.863421	-0.639203	0.757399
N67	N	0.822919	-0.686274	0.784090
C68	C	1.062222	-0.408101	0.775854
N69	N	1.100159	-0.363994	0.809823
C70	C	0.898273	-0.598660	0.936379
N71	N	0.860329	-0.642762	0.902413
C72	C	0.381873	-0.650946	0.459588
N73	N	0.408579	-0.702054	0.495577
C74	C	0.732942	-0.364377	0.257729
N75	N	0.766893	-0.316517	0.224016
C76	C	1.097074	-0.367547	0.954834
N77	N	1.137568	-0.320458	0.928149
C78	C	0.875889	-0.822483	0.242570
N79	N	0.842001	-0.779878	0.205791
C80	C	0.246474	-0.391900	0.277135
N81	N	0.219764	-0.340800	0.241140
C82	C	0.228116	-0.642720	0.453811
N83	N	0.194161	-0.690574	0.487526
C84	C	1.090576	-0.375085	1.108590
N85	N	1.128503	-0.330971	1.142565
C86	C	0.891783	-0.606204	1.090127
N87	N	0.851283	-0.653281	1.116816
C88	C	1.056104	-0.841487	0.438180
N89	N	1.093313	-0.806386	0.478582
H90	H	0.388513	-0.416623	0.294543
H91	H	0.588394	-0.373783	0.264367
H92	H	1.080169	-0.998803	0.464261
H93	H	1.072894	-1.168953	0.456341
H94	H	0.917210	-1.152562	0.287350
C95	C	1.068722	-0.400565	0.622108
N96	N	1.109220	-0.353479	0.595425
C97	C	0.867526	-1.019458	0.233353
N98	N	0.830370	-1.054570	0.192907
