data_functionalizedCrystal
_audit_creation_method	'MofGen! by Chris Wilmer'
_symmetry_space_group_name_H-M	'P1'
_symmetry_Int_Tables_number	1
_symmetry_cell_setting	triclinic
loop_
_symmetry_equiv_pos_as_xyz
  x,y,z
_cell_length_a	16.956995
_cell_length_b	16.992695
_cell_length_c	17.766277
_cell_angle_alpha	89.995141
_cell_angle_beta	89.987113
_cell_angle_gamma	83.361347
loop_
_atom_site_label
_atom_site_type_symbol
_atom_site_fract_x
_atom_site_fract_y
_atom_site_fract_z
O1	O	1.060105	0.032363	-0.062646
O2	O	1.560105	0.532363	0.437354
O3	O	0.829695	0.059776	-0.062637
O4	O	1.329695	0.559776	0.437363
O5	O	0.943977	-0.068013	-0.062636
O6	O	1.443977	0.431987	0.437364
O7	O	0.945824	0.160152	-0.062648
O8	O	1.445824	0.660152	0.437352
O9	O	0.943954	-0.068015	0.062553
O10	O	1.443954	0.431985	0.562553
O11	O	0.829672	0.059775	0.062552
O12	O	1.329672	0.559775	0.562552
O13	O	1.060083	0.032361	0.062542
O14	O	1.560083	0.532361	0.562542
Cu15	Cu	0.944875	0.046068	0.073978
Cu16	Cu	1.444875	0.546068	0.573978
Cu17	Cu	0.944902	0.046069	-0.074072
Cu18	Cu	1.444902	0.546069	0.425928
O19	O	0.945801	0.160151	0.062541
O20	O	1.445801	0.660151	0.562541
C21	C	0.800065	0.061179	-0.000041
C22	C	1.300065	0.561179	0.499959
C23	C	0.711811	0.065352	-0.000037
C24	C	1.211811	0.565352	0.499963
C25	C	0.941589	-0.097073	-0.000041
C26	C	1.441589	0.402927	0.499959
C27	C	0.934498	-0.183657	-0.000041
C28	C	1.434498	0.316343	0.499959
C29	C	0.214500	0.096570	-0.000067
C30	C	0.714500	0.596570	0.499933
C31	C	0.297425	0.092643	-0.000066
C32	C	0.797425	0.592643	0.499934
C33	C	0.343815	0.018931	-0.000057
C34	C	0.843815	0.518931	0.499943
C35	C	0.307278	-0.050860	-0.000056
C36	C	0.807278	0.449140	0.499944
C37	C	0.224354	-0.046932	-0.000062
C38	C	0.724354	0.453068	0.499938
C39	C	0.592349	-0.000510	-0.000042
C40	C	1.092349	0.499490	0.499958
C41	C	0.675278	-0.004433	-0.000034
C42	C	1.175278	0.495567	0.499966
C43	C	0.665419	0.139071	-0.000046
C44	C	1.165419	0.639071	0.499954
C45	C	0.582495	0.142992	-0.000048
C46	C	1.082495	0.642992	0.499952
C47	C	0.545964	0.073202	-0.000051
C48	C	1.045964	0.573202	0.499949
N49	N	0.428578	0.014915	-0.000054
N50	N	0.928578	0.514915	0.499946
N51	N	0.461203	0.077218	-0.000059
N52	N	0.961203	0.577218	0.499941
C53	C	1.002913	-0.238332	-0.000043
C54	C	1.502913	0.261668	0.499957
C55	C	0.996246	-0.319686	-0.000050
C56	C	1.496246	0.180314	0.499950
C57	C	0.921163	-0.346365	-0.000050
C58	C	1.421163	0.153635	0.499950
C59	C	0.852743	-0.291683	-0.000050
C60	C	1.352743	0.208317	0.499950
C61	C	0.859411	-0.210331	-0.000048
C62	C	1.359411	0.289669	0.499952
C63	C	0.893527	-0.588171	-0.000059
C64	C	1.393527	-0.088171	0.499941
C65	C	0.886865	-0.669531	-0.000058
C66	C	1.386865	-0.169531	0.499942
C67	C	1.030368	-0.697528	-0.000060
C68	C	1.530368	-0.197528	0.499940
C69	C	1.037029	-0.616172	-0.000054
C70	C	1.537029	-0.116172	0.499946
C71	C	0.968609	-0.561498	-0.000058
C72	C	1.468609	-0.061498	0.499942
N73	N	0.914346	-0.429522	-0.000054
N74	N	1.414346	0.070478	0.499946
N75	N	0.975427	-0.478343	-0.000059
N76	N	1.475427	0.021657	0.499941
C77	C	1.089713	0.030958	-0.000055
C78	C	1.589713	0.530958	0.499945
C79	C	1.177967	0.026785	-0.000064
C80	C	1.677967	0.526785	0.499936
C81	C	0.948189	0.189210	-0.000055
C82	C	1.448189	0.689210	0.499945
C83	C	0.955280	0.275795	-0.000060
C84	C	1.455280	0.775795	0.499940
N85	N	0.944862	0.046066	0.178108
N86	N	1.444862	0.546066	0.678108
C87	C	0.996036	0.090337	0.217484
C88	C	1.496036	0.590337	0.717484
C89	C	0.996048	0.090335	0.296286
C90	C	1.496048	0.590335	0.796286
C91	C	0.944872	0.046071	0.335709
C92	C	1.444872	0.546071	0.835709
C93	C	0.893694	0.001790	0.296323
C94	C	1.393694	0.501790	0.796323
C95	C	0.893689	0.001788	0.217523
C96	C	1.393689	0.501788	0.717523
C97	C	0.873140	0.048516	0.460571
C98	C	1.373140	0.548516	0.960571
C99	C	0.873144	0.048524	0.539370
C100	C	1.373144	0.548524	1.039370
C101	C	0.944887	0.046074	0.578755
C102	C	1.444887	0.546074	1.078755
C103	C	1.016629	0.043631	0.539331
C104	C	1.516629	0.543631	1.039331
C105	C	1.016624	0.043629	0.460531
C106	C	1.516624	0.543629	0.960531
C107	C	0.944872	0.046068	0.421154
C108	C	1.444872	0.546068	0.921154
C109	C	0.996078	0.090345	0.703577
C110	C	1.496078	0.590345	1.203577
C111	C	0.996091	0.090336	0.782380
C112	C	1.496091	0.590336	1.282380
C113	C	0.893730	0.001797	0.782416
C114	C	1.393730	0.501797	1.282416
C115	C	0.893724	0.001800	0.703614
C116	C	1.393724	0.501800	1.203614
C117	C	0.944897	0.046078	0.664199
C118	C	1.444897	0.546078	1.164199
N119	N	0.944915	0.046071	0.821797
N120	N	1.444915	0.546071	1.321797
H121	H	0.327165	0.149470	-0.000076
H122	H	0.827165	0.649470	0.499924
O123	O	1.051293	0.138090	0.824849
O124	O	1.551293	0.638090	1.324849
H125	H	1.091601	0.097912	0.860734
H126	H	1.591601	0.597912	1.360734
O127	O	0.795744	0.051129	0.418117
O128	O	1.295744	0.551129	0.918117
H129	H	0.796714	-0.002448	0.382242
H130	H	1.296714	0.497552	0.882242
H131	H	1.086072	-0.742052	-0.000058
H132	H	1.586072	-0.242052	0.499942
O133	O	1.051234	0.138090	0.174976
O134	O	1.551234	0.638090	0.674976
H135	H	1.042632	0.130657	0.113565
H136	H	1.542632	0.630657	0.613565
H137	H	0.345056	-0.110878	-0.000052
H138	H	0.845056	0.389122	0.499948
O139	O	0.805879	-0.698310	-0.000066
O140	O	1.305879	-0.198310	0.499934
H141	H	0.759422	-0.646625	-0.000077
H142	H	1.259422	-0.146625	0.499923
O143	O	0.532458	0.222496	-0.000057
O144	O	1.032458	0.722496	0.499943
H145	H	0.571793	0.270364	-0.000063
H146	H	1.071793	0.770364	0.499937
H147	H	0.837815	-0.543665	-0.000062
H148	H	1.337815	-0.043665	0.499938
O149	O	0.552950	-0.075779	-0.000042
O150	O	1.052950	0.424221	0.499958
H151	H	0.515383	-0.077415	0.050976
H152	H	1.015383	0.422585	0.550976
H153	H	0.695172	0.195890	-0.000045
H154	H	1.195172	0.695890	0.499955
O155	O	1.051273	0.138098	0.661062
O156	O	1.551273	0.638098	1.161062
H157	H	1.042663	0.130671	0.599651
H158	H	1.542663	0.630671	1.099651
H159	H	0.814727	0.050517	0.571463
H160	H	1.314727	0.550517	1.071463
O161	O	0.771758	-0.320451	-0.000041
O162	O	1.271758	0.179549	0.499959
H163	H	0.778613	-0.386207	-0.000032
H164	H	1.278613	0.113793	0.499968
O165	O	0.838491	-0.045950	0.338837
O166	O	1.338491	0.454050	0.838837
H167	H	0.847084	-0.038503	0.400247
H168	H	1.347084	0.461497	0.900247
O169	O	0.184948	-0.122201	-0.000048
O170	O	0.684948	0.377799	0.499952
H171	H	0.203247	-0.157368	-0.051064
H172	H	0.703247	0.342632	0.448936
O173	O	0.725319	-0.083941	-0.000032
O174	O	1.225319	0.416059	0.499968
H175	H	0.685987	-0.131811	-0.000044
H176	H	1.185987	0.368189	0.499956
H177	H	0.852062	-0.034245	0.814513
H178	H	1.352062	0.465755	1.314513
H179	H	0.852049	-0.034247	0.671554
H180	H	1.352049	0.465753	1.171554
O181	O	1.083895	-0.209558	-0.000051
O182	O	1.583895	0.290442	0.499949
H183	H	1.130347	-0.261247	-0.000063
H184	H	1.630347	0.238753	0.499937
H185	H	0.176733	0.156595	-0.000069
H186	H	0.676733	0.656595	0.499931
H187	H	0.803700	-0.165814	-0.000047
H188	H	1.303700	0.334186	0.499953
O189	O	1.051238	0.138093	0.338771
O190	O	1.551238	0.638093	0.838771
H191	H	1.086816	0.168886	0.298124
H192	H	1.586816	0.668886	0.798124
O193	O	1.093996	0.040978	0.418006
O194	O	1.593996	0.540978	0.918006
H195	H	1.143889	0.039266	0.458625
H196	H	1.643889	0.539266	0.958625
H197	H	0.852015	-0.034264	0.185463
H198	H	1.352015	0.465736	0.685463
O199	O	1.094019	0.040981	0.581796
O200	O	1.594019	0.540981	1.081796
H201	H	1.081975	0.041381	0.643214
H202	H	1.581975	0.541381	1.143214
H203	H	1.098170	-0.594458	-0.000054
H204	H	1.598170	-0.094458	0.499946
O205	O	1.070035	-0.378659	-0.000040
O206	O	1.570035	0.121341	0.499960
H207	H	1.123364	-0.346441	-0.000026
H208	H	1.623364	0.153559	0.499974
