data_functionalizedCrystal
_audit_creation_method	'MofGen! by Chris Wilmer'
_symmetry_space_group_name_H-M	'P1'
_symmetry_Int_Tables_number	1
_symmetry_cell_setting	triclinic
loop_
_symmetry_equiv_pos_as_xyz
  x,y,z
_cell_length_a	19.121459
_cell_length_b	19.121308
_cell_length_c	12.759393
_cell_angle_alpha	87.582439
_cell_angle_beta	87.526490
_cell_angle_gamma	94.743365
loop_
_atom_site_label
_atom_site_type_symbol
_atom_site_fract_x
_atom_site_fract_y
_atom_site_fract_z
Zn1	Zn	-0.325912	-1.087590	-0.503863
Zn2	Zn	-0.443590	-1.092516	-0.320358
Zn3	Zn	-0.320935	-0.969928	-0.336019
Zn4	Zn	-0.438525	-0.974914	-0.503818
O5	O	-0.382241	-1.031237	-0.416015
O6	O	-0.345726	-1.186702	-0.472986
O7	O	-0.427357	-1.076230	-0.175414
O8	O	-0.223135	-0.981387	-0.364858
O9	O	-0.432183	-1.190322	-0.338165
O10	O	-0.226792	-1.067833	-0.488172
O11	O	-0.337243	-0.986165	-0.186920
O12	O	-0.332331	-0.872130	-0.364813
O13	O	-0.423549	-0.989885	-0.650846
O14	O	-0.418723	-0.875793	-0.488094
O15	O	-0.340814	-1.072668	-0.650879
O16	O	-0.541378	-1.081064	-0.338121
O17	O	-0.537657	-0.994662	-0.472908
C18	C	-0.374438	-0.848432	-0.428149
C19	C	-0.371116	-0.770228	-0.433364
C20	C	-0.350022	-0.327826	-0.466437
C21	C	-0.353156	-0.401308	-0.461531
C22	C	-0.399662	-0.439921	-0.388779
C23	C	-0.443043	-0.405049	-0.320938
C24	C	-0.439913	-0.331569	-0.325850
C25	C	-0.411366	-0.661876	-0.370435
C26	C	-0.414492	-0.735361	-0.365525
C27	C	-0.324606	-0.731615	-0.506120
C28	C	-0.321476	-0.658134	-0.511022
C29	C	-0.364859	-0.623268	-0.443184
C30	C	-0.402865	-0.515030	-0.383760
C31	C	-0.361660	-0.548160	-0.448209
C32	C	-0.565048	-1.038958	-0.403832
C33	C	-0.643256	-1.042325	-0.398651
C34	C	-1.085685	-1.063644	-0.365802
C35	C	-1.012199	-1.060474	-0.370673
C36	C	-0.973545	-1.013872	-0.443235
C37	C	-1.008380	-0.970433	-0.510924
C38	C	-1.081864	-0.973600	-0.506048
C39	C	-0.751575	-1.002053	-0.461463
C40	C	-0.678086	-0.998891	-0.466337
C41	C	-0.681910	-1.088932	-0.326083
C42	C	-0.755396	-1.092098	-0.321217
C43	C	-0.790224	-1.048656	-0.388902
C44	C	-0.898431	-1.010632	-0.448218
C45	C	-0.865337	-1.051893	-0.383914
C46	C	-0.198720	-1.023505	-0.428267
C47	C	-0.120515	-1.020210	-0.433488
C48	C	-0.382172	-1.031283	-0.690049
C49	C	-0.382142	-1.031303	-0.806827
C50	C	-0.390071	-0.214755	-0.403822
C51	C	-0.393398	-0.292959	-0.398599
C52	C	-0.339058	-1.074414	-0.861708
C53	C	-0.339033	-1.074429	-0.971433
C54	C	-0.425183	-0.988221	-0.971385
C55	C	-0.425204	-0.988203	-0.861663
C56	C	-0.289322	-1.124188	-0.861736
C57	C	-0.289297	-1.124203	-0.971461
C58	C	-0.382260	-1.031229	-0.143046
C59	C	-0.382097	-1.031337	-0.026274
H60	H	-0.452366	-0.766798	-0.306280
C61	C	-0.856586	-0.959977	-0.527054
C62	C	-0.902813	-0.922607	-0.585287
C63	C	-0.864289	-0.875935	-0.657914
H64	H	-0.829018	-0.985573	-0.573067
H65	H	-0.826671	-0.928060	-0.490798
H66	H	-0.932716	-0.954520	-0.621542
H67	H	-0.930382	-0.896998	-0.539303
H68	H	-0.834373	-0.844018	-0.621657
H69	H	-0.836722	-0.901536	-0.703919
H70	H	-0.895647	-0.850569	-0.697427
H71	H	-0.896812	-1.089834	-0.324830
H72	H	-0.475235	-0.303181	-0.270611
H73	H	-0.312147	-0.296392	-0.525673
C74	C	-0.311908	-1.197725	-1.004843
C75	C	-0.325763	-1.242681	-0.915568
C76	C	-0.346603	-1.310408	-0.946278
H77	H	-0.275419	-1.214362	-1.047462
H78	H	-0.353148	-1.196535	-1.043603
H79	H	-0.284528	-1.243873	-0.876825
H80	H	-0.362256	-1.226067	-0.872939
H81	H	-0.387843	-1.309219	-0.985038
H82	H	-0.310111	-1.327038	-0.988898
H83	H	-0.356012	-1.340918	-0.885711
H84	H	-0.317837	-0.429693	-0.516776
C85	C	-0.270961	-0.616339	-0.590118
C86	C	-0.233655	-0.662603	-0.648497
C87	C	-0.187118	-0.624127	-0.721375
H88	H	-0.238989	-0.586359	-0.554085
H89	H	-0.296676	-0.588843	-0.636003
H90	H	-0.207942	-0.690086	-0.602618
H91	H	-0.265609	-0.692583	-0.684552
H92	H	-0.212833	-0.596631	-0.767260
H93	H	-0.155150	-0.594149	-0.685333
H94	H	-0.161805	-0.655511	-0.761000
H95	H	-0.289286	-0.760011	-0.561351
C96	C	-0.458492	-0.624156	-0.296648
C97	C	-0.499871	-0.673701	-0.231864
C98	C	-0.543285	-0.638976	-0.163864
H99	H	-0.488027	-0.596803	-0.336502
H100	H	-0.430332	-0.594352	-0.254595
H101	H	-0.528029	-0.703493	-0.273912
H102	H	-0.470355	-0.701057	-0.191987
H103	H	-0.515125	-0.609172	-0.121811
H104	H	-0.572815	-0.611624	-0.203727
H105	H	-0.571361	-0.672587	-0.119894
H106	H	-0.480912	-0.436493	-0.261706
C107	C	-0.311278	-0.506155	-0.527253
C108	C	-0.349375	-0.465667	-0.594633
C109	C	-0.302985	-0.426949	-0.667449
H110	H	-0.285869	-0.537359	-0.567061
H111	H	-0.279381	-0.476138	-0.491126
H112	H	-0.381260	-0.495681	-0.630757
H113	H	-0.374783	-0.434450	-0.554855
H114	H	-0.271088	-0.396932	-0.631322
H115	H	-0.277578	-0.458159	-0.707250
H116	H	-0.328827	-0.399469	-0.713169
H117	H	-0.234210	-1.107295	-0.836574
C118	C	-1.127682	-1.114344	-0.287195
C119	C	-1.171699	-1.161249	-0.340961
C120	C	-1.210385	-1.207975	-0.268585
H121	H	-1.155314	-1.088780	-0.241226
H122	H	-1.096428	-1.139798	-0.247606
H123	H	-1.202949	-1.135798	-0.380533
H124	H	-1.144085	-1.186829	-0.386925
H125	H	-1.179131	-1.233429	-0.228996
H126	H	-1.238013	-1.182405	-0.222620
H127	H	-1.240250	-1.239809	-0.305056
H128	H	-0.311061	-1.176765	-0.822961
H129	H	-0.440728	-0.546477	-0.324522
C130	C	-0.219090	-1.095297	-1.022993
C131	C	-0.172604	-1.076124	-0.945288
C132	C	-0.107923	-1.049501	-0.992721
H133	H	-0.225618	-1.055272	-1.067008
H134	H	-0.200211	-1.130277	-1.063854
H135	H	-0.191479	-1.041147	-0.904444
H136	H	-0.166055	-1.116137	-0.901268
H137	H	-0.089044	-1.084481	-1.033582
H138	H	-0.114458	-1.009479	-1.036735
H139	H	-0.076373	-1.036495	-0.940005
H140	H	-0.983841	-1.095841	-0.315557
C141	C	-0.797235	-1.142713	-0.242321
C142	C	-0.751002	-1.180061	-0.184066
C143	C	-0.789519	-1.226690	-0.111370
H144	H	-0.827166	-1.174652	-0.278491
H145	H	-0.824786	-1.117065	-0.196338
H146	H	-0.723464	-1.205708	-0.230042
H147	H	-0.721070	-1.148141	-0.147873
H148	H	-0.817070	-1.201041	-0.065388
H149	H	-0.819449	-1.258624	-0.147550
H150	H	-0.758156	-1.252031	-0.071829
H151	H	-0.460285	-0.953095	-0.816983
C152	C	-0.471915	-0.941509	-1.031110
C153	C	-0.462689	-0.950763	-1.138946
C154	C	-0.505735	-0.907751	-1.193993
H155	H	-0.459647	-0.893772	-1.017079
H156	H	-0.519649	-0.953803	-1.009342
H157	H	-0.414966	-0.938464	-1.160706
H158	H	-0.474961	-0.998492	-1.153009
H159	H	-0.553469	-0.920045	-1.172225
H160	H	-0.493464	-0.860016	-1.179953
H161	H	-0.499486	-0.914029	-1.267164
H162	H	-0.653546	-1.124299	-0.270976
H163	H	-0.646618	-0.960940	-0.525430
H164	H	-0.976904	-0.932485	-0.570003
C165	C	-1.119555	-0.926412	-0.579665
C166	C	-1.069978	-0.884936	-0.644277
C167	C	-1.104671	-0.841462	-0.712115
H168	H	-1.146961	-0.896944	-0.539690
H169	H	-1.149306	-0.954530	-0.621846
H170	H	-1.040239	-0.856821	-0.602101
H171	H	-1.042569	-0.914385	-0.684275
H172	H	-1.134423	-0.869579	-0.754296
H173	H	-1.132077	-0.811998	-0.672131
H174	H	-1.071039	-0.813320	-0.755969
H175	H	-0.779924	-0.966675	-0.516570
