data_functionalizedCrystal
_audit_creation_method	'MofGen! by Chris Wilmer'
_symmetry_space_group_name_H-M	'P1'
_symmetry_Int_Tables_number	1
_symmetry_cell_setting	triclinic
loop_
_symmetry_equiv_pos_as_xyz
  x,y,z
_cell_length_a	15.995350
_cell_length_b	15.995350
_cell_length_c	14.472310
_cell_angle_alpha	89.998838
_cell_angle_beta	89.990621
_cell_angle_gamma	96.507625
loop_
_atom_site_label
_atom_site_type_symbol
_atom_site_fract_x
_atom_site_fract_y
_atom_site_fract_z
O1	O	1.110997	-0.107921	-0.076758
O2	O	0.867221	-0.121248	-0.076776
O3	O	0.995773	0.007303	-0.076766
O4	O	0.982445	-0.236472	-0.076769
O5	O	0.995740	0.007296	0.076916
O6	O	0.867188	-0.121256	0.076906
O7	O	1.110963	-0.107928	0.076924
Cu8	Cu	0.989073	-0.114593	0.090947
Cu9	Cu	0.989112	-0.114584	-0.090800
O10	O	0.982412	-0.236480	0.076913
C11	C	0.836010	-0.120701	0.000062
C12	C	0.743060	-0.119049	0.000055
C13	C	0.995205	0.038494	0.000073
C14	C	0.993553	0.131444	0.000068
C15	C	0.405312	-0.113117	0.000074
C16	C	0.452746	-0.021565	0.000418
C17	C	0.549436	-0.023217	0.000065
C18	C	0.572873	-0.116060	0.000065
C19	C	0.531804	-0.161212	-0.087692
C20	C	0.435169	-0.158912	-0.087759
C21	C	0.434792	-0.160812	0.087007
C22	C	0.531737	-0.160790	0.088160
C23	C	0.667570	-0.117727	0.000057
C24	C	0.310614	-0.111452	0.000076
C25	C	1.142175	-0.108476	0.000083
C26	C	1.235125	-0.110127	0.000084
C27	C	0.982980	-0.267671	0.000072
C28	C	0.984631	-0.360621	0.000071
N29	N	0.989051	-0.114598	0.218778
C30	C	0.987621	0.469192	0.000071
C31	C	0.896069	0.421758	-0.000281
C32	C	0.897721	0.325068	0.000066
C33	C	0.990564	0.301631	0.000069
C34	C	1.035701	0.342705	0.087831
C35	C	1.033401	0.439340	0.087904
C36	C	1.035330	0.439707	-0.086861
C37	C	1.035309	0.342762	-0.088021
C38	C	0.992231	0.206934	0.000071
C39	C	0.985956	0.563890	0.000075
N40	N	0.989140	-0.114572	-0.218631
C41	C	0.989111	-0.114581	0.592869
C42	C	0.920095	-0.183135	0.553698
C43	C	0.920254	-0.183385	0.446610
C44	C	0.989081	-0.114590	0.407278
C45	C	1.076445	-0.133671	0.446122
C46	C	1.076057	-0.134159	0.553243
C47	C	0.971542	-0.026741	0.553398
C48	C	0.969538	-0.027327	0.446270
C49	C	0.989069	-0.114593	0.302390
C50	C	0.989128	-0.114579	0.697757
H51	H	0.577852	0.012275	0.062973
C52	C	0.849437	0.287412	0.085197
C53	C	0.809257	0.345334	0.153080
C54	C	0.760974	0.307680	0.238217
C55	C	0.752869	0.212103	0.255471
C56	C	0.793050	0.154175	0.187585
C57	C	0.841334	0.191830	0.102448
H58	H	0.815256	0.416091	0.140309
H59	H	0.731229	0.350562	0.288470
H60	H	0.717127	0.184229	0.318494
H61	H	0.787052	0.083418	0.200356
H62	H	0.871079	0.148947	0.052195
H63	H	1.000459	0.457639	0.153505
H64	H	0.855314	-0.172016	0.420349
C65	C	0.887330	-0.001964	0.589920
C66	C	0.873799	0.007650	0.694562
C67	C	0.789584	0.032416	0.731085
C68	C	0.718899	0.047567	0.662966
C69	C	0.732428	0.037953	0.558318
C70	C	0.816643	0.013187	0.521795
H71	H	0.926126	-0.003566	0.744994
H72	H	0.779569	0.039533	0.808554
H73	H	0.656558	0.065900	0.690003
H74	H	0.680101	0.049168	0.507886
H75	H	0.826658	0.006070	0.444326
H76	H	1.103014	0.327400	-0.093317
H77	H	1.004324	0.314320	0.153137
H78	H	1.100617	0.471588	0.091888
C79	C	0.410448	-0.114417	-0.176375
C80	C	0.447056	-0.022837	-0.195578
C81	C	0.422342	0.021661	-0.284195
C82	C	0.361019	-0.025420	-0.353610
C83	C	0.324407	-0.117005	-0.334410
C84	C	0.349122	-0.161503	-0.245792
H85	H	0.492455	0.012020	-0.144191
H86	H	0.449445	0.089458	-0.298408
H87	H	0.342724	0.007520	-0.419210
H88	H	0.279009	-0.151862	-0.385796
H89	H	0.322019	-0.229300	-0.231579
H90	H	0.402921	-0.226128	-0.091741
C91	C	1.039527	0.042183	0.587620
C92	C	1.036402	0.134351	0.558406
C93	C	1.104389	0.203267	0.592633
C94	C	1.175502	0.180015	0.656075
C95	C	1.178629	0.087842	0.685293
C96	C	1.110642	0.018927	0.651066
H97	H	0.983758	0.151568	0.511439
H98	H	1.102074	0.271499	0.571004
H99	H	1.225830	0.231030	0.681413
H100	H	1.231274	0.070626	0.732260
H101	H	1.112958	-0.049306	0.672695
C102	C	1.127846	0.323621	0.092255
C103	C	1.163261	0.270394	0.016045
C104	C	1.255405	0.251309	0.020467
C105	C	1.312133	0.285452	0.101099
C106	C	1.276719	0.338682	0.177315
C107	C	1.184575	0.357767	0.172892
H108	H	1.121266	0.245116	-0.043649
H109	H	1.281620	0.211904	-0.035953
H110	H	1.380343	0.271324	0.104373
H111	H	1.318713	0.363960	0.237009
H112	H	1.158359	0.397173	0.229313
C113	C	1.033041	0.044822	0.410115
C114	C	1.088242	0.100328	0.478549
C115	C	1.151756	0.172473	0.442397
C116	C	1.160070	0.189111	0.337811
C117	C	1.104868	0.133603	0.269371
C118	C	1.041353	0.061459	0.305523
H119	H	1.082089	0.088013	0.555976
H120	H	1.192621	0.213564	0.493062
H121	H	1.207088	0.242517	0.311049
H122	H	1.111021	0.145919	0.191944
H123	H	1.000489	0.020368	0.254858
C124	C	0.990732	0.305958	-0.175734
C125	C	1.022789	0.336273	-0.271726
C126	C	0.978182	0.299498	-0.359436
C127	C	0.901517	0.232408	-0.351154
C128	C	0.869455	0.202090	-0.255158
C129	C	0.914063	0.238865	-0.167448
H130	H	1.079545	0.385940	-0.277861
H131	H	1.001917	0.321942	-0.430499
H132	H	0.868495	0.205185	-0.416083
H133	H	0.812699	0.152423	-0.249024
H134	H	0.890328	0.216421	-0.096386
C135	C	0.391886	-0.252000	0.087818
C136	C	0.405588	-0.311472	0.006906
C137	C	0.362677	-0.402656	0.007709
C138	C	0.306065	-0.434369	0.089425
C139	C	0.292360	-0.374896	0.170344
C140	C	0.335270	-0.283711	0.169540
H141	H	0.447498	-0.287998	-0.053590
H142	H	0.372823	-0.446682	-0.052192
H143	H	0.274300	-0.501868	0.090020
H144	H	0.250450	-0.398370	0.230840
H145	H	0.325125	-0.239686	0.229441
H146	H	0.577308	0.012521	-0.062951
H147	H	0.559040	-0.127830	0.153082
C148	C	0.994914	0.467451	-0.176727
C149	C	1.047250	0.525654	-0.245160
C150	C	1.006824	0.553397	-0.335020
C151	C	0.914062	0.522937	-0.356447
C152	C	0.861721	0.464730	-0.288013
C153	C	0.902147	0.436987	-0.198153
H154	H	1.115923	0.548206	-0.229299
H155	H	1.045571	0.596485	-0.385679
H156	H	0.884136	0.543473	-0.422967
H157	H	0.793048	0.442179	-0.303873
H158	H	0.863400	0.393899	-0.147494
H159	H	0.859490	0.440293	-0.063217
H160	H	0.434210	0.015027	0.063352
H161	H	1.102831	0.471468	-0.087449
C162	C	1.097865	-0.219228	0.409877
C163	C	1.177897	-0.224052	0.351874
C164	C	1.199311	-0.309611	0.315631
C165	C	1.140693	-0.390346	0.337390
C166	C	1.060656	-0.385525	0.395395
C167	C	1.039242	-0.299966	0.431638
H168	H	1.221294	-0.164285	0.335765
H169	H	1.258560	-0.313180	0.272692
H170	H	1.156545	-0.453682	0.310561
H171	H	1.017258	-0.445293	0.411505
H172	H	0.979993	-0.296397	0.474578
H173	H	0.931159	-0.247952	0.580608
H174	H	0.545930	-0.229421	-0.090955
H175	H	0.560193	-0.129845	-0.153002
H176	H	0.414242	-0.130885	0.153524
C177	C	0.882720	-0.007755	0.411976
C178	C	0.829795	-0.070689	0.348863
C179	C	0.742977	-0.051120	0.314562
C180	C	0.709084	0.031382	0.343374
C181	C	0.762009	0.094322	0.406490
C182	C	0.848827	0.074753	0.440791
H183	H	0.854884	-0.131767	0.327532
H184	H	0.703798	-0.097712	0.267840
H185	H	0.644816	0.045869	0.317982
H186	H	0.736920	0.155400	0.427821
H187	H	0.888006	0.121345	0.487514
H188	H	0.931473	-0.248569	0.420976
C189	C	0.426296	0.027658	-0.084126
C190	C	0.361871	-0.014912	-0.153378
C191	C	0.335420	0.034308	-0.237924
C192	C	0.373394	0.126098	-0.253218
C193	C	0.437823	0.168673	-0.183963
C194	C	0.464274	0.119453	-0.099417
H195	H	0.333757	-0.082865	-0.142059
H196	H	0.287726	0.002791	-0.289191
H197	H	0.353814	0.162534	-0.315803
H198	H	0.465937	0.236626	-0.195282
H199	H	0.511969	0.150971	-0.048151
H200	H	0.547101	-0.228494	0.093461
C201	C	0.832086	-0.167965	0.588493
C202	C	0.813320	-0.168763	0.692877
C203	C	0.725314	-0.153556	0.727662
C204	C	0.656072	-0.137551	0.658062
C205	C	0.674836	-0.136752	0.553671
C206	C	0.762843	-0.151960	0.518887
H207	H	0.864579	-0.180611	0.744405
H208	H	0.711424	-0.154146	0.804939
H209	H	0.590924	-0.126293	0.683811
H210	H	0.623578	-0.124904	0.502144
H211	H	0.776733	-0.151369	0.441610
C212	C	0.849772	0.286672	-0.084913
C213	C	0.879345	0.313618	-0.182835
C214	C	0.831385	0.275228	-0.267813
C215	C	0.753853	0.209892	-0.254870
C216	C	0.724276	0.182942	-0.156944
C217	C	0.772236	0.221332	-0.071966
H218	H	0.936742	0.361986	-0.192421
H219	H	0.853280	0.295178	-0.340304
H220	H	0.718350	0.181474	-0.317775
H221	H	0.666879	0.134574	-0.147358
H222	H	0.750341	0.201382	0.000526
C223	C	0.846831	0.448216	0.084259
C224	C	0.889388	0.512648	0.153516
C225	C	0.840152	0.539109	0.238057
C226	C	0.748358	0.501139	0.253341
C227	C	0.705795	0.436703	0.184082
C228	C	0.755032	0.410242	0.099541
H229	H	0.957344	0.540760	0.142204
H230	H	0.871660	0.586809	0.289326
H231	H	0.711910	0.520727	0.315923
H232	H	0.637839	0.408592	0.195395
H233	H	0.723524	0.362542	0.048272
C234	C	1.096965	-0.220701	0.586993
C235	C	1.113899	-0.288887	0.516474
C236	C	1.134805	-0.375432	0.550218
C237	C	1.138777	-0.393791	0.654481
C238	C	1.121843	-0.325603	0.725007
C239	C	1.100937	-0.239058	0.691263
H240	H	1.110958	-0.275298	0.439286
H241	H	1.147340	-0.425909	0.498009
H242	H	1.154253	-0.457857	0.679460
H243	H	1.124783	-0.339192	0.802194
H244	H	1.088402	-0.188581	0.743471
C245	C	1.147489	-0.068017	0.411702
C246	C	1.201787	-0.013321	0.481608
C247	C	1.272828	0.052334	0.447187
C248	C	1.289572	0.063294	0.342858
C249	C	1.235273	0.008596	0.272945
C250	C	1.164231	-0.057059	0.307367
H251	H	1.189393	-0.021432	0.558844
H252	H	1.313024	0.092825	0.498942
H253	H	1.342161	0.111896	0.317378
H254	H	1.247666	0.016707	0.195709
H255	H	1.124035	-0.097550	0.255612
H256	H	1.129018	-0.086196	0.579154
