data_functionalizedCrystal
_audit_creation_method	'MofGen! by Chris Wilmer'
_symmetry_space_group_name_H-M	'P1'
_symmetry_Int_Tables_number	1
_symmetry_cell_setting	triclinic
loop_
_symmetry_equiv_pos_as_xyz
  x,y,z
_cell_length_a	15.944493
_cell_length_b	15.944493
_cell_length_c	13.448316
_cell_angle_alpha	89.999270
_cell_angle_beta	89.993805
_cell_angle_gamma	83.475044
loop_
_atom_site_label
_atom_site_type_symbol
_atom_site_fract_x
_atom_site_fract_y
_atom_site_fract_z
O1	O	1.114535	0.108105	-0.082666
O2	O	1.447868	0.441438	0.250668
O3	O	1.781201	0.774772	0.584001
O4	O	0.869975	0.121512	-0.082669
O5	O	1.203309	0.454846	0.250665
O6	O	1.536642	0.788179	0.583998
O7	O	0.998959	-0.007471	-0.082675
O8	O	1.332292	0.325863	0.250658
O9	O	1.665625	0.659196	0.583991
O10	O	0.985551	0.237088	-0.082659
O11	O	1.318885	0.570422	0.250674
O12	O	1.652218	0.903755	0.584008
O13	O	0.998943	-0.007479	0.082708
O14	O	1.332276	0.325855	0.416042
O15	O	1.665609	0.659188	0.749375
O16	O	0.869959	0.121505	0.082715
O17	O	1.203293	0.454838	0.416048
O18	O	1.536626	0.788171	0.749382
O19	O	1.114518	0.108097	0.082718
O20	O	1.447852	0.441430	0.416052
O21	O	1.781185	0.774764	0.749385
Cu22	Cu	0.992237	0.114800	0.097818
Cu23	Cu	1.325571	0.448133	0.431151
Cu24	Cu	1.658904	0.781467	0.764484
Cu25	Cu	0.992256	0.114809	-0.097768
Cu26	Cu	1.325590	0.448143	0.235565
Cu27	Cu	1.658923	0.781476	0.568899
O28	O	0.985535	0.237080	0.082725
O29	O	1.318868	0.570414	0.416058
O30	O	1.652202	0.903747	0.749392
C31	C	0.838673	0.120961	0.000022
C32	C	1.172006	0.454294	0.333356
C33	C	1.505339	0.787627	0.666689
C34	C	0.745424	0.119318	0.000021
C35	C	1.078758	0.452651	0.333354
C36	C	1.412091	0.785984	0.666687
C37	C	0.509649	0.195240	0.000025
C38	C	0.842982	0.528574	0.333358
C39	C	1.176315	0.861907	0.666692
C40	C	0.459091	0.154294	0.081569
C41	C	0.792424	0.487628	0.414903
C42	C	1.125758	0.820961	0.748236
C43	C	0.574704	0.116273	0.000022
C44	C	0.908037	0.449607	0.333356
C45	C	1.241371	0.782940	0.666689
C46	C	0.459111	0.154283	-0.081486
C47	C	0.792445	0.487617	0.251847
C48	C	1.125778	0.820950	0.585181
C49	C	0.409795	0.113339	0.000020
C50	C	0.743128	0.446672	0.333353
C51	C	1.076462	0.780006	0.666686
C52	C	0.525374	0.075349	0.081634
C53	C	0.858708	0.408682	0.414967
C54	C	1.192041	0.742016	0.748301
C55	C	0.525398	0.075350	-0.081495
C56	C	0.858732	0.408683	0.251839
C57	C	1.192065	0.742016	0.585172
C58	C	0.474873	0.034346	0.000070
C59	C	0.808207	0.367679	0.333403
C60	C	1.141540	0.701012	0.666736
C61	C	0.669704	0.117966	0.000025
C62	C	1.003037	0.451300	0.333358
C63	C	1.336370	0.784633	0.666691
C64	C	0.314798	0.111640	0.000024
C65	C	0.648132	0.444973	0.333358
C66	C	0.981465	0.778307	0.666691
C67	C	0.998403	-0.038769	0.000012
C68	C	1.331736	0.294564	0.333346
C69	C	1.665069	0.627897	0.666679
C70	C	0.996760	-0.132018	-0.000000
C71	C	1.330093	0.201316	0.333333
C72	C	1.663426	0.534649	0.666666
C73	C	1.072682	-0.367793	0.000020
C74	C	1.406016	-0.034460	0.333353
C75	C	1.739349	0.298873	0.666686
C76	C	1.031748	-0.418349	-0.081523
C77	C	1.365081	-0.085016	0.251810
C78	C	1.698415	0.248318	0.585143
C79	C	0.993716	-0.302738	0.000012
C80	C	1.327049	0.030595	0.333345
C81	C	1.660382	0.363929	0.666678
C82	C	1.031714	-0.418333	0.081532
C83	C	1.365047	-0.085000	0.414865
C84	C	1.698380	0.248334	0.748199
C85	C	0.990781	-0.467647	0.000028
C86	C	1.324114	-0.134314	0.333361
C87	C	1.657448	0.199020	0.666695
C88	C	0.952803	-0.352065	-0.081598
C89	C	1.286136	-0.018732	0.251735
C90	C	1.619469	0.314601	0.585068
C91	C	0.952780	-0.352046	0.081530
C92	C	1.286113	-0.018713	0.414864
C93	C	1.619447	0.314621	0.748197
C94	C	0.911788	-0.402569	-0.000032
C95	C	1.245121	-0.069235	0.333301
C96	C	1.578454	0.264098	0.666634
C97	C	0.995408	-0.207739	0.000002
C98	C	1.328742	0.125595	0.333335
C99	C	1.662075	0.458928	0.666668
C100	C	0.989082	-0.562644	0.000031
C101	C	1.322415	-0.229311	0.333364
C102	C	1.655749	0.104023	0.666698
C103	C	1.145821	0.108649	0.000025
C104	C	1.479154	0.441982	0.333358
C105	C	1.812488	0.775316	0.666692
C106	C	1.239069	0.110292	0.000020
C107	C	1.572403	0.443625	0.333354
C108	C	1.905736	0.776959	0.666687
C109	C	0.986091	0.268379	0.000035
C110	C	1.319424	0.601712	0.333368
C111	C	1.652758	0.935046	0.666702
C112	C	0.987734	0.361627	0.000041
C113	C	1.321067	0.694961	0.333374
C114	C	1.654401	1.028294	0.666708
N115	N	0.992230	0.114793	0.235382
N116	N	1.325563	0.448126	0.568715
N117	N	1.658897	0.781460	0.902048
N118	N	0.992270	0.114810	-0.235332
N119	N	1.325604	0.448143	0.098001
N120	N	1.658937	0.781477	0.431334
C121	C	1.049361	0.057703	0.287419
C122	C	1.382695	0.391036	0.620753
C123	C	1.716028	0.724369	0.954086
C124	C	1.049367	0.057702	0.391523
C125	C	1.382700	0.391035	0.724856
C126	C	1.716033	0.724369	1.058189
C127	C	0.992244	0.114796	0.443586
C128	C	1.325577	0.448130	0.776920
C129	C	1.658910	0.781463	1.110253
C130	C	0.935106	0.171889	0.391542
C131	C	1.268440	0.505223	0.724875
C132	C	1.601773	0.838556	1.058208
C133	C	0.935098	0.171885	0.287440
C134	C	1.268431	0.505219	0.620774
C135	C	1.601764	0.838552	0.954107
C136	C	0.935130	0.171895	0.608522
C137	C	1.268463	0.505228	0.941855
C138	C	1.601796	0.838562	1.275188
C139	C	0.935139	0.171900	0.712630
C140	C	1.268472	0.505234	1.045964
C141	C	1.601806	0.838567	1.379297
C142	C	1.049399	0.057712	0.712604
C143	C	1.382732	0.391045	1.045937
C144	C	1.716065	0.724378	1.379271
C145	C	1.049390	0.057708	0.608503
C146	C	1.382723	0.391041	0.941836
C147	C	1.716057	0.724374	1.275169
C148	C	0.992253	0.114802	0.556465
C149	C	1.325587	0.448135	0.889798
C150	C	1.658920	0.781469	1.223132
H151	H	0.430173	0.187652	-0.150416
H152	H	0.763506	0.520985	0.182917
H153	H	1.096839	0.854318	0.516251
C154	C	1.164572	-0.346695	-0.000089
C155	C	1.497905	-0.013362	0.333245
C156	C	1.831239	0.319972	0.666578
N157	N	1.233782	-0.330802	-0.000175
N158	N	1.567115	0.002531	0.333158
N159	N	1.900449	0.335864	0.666492
H160	H	0.525258	0.263261	0.000106
H161	H	0.858592	0.596595	0.333439
H162	H	1.191925	0.929928	0.666772
H163	H	1.065072	-0.447274	0.150466
H164	H	1.398406	-0.113941	0.483799
H165	H	1.731739	0.219392	0.817132
H166	H	0.554202	0.042017	0.150642
H167	H	0.887536	0.375350	0.483975
H168	H	1.220869	0.708684	0.817309
H169	H	0.919480	-0.323235	-0.150610
H170	H	1.252813	0.010098	0.182723
H171	H	1.586146	0.343431	0.516056
C172	C	0.419970	0.199344	0.174703
C173	C	0.753303	0.532677	0.508036
C174	C	1.086637	0.866011	0.841369
N175	N	0.390504	0.233281	0.244846
N176	N	0.723837	0.566615	0.578179
N177	N	1.057170	0.899948	0.911512
H178	H	0.843715	-0.418021	-0.000078
H179	H	1.177048	-0.084687	0.333255
H180	H	1.510382	0.248646	0.666589
C181	C	0.453989	-0.057614	0.000130
C182	C	0.787322	0.275719	0.333463
C183	C	1.120656	0.609052	0.666796
N184	N	0.438255	-0.126877	0.000181
N185	N	0.771589	0.206456	0.333514
N186	N	1.104922	0.539790	0.666848
C187	C	0.907753	-0.312921	0.174669
C188	C	1.241087	0.020412	0.508002
C189	C	1.574420	0.353746	0.841336
N190	N	0.873843	-0.283454	0.244829
N191	N	1.207176	0.049879	0.578163
N192	N	1.540510	0.383212	0.911496
H193	H	1.065104	-0.447298	-0.150462
H194	H	1.398437	-0.113965	0.182871
H195	H	1.731770	0.219368	0.516205
H196	H	0.888623	0.218392	0.755015
H197	H	1.221956	0.551725	1.088349
H198	H	1.555289	0.885058	1.421682
C199	C	0.872255	0.234696	0.230200
C200	C	1.205589	0.568029	0.563533
C201	C	1.538922	0.901363	0.896866
N202	N	0.824921	0.282007	0.187087
N203	N	1.158254	0.615341	0.520421
N204	N	1.491587	0.948674	0.853754
H205	H	0.554358	0.042029	-0.150441
H206	H	0.887691	0.375363	0.182892
H207	H	1.221025	0.708696	0.516225
H208	H	1.095881	0.011213	0.245036
H209	H	1.429214	0.344547	0.578369
H210	H	1.762548	0.677880	0.911702
C211	C	1.112196	-0.005122	0.448759
C212	C	1.445529	0.328211	0.782092
C213	C	1.778863	0.661545	1.115426
N214	N	1.159514	-0.052452	0.491869
N215	N	1.492847	0.280881	0.825202
N216	N	1.826181	0.614215	1.158536
H217	H	1.095908	0.011221	0.566112
H218	H	1.429241	0.344555	0.899446
H219	H	1.762574	0.677888	1.232779
C220	C	1.112247	-0.005096	0.769847
C221	C	1.445580	0.328237	1.103180
C222	C	1.778913	0.661571	1.436514
N223	N	1.159584	-0.052399	0.812967
N224	N	1.492917	0.280934	1.146301
N225	N	1.826250	0.614267	1.479634
C226	C	0.872267	0.234693	0.551283
C227	C	1.205600	0.568027	0.884616
C228	C	1.538934	0.901360	1.217950
N229	N	0.824920	0.281992	0.508171
N230	N	1.158253	0.615325	0.841504
N231	N	1.491586	0.948659	1.174837
H232	H	0.888591	0.218374	0.433938
H233	H	1.221925	0.551707	0.767271
H234	H	1.555258	0.885041	1.100605
