data_functionalizedCrystal
_audit_creation_method	'MofGen! by Chris Wilmer'
_symmetry_space_group_name_H-M	'P1'
_symmetry_Int_Tables_number	1
_symmetry_cell_setting	triclinic
loop_
_symmetry_equiv_pos_as_xyz
  x,y,z
_cell_length_a	16.974829
_cell_length_b	10.654549
_cell_length_c	9.130313
_cell_angle_alpha	89.997317
_cell_angle_beta	86.341162
_cell_angle_gamma	83.940472
loop_
_atom_site_label
_atom_site_type_symbol
_atom_site_fract_x
_atom_site_fract_y
_atom_site_fract_z
O1	O	1.050021	0.160105	-0.246252
O2	O	0.819927	0.180481	-0.218981
O3	O	0.940265	-0.012528	-0.233241
O4	O	0.929684	0.353114	-0.231992
O5	O	0.940256	-0.012534	0.010359
O6	O	0.819919	0.180476	0.024619
O7	O	1.050013	0.160099	-0.002652
Cu8	Cu	0.934965	0.170287	0.033226
Cu9	Cu	0.934975	0.170293	-0.254859
O10	O	0.929675	0.353109	0.011607
C11	C	0.790460	0.179702	-0.093689
C12	C	0.702671	0.177372	-0.083285
C13	C	0.208506	0.164300	-0.010463
C14	C	0.290994	0.166489	-0.020243
C15	C	0.332243	0.167577	-0.157921
C16	C	0.290999	0.166489	-0.285828
C17	C	0.208513	0.164309	-0.276048
C18	C	0.578941	0.174104	-0.201411
C19	C	0.661434	0.176280	-0.211182
C20	C	0.661422	0.176283	0.054404
C21	C	0.578935	0.174095	0.064173
C22	C	0.537698	0.173014	-0.063734
N23	N	0.416558	0.169810	-0.167920
N24	N	0.453383	0.170790	-0.053734
C25	C	0.939484	-0.059317	-0.111351
C26	C	0.937159	-0.198724	-0.111082
C27	C	1.079480	0.160879	-0.127947
C28	C	1.167269	0.163208	-0.138361
C29	C	0.930456	0.399897	-0.110285
C30	C	0.932781	0.539305	-0.110563
N31	N	0.934964	0.170281	0.235849
C32	C	0.864118	0.750885	-0.102427
C33	C	0.861928	0.619898	-0.102162
C34	C	1.005828	0.589703	-0.119216
C35	C	1.008017	0.720688	-0.119470
N36	N	0.934982	0.170289	-0.457483
C37	C	0.988268	0.084852	0.306184
C38	C	0.988275	0.084853	0.459520
C39	C	0.881673	0.255722	0.472172
C40	C	0.881662	0.255715	0.318839
H41	H	0.324566	0.167375	0.083905
O42	O	1.045745	-0.007302	0.216667
H43	H	1.082805	-0.066715	0.291344
O44	O	0.824196	0.347885	0.561679
H45	H	0.785488	0.295063	0.636164
O46	O	0.164016	0.163133	0.138033
H47	H	0.206552	0.164275	0.225324
O48	O	0.534443	0.172936	0.212668
H49	H	0.576975	0.174076	0.299964
H50	H	1.031679	0.015287	0.516783
H51	H	1.063518	0.524073	-0.126047
O52	O	1.086806	0.775037	-0.128816
H53	H	1.091247	0.833975	-0.030047
H54	H	0.545376	0.173219	-0.305563
O55	O	0.705895	0.177470	0.192358
H56	H	0.770182	0.179182	0.162434
H57	H	0.806420	0.816497	-0.095592
O58	O	0.824167	0.347853	0.242952
H59	H	0.834776	0.445752	0.271083
O60	O	0.705928	0.177467	-0.359684
H61	H	0.663395	0.176363	-0.446984
H62	H	0.324590	0.167382	-0.397929
H63	H	0.802450	0.578877	-0.095109
O64	O	0.164031	0.163103	-0.413992
H65	H	0.206572	0.164206	-0.511373
