data_functionalizedCrystal
_audit_creation_method	'MofGen! by Chris Wilmer'
_symmetry_space_group_name_H-M	'P1'
_symmetry_Int_Tables_number	1
_symmetry_cell_setting	triclinic
loop_
_symmetry_equiv_pos_as_xyz
  x,y,z
_cell_length_a	10.489711
_cell_length_b	10.489741
_cell_length_c	14.472310
_cell_angle_alpha	89.999301
_cell_angle_beta	89.985402
_cell_angle_gamma	84.533091
loop_
_atom_site_label
_atom_site_type_symbol
_atom_site_fract_x
_atom_site_fract_y
_atom_site_fract_z
O1	O	1.694092	0.179779	-0.076874
O2	O	2.194092	0.679779	0.423126
O3	O	1.322892	0.196711	-0.076868
O4	O	1.822892	0.696711	0.423132
O5	O	1.516939	0.002646	-0.076866
O6	O	2.016939	0.502646	0.423134
O7	O	1.500046	0.373844	-0.076876
O8	O	2.000046	0.873844	0.423124
O9	O	1.516888	0.002657	0.076816
O10	O	2.016888	0.502657	0.576816
O11	O	1.322842	0.196722	0.076814
O12	O	1.822842	0.696722	0.576814
O13	O	1.694042	0.179790	0.076808
O14	O	2.194042	0.679790	0.576808
Cu15	Cu	1.508437	0.188257	0.090843
Cu16	Cu	2.008437	0.688257	0.590843
Cu17	Cu	1.508497	0.188244	-0.090903
Cu18	Cu	2.008497	0.688244	0.409097
O19	O	1.499995	0.373855	0.076806
O20	O	1.999995	0.873855	0.576806
C21	C	1.275334	0.195446	-0.000027
C22	C	1.775334	0.695446	0.499973
C23	C	1.133703	0.191644	-0.000024
C24	C	1.633703	0.691644	0.499976
C25	C	0.951317	0.308348	-0.000038
C26	C	1.451317	0.808348	0.499962
C27	C	1.043487	0.250047	-0.075808
C28	C	1.543487	0.750047	0.424192
C29	C	1.043410	0.250027	0.075710
C30	C	1.543410	0.750027	0.575710
C31	C	0.973536	0.126505	-0.075877
C32	C	1.473536	0.626505	0.424123
C33	C	0.973450	0.126501	0.075710
C34	C	1.473450	0.626501	0.575710
C35	C	1.065593	0.068111	-0.000079
C36	C	1.565593	0.568111	0.499921
C37	C	1.515638	-0.044880	-0.000025
C38	C	2.015638	0.455120	0.499975
C39	C	1.511820	-0.186509	-0.000027
C40	C	2.011820	0.313491	0.499973
C41	C	1.388354	-0.254636	-0.000032
C42	C	1.888354	0.245364	0.499968
C43	C	1.446654	-0.346759	0.075741
C44	C	1.946654	0.153241	0.575741
C45	C	1.446732	-0.346745	-0.075778
C46	C	1.946732	0.153255	0.424222
C47	C	1.570171	-0.276767	0.075808
C48	C	2.070171	0.223233	0.575808
C49	C	1.570232	-0.276743	-0.075778
C50	C	2.070232	0.223257	0.424222
C51	C	1.628622	-0.368839	0.000012
C52	C	2.128622	0.131161	0.500012
C53	C	1.741600	0.181055	-0.000036
C54	C	2.241600	0.681055	0.499964
C55	C	1.883231	0.184857	-0.000044
C56	C	2.383231	0.684857	0.499956
C57	C	1.501296	0.421381	-0.000037
C58	C	2.001296	0.921381	0.499963
C59	C	1.505114	0.563010	-0.000041
C60	C	2.005114	1.063010	0.499959
N61	N	1.508405	0.188265	0.218674
N62	N	2.008405	0.688265	0.718674
N63	N	1.508539	0.188226	-0.218734
N64	N	2.008539	0.688226	0.281266
C65	C	1.508495	0.188239	0.592765
C66	C	2.008495	0.688239	1.092765
C67	C	1.404310	0.291724	0.553598
C68	C	1.904310	0.791724	1.053598
C69	C	1.404556	0.292108	0.446510
C70	C	1.904556	0.792108	0.946510
C71	C	1.508449	0.188252	0.407174
C72	C	2.008449	0.688252	0.907174
C73	C	1.641814	0.218530	0.446008
C74	C	2.141814	0.718530	0.946008
C75	C	1.641230	0.219268	0.553130
C76	C	2.141230	0.719268	1.053130
C77	C	1.480500	0.054176	0.553299
C78	C	1.980500	0.554176	1.053299
C79	C	1.477455	0.055040	0.446172
C80	C	1.977455	0.555040	0.946172
C81	C	1.508432	0.188257	0.302286
C82	C	2.008432	0.688257	0.802286
C83	C	1.508521	0.188237	0.697654
C84	C	2.008521	0.688237	1.197654
H85	H	1.286841	-0.204974	0.000046
H86	H	1.786841	0.295026	0.500046
H87	H	1.422561	0.391568	0.420873
H88	H	1.922561	0.891568	0.920873
H89	H	0.942748	0.074297	-0.140010
H90	H	1.442748	0.574297	0.359990
H91	H	1.721244	0.146930	0.579037
H92	H	2.221244	0.646930	1.079037
F93	F	1.378449	-0.387243	-0.159504
F94	F	1.878449	0.112757	0.340496
H95	H	1.305462	0.273889	0.420256
H96	H	1.805462	0.773889	0.920256
F97	F	1.130249	-0.064676	-0.000126
F98	F	1.630249	0.435324	0.499874
H99	H	1.721245	0.145212	0.420526
H100	H	2.221245	0.645212	0.920526
H101	H	1.548316	-0.025671	0.419399
H102	H	2.048316	0.474329	0.919399
H103	H	1.730226	-0.418274	0.000053
H104	H	2.230226	0.081726	0.500053
F105	F	1.274364	0.268267	0.587289
F106	F	1.774364	0.768267	1.087289
F107	F	1.638487	-0.236176	-0.159516
F108	F	2.138487	0.263824	0.340484
F109	F	1.674544	0.344925	0.410927
F110	F	2.174544	0.844925	0.910927
H111	H	0.901626	0.409850	-0.000117
H112	H	1.401626	0.909850	0.499883
H113	H	1.074345	0.302305	0.139768
H114	H	1.574345	0.802305	0.639768
H115	H	1.422073	0.390624	0.580504
H116	H	1.922073	0.890624	1.080504
F117	F	1.378346	-0.387281	0.159474
F118	F	1.878346	0.112719	0.659474
F119	F	1.579787	-0.046502	0.586404
F120	F	2.079787	0.453498	1.086404
F121	F	1.638372	-0.236474	0.159632
F122	F	2.138372	0.263526	0.659632
H123	H	1.074503	0.302299	-0.139867
H124	H	1.574503	0.802299	0.360133
F125	F	1.673231	0.347109	0.585773
F126	F	2.173231	0.847109	1.085773
H127	H	1.379344	0.032090	0.420792
H128	H	1.879344	0.532090	0.920792
F129	F	0.932870	0.058265	0.159447
F130	F	1.432870	0.558265	0.659447
F131	F	1.356039	0.016531	0.588655
F132	F	1.856039	0.516531	1.088655
