data_functionalizedCrystal
_audit_creation_method	'MofGen! by Chris Wilmer'
_symmetry_space_group_name_H-M	'P1'
_symmetry_Int_Tables_number	1
_symmetry_cell_setting	triclinic
loop_
_symmetry_equiv_pos_as_xyz
  x,y,z
_cell_length_a	19.077105
_cell_length_b	12.827892
_cell_length_c	19.076919
_cell_angle_alpha	92.275535
_cell_angle_beta	90.076224
_cell_angle_gamma	87.711903
loop_
_atom_site_label
_atom_site_type_symbol
_atom_site_fract_x
_atom_site_fract_y
_atom_site_fract_z
Zn1	Zn	1.058323	-0.505562	-0.440440
Zn2	Zn	1.558323	-0.005562	0.059560
Zn3	Zn	1.062981	-0.673587	-0.322941
Zn4	Zn	1.562981	-0.173587	0.177059
Zn5	Zn	0.945540	-0.491563	-0.318233
Zn6	Zn	1.445540	0.008437	0.181767
Zn7	Zn	0.940802	-0.672957	-0.435693
Zn8	Zn	1.440802	-0.172957	0.064307
O9	O	1.001912	-0.585917	-0.379327
O10	O	1.501912	-0.085917	0.120673
O11	O	1.157274	-0.533973	-0.428810
O12	O	1.657274	-0.033973	0.071190
O13	O	1.051334	-0.643846	-0.223985
O14	O	1.551334	-0.143846	0.276015
O15	O	0.960534	-0.347187	-0.334460
O16	O	1.460534	0.152813	0.165540
O17	O	1.160695	-0.657421	-0.342484
O18	O	1.660695	-0.157421	0.157516
O19	O	1.043396	-0.357472	-0.424245
O20	O	1.543396	0.142528	0.075755
O21	O	0.965050	-0.510114	-0.220526
O22	O	1.465050	-0.010114	0.279474
O23	O	0.846579	-0.509503	-0.329857
O24	O	1.346579	-0.009503	0.170143
O25	O	0.952460	-0.656347	-0.534655
O26	O	1.452460	-0.156347	-0.034655
O27	O	0.843098	-0.642772	-0.416155
O28	O	1.343098	-0.142772	0.083845
O29	O	1.038802	-0.533362	-0.538142
O30	O	1.538802	-0.033362	-0.038142
O31	O	1.046740	-0.819737	-0.337881
O32	O	1.546740	-0.319737	0.162119
O33	O	0.956976	-0.819274	-0.420720
O34	O	1.456976	-0.319274	0.079280
C35	C	0.819342	-0.574551	-0.371981
C36	C	1.319342	-0.074551	0.128019
C37	C	0.741237	-0.569714	-0.368855
C38	C	1.241237	-0.069714	0.131145
C39	C	0.702753	-0.636925	-0.412246
C40	C	1.202753	-0.136925	0.087754
C41	C	0.629365	-0.632367	-0.409312
C42	C	1.129365	-0.132367	0.090688
C43	C	0.594463	-0.560602	-0.362983
C44	C	1.094463	-0.060602	0.137017
C45	C	0.632953	-0.493385	-0.319590
C46	C	1.132953	0.006615	0.180410
C47	C	0.706339	-0.497938	-0.322528
C48	C	1.206339	0.002062	0.177472
C49	C	0.375174	-0.539528	-0.349389
C50	C	0.875174	-0.039528	0.150611
C51	C	0.301782	-0.534981	-0.346453
C52	C	0.801782	-0.034981	0.153547
C53	C	0.298199	-0.673963	-0.436177
C54	C	0.798199	-0.173963	0.063823
C55	C	0.371587	-0.678514	-0.439108
C56	C	0.871587	-0.178514	0.060892
C57	C	0.410071	-0.611293	-0.395717
C58	C	0.910071	-0.111293	0.104283
N59	N	0.519449	-0.555944	-0.359982
N60	N	1.019449	-0.055944	0.140018
N61	N	0.485083	-0.615947	-0.398723
N62	N	0.985083	-0.115947	0.101277
C63	C	1.001868	-0.857424	-0.379313
C64	C	1.501868	-0.357424	0.120687
C65	C	1.001913	-0.973581	-0.379333
C66	C	1.501913	-0.473581	0.120667
C67	C	1.046380	-1.025566	-0.338391
C68	C	1.546380	-0.525566	0.161609
C69	C	1.046427	-1.145620	-0.338411
C70	C	1.546427	-0.645620	0.161589
C71	C	1.185194	-0.597329	-0.386702
C72	C	1.685194	-0.097329	0.113298
C73	C	1.263298	-0.602192	-0.389845
C74	C	1.763298	-0.102192	0.110155
C75	C	0.994583	-0.596346	-0.562607
C76	C	1.494583	-0.096346	-0.062607
C77	C	0.991460	-0.600790	-0.640711
C78	C	1.491460	-0.100790	-0.140711
C79	C	1.001974	-0.313353	-0.379357
C80	C	1.501974	0.186647	0.120643
C81	C	1.002000	-0.197202	-0.379370
C82	C	1.502000	0.302798	0.120630
C83	C	1.034945	-0.538849	-0.679221
C84	C	1.534945	-0.038849	-0.179221
C85	C	1.032002	-0.543020	-0.752607
C86	C	1.532002	-0.043020	-0.252607
C87	C	0.985578	-0.609138	-0.787481
C88	C	1.485578	-0.109138	-0.287481
C89	C	0.942089	-0.671081	-0.748966
C90	C	1.442089	-0.171081	-0.248966
C91	C	0.945028	-0.666904	-0.675581
C92	C	1.445028	-0.166904	-0.175581
C93	C	0.971962	-0.628492	-1.006763
C94	C	1.471962	-0.128492	-0.506763
C95	C	0.969027	-0.632667	-1.080153
C96	C	1.469027	-0.132667	-0.580153
C97	C	1.058939	-0.504604	-1.083789
C98	C	1.558939	-0.004604	-0.583789
C99	C	1.061878	-0.500438	-1.010402
C100	C	1.561878	-0.000438	-0.510402
C101	C	1.018386	-0.562376	-0.971894
C102	C	1.518386	-0.062376	-0.471894
N103	N	0.982570	-0.613406	-0.862494
N104	N	1.482570	-0.113406	-0.362494
N105	N	1.021391	-0.558103	-0.896882
N106	N	1.521391	-0.058103	-0.396882
C107	C	1.009252	-0.575456	-0.196761
C108	C	1.509252	-0.075456	0.303239
C109	C	1.012511	-0.570727	-0.118663
C110	C	1.512511	-0.070727	0.381337
H111	H	0.731165	-0.695367	-0.449970
H112	H	1.231165	-0.195367	0.050030
C113	C	0.897193	-0.735045	-0.633221
C114	C	1.397193	-0.235045	-0.133221
N115	N	0.861161	-0.786370	-0.601316
N116	N	1.361161	-0.286370	-0.101316
H117	H	0.963926	-1.152504	-0.414421
H118	H	1.463926	-0.652504	0.085579
H119	H	0.604530	-0.434948	-0.281871
H120	H	1.104530	0.065052	0.218129
C121	C	1.097858	-1.206011	-0.291053
C122	C	1.597858	-0.706011	0.208947
N123	N	1.136597	-1.251501	-0.255383
N124	N	1.636597	-0.751501	0.244617
C125	C	0.409974	-0.757466	-0.490070
C126	C	0.909974	-0.257466	0.009930
N127	N	0.438887	-0.816937	-0.528453
N128	N	0.938887	-0.316937	-0.028453
H129	H	0.963881	-1.017954	-0.414402
H130	H	1.463881	-0.517954	0.085598
H131	H	1.084418	-0.981195	-0.303327
H132	H	1.584418	-0.481195	0.196673
H133	H	0.737673	-0.443203	-0.287198
H134	H	1.237673	0.056797	0.212802
H135	H	1.072750	-0.485012	-0.650831
H136	H	1.572750	0.014988	-0.150831
C137	C	0.924117	-0.696624	-0.964413
C138	C	1.424117	-0.196624	-0.464413
N139	N	0.888077	-0.747942	-0.932512
N140	N	1.388077	-0.247942	-0.432512
H141	H	0.266859	-0.728689	-0.471504
H142	H	0.766859	-0.228689	0.028496
H143	H	1.067413	-0.492584	-0.783958
H144	H	1.567413	0.007416	-0.283958
C145	C	1.112941	-0.427692	-0.972045
C146	C	1.612941	0.072308	-0.472045
N147	N	1.151401	-0.372897	-0.943155
N148	N	1.651401	0.127103	-0.443155
C149	C	1.106768	-0.436463	-1.126154
C150	C	1.606768	0.063537	-0.626154
N151	N	1.142791	-0.385130	-1.158064
N152	N	1.642791	0.114870	-0.658064
C153	C	0.891015	-0.743801	-0.787331
C154	C	1.391015	-0.243801	-0.287331
N155	N	0.852544	-0.798575	-0.816227
N156	N	1.352544	-0.298575	-0.316227
C157	C	0.587036	-0.706324	-0.457033
C158	C	1.087036	-0.206324	0.042967
N159	N	0.555154	-0.762038	-0.492974
N160	N	1.055154	-0.262038	0.007026
C161	C	0.263392	-0.456030	-0.295486
C162	C	0.763392	0.043970	0.204514
N163	N	0.234477	-0.396568	-0.257099
N164	N	0.734477	0.103432	0.242901
C165	C	0.417496	-0.465588	-0.301654
C166	C	0.917496	0.034412	0.198346
N167	N	0.449376	-0.409894	-0.265696
N168	N	0.949376	0.090106	0.234304
H169	H	0.931220	-0.686511	-1.108546
H170	H	1.431220	-0.186511	-0.608546
