data_functionalizedCrystal
_audit_creation_method	'MofGen! by Chris Wilmer'
_symmetry_space_group_name_H-M	'P1'
_symmetry_Int_Tables_number	1
_symmetry_cell_setting	triclinic
loop_
_symmetry_equiv_pos_as_xyz
  x,y,z
_cell_length_a	17.638686
_cell_length_b	17.639999
_cell_length_c	12.759387
_cell_angle_alpha	101.233253
_cell_angle_beta	78.784358
_cell_angle_gamma	114.307469
loop_
_atom_site_label
_atom_site_type_symbol
_atom_site_fract_x
_atom_site_fract_y
_atom_site_fract_z
Zn1	Zn	1.326394	0.583169	-0.793295
Zn2	Zn	1.354172	0.720992	-0.588065
Zn3	Zn	1.188571	0.555307	-0.588136
Zn4	Zn	1.216399	0.693035	-0.734246
O5	O	1.271384	0.638126	-0.675935
O6	O	1.445417	0.624812	-0.790754
O7	O	1.332184	0.699053	-0.441037
O8	O	1.183582	0.443684	-0.640093
O9	O	1.465826	0.726070	-0.639972
O10	O	1.284840	0.464155	-0.790823
O11	O	1.210517	0.577325	-0.441089
O12	O	1.076924	0.550217	-0.582835
O13	O	1.231010	0.678422	-0.889116
O14	O	1.097369	0.651405	-0.690181
O15	O	1.311824	0.597704	-0.932500
O16	O	1.359168	0.832602	-0.582714
O17	O	1.257946	0.812063	-0.690113
C18	C	1.057240	0.594754	-0.630109
C19	C	0.965633	0.576219	-0.610524
C20	C	0.717768	0.779113	-0.824941
C21	C	0.631687	0.761689	-0.806514
C22	C	0.610331	0.656158	-0.694977
C23	C	0.696412	0.673576	-0.713390
C24	C	0.750124	0.735053	-0.778374
C25	C	0.728769	0.629516	-0.666824
C26	C	0.814842	0.646930	-0.685241
C27	C	0.868559	0.708402	-0.750224
C28	C	0.836197	0.752466	-0.796791
C29	C	0.675054	0.568035	-0.601846
C30	C	0.707411	0.523976	-0.555280
C31	C	0.793486	0.541393	-0.573690
C32	C	0.847203	0.602865	-0.638674
C33	C	0.825847	0.497329	-0.527123
C34	C	0.911921	0.514742	-0.545540
C35	C	0.933276	0.620279	-0.657091
C36	C	1.314613	0.852238	-0.630026
C37	C	1.333182	0.943851	-0.610437
C38	C	1.130526	1.191778	-0.825155
C39	C	1.147976	1.277863	-0.806715
C40	C	1.253444	1.299199	-0.695031
C41	C	1.236005	1.213114	-0.713466
C42	C	1.174545	1.159410	-0.778528
C43	C	1.280024	1.180747	-0.666839
C44	C	1.262584	1.094669	-0.685268
C45	C	1.201124	1.040960	-0.750324
C46	C	1.157104	1.073333	-0.796957
C47	C	1.341480	1.234452	-0.601771
C48	C	1.385499	1.202084	-0.555143
C49	C	1.368063	1.116006	-0.573578
C50	C	1.306604	1.062296	-0.638635
C51	C	1.412083	1.083633	-0.526945
C52	C	1.394643	0.997555	-0.545375
C53	C	1.289163	0.976219	-0.657064
C54	C	1.486364	0.681668	-0.721942
C55	C	1.577976	0.700223	-0.741547
C56	C	1.271423	0.638052	-0.949999
C57	C	1.271439	0.638021	-1.066789
C58	C	1.227982	1.423177	-0.722042
C59	C	1.209421	1.331566	-0.741664
C60	C	1.144753	0.511260	-1.066865
C61	C	1.081421	0.447866	-1.121771
C62	C	1.081440	0.447841	-1.231504
C63	C	1.144795	0.511218	-1.286333
C64	C	1.208127	0.574612	-1.231428
C65	C	1.208103	0.574629	-1.121693
C66	C	1.334808	0.701375	-1.231350
C67	C	1.334795	0.701398	-1.121618
C68	C	1.398164	0.764752	-1.286180
C69	C	1.461500	0.828144	-1.231276
C70	C	1.461480	0.828166	-1.121536
C71	C	1.398126	0.764792	-1.066713
C72	C	1.271381	0.638150	-0.402961
C73	C	1.271477	0.637981	-0.286256
H74	H	0.604968	0.553855	-0.586860
H75	H	1.435538	1.245821	-0.502166
H76	H	1.112135	1.304213	-0.844705
H77	H	1.029869	0.396221	-1.276207
H78	H	1.355680	1.304541	-0.586771
H79	H	0.977013	0.670344	-0.710001
C80	C	1.531155	0.897902	-1.061151
N81	N	1.583638	0.950426	-1.015674
H82	H	1.462118	1.127370	-0.473963
C83	C	0.963242	0.727558	-0.770482
N84	N	1.034559	0.741988	-0.785738
C85	C	1.062905	1.132696	-0.896711
N86	N	1.011968	1.088194	-0.950595
C87	C	0.776857	0.846743	-0.896424
N88	N	0.821362	0.897678	-0.950266
H89	H	1.303482	1.342935	-0.642054
H90	H	1.239122	0.932491	-0.710053
H91	H	0.879934	0.802532	-0.849701
C92	C	1.011740	0.378147	-1.061454
N93	N	0.959259	0.325633	-1.016027
C94	C	1.181940	0.946271	-0.770597
N95	N	1.167492	0.874952	-0.785869
C96	C	0.596099	0.810161	-0.857749
N97	N	0.569294	0.846668	-0.896342
C98	C	1.443073	0.961950	-0.494092
N99	N	1.479552	0.935133	-0.455465
H100	H	1.144736	0.511268	-0.977517
C101	C	1.398096	0.764810	-0.946003
N102	N	1.398069	0.764824	-0.855082
C103	C	1.144804	0.511195	-1.407039
N104	N	1.144811	0.511179	-1.497955
C105	C	0.551239	0.588535	-0.623497
N106	N	0.506732	0.537602	-0.569654
H107	H	1.398171	0.764731	-1.375529
C108	C	0.648319	0.456352	-0.483800
N109	N	0.603811	0.405419	-0.429957
H110	H	0.938264	0.478858	-0.507630
H111	H	1.513077	0.879744	-1.275925
C112	C	0.766752	0.429700	-0.455652
N113	N	0.722242	0.378761	-0.401819
H114	H	1.107063	1.029605	-0.849947
