data_functionalizedCrystal
_audit_creation_method	'MofGen! by Chris Wilmer'
_symmetry_space_group_name_H-M	'P1'
_symmetry_Int_Tables_number	1
_symmetry_cell_setting	triclinic
loop_
_symmetry_equiv_pos_as_xyz
  x,y,z
_cell_length_a	12.811457
_cell_length_b	27.731996
_cell_length_c	11.892095
_cell_angle_alpha	93.849943
_cell_angle_beta	91.498327
_cell_angle_gamma	83.336292
loop_
_atom_site_label
_atom_site_type_symbol
_atom_site_fract_x
_atom_site_fract_y
_atom_site_fract_z
O1	O	1.388103	0.066680	0.048284
O2	O	1.084642	0.072742	0.017170
O3	O	1.245824	-0.000603	0.033720
O4	O	1.226921	0.140025	0.031733
O5	O	1.232385	0.005502	0.220348
O6	O	1.071204	0.078848	0.203798
O7	O	1.374664	0.072786	0.234911
Zn8	Zn	1.220800	0.076786	0.248986
Zn9	Zn	1.238506	0.068741	0.003096
O10	O	1.213482	0.146131	0.218361
C11	C	1.039112	0.075268	0.106505
C12	C	0.923468	0.073692	0.094649
C13	C	0.691509	0.077380	0.275856
C14	C	0.582851	0.075900	0.264722
C15	C	0.597493	0.069248	0.061249
C16	C	0.706151	0.070728	0.072383
C17	C	0.753155	0.074795	0.179690
C18	C	0.861814	0.076279	0.190822
C19	C	0.876455	0.069624	-0.012649
C20	C	0.767797	0.068143	-0.023783
C21	C	1.238716	-0.015561	0.126998
C22	C	1.237545	-0.069227	0.126890
C23	C	1.237515	-0.405339	0.024350
C24	C	1.233074	-0.607037	0.023874
O25	O	1.238685	-0.635944	-0.062708
N26	N	1.225197	-0.628931	0.125548
C27	C	1.218423	-0.600396	0.227346
O28	O	1.211610	-0.623646	0.313813
C29	C	1.222856	-0.398699	0.227819
C30	C	1.230744	-0.376808	0.126141
C31	C	1.245401	-0.383448	-0.077321
C32	C	1.246517	-0.333027	-0.077201
C33	C	1.239746	-0.304496	0.024590
C34	C	1.231860	-0.326387	0.126261
C35	C	1.216074	-0.370165	0.329616
C36	C	1.217181	-0.319737	0.329725
C37	C	1.225069	-0.297847	0.228046
C38	C	1.226205	-0.247435	0.228172
N39	N	1.234082	-0.225542	0.126499
C40	C	1.240853	-0.254072	0.024708
C41	C	1.216098	-0.706291	0.227091
C42	C	1.214991	-0.756715	0.226973
C43	C	1.229641	-0.763352	0.023500
C44	C	1.230755	-0.712927	0.023620
C45	C	1.223975	-0.684397	0.125417
C46	C	1.243196	-0.148184	0.024969
C47	C	1.244316	-0.097758	0.025099
C48	C	1.229661	-0.091125	0.228570
C49	C	1.228547	-0.141547	0.228441
C50	C	1.235312	-0.170075	0.126631
O51	O	1.220586	-0.218498	0.314708
O52	O	1.247642	-0.230812	-0.061749
C53	C	1.236399	-0.455760	0.024229
C54	C	1.228513	-0.477651	0.125900
C55	C	1.221742	-0.449120	0.227691
C56	C	1.227406	-0.528075	0.125782
C57	C	1.234177	-0.556606	0.023991
C58	C	1.242054	-0.534712	-0.077682
C59	C	1.243170	-0.484291	-0.077562
C60	C	1.213865	-0.471014	0.329364
C61	C	1.212751	-0.521436	0.329235
C62	C	1.219521	-0.549966	0.227444
C63	C	1.420194	0.070259	0.145574
C64	C	1.535839	0.071835	0.157422
C65	C	1.220591	0.161088	0.125081
C66	C	1.221762	0.214754	0.125182
N67	N	1.208724	0.082276	0.416800
N68	N	1.250591	0.063247	-0.164718
C69	C	1.334625	0.025017	0.666375
C70	C	1.326191	0.028858	0.783851
C71	C	1.183418	0.093797	0.769229
C72	C	1.191852	0.089955	0.651753
C73	C	1.267459	0.055565	0.600331
C74	C	1.275897	0.051727	0.482853
C75	C	1.133119	0.116662	0.468233
C76	C	1.124685	0.120503	0.585709
H77	H	1.250742	-0.079938	-0.057704
H78	H	1.209652	-0.387979	0.412414
H79	H	1.248700	-0.171406	-0.057935
H80	H	1.063125	0.148502	0.627590
C81	C	1.219849	-0.165377	0.338731
C82	C	1.129128	-0.189181	0.335410
C83	C	1.121085	-0.211142	0.436981
H84	H	1.215924	-0.141215	0.399466
H85	H	1.279858	-0.188299	0.349137
H86	H	1.069134	-0.166261	0.325016
H87	H	1.133033	-0.213350	0.274697
H88	H	1.181094	-0.234063	0.447388
H89	H	1.117163	-0.186976	0.497708
H90	H	1.059537	-0.227299	0.434738
H91	H	1.396194	-0.002981	0.624507
C92	C	1.239116	-0.689094	-0.086719
C93	C	1.150509	-0.655380	-0.101772
C94	C	1.158168	-0.633416	-0.203406
H95	H	1.242937	-0.713261	-0.147445
H96	H	1.300594	-0.672889	-0.084716
H97	H	1.089048	-0.671585	-0.103784
H98	H	1.146671	-0.631204	-0.041072
H99	H	1.219646	-0.617211	-0.201402
H100	H	1.161992	-0.657586	-0.264122
H101	H	1.098056	-0.610536	-0.213627
H102	H	0.900082	0.079593	0.278197
H103	H	1.235155	-0.786591	-0.059382
C104	C	0.742712	0.081722	0.392286
C105	C	0.817091	0.041280	0.405896
C106	C	0.864288	0.045266	0.513132
H107	H	0.690556	0.083031	0.448075
H108	H	0.776451	0.110549	0.399998
H109	H	0.783353	0.012460	0.398195
H110	H	0.869267	0.039962	0.350133
H111	H	0.898027	0.074093	0.520845
H112	H	0.812125	0.046577	0.568912
H113	H	0.914766	0.017829	0.522377
H114	H	0.532662	0.078007	0.343030
H115	H	0.559205	0.065929	-0.026115
H116	H	0.729511	0.064830	-0.111149
H117	H	0.926658	0.067522	-0.090955
H118	H	1.252937	-0.315208	-0.159998
H119	H	1.250911	-0.406673	-0.160216
H120	H	1.208584	-0.774535	0.309771
H121	H	1.210581	-0.683066	0.309991
C122	C	1.222497	-0.060182	0.339142
C123	C	1.307472	-0.075388	0.409705
C124	C	1.300898	-0.046891	0.511568
H125	H	1.158580	-0.063703	0.374809
H126	H	1.224333	-0.027013	0.324705
H127	H	1.305627	-0.108550	0.424143
H128	H	1.371402	-0.071866	0.374073
H129	H	1.302734	-0.013721	0.497131
H130	H	1.236977	-0.050414	0.547224
H131	H	1.358556	-0.057201	0.559453
C132	C	1.209850	-0.288848	0.440374
C133	C	1.202724	-0.318817	0.529385
C134	C	1.195979	-0.290380	0.631329
H135	H	1.149202	-0.265673	0.438568
H136	H	1.270773	-0.272409	0.450962
H137	H	1.141808	-0.335247	0.518799
H138	H	1.263364	-0.341991	0.531227
H139	H	1.256902	-0.273941	0.641918
H140	H	1.135332	-0.267207	0.629512
H141	H	1.191154	-0.310710	0.691736
C142	C	1.251679	-0.460616	-0.188082
C143	C	1.257341	-0.496401	-0.277242
C144	C	1.265164	-0.474613	-0.379077
H145	H	1.313190	-0.444448	-0.186205
H146	H	1.191618	-0.437733	-0.198567
H147	H	1.317397	-0.519275	-0.266760
H148	H	1.195837	-0.512571	-0.279157
H149	H	1.205103	-0.451730	-0.389562
H150	H	1.326676	-0.458445	-0.377188
H151	H	1.268997	-0.498889	-0.439585
C152	C	1.399075	-0.004390	0.855411
C153	C	1.385030	-0.052915	0.825181
C154	C	1.452162	-0.083559	0.891067
H155	H	1.383299	0.002755	0.932765
H156	H	1.469927	0.000589	0.843238
H157	H	1.314194	-0.057891	0.837362
H158	H	1.400813	-0.060075	0.747837
H159	H	1.523014	-0.078580	0.878895
H160	H	1.436381	-0.076409	0.968418
H161	H	1.442648	-0.116486	0.870558
C162	C	1.203962	-0.545156	0.439656
C163	C	1.110127	-0.525924	0.491828
C164	C	1.101975	-0.547763	0.593539
H165	H	1.261826	-0.538901	0.487842
H166	H	1.204201	-0.579273	0.425069
H167	H	1.109897	-0.491814	0.506420
H168	H	1.052246	-0.532177	0.443675
H169	H	1.102214	-0.581880	0.578951
H170	H	1.159844	-0.541507	0.641715
H171	H	1.038304	-0.534721	0.628945
C172	C	1.358055	0.014453	0.426937
C173	C	1.426278	0.038331	0.365955
C174	C	1.501961	0.004003	0.314430
H175	H	1.324273	-0.007377	0.377252
H176	H	1.396913	-0.003198	0.483046
H177	H	1.387424	0.055974	0.309851
H178	H	1.460084	0.060158	0.415613
H179	H	1.540819	-0.013648	0.370540
H180	H	1.468170	-0.017824	0.264751
H181	H	1.548264	0.020200	0.273056
C182	C	1.101273	0.131055	0.825218
C183	C	1.033105	0.107149	0.886205
C184	C	0.957429	0.141455	0.937812
H185	H	1.062360	0.148719	0.769186
H186	H	1.135098	0.152876	0.874908
H187	H	0.999283	0.085336	0.836520
H188	H	1.071987	0.089487	0.942255
H189	H	0.991253	0.163276	0.987502
H190	H	0.918524	0.159117	0.881773
H191	H	0.911174	0.125239	0.979207
H192	H	1.247572	-0.557951	-0.160564
C193	C	1.060369	0.149855	0.396404
C194	C	1.120230	0.177540	0.334568
C195	C	1.053256	0.208120	0.268378
H196	H	1.014117	0.170928	0.443730
H197	H	1.020592	0.130741	0.346105
H198	H	1.159989	0.196652	0.384861
H199	H	1.166479	0.156480	0.287220
H200	H	1.013480	0.189006	0.218079
H201	H	1.007008	0.229189	0.315713
H202	H	1.093863	0.226904	0.226407
H203	H	1.208353	-0.447789	0.412256
