data_functionalizedCrystal
_audit_creation_method	'MofGen! by Chris Wilmer'
_symmetry_space_group_name_H-M	'P1'
_symmetry_Int_Tables_number	1
_symmetry_cell_setting	triclinic
loop_
_symmetry_equiv_pos_as_xyz
  x,y,z
_cell_length_a	10.489763
_cell_length_b	10.489741
_cell_length_c	9.565339
_cell_angle_alpha	90.007516
_cell_angle_beta	90.005269
_cell_angle_gamma	84.543767
loop_
_atom_site_label
_atom_site_type_symbol
_atom_site_fract_x
_atom_site_fract_y
_atom_site_fract_z
O1	O	-1.694042	-0.180110	-0.116198
O2	O	-1.322850	-0.196973	-0.116214
O3	O	-1.516892	-0.002944	-0.116198
O4	O	-1.499999	-0.374138	-0.116215
O5	O	-1.516866	-0.002927	0.116322
O6	O	-1.322824	-0.196956	0.116306
O7	O	-1.694016	-0.180093	0.116322
Zn8	Zn	-1.508416	-0.188522	0.153231
Zn9	Zn	-1.508450	-0.188544	-0.153124
O10	O	-1.499973	-0.374122	0.116305
C11	C	-1.275305	-0.195684	0.000044
C12	C	-1.133677	-0.191856	0.000038
N13	N	-1.508474	-0.188549	-0.362203
C14	C	-1.515603	0.044596	0.000061
C15	C	-1.511786	0.186226	0.000059
C16	C	-1.065538	-0.068386	0.000058
C17	C	-0.973425	-0.126710	-0.114585
C18	C	-0.973433	-0.126723	0.114661
C19	C	-1.043429	-0.250231	-0.114700
C20	C	-1.043448	-0.250227	0.114650
C21	C	-0.951362	-0.308641	-0.000021
C22	C	-0.741562	-0.181361	0.000064
C23	C	-0.883198	-0.185129	0.000073
C24	C	-1.501262	-0.421662	0.000043
C25	C	-1.505079	-0.563291	0.000036
C26	C	-1.388322	0.254376	0.000043
C27	C	-1.446633	0.346502	0.114690
C28	C	-1.446687	0.346460	-0.114556
C29	C	-1.570147	0.276487	0.114800
C30	C	-1.570185	0.276435	-0.114549
C31	C	-1.628584	0.368534	0.000126
C32	C	-1.598358	-0.098958	-0.546534
C33	C	-1.482970	-0.072913	-0.453276
C34	C	-1.623852	-0.214537	-0.453392
C35	C	-1.392954	-0.162404	-0.546483
C36	C	-1.533913	-0.304078	-0.546607
C37	C	-1.418441	-0.278082	-0.453391
N38	N	-1.508402	-0.188506	0.362311
H39	H	-0.942421	-0.074474	-0.211505
C40	C	-1.640632	0.234848	0.245892
H41	H	-1.642586	0.144489	0.245126
H42	H	-1.725726	0.274957	0.246233
H43	H	-1.597041	0.259391	0.327199
H44	H	-0.901938	-0.410240	-0.000088
H45	H	-1.394382	0.377525	0.211612
C46	C	-1.563074	-0.436042	-0.602046
H47	H	-1.492995	-0.471956	-0.656660
H48	H	-1.638115	-0.426520	-0.658129
H49	H	-1.576091	-0.491072	-0.525542
H50	H	-1.394442	0.377421	-0.211491
C51	C	-1.132654	0.068721	-0.000112
H52	H	-1.108852	0.112371	-0.081677
H53	H	-1.107710	0.113059	0.080501
H54	H	-1.222827	0.065307	0.000696
H55	H	-1.295326	-0.140293	-0.587204
H56	H	-1.074482	-0.302420	0.211574
H57	H	-1.074268	-0.302440	-0.211733
C58	C	-1.453839	0.059086	-0.397890
H59	H	-1.377898	0.049821	-0.343232
H60	H	-1.523231	0.094298	-0.341863
H61	H	-1.442396	0.114573	-0.474422
H62	H	-1.674312	-0.023160	-0.587433
H63	H	-1.730187	0.417950	0.000194
C64	C	-1.755702	-0.244266	-0.398153
H65	H	-1.819486	-0.180545	-0.430062
H66	H	-1.754558	-0.244844	-0.298852
H67	H	-1.774417	-0.325741	-0.431494
H68	H	-0.942445	-0.074451	0.211585
C69	C	-1.640707	0.234466	-0.245483
H70	H	-1.596729	0.258164	-0.326869
H71	H	-1.725576	0.275133	-0.246306
H72	H	-1.643294	0.144193	-0.244070
H73	H	-1.286812	0.204733	0.000154
C74	C	-1.315609	-0.380408	-0.398473
H75	H	-1.233709	-0.361718	-0.430519
H76	H	-1.333008	-0.462274	-0.431842
H77	H	-1.316655	-0.380337	-0.299163
