data_functionalizedCrystal
_audit_creation_method	'MofGen! by Chris Wilmer'
_symmetry_space_group_name_H-M	'P1'
_symmetry_Int_Tables_number	1
_symmetry_cell_setting	triclinic
loop_
_symmetry_equiv_pos_as_xyz
  x,y,z
_cell_length_a	16.959455
_cell_length_b	16.959454
_cell_length_c	19.805399
_cell_angle_alpha	90.022387
_cell_angle_beta	90.017881
_cell_angle_gamma	90.019503
loop_
_atom_site_label
_atom_site_type_symbol
_atom_site_fract_x
_atom_site_fract_y
_atom_site_fract_z
Zn1	Zn	1.208409	-0.314712	0.382714
Zn2	Zn	1.208324	-0.446894	0.269536
Zn3	Zn	1.076230	-0.314732	0.269541
Zn4	Zn	1.076202	-0.446851	0.382686
O5	O	1.142291	-0.380797	0.326119
O6	O	1.319008	-0.332256	0.367709
O7	O	1.190777	-0.429389	0.174820
O8	O	1.093811	-0.204119	0.284568
O9	O	1.318946	-0.429370	0.284558
O10	O	1.190922	-0.204104	0.367715
O11	O	1.093728	-0.332291	0.174824
O12	O	0.965615	-0.332249	0.284541
O13	O	1.093763	-0.429296	0.477406
O14	O	0.965595	-0.429316	0.367668
O15	O	1.190895	-0.332214	0.477426
O16	O	1.190750	-0.557499	0.284531
O17	O	1.093681	-0.557468	0.367662
C18	C	0.936925	-0.380780	0.326102
C19	C	0.849068	-0.380792	0.326111
C20	C	0.807760	-0.431283	0.282757
C21	C	0.807823	-0.330307	0.369471
C22	C	0.725277	-0.330314	0.369479
C23	C	0.683969	-0.380804	0.326125
C24	C	0.725206	-0.431289	0.282762
C25	C	0.684033	-0.279825	0.412837
C26	C	0.601482	-0.279828	0.412846
C27	C	0.560172	-0.330323	0.369494
C28	C	0.601415	-0.380810	0.326130
C29	C	0.560107	-0.431301	0.282775
C30	C	0.601348	-0.481793	0.239414
C31	C	0.683896	-0.481784	0.239410
C32	C	0.477624	-0.330332	0.369498
C33	C	0.477553	-0.431307	0.282781
C34	C	1.142225	-0.586164	0.326108
C35	C	1.142269	-0.674020	0.326125
C36	C	1.091820	-1.045509	0.369401
C37	C	1.192982	-1.045482	0.282906
C38	C	1.192954	-0.962937	0.282900
C39	C	1.142358	-0.921673	0.326144
C40	C	1.091789	-0.962956	0.369394
C41	C	1.243516	-0.921648	0.239646
C42	C	1.243490	-0.839097	0.239637
C43	C	1.192897	-0.797832	0.282885
C44	C	1.142327	-0.839120	0.326138
C45	C	1.091731	-0.797856	0.369382
C46	C	1.041164	-0.839142	0.412638
C47	C	1.041196	-0.921691	0.412642
C48	C	1.192865	-0.715284	0.282881
C49	C	1.091700	-0.715303	0.369375
C50	C	1.348459	-0.380815	0.326136
C51	C	1.436316	-0.380823	0.326143
C52	C	1.142335	-0.380748	0.502662
C53	C	1.142354	-0.380726	0.577894
C54	C	1.142379	-0.174629	0.326145
C55	C	1.142416	-0.086773	0.326157
C56	C	1.142292	-0.380790	0.150263
C57	C	1.142427	-0.380589	0.075031
C58	C	1.192932	-0.330173	0.613250
C59	C	1.192940	-0.330150	0.683938
C60	C	1.142374	-0.380685	0.719270
C61	C	1.091791	-0.431240	0.683909
C62	C	1.091779	-0.431259	0.613221
C63	C	1.091835	-0.431167	0.968982
C64	C	1.091852	-0.431146	1.039674
C65	C	1.192996	-0.330058	1.039699
C66	C	1.192985	-0.330077	0.969012
C67	C	1.142399	-0.380629	0.933657
C68	C	1.142389	-0.380652	0.857009
C69	C	1.142386	-0.380667	0.795917
H70	H	0.841342	-0.472394	0.247455
H71	H	1.050672	-0.472299	1.068439
H72	H	0.841461	-0.289197	0.404766
H73	H	1.284665	-0.805487	0.204417
H74	H	1.050657	-0.472341	0.940205
H75	H	0.443926	-0.472427	0.247478
H76	H	1.050616	-0.472384	0.712681
O77	O	0.724036	-0.230712	0.454975
C78	C	0.669937	-0.186166	0.493260
H79	H	0.611084	-0.183381	0.465541
H80	H	0.661166	-0.215193	0.544622
C81	C	0.774478	-0.105480	0.537185
C82	C	0.702195	-0.102053	0.503138
H83	H	0.794377	-0.053596	0.543282
H84	H	0.810927	-0.135493	0.511394
H85	H	0.767159	-0.129673	0.579983
H86	H	0.709517	-0.077870	0.460338
H87	H	0.665749	-0.072034	0.528923
H88	H	1.050585	-0.472416	0.584436
H89	H	0.567704	-0.522899	0.204112
H90	H	1.234111	-0.289024	0.584488
O91	O	0.724047	-0.530861	0.197383
C92	C	0.771790	-0.581975	0.235844
H93	H	0.784183	-0.554172	0.287178
H94	H	0.739971	-0.640569	0.243198
C95	C	0.834966	-0.630363	0.135531
C96	C	0.850192	-0.596212	0.198578
H97	H	0.883326	-0.639149	0.112543
H98	H	0.802798	-0.595929	0.109619
H99	H	0.808448	-0.679188	0.141668
H100	H	0.876700	-0.547384	0.192439
H101	H	0.882366	-0.630638	0.224488
O102	O	0.561339	-0.230899	0.455003
C103	C	0.513619	-0.275974	0.498672
H104	H	0.501224	-0.335840	0.474715
H105	H	0.545459	-0.284732	0.548814
C106	C	0.450445	-0.158983	0.540428
C107	C	0.435217	-0.232509	0.511000
H108	H	0.402085	-0.132171	0.548036
H109	H	0.482597	-0.128614	0.511009
H110	H	0.476981	-0.166292	0.582209
H111	H	0.408691	-0.225199	0.469216
H112	H	0.403059	-0.262876	0.540413
H113	H	1.234170	-1.079084	0.247695
O114	O	0.437475	-0.281401	0.411646
C115	C	0.389751	-0.326469	0.455317
H116	H	0.377360	-0.386340	0.431366
H117	H	0.421586	-0.335218	0.505462
C118	C	0.326571	-0.209472	0.497053
C119	C	0.311347	-0.283004	0.467633
H120	H	0.278210	-0.182659	0.504653
H121	H	0.358726	-0.179108	0.467633
H122	H	0.353103	-0.216773	0.538837
H123	H	0.284825	-0.275701	0.425846
H124	H	0.279186	-0.313366	0.497047
H125	H	1.050501	-0.681711	0.404593
H126	H	1.234127	-0.288987	0.712722
O127	O	1.242129	-0.280912	0.934796
C128	C	1.286787	-0.236299	0.981161
H129	H	1.254422	-0.233547	1.031546
H130	H	1.346809	-0.265246	0.988682
C131	C	1.337958	-0.155562	0.891703
C132	C	1.298204	-0.152176	0.953585
H133	H	1.345004	-0.103672	0.874692
H134	H	1.307874	-0.185620	0.860465
H135	H	1.387972	-0.179688	0.897979
H136	H	1.248187	-0.128060	0.947307
H137	H	1.328280	-0.122112	0.984821
O138	O	0.992130	-0.799018	0.454716
C139	C	1.037088	-0.751191	0.498444
H140	H	1.099347	-0.776025	0.502677
H141	H	1.039805	-0.688643	0.477504
C142	C	0.921958	-0.719393	0.563579
C143	C	0.998424	-0.749898	0.568782
H144	H	0.898107	-0.718591	0.606966
H145	H	0.891668	-0.751612	0.534117
H146	H	0.924233	-0.667272	0.546126
H147	H	0.996147	-0.802021	0.586226
H148	H	1.028713	-0.717687	0.598248
H149	H	1.284703	-0.955251	0.204434
H150	H	1.234032	-0.681672	0.247659
O151	O	1.242055	-0.280968	1.074148
C152	C	1.231238	-0.291795	1.144115
H153	H	1.170228	-0.317672	1.153759
H154	H	1.278107	-0.333886	1.164178
C155	C	1.313457	-0.180024	1.168569
C156	C	1.238521	-0.211801	1.180414
H157	H	1.317953	-0.130681	1.190962
H158	H	1.320748	-0.172731	1.121432
H159	H	1.352507	-0.215108	1.185289
H160	H	1.199474	-0.176722	1.163688
H161	H	1.231224	-0.219086	1.227550
H162	H	1.000027	-0.955313	0.447859
H163	H	1.050652	-1.079128	0.404621
