data_functionalizedCrystal
_audit_creation_method	'MofGen! by Chris Wilmer'
_symmetry_space_group_name_H-M	'P1'
_symmetry_Int_Tables_number	1
_symmetry_cell_setting	triclinic
loop_
_symmetry_equiv_pos_as_xyz
  x,y,z
_cell_length_a	8.597340
_cell_length_b	10.489741
_cell_length_c	7.088929
_cell_angle_alpha	83.718365
_cell_angle_beta	103.960198
_cell_angle_gamma	84.937299
loop_
_atom_site_label
_atom_site_type_symbol
_atom_site_fract_x
_atom_site_fract_y
_atom_site_fract_z
O1	O	2.103394	0.175180	0.187506
O2	O	1.638945	0.195997	0.110993
O3	O	1.881739	-0.000099	0.151002
O4	O	1.860600	0.371277	0.147497
O5	O	1.914208	-0.026347	0.474328
O6	O	1.671414	0.169750	0.434319
O7	O	2.135863	0.148933	0.510832
Cu8	Cu	1.906604	0.156945	0.502098
Cu9	Cu	1.868205	0.187985	0.119728
O10	O	1.893069	0.345029	0.470823
C11	C	1.595707	0.182100	0.262859
C12	C	1.418497	0.179780	0.233666
C13	C	1.896377	-0.060741	0.312401
C14	C	1.891601	-0.202330	0.311611
C15	C	1.737117	-0.269164	0.286147
C16	C	1.826102	-0.374844	0.457586
C17	C	1.794126	-0.348941	0.138818
C18	C	1.980662	-0.306156	0.483191
C19	C	1.948651	-0.280232	0.164277
C20	C	2.037752	-0.385889	0.335772
C21	C	2.179101	0.162830	0.358962
C22	C	2.356310	0.165151	0.388142
C23	C	1.878431	0.405672	0.309420
C24	C	1.883206	0.547261	0.310197
N25	N	1.933623	0.135112	0.771038
N26	N	1.841198	0.209808	-0.149211
H27	H	1.610119	-0.218452	0.265384
H28	H	2.000425	-0.238798	0.040253
H29	H	1.745404	0.287220	0.753348
H30	H	1.336157	0.190531	0.079060
C31	C	1.757316	-0.430178	0.623146
C32	C	1.872602	-0.523520	0.750585
C33	C	1.809290	-0.574503	0.903124
H34	H	1.663317	-0.468758	0.570217
H35	H	1.730188	-0.362858	0.693130
H36	H	1.899707	-0.590828	0.680612
H37	H	1.966606	-0.484971	0.803565
H38	H	1.782162	-0.507183	0.973107
H39	H	1.715292	-0.613076	0.850176
H40	H	1.887506	-0.637832	0.989619
C41	C	1.465860	0.150994	0.594393
C42	C	1.419435	0.251495	0.691396
C43	C	1.520312	0.238485	0.881408
H44	H	1.574414	0.154550	0.587562
H45	H	1.457202	0.070440	0.664335
H46	H	1.428108	0.332029	0.621472
H47	H	1.310897	0.247958	0.698280
H48	H	1.511654	0.157930	0.951349
H49	H	1.628860	0.242039	0.874558
H50	H	1.488818	0.306664	0.947254
H51	H	2.059520	-0.286829	0.628875
C52	C	2.207411	-0.452998	0.363949
C53	C	2.317142	-0.361316	0.383717
C54	C	2.473451	-0.423086	0.409722
H55	H	2.212312	-0.495364	0.253397
H56	H	2.234119	-0.514715	0.478767
H57	H	2.290442	-0.299623	0.268912
H58	H	2.312292	-0.318945	0.494269
H59	H	2.500159	-0.484803	0.524540
H60	H	2.478334	-0.465450	0.299166
H61	H	2.547923	-0.360892	0.423156
C62	C	2.061602	0.032050	0.900877
C63	C	2.213772	0.056549	0.877393
C64	C	2.331707	-0.038358	0.996999
H65	H	2.040130	-0.050433	0.864720
H66	H	2.059870	0.033555	1.034117
H67	H	2.215501	0.055032	0.744182
H68	H	2.235296	0.139014	0.913563
H69	H	2.329975	-0.036853	1.130239
H70	H	2.310219	-0.120835	0.960832
H71	H	2.434969	-0.021742	0.981095
H72	H	1.715206	-0.368411	-0.006740
