data_functionalizedCrystal
_audit_creation_method	'MofGen! by Chris Wilmer'
_symmetry_space_group_name_H-M	'P1'
_symmetry_Int_Tables_number	1
_symmetry_cell_setting	triclinic
loop_
_symmetry_equiv_pos_as_xyz
  x,y,z
_cell_length_a	16.959455
_cell_length_b	12.645330
_cell_length_c	12.645323
_cell_angle_alpha	89.975130
_cell_angle_beta	89.978641
_cell_angle_gamma	90.014639
loop_
_atom_site_label
_atom_site_type_symbol
_atom_site_fract_x
_atom_site_fract_y
_atom_site_fract_z
Zn1	Zn	1.208452	-0.422117	-0.599409
Zn2	Zn	1.208364	-0.599405	-0.422149
Zn3	Zn	1.076264	-0.422147	-0.422157
Zn4	Zn	1.076250	-0.599330	-0.599369
O5	O	1.142332	-0.510750	-0.510771
O6	O	1.319051	-0.445654	-0.575909
O7	O	1.190809	-0.575936	-0.273803
O8	O	1.093842	-0.273796	-0.445691
O9	O	1.318986	-0.575907	-0.445676
O10	O	1.190959	-0.273774	-0.575917
O11	O	1.093756	-0.445705	-0.273809
O12	O	0.965651	-0.445631	-0.445651
O13	O	1.093818	-0.575778	-0.747721
O14	O	0.965641	-0.575807	-0.575848
O15	O	1.190946	-0.445581	-0.747751
O16	O	1.190796	-0.747743	-0.445637
O17	O	1.093733	-0.747687	-0.575840
C18	C	0.936966	-0.510715	-0.510747
C19	C	0.849110	-0.510725	-0.510761
C20	C	0.477615	-0.442912	-0.443119
C21	C	0.477653	-0.578675	-0.578483
C22	C	0.560199	-0.578660	-0.578477
C23	C	0.601457	-0.510771	-0.510789
C24	C	0.560168	-0.442897	-0.443109
C25	C	0.601494	-0.646540	-0.646149
C26	C	0.684044	-0.646528	-0.646144
C27	C	0.725304	-0.578633	-0.578461
C28	C	0.684010	-0.510756	-0.510779
C29	C	0.725268	-0.442867	-0.443091
C30	C	0.683976	-0.374983	-0.375413
C31	C	0.601427	-0.375002	-0.375426
C32	C	0.807852	-0.578614	-0.578449
C33	C	0.807821	-0.442852	-0.443081
C34	C	1.142275	-0.786180	-0.510756
C35	C	1.142322	-0.904010	-0.510785
C36	C	1.081512	-1.071583	-0.592948
C37	C	1.081201	-0.949023	-0.592684
C38	C	1.119771	-0.948602	-0.399064
C39	C	1.119400	-1.071200	-0.399563
C40	C	1.226056	-1.071105	-0.539438
C41	C	1.225543	-0.948498	-0.541881
C42	C	1.348501	-0.510786	-0.510796
C43	C	1.436357	-0.510801	-0.510807
C44	C	1.142391	-0.510668	-0.787276
C45	C	1.142415	-0.510633	-0.905107
C46	C	1.142412	-0.234245	-0.510809
C47	C	1.142446	-0.116414	-0.510825
C48	C	1.081124	-0.592154	-1.072652
C49	C	1.081284	-0.592558	-0.950092
C50	C	1.225701	-0.540957	-0.949624
C51	C	1.225365	-0.541469	-1.072222
C52	C	1.121209	-0.398332	-1.072305
C53	C	1.119351	-0.399004	-0.949699
C54	C	1.142320	-0.510755	-0.235341
C55	C	1.142448	-0.510491	-0.117512
H56	H	1.095311	-0.918870	-0.675525
H57	H	1.165875	-0.337490	-1.101317
N58	N	1.039655	-0.908050	-0.366377
H59	H	0.998876	-0.931548	-0.419607
H60	H	1.025737	-0.937192	-0.294374
N61	N	1.249963	-0.648428	-0.908990
H62	H	1.300532	-0.641773	-0.867357
H63	H	1.207086	-0.677567	-0.861798
H64	H	1.058280	-1.099887	-0.375324
H65	H	0.841468	-0.633887	-0.633548
N66	N	1.175630	-1.110500	-0.315750
H67	H	1.200546	-1.048181	-0.278640
H68	H	1.145813	-1.154852	-0.262673
N69	N	0.433081	-0.369717	-0.370111
H70	H	0.398846	-0.320647	-0.413268
H71	H	0.398861	-0.412836	-0.320940
N72	N	0.999098	-0.910286	-0.567563
H73	H	1.000434	-0.866137	-0.501047
H74	H	0.978928	-0.865964	-0.628252
N75	N	1.099889	-0.702675	-0.911224
H76	H	1.054636	-0.729722	-0.866859
H77	H	1.108041	-0.751086	-0.973781
H78	H	0.717578	-0.319712	-0.320297
N79	N	1.249205	-0.650070	-1.110139
H80	H	1.303796	-0.667219	-1.083249
H81	H	1.210518	-0.704200	-1.082561
N82	N	1.100018	-1.110545	-0.703044
H83	H	1.148080	-1.157639	-0.700760
H84	H	1.053612	-1.151901	-0.731223
H85	H	1.272606	-0.484572	-1.101899
N86	N	0.999916	-1.112500	-0.568169
H87	H	1.002250	-1.159950	-0.503978
H88	H	0.963616	-1.050935	-0.553443
N89	N	1.176690	-0.909991	-0.315791
H90	H	1.217740	-0.863107	-0.349767
H91	H	1.146972	-0.868499	-0.260404
H92	H	0.444056	-0.633953	-0.633585
H93	H	1.246628	-1.101950	-0.619520
H94	H	1.058060	-0.376135	-0.920601
N95	N	0.999479	-0.567386	-0.910236
H96	H	0.961176	-0.622385	-0.936970
H97	H	0.999485	-0.567572	-0.830368
N98	N	1.248080	-0.909890	-0.650789
H99	H	1.204570	-0.863771	-0.679872
H100	H	1.298489	-0.867601	-0.646231
N101	N	0.556893	-0.301823	-0.302402
H102	H	0.498339	-0.312151	-0.312667
H103	H	0.571309	-0.318259	-0.226674
H104	H	1.019182	-0.573360	-1.102127
N105	N	1.287853	-0.464678	-0.911019
H106	H	1.340908	-0.485687	-0.940602
H107	H	1.274281	-0.390823	-0.935380
N108	N	1.288853	-0.907902	-0.468431
H109	H	1.264376	-0.859886	-0.413710
H110	H	1.315195	-0.969574	-0.431999
N111	N	1.286194	-1.109499	-0.460213
H112	H	1.259454	-1.156014	-0.406046
H113	H	1.328370	-1.151326	-0.498013
N114	N	0.728569	-0.719736	-0.719149
H115	H	0.762836	-0.676706	-0.768346
H116	H	0.762758	-0.768791	-0.675913
H117	H	0.567896	-0.701819	-0.701249
H118	H	1.095008	-0.674783	-1.103471
H119	H	1.061535	-0.370691	-1.103211
H120	H	1.160753	-0.334944	-0.919076
H121	H	0.841407	-0.387561	-0.387967
