data_functionalizedCrystal
_audit_creation_method	'MofGen! by Chris Wilmer'
_symmetry_space_group_name_H-M	'P1'
_symmetry_Int_Tables_number	1
_symmetry_cell_setting	triclinic
loop_
_symmetry_equiv_pos_as_xyz
  x,y,z
_cell_length_a	12.837943
_cell_length_b	12.811445
_cell_length_c	11.295443
_cell_angle_alpha	80.002327
_cell_angle_beta	94.170583
_cell_angle_gamma	90.586757
loop_
_atom_site_label
_atom_site_type_symbol
_atom_site_fract_x
_atom_site_fract_y
_atom_site_fract_z
O1	O	-0.155710	1.424347	-0.252824
O2	O	-0.168799	1.117965	-0.219741
O3	O	-0.011276	1.264363	-0.235550
O4	O	-0.313232	1.277950	-0.237015
O5	O	0.001352	1.250378	-0.035988
O6	O	-0.156171	1.103981	-0.020179
O7	O	-0.143082	1.410362	-0.053262
Cu8	Cu	-0.148473	1.255895	-0.018499
Cu9	Cu	-0.163407	1.272433	-0.254504
O10	O	-0.300605	1.263965	-0.037453
C11	C	-0.161363	1.071485	-0.115696
C12	C	-0.158008	0.953823	-0.102992
C13	C	-0.165491	0.747968	-0.296703
C14	C	-0.162340	0.637414	-0.284771
C15	C	-0.148561	0.622159	-0.067197
C16	C	-0.151712	0.732713	-0.079129
C17	C	-0.160176	0.795614	-0.193886
C18	C	-0.163320	0.906170	-0.205817
C19	C	-0.149549	0.890913	0.011757
C20	C	-0.146397	0.780359	0.023689
C21	C	-0.345590	1.275548	-0.137730
C22	C	-0.460820	1.289237	-0.139207
C23	C	-0.699947	1.124665	-0.121459
C24	C	-0.808216	1.137522	-0.122847
C25	C	-0.785629	1.327810	-0.143381
C26	C	-0.677360	1.314952	-0.141993
C27	C	-0.634523	1.213376	-0.131029
C28	C	-0.526252	1.200519	-0.129632
C29	C	-0.503668	1.390806	-0.150175
C30	C	-0.611937	1.403664	-0.151563
C31	C	0.033710	1.252781	-0.135276
C32	C	0.148939	1.239092	-0.133806
C33	C	-0.150518	1.456843	-0.157309
C34	C	-0.153873	1.574506	-0.170022
N35	N	-0.137969	1.244270	0.147494
N36	N	-0.173903	1.284065	-0.420498
C37	C	-0.062370	1.160599	0.343559
C38	C	-0.070305	1.169375	0.217946
C39	C	-0.197701	1.310397	0.202662
C40	C	-0.189766	1.301621	0.328275
C41	C	-0.122100	1.226719	0.398719
C42	C	-0.114171	1.217939	0.524334
C43	C	-0.241562	1.358965	0.509047
C44	C	-0.249496	1.367741	0.383435
H45	H	-0.170211	0.957382	-0.299258
H46	H	-0.450387	1.463041	-0.157966
O47	O	-0.173524	0.809124	-0.408147
C48	C	-0.086084	0.876485	-0.421866
H49	H	-0.018540	0.840894	-0.356759
H50	H	-0.106901	0.957559	-0.401612
C51	C	-0.136646	0.932340	-0.632127
C52	C	-0.053685	0.888622	-0.552169
H53	H	-0.116663	0.939832	-0.712504
H54	H	-0.195559	0.886961	-0.622884
H55	H	-0.153987	0.999897	-0.615234
H56	H	-0.036355	0.821061	-0.569053
H57	H	0.005232	0.933990	-0.561417
O58	O	-0.658390	1.025994	-0.111016
C59	C	-0.698274	0.978486	-0.208443
H60	H	-0.726004	1.042750	-0.287075
H61	H	-0.766679	0.924984	-0.179475
C62	C	-0.577918	0.833123	-0.151205
C63	C	-0.611969	0.912054	-0.247785
H64	H	-0.524684	0.792140	-0.175470
H65	H	-0.551049	0.865127	-0.085563
H66	H	-0.634930	0.788549	-0.127073
H67	H	-0.554960	0.956634	-0.271905
H68	H	-0.638826	0.880056	-0.313432
O69	O	-0.167467	0.591302	-0.384773
C70	C	-0.175643	0.670531	-0.488613
H71	H	-0.143082	0.748174	-0.465345
H72	H	-0.261178	0.681914	-0.523027
C73	C	-0.153004	0.541451	-0.615560
C74	C	-0.113004	0.636812	-0.586985
H75	H	-0.114370	0.520651	-0.676244
H76	H	-0.147500	0.488072	-0.545603
H77	H	-0.224282	0.550949	-0.644232
H78	H	-0.041732	0.627308	-0.558300
H79	H	-0.118495	0.690188	-0.656941
O80	O	-0.263560	1.383098	0.134355
C81	C	-0.366629	1.362233	0.167018
H82	H	-0.364858	1.315278	0.262616
H83	H	-0.408644	1.314256	0.102041
C84	C	-0.427026	1.525351	0.043921
C85	C	-0.424851	1.467688	0.161339
H86	H	-0.462943	1.590399	0.040413
H87	H	-0.357588	1.539407	0.021910
H88	H	-0.462037	1.485358	-0.010214
H89	H	-0.389830	1.507675	0.215469
H90	H	-0.494285	1.453641	0.183358
O91	O	-0.012445	1.105101	0.164240
C92	C	-0.079475	1.044329	0.098730
H93	H	-0.158051	1.086329	0.075493
H94	H	-0.091378	0.963016	0.155582
C95	C	0.066035	0.979469	0.010301
C96	C	-0.030470	1.031058	-0.018248
H97	H	0.096264	0.971277	-0.061854
H98	H	0.111195	1.020408	0.054440
H99	H	0.056103	0.911713	0.057680
H100	H	-0.020535	1.098817	-0.065613
H101	H	-0.075628	0.990129	-0.062398
O102	O	0.003503	1.087949	0.411929
C103	C	0.106560	1.108778	0.379206
H104	H	0.113422	1.195505	0.335549
H105	H	0.126689	1.055975	0.312565
C106	C	0.174248	0.979182	0.546076
C107	C	0.182677	1.085706	0.492465
H108	H	0.221202	0.964946	0.615938
H109	H	0.104816	0.965146	0.568120
H110	H	0.191019	0.935193	0.490530
H111	H	0.165893	1.129693	0.548005
H112	H	0.252108	1.099749	0.470433
O113	O	-0.484575	1.101860	-0.118778
C114	C	-0.416065	1.081481	-0.014021
H115	H	-0.437712	1.134276	0.051980
H116	H	-0.332454	1.098935	-0.039093
C117	C	-0.398347	0.899483	-0.035942
C118	C	-0.424940	0.964321	0.045126
H119	H	-0.403817	0.827213	0.000541
H120	H	-0.444500	0.913213	-0.106521
H121	H	-0.328673	0.914041	-0.056829
H122	H	-0.494617	0.949772	0.065999
H123	H	-0.378799	0.950586	0.115711
H124	H	-0.059077	1.156946	0.581688
H125	H	-0.141679	0.570926	0.026233
H126	H	-0.861481	1.065284	-0.115055
H127	H	-0.820522	1.410503	-0.152232
O128	O	-0.315365	1.440439	0.315138
C129	C	-0.418426	1.419559	0.347820
H130	H	-0.416638	1.372598	0.443416
H131	H	-0.460445	1.371580	0.282846
C132	C	-0.478855	1.582675	0.224744
C133	C	-0.476659	1.525005	0.342161
H134	H	-0.514778	1.647717	0.221248
H135	H	-0.409421	1.596741	0.202720
H136	H	-0.513868	1.542681	0.170612
H137	H	-0.441634	1.564993	0.396288
H138	H	-0.546088	1.510947	0.364193
H139	H	-0.139510	0.729130	0.117121
H140	H	-0.290205	1.412798	0.553972
H141	H	-0.145219	0.929717	0.095479
O142	O	-0.653688	1.502286	-0.162365
C143	C	-0.722155	1.522678	-0.267156
H144	H	-0.750357	1.444416	-0.292914
H145	H	-0.679434	1.569755	-0.344057
C146	C	-0.781923	1.683203	-0.211311
C147	C	-0.816567	1.587080	-0.242942
H148	H	-0.840159	1.722933	-0.196378
H149	H	-0.735792	1.669467	-0.140713
H150	H	-0.746321	1.722420	-0.275401
H151	H	-0.852156	1.547859	-0.178846
H152	H	-0.862706	1.600811	-0.313528
