data_functionalizedCrystal
_audit_creation_method	'MofGen! by Chris Wilmer'
_symmetry_space_group_name_H-M	'P1'
_symmetry_Int_Tables_number	1
_symmetry_cell_setting	triclinic
loop_
_symmetry_equiv_pos_as_xyz
  x,y,z
_cell_length_a	16.625548
_cell_length_b	19.120786
_cell_length_c	16.625539
_cell_angle_alpha	92.471374
_cell_angle_beta	90.020568
_cell_angle_gamma	92.466188
loop_
_atom_site_label
_atom_site_type_symbol
_atom_site_fract_x
_atom_site_fract_y
_atom_site_fract_z
Zn1	Zn	1.218970	-0.279609	0.442197
Zn2	Zn	1.718970	0.220391	0.942197
Zn3	Zn	1.213114	-0.397074	0.301603
Zn4	Zn	1.713114	0.102926	0.801603
Zn5	Zn	1.084131	-0.279636	0.307376
Zn6	Zn	1.584131	0.220364	0.807376
Zn7	Zn	1.078345	-0.397034	0.436395
Zn8	Zn	1.578345	0.102966	0.936395
O9	O	1.148640	-0.338338	0.371893
O10	O	1.648640	0.161662	0.871893
O11	O	1.331025	-0.295197	0.423559
O12	O	1.831025	0.204803	0.923559
O13	O	1.195974	-0.381524	0.189535
O14	O	1.695974	0.118476	0.689535
O15	O	1.106890	-0.181342	0.330104
O16	O	1.606890	0.318658	0.830104
O17	O	1.326723	-0.381498	0.320265
O18	O	1.826723	0.118502	0.820265
O19	O	1.205956	-0.181323	0.429156
O20	O	1.705956	0.318677	0.929156
O21	O	1.101211	-0.295243	0.193776
O22	O	1.601211	0.204757	0.693776
O23	O	0.970531	-0.295204	0.324478
O24	O	1.470531	0.204796	0.824478
O25	O	1.097028	-0.381429	0.549998
O26	O	1.597028	0.118571	1.049998
O27	O	0.966280	-0.381455	0.419268
O28	O	1.466280	0.118545	0.919268
O29	O	1.200345	-0.295158	0.554261
O30	O	1.700345	0.204842	1.054261
O31	O	1.190364	-0.495359	0.314640
O32	O	1.690364	0.004641	0.814640
O33	O	1.091350	-0.495329	0.413671
O34	O	1.591350	0.004671	0.913671
C35	C	0.939149	-0.338328	0.371871
C36	C	1.439149	0.161672	0.871871
C37	C	0.849528	-0.338341	0.371879
C38	C	1.349528	0.161659	0.871879
C39	C	0.521352	-0.338345	0.371914
C40	C	1.021352	0.161655	0.871914
C41	C	0.612660	-0.338342	0.371902
C42	C	1.112660	0.161658	0.871902
C43	C	0.685437	-0.338344	0.371896
C44	C	1.185437	0.161656	0.871896
C45	C	0.776751	-0.338340	0.371885
C46	C	1.276751	0.161660	0.871885
C47	C	1.139615	-0.520830	0.362917
C48	C	1.639615	-0.020830	0.862917
C49	C	1.135828	-0.598901	0.359104
C50	C	1.635828	-0.098901	0.859104
C51	C	1.185589	-0.635508	0.408925
C52	C	1.685589	-0.135508	0.908925
C53	C	1.182027	-0.708863	0.405344
C54	C	1.682027	-0.208863	0.905344
C55	C	1.128709	-0.745611	0.351936
C56	C	1.628709	-0.245611	0.851936
C57	C	1.078942	-0.708998	0.302113
C58	C	1.578942	-0.208998	0.802113
C59	C	1.082500	-0.635644	0.305699
C60	C	1.582500	-0.135644	0.805699
C61	C	1.115383	-0.967097	0.338531
C62	C	1.615383	-0.467097	0.838531
C63	C	1.111831	-1.040456	0.334947
C64	C	1.611831	-0.540456	0.834947
C65	C	1.214915	-1.040316	0.438180
C66	C	1.714915	-0.540316	0.938180
C67	C	1.218472	-0.966960	0.441758
C68	C	1.718472	-0.466960	0.941758
C69	C	1.168703	-0.930355	0.391937
C70	C	1.668703	-0.430355	0.891937
C71	C	1.125069	-0.820592	0.348273
C72	C	1.625069	-0.320592	0.848273
C73	C	1.172339	-0.855375	0.395605
C74	C	1.672339	-0.355375	0.895605
C75	C	1.358948	-0.338349	0.371915
C76	C	1.858948	0.161651	0.871915
C77	C	1.448569	-0.338353	0.371925
C78	C	1.948569	0.161647	0.871925
C79	C	1.148695	-0.338286	0.582204
C80	C	1.648695	0.161714	1.082204
C81	C	1.148718	-0.338264	0.671826
C82	C	1.648718	0.161736	1.171826
C83	C	1.157722	-0.155134	0.380921
C84	C	1.657722	0.344866	0.880921
C85	C	1.161592	-0.077063	0.384769
C86	C	1.661592	0.422937	0.884769
C87	C	1.148634	-0.338340	0.162402
C88	C	1.648634	0.161660	0.662402
C89	C	1.148776	-0.338164	0.072790
C90	C	1.648776	0.161836	0.572790
C91	C	1.148759	-0.338185	1.000006
C92	C	1.648759	0.161815	1.500006
C93	C	1.148745	-0.338209	0.908696
C94	C	1.648745	0.161791	1.408696
C95	C	1.148739	-0.338225	0.835919
C96	C	1.648739	0.161775	1.335919
C97	C	1.148724	-0.338248	0.744604
C98	C	1.648724	0.161752	1.244604
H99	H	1.229010	-0.605593	0.452412
H100	H	1.729010	-0.105593	0.952412
C101	C	1.273874	-0.862603	0.497293
C102	C	1.773874	-0.362603	0.997293
C103	C	1.230943	-0.814985	0.454314
C104	C	1.730943	-0.314985	0.954314
H105	H	1.310050	-0.837662	0.533539
H106	H	1.810050	-0.337662	1.033539
H107	H	1.303351	-0.891206	0.460794
H108	H	1.803351	-0.391206	0.960794
H109	H	1.237334	-0.891228	0.526703
H110	H	1.737334	-0.391228	1.026703
H111	H	1.267484	-0.786364	0.424899
H112	H	1.767484	-0.286364	0.924899
H113	H	1.201465	-0.786370	0.490818
H114	H	1.701465	-0.286370	0.990818
H115	H	1.255434	-1.070129	0.478742
H116	H	1.755434	-0.570129	0.978742
C117	C	0.978044	-0.553243	0.298431
C118	C	1.478044	-0.053243	0.798431
C119	C	1.027802	-0.595402	0.250934
C120	C	1.527802	-0.095402	0.750934
H121	H	0.944270	-0.528404	0.264621
H122	H	1.444270	-0.028404	0.764621
H123	H	1.010309	-0.520865	0.330744
H124	H	1.510309	-0.020865	0.830744
H125	H	0.945798	-0.581873	0.332130
H126	H	1.445798	-0.081873	0.832130
H127	H	1.060052	-0.566771	0.217238
H128	H	1.560052	-0.066771	0.717238
H129	H	0.995533	-0.627783	0.218607
H130	H	1.495533	-0.127783	0.718607
H131	H	1.081659	-0.850520	0.304786
H132	H	1.581659	-0.350520	0.804786
H133	H	1.074861	-0.937298	0.297963
H134	H	1.574861	-0.437298	0.797963
C135	C	1.010275	-1.033231	0.233274
C136	C	1.510275	-0.533231	0.733274
C137	C	1.053212	-1.080851	0.276243
C138	C	1.553212	-0.580851	0.776243
H139	H	0.974086	-1.058170	0.197039
H140	H	1.474086	-0.558170	0.697039
H141	H	1.046804	-1.004611	0.203859
H142	H	1.546804	-0.504611	0.703859
H143	H	0.980804	-1.004623	0.269785
H144	H	1.480804	-0.504623	0.769785
H145	H	1.082688	-1.109455	0.239732
H146	H	1.582688	-0.609455	0.739732
H147	H	1.016678	-1.109483	0.305660
H148	H	1.516678	-0.609483	0.805660
H149	H	1.261888	-0.937042	0.485246
H150	H	1.761888	-0.437042	0.985246
C151	C	1.027724	-0.821506	0.250770
C152	C	1.527724	-0.321506	0.750770
C153	C	1.020335	-0.749389	0.243403
C154	C	1.520335	-0.249389	0.743403
H155	H	0.991546	-0.846439	0.214518
H156	H	1.491546	-0.346439	0.714518
H157	H	1.015307	-0.833505	0.304340
H158	H	1.515307	-0.333505	0.804340
H159	H	1.081328	-0.833483	0.238434
H160	H	1.581328	-0.333483	0.738434
H161	H	0.966732	-0.737411	0.255744
H162	H	1.466732	-0.237411	0.755744
H163	H	1.032746	-0.737385	0.189820
H164	H	1.532746	-0.237385	0.689820
H165	H	1.222554	-0.738666	0.445908
H166	H	1.722554	-0.238666	0.945908
