data_functionalizedCrystal
_audit_creation_method	'MofGen! by Chris Wilmer'
_symmetry_space_group_name_H-M	'P1'
_symmetry_Int_Tables_number	1
_symmetry_cell_setting	triclinic
loop_
_symmetry_equiv_pos_as_xyz
  x,y,z
_cell_length_a	16.959453
_cell_length_b	16.625548
_cell_length_c	16.959447
_cell_angle_alpha	90.019827
_cell_angle_beta	89.968822
_cell_angle_gamma	89.975320
loop_
_atom_site_label
_atom_site_type_symbol
_atom_site_fract_x
_atom_site_fract_y
_atom_site_fract_z
Zn1	Zn	-0.314668	-1.232647	-0.446965
Zn2	Zn	-0.446861	-1.232551	-0.314785
Zn3	Zn	-0.314700	-1.097815	-0.314796
Zn4	Zn	-0.446808	-1.097774	-0.446917
O5	O	-0.380759	-1.165197	-0.380866
O6	O	-0.332213	-1.345467	-0.429447
O7	O	-0.429365	-1.214655	-0.204175
O8	O	-0.204085	-1.115758	-0.332354
O9	O	-0.429334	-1.345396	-0.332334
O10	O	-0.204062	-1.214819	-0.429458
O11	O	-0.332267	-1.115665	-0.204184
O12	O	-0.332216	-0.984977	-0.332307
O13	O	-0.429244	-1.115688	-0.557534
O14	O	-0.429275	-0.984947	-0.429375
O15	O	-0.332162	-1.214779	-0.557570
O16	O	-0.557465	-1.214615	-0.332288
O17	O	-0.557426	-1.115595	-0.429364
C18	C	-0.586126	-1.165112	-0.380837
C19	C	-0.673982	-1.165149	-0.380851
C20	C	-0.380744	-0.955706	-0.380837
C21	C	-0.380756	-0.866085	-0.380844
C22	C	-0.715265	-1.113569	-0.431358
C23	C	-0.715253	-1.216770	-0.330361
C24	C	-0.797799	-1.216810	-0.330375
C25	C	-0.839082	-1.165229	-0.380883
C26	C	-0.797819	-1.113609	-0.431376
C27	C	-0.839068	-1.268435	-0.279888
C28	C	-0.921619	-1.268478	-0.279901
C29	C	-0.962903	-1.216893	-0.330405
C30	C	-0.921635	-1.165270	-0.380900
C31	C	-0.962918	-1.113689	-0.431408
C32	C	-0.921652	-1.062061	-0.481899
C33	C	-0.839103	-1.062024	-0.481880
C34	C	-1.045452	-1.216930	-0.330424
C35	C	-1.045472	-1.113729	-0.431425
C36	C	-0.380755	-0.537909	-0.380868
C37	C	-0.380753	-0.629218	-0.380859
C38	C	-0.380756	-0.701994	-0.380855
C39	C	-0.380753	-0.793308	-0.380847
C40	C	-0.174591	-1.165304	-0.380912
C41	C	-0.086735	-1.165350	-0.380932
C42	C	-0.380694	-1.165240	-0.587034
C43	C	-0.380666	-1.165258	-0.674891
C44	C	-0.380770	-0.375506	-0.380887
C45	C	-0.380762	-0.465127	-0.380877
C46	C	-0.330028	-1.113790	-1.046377
C47	C	-0.431137	-1.216869	-1.046356
C48	C	-0.431155	-1.216855	-0.963810
C49	C	-0.380610	-1.165307	-0.922544
C50	C	-0.330046	-1.113773	-0.963824
C51	C	-0.481724	-1.268382	-0.922524
C52	C	-0.481745	-1.268370	-0.839973
C53	C	-0.431195	-1.216825	-0.798706
C54	C	-0.380629	-1.165290	-0.839990
C55	C	-0.330083	-1.113741	-0.798724
C56	C	-0.279512	-1.062209	-0.840007
C57	C	-0.279496	-1.062228	-0.922556
C58	C	-0.431211	-1.216806	-0.716157
C59	C	-0.330102	-1.113724	-0.716170
C60	C	-0.380768	-1.165200	-0.175500
C61	C	-0.380573	-1.165338	-0.087643
H62	H	-1.079078	-1.071725	-0.472555
H63	H	-0.955275	-1.020068	-0.523026
C64	C	-0.537673	-1.324718	-0.967921
N65	N	-0.579941	-1.367023	-1.002117
C66	C	-0.537348	-1.325082	-0.794569
N67	N	-0.579219	-1.367808	-0.760370
H68	H	-0.472380	-1.258768	-0.682548
C69	C	-0.793652	-1.325170	-0.224334
N70	N	-0.759441	-1.367902	-0.182486
H71	H	-0.805499	-1.019991	-0.522989
C72	C	-0.967004	-1.325262	-0.224353
N73	N	-1.001190	-1.368029	-0.182511
C74	C	-0.223911	-1.005512	-0.794604
N75	N	-0.182031	-0.962811	-0.760402
C76	C	-0.669872	-1.056782	-0.486898
N77	N	-0.635681	-1.014011	-0.528732
C78	C	-0.669839	-1.273505	-0.274806
N79	N	-0.635630	-1.316239	-0.232957
C80	C	-1.090841	-1.273718	-0.274888
N81	N	-1.125027	-1.316492	-0.233053
C82	C	-0.274497	-1.057016	-0.670784
N83	N	-0.232616	-1.014302	-0.636600
H84	H	-0.238325	-1.020272	-0.956176
H85	H	-0.288852	-1.071836	-1.079994
C86	C	-0.486966	-1.273330	-1.091751
N87	N	-0.529100	-1.315775	-1.125946
