data_functionalizedCrystal
_audit_creation_method	'MofGen! by Chris Wilmer'
_symmetry_space_group_name_H-M	'P1'
_symmetry_Int_Tables_number	1
_symmetry_cell_setting	triclinic
loop_
_symmetry_equiv_pos_as_xyz
  x,y,z
_cell_length_a	11.169417
_cell_length_b	18.050588
_cell_length_c	11.169409
_cell_angle_alpha	90.035796
_cell_angle_beta	90.019513
_cell_angle_gamma	90.030810
loop_
_atom_site_label
_atom_site_type_symbol
_atom_site_fract_x
_atom_site_fract_y
_atom_site_fract_z
Zn1	Zn	1.834802	-0.295575	0.678504
Zn2	Zn	1.834624	-0.419790	0.477809
Zn3	Zn	1.634088	-0.295621	0.477839
Zn4	Zn	1.634028	-0.419730	0.678455
O5	O	1.734386	-0.357679	0.578152
O6	O	2.002728	-0.312058	0.651889
O7	O	1.807973	-0.403363	0.309863
O8	O	1.660813	-0.191690	0.504491
O9	O	2.002597	-0.403318	0.504439
O10	O	1.808276	-0.191656	0.651919
O11	O	1.660640	-0.312136	0.309885
O12	O	1.466130	-0.312078	0.504444
O13	O	1.660711	-0.403216	0.846411
O14	O	1.466086	-0.403261	0.651835
O15	O	1.808218	-0.312000	0.846447
O16	O	1.807915	-0.523706	0.504391
O17	O	1.660538	-0.523663	0.651805
C18	C	1.422561	-0.357669	0.578138
C19	C	1.289161	-0.357682	0.578160
C20	C	1.734233	-0.550631	0.578116
C21	C	1.734278	-0.633177	0.578140
C22	C	1.654261	-0.882005	0.658305
C23	C	1.763699	-0.832531	0.687749
C24	C	1.734527	-0.930297	0.578207
C25	C	1.624972	-0.832690	0.548786
C26	C	1.734399	-0.784312	0.578177
C27	C	1.844025	-0.881909	0.607709
C28	C	1.705223	-0.882073	0.468695
C29	C	1.814737	-0.832621	0.498098
C30	C	1.734600	-1.014395	0.578228
C31	C	1.734339	-0.700215	0.578157
C32	C	2.047428	-0.357689	0.578166
C33	C	2.180828	-0.357694	0.578172
C34	C	1.734478	-0.357596	0.891194
C35	C	1.734517	-0.357561	1.024594
C36	C	1.734571	-0.163973	0.578214
C37	C	1.734650	-0.081427	0.578241
C38	C	1.734363	-0.357707	0.266327
C39	C	1.734556	-0.357533	0.132927
H40	H	1.586520	-0.903687	0.726105
H41	H	1.936648	-0.903441	0.632688
H42	H	1.788439	-0.810771	0.780349
F43	F	1.503943	-0.804426	0.516275
H44	H	1.882640	-0.811074	0.430349
F45	F	1.672846	-0.910538	0.347694
