data_functionalizedCrystal
_audit_creation_method	'MofGen! by Chris Wilmer'
_symmetry_space_group_name_H-M	'P1'
_symmetry_Int_Tables_number	1
_symmetry_cell_setting	triclinic
loop_
_symmetry_equiv_pos_as_xyz
  x,y,z
_cell_length_a	10.654550
_cell_length_b	8.140239
_cell_length_c	10.654550
_cell_angle_alpha	90.003375
_cell_angle_beta	84.484931
_cell_angle_gamma	89.999482
loop_
_atom_site_label
_atom_site_type_symbol
_atom_site_fract_x
_atom_site_fract_y
_atom_site_fract_z
O1	O	1.667838	0.136490	0.176397
O2	O	2.167838	0.636490	0.676397
O3	O	1.302360	0.136520	0.193203
O4	O	1.802360	0.636520	0.693203
O5	O	1.493502	0.136494	0.002061
O6	O	1.993502	0.636494	0.502061
O7	O	1.476696	0.136516	0.367539
O8	O	1.976696	0.636516	0.867539
O9	O	1.493491	-0.136733	0.002059
O10	O	1.993491	0.363267	0.502059
O11	O	1.302349	-0.136707	0.193201
O12	O	1.802349	0.363293	0.693201
O13	O	1.667828	-0.136737	0.176395
O14	O	2.167828	0.363263	0.676395
Zn15	Zn	1.485087	-0.180102	0.184798
Zn16	Zn	1.985087	0.319898	0.684798
Zn17	Zn	1.485101	0.179886	0.184800
Zn18	Zn	1.985101	0.679886	0.684800
O19	O	1.476685	-0.136711	0.367537
O20	O	1.976685	0.363289	0.867537
C21	C	1.255556	-0.000089	0.191968
C22	C	1.755556	0.499911	0.691968
C23	C	1.116113	-0.000078	0.188276
C24	C	1.616113	0.499922	0.688276
N25	N	1.485086	-0.425785	0.184795
N26	N	1.985086	0.074215	0.684795
C27	C	1.036628	-0.000076	0.300818
C28	C	1.536628	0.499924	0.800818
C29	C	0.905607	-0.000105	0.297341
C30	C	1.405607	0.499895	0.797341
C31	C	0.933570	-0.000131	0.068772
C32	C	1.433570	0.499869	0.568772
C33	C	1.064588	-0.000114	0.072250
C34	C	1.564588	0.499886	0.572250
C35	C	1.714631	-0.000123	0.177630
C36	C	2.214631	0.499877	0.677630
C37	C	1.854074	-0.000124	0.181322
C38	C	2.354074	0.499876	0.681322
C39	C	1.492263	-0.000118	-0.044738
C40	C	1.992263	0.499882	0.455262
C41	C	1.488571	-0.000115	-0.184181
C42	C	1.988571	0.499885	0.315819
N43	N	1.485111	0.425569	0.184793
N44	N	1.985111	0.925569	0.684793
C45	C	1.601112	-0.000124	-0.263667
C46	C	2.101112	0.499876	0.236333
C47	C	1.597636	-0.000104	-0.394688
C48	C	2.097636	0.499896	0.105312
C49	C	1.369066	-0.000073	-0.366725
C50	C	1.869066	0.499927	0.133275
C51	C	1.372544	-0.000081	-0.235706
C52	C	1.872544	0.499919	0.264294
C53	C	1.477925	-0.000094	0.414336
C54	C	1.977925	0.499906	0.914336
C55	C	1.481617	-0.000086	0.553779
C56	C	1.981617	0.499914	1.053779
H57	H	1.078574	-0.000059	0.395294
H58	H	1.578574	0.499941	0.895294
C59	C	1.241448	-0.000059	-0.423407
C60	C	1.741448	0.499941	0.076593
H61	H	1.255493	-0.000073	-0.512821
H62	H	1.755493	0.499927	-0.012821
H63	H	1.195061	0.095223	-0.396187
H64	H	1.695061	0.595223	0.103813
H65	H	1.195063	-0.095350	-0.396195
H66	H	1.695063	0.404650	0.103805
H67	H	0.840894	-0.000106	0.388984
H68	H	1.340894	0.499894	0.888984
C69	C	1.152034	-0.000114	-0.051549
C70	C	1.652034	0.499886	0.448451
H71	H	1.237442	-0.000117	-0.032857
H72	H	1.737442	0.499883	0.467143
H73	H	1.136304	0.095156	-0.099081
H74	H	1.636304	0.595156	0.400919
H75	H	1.136315	-0.095416	-0.099071
H76	H	1.636315	0.404584	0.400929
C77	C	0.876894	-0.000150	-0.058850
C78	C	1.376894	0.499850	0.441150
H79	H	0.943001	-0.000163	-0.125378
H80	H	1.443001	0.499837	0.374622
H81	H	0.826358	0.095125	-0.064958
H82	H	1.326358	0.595125	0.435042
H83	H	0.826372	-0.095448	-0.064958
H84	H	1.326372	0.404552	0.435042
H85	H	1.695588	-0.000148	-0.221720
H86	H	2.195588	0.499852	0.278280
H87	H	1.689279	-0.000107	-0.459401
H88	H	2.189279	0.499893	0.040599
C89	C	1.248742	-0.000077	-0.148266
C90	C	1.748742	0.499923	0.351734
H91	H	1.179143	-0.000079	-0.197715
H92	H	1.679143	0.499921	0.302285
H93	H	1.245356	0.095200	-0.096567
H94	H	1.745356	0.595200	0.403433
H95	H	1.245347	-0.095373	-0.096584
H96	H	1.745347	0.404627	0.403416
