data_functionalizedCrystal
_audit_creation_method	'MofGen! by Chris Wilmer'
_symmetry_space_group_name_H-M	'P1'
_symmetry_Int_Tables_number	1
_symmetry_cell_setting	triclinic
loop_
_symmetry_equiv_pos_as_xyz
  x,y,z
_cell_length_a	27.732064
_cell_length_b	27.731994
_cell_length_c	26.210047
_cell_angle_alpha	90.002872
_cell_angle_beta	89.991443
_cell_angle_gamma	82.634978
loop_
_atom_site_label
_atom_site_type_symbol
_atom_site_fract_x
_atom_site_fract_y
_atom_site_fract_z
O1	O	0.057385	0.640952	0.042352
O2	O	0.066158	0.500155	0.042368
O3	O	-0.008626	0.574922	0.042362
O4	O	0.132168	0.566185	0.042359
O5	O	-0.008614	0.574908	-0.042496
O6	O	0.066169	0.500141	-0.042490
O7	O	0.057396	0.640937	-0.042506
Cu8	Cu	0.061784	0.570538	-0.050246
Cu9	Cu	0.061770	0.570555	0.050108
O10	O	0.132180	0.566170	-0.042499
C11	C	0.065983	0.482140	-0.000058
C12	C	0.065441	0.428484	-0.000052
C13	C	0.062032	0.095758	-0.046328
C14	C	0.059970	-0.105901	-0.046334
O15	O	0.059688	-0.131980	-0.085672
N16	N	0.059708	-0.131108	-0.000077
C17	C	0.059958	-0.105897	0.046183
O18	O	0.059682	-0.131963	0.085527
C19	C	0.062016	0.095761	0.046189
C20	C	0.062283	0.120965	-0.000071
C21	C	0.062298	0.120961	-0.092583
C22	C	0.062816	0.171373	-0.092581
C23	C	0.063068	0.196580	-0.046324
C24	C	0.062801	0.171376	-0.000069
C25	C	0.062262	0.120972	0.092449
C26	C	0.062775	0.171390	0.092446
C27	C	0.063043	0.196593	0.046187
C28	C	0.063570	0.246995	0.046191
N29	N	0.063833	0.272202	-0.000066
C30	C	0.063581	0.246994	-0.046323
C31	C	0.058878	-0.211770	0.046177
C32	C	0.058364	-0.262184	0.046176
C33	C	0.058376	-0.262185	-0.046341
C34	C	0.058893	-0.211770	-0.046339
C35	C	0.059140	-0.186563	-0.000079
C36	C	0.064670	0.352861	-0.046315
C37	C	0.065190	0.403277	-0.046309
C38	C	0.065176	0.403273	0.046207
C39	C	0.064658	0.352862	0.046202
C40	C	0.064403	0.327657	-0.000064
O41	O	0.063847	0.273106	0.085509
O42	O	0.063846	0.273071	-0.085660
C43	C	0.061514	0.045346	-0.046330
C44	C	0.061247	0.020143	-0.000074
C45	C	0.061498	0.045350	0.046183
C46	C	0.060733	-0.030272	-0.000076
C47	C	0.060482	-0.055479	-0.046333
C48	C	0.060744	-0.030272	-0.092589
C49	C	0.061262	0.020139	-0.092587
C50	C	0.061236	0.020143	0.092439
C51	C	0.060718	-0.030268	0.092433
C52	C	0.060467	-0.055476	0.046176
C53	C	-0.026627	0.574730	-0.000066
C54	C	-0.080281	0.574174	-0.000061
C55	C	-0.457344	0.526206	-0.000053
C56	C	-0.255685	0.528252	-0.000053
O57	O	-0.224425	0.491030	-0.000028
N58	N	-0.236566	0.572588	-0.000058
C59	C	-0.267865	0.616415	-0.000060
O60	O	-0.246976	0.654172	-0.000059
C61	C	-0.469524	0.614368	-0.000057
C62	C	-0.488640	0.570029	-0.000057
C63	C	-0.476461	0.481871	-0.000053
C64	C	-0.526873	0.481360	-0.000056
C65	C	-0.558168	0.525184	-0.000059
C66	C	-0.539052	0.569518	-0.000060
C67	C	-0.500823	0.658194	-0.000055
C68	C	-0.551240	0.657679	-0.000053
C69	C	-0.570356	0.613340	-0.000053
C70	C	-0.620760	0.612831	-0.000066
N71	N	-0.639879	0.568495	-0.000061
C72	C	-0.608583	0.524672	-0.000057
C73	C	-0.161991	0.617486	-0.000063
C74	C	-0.111577	0.617998	-0.000064
C75	C	-0.099399	0.529835	-0.000056
C76	C	-0.149815	0.529324	-0.000058
C77	C	-0.181110	0.573151	-0.000057
C78	C	-0.714452	0.523602	-0.000064
C79	C	-0.764869	0.523095	-0.000069
C80	C	-0.777042	0.611257	-0.000074
C81	C	-0.726630	0.611764	-0.000072
C82	C	-0.695335	0.567933	-0.000065
O83	O	-0.652048	0.650033	-0.000085
O84	O	-0.629481	0.486920	-0.000047
C85	C	-0.406932	0.526717	-0.000050
C86	C	-0.387816	0.571052	-0.000051
C87	C	-0.419112	0.614875	-0.000054
C88	C	-0.337402	0.571563	-0.000053
C89	C	-0.306106	0.527740	-0.000049
C90	C	-0.325225	0.483404	-0.000044
C91	C	-0.375637	0.482893	-0.000047
C92	C	-0.399993	0.659211	-0.000059
C93	C	-0.349580	0.659718	-0.000057
C94	C	-0.318285	0.615895	-0.000054
C95	C	0.150181	0.566362	-0.000071
C96	C	0.203835	0.566918	-0.000072
C97	C	0.057571	0.658952	-0.000078
C98	C	0.058113	0.712608	-0.000081
N99	N	0.061793	0.570529	-0.120830
C100	C	0.028663	0.603658	-0.473347
C101	C	0.028657	0.603669	-0.687006
O102	O	0.000491	0.631818	-0.714630
N103	N	0.061760	0.570557	-0.713724
C104	C	0.094864	0.537439	-0.687024
O105	O	0.123017	0.509272	-0.714652
C106	C	0.094868	0.537426	-0.473367
C107	C	0.061767	0.570543	-0.446651
C108	C	-0.004436	0.636772	-0.446631
C109	C	-0.004432	0.636771	-0.393220
C110	C	0.028671	0.603656	-0.366524
C111	C	0.061770	0.570542	-0.393240
C112	C	0.127970	0.504306	-0.446668
C113	C	0.127968	0.504305	-0.393250
C114	C	0.094866	0.537422	-0.366535
C115	C	0.094877	0.537425	-0.313132
N116	N	0.061775	0.570537	-0.286414
C117	C	0.028671	0.603652	-0.313110
C118	C	0.094860	0.537448	-0.799198
C119	C	0.094860	0.537452	-0.852612
C120	C	0.028652	0.603682	-0.852589
C121	C	0.028655	0.603680	-0.799174
C122	C	0.061758	0.570560	-0.772479
C123	C	0.028682	0.603647	-0.200942
C124	C	0.028690	0.603644	-0.147526
C125	C	0.094897	0.537413	-0.147553
C126	C	0.094890	0.537418	-0.200964
C127	C	0.061779	0.570536	-0.227658
O128	O	0.123025	0.509288	-0.285475
O129	O	0.000516	0.631807	-0.285473
C130	C	0.028660	0.603659	-0.526758
C131	C	0.061759	0.570546	-0.553474
C132	C	0.094862	0.537430	-0.526778
C133	C	0.061759	0.570549	-0.606888
C134	C	0.028656	0.603664	-0.633584
C135	C	-0.004447	0.636776	-0.606866
C136	C	-0.004443	0.636775	-0.553454
C137	C	0.127965	0.504319	-0.553496
C138	C	0.127959	0.504323	-0.606908
C139	C	0.094856	0.537438	-0.633604
N140	N	0.061757	0.570567	0.120692
H141	H	0.060505	-0.050785	0.130106
H142	H	0.065409	0.423795	-0.083981
F143	F	-0.810358	0.657895	-0.000081
H144	H	0.061439	0.040662	0.130108
H145	H	0.001700	0.630646	-0.777426
H146	H	0.064467	0.332345	-0.083989
F147	F	-0.006542	0.638894	-0.119096
F148	F	0.064381	0.326036	0.095436
F149	F	-0.091238	0.665189	-0.000072
F150	F	-0.785210	0.475902	-0.000070
F151	F	0.059177	-0.184951	-0.095574
F152	F	-0.006559	0.638896	-0.229343
F153	F	0.130097	0.502211	-0.881039
F154	F	0.062032	0.094141	-0.141821
H155	H	-0.031400	0.663741	-0.628610
H156	H	-0.031398	0.663741	-0.531706
H157	H	0.063031	0.191889	-0.130250
H158	H	0.059079	-0.191251	0.083850
F159	F	-0.681153	0.476951	-0.000057
F160	F	0.058108	-0.289021	-0.095572
H161	H	-0.187468	0.653177	-0.000063
H162	H	-0.031388	0.663736	-0.371471
H163	H	0.058154	-0.282702	0.083845
H164	H	-0.031395	0.663738	-0.468362
F165	F	-0.395975	0.435702	-0.000046
F166	F	0.061977	0.094159	0.141685
F167	F	0.163195	0.469076	-0.635336
F168	F	-0.706284	0.658954	-0.000088
H169	H	0.062977	0.191911	0.130118
F170	F	-0.006579	0.638925	-0.881011
F171	F	0.065442	0.430110	0.095435
F172	F	-0.066084	0.483195	-0.000053
F173	F	0.061547	0.046956	-0.141823
H174	H	0.060542	-0.050805	-0.130253
H175	H	0.121818	0.510477	-0.777466
H176	H	0.121849	0.510455	-0.222717
H177	H	0.154924	0.477339	-0.468412
F178	F	-0.547211	0.434169	-0.000051
F179	F	0.163199	0.469072	-0.525091
H180	H	-0.450984	0.446182	-0.000048
F181	F	0.163200	0.469051	-0.364843
F182	F	-0.480490	0.705386	-0.000046
F183	F	-0.170154	0.482134	-0.000058
H184	H	-0.576719	0.693369	-0.000049
H185	H	0.121850	0.510453	-0.125809
F186	F	-0.291909	0.436764	-0.000043
H187	H	-0.334022	0.695827	-0.000061
H188	H	-0.425469	0.694898	-0.000062
