data_functionalizedCrystal
_audit_creation_method	'MofGen! by Chris Wilmer'
_symmetry_space_group_name_H-M	'P1'
_symmetry_Int_Tables_number	1
_symmetry_cell_setting	triclinic
loop_
_symmetry_equiv_pos_as_xyz
  x,y,z
_cell_length_a	19.288864
_cell_length_b	10.654550
_cell_length_c	18.366186
_cell_angle_alpha	89.994973
_cell_angle_beta	89.977106
_cell_angle_gamma	83.810575
loop_
_atom_site_label
_atom_site_type_symbol
_atom_site_fract_x
_atom_site_fract_y
_atom_site_fract_z
O1	O	0.922379	0.156657	-0.060782
O2	O	0.720256	0.177789	-0.060732
O3	O	0.825965	-0.015616	-0.060755
O4	O	0.816670	0.350062	-0.060758
O5	O	0.825946	-0.015625	0.060344
O6	O	0.720238	0.177780	0.060368
O7	O	0.922360	0.156647	0.060318
Zn8	Zn	0.821296	0.167212	0.079570
Zn9	Zn	0.821320	0.167224	-0.079984
O10	O	0.816652	0.350052	0.060341
C11	C	0.694366	0.177105	-0.000176
C12	C	0.617249	0.175063	-0.000156
C13	C	0.573296	0.288545	-0.000169
C14	C	0.500836	0.286627	-0.000177
C15	C	0.472333	0.171222	-0.000187
C16	C	0.516296	0.057725	-0.000171
C17	C	0.588754	0.059646	-0.000155
C18	C	0.363484	0.080503	-0.042637
C19	C	0.291027	0.078587	-0.042657
C20	C	0.248849	0.165292	-0.000231
C21	C	0.279136	0.253935	0.042205
C22	C	0.351594	0.255855	0.042221
C23	C	0.393766	0.169126	-0.000203
C24	C	0.126326	0.276702	-0.000251
C25	C	0.053865	0.274779	-0.000255
C26	C	0.069327	0.045875	-0.000256
C27	C	0.141786	0.047800	-0.000245
C28	C	0.170281	0.163217	-0.000246
C29	C	0.825273	-0.062404	-0.000206
C30	C	0.823231	-0.201803	-0.000208
C31	C	0.885471	-0.282621	-0.000221
C32	C	0.883548	-0.413601	-0.000226
C33	C	0.757141	-0.382932	-0.000201
C34	C	0.759065	-0.251955	-0.000202
C35	C	0.958451	-0.300329	-0.000232
C36	C	0.956528	-0.431309	-0.000237
C37	C	0.948250	0.157332	-0.000240
C38	C	1.025367	0.159373	-0.000264
C39	C	0.817344	0.396840	-0.000209
C40	C	0.819385	0.536240	-0.000212
N41	N	0.821285	0.167203	0.188461
N42	N	0.821337	0.167224	-0.188875
C43	C	0.868108	0.081605	0.226551
C44	C	0.868113	0.081599	0.302779
C45	C	0.821300	0.167213	0.340914
C46	C	0.774468	0.252817	0.302815
C47	C	0.774461	0.252812	0.226588
C48	C	0.812752	0.281634	0.461675
C49	C	0.812764	0.281641	0.537899
C50	C	0.821320	0.167229	0.576021
C51	C	0.829879	0.052804	0.537909
C52	C	0.829871	0.052799	0.461682
C53	C	0.821303	0.167228	0.423569
C54	C	0.868151	0.081618	0.696766
C55	C	0.868151	0.081610	0.772995
C56	C	0.774509	0.252840	0.773030
C57	C	0.774507	0.252836	0.696802
C58	C	0.821331	0.167226	0.658675
H59	H	0.376250	0.328027	0.076776
C60	C	0.803355	0.407500	0.579816
H61	H	0.798247	0.475639	0.546197
H62	H	0.843077	0.414293	0.609528
H63	H	0.762926	0.410225	0.609575
C64	C	0.190140	-0.077027	-0.000242
H65	H	0.237375	-0.059355	-0.000227
H66	H	0.181464	-0.124363	-0.042474
H67	H	0.181418	-0.124370	0.041991
H68	H	0.978591	-0.477420	-0.052530
H69	H	0.805772	0.374809	0.430642
C70	C	0.686564	-0.438104	-0.000188
H71	H	0.694331	-0.527684	-0.000186
H72	H	0.660916	-0.410330	-0.042411
H73	H	0.660905	-0.410346	0.042054
C74	C	0.723015	0.347016	0.814965
H75	H	0.695126	0.397994	0.781359
H76	H	0.748251	0.399178	0.844686
H77	H	0.693887	0.301967	0.844718
C78	C	0.722958	0.346983	0.184687
H79	H	0.695080	0.397977	0.218314
H80	H	0.693829	0.301943	0.154966
H81	H	0.748196	0.399147	0.154939
H82	H	0.736381	0.322543	0.665787
H83	H	0.984018	-0.473662	0.050435
C84	C	0.690604	-0.163053	-0.000202
H85	H	0.700937	-0.077865	-0.000211
H86	H	0.664303	-0.178216	0.042029
H87	H	0.664338	-0.178222	-0.042437
C88	C	0.037982	-0.081069	-0.000271
H89	H	-0.011467	-0.065962	-0.000287
H90	H	0.053009	-0.127790	0.041958
H91	H	0.053057	-0.127767	-0.042507
C92	C	0.989839	-0.252869	0.070391
H93	H	1.002489	-0.322369	0.101840
H94	H	0.956360	-0.194546	0.093867
H95	H	1.030044	-0.212427	0.059034
C96	C	0.919606	-0.012575	0.184615
H97	H	0.947488	-0.063563	0.218222
H98	H	0.948730	0.032459	0.154857
H99	H	0.894362	-0.064745	0.154901
C100	C	0.919622	-0.012560	0.344687
H101	H	0.947509	-0.063541	0.311062
H102	H	0.894393	-0.064720	0.374442
H103	H	0.948751	0.032501	0.374401
C104	C	0.722978	0.346994	0.344760
H105	H	0.729694	0.334747	0.395613
H106	H	0.676558	0.333569	0.332296
H107	H	0.730926	0.430774	0.332254
H108	H	0.596492	0.382526	-0.000171
H109	H	0.836838	-0.040369	0.430654
H110	H	0.149528	0.370681	-0.000241
H111	H	0.836846	-0.040361	0.568946
H112	H	0.906278	0.011900	0.804009
C113	C	0.452479	0.411461	-0.000202
H114	H	0.479828	0.480472	-0.000206
H115	H	0.423862	0.415480	0.042018
H116	H	0.423923	0.415451	-0.042447
C117	C	0.232750	0.349322	0.088872
H118	H	0.185259	0.335479	0.082792
H119	H	0.239022	0.432719	0.073953
H120	H	0.245342	0.338597	0.138663
C121	C	0.919647	-0.012559	0.654823
H122	H	0.947528	-0.063554	0.688429
H123	H	0.948774	0.032478	0.625069
H124	H	0.894404	-0.064723	0.625105
H125	H	0.987003	-0.271578	-0.050916
H126	H	0.018079	0.367194	-0.000261
C127	C	0.257713	-0.018904	-0.089338
H128	H	0.208519	-0.007620	-0.083280
H129	H	0.275188	-0.101676	-0.074418
H130	H	0.268874	-0.007543	-0.139123
C131	C	0.409876	-0.014878	-0.089306
H132	H	0.457367	-0.001049	-0.083214
H133	H	0.397285	-0.004154	-0.139094
H134	H	0.403603	-0.098282	-0.074387
C135	C	0.484949	-0.069220	-0.000183
H136	H	0.521507	-0.136534	-0.000169
H137	H	0.457029	-0.074727	-0.042420
H138	H	0.456980	-0.074728	0.042046
C139	C	0.637105	-0.065188	-0.000150
H140	H	0.609755	-0.134198	-0.000161
H141	H	0.665673	-0.069203	0.042082
H142	H	0.665711	-0.069188	-0.042383
