data_functionalizedCrystal
_audit_creation_method	'MofGen! by Chris Wilmer'
_symmetry_space_group_name_H-M	'P1'
_symmetry_Int_Tables_number	1
_symmetry_cell_setting	triclinic
loop_
_symmetry_equiv_pos_as_xyz
  x,y,z
_cell_length_a	17.699097
_cell_length_b	19.188924
_cell_length_c	16.776229
_cell_angle_alpha	89.991276
_cell_angle_beta	89.989262
_cell_angle_gamma	83.215197
loop_
_atom_site_label
_atom_site_type_symbol
_atom_site_fract_x
_atom_site_fract_y
_atom_site_fract_z
O1	O	1.003953	0.088339	-0.066358
O2	O	0.783561	0.099816	-0.066346
O3	O	0.900120	-0.007571	-0.066343
O4	O	0.887394	0.195726	-0.066361
O5	O	0.900105	-0.007578	0.066234
O6	O	0.783546	0.099810	0.066231
O7	O	1.003938	0.088332	0.066218
Zn8	Zn	0.893739	0.094070	0.087274
Zn9	Zn	0.893760	0.094079	-0.087401
O10	O	0.887379	0.195720	0.066216
C11	C	0.755357	0.099400	-0.000056
C12	C	0.671341	0.098162	-0.000051
C13	C	0.899701	-0.033586	-0.000054
C14	C	0.898467	-0.111092	-0.000052
C15	C	0.155642	0.090574	-0.072350
C16	C	0.234584	0.091733	-0.072346
C17	C	0.274041	0.092310	-0.000075
C18	C	0.234552	0.091721	0.072197
C19	C	0.155612	0.090557	0.072192
C20	C	0.552910	0.096414	0.072217
C21	C	0.631855	0.097580	0.072216
C22	C	0.631882	0.097590	-0.072320
C23	C	0.552942	0.096426	-0.072325
C24	C	0.513460	0.095833	-0.000054
C25	C	0.427862	0.094575	-0.000059
C26	C	0.359637	0.093573	-0.000069
C27	C	0.897899	-0.147488	-0.072319
C28	C	0.896728	-0.220312	-0.072325
C29	C	0.896141	-0.256739	-0.000059
C30	C	0.896704	-0.220334	0.072218
C31	C	0.897867	-0.147510	0.072222
N32	N	0.937379	-0.376357	0.053724
N33	N	0.936275	-0.445537	0.053715
C34	C	0.892635	-0.476153	-0.000067
N35	N	0.850149	-0.434977	-0.053852
N36	N	0.851255	-0.365791	-0.053846
C37	C	0.894879	-0.335704	-0.000056
C38	C	0.890797	-0.591513	-0.072346
C39	C	0.889621	-0.664337	-0.072349
C40	C	0.889605	-0.664359	0.072196
C41	C	0.890773	-0.591534	0.072197
C42	C	0.891372	-0.555116	-0.000076
C43	C	1.032142	0.088748	-0.000073
C44	C	1.116158	0.089987	-0.000084
C45	C	0.887798	0.221734	-0.000075
C46	C	0.889032	0.299241	-0.000083
N47	N	0.893731	0.094064	0.206485
N48	N	0.893774	0.094079	-0.206612
C49	C	0.945359	0.046532	0.248204
C50	C	0.945363	0.046531	0.331656
C51	C	0.893743	0.094066	0.373388
C52	C	0.842109	0.141600	0.331664
C53	C	0.842102	0.141597	0.248213
C54	C	0.842136	0.141614	0.668211
C55	C	0.842149	0.141615	0.751668
C56	C	0.945398	0.046548	0.751654
C57	C	0.945391	0.046545	0.668203
C58	C	0.893755	0.094076	0.626486
C59	C	0.893750	0.094075	0.535998
C60	C	0.893750	0.094071	0.463875
H61	H	0.123521	0.090109	-0.131201
N62	N	0.277102	0.092349	0.150148
H63	H	0.269640	0.048880	0.181748
H64	H	0.333085	0.093205	0.139122
H65	H	0.800075	0.180302	0.365647
N66	N	0.898547	-0.108217	-0.150273
H67	H	0.945259	-0.126635	-0.181860
H68	H	0.851413	-0.115164	-0.181806
N69	N	0.786422	0.192865	0.203210
H70	H	0.753002	0.166217	0.168605
H71	H	0.753773	0.222969	0.242357
N72	N	0.786441	0.192880	0.623233
H73	H	0.794990	0.242425	0.637743
H74	H	0.794285	0.185610	0.564047
H75	H	0.520775	0.095921	0.131065
H76	H	0.123464	0.090086	0.131038
H77	H	0.891280	-0.561859	-0.131195
N78	N	0.277172	0.092357	-0.150289
H79	H	0.240198	0.091816	-0.196073
H80	H	0.303652	0.136102	-0.153443
H81	H	0.987427	0.007840	0.634227
N82	N	0.889060	-0.703583	-0.150312
H83	H	0.842381	-0.685171	-0.181941
H84	H	0.936227	-0.696604	-0.181794
N85	N	0.510385	0.095804	-0.150273
H86	H	0.547377	0.096349	-0.196054
H87	H	0.483914	0.052054	-0.153415
N88	N	0.896110	-0.259579	-0.150273
H89	H	0.896664	-0.225458	-0.196056
H90	H	0.942537	-0.295533	-0.153421
H91	H	0.896223	-0.249997	0.131057
N92	N	0.888963	-0.703636	0.150142
H93	H	0.888138	-0.755293	0.139175
H94	H	0.936070	-0.696653	0.181701
H95	H	0.664038	0.098069	-0.131167
H96	H	0.891241	-0.561901	0.131045
H97	H	0.987440	0.007844	0.785628
H98	H	0.898326	-0.117877	0.131072
H99	H	0.987398	0.007826	0.214231
N100	N	0.674410	0.098202	0.150172
H101	H	0.666950	0.054730	0.181767
H102	H	0.730391	0.099060	0.139142
N103	N	1.001073	-0.004711	0.376653
H104	H	1.033785	-0.034813	0.337553
H105	H	1.034428	0.022013	0.411246
H106	H	0.800110	0.180325	0.785645
