data_functionalizedCrystal
_audit_creation_method	'MofGen! by Chris Wilmer'
_symmetry_space_group_name_H-M	'P1'
_symmetry_Int_Tables_number	1
_symmetry_cell_setting	triclinic
loop_
_symmetry_equiv_pos_as_xyz
  x,y,z
_cell_length_a	16.109301
_cell_length_b	9.730217
_cell_length_c	16.109301
_cell_angle_alpha	89.993472
_cell_angle_beta	96.538519
_cell_angle_gamma	90.001005
loop_
_atom_site_label
_atom_site_type_symbol
_atom_site_fract_x
_atom_site_fract_y
_atom_site_fract_z
O1	O	1.103131	0.114207	-0.106868
O2	O	0.861069	0.114230	-0.120167
O3	O	0.988750	0.114204	0.007514
O4	O	0.975450	0.114233	-0.234548
O5	O	0.988741	-0.114376	0.007519
O6	O	0.861060	-0.114350	-0.120162
O7	O	1.103122	-0.114373	-0.106863
Zn8	Zn	0.982089	-0.150653	-0.113512
Zn9	Zn	0.982101	0.150511	-0.113518
O10	O	0.975441	-0.114347	-0.234543
C11	C	0.830090	-0.000057	-0.119626
C12	C	0.737794	-0.000049	-0.118011
N13	N	0.982087	-0.356190	-0.113506
C14	C	0.515522	-0.000057	-0.190018
C15	C	0.428801	-0.000066	-0.188494
C16	C	0.448676	-0.000078	-0.037006
C17	C	0.535394	-0.000079	-0.038530
C18	C	0.568815	-0.000061	-0.115039
C19	C	0.395376	-0.000069	-0.111990
C20	C	0.301350	-0.000079	-0.110337
C21	C	0.662847	-0.000054	-0.116693
C22	C	0.881283	-0.356249	-0.012614
C23	C	0.830889	-0.428219	0.037834
C24	C	0.830902	-0.572098	0.037834
C25	C	0.881311	-0.644012	-0.012621
C26	C	0.931704	-0.572042	-0.063069
C27	C	0.931688	-0.428159	-0.063062
C28	C	1.032503	-0.571983	-0.163965
C29	C	1.032497	-0.428104	-0.163962
C30	C	1.082913	-0.643897	-0.214420
C31	C	1.133312	-0.571928	-0.264865
C32	C	1.133298	-0.428039	-0.264862
C33	C	1.082890	-0.356134	-0.214410
C34	C	1.134101	-0.000082	-0.107404
C35	C	1.226397	-0.000081	-0.109019
C36	C	0.988206	-0.000087	0.038491
C37	C	0.986591	-0.000088	0.130786
N38	N	0.982110	0.356047	-0.113517
C39	C	0.975984	-0.000053	-0.265521
C40	C	0.977600	-0.000042	-0.357816
C41	C	1.058599	-0.000073	0.353059
C42	C	1.057075	-0.000062	0.439779
C43	C	0.905586	-0.000053	0.419905
C44	C	0.907111	-0.000055	0.333186
C45	C	0.983620	-0.000072	0.299766
C46	C	0.980571	-0.000059	0.473205
C47	C	0.978918	-0.000046	0.567231
C48	C	0.985273	-0.000082	0.205734
H49	H	0.542730	-0.000053	-0.252317
C50	C	0.594025	-0.000084	0.043952
C51	C	0.656381	0.118605	0.063726
C52	C	0.715012	0.118593	0.146203
C53	C	0.711287	-0.000106	0.208906
C54	C	0.648929	-0.118804	0.189133
C55	C	0.590298	-0.118792	0.106656
H56	H	0.659140	0.206481	0.017309
H57	H	0.761174	0.206462	0.160840
H58	H	0.754689	-0.000115	0.269960
H59	H	0.646169	-0.206680	0.235550
H60	H	0.544136	-0.206660	0.092019
C61	C	1.139553	-0.000072	0.498402
C62	C	1.137883	-0.000061	0.593790
C63	C	1.220366	-0.000070	0.652413
C64	C	1.304518	-0.000088	0.615648
C65	C	1.306192	-0.000098	0.520255
C66	C	1.223709	-0.000090	0.461632
H67	H	1.075585	-0.000048	0.621010
H68	H	1.219126	-0.000062	0.723029
H69	H	1.365577	-0.000095	0.659044
H70	H	1.368489	-0.000112	0.493034
H71	H	1.224949	-0.000098	0.391015
H72	H	0.789846	-0.369651	0.078912
C73	C	1.188751	-0.651036	-0.320363
C74	C	1.256488	-0.749958	-0.280411
C75	C	1.311927	-0.829075	-0.335911
C76	C	1.299628	-0.809268	-0.431364
C77	C	1.231888	-0.710341	-0.471321
C78	C	1.176449	-0.631225	-0.415821
H79	H	1.265595	-0.764624	-0.209747
H80	H	1.362073	-0.902307	-0.306332
H81	H	1.340667	-0.867835	-0.472449
H82	H	1.222781	-0.695675	-0.541986
H83	H	1.126303	-0.557992	-0.445401
C84	C	0.411911	-0.000080	0.047151
C85	C	0.316524	-0.000069	0.048833
C86	C	0.279762	-0.000065	0.132992
C87	C	0.338385	-0.000072	0.215468
C88	C	0.433778	-0.000084	0.213789
C89	C	0.470540	-0.000087	0.129630
H90	H	0.273122	-0.000064	-0.012223
H91	H	0.209146	-0.000057	0.134234
H92	H	0.311172	-0.000069	0.277767
H93	H	0.477180	-0.000089	0.274846
H94	H	0.541156	-0.000096	0.128388
H95	H	0.843295	-0.000042	0.447127
H96	H	0.385413	-0.000065	-0.249550
H97	H	0.881274	-0.239095	-0.012603
C98	C	1.188733	-0.348877	-0.320357
C99	C	1.284189	-0.368642	-0.308145
C100	C	1.339624	-0.289486	-0.363641
C101	C	1.299605	-0.190564	-0.431348
C102	C	1.204144	-0.170795	-0.443563
C103	C	1.148708	-0.249951	-0.388067
H104	H	1.313818	-0.441873	-0.258021
H105	H	1.410291	-0.304121	-0.354598
H106	H	1.340642	-0.131968	-0.472429
H107	H	1.174514	-0.097564	-0.493687
H108	H	1.078042	-0.235316	-0.397110
H109	H	0.846050	-0.000050	0.289792
H110	H	0.789863	-0.630696	0.078910
H111	H	1.082915	-0.761052	-0.214420
H112	H	0.881309	-0.761166	-0.012624
H113	H	1.082876	-0.238980	-0.214400
H114	H	1.120897	-0.000084	0.325851
