data_functionalizedCrystal
_audit_creation_method	'MofGen! by Chris Wilmer'
_symmetry_space_group_name_H-M	'P1'
_symmetry_Int_Tables_number	1
_symmetry_cell_setting	triclinic
loop_
_symmetry_equiv_pos_as_xyz
  x,y,z
_cell_length_a	13.032721
_cell_length_b	18.215407
_cell_length_c	18.215399
_cell_angle_alpha	89.982187
_cell_angle_beta	97.154738
_cell_angle_gamma	97.198866
loop_
_atom_site_label
_atom_site_type_symbol
_atom_site_fract_x
_atom_site_fract_y
_atom_site_fract_z
Zn1	Zn	-0.416201	1.087866	-0.453296
Zn2	Zn	0.083799	1.587866	0.046704
Zn3	Zn	-0.590962	1.072153	-0.345859
Zn4	Zn	-0.090962	1.572153	0.154141
Zn5	Zn	-0.416217	0.964798	-0.330249
Zn6	Zn	0.083783	1.464798	0.169751
Zn7	Zn	-0.590886	0.949149	-0.468881
Zn8	Zn	-0.090886	1.449149	0.031119
O9	O	-0.503567	1.018491	-0.399571
O10	O	-0.003567	1.518491	0.100429
O11	O	-0.439409	1.188764	-0.439055
O12	O	0.060591	1.688764	0.060945
O13	O	-0.567820	1.057884	-0.240807
O14	O	-0.067820	1.557884	0.259193
O15	O	-0.269977	0.994248	-0.333517
O16	O	0.230023	1.494248	0.166483
O17	O	-0.567805	1.177219	-0.360121
O18	O	-0.067805	1.677219	0.139879
O19	O	-0.269966	1.084666	-0.423919
O20	O	0.230034	1.584666	0.076081
O21	O	-0.439436	0.979011	-0.229339
O22	O	0.060564	1.479011	0.270661
O23	O	-0.439362	0.859740	-0.348629
O24	O	0.060638	1.359740	0.151371
O25	O	-0.567675	0.967578	-0.569794
O26	O	-0.067675	1.467578	-0.069794
O27	O	-0.567690	0.848243	-0.450481
O28	O	-0.067690	1.348243	0.049519
O29	O	-0.439335	1.069493	-0.558344
O30	O	0.060665	1.569493	-0.058344
O31	O	-0.737190	1.042711	-0.375232
O32	O	-0.237190	1.542711	0.124768
O33	O	-0.737134	0.952341	-0.465616
O34	O	-0.237134	1.452341	0.034384
C35	C	-0.503521	0.827289	-0.399553
C36	C	-0.003521	1.327289	0.100447
C37	C	-0.503526	0.745490	-0.399565
C38	C	-0.003526	1.245490	0.100435
C39	C	-0.436839	0.486423	-0.440759
C40	C	0.063161	0.986423	0.059241
C41	C	-0.436823	0.563283	-0.440755
C42	C	0.063177	1.063283	0.059245
C43	C	-0.570328	0.551298	-0.358403
C44	C	-0.070328	1.051298	0.141597
C45	C	-0.570349	0.474439	-0.358411
C46	C	-0.070349	0.974439	0.141589
C47	C	-0.503599	0.442004	-0.399588
C48	C	-0.003599	0.942004	0.100412
C49	C	-0.503561	0.595723	-0.399575
C50	C	-0.003561	1.095723	0.100425
C51	C	-0.503543	0.679059	-0.399571
C52	C	-0.003543	1.179059	0.100429
C53	C	-0.503618	0.358663	-0.399593
C54	C	-0.003618	0.858663	0.100407
C55	C	-0.775079	0.994142	-0.423825
C56	C	-0.275079	1.494142	0.076175
C57	C	-0.891234	0.983793	-0.434226
C58	C	-0.391234	1.483793	0.065774
C59	C	-0.943012	1.023932	-0.394176
C60	C	-0.443012	1.523932	0.105824
C61	C	-1.063064	1.013236	-0.404925
C62	C	-0.563064	1.513236	0.095075
C63	C	-0.230994	1.042956	-0.375239
C64	C	0.269006	1.542956	0.124761
C65	C	-0.114839	1.053381	-0.364869
C66	C	0.385161	1.553381	0.135131
C67	C	-0.503495	1.018543	-0.591518
C68	C	-0.003495	1.518543	-0.091518
C69	C	-0.503464	1.018565	-0.673314
C70	C	-0.003464	1.518565	-0.173314
C71	C	-0.503614	1.210440	-0.399590
C72	C	-0.003614	1.710440	0.100410
C73	C	-0.503634	1.292237	-0.399598
C74	C	-0.003634	1.792237	0.100402
C75	C	-0.436575	1.071654	-0.855542
C76	C	0.063425	1.571654	-0.355542
C77	C	-0.436544	1.071666	-0.932398
C78	C	0.063456	1.571666	-0.432398
C79	C	-0.570191	0.965542	-0.944310
C80	C	-0.070191	1.465542	-0.444310
C81	C	-0.570216	0.965527	-0.867455
C82	C	-0.070216	1.465527	-0.367455
C83	C	-0.503409	1.018588	-0.823073
C84	C	-0.003409	1.518588	-0.323073
C85	C	-0.503354	1.018613	-0.976784
C86	C	-0.003354	1.518613	-0.476784
C87	C	-0.503322	1.018625	-1.060115
C88	C	-0.003322	1.518625	-0.560115
C89	C	-0.503440	1.018575	-0.739736
C90	C	-0.003440	1.518575	-0.239736
C91	C	-0.503563	1.018490	-0.208365
C92	C	-0.003563	1.518490	0.291635
C93	C	-0.503299	1.018637	-0.126543
C94	C	-0.003299	1.518637	0.373457
H95	H	-0.382487	0.460017	-0.474287
H96	H	0.117513	0.960017	0.025713
C97	C	-0.710931	0.375425	-0.360600
C98	C	-0.210931	0.875425	0.139400
C99	C	-0.643741	0.425608	-0.313154
C100	C	-0.143741	0.925608	0.186846
H101	H	-0.756243	0.345283	-0.332663
H102	H	-0.256243	0.845283	0.167337
H103	H	-0.671184	0.345111	-0.385119
H104	H	-0.171184	0.845111	0.114881
H105	H	-0.750944	0.401850	-0.396189
H106	H	-0.250944	0.901850	0.103811
H107	H	-0.603721	0.399183	-0.277568
H108	H	-0.103721	0.899183	0.222432
H109	H	-0.683491	0.455925	-0.288623
H110	H	-0.183491	0.955925	0.211377
C111	C	-1.080927	1.181021	-0.326117
C112	C	-0.580927	1.681021	0.173883
C113	C	-1.054715	1.110467	-0.307835
C114	C	-0.554715	1.610467	0.192165
H115	H	-1.043802	1.216262	-0.290909
H116	H	-0.543802	1.716262	0.209091
H117	H	-1.153706	1.181317	-0.325853
H118	H	-0.653706	1.681317	0.174147
H119	H	-1.063030	1.193336	-0.373984
H120	H	-0.563030	1.693336	0.126016
H121	H	-1.072619	1.098150	-0.259970
H122	H	-0.572619	1.598150	0.240030
H123	H	-0.981919	1.110169	-0.308091
H124	H	-0.481919	1.610169	0.191909
C125	C	-0.909276	1.062833	-0.266593
C126	C	-0.409276	1.562833	0.233407
C127	C	-0.882885	1.081012	-0.337141
C128	C	-0.382885	1.581012	0.162859
H129	H	-0.872161	1.098076	-0.231382
H130	H	-0.372161	1.598076	0.268618
H131	H	-0.891499	1.014970	-0.254206
H132	H	-0.391499	1.514970	0.245794
H133	H	-0.982066	1.063137	-0.266342
H134	H	-0.482066	1.563137	0.233658
H135	H	-0.810095	1.080703	-0.337393
H136	H	-0.310095	1.580703	0.162607
H137	H	-0.900655	1.128887	-0.349531
H138	H	-0.400655	1.628887	0.150469
H139	H	-0.382461	0.599447	-0.474281
H140	H	0.117539	1.099447	0.025719
H141	H	-0.624640	0.922309	-0.841018
H142	H	-0.124640	1.422309	-0.341018
C143	C	-1.230477	0.956604	-0.461568
C144	C	-0.730477	1.456604	0.038432
C145	C	-1.123187	0.956151	-0.461960
C146	C	-0.623187	1.456151	0.038040
H147	H	-1.267593	0.921359	-0.496775
H148	H	-0.767593	1.421359	0.003225
H149	H	-1.248241	1.004467	-0.473964
H150	H	-0.748241	1.504467	0.026036
H151	H	-1.248359	0.944280	-0.413699
H152	H	-0.748359	1.444280	0.086301
H153	H	-1.105303	0.968480	-0.509828
H154	H	-0.605303	1.468480	-0.009828
H155	H	-1.105415	0.908277	-0.449568
H156	H	-0.605415	1.408277	0.050432
H157	H	-0.935782	0.941514	-0.476475
H158	H	-0.435782	1.441514	0.023525
H159	H	-0.624671	0.577716	-0.324877
H160	H	-0.124671	1.077716	0.175123
C161	C	-0.304458	1.176548	-0.851489
C162	C	0.195542	1.676548	-0.351489
C163	C	-0.363131	1.129971	-0.806755
C164	C	0.136869	1.629971	-0.306755
H165	H	-0.259111	1.212546	-0.821369
H166	H	0.240889	1.712546	-0.321369
H167	H	-0.349983	1.200618	-0.885530
H168	H	0.150017	1.700618	-0.385530
H169	H	-0.264476	1.148065	-0.877895
H170	H	0.235524	1.648065	-0.377895
H171	H	-0.403120	1.158452	-0.780353
H172	H	0.096880	1.658452	-0.280353
H173	H	-0.317600	1.105898	-0.772700
H174	H	0.182400	1.605898	-0.272700
H175	H	-0.382119	1.114877	-0.958830
H176	H	0.117881	1.614877	-0.458830
H177	H	-0.624585	0.922343	-0.980455
H178	H	-0.124585	1.422343	-0.480455
