data_functionalizedCrystal
_audit_creation_method	'MofGen! by Chris Wilmer'
_symmetry_space_group_name_H-M	'P1'
_symmetry_Int_Tables_number	1
_symmetry_cell_setting	triclinic
loop_
_symmetry_equiv_pos_as_xyz
  x,y,z
_cell_length_a	16.120484
_cell_length_b	16.625547
_cell_length_c	16.625539
_cell_angle_alpha	89.978691
_cell_angle_beta	92.870299
_cell_angle_gamma	92.925712
loop_
_atom_site_label
_atom_site_type_symbol
_atom_site_fract_x
_atom_site_fract_y
_atom_site_fract_z
Zn1	Zn	-0.331923	1.216357	-0.472259
Zn2	Zn	0.001410	1.549690	-0.138926
Zn3	Zn	0.334744	1.883024	0.194408
Zn4	Zn	-0.471343	1.209424	-0.344255
Zn5	Zn	-0.138010	1.542757	-0.010922
Zn6	Zn	0.195324	1.876091	0.322411
Zn7	Zn	-0.331948	1.081526	-0.337431
Zn8	Zn	0.001386	1.414859	-0.004098
Zn9	Zn	0.334719	1.748193	0.329236
Zn10	Zn	-0.471297	1.074647	-0.479033
Zn11	Zn	-0.137964	1.407980	-0.145700
Zn12	Zn	0.195370	1.741314	0.187634
O13	O	-0.401628	1.145488	-0.408245
O14	O	-0.068294	1.478822	-0.074911
O15	O	0.265039	1.812155	0.258422
O16	O	-0.350427	1.328269	-0.455300
O17	O	-0.017093	1.661603	-0.121967
O18	O	0.316240	1.994936	0.211366
O19	O	-0.452882	1.192435	-0.230519
O20	O	-0.119548	1.525769	0.102814
O21	O	0.213785	1.859102	0.436148
O22	O	-0.215278	1.105192	-0.349625
O23	O	0.118055	1.438525	-0.016292
O24	O	0.451388	1.771859	0.317042
O25	O	-0.452858	1.323175	-0.361257
O26	O	-0.119524	1.656509	-0.027923
O27	O	0.213809	1.989842	0.305410
O28	O	-0.215260	1.204252	-0.448683
O29	O	0.118073	1.537585	-0.115350
O30	O	0.451406	1.870919	0.217984
O31	O	-0.350468	1.098469	-0.225505
O32	O	-0.017135	1.431803	0.107828
O33	O	0.316198	1.765136	0.441162
O34	O	-0.350424	0.967781	-0.356193
O35	O	-0.017090	1.301115	-0.022860
O36	O	0.316243	1.634448	0.310473
O37	O	-0.452779	1.093468	-0.590965
O38	O	-0.119446	1.426801	-0.257632
O39	O	0.213887	1.760134	0.075701
O40	O	-0.452803	0.962727	-0.460228
O41	O	-0.119470	1.296061	-0.126895
O42	O	0.213864	1.629394	0.206439
O43	O	-0.350382	1.197582	-0.585989
O44	O	-0.017049	1.530915	-0.252655
O45	O	0.316285	1.864248	0.080678
O46	O	-0.588003	1.185765	-0.367825
O47	O	-0.254670	1.519098	-0.034492
O48	O	0.078664	1.852432	0.298842
O49	O	-0.587969	1.086745	-0.466845
O50	O	-0.254636	1.420078	-0.133512
O51	O	0.078698	1.753411	0.199821
C52	C	-0.401612	0.935998	-0.408206
C53	C	-0.068278	1.269332	-0.074872
C54	C	0.265055	1.602665	0.258461
C55	C	-0.401625	0.846377	-0.408209
C56	C	-0.068291	1.179710	-0.074876
C57	C	0.265042	1.513043	0.258457
C58	C	-0.401626	0.773594	-0.408219
C59	C	-0.068293	1.106927	-0.074886
C60	C	0.265040	1.440261	0.258447
C61	C	-0.401631	0.682285	-0.408240
C62	C	-0.068297	1.015619	-0.074906
C63	C	0.265036	1.348952	0.258427
C64	C	-0.401638	0.609509	-0.408261
C65	C	-0.068305	0.942842	-0.074927
C66	C	0.265028	1.276175	0.258406
C67	C	-0.401644	0.518194	-0.408280
C68	C	-0.068311	0.851527	-0.074947
C69	C	0.265023	1.184861	0.258387
C70	C	-0.618236	1.134778	-0.418828
C71	C	-0.284903	1.468111	-0.085495
C72	C	0.048430	1.801445	0.247838
C73	C	-0.710902	1.130270	-0.423383
C74	C	-0.377569	1.463603	-0.090050
C75	C	-0.044236	1.796936	0.243283
C76	C	-0.880564	1.122044	-0.431716
C77	C	-0.547231	1.455377	-0.098382
C78	C	-0.213897	1.788710	0.234951
C79	C	-0.921851	1.169078	-0.384787
C80	C	-0.588517	1.502411	-0.051454
C81	C	-0.255184	1.835744	0.281880
C82	C	-1.016256	1.164501	-0.389423
C83	C	-0.682923	1.497834	-0.056090
C84	C	-0.349590	1.831167	0.277244
C85	C	-0.786150	1.126620	-0.427080
C86	C	-0.452817	1.459953	-0.093747
C87	C	-0.119483	1.793286	0.239586
C88	C	-0.184173	1.156263	-0.397637
C89	C	0.149160	1.489596	-0.064304
C90	C	0.482493	1.822929	0.269030
C91	C	-0.091507	1.160854	-0.393117
C92	C	0.241826	1.494187	-0.059783
C93	C	0.575159	1.827521	0.273550
C94	C	-0.401573	1.145531	-0.618551
C95	C	-0.068239	1.478864	-0.285218
C96	C	0.265094	1.812197	0.048116
C97	C	-0.401549	1.145549	-0.708171
C98	C	-0.068216	1.478882	-0.374838
C99	C	0.265117	1.812215	-0.041504
C100	C	-0.401645	1.355796	-0.408284
C101	C	-0.068311	1.689130	-0.074951
C102	C	0.265022	2.022463	0.258383
C103	C	-0.401652	1.445417	-0.408301
C104	C	-0.068318	1.778751	-0.074968
C105	C	0.265015	2.112084	0.258366
C106	C	-0.401531	1.145563	-0.780953
C107	C	-0.068197	1.478896	-0.447619
C108	C	0.265136	1.812229	-0.114286
C109	C	-0.401500	1.145583	-0.872260
C110	C	-0.068166	1.478916	-0.538926
C111	C	0.265167	1.812250	-0.205593
C112	C	-0.401470	1.145603	-0.945035
C113	C	-0.068137	1.478937	-0.611701
C114	C	0.265196	1.812270	-0.278368
C115	C	-0.401440	1.145625	-1.036347
C116	C	-0.068107	1.478958	-0.703014
C117	C	0.265226	1.812292	-0.369681
C118	C	-0.401622	1.145496	-0.198754
C119	C	-0.068289	1.478829	0.134580
C120	C	0.265044	1.812162	0.467913
C121	C	-0.401411	1.145645	-0.109123
C122	C	-0.068078	1.478979	0.224211
C123	C	0.265256	1.812312	0.557544
H124	H	-0.886296	1.212782	-0.341128
H125	H	-0.552963	1.546115	-0.007794
H126	H	-0.219629	1.879449	0.325539
H127	H	-0.916116	1.078342	-0.475370
H128	H	-0.582783	1.411675	-0.142037
H129	H	-0.249450	1.745008	0.191296
