data_functionalizedCrystal
_audit_creation_method	'MofGen! by Chris Wilmer'
_symmetry_space_group_name_H-M	'P1'
_symmetry_Int_Tables_number	1
_symmetry_cell_setting	triclinic
loop_
_symmetry_equiv_pos_as_xyz
  x,y,z
_cell_length_a	10.654562
_cell_length_b	17.038272
_cell_length_c	9.130313
_cell_angle_alpha	89.998262
_cell_angle_beta	89.996930
_cell_angle_gamma	87.800830
loop_
_atom_site_label
_atom_site_type_symbol
_atom_site_fract_x
_atom_site_fract_y
_atom_site_fract_z
O1	O	1.678031	0.109922	-0.121898
O2	O	1.313526	0.120380	-0.121880
O3	O	1.493612	0.001324	-0.121877
O4	O	1.497945	0.228979	-0.121901
O5	O	1.493610	0.001327	0.121721
O6	O	1.313524	0.120383	0.121719
O7	O	1.678029	0.109925	0.121701
Cu8	Cu	1.495777	0.115155	0.143952
Cu9	Cu	1.495779	0.115151	-0.144132
O10	O	1.497943	0.228982	0.121698
C11	C	1.266656	0.119612	-0.000078
C12	C	1.127000	0.117308	-0.000071
C13	C	1.061368	0.116235	0.132703
C14	C	0.930145	0.114077	0.132679
C15	C	0.930197	0.114068	-0.132906
C16	C	1.061418	0.116220	-0.132880
C17	C	1.061337	0.116244	0.286037
C18	C	0.930114	0.114086	0.286013
C19	C	1.489671	-0.027825	-0.000078
C20	C	1.477914	-0.114684	-0.000078
C21	C	1.585857	-0.164192	-0.000082
C22	C	1.574803	-0.245805	-0.000095
C23	C	1.455803	-0.277908	-0.000094
C24	C	1.347852	-0.228393	-0.000095
C25	C	1.358907	-0.146782	-0.000092
C26	C	1.416746	-0.523885	-0.000112
C27	C	1.405698	-0.605502	-0.000111
C28	C	1.632651	-0.622908	-0.000114
C29	C	1.643696	-0.541295	-0.000102
C30	C	1.535744	-0.491788	-0.000110
C31	C	1.444501	-0.361329	-0.000103
C32	C	1.547047	-0.408368	-0.000112
C33	C	1.724900	0.110694	-0.000104
C34	C	1.864556	0.112997	-0.000121
C35	C	1.501885	0.258131	-0.000105
C36	C	1.513642	0.344990	-0.000115
N37	N	1.495784	0.115157	0.346575
N38	N	1.495781	0.115142	-0.346754
C39	C	1.575550	0.062457	0.423228
C40	C	1.575545	0.062447	0.576565
C41	C	1.416006	0.167845	0.576582
C42	C	1.416005	0.167850	0.423248
C43	C	1.667663	0.001608	0.423219
C44	C	1.667658	0.001599	0.576556
H45	H	0.876784	0.113182	-0.241034
H46	H	1.096208	0.173300	0.333607
H47	H	1.347611	-0.387476	-0.000099
F48	F	1.331094	0.223930	0.341668
F49	F	0.884502	0.039576	0.348456
F50	F	0.876170	0.184752	0.362944
F51	F	1.632338	-0.076985	0.368821
H52	H	1.631869	-0.055224	0.624111
H53	H	1.271007	-0.106473	-0.000089
H54	H	1.682760	-0.138061	-0.000073
F55	F	1.331103	0.223922	0.658194
F56	F	1.689693	-0.298492	-0.000096
H57	H	1.740598	-0.515163	-0.000103
F58	F	1.747532	-0.675603	-0.000107
H59	H	1.308790	-0.631637	-0.000086
F60	F	1.115245	0.045582	0.363008
F61	F	1.789152	0.026524	0.361041
H62	H	1.328843	-0.483585	-0.000119
F63	F	1.795431	0.019116	0.630951
F64	F	1.131265	0.117347	-0.274196
F65	F	1.673691	-0.374200	-0.000121
F66	F	1.221202	-0.262561	-0.000110
