data_functionalizedCrystal
_audit_creation_method	'MofGen! by Chris Wilmer'
_symmetry_space_group_name_H-M	'P1'
_symmetry_Int_Tables_number	1
_symmetry_cell_setting	triclinic
loop_
_symmetry_equiv_pos_as_xyz
  x,y,z
_cell_length_a	25.639239
_cell_length_b	19.121224
_cell_length_c	19.120904
_cell_angle_alpha	90.128641
_cell_angle_beta	92.410104
_cell_angle_gamma	87.529144
loop_
_atom_site_label
_atom_site_type_symbol
_atom_site_fract_x
_atom_site_fract_y
_atom_site_fract_z
Zn1	Zn	-0.188807	-1.054808	-0.442259
Zn2	Zn	0.144527	-0.721475	-0.108925
Zn3	Zn	0.477860	-0.388141	0.224408
Zn4	Zn	-0.272363	-1.059701	-0.325017
Zn5	Zn	0.060971	-0.726368	0.008317
Zn6	Zn	0.394304	-0.393035	0.341650
Zn7	Zn	-0.188493	-0.942575	-0.320020
Zn8	Zn	0.144840	-0.609241	0.013313
Zn9	Zn	0.478173	-0.275908	0.346646
Zn10	Zn	-0.279766	-0.937508	-0.437194
Zn11	Zn	0.053567	-0.604175	-0.103861
Zn12	Zn	0.386900	-0.270841	0.229473
O13	O	-0.232357	-0.998648	-0.381122
O14	O	0.100976	-0.665315	-0.047789
O15	O	0.434309	-0.331981	0.285544
O16	O	-0.196923	-1.153566	-0.430917
O17	O	0.136410	-0.820232	-0.097584
O18	O	0.469743	-0.486899	0.235750
O19	O	-0.258008	-1.048333	-0.226250
O20	O	0.075326	-0.714999	0.107083
O21	O	0.408659	-0.381666	0.440417
O22	O	-0.115368	-0.957535	-0.336264
O23	O	0.217965	-0.624202	-0.002931
O24	O	0.551298	-0.290869	0.330403
O25	O	-0.258312	-1.157161	-0.344780
O26	O	0.075022	-0.823827	-0.011446
O27	O	0.408355	-0.490494	0.321887
O28	O	-0.115599	-1.039993	-0.426072
O29	O	0.217735	-0.706659	-0.092739
O30	O	0.551068	-0.373326	0.240594
O31	O	-0.196389	-0.962280	-0.222579
O32	O	0.136944	-0.628947	0.110754
O33	O	0.470278	-0.295614	0.444087
O34	O	-0.203568	-0.843794	-0.331353
O35	O	0.129765	-0.510461	0.001980
O36	O	0.463099	-0.177128	0.335314
O37	O	-0.270930	-0.948900	-0.535970
O38	O	0.062403	-0.615566	-0.202636
O39	O	0.395737	-0.282233	0.130697
O40	O	-0.270626	-0.840072	-0.417440
O41	O	0.062707	-0.506738	-0.084106
O42	O	0.396040	-0.173405	0.249227
O43	O	-0.204102	-1.035080	-0.539691
O44	O	0.129231	-0.701746	-0.206357
O45	O	0.462564	-0.368413	0.126976
O46	O	-0.346512	-1.043419	-0.339869
O47	O	-0.013178	-0.710086	-0.006535
O48	O	0.320155	-0.376753	0.326798
O49	O	-0.351951	-0.953644	-0.422285
O50	O	-0.018618	-0.620311	-0.088951
O51	O	0.314716	-0.286978	0.244382
C52	C	-0.237867	-0.816495	-0.373305
C53	C	0.095466	-0.483161	-0.039972
C54	C	0.428800	-0.149828	0.293362
C55	C	-0.240237	-0.738568	-0.369977
C56	C	0.093096	-0.405234	-0.036644
C57	C	0.426430	-0.071901	0.296689
C58	C	-0.368202	-0.998532	-0.381085
C59	C	-0.034869	-0.665198	-0.047752
C60	C	0.298464	-0.331865	0.285581
C61	C	-0.426316	-0.998545	-0.381096
C62	C	-0.092983	-0.665211	-0.047762
C63	C	0.240350	-0.331878	0.285571
C64	C	-0.255243	-0.297922	-0.348926
C65	C	0.078090	0.035411	-0.015593
C66	C	0.411423	0.368745	0.317740
C67	C	-0.253013	-0.371143	-0.352048
C68	C	0.080320	-0.037809	-0.018714
C69	C	0.413653	0.295524	0.314619
C70	C	-0.219994	-0.405880	-0.398529
C71	C	0.113339	-0.072547	-0.065195
C72	C	0.446673	0.260786	0.268138
C73	C	-0.189199	-0.367393	-0.441886
C74	C	0.144135	-0.034060	-0.108553
C75	C	0.477468	0.299273	0.224781
C76	C	-0.191426	-0.294174	-0.438761
C77	C	0.141907	0.039159	-0.105427
C78	C	0.475241	0.372492	0.227906
C79	C	-0.211669	-0.626862	-0.410209
C80	C	0.121664	-0.293528	-0.076876
C81	C	0.454997	0.039805	0.256457
C82	C	-0.209445	-0.700086	-0.413333
C83	C	0.123888	-0.366753	-0.079999
C84	C	0.457221	-0.033419	0.253334
C85	C	-0.273260	-0.703830	-0.323493
C86	C	0.060074	-0.370497	0.009840
C87	C	0.393407	-0.037164	0.343173
C88	C	-0.275487	-0.630609	-0.320375
C89	C	0.057847	-0.297276	0.012958
C90	C	0.391180	0.036057	0.346292
C91	C	-0.244689	-0.592129	-0.363730
C92	C	0.088644	-0.258796	-0.030396
C93	C	0.421977	0.074538	0.302937
C94	C	-0.217715	-0.480724	-0.401722
C95	C	0.115618	-0.147390	-0.068389
C96	C	0.448952	0.185943	0.264945
C97	C	-0.246966	-0.517287	-0.360532
C98	C	0.086368	-0.183954	-0.027199
C99	C	0.419701	0.149379	0.306134
C100	C	-0.783831	-1.045508	-0.338290
C101	C	-0.450498	-0.712174	-0.004956
C102	C	-0.117164	-0.378841	0.328377
C103	C	-0.838435	-1.045534	-0.338300
C104	C	-0.505102	-0.712201	-0.004967
C105	C	-0.171768	-0.378868	0.328366
O106	O	-0.864252	-1.085343	-0.301865
O107	O	-0.530919	-0.752010	0.031469
O108	O	-0.197586	-0.418676	0.364802
N109	N	-0.868594	-0.998769	-0.381174
N110	N	-0.535261	-0.665436	-0.047841
N111	N	-0.201927	-0.332103	0.285493
C112	C	-0.844147	-0.951979	-0.424045
C113	C	-0.510814	-0.618646	-0.090712
C114	C	-0.177480	-0.285313	0.242621
O115	O	-0.874814	-0.912205	-0.460514
O116	O	-0.541481	-0.578871	-0.127181
O117	O	-0.208147	-0.245538	0.206152
C118	C	-0.789544	-0.951956	-0.424038
C119	C	-0.456211	-0.618623	-0.090705
C120	C	-0.122878	-0.285290	0.242629
C121	C	-0.759388	-0.998720	-0.381156
C122	C	-0.426054	-0.665386	-0.047823
C123	C	-0.092721	-0.332053	0.285510
C124	C	-0.753675	-1.092268	-0.295412
C125	C	-0.420341	-0.758934	0.037921
C126	C	-0.087008	-0.425601	0.371255
C127	C	-0.699075	-1.092240	-0.295401
C128	C	-0.365741	-0.758907	0.037933
C129	C	-0.032408	-0.425573	0.371266
C130	C	-0.674631	-1.045452	-0.338267
C131	C	-0.341298	-0.712119	-0.004934
C132	C	-0.007964	-0.378785	0.328400
C133	C	-0.704788	-0.998692	-0.381145
C134	C	-0.371454	-0.665359	-0.047812
C135	C	-0.038121	-0.332025	0.285522
C136	C	-0.765098	-0.905170	-0.466913
C137	C	-0.431765	-0.571837	-0.133579
C138	C	-0.098431	-0.238503	0.199754
C139	C	-0.710491	-0.905152	-0.466902
C140	C	-0.377158	-0.571818	-0.133569
C141	C	-0.043825	-0.238485	0.199765
C142	C	-0.680335	-0.951915	-0.424020
C143	C	-0.347001	-0.618582	-0.090687
C144	C	-0.013668	-0.285248	0.242647
C145	C	-0.625744	-0.951876	-0.424000
C146	C	-0.292411	-0.618543	-0.090667
C147	C	0.040923	-0.285209	0.242667
N148	N	-0.595585	-0.998641	-0.381126
N149	N	-0.262251	-0.665308	-0.047793
N150	N	0.071082	-0.331975	0.285540
C151	C	-0.620028	-1.045429	-0.338260
C152	C	-0.286695	-0.712096	-0.004926
C153	C	0.046638	-0.378762	0.328407
C154	C	-0.958816	-0.952032	-0.424059
C155	C	-0.625483	-0.618698	-0.090725
C156	C	-0.292150	-0.285365	0.242608
C157	C	-1.013418	-0.952050	-0.424063
C158	C	-0.680085	-0.618717	-0.090729
C159	C	-0.346752	-0.285384	0.242604
C160	C	-1.007702	-1.045607	-0.338318
C161	C	-0.674369	-0.712273	-0.004985
C162	C	-0.341036	-0.378940	0.328348
C163	C	-0.953099	-1.045584	-0.338311
C164	C	-0.619766	-0.712251	-0.004978
C165	C	-0.286433	-0.378917	0.328356
C166	C	-0.928657	-0.998797	-0.381185
C167	C	-0.595324	-0.665463	-0.047851
C168	C	-0.261990	-0.332130	0.285482
C169	C	-0.505364	-1.045367	-0.338239
C170	C	-0.172031	-0.712033	-0.004905
C171	C	0.161302	-0.378700	0.328428
C172	C	-0.450760	-1.045333	-0.338229
C173	C	-0.117427	-0.711999	-0.004896
C174	C	0.215907	-0.378666	0.328438
C175	C	-0.456481	-0.951779	-0.423976
C176	C	-0.123147	-0.618446	-0.090643
C177	C	0.210186	-0.285113	0.242691
C178	C	-0.511080	-0.951810	-0.423983
C179	C	-0.177747	-0.618477	-0.090650
C180	C	0.155586	-0.285144	0.242684
C181	C	-0.535521	-0.998610	-0.381112
C182	C	-0.202187	-0.665277	-0.047779
C183	C	0.131146	-0.331943	0.285554
O184	O	-0.599891	-0.912090	-0.460419
O185	O	-0.266557	-0.578756	-0.127086
O186	O	0.066776	-0.245423	0.206248
O187	O	-0.589355	-1.085203	-0.301804
O188	O	-0.256022	-0.751870	0.031530
O189	O	0.077311	-0.418536	0.364863
C190	C	-0.095982	-0.998783	-0.381176
C191	C	0.237352	-0.665450	-0.047843
C192	C	0.570685	-0.332117	0.285491
C193	C	-0.037867	-0.998841	-0.381199
C194	C	0.295467	-0.665508	-0.047865
C195	C	0.628800	-0.332175	0.285468
C196	C	-0.238377	-0.990879	-0.563979
C197	C	0.094956	-0.657545	-0.230645
C198	C	0.428290	-0.324212	0.102688
C199	C	-0.240942	-0.987568	-0.641901
C200	C	0.092391	-0.654234	-0.308568
C201	C	0.425724	-0.320901	0.024766
C202	C	-0.226822	-0.181513	-0.388962
C203	C	0.106511	0.151820	-0.055629
C204	C	0.439845	0.485153	0.277704
C205	C	-0.224451	-0.259440	-0.392282
C206	C	0.108882	0.073893	-0.058949
C207	C	0.442215	0.407226	0.274385
C208	C	-0.207356	-1.030879	-0.680448
C209	C	0.125978	-0.697546	-0.347114
C210	C	0.459311	-0.364213	-0.013781
C211	C	-0.209764	-1.027760	-0.753664
C212	C	0.123569	-0.694427	-0.420330
C213	C	0.456902	-0.361093	-0.086997
C214	C	-0.245763	-0.981332	-0.788332
C215	C	0.087571	-0.647999	-0.454999
C216	C	0.420904	-0.314665	-0.121665
C217	C	-0.279351	-0.938016	-0.749780
C218	C	0.053982	-0.604682	-0.416447
C219	C	0.387316	-0.271349	-0.083113
C220	C	-0.276939	-0.941132	-0.676565
C221	C	0.056394	-0.607799	-0.343232
C222	C	0.389727	-0.274465	-0.009899
C223	C	-0.254782	-0.969674	-1.009296
C224	C	0.078551	-0.636341	-0.675963
C225	C	0.411885	-0.303008	-0.342630
C226	C	-0.257192	-0.966563	-1.082516
C227	C	0.076141	-0.633229	-0.749183
C228	C	0.409474	-0.299896	-0.415850
C229	C	-0.187605	-1.056306	-1.086395
C230	C	0.145729	-0.722973	-0.753062
C231	C	0.479062	-0.389640	-0.419728
C232	C	-0.185198	-1.059422	-1.013179
C233	C	0.148135	-0.726088	-0.679845
C234	C	0.481468	-0.392755	-0.346512
C235	C	-0.218785	-1.016103	-0.974633
C236	C	0.114549	-0.682770	-0.641300
C237	C	0.447882	-0.349436	-0.307966
C238	C	-0.248227	-0.978144	-0.863171
C239	C	0.085107	-0.644810	-0.529837
C240	C	0.418440	-0.311477	-0.196504
C241	C	-0.216318	-1.019288	-0.899796
C242	C	0.117015	-0.685955	-0.566462
C243	C	0.450349	-0.352621	-0.233129
C244	C	-0.226322	-1.006428	-0.198979
C245	C	0.107011	-0.673094	0.134354
C246	C	0.440345	-0.339761	0.467687
C247	C	-0.223605	-1.009874	-0.121063
C248	C	0.109728	-0.676541	0.212270
C249	C	0.443061	-0.343208	0.545604
H250	H	-0.282134	-0.269644	-0.311080
H251	H	0.051199	0.063689	0.022253
H252	H	0.384533	0.397023	0.355587
Cl253	Cl	-0.176209	-0.524400	-0.460158
Cl254	Cl	0.157124	-0.191066	-0.126824
Cl255	Cl	0.490457	0.142267	0.206509
H256	H	-0.674524	-1.130320	-0.260485
H257	H	-0.341191	-0.796987	0.072849
H258	H	-0.007857	-0.463654	0.406182
Cl259	Cl	-0.319163	-0.886679	-0.628106
Cl260	Cl	0.014170	-0.553345	-0.294773
Cl261	Cl	0.347504	-0.220012	0.038560
H262	H	-0.302374	-0.602331	-0.282525
H263	H	0.030959	-0.268998	0.050809
H264	H	0.364293	0.064335	0.384142
Cl265	Cl	-0.784393	-1.151095	-0.241515
Cl266	Cl	-0.451060	-0.817762	0.091818
Cl267	Cl	-0.117726	-0.484429	0.425152
Cl268	Cl	-0.139942	-1.117791	-0.969601
Cl269	Cl	0.193392	-0.784458	-0.636268
Cl270	Cl	0.526725	-0.451124	-0.302935
H271	H	-0.938919	-0.913926	-0.458969
H272	H	-0.605585	-0.580593	-0.125636
H273	H	-0.272252	-0.247259	0.207697
Cl274	Cl	-0.288472	-0.473616	-0.302099
Cl275	Cl	0.044861	-0.140283	0.031234
Cl276	Cl	0.378194	0.193050	0.364568
Cl277	Cl	-0.425741	-0.892967	-0.477866
Cl278	Cl	-0.092408	-0.559634	-0.144533
Cl279	Cl	0.240925	-0.226300	0.188801
H280	H	-0.160260	-1.091573	-1.117787
H281	H	0.173074	-0.758240	-0.784453
H282	H	0.506407	-0.424907	-0.451120
Cl283	Cl	-0.802996	-0.846386	-0.520834
Cl284	Cl	-0.469663	-0.513052	-0.187500
Cl285	Cl	-0.136330	-0.179719	0.145833
H286	H	-0.286508	-0.928753	-1.110741
H287	H	0.046826	-0.595420	-0.777408
H288	H	0.380159	-0.262087	-0.444074
Cl289	Cl	-0.412852	-1.104126	-0.284316
Cl290	Cl	-0.079518	-0.770792	0.049017
Cl291	Cl	0.253815	-0.437459	0.382350
H292	H	-0.282138	-0.934411	-0.977922
H293	H	0.051195	-0.601078	-0.644588
H294	H	0.384529	-0.267745	-0.311255
Cl295	Cl	-0.152712	-0.245797	-0.493264
Cl296	Cl	0.180621	0.087536	-0.159931
Cl297	Cl	0.513955	0.420870	0.173403
H298	H	-0.525257	-1.083477	-0.303331
H299	H	-0.191924	-0.750143	0.030002
H300	H	0.141410	-0.416810	0.363336
H301	H	-0.308660	-0.900210	-0.778013
H302	H	0.024674	-0.566877	-0.444679
H303	H	0.358007	-0.233544	-0.111346
Cl304	Cl	-0.291712	-0.419518	-0.297524
Cl305	Cl	0.041622	-0.086184	0.035810
Cl306	Cl	0.374955	0.247149	0.369143
H307	H	-0.298333	-0.735169	-0.288196
H308	H	0.035001	-0.401836	0.045137
H309	H	0.368334	-0.068502	0.378471
Cl310	Cl	-0.162101	-1.089252	-0.636872
Cl311	Cl	0.171233	-0.755919	-0.303539
Cl312	Cl	0.504566	-0.422586	0.029794
H313	H	-0.182553	-0.728367	-0.451182
H314	H	0.150780	-0.395034	-0.117849
H315	H	0.484114	-0.061700	0.215485
Cl316	Cl	-0.167561	-1.082242	-0.802121
Cl317	Cl	0.165773	-0.748909	-0.468787
Cl318	Cl	0.499106	-0.415576	-0.135454
H319	H	-0.187006	-1.057086	-0.871566
H320	H	0.146327	-0.723753	-0.538232
H321	H	0.479661	-0.390420	-0.204899
H322	H	-0.928549	-1.083663	-0.303393
H323	H	-0.595215	-0.750330	0.029940
H324	H	-0.261882	-0.416996	0.363273
H325	H	-1.027614	-1.083706	-0.303416
H326	H	-0.694281	-0.750373	0.029917
H327	H	-0.360947	-0.417040	0.363250
Cl328	Cl	-0.172957	-0.578495	-0.464719
Cl329	Cl	0.160376	-0.245162	-0.131385
Cl330	Cl	0.493710	0.088171	0.201948
H331	H	-0.162311	-0.395683	-0.479729
H332	H	0.171022	-0.062349	-0.146395
H333	H	0.504356	0.270984	0.186938
Cl334	Cl	-0.293483	-0.919782	-0.906760
Cl335	Cl	0.039851	-0.586449	-0.573426
Cl336	Cl	0.373184	-0.253115	-0.240093
H337	H	-1.037968	-0.913965	-0.458975
H338	H	-0.704634	-0.580631	-0.125641
H339	H	-0.371301	-0.247298	0.207692
H340	H	-0.690593	-0.867053	-0.501817
H341	H	-0.357260	-0.533719	-0.168484
H342	H	-0.023927	-0.200386	0.164849
H343	H	-0.535635	-0.913734	-0.458903
H344	H	-0.202302	-0.580401	-0.125570
H345	H	0.131031	-0.247067	0.207763
