data_functionalizedCrystal
_audit_creation_method	'MofGen! by Chris Wilmer'
_symmetry_space_group_name_H-M	'P1'
_symmetry_Int_Tables_number	1
_symmetry_cell_setting	triclinic
loop_
_symmetry_equiv_pos_as_xyz
  x,y,z
_cell_length_a	18.050590
_cell_length_b	18.050589
_cell_length_c	18.050583
_cell_angle_alpha	90.031709
_cell_angle_beta	89.999666
_cell_angle_gamma	89.976137
loop_
_atom_site_label
_atom_site_type_symbol
_atom_site_fract_x
_atom_site_fract_y
_atom_site_fract_z
Zn1	Zn	1.135267	0.295821	-0.419625
Zn2	Zn	1.468600	0.629154	-0.086292
Zn3	Zn	1.801934	0.962488	0.247041
Zn4	Zn	1.135161	0.420034	-0.295445
Zn5	Zn	1.468495	0.753367	0.037888
Zn6	Zn	1.801828	1.086701	0.371222
Zn7	Zn	1.011084	0.295839	-0.295483
Zn8	Zn	1.344417	0.629172	0.037850
Zn9	Zn	1.677751	0.962506	0.371183
Zn10	Zn	1.011020	0.419950	-0.419628
Zn11	Zn	1.344354	0.753284	-0.086294
Zn12	Zn	1.677687	1.086617	0.247039
O13	O	1.073133	0.357911	-0.357545
O14	O	1.406466	0.691244	-0.024212
O15	O	1.739800	1.024578	0.309121
O16	O	1.239178	0.312326	-0.403135
O17	O	1.572511	0.645659	-0.069802
O18	O	1.905844	0.978992	0.263531
O19	O	1.118685	0.403602	-0.191526
O20	O	1.452018	0.736935	0.141808
O21	O	1.785351	1.070268	0.475141
O22	O	1.027628	0.191912	-0.311966
O23	O	1.360961	0.525245	0.021367
O24	O	1.694295	0.858579	0.354701
O25	O	1.239100	0.403585	-0.311901
O26	O	1.572433	0.736918	0.021432
O27	O	1.905767	1.070251	0.354766
O28	O	1.118865	0.191899	-0.403173
O29	O	1.452198	0.525232	-0.069839
O30	O	1.785531	0.858566	0.263494
O31	O	1.027525	0.312356	-0.191554
O32	O	1.360859	0.645690	0.141780
O33	O	1.694192	0.979023	0.475113
O34	O	0.907151	0.312275	-0.311968
O35	O	1.240484	0.645608	0.021365
O36	O	1.573818	0.978942	0.354698
O37	O	1.027519	0.403442	-0.523552
O38	O	1.360853	0.736775	-0.190219
O39	O	1.694186	1.070108	0.143115
O40	O	0.907104	0.403459	-0.403177
O41	O	1.240437	0.736792	-0.069843
O42	O	1.573771	1.070126	0.263490
O43	O	1.118803	0.312245	-0.523550
O44	O	1.452136	0.645578	-0.190217
O45	O	1.785470	0.978911	0.143117
O46	O	1.118623	0.523948	-0.311903
O47	O	1.451956	0.857281	0.021430
O48	O	1.785290	1.190614	0.354763
O49	O	1.027417	0.523886	-0.403140
O50	O	1.360750	0.857219	-0.069806
O51	O	1.694084	1.190553	0.263527
C52	C	0.880181	0.357860	-0.357577
C53	C	1.213514	0.691194	-0.024244
C54	C	1.546848	1.024527	0.309089
C55	C	0.797635	0.357857	-0.357609
C56	C	1.130969	0.691190	-0.024275
C57	C	1.464302	1.024523	0.309058
C58	C	0.598181	0.407584	-0.407090
C59	C	0.931514	0.740918	-0.073757
C60	C	1.264847	1.074251	0.259577
C61	C	0.548796	0.339865	-0.425360
C62	C	0.882129	0.673198	-0.092026
C63	C	1.215462	1.006532	0.241307
C64	C	0.646505	0.357898	-0.357572
C65	C	0.979838	0.691231	-0.024239
C66	C	1.313172	1.024565	0.309094
C67	C	0.548808	0.425656	-0.339302
C68	C	0.882142	0.758989	-0.005968
C69	C	1.215475	1.092323	0.327365
C70	C	0.500520	0.357944	-0.357539
C71	C	0.833853	0.691277	-0.024205
C72	C	1.167186	1.024611	0.309128
C73	C	0.598207	0.290143	-0.375878
C74	C	0.931540	0.623476	-0.042544
C75	C	1.264874	0.956809	0.290789
C76	C	0.598224	0.375979	-0.289788
C77	C	0.931557	0.709313	0.043545
C78	C	1.264891	1.042646	0.376879
C79	C	0.548861	0.308213	-0.308032
C80	C	0.882195	0.641547	0.025301
C81	C	1.215528	0.974880	0.358634
C82	C	0.730603	0.357872	-0.357594
C83	C	1.063937	0.691206	-0.024260
C84	C	1.397270	1.024539	0.309073
C85	C	0.416423	0.357962	-0.357517
C86	C	0.749757	0.691295	-0.024184
C87	C	1.083090	1.024629	0.309149
C88	C	1.073022	0.550863	-0.357534
C89	C	1.406355	0.884197	-0.024200
C90	C	1.739688	1.217530	0.309133
C91	C	1.073042	0.633409	-0.357554
C92	C	1.406375	0.966742	-0.024220
C93	C	1.739709	1.300076	0.309113
C94	C	1.023470	0.832853	-0.407151
C95	C	1.356804	1.166186	-0.073818
C96	C	1.690137	1.499520	0.259515
C97	C	1.005366	0.882300	-0.339389
C98	C	1.338699	1.215633	-0.006056
C99	C	1.672032	1.548967	0.327278
C100	C	1.073098	0.784539	-0.357564
C101	C	1.406431	1.117873	-0.024230
C102	C	1.739764	1.451206	0.309103
C103	C	1.091222	0.882174	-0.425334
C104	C	1.424556	1.215508	-0.092001
C105	C	1.757889	1.548841	0.241332
C106	C	1.073150	0.930524	-0.357580
C107	C	1.406484	1.263858	-0.024246
C108	C	1.739817	1.597191	0.309087
C109	C	1.054958	0.832899	-0.289766
C110	C	1.388291	1.166232	0.043568
C111	C	1.721624	1.499566	0.376901
C112	C	1.140846	0.832769	-0.375757
C113	C	1.474179	1.166102	-0.042423
C114	C	1.807513	1.499436	0.290910
C115	C	1.122767	0.882193	-0.307948
C116	C	1.456100	1.215527	0.025386
C117	C	1.789434	1.548860	0.358719
C118	C	1.073066	0.700441	-0.357556
C119	C	1.406399	1.033774	-0.024222
C120	C	1.739732	1.367108	0.309111
C121	C	1.073183	1.014621	-0.357580
C122	C	1.406516	1.347954	-0.024247
C123	C	1.739849	1.681288	0.309087
C124	C	1.266839	0.357963	-0.357514
C125	C	1.600172	0.691296	-0.024180
C126	C	1.933505	1.024629	0.309153
C127	C	1.349384	0.357984	-0.357500
C128	C	1.682718	0.691318	-0.024167
C129	C	2.016051	1.024651	0.309167
C130	C	1.073166	0.357832	-0.551251
C131	C	1.406499	0.691165	-0.217918
C132	C	1.739833	1.024498	0.115416
C133	C	1.073180	0.357798	-0.633797
C134	C	1.406513	0.691131	-0.300463
C135	C	1.739847	1.024465	0.032870
C136	C	1.073237	1.164205	-0.357574
C137	C	1.406570	1.497539	-0.024241
C138	C	1.739904	1.830872	0.309093
C139	C	1.073209	1.081660	-0.357589
C140	C	1.406542	1.414993	-0.024255
C141	C	1.739875	1.748326	0.309078
C142	C	1.122870	0.308181	-0.833247
C143	C	1.456203	0.641514	-0.499913
C144	C	1.789536	0.974848	-0.166580
C145	C	1.055138	0.289992	-0.882659
C146	C	1.388471	0.623325	-0.549325
C147	C	1.721805	0.956659	-0.215992
C148	C	1.073210	0.357785	-0.784927
C149	C	1.406543	0.691119	-0.451594
C150	C	1.739876	1.024452	-0.118261
C151	C	1.140969	0.375927	-0.882597
C152	C	1.474302	0.709261	-0.549264
C153	C	1.807635	1.042594	-0.215930
C154	C	1.073244	0.357772	-0.930912
C155	C	1.406578	0.691105	-0.597579
C156	C	1.739911	1.024438	-0.264246
C157	C	1.005442	0.339561	-0.833252
C158	C	1.338776	0.672895	-0.499919
C159	C	1.672109	1.006228	-0.166585
C160	C	1.091318	0.425528	-0.833186
C161	C	1.424652	0.758861	-0.499853
C162	C	1.757985	1.092195	-0.166519
C163	C	1.023540	0.407365	-0.882576
C164	C	1.356873	0.740698	-0.549242
C165	C	1.690207	1.074031	-0.215909
C166	C	1.073191	0.357791	-0.700829
C167	C	1.406524	0.691125	-0.367496
C168	C	1.739857	1.024458	-0.034162
C169	C	1.073256	0.357766	-1.015009
C170	C	1.406589	0.691099	-0.681676
C171	C	1.739923	1.024432	-0.348342
C172	C	1.073143	0.357936	-0.164593
C173	C	1.406477	0.691270	0.168740
C174	C	1.739810	1.024603	0.502073
C175	C	1.073273	0.357761	-0.082048
C176	C	1.406606	0.691094	0.251286
C177	C	1.739940	1.024428	0.584619
H178	H	0.527342	0.266166	-0.266143
H179	H	0.860676	0.599500	0.067191
H180	H	1.194009	0.932833	0.400524
H181	H	0.619952	0.391278	-0.232495
H182	H	0.953285	0.724611	0.100838
H183	H	1.286619	1.057945	0.434171
H184	H	1.106532	0.903819	-0.482641
H185	H	1.439865	1.237153	-0.149307
H186	H	1.773198	1.570486	0.184026
H187	H	0.527106	0.482939	-0.323865
H188	H	0.860439	0.816272	0.009469
H189	H	1.193773	1.149605	0.342802
O190	O	1.209126	0.806824	-0.394263
O191	O	1.542459	1.140157	-0.060929
O192	O	1.875793	1.473490	0.272404
C193	C	1.228002	0.831899	-0.465773
C194	C	1.561336	1.165233	-0.132440
C195	C	1.894669	1.498566	0.200894
H196	H	1.175360	0.845791	-0.497781
H197	H	1.508694	1.179125	-0.164447
H198	H	1.842027	1.512458	0.168886
H199	H	1.259857	0.786646	-0.496250
H200	H	1.593190	1.119979	-0.162917
H201	H	1.926523	1.453312	0.170417
H202	H	1.264053	0.883536	-0.461115
H203	H	1.597386	1.216869	-0.127782
H204	H	1.930720	1.550202	0.205552
H205	H	0.981447	0.811188	-0.449026
H206	H	1.314781	1.144522	-0.115693
H207	H	1.648114	1.477855	0.217641
O208	O	0.936999	0.908224	-0.321154
O209	O	1.270333	1.241557	0.012179
O210	O	1.603666	1.574890	0.345512
C211	C	0.884812	0.883074	-0.373552
C212	C	1.218146	1.216408	-0.040219
C213	C	1.551479	1.549741	0.293114
H214	H	0.914306	0.869157	-0.427647
H215	H	1.247639	1.202490	-0.094313
H216	H	1.580972	1.535823	0.239020
H217	H	0.841951	0.928293	-0.383940
H218	H	1.175284	1.261627	-0.050607
H219	H	1.508617	1.594960	0.282726
H220	H	0.855980	0.831438	-0.351441
H221	H	1.189313	1.164772	-0.018108
H222	H	1.522647	1.498105	0.315225
O223	O	1.036869	0.221696	-0.908721
O224	O	1.370202	0.555029	-0.575387
O225	O	1.703536	0.888362	-0.242054
C226	C	1.036513	0.222825	-0.986821
C227	C	1.369847	0.556158	-0.653488
C228	C	1.703180	0.889491	-0.320155
H229	H	1.027818	0.282046	-1.006944
H230	H	1.361152	0.615379	-0.673611
H231	H	1.694485	0.948712	-0.340277
H232	H	0.989691	0.186244	-1.008214
H233	H	1.323024	0.519577	-0.674880
H234	H	1.656358	0.852911	-0.341547
H235	H	1.091742	0.201097	-1.008460
H236	H	1.425075	0.534430	-0.675127
H237	H	1.758408	0.867764	-0.341794
O238	O	0.623935	0.457717	-0.457052
O239	O	0.957268	0.791050	-0.123718
O240	O	1.290601	1.124384	0.209615
C241	C	0.597702	0.528905	-0.438387
C242	C	0.931036	0.862239	-0.105054
C243	C	1.264369	1.195572	0.228279
H244	H	0.545355	0.523595	-0.403464
H245	H	0.878688	0.856928	-0.070131
H246	H	1.212021	1.190261	0.263202
H247	H	0.584606	0.561004	-0.491164
H248	H	0.917939	0.894337	-0.157831
H249	H	1.251273	1.227670	0.175503
H250	H	0.641933	0.559683	-0.405443
H251	H	0.975267	0.893016	-0.072110
H252	H	1.308600	1.226349	0.261223
O253	O	1.172806	0.258009	-0.807433
O254	O	1.506139	0.591342	-0.474100
O255	O	1.839472	0.924675	-0.140767
C256	C	1.153458	0.186655	-0.832659
C257	C	1.486791	0.519988	-0.499326
C258	C	1.820124	0.853321	-0.165992
H259	H	1.091861	0.185237	-0.846529
H260	H	1.425195	0.518570	-0.513196
H261	H	1.758528	0.851903	-0.179862
H262	H	1.165861	0.144296	-0.787505
H263	H	1.499194	0.477630	-0.454171
H264	H	1.832528	0.810963	-0.120838
H265	H	1.187005	0.172732	-0.884340
H266	H	1.520338	0.506065	-0.551007
H267	H	1.853671	0.839399	-0.217673
O268	O	1.036591	0.807066	-0.221432
O269	O	1.369924	1.140399	0.111901
O270	O	1.703258	1.473732	0.445234
C271	C	1.036772	0.728959	-0.222252
C272	C	1.370106	1.062293	0.111081
C273	C	1.703439	1.395626	0.444414
H274	H	1.028468	0.708482	-0.281425
H275	H	1.361801	1.041816	0.051908
H276	H	1.695135	1.375149	0.385241
H277	H	0.989941	0.707452	-0.185766
H278	H	1.323274	1.040785	0.147567
H279	H	1.656607	1.374119	0.480900
H280	H	1.092053	0.707785	-0.200228
H281	H	1.425387	1.041118	0.133105
H282	H	1.758720	1.374452	0.466439
O283	O	0.624014	0.221831	-0.394503
O284	O	0.957347	0.555165	-0.061170
O285	O	1.290680	0.888498	0.272163
C286	C	0.667473	0.227116	-0.459187
C287	C	1.000807	0.560449	-0.125854
C288	C	1.334140	0.893782	0.207479
H289	H	0.651043	0.278901	-0.491370
H290	H	0.984376	0.612234	-0.158037
H291	H	1.317709	0.945568	0.175297
H292	H	0.658016	0.176071	-0.495178
H293	H	0.991349	0.509404	-0.161844
H294	H	1.324682	0.842737	0.171489
H295	H	0.728503	0.230647	-0.443321
H296	H	1.061836	0.563981	-0.109988
H297	H	1.395170	0.897314	0.223345
H298	H	1.164758	0.903721	-0.265971
H299	H	1.498091	1.237054	0.067362
H300	H	1.831424	1.570388	0.400695
H301	H	1.198257	0.391276	-0.904276
H302	H	1.531590	0.724610	-0.570942
H303	H	1.864923	1.057943	-0.237609
H304	H	0.948138	0.324144	-0.811667
H305	H	1.281471	0.657478	-0.478334
H306	H	1.614804	0.990811	-0.145000
H307	H	0.527084	0.324587	-0.482669
H308	H	0.860418	0.657920	-0.149336
H309	H	1.193751	0.991253	0.183998
H310	H	0.981511	0.449308	-0.904099
H311	H	1.314844	0.782641	-0.570765
H312	H	1.648177	1.115974	-0.237432
H313	H	1.106645	0.482806	-0.811441
H314	H	1.439978	0.816140	-0.478107
H315	H	1.773311	1.149473	-0.144774
