data_functionalizedCrystal
_audit_creation_method	'MofGen! by Chris Wilmer'
_symmetry_space_group_name_H-M	'P1'
_symmetry_Int_Tables_number	1
_symmetry_cell_setting	triclinic
loop_
_symmetry_equiv_pos_as_xyz
  x,y,z
_cell_length_a	6.394989
_cell_length_b	10.654550
_cell_length_c	9.730223
_cell_angle_alpha	90.004253
_cell_angle_beta	90.002753
_cell_angle_gamma	85.491321
loop_
_atom_site_label
_atom_site_type_symbol
_atom_site_fract_x
_atom_site_fract_y
_atom_site_fract_z
O1	O	-2.774472	-0.205783	-0.114276
O2	O	-2.166494	-0.216150	-0.114281
O3	O	-2.484462	-0.028376	-0.114270
O4	O	-2.456505	-0.393558	-0.114287
O5	O	-2.484441	-0.028370	0.114310
O6	O	-2.166473	-0.216145	0.114299
O7	O	-2.774452	-0.205778	0.114304
Zn8	Zn	-2.470459	-0.210960	0.150593
Zn9	Zn	-2.470486	-0.210968	-0.150570
O10	O	-2.456484	-0.393552	0.114293
C11	C	-2.482399	0.018447	0.000020
C12	C	-2.476257	0.157955	0.000017
C13	C	-2.458547	-0.440375	0.000000
C14	C	-2.464689	-0.579883	-0.000006
N15	N	-2.470456	-0.210955	0.356130
C16	C	-2.088633	-0.214098	0.000015
C17	C	-1.852307	-0.207833	0.000021
N18	N	-2.470506	-0.210963	-0.356107
C19	C	-2.663471	0.235458	0.000019
C20	C	-2.657688	0.366540	0.000002
C21	C	-2.277460	0.342604	-0.000012
C22	C	-2.283245	0.211524	-0.000005
C23	C	-2.611301	-0.127845	0.428061
C24	C	-2.611321	-0.127846	0.571944
C25	C	-2.329647	-0.294077	0.571952
C26	C	-2.329617	-0.294070	0.428072
H27	H	-2.810138	0.429638	-0.000000
H28	H	-2.214915	-0.361748	0.369501
O29	O	-2.101570	0.136047	-0.000067
C30	C	-2.148071	0.008867	-0.000029
H31	H	-2.312255	0.001253	-0.043294
H32	H	-2.140684	-0.028891	0.109633
C33	C	-1.785404	-0.059415	-0.036538
C34	C	-1.987052	-0.068768	-0.089689
H35	H	-1.686076	-0.107307	-0.091839
H36	H	-1.754072	0.026268	-0.036559
H37	H	-1.779278	-0.090878	0.054845
H38	H	-1.993182	-0.037291	-0.181064
H39	H	-2.018380	-0.154448	-0.089686
O40	O	-2.748169	-0.046983	0.358389
C41	C	-2.872517	0.026351	0.452738
H42	H	-2.786862	0.029148	0.555311
H43	H	-3.028303	-0.016947	0.468015
C44	C	-3.018819	0.157731	0.270622
C45	C	-2.913607	0.161175	0.396600
H46	H	-3.044174	0.240896	0.235993
H47	H	-2.935049	0.108322	0.207055
H48	H	-3.148628	0.121644	0.283370
H49	H	-2.783790	0.197247	0.383847
H50	H	-2.997356	0.210593	0.460164
O51	O	-2.747853	-0.046986	0.641879
C52	C	-2.634882	0.032303	0.725152
H53	H	-2.470089	0.037097	0.681811
H54	H	-2.624516	-0.006834	0.834193
C55	C	-2.950494	0.159417	0.780594
C56	C	-2.748097	0.165313	0.727356
H57	H	-3.020333	0.241463	0.781960
H58	H	-3.026608	0.105996	0.724496
H59	H	-2.941827	0.126798	0.871457
H60	H	-2.756767	0.197916	0.636489
H61	H	-2.671987	0.218743	0.783439
H62	H	-2.214982	-0.361749	0.630541
H63	H	-2.820634	0.191847	0.000034
H64	H	-2.120316	0.386236	-0.000027
