data_functionalizedCrystal
_audit_creation_method	'MofGen! by Chris Wilmer'
_symmetry_space_group_name_H-M	'P1'
_symmetry_Int_Tables_number	1
_symmetry_cell_setting	triclinic
loop_
_symmetry_equiv_pos_as_xyz
  x,y,z
_cell_length_a	17.019282
_cell_length_b	15.500215
_cell_length_c	10.723024
_cell_angle_alpha	93.157403
_cell_angle_beta	83.927098
_cell_angle_gamma	89.309895
loop_
_atom_site_label
_atom_site_type_symbol
_atom_site_fract_x
_atom_site_fract_y
_atom_site_fract_z
O1	O	1.047260	-0.006109	0.158445
O2	O	1.547260	0.493891	0.658445
O3	O	0.818487	0.010943	0.179961
O4	O	1.318487	0.510943	0.679961
O5	O	0.938151	0.002021	-0.012483
O6	O	1.438151	0.502021	0.487517
O7	O	0.927597	0.002814	0.350889
O8	O	1.427597	0.502814	0.850889
O9	O	0.931564	-0.141378	-0.022789
O10	O	1.431564	0.358622	0.477211
O11	O	0.811900	-0.132455	0.169655
O12	O	1.311900	0.367545	0.669655
O13	O	1.040674	-0.149507	0.148140
O14	O	1.540674	0.350493	0.648140
Cu15	Cu	0.925686	-0.154075	0.157956
Cu16	Cu	1.425686	0.345925	0.657956
Cu17	Cu	0.933475	0.015511	0.170144
Cu18	Cu	1.433475	0.515511	0.670144
O19	O	0.921010	-0.140585	0.340584
O20	O	1.421010	0.359415	0.840584
C21	C	0.785900	-0.058573	0.174199
C22	C	1.285900	0.441427	0.674199
C23	C	0.698616	-0.052067	0.172368
C24	C	1.198616	0.447933	0.672368
C25	C	0.654024	-0.127179	0.165887
C26	C	1.154024	0.372821	0.665887
C27	C	0.572012	-0.121069	0.164147
C28	C	1.072012	0.378931	0.664147
C29	C	0.534594	-0.039845	0.168897
C30	C	1.034594	0.460155	0.668897
C31	C	0.579192	0.035272	0.175374
C32	C	1.079192	0.535272	0.675374
C33	C	0.661203	0.029161	0.177106
C34	C	1.161203	0.529161	0.677106
C35	C	0.287154	-0.017483	0.163942
C36	C	0.787154	0.482517	0.663942
C37	C	0.205137	-0.011377	0.162214
C38	C	0.705137	0.488623	0.662214
C39	C	0.197964	-0.167719	0.150984
C40	C	0.697964	0.332281	0.650984
C41	C	0.279976	-0.173823	0.152724
C42	C	0.779976	0.326177	0.652724
C43	C	0.324567	-0.098706	0.159195
C44	C	0.824567	0.401294	0.659195
C45	C	0.450764	-0.033598	0.167122
C46	C	0.950764	0.466402	0.667122
C47	C	0.408396	-0.104954	0.160960
C48	C	0.908396	0.395046	0.660960
N49	N	0.920213	-0.273352	0.149383
N50	N	1.420213	0.226648	0.649383
C51	C	0.966229	-0.322054	0.221522
C52	C	1.466229	0.177946	0.721522
C53	C	0.962100	-0.412319	0.215030
C54	C	1.462100	0.087681	0.715030
C55	C	0.911951	-0.453881	0.136406
C56	C	1.411951	0.046119	0.636406
C57	C	0.865934	-0.405173	0.064259
C58	C	1.365934	0.094827	0.564259
C59	C	0.870067	-0.314910	0.070745
C60	C	1.370067	0.185090	0.570745
C61	C	0.897070	-0.726241	0.113046
C62	C	1.397070	-0.226241	0.613046
C63	C	0.892938	-0.816511	0.106569
C64	C	1.392938	-0.316511	0.606569
C65	C	0.989106	-0.823650	0.257339
C66	C	1.489106	-0.323650	0.757339
C67	C	0.993231	-0.733385	0.263823
C68	C	1.493231	-0.233385	0.763823
C69	C	0.947217	-0.684685	0.191672
C70	C	1.447217	-0.184685	0.691672
C71	C	0.907728	-0.546147	0.129772
C72	C	1.407728	-0.046147	0.629772
C73	C	0.951445	-0.592421	0.198300
C74	C	1.451445	-0.092421	0.698300
C75	C	1.073261	-0.079989	0.153902
C76	C	1.573261	0.420011	0.653902
C77	C	1.160545	-0.086489	0.155733
C78	C	1.660545	0.413511	0.655733
C79	C	0.934089	-0.069620	-0.064120
C80	C	1.434089	0.430380	0.435880
C81	C	0.931792	-0.069446	-0.202626
C82	C	1.431792	0.430554	0.297374
N83	N	0.938954	0.134788	0.178707
N84	N	1.438954	0.634788	0.678707
C85	C	0.998749	-0.074435	-0.279002
C86	C	1.498749	0.425565	0.220998
C87	C	0.996376	-0.074255	-0.422156
C88	C	1.496376	0.425745	0.077844
C89	C	0.925072	-0.068942	0.392220
C90	C	1.425072	0.431058	0.892220
C91	C	0.927370	-0.069111	0.530727
C92	C	1.427370	0.430889	1.030727
H93	H	0.697509	0.090325	0.182385
H94	H	1.197509	0.590325	0.682385
H95	H	1.034070	-0.699551	0.327844
H96	H	1.534070	-0.199551	0.827844
H97	H	0.548720	0.101406	0.179233
H98	H	1.048720	0.601406	0.679233
H99	H	0.859602	-0.686600	0.054294
H100	H	1.359602	-0.186600	0.554294
H101	H	0.852097	-0.850347	0.042543
H102	H	1.352097	-0.350347	0.542543
H103	H	0.438866	-0.171086	0.157087
H104	H	0.938866	0.328914	0.657087
H105	H	1.007060	-0.288220	0.285554
H106	H	1.507060	0.211780	0.785554
H107	H	0.832596	-0.275258	0.012002
H108	H	1.332596	0.224742	0.512002
H109	H	1.057831	-0.078844	-0.238410
H110	H	1.557831	0.421156	0.261590
C111	C	1.039724	-0.877228	0.336690
C112	C	1.539724	-0.377228	0.836690
N113	N	1.077855	-0.917583	0.396456
N114	N	1.577855	-0.417583	0.896456
C115	C	0.522962	-0.203699	0.157046
C116	C	1.022962	0.296301	0.657046
N117	N	0.486018	-0.265939	0.151707
N118	N	0.986018	0.234061	0.651707
H119	H	0.992279	-0.558578	0.262311
H120	H	1.492279	-0.058578	0.762311
H121	H	0.174673	0.054768	0.166086
H122	H	0.674673	0.554768	0.666086
H123	H	0.825106	-0.439021	0.000235
H124	H	1.325106	0.060979	0.500235
C125	C	0.852558	-0.591874	0.043299
C126	C	1.352558	-0.091874	0.543299
N127	N	0.811003	-0.626318	-0.021831
N128	N	1.311003	-0.126318	0.478169
H129	H	1.053697	-0.078531	-0.487782
H130	H	1.553697	0.421469	0.012218
C131	C	0.851971	-0.063498	-0.257457
C132	C	1.351971	0.436502	0.242543
N133	N	0.791848	-0.059020	-0.298755
N134	N	1.291848	0.440980	0.201245
C135	C	0.336195	0.065150	0.171050
C136	C	0.836195	0.565150	0.671050
N137	N	0.373136	0.127393	0.176399
N138	N	0.873136	0.627393	0.676399
H139	H	0.684483	-0.193320	0.162029
H140	H	1.184483	0.306680	0.662029
H141	H	0.420289	0.032535	0.170988
H142	H	0.920289	0.532535	0.670988
H143	H	0.310436	-0.239964	0.148850
H144	H	0.810436	0.260036	0.648850
C145	C	0.148907	-0.250343	0.143854
C146	C	0.648907	0.249657	0.643854
N147	N	0.111958	-0.312578	0.138476
N148	N	0.611958	0.187422	0.638476
H149	H	0.870045	-0.064845	-0.403655
H150	H	1.370045	0.435155	0.096345
H151	H	0.999572	-0.451968	0.273771
H152	H	1.499572	0.048032	0.773771
