data_functionalizedCrystal
_audit_creation_method	'MofGen! by Chris Wilmer'
_symmetry_space_group_name_H-M	'P1'
_symmetry_Int_Tables_number	1
_symmetry_cell_setting	triclinic
loop_
_symmetry_equiv_pos_as_xyz
  x,y,z
_cell_length_a	15.944551
_cell_length_b	16.098538
_cell_length_c	15.944551
_cell_angle_alpha	92.722095
_cell_angle_beta	96.501262
_cell_angle_gamma	92.734390
loop_
_atom_site_label
_atom_site_type_symbol
_atom_site_fract_x
_atom_site_fract_y
_atom_site_fract_z
O1	O	1.118280	0.069171	-0.104583
O2	O	0.873732	0.069192	-0.117938
O3	O	1.002684	0.069173	0.011014
O4	O	0.989328	0.069189	-0.233535
O5	O	0.995151	-0.069339	0.003511
O6	O	0.866199	-0.069320	-0.125441
O7	O	1.110748	-0.069341	-0.112086
Zn8	Zn	0.987277	-0.091322	-0.119955
Zn9	Zn	0.997202	0.091173	-0.110069
O10	O	0.981796	-0.069322	-0.241038
C11	C	0.838672	-0.000062	-0.121135
C12	C	0.745426	-0.000054	-0.119472
C13	C	0.530568	-0.000075	-0.035569
C14	C	0.473262	0.068221	-0.070832
C15	C	0.574700	-0.000064	-0.116466
C16	C	0.465858	-0.068341	-0.078249
C17	C	0.409786	-0.000077	-0.113556
C18	C	0.518625	0.068289	-0.151748
C19	C	0.511223	-0.068334	-0.159156
C20	C	0.453936	-0.000021	-0.194477
C21	C	0.669702	-0.000055	-0.118140
C22	C	0.314785	-0.000080	-0.111888
N23	N	0.980510	-0.215871	-0.126701
C24	C	1.035262	-0.259463	-0.071988
C25	C	1.030536	-0.346652	-0.076716
C26	C	0.971061	-0.390245	-0.136161
C27	C	0.916303	-0.346646	-0.190876
C28	C	0.921026	-0.259460	-0.186144
C29	C	0.953941	-0.653493	-0.153300
C30	C	0.949224	-0.740686	-0.158029
C31	C	1.063456	-0.740685	-0.043867
C32	C	1.068177	-0.653497	-0.039144
C33	C	1.013416	-0.609905	-0.093857
C34	C	0.966231	-0.479366	-0.140996
C35	C	1.018243	-0.520786	-0.089017
C36	C	1.145808	-0.000086	-0.108889
C37	C	1.239054	-0.000088	-0.110552
C38	C	0.998363	-0.000083	0.038556
C39	C	0.996701	-0.000083	0.131802
N40	N	1.003976	0.215721	-0.103316
C41	C	0.986117	-0.000065	-0.268580
C42	C	0.987779	-0.000059	-0.361826
C43	C	0.912797	-0.000064	0.346660
C44	C	0.948045	-0.068363	0.403977
C45	C	0.993694	-0.000076	0.302528
C46	C	0.955491	0.068199	0.411358
C47	C	0.990783	-0.000066	0.467442
C48	C	1.028961	-0.068431	0.358615
C49	C	1.036399	0.068192	0.365993
C50	C	1.071705	-0.000122	0.423292
C51	C	0.995368	-0.000083	0.207526
C52	C	0.989115	-0.000066	0.562443
H53	H	0.456292	0.125956	-0.033488
H54	H	0.528215	-0.126072	-0.196472
H55	H	0.442632	-0.126078	-0.047145
O56	O	0.891363	-0.782905	-0.215793
C57	C	0.844051	-0.725736	-0.263080
H58	H	0.846474	-0.663590	-0.225272
H59	H	0.871811	-0.716452	-0.325002
C60	C	0.748624	-0.836106	-0.328596
C61	C	0.751593	-0.759779	-0.282157
H62	H	0.691592	-0.857106	-0.340367
H63	H	0.780500	-0.874623	-0.296741
H64	H	0.771762	-0.828359	-0.380192
H65	H	0.728465	-0.767529	-0.230558
H66	H	0.719711	-0.721264	-0.314004
H67	H	0.909353	-0.618008	-0.197850
O68	O	0.546151	0.137191	-0.188935
C69	C	0.506100	0.137365	-0.272424
H70	H	0.483911	0.071024	-0.295642
H71	H	0.449372	0.178006	-0.273990
C72	C	0.596207	0.253753	-0.301629
C73	C	0.568960	0.172270	-0.330148
H74	H	0.634980	0.275287	-0.337236
H75	H	0.623188	0.253638	-0.245380
H76	H	0.548927	0.287610	-0.302935
H77	H	0.616238	0.138412	-0.328831
H78	H	0.541988	0.172380	-0.386398
O79	O	1.081042	0.137046	0.345814
C80	C	1.164371	0.137622	0.386414
H81	H	1.165652	0.098219	0.444047
H82	H	1.207405	0.110799	0.340719
C83	C	1.193959	0.276107	0.343853
C84	C	1.195531	0.227717	0.414643
H85	H	1.213183	0.331681	0.361262
H86	H	1.137820	0.275718	0.316497
H87	H	1.229820	0.253744	0.305780
H88	H	1.159663	0.250073	0.452709
H89	H	1.251665	0.228112	0.442006
H90	H	1.116607	-0.618004	0.009260
H91	H	0.924405	0.125944	0.434563
H92	H	0.563905	0.000005	0.031573
O93	O	0.414283	0.000136	-0.274604
C94	C	0.366789	0.071547	-0.283053
H95	H	0.351706	0.095059	-0.218158
H96	H	0.404875	0.122192	-0.312066
C97	C	0.302359	0.020504	-0.420457
C98	C	0.283828	0.049377	-0.340753
H99	H	0.251187	0.006830	-0.456051
H100	H	0.334359	-0.027606	-0.414766
H101	H	0.334099	0.062712	-0.444623
H102	H	0.252098	0.007165	-0.316583
H103	H	0.251821	0.097479	-0.346441
H104	H	1.083697	-0.223975	-0.023586
H105	H	1.075119	-0.382145	-0.032164
H106	H	0.845646	-0.000127	0.313349
H107	H	1.138910	-0.000167	0.456448
H108	H	1.108039	-0.776185	0.000678
H109	H	0.917806	-0.514867	-0.189399
O110	O	0.903352	-0.137178	0.424188
C111	C	0.819622	-0.136941	0.384781
H112	H	0.803742	-0.070480	0.370134
H113	H	0.813020	-0.177415	0.323512
C114	C	0.778032	-0.253414	0.462274
C115	C	0.758525	-0.171785	0.444291
H116	H	0.740344	-0.274910	0.498980
H117	H	0.834443	-0.253576	0.488821
H118	H	0.772531	-0.287132	0.411210
H119	H	0.764037	-0.138066	0.495352
H120	H	0.702113	-0.171618	0.417753
H121	H	0.867873	-0.382146	-0.239275
O122	O	1.066134	-0.137333	0.331100
C123	C	1.149623	-0.137509	0.371151
H124	H	1.172855	-0.071169	0.393329
H125	H	1.151181	-0.178152	0.427885
C126	C	1.178803	-0.253895	0.281062
C127	C	1.207339	-0.172413	0.308295
H128	H	1.214405	-0.275428	0.242292
H129	H	1.122554	-0.253778	0.254081
H130	H	1.180102	-0.287753	0.328347
H131	H	1.206029	-0.138554	0.261012
H132	H	1.263589	-0.172525	0.335267
O133	O	0.867803	-0.217240	-0.239382
C134	C	0.814282	-0.274410	-0.292852
H135	H	0.845352	-0.336555	-0.297198
H136	H	0.751385	-0.283698	-0.266040
C137	C	0.760651	-0.164040	-0.376270
C138	C	0.798815	-0.240365	-0.381613
H139	H	0.751106	-0.143039	-0.431021
H140	H	0.796706	-0.125523	-0.340245
H141	H	0.708241	-0.171790	-0.353923
H142	H	0.851228	-0.232612	-0.403949
H143	H	0.762768	-0.278881	-0.417644
H144	H	1.066665	-0.485290	-0.040614
