data_functionalizedCrystal
_audit_creation_method	'MofGen! by Chris Wilmer'
_symmetry_space_group_name_H-M	'P1'
_symmetry_Int_Tables_number	1
_symmetry_cell_setting	triclinic
loop_
_symmetry_equiv_pos_as_xyz
  x,y,z
_cell_length_a	12.759401
_cell_length_b	12.759400
_cell_length_c	12.759393
_cell_angle_alpha	89.971263
_cell_angle_beta	89.980804
_cell_angle_gamma	90.013592
loop_
_atom_site_label
_atom_site_type_symbol
_atom_site_fract_x
_atom_site_fract_y
_atom_site_fract_z
Zn1	Zn	1.606273	-0.418210	-0.593993
Zn2	Zn	1.606170	-0.593924	-0.418316
Zn3	Zn	1.430573	-0.418261	-0.418332
Zn4	Zn	1.430568	-0.593849	-0.593958
O5	O	1.518396	-0.506061	-0.506150
O6	O	1.753280	-0.441529	-0.570697
O7	O	1.582836	-0.570674	-0.271297
O8	O	1.453925	-0.271233	-0.441655
O9	O	1.753204	-0.570625	-0.441629
O10	O	1.583011	-0.271196	-0.570712
O11	O	1.453825	-0.441615	-0.271309
O12	O	1.283551	-0.441543	-0.441621
O13	O	1.453916	-0.570498	-0.740983
O14	O	1.283548	-0.570547	-0.570652
O15	O	1.583006	-0.441456	-0.741009
O16	O	1.582831	-0.740935	-0.441594
O17	O	1.453817	-0.740880	-0.570637
C18	C	1.245428	-0.506043	-0.506135
C19	C	1.128652	-0.506060	-0.506153
C20	C	1.073830	-0.438961	-0.573463
C21	C	0.964106	-0.438972	-0.573470
C22	C	0.964035	-0.573190	-0.438855
C23	C	1.073757	-0.573173	-0.438843
C24	C	1.518341	-0.779028	-0.506133
C25	C	1.518413	-0.895805	-0.506161
C26	C	1.585595	-0.950568	-0.573416
C27	C	1.585643	-1.060292	-0.573442
C28	C	1.451327	-1.060480	-0.438948
C29	C	1.451273	-0.950758	-0.438929
C30	C	1.652735	-0.895614	-0.640649
C31	C	1.719922	-0.950377	-0.707909
C32	C	1.719971	-1.060101	-0.707934
C33	C	1.652832	-1.115062	-0.640700
C34	C	1.792429	-0.506080	-0.506165
C35	C	1.909206	-0.506088	-0.506172
C36	C	1.518472	-0.505963	-0.780183
C37	C	1.518505	-0.505921	-0.896960
C38	C	1.518480	-0.232028	-0.506189
C39	C	1.518515	-0.115251	-0.506206
C40	C	1.585708	-0.573044	-1.061552
C41	C	1.585682	-0.573094	-0.951827
C42	C	1.451340	-0.438702	-0.951822
C43	C	1.451361	-0.438659	-1.061544
C44	C	1.518380	-0.506082	-0.233182
C45	C	1.518551	-0.505828	-0.116406
H46	H	1.118395	-0.627814	-0.384026
C47	C	1.436821	-0.297297	-1.184971
C48	C	1.377534	-0.364777	-1.121857
H49	H	1.391240	-0.251698	-1.222210
H50	H	1.482583	-0.257121	-1.142181
H51	H	1.476835	-0.337311	-1.233337
H52	H	1.337526	-0.324764	-1.073485
H53	H	1.331753	-0.404958	-1.164650
C54	C	0.974987	-0.705855	-0.305793
C55	C	0.903693	-0.646966	-0.364878
H56	H	0.937734	-0.751400	-0.260120
H57	H	1.017800	-0.746087	-0.351494
H58	H	1.017769	-0.660014	-0.265678
H59	H	0.860917	-0.692808	-0.404998
H60	H	0.860863	-0.606732	-0.319171
C61	C	1.242057	-0.379343	-0.633226
C62	C	1.134172	-0.365187	-0.647443
H63	H	1.279305	-0.333798	-0.678903
H64	H	1.260005	-0.363877	-0.562669
H65	H	1.260029	-0.449952	-0.648483
H66	H	1.116199	-0.294580	-0.632178
H67	H	1.116217	-0.380646	-0.718016
C68	C	1.645403	-0.632644	-1.229750
C69	C	1.659558	-0.646879	-1.121858
H70	H	1.691001	-0.678225	-1.266976
H71	H	1.574820	-0.648011	-1.247717
H72	H	1.660806	-0.562044	-1.247729
H73	H	1.644147	-0.717477	-1.103878
H74	H	1.730156	-0.631519	-1.103884
C75	C	1.852680	-0.961213	-0.840865
C76	C	1.793710	-0.889970	-0.781820
H77	H	1.898227	-0.923919	-0.886501
H78	H	1.892913	-1.004009	-0.795135
H79	H	1.806890	-1.004015	-0.881016
H80	H	1.839500	-0.847173	-0.741663
H81	H	1.753474	-0.847156	-0.827555
H82	H	0.919474	-0.384332	-0.628279
C83	C	1.725792	-0.738332	-0.713840
C84	C	1.652678	-0.775005	-0.640626
H85	H	1.725751	-0.663874	-0.713827
H86	H	1.793600	-0.763116	-0.695725
H87	H	1.707597	-0.763124	-0.781626
H88	H	1.670877	-0.750219	-0.572839
H89	H	1.584856	-0.750211	-0.658736
H90	H	1.640368	-0.627828	-0.907170
C91	C	1.318511	-0.961957	-0.305989
C92	C	1.377424	-0.890555	-0.365004
H93	H	1.272920	-0.924787	-0.260351
H94	H	1.278328	-1.004752	-0.351738
H95	H	1.364335	-1.004745	-0.265842
H96	H	1.331601	-0.847771	-0.405158
H97	H	1.417610	-0.847741	-0.319249
C98	C	1.734556	-1.183375	-0.849304
C99	C	1.793816	-1.120298	-0.781869
H100	H	1.780150	-1.220530	-0.894951
H101	H	1.694593	-1.231805	-0.809268
H102	H	1.688745	-1.140563	-0.889441
H103	H	1.839621	-1.163112	-0.741726
H104	H	1.833797	-1.071862	-0.821910
H105	H	1.652865	-1.204407	-0.640739
H106	H	1.396666	-1.105238	-0.384209
C107	C	1.391666	-0.379086	-0.783623
C108	C	1.377499	-0.364861	-0.891514
H109	H	1.346084	-0.333491	-0.746395
H110	H	1.376259	-0.449673	-0.765634
H111	H	1.462263	-0.363724	-0.765667
H112	H	1.306904	-0.380231	-0.909472
H113	H	1.392898	-0.294259	-0.909510
