data_functionalizedCrystal
_audit_creation_method	'MofGen! by Chris Wilmer'
_symmetry_space_group_name_H-M	'P1'
_symmetry_Int_Tables_number	1
_symmetry_cell_setting	triclinic
loop_
_symmetry_equiv_pos_as_xyz
  x,y,z
_cell_length_a	13.897449
_cell_length_b	13.897447
_cell_length_c	12.759393
_cell_angle_alpha	89.967926
_cell_angle_beta	89.976808
_cell_angle_gamma	90.020357
loop_
_atom_site_label
_atom_site_type_symbol
_atom_site_fract_x
_atom_site_fract_y
_atom_site_fract_z
Zn1	Zn	1.474688	-0.383937	-0.594109
Zn2	Zn	1.474578	-0.545266	-0.418428
Zn3	Zn	1.313378	-0.383989	-0.418434
Zn4	Zn	1.313354	-0.545194	-0.594055
O5	O	1.394000	-0.464596	-0.506257
O6	O	1.609655	-0.405346	-0.570825
O7	O	1.453158	-0.523925	-0.271408
O8	O	1.334833	-0.249000	-0.441763
O9	O	1.609574	-0.523874	-0.441752
O10	O	1.453347	-0.248962	-0.570831
O11	O	1.334725	-0.405435	-0.271412
O12	O	1.178393	-0.405365	-0.441711
O13	O	1.334792	-0.523750	-0.741083
O14	O	1.178376	-0.523801	-0.570738
O15	O	1.453323	-0.405276	-0.741123
O16	O	1.453135	-0.680238	-0.441700
O17	O	1.334684	-0.680185	-0.570732
C18	C	1.143385	-0.464582	-0.506220
C19	C	1.036171	-0.464598	-0.506229
C20	C	1.393921	-0.715211	-0.506232
C21	C	1.393976	-0.822425	-0.506257
C22	C	0.949102	-0.464602	-0.506247
C23	C	0.839869	-0.464608	-0.506279
C24	C	1.394022	-0.909494	-0.506281
C25	C	1.394090	-1.018727	-0.506308
C26	C	1.645593	-0.464612	-0.506294
C27	C	1.752806	-0.464619	-0.506310
C28	C	1.394067	-0.464499	-0.780290
C29	C	1.394096	-0.464458	-0.897067
C30	C	1.394105	-0.213003	-0.506304
C31	C	1.394149	-0.105789	-0.506324
C32	C	1.455824	-0.402762	-0.951951
C33	C	1.455847	-0.402727	-1.061675
C34	C	1.332411	-0.526092	-1.061621
C35	C	1.332384	-0.526121	-0.951899
C36	C	1.527091	-0.331541	-0.951984
C37	C	1.527114	-0.331506	-1.061708
C38	C	1.393988	-0.464624	-0.233289
C39	C	1.394146	-0.464393	-0.116513
H40	H	1.282116	-0.576356	-0.907216
H41	H	1.507112	-0.256840	-0.922227
H42	H	1.282166	-0.576294	-1.106278
H43	H	1.598033	-0.358320	-0.917954
C44	C	1.491058	-0.235603	-1.107708
N45	N	1.463911	-0.163367	-1.142357
H46	H	1.601820	-0.351513	-1.091493
