data_functionalizedCrystal
_audit_creation_method	'MofGen! by Chris Wilmer'
_symmetry_space_group_name_H-M	'P1'
_symmetry_Int_Tables_number	1
_symmetry_cell_setting	triclinic
loop_
_symmetry_equiv_pos_as_xyz
  x,y,z
_cell_length_a	16.625548
_cell_length_b	12.594516
_cell_length_c	16.625539
_cell_angle_alpha	89.978538
_cell_angle_beta	89.982945
_cell_angle_gamma	90.017121
loop_
_atom_site_label
_atom_site_type_symbol
_atom_site_fract_x
_atom_site_fract_y
_atom_site_fract_z
Zn1	Zn	1.232688	-0.423729	-0.455937
Zn2	Zn	1.232615	-0.601725	-0.321116
Zn3	Zn	1.097859	-0.423764	-0.321118
Zn4	Zn	1.097836	-0.601670	-0.455906
O5	O	1.165249	-0.512722	-0.388519
O6	O	1.345511	-0.447350	-0.438065
O7	O	1.214718	-0.578156	-0.208284
O8	O	1.115784	-0.274814	-0.339016
O9	O	1.345457	-0.578122	-0.339013
O10	O	1.214843	-0.274788	-0.438067
O11	O	1.115713	-0.447409	-0.208285
O12	O	0.985023	-0.447355	-0.338985
O13	O	1.115745	-0.578028	-0.568743
O14	O	0.985006	-0.578062	-0.438014
O15	O	1.214821	-0.447296	-0.568766
O16	O	1.214696	-0.750663	-0.338983
O17	O	1.115674	-0.750623	-0.438012
C18	C	0.955759	-0.512707	-0.388497
C19	C	0.866137	-0.512726	-0.388506
C20	C	0.537962	-0.512733	-0.388541
C21	C	0.629270	-0.512728	-0.388529
C22	C	0.702047	-0.512730	-0.388523
C23	C	0.793361	-0.512724	-0.388512
C24	C	1.165197	-0.789263	-0.388511
C25	C	1.165248	-0.907568	-0.388535
C26	C	1.111385	-0.976838	-0.442359
C27	C	1.091744	-1.047696	-0.368785
C28	C	1.184962	-1.047510	-0.462122
C29	C	1.145568	-0.976868	-0.314921
C30	C	1.238820	-0.976675	-0.408308
C31	C	1.219208	-1.047501	-0.334683
C32	C	1.375558	-0.512738	-0.388542
C33	C	1.465179	-0.512745	-0.388552
C34	C	1.165289	-0.512652	-0.598828
C35	C	1.165306	-0.512622	-0.688449
C36	C	1.165324	-0.235101	-0.388545
C37	C	1.165356	-0.116796	-0.388556
C38	C	1.165319	-0.512598	-0.761232
C39	C	1.165338	-0.512559	-0.852540
C40	C	1.165357	-0.512521	-0.925317
C41	C	1.165377	-0.512483	-1.016631
C42	C	1.165256	-0.512715	-0.179028
C43	C	1.165396	-0.512445	-0.089408
H44	H	1.065753	-0.945810	-0.487811
O45	O	1.273593	-1.084474	-0.280393
C46	C	1.335117	-1.238151	-0.219830
C47	C	1.273519	-1.196419	-0.281358
H48	H	1.335065	-1.328663	-0.220577
H49	H	1.397631	-1.207763	-0.236134
H50	H	1.318213	-1.208912	-0.157181
H51	H	1.290348	-1.225642	-0.344028
H52	H	1.211021	-1.226798	-0.264985
H53	H	1.300974	-0.945460	-0.425051
H54	H	1.201592	-1.078540	-0.524346
O55	O	1.017527	-1.084866	-0.348967
C56	C	0.876784	-1.090981	-0.383238
C57	C	0.960793	-1.048842	-0.405777
H58	H	0.830890	-1.061855	-0.429147
H59	H	0.877647	-1.181492	-0.382901
H60	H	0.859616	-1.060732	-0.320938
H61	H	0.978014	-1.079013	-0.468082
H62	H	0.959886	-0.958333	-0.406060
O63	O	1.125617	-0.939834	-0.240725
C64	C	1.103225	-0.786087	-0.157461
C65	C	1.125815	-0.827887	-0.241527
H66	H	1.103394	-0.695574	-0.158077
H67	H	1.040728	-0.815898	-0.140491
H68	H	1.148890	-0.815858	-0.111559
H69	H	1.080205	-0.798134	-0.287485
H70	H	1.188332	-0.798084	-0.258429
