data_functionalizedCrystal
_audit_creation_method	'MofGen! by Chris Wilmer'
_symmetry_space_group_name_H-M	'P1'
_symmetry_Int_Tables_number	1
_symmetry_cell_setting	triclinic
loop_
_symmetry_equiv_pos_as_xyz
  x,y,z
_cell_length_a	18.215407
_cell_length_b	19.121063
_cell_length_c	18.215399
_cell_angle_alpha	92.409843
_cell_angle_beta	89.982632
_cell_angle_gamma	92.466339
loop_
_atom_site_label
_atom_site_type_symbol
_atom_site_fract_x
_atom_site_fract_y
_atom_site_fract_z
Zn1	Zn	1.112557	-0.279669	-0.428551
Zn2	Zn	1.107209	-0.397123	-0.310727
Zn3	Zn	0.989489	-0.279686	-0.305504
Zn4	Zn	0.984201	-0.397078	-0.433755
O5	O	1.048364	-0.338389	-0.369634
O6	O	1.214831	-0.295261	-0.412929
O7	O	1.091568	-0.381571	-0.207051
O8	O	1.010265	-0.181399	-0.317462
O9	O	1.210902	-0.381555	-0.326364
O10	O	1.100682	-0.181386	-0.407864
O11	O	1.005079	-0.295290	-0.203214
O12	O	0.885803	-0.295246	-0.322509
O13	O	1.001253	-0.381478	-0.536048
O14	O	0.881919	-0.381494	-0.416735
O15	O	1.095555	-0.295217	-0.532224
O16	O	1.086441	-0.495402	-0.331411
O17	O	0.996067	-0.495369	-0.421799
C18	C	0.857159	-0.338367	-0.369620
C19	C	0.775359	-0.338375	-0.369633
C20	C	0.589206	-0.293535	-0.414785
C21	C	0.512347	-0.293541	-0.414788
C22	C	0.508273	-0.383263	-0.324497
C23	C	0.585131	-0.383253	-0.324491
C24	C	0.625595	-0.338390	-0.369639
C25	C	0.471878	-0.338406	-0.369648
C26	C	0.388544	-0.338413	-0.369651
C27	C	0.708934	-0.338382	-0.369636
C28	C	1.040120	-0.520869	-0.377753
C29	C	1.036661	-0.598935	-0.381250
C30	C	1.082125	-0.635605	-0.335872
C31	C	1.078876	-0.708956	-0.339166
C32	C	1.030158	-0.745636	-0.387835
C33	C	0.984692	-0.708962	-0.433218
C34	C	0.987946	-0.635612	-0.429927
C35	C	1.017983	-0.967106	-0.400126
C36	C	1.014731	-1.040461	-0.403412
C37	C	1.108916	-1.040450	-0.309361
C38	C	1.112162	-0.967099	-0.306071
C39	C	1.066699	-0.930430	-0.351457
C40	C	1.026834	-0.820613	-0.391201
C41	C	1.070027	-0.855455	-0.348094
C42	C	1.240316	-0.338411	-0.369649
C43	C	1.322114	-0.338421	-0.369655
C44	C	1.048411	-0.338341	-0.561585
C45	C	1.048431	-0.338320	-0.643383
C46	C	1.056660	-0.155196	-0.361500
C47	C	1.060195	-0.077130	-0.358034
C48	C	1.097553	-0.293362	-0.829585
C49	C	1.097563	-0.293342	-0.906443
C50	C	0.999366	-0.383169	-0.910414
C51	C	0.999353	-0.383185	-0.833557
C52	C	1.048451	-0.338283	-0.793145
C53	C	1.048473	-0.338246	-0.946859
C54	C	1.048483	-0.338224	-1.030192
C55	C	1.048440	-0.338304	-0.709807
C56	C	1.048362	-0.338387	-0.178428
C57	C	1.048493	-0.338209	-0.096621
H58	H	0.475317	-0.419790	-0.287739
H59	H	0.614759	-0.419780	-0.287724
N60	N	0.632849	-0.245147	-0.463479
H61	H	0.663457	-0.273730	-0.498806
H62	H	0.598081	-0.216745	-0.492029
H63	H	0.482723	-0.257014	-0.451549
H64	H	1.121792	-0.605744	-0.296238
H65	H	0.959363	-0.419765	-0.803887
H66	H	1.115897	-0.738809	-0.302214
N67	N	1.164717	-0.927537	-0.253589
H68	H	1.193031	-0.961898	-0.225346
H69	H	1.200104	-0.897065	-0.282221
N70	N	1.157945	-1.079998	-0.260408
H71	H	1.148493	-1.132031	-0.269874
H72	H	1.211070	-1.067132	-0.271329
N73	N	0.938913	-0.596057	-0.478873
H74	H	0.907556	-0.630423	-0.510203
H75	H	0.906220	-0.565667	-0.447525
N76	N	0.962184	-1.080022	-0.455910
H77	H	0.990726	-1.110414	-0.491398
H78	H	0.926755	-1.110455	-0.427283
H79	H	0.980963	-0.937256	-0.437080
N80	N	0.932149	-0.748520	-0.485714
H81	H	0.936983	-0.800551	-0.480912
H82	H	0.880163	-0.735742	-0.473640
N83	N	1.122572	-0.815893	-0.295608
H84	H	1.094028	-0.785503	-0.260118
H85	H	1.150871	-0.850292	-0.267406
N86	N	0.974283	-0.860173	-0.443689
H87	H	1.002823	-0.890562	-0.479182
H88	H	0.938861	-0.890611	-0.415058
H89	H	1.137529	-0.256798	-0.796684
H90	H	1.137545	-0.256762	-0.936109
H91	H	0.959394	-0.419728	-0.943327
