data_functionalizedCrystal
_audit_creation_method	'MofGen! by Chris Wilmer'
_symmetry_space_group_name_H-M	'P1'
_symmetry_Int_Tables_number	1
_symmetry_cell_setting	triclinic
loop_
_symmetry_equiv_pos_as_xyz
  x,y,z
_cell_length_a	12.759401
_cell_length_b	11.169416
_cell_length_c	12.759393
_cell_angle_alpha	89.971356
_cell_angle_beta	89.981504
_cell_angle_gamma	90.010501
loop_
_atom_site_label
_atom_site_type_symbol
_atom_site_fract_x
_atom_site_fract_y
_atom_site_fract_z
Zn1	Zn	1.606287	-0.477731	-0.594003
Zn2	Zn	1.606195	-0.678464	-0.418332
Zn3	Zn	1.430589	-0.477794	-0.418342
Zn4	Zn	1.430591	-0.678372	-0.593973
O5	O	1.518416	-0.578090	-0.506162
O6	O	1.753296	-0.504371	-0.570708
O7	O	1.582861	-0.651910	-0.271312
O8	O	1.453934	-0.309836	-0.441660
O9	O	1.753228	-0.651849	-0.441643
O10	O	1.583018	-0.309790	-0.570718
O11	O	1.453844	-0.504478	-0.271320
O12	O	1.283568	-0.504389	-0.441632
O13	O	1.453937	-0.651691	-0.740998
O14	O	1.283570	-0.651752	-0.570667
O15	O	1.583020	-0.504282	-0.741020
O16	O	1.582863	-0.846401	-0.441614
O17	O	1.453848	-0.846333	-0.570657
C18	C	1.245448	-0.578068	-0.506148
C19	C	1.128672	-0.578088	-0.506167
C20	C	1.518374	-0.889915	-0.506154
C21	C	1.518452	-1.023315	-0.506186
C22	C	1.073838	-0.654943	-0.573245
C23	C	0.964114	-0.654958	-0.573256
C24	C	0.964067	-0.501260	-0.439103
C25	C	1.073789	-0.501239	-0.439098
C26	C	1.073864	-0.743683	-0.650694
C27	C	0.964140	-0.743698	-0.650705
C28	C	1.792449	-0.578113	-0.506177
C29	C	1.909226	-0.578123	-0.506184
C30	C	1.518489	-0.577969	-0.780196
C31	C	1.518521	-0.577917	-0.896973
C32	C	1.518486	-0.265048	-0.506193
C33	C	1.518516	-0.131648	-0.506207
C34	C	1.585743	-0.501154	-0.951848
C35	C	1.585768	-0.501111	-1.061572
C36	C	1.451345	-0.654605	-1.061536
C37	C	1.451315	-0.654641	-0.951814
C38	C	1.663355	-0.412539	-0.951869
C39	C	1.663380	-0.412496	-1.061593
C40	C	1.518403	-0.578124	-0.233195
C41	C	1.518575	-0.577838	-0.116419
H42	H	1.118431	-0.438649	-0.384484
O43	O	1.628504	-0.307138	-1.102087
C44	C	1.525056	-0.286084	-1.067874
H45	H	1.510032	-0.338137	-0.992476
H46	H	1.467634	-0.316751	-1.130817
C47	C	1.528373	-0.087412	-1.139931
C48	C	1.509923	-0.151337	-1.047321
H49	H	1.519035	-0.004294	-1.127257
H50	H	1.598066	-0.101597	-1.162985
H51	H	1.480518	-0.112981	-1.192374
H52	H	1.557785	-0.125778	-0.994884
H53	H	1.440237	-0.137145	-1.024257
O54	O	0.928715	-0.854644	-0.624663
C55	C	0.965642	-0.938734	-0.698309
H56	H	1.039053	-0.902309	-0.738066
H57	H	0.902550	-0.955671	-0.759789
C58	C	0.901876	-1.101653	-0.593173
C59	C	0.992046	-1.056919	-0.641996
H60	H	0.918159	-1.174557	-0.558439
H61	H	0.876994	-1.045000	-0.543557
H62	H	0.849308	-1.115757	-0.644415
H63	H	1.044608	-1.042801	-0.590753
H64	H	1.016938	-1.113572	-0.691602
H65	H	1.740629	-0.445860	-0.917835
O66	O	1.760417	-0.442408	-1.097085
C67	C	1.787199	-0.557387	-1.060140
H68	H	1.712732	-0.609226	-1.040624
H69	H	1.837502	-0.548686	-0.986710
C70	C	1.940557	-0.561039	-1.169310
C71	C	1.849095	-0.624713	-1.145348
H72	H	1.978742	-0.602568	-1.221867
H73	H	1.922517	-0.483574	-1.194198
H74	H	1.982464	-0.553793	-1.108110
H75	H	1.807184	-0.631944	-1.206544
H76	H	1.867130	-0.702181	-1.120472
H77	H	0.919368	-0.438691	-0.384499
H78	H	1.103671	-0.718894	-0.732099
O79	O	1.114581	-0.848965	-0.615921
C80	C	1.176743	-0.900463	-0.695374
H81	H	1.203974	-0.827580	-0.751727
H82	H	1.128638	-0.969711	-0.740000
C83	C	1.239400	-1.051140	-0.576543
C84	C	1.272852	-0.961623	-0.645753
H85	H	1.298682	-1.088872	-0.545936
H86	H	1.197517	-1.016449	-0.523014
H87	H	1.199311	-1.108835	-0.613742
H88	H	1.312928	-0.903922	-0.608551
H89	H	1.314744	-0.996306	-0.699274
O90	O	1.386170	-0.729098	-1.114974
C91	C	1.400587	-0.712583	-1.223585
H92	H	1.481679	-0.673278	-1.238584
H93	H	1.338291	-0.648653	-1.254727
C94	C	1.291346	-0.882271	-1.261475
C95	C	1.390948	-0.834005	-1.279898
H96	H	1.285396	-0.957168	-1.296213
H97	H	1.281629	-0.893396	-1.188302
H98	H	1.239444	-0.828985	-1.287427
H99	H	1.442848	-0.887284	-1.253934
H100	H	1.400674	-0.822892	-1.353068
O101	O	1.637431	-0.301718	-0.916179
C102	C	1.637427	-0.301974	-0.805677
H103	H	1.689348	-0.377806	-0.776016
H104	H	1.554020	-0.315535	-0.775878
C105	C	1.616187	-0.088358	-0.801721
C106	C	1.679964	-0.181491	-0.765291
H107	H	1.642421	-0.014037	-0.776808
H108	H	1.616185	-0.088185	-0.876168
H109	H	1.546686	-0.099675	-0.776886
H110	H	1.749460	-0.170181	-0.790137
H111	H	1.679978	-0.181658	-0.690847
O112	O	0.923622	-0.704307	-0.743064
C113	C	0.957895	-0.779231	-0.825100
H114	H	0.980416	-0.870449	-0.791927
H115	H	1.028882	-0.737186	-0.865022
C116	C	0.841356	-0.682611	-0.946341
C117	C	0.869009	-0.794651	-0.905597
H118	H	0.786530	-0.692120	-0.995998
H119	H	0.818268	-0.632130	-0.891073
H120	H	0.900520	-0.647586	-0.979601
H121	H	0.809850	-0.829667	-0.872327
H122	H	0.892086	-0.845138	-0.960862
H123	H	1.396572	-0.717145	-0.907139
