data_functionalizedCrystal
_audit_creation_method	'MofGen! by Chris Wilmer'
_symmetry_space_group_name_H-M	'P1'
_symmetry_Int_Tables_number	1
_symmetry_cell_setting	triclinic
loop_
_symmetry_equiv_pos_as_xyz
  x,y,z
_cell_length_a	25.639242
_cell_length_b	21.395361
_cell_length_c	21.395355
_cell_angle_alpha	90.019049
_cell_angle_beta	90.027171
_cell_angle_gamma	90.021463
loop_
_atom_site_label
_atom_site_type_symbol
_atom_site_fract_x
_atom_site_fract_y
_atom_site_fract_z
Zn1	Zn	-0.799312	0.249663	-0.354303
Zn2	Zn	-0.299312	0.749663	0.145697
Zn3	Zn	-0.799231	0.354423	-0.249524
Zn4	Zn	-0.299231	0.854423	0.250476
Zn5	Zn	-0.711871	0.249646	-0.249535
Zn6	Zn	-0.211871	0.749646	0.250465
Zn7	Zn	-0.711846	0.354390	-0.354260
Zn8	Zn	-0.211846	0.854390	0.145740
O9	O	-0.755565	0.302030	-0.301905
O10	O	-0.255565	0.802030	0.198095
O11	O	-0.872467	0.263580	-0.340417
O12	O	-0.372467	0.763580	0.159583
O13	O	-0.787619	0.340531	-0.161848
O14	O	-0.287619	0.840531	0.338152
O15	O	-0.723515	0.161971	-0.263455
O16	O	-0.223515	0.661971	0.236545
O17	O	-0.872407	0.340547	-0.263437
O18	O	-0.372407	0.840547	0.236563
O19	O	-0.787758	0.161983	-0.340427
O20	O	-0.287758	0.661983	0.159573
O21	O	-0.723437	0.263552	-0.161855
O22	O	-0.223437	0.763552	0.338145
O23	O	-0.638703	0.263520	-0.263413
O24	O	-0.138703	0.763520	0.236587
O25	O	-0.723472	0.340491	-0.441943
O26	O	-0.223472	0.840491	0.058057
O27	O	-0.638684	0.340475	-0.340354
O28	O	-0.138684	0.840475	0.159646
O29	O	-0.787733	0.263548	-0.441975
O30	O	-0.287733	0.763548	0.058025
O31	O	-0.787595	0.442096	-0.263395
O32	O	-0.287595	0.942096	0.236605
O33	O	-0.723393	0.442072	-0.340344
O34	O	-0.223393	0.942072	0.159656
C35	C	-0.619723	0.301993	-0.301880
C36	C	-0.119723	0.801993	0.198120
C37	C	-0.561609	0.301992	-0.301885
C38	C	-0.061609	0.801992	0.198115
C39	C	-0.755497	0.464818	-0.301878
C40	C	-0.255497	0.964818	0.198122
C41	C	-0.755515	0.534459	-0.301887
C42	C	-0.255515	1.034459	0.198113
C43	C	-0.310454	0.262012	-0.342047
C44	C	0.189546	0.762012	0.157953
C45	C	-0.365059	0.262008	-0.342045
C46	C	0.134941	0.762008	0.157955
O47	O	-0.393328	0.227995	-0.376196
O48	O	0.106672	0.727995	0.123804
N49	N	-0.392335	0.302013	-0.301900
N50	N	0.107665	0.802013	0.198100
C51	C	-0.365004	0.342029	-0.261758
C52	C	0.134996	0.842029	0.238242
O53	O	-0.393218	0.376057	-0.227612
O54	O	0.106782	0.876057	0.272388
C55	C	-0.310400	0.342037	-0.261764
C56	C	0.189600	0.842037	0.238236
C57	C	-0.283127	0.302025	-0.301907
C58	C	0.216873	0.802025	0.198093
C59	C	-0.283181	0.222004	-0.382187
C60	C	0.216819	0.722004	0.117813
C61	C	-0.228580	0.222008	-0.382188
C62	C	0.271420	0.722008	0.117812
C63	C	-0.201253	0.262020	-0.342048
C64	C	0.298747	0.762020	0.157952
C65	C	-0.228527	0.302029	-0.301907
C66	C	0.271473	0.802029	0.198093
C67	C	-0.283070	0.382056	-0.221626
C68	C	0.216930	0.882056	0.278374
C69	C	-0.228463	0.382060	-0.221635
C70	C	0.271537	0.882060	0.278365
C71	C	-0.201190	0.342048	-0.261778
C72	C	0.298810	0.842048	0.238222
C73	C	-0.146599	0.342045	-0.261768
C74	C	0.353401	0.842045	0.238232
N75	N	-0.119323	0.302040	-0.301913
N76	N	0.380677	0.802040	0.198087
C77	C	-0.146650	0.262027	-0.342053
C78	C	0.353350	0.762027	0.157947
C79	C	-0.479674	0.342012	-0.261751
C80	C	0.020326	0.842012	0.238249
C81	C	-0.534277	0.342002	-0.261742
C82	C	-0.034277	0.842002	0.238258
C83	C	-0.534328	0.261981	-0.342030
C84	C	-0.034328	0.761981	0.157970
C85	C	-0.479724	0.261988	-0.342035
C86	C	0.020276	0.761988	0.157965
C87	C	-0.452398	0.302007	-0.301896
C88	C	0.047602	0.802007	0.198104
C89	C	-0.031985	0.262038	-0.342051
C90	C	0.468015	0.762038	0.157949
C91	C	0.022621	0.262044	-0.342046
C92	C	0.522621	0.762044	0.157954
C93	C	0.022667	0.342067	-0.261762
C94	C	0.522667	0.842067	0.238238
C95	C	-0.031934	0.342059	-0.261764
C96	C	0.468066	0.842059	0.238236
C97	C	-0.059258	0.302043	-0.301914
C98	C	0.440742	0.802043	0.198086
O99	O	-0.118294	0.376041	-0.227636
O100	O	0.381706	0.876041	0.272364
O101	O	-0.118429	0.228012	-0.376200
O102	O	0.381571	0.728012	0.123800
C103	C	0.108062	0.302061	-0.301922
C104	C	0.608062	0.802061	0.198078
C105	C	0.049948	0.302056	-0.301907
C106	C	0.549948	0.802056	0.198093
C107	C	-0.788974	0.567164	-0.261862
C108	C	-0.288974	1.067164	0.238138
C109	C	-0.788999	0.632599	-0.261879
C110	C	-0.288999	1.132599	0.238121
C111	C	-0.755555	0.665328	-0.301914
C112	C	-0.255555	1.165328	0.198086
C113	C	-0.722093	0.632615	-0.341946
C114	C	-0.222093	1.132615	0.158054
C115	C	-0.722073	0.567181	-0.341933
C116	C	-0.222073	1.067181	0.158067
C117	C	-0.708478	0.769034	-0.306825
C118	C	-0.208478	1.269034	0.193175
C119	C	-0.708497	0.834467	-0.306835
C120	C	-0.208497	1.334467	0.193165
C121	C	-0.755616	0.867148	-0.301959
C122	C	-0.255616	1.367148	0.198041
C123	C	-0.802718	0.834389	-0.297061
C124	C	-0.302718	1.334389	0.202939
C125	C	-0.802698	0.768955	-0.297048
C126	C	-0.302698	1.268955	0.202952
C127	C	-0.755573	0.736280	-0.301933
C128	C	-0.255573	1.236280	0.198067
C129	C	-0.789105	0.970806	-0.261950
C130	C	-0.289105	1.470806	0.238050
C131	C	-0.789130	1.036242	-0.261972
C132	C	-0.289130	1.536242	0.238028
C133	C	-0.722220	1.036256	-0.342036
C134	C	-0.222220	1.536256	0.157964
C135	C	-0.722199	0.970821	-0.342018
C136	C	-0.222199	1.470821	0.157982
C137	C	-0.755641	0.938100	-0.301972
C138	C	-0.255641	1.438100	0.198028
C139	C	-0.755609	0.302018	-0.465329
C140	C	-0.255609	0.802018	0.034671
C141	C	-0.755627	0.302012	-0.534970
C142	C	-0.255627	0.802012	-0.034970
C143	C	-0.755649	1.138607	-0.301958
C144	C	-0.255649	1.638607	0.198042
C145	C	-0.755686	1.068966	-0.302008
C146	C	-0.255686	1.568966	0.197992
C147	C	-0.789086	0.261947	-0.567701
C148	C	-0.289086	0.761947	-0.067701
C149	C	-0.789086	0.261920	-0.633136
C150	C	-0.289086	0.761920	-0.133136
C151	C	-0.755631	0.301970	-0.665838
C152	C	-0.255631	0.801970	-0.165838
C153	C	-0.722165	0.342038	-0.633100
C154	C	-0.222165	0.842038	-0.133100
C155	C	-0.722163	0.342059	-0.567666
C156	C	-0.222163	0.842059	-0.067666
C157	C	-0.751479	0.358384	-0.769503
C158	C	-0.251479	0.858384	-0.269503
C159	C	-0.751485	0.358364	-0.834936
C160	C	-0.251485	0.858364	-0.334936
C161	C	-0.755634	0.301903	-0.867659
C162	C	-0.255634	0.801903	-0.367659
C163	C	-0.759789	0.245461	-0.834941
C164	C	-0.259789	0.745461	-0.334941
C165	C	-0.759787	0.245483	-0.769507
C166	C	-0.259787	0.745483	-0.269507
C167	C	-0.755629	0.301951	-0.736791
C168	C	-0.255629	0.801951	-0.236791
C169	C	-0.789095	0.261805	-0.971342
C170	C	-0.289095	0.761805	-0.471342
C171	C	-0.789090	0.261777	-1.036779
C172	C	-0.289090	0.761777	-0.536779
C173	C	-0.722173	0.341901	-1.036742
C174	C	-0.222173	0.841901	-0.536742
C175	C	-0.722174	0.341923	-0.971306
C176	C	-0.222174	0.841923	-0.471306
C177	C	-0.755638	0.301876	-0.938611
C178	C	-0.255638	0.801876	-0.438611
C179	C	-0.755552	0.301998	-0.139118
C180	C	-0.255552	0.801998	0.360882
C181	C	-0.755635	0.301827	-0.069477
C182	C	-0.255635	0.801827	0.430523
H183	H	0.044824	0.229458	-0.374736
H184	H	0.544824	0.729458	0.125264
H185	H	-0.841086	0.860997	-0.293091
H186	H	-0.341086	1.360997	0.206909
H187	H	-0.670105	0.742431	-0.310798
H188	H	-0.170105	1.242431	0.189202
O189	O	-0.560848	0.380807	-0.222763
O190	O	-0.060848	0.880807	0.277237
C191	C	-0.644938	0.416304	-0.187199
C192	C	-0.144938	0.916304	0.312801
C193	C	-0.614914	0.372310	-0.231361
C194	C	-0.114914	0.872310	0.268639
H195	H	-0.688656	0.409459	-0.194144
H196	H	-0.188656	0.909459	0.305856
H197	H	-0.634220	0.405226	-0.136684
H198	H	-0.134220	0.905226	0.363316
H199	H	-0.634158	0.466834	-0.198105
H200	H	-0.134158	0.966834	0.301895
H201	H	-0.625678	0.321765	-0.220511
H202	H	-0.125678	0.821765	0.279489
H203	H	-0.625634	0.383442	-0.281862
H204	H	-0.125634	0.883442	0.218138
H205	H	-0.206217	0.414651	-0.188950
H206	H	0.293783	0.914651	0.311050
H207	H	-0.816247	0.659233	-0.229286
H208	H	-0.316247	1.159233	0.270714
O209	O	-0.821631	0.223122	-0.535905
O210	O	-0.321631	0.723122	-0.035905
C211	C	-0.892179	0.214702	-0.462009
C212	C	-0.392179	0.714702	0.037991
C213	C	-0.855374	0.258749	-0.497997
C214	C	-0.355374	0.758749	0.002003
H215	H	-0.919462	0.243488	-0.431341
H216	H	-0.419462	0.743488	0.068659
H217	H	-0.916131	0.186060	-0.496609
H218	H	-0.416131	0.686060	0.003391
H219	H	-0.868161	0.181941	-0.431400
H220	H	-0.368161	0.681941	0.068600
H221	H	-0.879351	0.291548	-0.528606
H222	H	-0.379351	0.791548	-0.028606
H223	H	-0.831419	0.287347	-0.463363
H224	H	-0.331419	0.787347	0.036637
H225	H	-0.816340	0.229193	-0.944720
H226	H	-0.316340	0.729193	-0.444720
H227	H	-0.748105	0.404322	-0.861570
H228	H	-0.248105	0.904322	-0.361570
O229	O	-0.689715	1.067943	-0.380986
O230	O	-0.189715	1.567943	0.119014
C231	C	-0.623326	1.061052	-0.460369
C232	C	-0.123326	1.561052	0.039631
C233	C	-0.660118	1.025085	-0.416297
C234	C	-0.160118	1.525085	0.083703
H235	H	-0.599380	1.026416	-0.488920
H236	H	-0.099380	1.526416	0.011080
H237	H	-0.647301	1.091629	-0.493208
H238	H	-0.147301	1.591629	0.006792
H239	H	-0.596031	1.091744	-0.431568
H240	H	-0.096031	1.591744	0.068432
H241	H	-0.687420	0.994358	-0.445047
H242	H	-0.187420	1.494358	0.054953
H243	H	-0.636111	0.994547	-0.383457
H244	H	-0.136111	1.494547	0.116543
H245	H	-0.457429	0.374599	-0.229060
H246	H	0.042571	0.874599	0.270940
O247	O	-0.058349	0.380984	-0.222749
O248	O	0.441651	0.880984	0.277251
C249	C	-0.052529	0.460337	-0.143097
C250	C	0.447471	0.960337	0.356903
C251	C	-0.022554	0.416289	-0.187253
C252	C	0.477446	0.916289	0.312747
H253	H	-0.023602	0.488882	-0.114378
H254	H	0.476398	0.988882	0.385622
H255	H	-0.078076	0.493182	-0.171779
H256	H	0.421924	0.993182	0.328221
H257	H	-0.078107	0.431518	-0.110414
H258	H	0.421893	0.931518	0.389586
H259	H	0.003052	0.445057	-0.219945
H260	H	0.503052	0.945057	0.280055
H261	H	0.002960	0.383442	-0.158532
H262	H	0.502960	0.883442	0.341468
O263	O	-0.689642	0.535380	-0.380879
O264	O	-0.189642	1.035380	0.119121
C265	C	-0.682549	0.461429	-0.465417
C266	C	-0.182549	0.961429	0.034583
C267	C	-0.719338	0.497417	-0.421361
C268	C	-0.219338	0.997417	0.078639
H269	H	-0.706543	0.430718	-0.498149
H270	H	-0.206543	0.930718	0.001851
H271	H	-0.658659	0.496029	-0.494083
H272	H	-0.158659	0.996029	0.005917
H273	H	-0.655202	0.430865	-0.436598
H274	H	-0.155202	0.930865	0.063402
H275	H	-0.746717	0.527982	-0.450131
H276	H	-0.246717	1.027982	0.049869
H277	H	-0.743191	0.462783	-0.392692
H278	H	-0.243191	0.962783	0.107308
H279	H	-0.816337	0.944163	-0.229344
H280	H	-0.316337	1.444163	0.270656
O281	O	-0.821652	1.067917	-0.223031
O282	O	-0.321652	1.567917	0.276969
C283	C	-0.888030	1.060995	-0.143637
C284	C	-0.388030	1.560995	0.356363
C285	C	-0.851217	1.025045	-0.187695
C286	C	-0.351217	1.525045	0.312305
H287	H	-0.911951	1.026348	-0.115065
H288	H	-0.411951	1.526348	0.384935
H289	H	-0.864072	1.091654	-0.110816
H290	H	-0.364072	1.591654	0.389184
H291	H	-0.915347	1.091604	-0.172449
H292	H	-0.415347	1.591604	0.327551
H293	H	-0.823893	0.994401	-0.158933
H294	H	-0.323893	1.494401	0.341067
H295	H	-0.875208	0.994425	-0.220518
H296	H	-0.375208	1.494425	0.279482
H297	H	-0.694951	0.944191	-0.374607
H298	H	-0.194951	1.444191	0.125393
O299	O	-0.763751	0.190561	-0.866646
O300	O	-0.263751	0.690561	-0.366646
C301	C	-0.726056	0.089364	-0.886656
C302	C	-0.226056	0.589364	-0.386656
C303	C	-0.721513	0.151502	-0.850701
C304	C	-0.221513	0.651502	-0.350701
H305	H	-0.691906	0.057772	-0.873787
H306	H	-0.191906	0.557772	-0.373787
H307	H	-0.764245	0.065287	-0.873799
H308	H	-0.264245	0.565287	-0.373799
H309	H	-0.725365	0.099052	-0.939041
H310	H	-0.225365	0.599052	-0.439041
H311	H	-0.722182	0.141868	-0.798307
H312	H	-0.222182	0.641868	-0.298307
H313	H	-0.683329	0.175559	-0.863610
H314	H	-0.183329	0.675559	-0.363610
O315	O	-0.662701	0.866189	-0.311623
O316	O	-0.162701	1.366189	0.188377
C317	C	-0.569243	0.859360	-0.321285
C318	C	-0.069243	1.359360	0.178715
C319	C	-0.621072	0.823358	-0.315881
C320	C	-0.121072	1.323358	0.184119
H321	H	-0.535571	0.824746	-0.324716
H322	H	-0.035571	1.324746	0.175284
H323	H	-0.570011	0.889955	-0.364890
H324	H	-0.070011	1.389955	0.135110
H325	H	-0.563776	0.890037	-0.278199
H326	H	-0.063776	1.390037	0.221801
H327	H	-0.626571	0.792647	-0.358934
H328	H	-0.126571	1.292647	0.141066
H329	H	-0.620279	0.792802	-0.272250
H330	H	-0.120279	1.292802	0.227750
O331	O	-0.309636	0.420871	-0.182655
O332	O	0.190364	0.920871	0.317345
C333	C	-0.393722	0.456383	-0.147093
C334	C	0.106278	0.956383	0.352907
C335	C	-0.363703	0.412378	-0.191249
C336	C	0.136297	0.912378	0.308751
H337	H	-0.437441	0.449542	-0.154035
H338	H	0.062559	0.949542	0.345965
H339	H	-0.383004	0.445314	-0.096577
H340	H	0.116996	0.945314	0.403423
H341	H	-0.382939	0.506910	-0.158010
H342	H	0.117061	1.006910	0.341990
H343	H	-0.374470	0.361836	-0.180388
H344	H	0.125530	0.861836	0.319612
H345	H	-0.374424	0.423501	-0.241752
H346	H	0.125576	0.923501	0.258248
H347	H	0.044927	0.374642	-0.229078
H348	H	0.544927	0.874642	0.270922
H349	H	-0.206379	0.189429	-0.414879
H350	H	0.293621	0.689429	0.085121
H351	H	-0.054226	0.229453	-0.374745
H352	H	0.445774	0.729453	0.125255
O353	O	-0.848497	0.737229	-0.292319
O354	O	-0.348497	1.237229	0.207681
C355	C	-0.941951	0.744048	-0.282598
C356	C	-0.441951	1.244048	0.217402
C357	C	-0.890122	0.780055	-0.287960
C358	C	-0.390122	1.280055	0.212040
H359	H	-0.975618	0.778658	-0.279058
H360	H	-0.475618	1.278658	0.220942
H361	H	-0.947477	0.713404	-0.325698
H362	H	-0.447477	1.213404	0.174302
H363	H	-0.941122	0.713419	-0.239019
H364	H	-0.441122	1.213419	0.260981
H365	H	-0.890914	0.810719	-0.331513
H366	H	-0.390914	1.310719	0.168487
H367	H	-0.884616	0.810660	-0.244829
H368	H	-0.384616	1.310660	0.255171
H369	H	-0.457522	0.229406	-0.374723
H370	H	0.042478	0.729406	0.125277
O371	O	-0.309641	0.183072	-0.421201
O372	O	0.190359	0.683072	0.078799
C373	C	-0.303910	0.103722	-0.500852
C374	C	0.196090	0.603722	-0.000852
C375	C	-0.273885	0.147778	-0.456692
C376	C	0.226115	0.647778	0.043308
H377	H	-0.275015	0.075185	-0.529568
H378	H	0.224985	0.575185	-0.029568
H379	H	-0.329451	0.070869	-0.472174
H380	H	0.170549	0.570869	0.027826
H381	H	-0.329498	0.132534	-0.533538
H382	H	0.170502	0.632534	-0.033538
H383	H	-0.248268	0.119017	-0.423997
H384	H	0.251732	0.619017	0.076003
H385	H	-0.248377	0.180633	-0.485409
H386	H	0.251623	0.680633	0.014591
O387	O	-0.821513	0.535477	-0.222949
O388	O	-0.321513	1.035477	0.277051
C389	C	-0.887860	0.542371	-0.143515
C390	C	-0.387860	1.042371	0.356485
C391	C	-0.851044	0.578337	-0.187560
C392	C	-0.351044	1.078337	0.312440
H393	H	-0.911737	0.577008	-0.114882
H394	H	-0.411737	1.077008	0.385118
H395	H	-0.915214	0.511717	-0.172279
H396	H	-0.415214	1.011717	0.327721
H397	H	-0.863855	0.511756	-0.110746
H398	H	-0.363855	1.011756	0.389254
H399	H	-0.875007	0.608986	-0.220338
H400	H	-0.375007	1.108986	0.279662
H401	H	-0.823689	0.608951	-0.158757
H402	H	-0.323689	1.108951	0.341243
H403	H	-0.694863	0.659266	-0.374544
H404	H	-0.194863	1.159266	0.125456
O405	O	-0.821640	0.222980	-0.664843
O406	O	-0.321640	0.722980	-0.164843
C407	C	-0.887998	0.143495	-0.657979
C408	C	-0.387998	0.643495	-0.157979
C409	C	-0.851165	0.187570	-0.621997
C410	C	-0.351165	0.687570	-0.121997
H411	H	-0.911871	0.114845	-0.623354
H412	H	-0.411871	0.614845	-0.123354
H413	H	-0.915355	0.172234	-0.688609
H414	H	-0.415355	0.672234	-0.188609
H415	H	-0.864005	0.110742	-0.688620
H416	H	-0.364005	0.610742	-0.188620
H417	H	-0.875116	0.220332	-0.591321
H418	H	-0.375116	0.720332	-0.091321
H419	H	-0.823807	0.158792	-0.591406
H420	H	-0.323807	0.658792	-0.091406
O421	O	-0.763744	0.190691	-0.737657
O422	O	-0.263744	0.690691	-0.237657
C423	C	-0.723769	0.120474	-0.663787
C424	C	-0.223769	0.620474	-0.163787
C425	C	-0.719231	0.182549	-0.699807
C426	C	-0.219231	0.682549	-0.199807
H427	H	-0.687780	0.113865	-0.633187
H428	H	-0.187780	0.613865	-0.133187
H429	H	-0.760113	0.121450	-0.633127
H430	H	-0.260113	0.621450	-0.133127
H431	H	-0.726759	0.080128	-0.698422
H432	H	-0.226759	0.580128	-0.198422
H433	H	-0.716219	0.222929	-0.665217
H434	H	-0.216219	0.722929	-0.165217
H435	H	-0.682893	0.181519	-0.730477
H436	H	-0.182893	0.681519	-0.230477
O437	O	-0.821541	0.222870	-1.068673
O438	O	-0.321541	0.722870	-0.568673
C439	C	-0.851214	0.187343	-1.169493
C440	C	-0.351214	0.687343	-0.669493
C441	C	-0.814431	0.231430	-1.133451
C442	C	-0.314431	0.731430	-0.633451
H443	H	-0.845486	0.194258	-1.221873
H444	H	-0.345486	0.694258	-0.721873
H445	H	-0.842057	0.136811	-1.156664
H446	H	-0.342057	0.636811	-0.656664
H447	H	-0.893363	0.198354	-1.156618
H448	H	-0.393363	0.698354	-0.656618
H449	H	-0.772270	0.220475	-1.146307
H450	H	-0.272270	0.720475	-0.646307
H451	H	-0.823633	0.281949	-1.146284
H452	H	-0.323633	0.781949	-0.646284
H453	H	-0.556587	0.229401	-0.374714
H454	H	-0.056587	0.729401	0.125286
O455	O	-0.689700	0.380895	-1.068429
O456	O	-0.189700	0.880895	-0.568429
C457	C	-0.664288	0.487463	-1.088456
C458	C	-0.164288	0.987463	-0.588456
C459	C	-0.701091	0.443372	-1.052519
C460	C	-0.201091	0.943372	-0.552519
H461	H	-0.673492	0.537985	-1.075617
H462	H	-0.173492	1.037985	-0.575617
H463	H	-0.622126	0.476504	-1.075553
H464	H	-0.122126	0.976504	-0.575553
H465	H	-0.670024	0.480536	-1.140845
H466	H	-0.170024	0.980536	-0.640845
H467	H	-0.695402	0.450274	-1.000123
H468	H	-0.195402	0.950274	-0.500123
H469	H	-0.743239	0.454341	-1.065475
H470	H	-0.243239	0.954341	-0.565475
O471	O	-0.689621	0.380759	-0.939479
O472	O	-0.189621	0.880759	-0.439479
C473	C	-0.619048	0.389194	-0.865533
C474	C	-0.119048	0.889194	-0.365533
C475	C	-0.655877	0.345141	-0.901549
C476	C	-0.155877	0.845141	-0.401549
H477	H	-0.591764	0.360415	-0.834848
H478	H	-0.091764	0.860415	-0.334848
H479	H	-0.595097	0.417805	-0.900114
H480	H	-0.095097	0.917805	-0.400114
H481	H	-0.643047	0.421983	-0.834939
H482	H	-0.143047	0.921983	-0.334939
H483	H	-0.631918	0.312314	-0.932144
H484	H	-0.131918	0.812314	-0.432144
H485	H	-0.679829	0.316574	-0.866934
H486	H	-0.179829	0.816574	-0.366934
O487	O	-0.747416	0.413287	-0.737816
O488	O	-0.247416	0.913287	-0.237816
C489	C	-0.739034	0.525253	-0.744717
C490	C	-0.239034	1.025253	-0.244717
C491	C	-0.743679	0.463129	-0.780679
C492	C	-0.243679	0.963129	-0.280679
H493	H	-0.736000	0.565565	-0.779356
H494	H	-0.236000	1.065565	-0.279356
H495	H	-0.774968	0.531985	-0.714086
H496	H	-0.274968	1.031985	-0.214086
H497	H	-0.702655	0.524191	-0.714079
H498	H	-0.202655	1.024191	-0.214079
H499	H	-0.780037	0.464147	-0.811351
H500	H	-0.280037	0.964147	-0.311351
H501	H	-0.707719	0.456421	-0.811271
H502	H	-0.207719	0.956421	-0.311271
O503	O	-0.689694	0.381031	-0.664795
O504	O	-0.189694	0.881031	-0.164795
C505	C	-0.664281	0.487597	-0.684827
C506	C	-0.164281	0.987597	-0.184827
C507	C	-0.701082	0.443509	-0.648885
C508	C	-0.201082	0.943509	-0.148885
H509	H	-0.673483	0.538120	-0.671988
H510	H	-0.173483	1.038120	-0.171988
H511	H	-0.622119	0.476638	-0.671929
H512	H	-0.122119	0.976638	-0.171929
H513	H	-0.670022	0.480670	-0.737215
H514	H	-0.170022	0.980670	-0.237215
H515	H	-0.695388	0.450412	-0.596489
H516	H	-0.195388	0.950412	-0.096489
H517	H	-0.743232	0.454479	-0.661835
H518	H	-0.243232	0.954479	-0.161835
H519	H	-0.694914	0.374685	-0.541017
H520	H	-0.194914	0.874685	-0.041017
