data_functionalizedCrystal
_audit_creation_method	'MofGen! by Chris Wilmer'
_symmetry_space_group_name_H-M	'P1'
_symmetry_Int_Tables_number	1
_symmetry_cell_setting	triclinic
loop_
_symmetry_equiv_pos_as_xyz
  x,y,z
_cell_length_a	12.837943
_cell_length_b	10.654550
_cell_length_c	9.130313
_cell_angle_alpha	89.997153
_cell_angle_beta	89.997304
_cell_angle_gamma	89.656935
loop_
_atom_site_label
_atom_site_type_symbol
_atom_site_fract_x
_atom_site_fract_y
_atom_site_fract_z
O1	O	-1.377802	-0.326748	0.121773
O2	O	-0.877802	0.173252	0.621773
O3	O	-1.075880	-0.310607	0.121782
O4	O	-0.575880	0.189393	0.621782
O5	O	-1.233783	-0.136696	0.121768
O6	O	-0.733783	0.363304	0.621768
O7	O	-1.219900	-0.500659	0.121787
O8	O	-0.719900	-0.000659	0.621787
O9	O	-1.233771	-0.136694	-0.121831
O10	O	-0.733771	0.363306	0.378169
O11	O	-1.075868	-0.310606	-0.121817
O12	O	-0.575868	0.189394	0.378183
O13	O	-1.377790	-0.326746	-0.121826
O14	O	-0.877790	0.173254	0.378174
Cu15	Cu	-1.226828	-0.318676	-0.144064
Cu16	Cu	-0.726828	0.181324	0.355936
Cu17	Cu	-1.226842	-0.318677	0.144020
Cu18	Cu	-0.726842	0.181323	0.644020
O19	O	-1.219888	-0.500658	-0.121812
O20	O	-0.719888	-0.000658	0.378188
C21	C	-1.232758	-0.089786	-0.000031
C22	C	-0.732758	0.410214	0.499969
C23	C	-1.229708	0.049990	-0.000028
C24	C	-0.729708	0.549990	0.499972
C25	C	-1.037215	-0.305153	-0.000017
C26	C	-0.537215	0.194847	0.499983
C27	C	-0.922021	-0.288891	-0.000014
C28	C	-0.422021	0.211109	0.499986
C29	C	-1.416456	-0.332200	-0.000024
C30	C	-0.916456	0.167800	0.499976
C31	C	-1.531650	-0.348462	-0.000018
C32	C	-1.031650	0.151538	0.499982
C33	C	-0.682468	-0.484395	-0.000025
C34	C	-0.182468	0.015605	0.499975
C35	C	-0.574232	-0.469121	-0.000023
C36	C	-0.074232	0.030879	0.499977
C37	C	-0.597312	-0.243070	-0.000019
C38	C	-0.097312	0.256930	0.499981
C39	C	-0.705547	-0.258344	-0.000021
C40	C	-0.205547	0.241656	0.499979
C41	C	-0.748121	-0.379010	-0.000021
C42	C	-0.248121	0.120990	0.499979
C43	C	-0.856359	-0.394284	-0.000013
C44	C	-0.356359	0.105716	0.499987
C45	C	-0.879436	-0.168233	-0.000019
C46	C	-0.379436	0.331767	0.499981
C47	C	-0.771201	-0.152959	-0.000017
C48	C	-0.271201	0.347041	0.499983
C49	C	-1.220913	-0.547568	-0.000010
C50	C	-0.720913	-0.047568	0.499990
C51	C	-1.223963	-0.687344	-0.000003
C52	C	-0.723963	-0.187344	0.499997
N53	N	-1.226826	-0.318675	-0.346687
N54	N	-0.726826	0.181325	0.153313
C55	C	-1.322678	0.119331	-0.000031
C56	C	-0.822678	0.619331	0.499969
C57	C	-1.319806	0.250665	-0.000013
C58	C	-0.819806	0.750665	0.499987
C59	C	-1.130985	0.243307	0.000003
C60	C	-0.630985	0.743307	0.500003
C61	C	-1.133858	0.111975	-0.000004
C62	C	-0.633858	0.611975	0.499996
C63	C	-1.290296	-0.402483	-0.423331
C64	C	-0.790296	0.097517	0.076669
C65	C	-1.290313	-0.402478	-0.576668
C66	C	-0.790313	0.097522	-0.076668
C67	C	-1.163380	-0.234852	-0.576703
C68	C	-0.663380	0.265148	-0.076703
C69	C	-1.163370	-0.234852	-0.423369
C70	C	-0.663370	0.265148	0.076631
N71	N	-1.226853	-0.318669	0.346642
N72	N	-0.726853	0.181331	0.846642
H73	H	-0.891020	-0.492536	-0.000016
H74	H	-0.391020	0.007464	0.499984
Br75	Br	-0.740253	-0.648151	0.000002
Br76	Br	-0.240253	-0.148151	0.500002
H77	H	-1.341966	-0.470737	-0.360901
H78	H	-0.841966	0.029263	0.139099
Br79	Br	-1.000910	0.327436	0.000041
Br80	Br	-0.500910	0.827436	0.500041
H81	H	-1.341998	-0.470722	-0.639065
H82	H	-0.841998	0.029278	-0.139065
Br83	Br	-1.077259	-0.121105	-0.680780
Br84	Br	-0.577259	0.378895	-0.180780
Br85	Br	-0.713412	0.010795	-0.000025
Br86	Br	-0.213412	0.510795	0.499975
Br87	Br	-1.077226	-0.121104	-0.319341
Br88	Br	-0.577226	0.378896	0.180659
Br89	Br	-1.445986	0.344765	-0.000007
Br90	Br	-0.945986	0.844765	0.499993
H91	H	-0.562629	-0.144828	-0.000139
H92	H	-0.062629	0.355172	0.499861
Br93	Br	-0.968543	-0.025201	0.000016
Br94	Br	-0.468543	0.474799	0.500016
Br95	Br	-1.452759	0.035212	-0.000065
Br96	Br	-0.952759	0.535212	0.499935
H97	H	-0.520780	-0.554937	-0.000030
H98	H	-0.020780	-0.054937	0.499970
H99	H	-1.058146	0.055516	0.000002
H100	H	-0.558146	0.555516	0.500002
