data_functionalizedCrystal
_audit_creation_method	'MofGen! by Chris Wilmer'
_symmetry_space_group_name_H-M	'P1'
_symmetry_Int_Tables_number	1
_symmetry_cell_setting	triclinic
loop_
_symmetry_equiv_pos_as_xyz
  x,y,z
_cell_length_a	17.077404
_cell_length_b	13.031981
_cell_length_c	17.077396
_cell_angle_alpha	82.787914
_cell_angle_beta	89.978556
_cell_angle_gamma	97.189606
loop_
_atom_site_label
_atom_site_type_symbol
_atom_site_fract_x
_atom_site_fract_y
_atom_site_fract_z
Zn1	Zn	1.160409	-0.416159	-0.404155
Zn2	Zn	1.493743	-0.082826	-0.070821
Zn3	Zn	1.827076	0.250508	0.262512
Zn4	Zn	1.143665	-0.590954	-0.256202
Zn5	Zn	1.476998	-0.257621	0.077132
Zn6	Zn	1.810331	0.075713	0.410465
Zn7	Zn	1.029138	-0.416190	-0.272895
Zn8	Zn	1.362472	-0.082856	0.060438
Zn9	Zn	1.695805	0.250477	0.393772
Zn10	Zn	1.012464	-0.590886	-0.387427
Zn11	Zn	1.345797	-0.257553	-0.054094
Zn12	Zn	1.679130	0.075781	0.279239
O13	O	1.086419	-0.503547	-0.330170
O14	O	1.419752	-0.170214	0.003164
O15	O	1.753086	0.163119	0.336497
O16	O	1.268034	-0.439362	-0.384542
O17	O	1.601367	-0.106028	-0.051209
O18	O	1.934700	0.227305	0.282124
O19	O	1.128443	-0.567812	-0.148565
O20	O	1.461776	-0.234479	0.184768
O21	O	1.795110	0.098854	0.518101
O22	O	1.060538	-0.269923	-0.304294
O23	O	1.393871	0.063411	0.029040
O24	O	1.727204	0.396744	0.362373
O25	O	1.255731	-0.567783	-0.275842
O26	O	1.589065	-0.234449	0.057491
O27	O	1.922398	0.098884	0.390825
O28	O	1.156982	-0.269900	-0.400729
O29	O	1.490315	0.063433	-0.067396
O30	O	1.823649	0.396767	0.265937
O31	O	1.044301	-0.439414	-0.160830
O32	O	1.377634	-0.106081	0.172504
O33	O	1.710968	0.227253	0.505837
O34	O	0.917081	-0.439348	-0.288074
O35	O	1.250414	-0.106015	0.045259
O36	O	1.583748	0.227319	0.378593
O37	O	1.032119	-0.567667	-0.499497
O38	O	1.365452	-0.234333	-0.166164
O39	O	1.698785	0.099000	0.167169
O40	O	0.904830	-0.567696	-0.372220
O41	O	1.238164	-0.234363	-0.038887
O42	O	1.571497	0.098970	0.294446
O43	O	1.140813	-0.439296	-0.511787
O44	O	1.474147	-0.105962	-0.178453
O45	O	1.807480	0.227371	0.154880
O46	O	1.112275	-0.737208	-0.259622
O47	O	1.445608	-0.403875	0.073711
O48	O	1.778941	-0.070542	0.407044
O49	O	1.015882	-0.737158	-0.356033
O50	O	1.349215	-0.403825	-0.022700
O51	O	1.682549	-0.070491	0.310633
C52	C	0.882474	-0.503519	-0.330144
C53	C	1.215807	-0.170186	0.003190
C54	C	1.549141	0.163148	0.336523
C55	C	0.795223	-0.503532	-0.330149
C56	C	1.128556	-0.170199	0.003184
C57	C	1.461889	0.163135	0.336518
C58	C	0.425796	-0.436827	-0.386865
C59	C	0.759129	-0.103494	-0.053531
C60	C	1.092462	0.229839	0.279802
C61	C	0.507777	-0.436820	-0.386857
C62	C	0.841110	-0.103487	-0.053523
C63	C	1.174443	0.229847	0.279810
C64	C	0.542370	-0.503569	-0.330187
C65	C	0.875704	-0.170236	0.003146
C66	C	1.209037	0.163097	0.336479
C67	C	0.494977	-0.570338	-0.273527
C68	C	0.828311	-0.237005	0.059806
C69	C	1.161644	0.096329	0.393140
C70	C	0.412997	-0.570350	-0.273539
C71	C	0.746331	-0.237017	0.059794
C72	C	1.079664	0.096317	0.393127
C73	C	0.665850	-0.570307	-0.273505
C74	C	0.999184	-0.236973	0.059828
C75	C	1.332517	0.096360	0.393162
C76	C	0.747836	-0.570293	-0.273492
C77	C	1.081170	-0.236960	0.059842
C78	C	1.414503	0.096373	0.393175
C79	C	0.760630	-0.436776	-0.386822
C80	C	1.093963	-0.103443	-0.053489
C81	C	1.427297	0.229890	0.279844
C82	C	0.678650	-0.436788	-0.386834
C83	C	1.011983	-0.103455	-0.053501
C84	C	1.345316	0.229878	0.279832
C85	C	0.631263	-0.503556	-0.330173
C86	C	0.964596	-0.170223	0.003160
C87	C	1.297929	0.163111	0.336494
C88	C	1.060473	-0.775108	-0.304218
C89	C	1.393806	-0.441774	0.029115
C90	C	1.727140	-0.108441	0.362448
C91	C	1.049445	-0.891282	-0.293143
C92	C	1.382778	-0.557949	0.040191
C93	C	1.716112	-0.224616	0.373524
C94	C	1.092216	-0.942982	-0.335966
C95	C	1.425550	-0.609649	-0.002633
C96	C	1.758883	-0.276315	0.330701
C97	C	1.080819	-1.063055	-0.324520
C98	C	1.414153	-0.729721	0.008814
C99	C	1.747486	-0.396388	0.342147
C100	C	1.291160	-0.503576	-0.330196
C101	C	1.624494	-0.170243	0.003137
C102	C	1.957827	0.163090	0.336471
C103	C	1.378409	-0.503589	-0.330207
C104	C	1.711742	-0.170255	0.003126
C105	C	2.045076	0.163078	0.336459
C106	C	1.086474	-0.503470	-0.534921
C107	C	1.419807	-0.170137	-0.201588
C108	C	1.753141	0.163196	0.131745
C109	C	1.086497	-0.503437	-0.622174
C110	C	1.419831	-0.170104	-0.288841
C111	C	1.753164	0.163229	0.044492
C112	C	1.112488	-0.230926	-0.356240
C113	C	1.445821	0.102407	-0.022906
C114	C	1.779154	0.435740	0.310427
C115	C	1.123596	-0.114752	-0.367349
C116	C	1.456930	0.218582	-0.034016
C117	C	1.790263	0.551915	0.299318
C118	C	1.143097	-0.436589	-0.669565
C119	C	1.476430	-0.103256	-0.336232
C120	C	1.809764	0.230078	-0.002899
C121	C	1.143110	-0.436554	-0.751549
C122	C	1.476443	-0.103221	-0.418216
C123	C	1.809776	0.230112	-0.084883
C124	C	1.086526	-0.503374	-0.786140
C125	C	1.419859	-0.170041	-0.452807
C126	C	1.753192	0.163293	-0.119473
C127	C	1.029920	-0.570225	-0.738743
C128	C	1.363253	-0.236892	-0.405410
C129	C	1.696587	0.096442	-0.072076
C130	C	1.029904	-0.570254	-0.656761
C131	C	1.363238	-0.236921	-0.323428
C132	C	1.696571	0.096413	0.009906
C133	C	1.029958	-0.570162	-0.909619
C134	C	1.363291	-0.236829	-0.576286
C135	C	1.696624	0.096504	-0.242952
C136	C	1.029974	-0.570135	-0.991606
C137	C	1.363307	-0.236802	-0.658273
C138	C	1.696640	0.096531	-0.324940
C139	C	1.143163	-0.436463	-1.004407
C140	C	1.476496	-0.103129	-0.671074
C141	C	1.809830	0.230204	-0.337741
C142	C	1.143147	-0.436491	-0.922425
C143	C	1.476481	-0.103158	-0.589092
C144	C	1.809814	0.230175	-0.255759
C145	C	1.086542	-0.503344	-0.875034
C146	C	1.419876	-0.170011	-0.541701
C147	C	1.753209	0.163322	-0.208367
C148	C	1.086417	-0.503549	-0.126222
C149	C	1.419750	-0.170215	0.207112
C150	C	1.753083	0.163118	0.540445
C151	C	1.086574	-0.503287	-0.038997
C152	C	1.419907	-0.169954	0.294336
C153	C	1.753240	0.163380	0.627669
H154	H	0.397637	-0.382466	-0.433007
H155	H	0.730970	-0.049132	-0.099674
H156	H	1.064303	0.284201	0.233659
H157	H	0.627269	-0.624681	-0.227368
H158	H	0.960602	-0.291347	0.105965
H159	H	1.293936	0.041986	0.439299
Cl160	Cl	1.214239	-0.352587	-0.626088
Cl161	Cl	1.547573	-0.019254	-0.292755
Cl162	Cl	1.880906	0.314079	0.040579
Cl163	Cl	1.193165	-1.045860	-0.437043
Cl164	Cl	1.526498	-0.712527	-0.103710
Cl165	Cl	1.859831	-0.379194	0.229623
H166	H	0.983808	-0.624678	-0.618177
H167	H	1.317141	-0.291345	-0.284843
H168	H	1.650475	0.041988	0.048490
Cl169	Cl	0.538466	-0.654257	-0.202288
Cl170	Cl	0.871799	-0.320924	0.131045
Cl171	Cl	1.205133	0.012410	0.464378
H172	H	1.189201	-0.382122	-0.790132
H173	H	1.522534	-0.048789	-0.456799
H174	H	1.855867	0.284545	-0.123465
H175	H	0.775999	-0.624650	-0.227349
H176	H	1.109333	-0.291316	0.105985
H177	H	1.442666	0.042017	0.439318
Cl178	Cl	0.958831	-0.654127	-1.035092
Cl179	Cl	1.292164	-0.320793	-0.701759
Cl180	Cl	1.625497	0.012540	-0.368425
H181	H	0.983853	-0.624585	-0.871036
H182	H	1.317186	-0.291251	-0.537703
H183	H	1.650520	0.042082	-0.204370
H184	H	0.983846	-0.624627	-0.766913
H185	H	1.317179	-0.291294	-0.433580
H186	H	1.650512	0.042040	-0.100247
Cl187	Cl	0.979876	-0.960180	-0.223457
Cl188	Cl	1.313210	-0.626847	0.109877
Cl189	Cl	1.646543	-0.293514	0.443210
Cl190	Cl	1.214324	-0.352420	-1.063984
Cl191	Cl	1.547658	-0.019087	-0.730651
Cl192	Cl	1.880991	0.314246	-0.397318
Cl193	Cl	0.567345	-0.352892	-0.458090
Cl194	Cl	0.900678	-0.019559	-0.124756
Cl195	Cl	1.234012	0.313774	0.208577
H196	H	0.374415	-0.624716	-0.227404
H197	H	0.707749	-0.291383	0.105929
H198	H	1.041082	0.041950	0.439262
H199	H	0.650487	-0.382430	-0.432977
H200	H	0.983820	-0.049097	-0.099643
H201	H	1.317154	0.284236	0.233690
Cl202	Cl	0.820202	-0.352834	-0.458050
Cl203	Cl	1.153536	-0.019500	-0.124716
Cl204	Cl	1.486869	0.313833	0.208617
H205	H	1.137269	-0.898353	-0.381106
H206	H	1.470602	-0.565020	-0.047773
H207	H	1.803936	-0.231687	0.285561
H208	H	1.189227	-0.382087	-0.894264
H209	H	1.522560	-0.048754	-0.560931
H210	H	1.855894	0.284580	-0.227597
Cl211	Cl	1.011247	-1.131949	-0.254830
Cl212	Cl	1.344581	-0.798615	0.078503
Cl213	Cl	1.677914	-0.465282	0.411836
