data_functionalizedCrystal
_audit_creation_method	'MofGen! by Chris Wilmer'
_symmetry_space_group_name_H-M	'P1'
_symmetry_Int_Tables_number	1
_symmetry_cell_setting	triclinic
loop_
_symmetry_equiv_pos_as_xyz
  x,y,z
_cell_length_a	17.019238
_cell_length_b	14.044220
_cell_length_c	13.101039
_cell_angle_alpha	93.667477
_cell_angle_beta	97.226290
_cell_angle_gamma	91.726076
loop_
_atom_site_label
_atom_site_type_symbol
_atom_site_fract_x
_atom_site_fract_y
_atom_site_fract_z
O1	O	1.063536	-0.109605	0.179113
O2	O	0.834007	-0.126277	0.158851
O3	O	0.945326	0.020019	0.168668
O4	O	0.952217	-0.255901	0.169296
O5	O	0.937340	0.009505	-0.002466
O6	O	0.826021	-0.136791	-0.012283
O7	O	1.055550	-0.120119	0.007979
Zn8	Zn	0.939518	-0.130124	-0.029323
Zn9	Zn	0.950039	-0.116272	0.196153
O10	O	0.944231	-0.266415	-0.001838
C11	C	0.800462	-0.131115	0.070675
C12	C	0.712405	-0.129852	0.062902
C13	C	0.938317	0.050056	0.082834
C14	C	0.929320	0.155219	0.082039
C15	C	1.089095	-0.115282	0.096157
C16	C	1.177152	-0.116543	0.103938
C17	C	1.675396	-0.123521	0.152539
C18	C	1.592658	-0.122319	0.145239
C19	C	1.546931	-0.127442	0.048303
C20	C	1.583946	-0.133777	-0.041341
C21	C	1.666682	-0.134986	-0.034041
C22	C	1.296903	-0.124087	0.021594
C23	C	1.214162	-0.122875	0.014301
C24	C	1.222879	-0.111419	0.200882
C25	C	1.305617	-0.112622	0.208173
C26	C	1.342624	-0.118962	0.118530
C27	C	1.462360	-0.126211	0.040839
C28	C	1.427194	-0.120199	0.125994
C29	C	0.951241	-0.296452	0.083998
C30	C	0.960238	-0.401615	0.084801
N31	N	0.932343	-0.139578	-0.183204
C32	C	0.912873	0.347768	0.080602
C33	C	0.976681	0.405842	0.086237
C34	C	0.967530	0.512983	0.085438
C35	C	0.922023	0.240617	0.081401
C36	C	0.922582	-0.152448	-0.393108
C37	C	0.966979	-0.093944	-0.440068
C38	C	0.961548	-0.101105	-0.556866
C39	C	0.928012	-0.145288	-0.276300
N40	N	0.957220	-0.106811	0.350035
H41	H	1.712621	-0.119346	0.231475
H42	H	0.880496	-0.207910	-0.440616
H43	H	1.464428	-0.116034	0.204920
H44	H	1.009068	-0.038480	-0.392554
H45	H	1.562529	-0.117164	0.218231
O46	O	1.336823	-0.130924	-0.075081
H47	H	1.371789	-0.196339	-0.076428
O48	O	1.354937	-0.107101	0.312726
H49	H	1.315301	-0.102503	0.373832
H50	H	0.851376	0.378513	0.075175
H51	H	1.192738	-0.106259	0.273864
H52	H	1.176932	-0.127074	-0.064641
H53	H	1.546709	-0.137954	-0.120269
H54	H	1.038186	0.375100	0.091736
O55	O	1.706603	-0.141825	-0.130721
H56	H	1.691153	-0.079758	-0.176640
O57	O	1.412808	-0.132254	-0.063567
H58	H	1.377185	-0.067600	-0.071387
