data_functionalizedCrystal
_audit_creation_method	'MofGen! by Chris Wilmer'
_symmetry_space_group_name_H-M	'P1'
_symmetry_Int_Tables_number	1
_symmetry_cell_setting	triclinic
loop_
_symmetry_equiv_pos_as_xyz
  x,y,z
_cell_length_a	34.408637
_cell_length_b	34.407814
_cell_length_c	34.404193
_cell_angle_alpha	60.004510
_cell_angle_beta	60.009006
_cell_angle_gamma	59.994604
loop_
_atom_site_label
_atom_site_type_symbol
_atom_site_fract_x
_atom_site_fract_y
_atom_site_fract_z
O1	O	0.053973	-0.567860	0.474801
O2	O	0.553973	-0.067860	0.974801
O3	O	0.020377	-0.442124	0.382567
O4	O	0.520377	0.057876	0.882567
O5	O	0.100004	-0.521670	0.382483
O6	O	0.600004	-0.021670	0.882483
O7	O	-0.025653	-0.488314	0.474886
O8	O	0.474347	0.011686	0.974886
O9	O	0.126426	-0.495253	0.408816
O10	O	0.626426	0.004747	0.908816
O11	O	0.046800	-0.415707	0.408900
O12	O	0.546800	0.084293	0.908900
O13	O	0.080396	-0.541443	0.501134
O14	O	0.580396	-0.041443	1.001134
Zn15	Zn	0.067793	-0.474381	0.459198
Zn16	Zn	0.567793	0.025619	0.959198
Zn17	Zn	0.032980	-0.509186	0.424503
Zn18	Zn	0.532980	-0.009186	0.924503
O19	O	0.000769	-0.461897	0.501219
O20	O	0.500769	0.038103	1.001219
N21	N	0.091552	-0.450631	0.482879
N22	N	0.591552	0.049369	0.982879
N23	N	0.009225	-0.532940	0.400823
N24	N	0.509225	-0.032940	0.900823
C25	C	0.142848	-0.268847	0.534081
C26	C	0.642848	0.231153	1.034081
C27	C	0.142979	-0.399386	0.664559
C28	C	0.642979	0.100614	1.164559
C29	C	0.142862	-0.399365	0.534081
C30	C	0.642862	0.100635	1.034081
C31	C	0.273409	-0.399338	0.533986
C32	C	0.773409	0.100662	1.033986
C33	C	0.157225	-0.311914	0.548422
C34	C	0.657225	0.188086	1.048422
C35	C	0.157300	-0.385019	0.621491
C36	C	0.657300	0.114981	1.121491
C37	C	0.230339	-0.384991	0.548370
C38	C	0.730339	0.115009	1.048370
C39	C	0.157235	-0.385007	0.548422
C40	C	0.657235	0.114993	1.048422
C41	C	0.124548	-0.214028	0.515827
C42	C	0.624548	0.285972	1.015827
C43	C	0.124571	-0.417639	0.515827
C44	C	0.624571	0.082361	1.015827
C45	C	0.175526	-0.366733	0.566676
C46	C	0.675526	0.133267	1.066676
C47	C	0.353121	-0.385580	0.491988
C48	C	0.853121	0.114420	0.991988
C49	C	0.402952	-0.402180	0.475348
C50	C	0.902952	0.097820	0.975348
C51	C	0.402981	-0.482812	0.506096
C52	C	0.902981	0.017188	1.006096
C53	C	0.353151	-0.466211	0.522737
C54	C	0.853151	0.033789	1.022737
C55	C	0.136544	-0.189099	0.466839
C56	C	0.636544	0.310901	0.966839
C57	C	0.119905	-0.139265	0.450247
C58	C	0.619905	0.360735	0.950247
C59	C	0.079280	-0.139291	0.531632
C60	C	0.579280	0.360709	1.031632
C61	C	0.095918	-0.189125	0.548224
C62	C	0.595918	0.310875	1.048224
C63	C	0.075577	-0.405615	0.527900
C64	C	0.575577	0.094385	1.027900
C65	C	0.058953	-0.422228	0.511301
C66	C	0.558953	0.077772	1.011301
C67	C	0.140315	-0.462889	0.470566
C68	C	0.640315	0.037111	0.970566
C69	C	0.156941	-0.446276	0.487159
C70	C	0.656941	0.053724	0.987159
C71	C	0.075772	-0.405653	0.744326
C72	C	0.575772	0.094347	1.244326
C73	C	0.059206	-0.422280	0.794159
C74	C	0.559206	0.077720	1.294159
C75	C	0.140607	-0.462951	0.794094
C76	C	0.640607	0.037049	1.294094
C77	C	0.157172	-0.446325	0.744260
C78	C	0.657172	0.053675	1.244260
C79	C	0.124753	-0.417674	0.719377
C80	C	0.624753	0.082326	1.219377
C81	C	0.328223	-0.417595	0.515681
C82	C	0.828223	0.082405	1.015681
C83	C	-0.172390	-0.583988	0.349141
C84	C	0.327610	-0.083988	0.849141
C85	C	-0.041751	-0.584138	0.218783
C86	C	0.458249	-0.084138	0.718783
C87	C	-0.041941	-0.584130	0.349402
C88	C	0.458059	-0.084130	0.849402
C89	C	-0.041957	-0.714607	0.349338
C90	C	0.458043	-0.214607	0.849338
C91	C	-0.129326	-0.598388	0.334853
C92	C	0.370674	-0.098388	0.834853
C93	C	-0.056165	-0.598473	0.261852
C94	C	0.443835	-0.098473	0.761852
C95	C	-0.056282	-0.671535	0.334962
C96	C	0.443718	-0.171535	0.834962
C97	C	-0.056272	-0.598469	0.334999
C98	C	0.443728	-0.098469	0.834999
C99	C	-0.227205	-0.565659	0.367327
C100	C	0.272795	-0.065659	0.867327
C101	C	-0.023703	-0.565882	0.367734
C102	C	0.476297	-0.065882	0.867734
C103	C	-0.074511	-0.616717	0.316667
C104	C	0.425489	-0.116717	0.816667
C105	C	-0.055754	-0.794298	0.391257
C106	C	0.444246	-0.294298	0.891257
C107	C	-0.039181	-0.844132	0.407888
C108	C	0.460819	-0.344132	0.907888
C109	C	0.041447	-0.844215	0.377269
C110	C	0.541447	-0.344215	0.877269
C111	C	0.024873	-0.794381	0.360637
C112	C	0.524873	-0.294381	0.860637
C113	C	-0.252183	-0.577666	0.416302
C114	C	0.247817	-0.077666	0.916302
C115	C	-0.302014	-0.561001	0.432833
C116	C	0.197986	-0.061001	0.932833
C117	C	-0.301886	-0.520329	0.351410
C118	C	0.198114	-0.020329	0.851410
C119	C	-0.252055	-0.536994	0.334880
C120	C	0.247945	-0.036994	0.834880
C121	C	-0.035709	-0.516892	0.355682
C122	C	0.464291	-0.016892	0.855682
C123	C	-0.019129	-0.500308	0.372353
C124	C	0.480871	-0.000308	0.872353
C125	C	0.021465	-0.581700	0.413115
C126	C	0.521465	-0.081700	0.913115
C127	C	0.004884	-0.598286	0.396450
C128	C	0.504884	-0.098286	0.896450
C129	C	-0.035389	-0.516907	0.139026
C130	C	0.464611	-0.016907	0.639026
C131	C	-0.018707	-0.500324	0.089193
C132	C	0.481293	-0.000324	0.589193
C133	C	0.021949	-0.581721	0.089240
C134	C	0.521949	-0.081721	0.589240
C135	C	0.005268	-0.598303	0.139074
C136	C	0.505268	-0.098303	0.639074
C137	C	-0.023402	-0.565894	0.163965
C138	C	0.476598	-0.065894	0.663965
C139	C	-0.023728	-0.769425	0.367633
C140	C	0.476272	-0.269425	0.867633
N141	N	0.427173	-0.450553	0.482630
N142	N	0.927173	0.049447	0.982630
O143	O	0.589997	-0.458460	0.365361
O144	O	1.089997	0.041540	0.865361
O145	O	0.590185	-0.550997	0.490963
O146	O	1.090185	-0.050997	0.990963
O147	O	0.590104	-0.550786	0.411309
O148	O	1.090104	-0.050786	0.911309
O149	O	0.590077	-0.458671	0.445016
O150	O	1.090077	0.041329	0.945016
O151	O	0.510940	-0.524462	0.437777
O152	O	1.010940	-0.024462	0.937777
O153	O	0.511020	-0.524674	0.517432
O154	O	1.011020	-0.024674	1.017432
O155	O	0.510832	-0.432136	0.391830
O156	O	1.010832	0.067864	0.891830
Zn157	Zn	0.498357	-0.474225	0.458833
Zn158	Zn	0.998357	0.025775	0.958833
Zn159	Zn	0.602660	-0.508908	0.423960
Zn160	Zn	1.102660	-0.008908	0.923960
O161	O	0.510913	-0.432348	0.471484
O162	O	1.010913	0.067652	0.971484
N163	N	0.673844	-0.532580	0.400158
N164	N	1.173844	-0.032580	0.900158
N165	N	0.091520	-0.115070	0.482873
N166	N	0.591520	0.384930	0.982873
O167	O	-0.025663	0.047841	0.474857
O168	O	0.474337	0.547841	0.974857
O169	O	0.099940	0.047877	0.382299
O170	O	0.599940	0.547877	0.882299
O171	O	0.020247	0.047844	0.382560
O172	O	0.520247	0.547844	0.882560
O173	O	0.054030	0.047874	0.474596
O174	O	0.554030	0.547874	0.974596
O175	O	0.046674	-0.031326	0.408942
O176	O	0.546674	0.468674	0.908942
O177	O	0.126367	-0.031293	0.408680
O178	O	0.626367	0.468707	0.908680
O179	O	0.000764	-0.031329	0.501238
O180	O	0.500764	0.468671	1.001238
Zn181	Zn	0.067761	-0.043881	0.459148
Zn182	Zn	0.567761	0.456119	0.959148
Zn183	Zn	0.032943	0.060429	0.424389
Zn184	Zn	0.532943	0.560429	0.924389
O185	O	0.080457	-0.031296	0.500977
O186	O	0.580457	0.468704	1.000977
N187	N	0.009178	0.131618	0.400665
N188	N	0.509178	0.631618	0.900665
N189	N	0.091852	-0.450680	0.818332
N190	N	0.591852	0.049320	1.318332
O191	O	0.083862	-0.567845	0.981235
O192	O	0.583862	-0.067845	1.481235
O193	O	-0.008657	-0.442198	0.981276
O194	O	0.491343	0.057802	1.481276
O195	O	-0.008441	-0.521875	0.981252
O196	O	0.491559	-0.021875	1.481252
O197	O	0.083646	-0.488168	0.981258
O198	O	0.583646	0.011832	1.481258
O199	O	0.017919	-0.495468	0.902085
O200	O	0.517919	0.004532	1.402085
O201	O	0.017703	-0.415791	0.902109
O202	O	0.517703	0.084209	1.402109
O203	O	0.110222	-0.541438	0.902067
O204	O	0.610222	-0.041438	1.402067
Zn205	Zn	0.068148	-0.474422	0.889518
Zn206	Zn	0.568148	0.025578	1.389518
Zn207	Zn	0.033417	-0.509214	0.993825
Zn208	Zn	0.533417	-0.009214	1.493825
O209	O	0.110006	-0.461761	0.902091
O210	O	0.610006	0.038239	1.402091
N211	N	0.009712	-0.532961	1.065011
N212	N	0.509712	-0.032961	1.565011
C213	C	0.030439	-0.413071	0.383027
C214	C	0.530439	0.086929	0.883027
C215	C	0.129046	-0.511580	0.382922
C216	C	0.629046	-0.011580	0.882922
C217	C	0.070334	-0.570496	0.500675
C218	C	0.570334	-0.070496	1.000675
C219	C	-0.028274	-0.471987	0.500780
C220	C	0.471726	0.028013	1.000780
C221	C	0.550625	-0.550579	0.520021
C222	C	1.050625	-0.050579	1.020021
C223	C	0.550527	-0.550317	0.421379
C224	C	1.050527	-0.050317	0.921379
C225	C	0.550389	-0.432554	0.362773
C226	C	1.050389	0.067446	0.862773
C227	C	0.550491	-0.432816	0.461414
C228	C	1.050491	0.067184	0.961414
C229	C	0.128944	0.008394	0.382712
C230	C	0.628944	0.508394	0.882712
C231	C	0.030287	0.008256	0.383068
C232	C	0.530287	0.508256	0.883068
C233	C	-0.028273	0.008252	0.500793
C234	C	0.471727	0.508252	1.000793
C235	C	0.070417	0.008292	0.500470
C236	C	0.570417	0.508292	1.000470
C237	C	-0.008218	-0.413165	0.941698
C238	C	0.491782	0.086835	1.441698
C239	C	-0.007945	-0.511830	0.941653
C240	C	0.492055	-0.011830	1.441653
C241	C	0.109783	-0.570471	0.941646
C242	C	0.609783	-0.070471	1.441646
C243	C	0.109516	-0.471800	0.941673
C244	C	0.609516	0.028200	1.441673
H245	H	0.049370	-0.382321	0.724071
H246	H	0.549370	0.117679	1.224071
H247	H	0.023050	0.008252	0.354152
H248	H	0.523050	0.508252	0.854152
C249	C	0.020930	-0.364889	0.344411
C250	C	0.520930	0.135111	0.844411
C251	C	0.053372	-0.343917	0.331706
C252	C	0.553372	0.156083	0.831706
C253	C	0.044623	-0.299529	0.296139
C254	C	0.544623	0.200471	0.796139
H255	H	0.024489	-0.368955	0.317322
H256	H	0.524489	0.131045	0.817322
H257	H	-0.010573	-0.344933	0.355997
H258	H	0.489427	0.155067	0.855997
H259	H	0.084867	-0.363868	0.320119
H260	H	0.584867	0.136132	0.820119
H261	H	0.049819	-0.339839	0.358784
H262	H	0.549819	0.160161	0.858784
H263	H	0.013120	-0.279573	0.307725
H264	H	0.513120	0.220427	0.807725
H265	H	0.048181	-0.303600	0.269053
H266	H	0.548181	0.196400	0.769053
H267	H	0.066630	-0.285292	0.287518
H268	H	0.566630	0.214708	0.787518
H269	H	0.550485	-0.403881	0.468626
H270	H	1.050485	0.096119	0.968626
C271	C	-0.076370	-0.462456	0.539488
C272	C	0.423630	0.037544	1.039488
C273	C	-0.084775	-0.424204	0.550377
C274	C	0.415225	0.075796	1.050377
C275	C	-0.129073	-0.415414	0.586038
C276	C	0.370927	0.084586	1.086038
H277	H	-0.100634	-0.454899	0.528618
H278	H	0.399366	0.045101	1.028618
H279	H	-0.076451	-0.489999	0.567167
H280	H	0.423549	0.010001	1.067167
H281	H	-0.084699	-0.396666	0.522704
H282	H	0.415301	0.103334	1.022704
H283	H	-0.060523	-0.431750	0.561255
H284	H	0.439477	0.068250	1.061255
H285	H	-0.129154	-0.442957	0.613717
H286	H	0.370846	0.057043	1.113717
H287	H	-0.153333	-0.407859	0.575164
H288	H	0.346667	0.092141	1.075164
H289	H	-0.134780	-0.389462	0.593434
H290	H	0.365220	0.110538	1.093434
H291	H	0.550674	-0.579628	0.556096
H292	H	1.050674	-0.079628	1.056096
C293	C	-0.076371	0.008317	0.539559
C294	C	0.423629	0.508317	1.039559
C295	C	-0.097241	0.049046	0.552219
C296	C	0.402759	0.549046	1.052219
C297	C	-0.141546	0.049119	0.587934
C298	C	0.358454	0.549119	1.087934
H299	H	-0.096443	0.008332	0.528135
H300	H	0.403557	0.508332	1.028135
H301	H	-0.072193	-0.019275	0.566629
H302	H	0.427807	0.480725	1.066629
H303	H	-0.101421	0.076630	0.525155
H304	H	0.398579	0.576630	1.025155
H305	H	-0.077183	0.049039	0.563652
H306	H	0.422817	0.549039	1.063652
H307	H	-0.137368	0.021527	0.615004
H308	H	0.362632	0.521527	1.115004
H309	H	-0.161613	0.049133	0.576506
H310	H	0.338387	0.549133	1.076506
H311	H	-0.155710	0.076750	0.596531
H312	H	0.344290	0.576750	1.096531
C313	C	0.550517	-0.588835	0.411682
C314	C	1.050517	-0.088835	0.911682
C315	C	0.550446	-0.571567	0.365227
C316	C	1.050446	-0.071567	0.865227
C317	C	0.550430	-0.607033	0.356280
C318	C	1.050430	-0.107033	0.856280
H319	H	0.578139	-0.615912	0.415163
H320	H	1.078139	-0.115912	0.915163
H321	H	0.522923	-0.597525	0.433641
H322	H	1.022923	-0.097525	0.933641
H323	H	0.578037	-0.562883	0.343274
H324	H	1.078037	-0.062883	0.843274
H325	H	0.522825	-0.544494	0.361735
H326	H	1.022825	-0.044494	0.861735
H327	H	0.522836	-0.615723	0.378239
H328	H	1.022836	-0.115723	0.878239
H329	H	0.578053	-0.634108	0.359764
H330	H	1.078053	-0.134108	0.859764
H331	H	0.550377	-0.595320	0.324762
H332	H	1.050377	-0.095320	0.824762
H333	H	0.550329	-0.403500	0.326702
H334	H	1.050329	0.096500	0.826702
C335	C	0.177128	-0.520970	0.344160
C336	C	0.677128	-0.020970	0.844160
C337	C	0.177106	-0.480295	0.303452
C338	C	0.677106	0.019705	0.803452
C339	C	0.221388	-0.488929	0.267733
C340	C	0.721388	0.011071	0.767733
H341	H	0.201386	-0.528480	0.355012
H342	H	0.701386	-0.028480	0.855012
H343	H	0.182918	-0.546905	0.336685
H344	H	0.682918	-0.046905	0.836685
H345	H	0.171321	-0.454367	0.310926
H346	H	0.671321	0.045633	0.810926
H347	H	0.152857	-0.472778	0.292585
H348	H	0.652857	0.027222	0.792585
H349	H	0.227178	-0.514865	0.260258
H350	H	0.727178	-0.014865	0.760258
H351	H	0.245643	-0.496440	0.278590
H352	H	0.745643	0.003560	0.778590
H353	H	0.221378	-0.461335	0.240107
H354	H	0.721378	0.038665	0.740107
C355	C	0.176894	0.008769	0.343799
C356	C	0.676894	0.508769	0.843799
C357	C	0.170359	0.049579	0.304119
C358	C	0.670359	0.549579	0.804119
C359	C	0.214519	0.049933	0.268262
C360	C	0.714519	0.549933	0.768262
H361	H	0.196930	0.008863	0.355186
H362	H	0.696930	0.508863	0.855186
H363	H	0.191244	-0.018767	0.334998
H364	H	0.691244	0.481233	0.834998
H365	H	0.156016	0.077107	0.312920
H366	H	0.656016	0.577107	0.812920
H367	H	0.150331	0.049494	0.292718
H368	H	0.650331	0.549494	0.792718
H369	H	0.228869	0.022398	0.259461
H370	H	0.728869	0.522398	0.759461
H371	H	0.234552	0.050026	0.279654
H372	H	0.734552	0.550026	0.779654
H373	H	0.210091	0.077620	0.241333
H374	H	0.710091	0.577620	0.741333
C375	C	0.080164	0.008267	0.538978
C376	C	0.580164	0.508267	1.038978
C377	C	0.126639	0.008268	0.521700
C378	C	0.626639	0.508268	1.021700
C379	C	0.135638	0.008235	0.557163
C380	C	0.635638	0.508235	1.057163
H381	H	0.058250	0.035863	0.547683
H382	H	0.558250	0.535863	1.047683
H383	H	0.076663	-0.019358	0.566048
H384	H	0.576663	0.480642	1.066048
H385	H	0.130135	0.035890	0.494639
H386	H	0.630135	0.535890	0.994639
H387	H	0.148563	-0.019326	0.512999
H388	H	0.648563	0.480674	1.012999
H389	H	0.132137	-0.019390	0.584233
H390	H	0.632137	0.480610	1.084233
H391	H	0.113721	0.035831	0.565866
H392	H	0.613721	0.535831	1.065866
H393	H	0.167173	0.008231	0.545447
H394	H	0.667173	0.508231	1.045447
H395	H	-0.037264	-0.377079	0.941710
H396	H	0.462736	0.122921	1.441710
C397	C	-0.046437	-0.521510	0.941581
C398	C	0.453563	-0.021510	1.441581
C399	C	-0.029167	-0.567976	0.941541
C400	C	0.470833	-0.067976	1.441541
C401	C	-0.064609	-0.576908	0.941469
C402	C	0.435391	-0.076908	1.441469
H403	H	-0.073535	-0.518003	0.969175
H404	H	0.426465	-0.018003	1.469175
H405	H	-0.055091	-0.499560	0.913957
H406	H	0.444909	0.000440	1.413957
H407	H	-0.020519	-0.589920	0.969162
H408	H	0.479481	-0.089920	1.469162
H409	H	-0.002073	-0.571494	0.913949
H410	H	0.497927	-0.071494	1.413949
H411	H	-0.073263	-0.554957	0.913845
H412	H	0.426737	-0.054957	1.413845
H413	H	-0.091705	-0.573398	0.969064
H414	H	0.408295	-0.073398	1.469064
H415	H	-0.052895	-0.608433	0.941438
H416	H	0.447105	-0.108433	1.441438
C417	C	0.148448	-0.618624	0.941651
C418	C	0.648448	-0.118624	1.441651
C419	C	0.131388	-0.648009	0.941653
C420	C	0.631388	-0.148009	1.441653
C421	C	0.166991	-0.692372	0.941663
C422	C	0.666991	-0.192372	1.441663
H423	H	0.175511	-0.614515	0.914048
H424	H	0.675511	-0.114515	1.414048
H425	H	0.157103	-0.632897	0.969266
H426	H	0.657103	-0.132897	1.469266
H427	H	0.122740	-0.633738	0.914040
H428	H	0.622740	-0.133738	1.414040
H429	H	0.104331	-0.652131	0.969253
H430	H	0.604331	-0.152131	1.469253
H431	H	0.175646	-0.706645	0.969278
H432	H	0.675646	-0.206645	1.469278
H433	H	0.194052	-0.688259	0.914060
H434	H	0.694052	-0.188259	1.414060
H435	H	0.155420	-0.712317	0.941668
H436	H	0.655420	-0.212317	1.441668
H437	H	0.138447	-0.464586	0.941669
H438	H	0.638447	0.035414	1.441669
H439	H	0.019320	-0.412483	0.814467
H440	H	0.519320	0.087517	1.314467
H441	H	0.159856	-0.209371	0.440456
H442	H	0.659856	0.290629	0.940456
C443	C	0.175880	-0.494069	0.821024
C444	C	0.675880	0.005931	1.321024
C445	C	0.222322	-0.501048	0.788510
C446	C	0.722322	-0.001048	1.288510
C447	C	0.254827	-0.529722	0.813300
C448	C	0.754827	-0.029722	1.313300
H449	H	0.171172	-0.478900	0.840468
H450	H	0.671172	0.021100	1.340468
H451	H	0.171138	-0.523960	0.840448
H452	H	0.671138	-0.023960	1.340448
H453	H	0.227062	-0.471162	0.769094
H454	H	0.727062	0.028838	1.269094
H455	H	0.227045	-0.516221	0.769065
H456	H	0.727045	-0.016221	1.269065
H457	H	0.250085	-0.559613	0.832724
H458	H	0.750085	-0.059613	1.332724
H459	H	0.250114	-0.514551	0.832743
H460	H	0.750114	-0.014551	1.332743
H461	H	0.286341	-0.534464	0.791243
H462	H	0.786341	-0.034464	1.291243
H463	H	0.049217	-0.382297	0.551240
H464	H	0.549217	0.117703	1.051240
C465	C	0.210337	-0.459345	0.717088
C466	C	0.710337	0.040655	1.217088
C467	C	0.217909	-0.438665	0.668121
C468	C	0.717909	0.061335	1.168121
C469	C	0.266877	-0.450655	0.643077
C470	C	0.766877	0.049345	1.143077
H471	H	0.224395	-0.447886	0.725184
H472	H	0.724395	0.052114	1.225184
H473	H	0.224360	-0.492969	0.725215
H474	H	0.724360	0.007031	1.225215
H475	H	0.203892	-0.405048	0.659998
H476	H	0.703892	0.094952	1.159998
H477	H	0.203862	-0.450122	0.660011
H478	H	0.703862	0.049878	1.160011
H479	H	0.280900	-0.484279	0.651204
H480	H	0.780900	0.015721	1.151204
H481	H	0.280930	-0.439194	0.651177
H482	H	0.780930	0.060806	1.151177
H483	H	0.272021	-0.436629	0.609851
H484	H	0.772021	0.063371	1.109851
C485	C	0.005740	-0.409148	0.524482
C486	C	0.505740	0.090852	1.024482
C487	C	-0.019051	-0.380530	0.553156
C488	C	0.480949	0.119470	1.053156
C489	C	-0.068070	-0.368479	0.565315
C490	C	0.431930	0.131521	1.065315
H491	H	-0.002528	-0.392210	0.496359
H492	H	0.497472	0.107790	0.996359
H493	H	-0.002428	-0.437328	0.541412
H494	H	0.497572	0.062672	1.041412
H495	H	-0.010886	-0.352354	0.536227
H496	H	0.489114	0.147646	1.036227
H497	H	-0.010797	-0.397459	0.581286
H498	H	0.489203	0.102541	1.081286
H499	H	-0.076238	-0.396658	0.582245
H500	H	0.423762	0.103342	1.082245
H501	H	-0.076333	-0.351542	0.537190
H502	H	0.423667	0.148458	1.037190
H503	H	-0.084897	-0.349064	0.584775
H504	H	0.415103	0.150936	1.084775
H505	H	0.166679	-0.486211	0.447227
H506	H	0.666679	0.013789	0.947227
H507	H	0.077514	-0.606615	0.529644
H508	H	0.577514	-0.106615	1.029644
H509	H	0.332881	-0.492283	0.542031
H510	H	0.832881	0.007717	1.042031
C511	C	0.210154	-0.459393	0.474013
C512	C	0.710154	0.040607	0.974013
C513	C	0.234943	-0.488034	0.445361
C514	C	0.734943	0.011966	0.945361
C515	C	0.283963	-0.500129	0.433243
C516	C	0.783963	-0.000129	0.933243
H517	H	0.218365	-0.431243	0.457080
H518	H	0.718365	0.068757	0.957080
H519	H	0.218382	-0.476329	0.502165
H520	H	0.718382	0.023671	1.002165
H521	H	0.226719	-0.471098	0.417214
H522	H	0.726719	0.028902	0.917214
H523	H	0.226747	-0.516189	0.462285
H524	H	0.726747	-0.016189	0.962285
H525	H	0.292190	-0.517064	0.461395
H526	H	0.792190	-0.017064	0.961395
H527	H	0.292168	-0.471976	0.416312
H528	H	0.792168	0.028024	0.916312
H529	H	0.300788	-0.519566	0.413806
H530	H	0.800788	-0.019566	0.913806
H531	H	0.423225	-0.376108	0.456057
H532	H	0.923225	0.123892	0.956057
C533	C	0.429961	-0.535615	0.513820
C534	C	0.929961	-0.035615	1.013820
C535	C	0.397490	-0.560102	0.538142
C536	C	0.897490	-0.060102	1.038142
C537	C	0.422329	-0.608746	0.545270
C538	C	0.922329	-0.108746	1.045270
H539	H	0.449381	-0.540295	0.483905
H540	H	0.949381	-0.040295	0.983905
H541	H	0.449411	-0.547323	0.532082
H542	H	0.949411	-0.047323	1.032082
H543	H	0.378048	-0.548398	0.519880
H544	H	0.878048	-0.048398	1.019880
H545	H	0.378069	-0.555436	0.568062
H546	H	0.878069	-0.055436	1.068062
H547	H	0.441779	-0.620455	0.563533
H548	H	0.941779	-0.120455	1.063533
H549	H	0.441748	-0.613422	0.515353
H550	H	0.941748	-0.113422	1.015353
H551	H	0.400301	-0.625368	0.561777
H552	H	0.900301	-0.125368	1.061777
H553	H	0.129672	-0.118967	0.410356
H554	H	0.629672	0.381033	0.910356
C555	C	0.326115	-0.332774	0.484232
C556	C	0.826115	0.167226	0.984232
C557	C	0.338208	-0.307275	0.435365
C558	C	0.838208	0.192725	0.935365
C559	C	0.313347	-0.258628	0.428200
C560	C	0.813347	0.241372	0.928200
H561	H	0.292864	-0.327402	0.497490
H562	H	0.792864	0.172598	0.997490
H563	H	0.334306	-0.322441	0.499256
H564	H	0.834306	0.177559	0.999256
H565	H	0.330014	-0.317603	0.420346
H566	H	0.830014	0.182397	0.920346
H567	H	0.371455	-0.312633	0.422096
H568	H	0.871455	0.187367	0.922096
H569	H	0.321538	-0.248296	0.443224
H570	H	0.821538	0.251704	0.943224
H571	H	0.280097	-0.253261	0.441461
H572	H	0.780097	0.246739	0.941461
H573	H	0.321552	-0.241321	0.395044
H574	H	0.821552	0.258679	0.895044
C575	C	0.048266	-0.112314	0.566861
C576	C	0.548266	0.387686	1.066861
C577	C	0.073324	-0.124444	0.595424
C578	C	0.573324	0.375556	1.095424
C579	C	0.044766	-0.099610	0.627887
C580	C	0.544766	0.400390	1.127887
H581	H	0.040058	-0.079057	0.550026
H582	H	0.540058	0.420943	1.050026
H583	H	0.020104	-0.120506	0.586349
H584	H	0.520104	0.379494	1.086349
H585	H	0.101476	-0.116250	0.575938
H586	H	0.601476	0.383750	1.075938
H587	H	0.081531	-0.157697	0.612269
H588	H	0.581531	0.342303	1.112269
H589	H	0.016605	-0.107802	0.647376
H590	H	0.516605	0.392198	1.147376
H591	H	0.036560	-0.066354	0.611049
H592	H	0.536560	0.433646	1.111049
H593	H	0.061762	-0.107840	0.647274
H594	H	0.561762	0.392160	1.147274
C595	C	0.082960	-0.216275	0.601393
C596	C	0.582960	0.283725	1.101393
C597	C	0.103662	-0.265248	0.608993
C598	C	0.603662	0.234752	1.108993
C599	C	0.091744	-0.290274	0.657968
C600	C	0.591744	0.209726	1.157968
H601	H	0.094447	-0.208149	0.615401
H602	H	0.594447	0.291851	1.115401
H603	H	0.049343	-0.208162	0.615452
H604	H	0.549343	0.291838	1.115452
H605	H	0.137273	-0.273358	0.594941
H606	H	0.637273	0.226642	1.094941
H607	H	0.092179	-0.273389	0.594997
H608	H	0.592179	0.226611	1.094997
H609	H	0.058127	-0.282162	0.672027
H610	H	0.558127	0.217838	1.172027
H611	H	0.103231	-0.282144	0.671971
H612	H	0.603231	0.217856	1.171971
H613	H	0.105785	-0.323505	0.663131
H614	H	0.605785	0.176495	1.163131
C615	C	-0.031804	-0.447117	0.062205
C616	C	0.468196	0.052883	0.562205
C617	C	-0.060494	-0.422289	0.094673
C618	C	0.439506	0.077711	0.594673
C619	C	-0.072571	-0.373273	0.069830
C620	C	0.427429	0.126727	0.569830
H621	H	-0.003651	-0.438911	0.042808
H622	H	0.496349	0.061089	0.542808
H623	H	-0.048696	-0.438914	0.042730
H624	H	0.451304	0.061086	0.542730
H625	H	-0.043602	-0.430488	0.114140
H626	H	0.456398	0.069512	0.614140
H627	H	-0.088653	-0.430480	0.114071
H628	H	0.411347	0.069520	0.614071
H629	H	-0.089463	-0.365070	0.050355
H630	H	0.410537	0.134930	0.550355
H631	H	-0.044417	-0.365073	0.050434
H632	H	0.455583	0.134927	0.550434
H633	H	-0.092042	-0.356422	0.091856
H634	H	0.407958	0.143578	0.591856
H635	H	0.045284	-0.608113	0.068976
H636	H	0.545284	-0.108113	0.568976
C637	C	-0.066462	-0.481770	0.166107
C638	C	0.433538	0.018230	0.666107
C639	C	-0.043995	-0.488951	0.194791
C640	C	0.456005	0.011049	0.694791
C641	C	-0.072606	-0.456597	0.219750
C642	C	0.427394	0.043403	0.719750
H643	H	-0.071228	-0.450201	0.144169
H644	H	0.428772	0.049799	0.644169
H645	H	-0.096344	-0.486528	0.185528
H646	H	0.403656	0.013472	0.685528
H647	H	-0.014121	-0.484189	0.175372
H648	H	0.485879	0.015811	0.675372
H649	H	-0.039229	-0.520514	0.216737
H650	H	0.460771	-0.020514	0.716737
H651	H	-0.102488	-0.461354	0.239170
H652	H	0.397512	0.038646	0.739170
H653	H	-0.077370	-0.425030	0.197808
H654	H	0.422630	0.074970	0.697808
H655	H	-0.057368	-0.461467	0.239217
H656	H	0.442632	0.038533	0.739217
H657	H	0.015032	-0.638195	0.159378
H658	H	0.515032	-0.138195	0.659378
H659	H	-0.058984	-0.490504	0.332300
H660	H	0.441016	0.009496	0.832300
H661	H	-0.028907	-0.460416	0.362542
H662	H	0.471093	0.039584	0.862542
H663	H	0.044746	-0.608091	0.436494
H664	H	0.544746	-0.108091	0.936494
H665	H	0.014660	-0.638178	0.406265
H666	H	0.514660	-0.138178	0.906265
H667	H	0.081021	-0.864532	0.371574
H668	H	0.581021	-0.364532	0.871574
C669	C	0.059719	-0.767464	0.335021
C670	C	0.559719	-0.267464	0.835021
C671	C	0.105826	-0.799990	0.332469
C672	C	0.605826	-0.299990	0.832469
C673	C	0.137939	-0.775212	0.308881
C674	C	0.637939	-0.275212	0.808881
H675	H	0.058557	-0.748027	0.303766
H676	H	0.558557	-0.248027	0.803766
H677	H	0.051392	-0.748032	0.352012
H678	H	0.551392	-0.248032	0.852012
H679	H	0.114151	-0.819414	0.315477
H680	H	0.614151	-0.319414	0.815477
H681	H	0.107003	-0.819428	0.363717
H682	H	0.607003	-0.319428	0.863717
H683	H	0.129612	-0.755780	0.325873
H684	H	0.629612	-0.255780	0.825873
H685	H	0.136773	-0.755776	0.277629
H686	H	0.636773	-0.255776	0.777629
H687	H	0.169226	-0.797277	0.307151
H688	H	0.669226	-0.297277	0.807151
H689	H	-0.065262	-0.864385	0.427124
H690	H	0.434738	-0.364385	0.927124
H691	H	-0.095331	-0.773979	0.396956
H692	H	0.404669	-0.273979	0.896956
H693	H	-0.231954	-0.601008	0.442726
H694	H	0.268046	-0.101008	0.942726
H695	H	-0.322352	-0.570775	0.472713
H696	H	0.177648	-0.070775	0.972713
H697	H	-0.322118	-0.496994	0.324987
H698	H	0.177882	0.003006	0.824987
H699	H	-0.231721	-0.527215	0.295000
H700	H	0.268279	-0.027215	0.795000
