data_functionalizedCrystal
_audit_creation_method	'MofGen! by Chris Wilmer'
_symmetry_space_group_name_H-M	'P1'
_symmetry_Int_Tables_number	1
_symmetry_cell_setting	triclinic
loop_
_symmetry_equiv_pos_as_xyz
  x,y,z
_cell_length_a	11.792241
_cell_length_b	26.210047
_cell_length_c	11.792241
_cell_angle_alpha	89.995333
_cell_angle_beta	95.806584
_cell_angle_gamma	90.012238
loop_
_atom_site_label
_atom_site_type_symbol
_atom_site_fract_x
_atom_site_fract_y
_atom_site_fract_z
O1	O	1.506929	0.042380	-0.155565
O2	O	1.840262	0.375713	0.177768
O3	O	2.173595	0.709046	0.511101
O4	O	1.176588	0.042392	-0.171598
O5	O	1.509921	0.375725	0.161735
O6	O	1.843254	0.709058	0.495068
O7	O	1.349775	0.042382	0.001589
O8	O	1.683108	0.375715	0.334922
O9	O	2.016441	0.709048	0.668255
O10	O	1.333742	0.042389	-0.328752
O11	O	1.667075	0.375723	0.004581
O12	O	2.000408	0.709056	0.337914
O13	O	1.349720	-0.042476	0.001589
O14	O	1.683053	0.290857	0.334923
O15	O	2.016386	0.624190	0.668256
O16	O	1.176533	-0.042466	-0.171598
O17	O	1.509866	0.290867	0.161736
O18	O	1.843199	0.624200	0.495069
O19	O	1.506874	-0.042478	-0.155565
O20	O	1.840207	0.290855	0.177769
O21	O	2.173540	0.624188	0.511102
Cu22	Cu	1.341698	-0.050221	-0.163581
Cu23	Cu	1.675032	0.283113	0.169752
Cu24	Cu	2.008365	0.616446	0.503086
Cu25	Cu	1.341763	0.050134	-0.163582
Cu26	Cu	1.675096	0.383467	0.169751
Cu27	Cu	2.008430	0.716800	0.503085
O28	O	1.333687	-0.042469	-0.328752
O29	O	1.667020	0.290865	0.004582
O30	O	2.000353	0.624198	0.337915
C31	C	1.134269	-0.000036	-0.170591
C32	C	1.467603	0.333297	0.162742
C33	C	1.800936	0.666631	0.496076
C34	C	1.008255	-0.000032	-0.167576
C35	C	1.341589	0.333302	0.165757
C36	C	1.674922	0.666635	0.499090
N37	N	1.341661	-0.120805	-0.163580
N38	N	1.674994	0.212529	0.169753
N39	N	2.008327	0.545862	0.503087
C40	C	0.777543	-0.000046	-0.162034
C41	C	1.110877	0.333287	0.171300
C42	C	1.444210	0.666620	0.504633
C43	C	0.905928	-0.000038	-0.165113
C44	C	1.239262	0.333295	0.168220
C45	C	1.572595	0.666628	0.501553
C46	C	1.411010	-0.473320	-0.232872
C47	C	1.744343	-0.139986	0.100461
C48	C	2.077677	0.193347	0.433794
C49	C	1.411044	-0.686978	-0.232872
C50	C	1.744377	-0.353645	0.100461
C51	C	2.077710	-0.020312	0.433795
O52	O	1.469981	-0.714601	-0.291774
O53	O	1.803314	-0.381268	0.041559
O54	O	2.136647	-0.047934	0.374893
N55	N	1.341790	-0.713698	-0.163571
N56	N	1.675123	-0.380365	0.169763
N57	N	2.008457	-0.047032	0.503096
C58	C	1.272529	-0.687001	-0.094259
C59	C	1.605862	-0.353668	0.239074
C60	C	1.939195	-0.020334	0.572408
O61	O	1.213634	-0.714631	-0.035305
O62	O	1.546967	-0.381297	0.298028
O63	O	1.880300	-0.047964	0.631361
C64	C	1.272502	-0.473343	-0.094254
C65	C	1.605835	-0.140010	0.239079
C66	C	1.939168	0.193323	0.572412
C67	C	1.341751	-0.446626	-0.163569
C68	C	1.675085	-0.113292	0.169765
C69	C	2.008418	0.220041	0.503098
C70	C	1.480255	-0.446602	-0.302180
C71	C	1.813588	-0.113269	0.031153
C72	C	2.146922	0.220065	0.364486
C73	C	1.480241	-0.393191	-0.302184
C74	C	1.813575	-0.059857	0.031149
C75	C	2.146908	0.273476	0.364482
C76	C	1.410983	-0.366497	-0.232881
C77	C	1.744316	-0.033163	0.100453
C78	C	2.077649	0.300170	0.433786
C79	C	1.341738	-0.393214	-0.163573
C80	C	1.675071	-0.059881	0.169760
C81	C	2.008404	0.273452	0.503094
C82	C	1.203247	-0.446647	-0.024938
C83	C	1.536580	-0.113313	0.308396
C84	C	1.869914	0.220020	0.641729
C85	C	1.203249	-0.393229	-0.024940
C86	C	1.536582	-0.059895	0.308393
C87	C	1.869915	0.273438	0.641726
C88	C	1.272498	-0.366511	-0.094255
C89	C	1.605832	-0.033178	0.239079
C90	C	1.939165	0.300155	0.572412
C91	C	1.272465	-0.313109	-0.094273
C92	C	1.605799	0.020224	0.239060
C93	C	1.939132	0.353558	0.572393
N94	N	1.341719	-0.286389	-0.163574
N95	N	1.675052	0.046945	0.169759
N96	N	2.008386	0.380278	0.503092
C97	C	1.410978	-0.313083	-0.232878
C98	C	1.744311	0.020251	0.100455
C99	C	2.077644	0.353584	0.433789
C100	C	1.272546	-0.799174	-0.094268
C101	C	1.605879	-0.465841	0.239065
C102	C	1.939212	-0.132508	0.572399
C103	C	1.272551	-0.852588	-0.094271
C104	C	1.605884	-0.519255	0.239063
C105	C	1.939217	-0.185922	0.572396
C106	C	1.411068	-0.852562	-0.232882
C107	C	1.744401	-0.519229	0.100451
C108	C	2.077734	-0.185895	0.433785
C109	C	1.411056	-0.799147	-0.232885
C110	C	1.744389	-0.465814	0.100448
C111	C	2.077723	-0.132480	0.433782
C112	C	1.341799	-0.772454	-0.163569
C113	C	1.675133	-0.439121	0.169764
C114	C	2.008466	-0.105787	0.503097
C115	C	1.410943	-0.200915	-0.232882
C116	C	1.744276	0.132419	0.100451
C117	C	2.077610	0.465752	0.433785
C118	C	1.410919	-0.147498	-0.232884
C119	C	1.744253	0.185835	0.100450
C120	C	2.077586	0.519168	0.433783
C121	C	1.272407	-0.147529	-0.094268
C122	C	1.605741	0.185804	0.239065
C123	C	1.939074	0.519137	0.572399
C124	C	1.272426	-0.200941	-0.094271
C125	C	1.605759	0.132392	0.239063
C126	C	1.939093	0.465726	0.572396
C127	C	1.341703	-0.227632	-0.163581
C128	C	1.675036	0.105701	0.169752
C129	C	2.008369	0.439034	0.503086
O130	O	1.213569	-0.285453	-0.035392
O131	O	1.546902	0.047880	0.297941
O132	O	1.880235	0.381213	0.631274
O133	O	1.469883	-0.285444	-0.291804
O134	O	1.803216	0.047890	0.041529
O135	O	2.136549	0.381223	0.374862
C136	C	1.411024	-0.526731	-0.232868
C137	C	1.744357	-0.193398	0.100465
C138	C	2.077690	0.139936	0.433798
C139	C	1.341779	-0.553449	-0.163561
C140	C	1.675112	-0.220115	0.169773
C141	C	2.008445	0.113218	0.503106
C142	C	1.272520	-0.526755	-0.094257
C143	C	1.605854	-0.193421	0.239076
C144	C	1.939187	0.139912	0.572410
C145	C	1.341784	-0.606863	-0.163563
C146	C	1.675117	-0.273529	0.169770
C147	C	2.008450	0.059804	0.503104
C148	C	1.411042	-0.633557	-0.232867
C149	C	1.744376	-0.300223	0.100467
C150	C	2.077709	0.033110	0.433800
C151	C	1.480296	-0.606836	-0.302168
C152	C	1.813629	-0.273503	0.031165
C153	C	2.146963	0.059830	0.364499
C154	C	1.480282	-0.553425	-0.302172
C155	C	1.813616	-0.220092	0.031161
C156	C	2.146949	0.113242	0.364495
C157	C	1.203266	-0.553475	-0.024956
C158	C	1.536600	-0.220142	0.308378
C159	C	1.869933	0.113192	0.641711
C160	C	1.203285	-0.606887	-0.024958
C161	C	1.536618	-0.273553	0.308375
C162	C	1.869952	0.059780	0.641708
C163	C	1.272544	-0.633580	-0.094262
C164	C	1.605877	-0.300247	0.239071
C165	C	1.939210	0.033086	0.572405
C166	C	1.549192	-0.000050	-0.156572
C167	C	1.882525	0.333284	0.176761
C168	C	2.215859	0.666617	0.510095
C169	C	1.675206	-0.000051	-0.159587
C170	C	2.008539	0.333282	0.173747
C171	C	2.341872	0.666616	0.507080
C172	C	1.348740	-0.000047	0.043880
C173	C	1.682073	0.333286	0.377213
C174	C	2.015407	0.666620	0.710547
C175	C	1.345726	-0.000046	0.169894
C176	C	1.679059	0.333287	0.503227
C177	C	2.012392	0.666620	0.836560
N178	N	1.341809	0.120718	-0.163574
N179	N	1.675143	0.454051	0.169759
N180	N	2.008476	0.787384	0.503092
C181	C	1.334721	-0.000039	-0.371043
C182	C	1.668055	0.333295	-0.037710
C183	C	2.001388	0.666628	0.295624
C184	C	1.337736	-0.000036	-0.497057
C185	C	1.671069	0.333297	-0.163723
C186	C	2.004402	0.666631	0.169610
C187	C	1.340183	-0.000038	0.400606
C188	C	1.673516	0.333296	0.733939
C189	C	2.006849	0.666629	1.067272
C190	C	1.343262	-0.000042	0.272221
C191	C	1.676596	0.333291	0.605554
C192	C	2.009929	0.666624	0.938887
H193	H	1.467311	-0.125747	-0.289333
H194	H	1.800644	0.207586	0.044000
H195	H	2.133977	0.540919	0.377334
H196	H	1.146869	-0.531746	0.031483
H197	H	1.480202	-0.198413	0.364816
H198	H	1.813535	0.134920	0.698150
H199	H	1.536673	-0.531676	-0.358615
H200	H	1.870006	-0.198343	-0.025282
H201	H	2.203339	0.134990	0.308052
H202	H	1.536683	-0.628580	-0.358603
H203	H	1.870017	-0.295247	-0.025270
H204	H	2.203350	0.038087	0.308063
H205	H	1.146858	-0.468391	0.031507
H206	H	1.480191	-0.135057	0.364840
H207	H	1.813525	0.198276	0.698174
H208	H	1.467355	-0.222640	-0.289321
H209	H	1.800689	0.110693	0.044013
H210	H	2.134022	0.444026	0.377346
H211	H	1.146882	-0.628635	0.031483
H212	H	1.480216	-0.295302	0.364817
H213	H	1.813549	0.038031	0.698150
H214	H	1.216147	-0.874337	-0.037841
H215	H	1.549481	-0.541004	0.295492
H216	H	1.882814	-0.207671	0.628825
H217	H	1.216146	-0.777446	-0.037820
H218	H	1.549479	-0.444112	0.295513
H219	H	1.882812	-0.110779	0.628847
H220	H	1.536636	-0.371442	-0.358622
H221	H	1.869970	-0.038109	-0.025289
H222	H	2.203303	0.295225	0.308044
H223	H	1.216023	-0.222696	-0.037844
H224	H	1.549356	0.110638	0.295490
H225	H	1.882690	0.443971	0.628823
H226	H	1.467444	-0.777397	-0.289327
H227	H	1.800778	-0.444064	0.044006
H228	H	2.134111	-0.110730	0.377339
H229	H	1.467456	-0.874305	-0.289316
H230	H	1.800790	-0.540972	0.044017
H231	H	2.134123	-0.207639	0.377350
H232	H	1.536660	-0.468331	-0.358616
H233	H	1.869993	-0.134997	-0.025283
H234	H	2.203326	0.198336	0.308051
H235	H	1.146851	-0.371498	0.031507
H236	H	1.480185	-0.038165	0.364840
H237	H	1.813518	0.295169	0.698173
H238	H	1.216016	-0.125786	-0.037846
H239	H	1.549349	0.207548	0.295487
H240	H	1.882682	0.540881	0.628821
