data_functionalizedCrystal
_audit_creation_method	'MofGen! by Chris Wilmer'
_symmetry_space_group_name_H-M	'P1'
_symmetry_Int_Tables_number	1
_symmetry_cell_setting	triclinic
loop_
_symmetry_equiv_pos_as_xyz
  x,y,z
_cell_length_a	17.917603
_cell_length_b	23.196402
_cell_length_c	23.196401
_cell_angle_alpha	60.008822
_cell_angle_beta	90.013379
_cell_angle_gamma	57.012000
loop_
_atom_site_label
_atom_site_type_symbol
_atom_site_fract_x
_atom_site_fract_y
_atom_site_fract_z
Zr1	Zr	0.754912	0.577925	-0.049090
O2	O	0.629761	0.706991	-0.145536
O3	O	0.793274	0.454963	-0.019528
O4	O	0.793240	0.575232	-0.139794
O5	O	0.629826	0.586717	0.069603
O6	O	0.922198	0.566166	-0.135261
O7	O	0.629796	0.586721	-0.025269
O8	O	0.922260	0.351026	0.079874
O9	O	0.629765	0.801858	-0.145532
O10	O	0.905879	0.496513	-0.003532
O11	O	0.809662	0.503276	0.063887
O12	O	0.809621	0.644878	-0.077711
O13	O	0.713404	0.651641	-0.010292
Zr14	Zr	0.960635	0.563460	0.109451
Zr15	Zr	0.960586	0.563466	-0.041860
Zr16	Zr	0.754961	0.577919	0.102221
Zr17	Zr	0.754918	0.729227	-0.049083
Zr18	Zr	0.960629	0.412158	0.109444
O19	O	0.922272	0.686422	0.079889
O20	O	0.922202	0.686431	-0.135256
O21	O	0.629831	0.706982	0.069608
O22	O	1.085786	0.434394	0.205897
O23	O	1.085716	0.434403	-0.009248
O24	O	0.793344	0.454954	0.195616
O25	O	1.085720	0.554668	-0.009242
O26	O	0.922307	0.566153	0.200155
O27	O	0.793349	0.575219	0.195622
O28	O	1.085751	0.554664	0.085630
O29	O	0.793248	0.790364	-0.139785
O30	O	0.922299	0.351021	0.200145
O31	O	1.085782	0.339527	0.205892
O32	O	1.085743	0.339532	0.085621
O33	O	0.629804	0.801853	-0.025260
O34	O	0.793287	0.790359	-0.019513
O35	O	0.905925	0.496507	0.138072
O36	O	1.002142	0.489744	0.070653
O37	O	0.905885	0.638109	-0.003526
O38	O	0.809667	0.644872	0.063893
C39	C	0.857766	0.381437	0.030172
C40	C	0.857764	0.317205	0.030169
C41	C	0.907982	0.283505	-0.005026
C42	C	0.907991	0.223143	-0.005020
C43	C	0.857764	0.196497	0.030171
C44	C	0.807544	0.230201	0.065374
C45	C	0.807544	0.290555	0.065373
C46	C	0.773615	0.140384	0.021938
C47	C	0.773612	0.080034	0.021934
C48	C	0.857765	0.010342	0.030178
C49	C	0.941920	0.001014	0.038412
C50	C	0.941920	0.061368	0.038411
C51	C	0.857758	0.131053	0.030176
C52	C	0.907997	-0.088811	-0.005012
C53	C	0.908009	-0.149177	-0.005001
C54	C	0.807553	-0.142111	0.065388
C55	C	0.807550	-0.081752	0.065382
C56	C	0.857770	-0.055103	0.030178
C57	C	0.600507	0.588779	0.021137
C58	C	0.513193	0.594918	0.018067
C59	C	0.353347	0.606131	0.012462
C60	C	0.362192	0.535258	0.047897
C61	C	0.273249	0.541497	0.044778
C62	C	0.442297	0.599894	0.015580
C63	C	1.115040	0.552606	0.039224
C64	C	1.202354	0.546467	0.042293
C65	C	0.857712	0.570700	-0.159086
C66	C	0.857691	0.570702	-0.223322
C67	C	0.857780	0.759948	0.030189
C68	C	0.857783	0.824180	0.030192
C69	C	0.807450	0.648145	-0.292215
C70	C	0.807474	0.648144	-0.352570
C71	C	0.857727	0.570698	-0.344027
C72	C	0.907979	0.493245	-0.275120
C73	C	0.907961	0.493247	-0.214768
C74	C	0.850588	0.514572	-0.411597
C75	C	0.850599	0.514573	-0.471950
C76	C	0.857787	0.570687	-0.530172
C77	C	0.864945	0.626815	-0.528041
C78	C	0.864927	0.626818	-0.467688
C79	C	0.857752	0.570687	-0.409464
C80	C	0.807570	0.648134	-0.664512
C81	C	0.807602	0.648130	-0.724865
C82	C	0.908099	0.493229	-0.647414
C83	C	0.908075	0.493235	-0.587062
C84	C	0.857805	0.570690	-0.595616
C85	C	0.857835	0.570685	0.219447
C86	C	0.857856	0.570683	0.283682
C87	C	1.115033	0.363350	0.039216
C88	C	1.202344	0.292980	0.042282
C89	C	0.857828	0.381429	0.219439
C90	C	0.857846	0.317195	0.283671
C91	C	1.115094	0.363343	0.228482
C92	C	1.202426	0.292970	0.295784
C93	C	0.600452	0.778042	-0.168122
C94	C	0.513120	0.848415	-0.235423
C95	C	0.600514	0.778035	0.021145
C96	C	0.513203	0.848405	0.018079
C97	C	0.857719	0.759956	-0.159078
C98	C	0.857700	0.824190	-0.223310
C99	C	1.193098	0.263466	0.004992
C100	C	1.275129	0.197355	0.007859
C101	C	1.366404	0.160754	0.048020
C102	C	1.375648	0.190273	0.085312
C103	C	1.293619	0.256388	0.082440
C104	C	0.908103	0.283497	0.352566
C105	C	0.908117	0.223151	0.412925
C106	C	0.857879	0.196500	0.404387
C107	C	0.807616	0.230204	0.335486
C108	C	0.807597	0.290554	0.275128
C109	C	1.293672	0.256391	0.292198
C110	C	1.375738	0.190276	0.355430
C111	C	1.366556	0.160737	0.422247
C112	C	1.275301	0.197323	0.425831
C113	C	1.193238	0.263440	0.362600
C114	C	0.421875	0.885001	-0.231837
C115	C	0.339809	0.951135	-0.295069
C116	C	0.348990	0.980677	-0.361886
C117	C	0.440245	0.944088	-0.365470
C118	C	0.522309	0.877959	-0.302239
C119	C	0.522449	0.877925	0.055363
C120	C	0.440418	0.944053	0.052479
C121	C	0.349142	0.980656	0.012315
C122	C	0.339898	0.951134	-0.024973
C123	C	0.421928	0.885011	-0.022094
C124	C	0.907948	0.850821	-0.214750
C125	C	0.907950	0.911166	-0.275097
C126	C	0.857697	0.944884	-0.344003
C127	C	0.807447	0.918247	-0.352562
C128	C	0.807452	0.857898	-0.292216
H129	H	0.766649	0.208502	0.094027
C130	C	1.265218	0.164814	0.499337
N131	N	1.257626	0.140320	0.554704
H132	H	0.949051	0.195715	0.469022
C133	C	0.622844	0.837677	0.099545
N134	N	0.698461	0.807371	0.132821
C135	C	1.264938	0.164889	-0.033160
N136	N	1.257260	0.140436	-0.064053
C137	C	0.258708	1.053414	-0.431436
N138	N	0.190703	1.108197	-0.483819
C139	C	0.752284	0.733335	-0.673918
N140	N	0.710643	0.797509	-0.681006
C141	C	1.092869	0.303669	0.366557
N142	N	1.017273	0.333967	0.369543
C143	C	1.303806	0.288837	0.123474
N144	N	1.311486	0.313273	0.154383
C145	C	0.450608	0.976508	0.093508
N146	N	0.458286	1.000950	0.124413
H147	H	0.948867	0.932848	-0.268115
C148	C	0.857919	0.130104	0.470791
N149	N	0.857958	0.080090	0.520809
C150	C	0.239486	0.991396	-0.069140
N151	N	0.163853	1.021716	-0.102399
C152	C	0.258916	1.053389	0.009158
N153	N	0.190961	1.108169	0.006786
H154	H	0.766675	0.317983	0.219033
H155	H	0.766533	0.945709	-0.408674
C156	C	0.462662	0.446956	0.092040
N157	N	0.538338	0.380450	0.125285
C158	C	1.476108	0.150037	0.351471
N159	N	1.551706	0.119728	0.348486
H160	H	0.844766	0.468873	-0.473681
H161	H	0.414386	0.860979	-0.052453
H162	H	0.447710	0.968149	-0.419880
C163	C	1.092702	0.303720	-0.039196
N164	N	1.017086	0.334039	-0.072485
C165	C	0.252882	0.694426	-0.031692
N166	N	0.177203	0.760930	-0.064952
C167	C	0.963333	0.408041	-0.511275
N168	N	1.004957	0.343870	-0.454190
H169	H	1.301166	0.280431	0.237798
H170	H	0.766713	0.208496	0.328545
C171	C	1.456630	0.088021	0.051177
N172	N	1.524586	0.033236	0.053555
C173	C	1.456839	0.087999	0.491797
N174	N	1.524843	0.033209	0.544179
C175	C	0.752164	0.733347	-0.301628
N176	N	0.710526	0.797523	-0.308718
C177	C	1.476061	0.149997	0.129493
N178	N	1.551694	0.119653	0.162775
C179	C	0.239438	0.991370	-0.291110
N180	N	0.163841	1.021673	-0.288126
H181	H	0.766530	0.836222	-0.299196
H182	H	0.766693	0.711195	-0.780963
C183	C	0.411752	0.852523	-0.158345
N184	N	0.404119	0.828070	-0.102992
C185	C	0.963241	0.813738	-0.138958
N186	N	1.004895	0.785805	-0.081873
H187	H	0.596603	0.848171	-0.305168
H188	H	0.949017	0.430170	-0.640457
H189	H	0.948876	0.305199	-0.033689
H190	H	0.948895	0.430187	-0.268168
H191	H	1.010442	0.053768	0.045117
C192	C	0.963234	0.186068	-0.043741
N193	N	1.004841	0.158146	-0.072906
C194	C	1.034497	-0.075649	0.047484
N195	N	1.104223	-0.133393	0.054317
H196	H	0.948908	-0.176621	-0.033657
C197	C	0.963251	-0.059503	-0.043728
N198	N	1.004871	-0.037432	-0.072887
C199	C	0.752317	-0.044689	0.104108
N200	N	0.710722	-0.016781	0.133286
H201	H	0.766657	-0.163806	0.094041
H202	H	0.705087	0.087639	0.015226
H203	H	0.857700	0.994024	-0.393135
H204	H	0.766560	0.711209	-0.408673
H205	H	0.705078	0.197139	0.015210
C206	C	0.752305	0.327622	0.104098
N207	N	0.710700	0.355539	0.133267
H208	H	0.870793	0.672512	-0.575448
H209	H	0.870757	0.672517	-0.465956
H210	H	0.844728	0.468877	-0.364195
H211	H	0.949014	0.305189	0.359530
H212	H	0.948874	0.430182	-0.158670
