data_functionalizedCrystal
_audit_creation_method	'MofGen! by Chris Wilmer'
_symmetry_space_group_name_H-M	'P1'
_symmetry_Int_Tables_number	1
_symmetry_cell_setting	triclinic
loop_
_symmetry_equiv_pos_as_xyz
  x,y,z
_cell_length_a	19.851628
_cell_length_b	14.446369
_cell_length_c	14.446369
_cell_angle_alpha	59.995450
_cell_angle_beta	90.003064
_cell_angle_gamma	59.999397
loop_
_atom_site_label
_atom_site_type_symbol
_atom_site_fract_x
_atom_site_fract_y
_atom_site_fract_z
Zr1	Zr	0.648982	1.013144	-0.121418
O2	O	0.541415	1.206288	-0.269254
O3	O	0.681956	0.820017	-0.076092
O4	O	0.681955	1.013146	-0.269222
O5	O	0.541418	1.013150	0.076212
O6	O	0.792817	1.013129	-0.269204
O7	O	0.541416	1.013159	-0.076125
O8	O	0.792819	0.667655	0.076270
O9	O	0.541416	1.358624	-0.269261
O10	O	0.778756	0.899433	-0.056755
O11	O	0.696022	0.899440	0.056919
O12	O	0.696021	1.126825	-0.170467
O13	O	0.613287	1.126832	-0.056793
Zr14	Zr	0.825797	1.013102	0.121571
Zr15	Zr	0.825794	1.013115	-0.121389
Zr16	Zr	0.648985	1.013130	0.121542
Zr17	Zr	0.648984	1.256102	-0.121429
Zr18	Zr	0.825795	0.770144	0.121583
O19	O	0.792823	1.206229	0.076246
O20	O	0.792818	1.206248	-0.269212
O21	O	0.541419	1.206269	0.076204
O22	O	0.933365	0.819957	0.269408
O23	O	0.933360	0.819976	-0.076050
O24	O	0.681961	0.819998	0.269366
O25	O	0.933361	1.013095	-0.076059
O26	O	0.792824	1.013099	0.269375
O27	O	0.681962	1.013117	0.269357
O28	O	0.933363	1.013087	0.076278
O29	O	0.681957	1.358601	-0.269238
O30	O	0.792822	0.667644	0.269391
O31	O	0.933364	0.667621	0.269415
O32	O	0.933361	0.667632	0.076294
O33	O	0.541418	1.358613	-0.076140
O34	O	0.681960	1.358591	-0.076117
O35	O	0.778759	0.899420	0.170620
O36	O	0.861492	0.899413	0.056946
O37	O	0.778757	1.126806	-0.056765
O38	O	0.696024	1.126813	0.056908
C39	C	0.737388	0.709219	0.000091
C40	C	0.737387	0.606077	0.000095
C41	C	0.685457	0.459072	0.072118
C42	C	0.685175	0.566692	0.071827
C43	C	0.699320	0.655086	-0.123453
C44	C	0.698930	0.547854	-0.123079
C45	C	0.827421	0.372602	0.050558
C46	C	0.827288	0.478753	0.053079
C47	C	0.516225	1.013158	0.000040
C48	C	0.441164	1.013171	0.000027
C49	C	0.214708	1.137125	-0.061935
C50	C	0.192346	1.075154	-0.106853
C51	C	0.303757	1.013137	0.000060
C52	C	0.192379	1.075116	0.044956
C53	C	0.171025	1.013113	0.000091
C54	C	0.282384	0.951164	-0.044920
C55	C	0.282414	0.951145	0.106948
C56	C	0.260105	0.889082	0.062057
C57	C	0.380219	1.013154	0.000039
C58	C	0.094568	1.013086	0.000109
C59	C	0.958554	1.013087	0.000114
C60	C	1.033615	1.013075	0.000126
C61	C	0.737386	1.013139	-0.303829
C62	C	0.737384	1.013145	-0.406972
C63	C	0.737392	1.317026	0.000063
C64	C	0.737392	1.420168	0.000058
C65	C	0.684951	1.156546	-0.625357
C66	C	0.685173	1.156643	-0.518125
C67	C	0.827284	0.941899	-0.410278
C68	C	0.827002	0.942809	-0.518047
C69	C	0.700661	0.939876	-0.516704
C70	C	0.698837	0.942579	-0.410735
C71	C	0.737394	1.013106	0.303983
C72	C	0.737395	1.013100	0.407126
C73	C	0.958552	0.709184	0.000128
C74	C	1.033613	0.606030	0.000145
C75	C	0.737392	0.709203	0.303997
C76	C	0.737392	0.606055	0.407144
C77	C	0.958556	0.709167	0.304034
C78	C	1.033618	0.606007	0.407194
C79	C	0.516223	1.317078	-0.303880
C80	C	0.441161	1.420238	-0.407040
C81	C	0.516227	1.317062	0.000026
C82	C	0.441166	1.420216	0.000009
C83	C	0.737388	1.317043	-0.303843
C84	C	0.737387	1.420190	-0.406991
C85	C	1.025674	0.557597	-0.059208
C86	C	1.096195	0.460687	-0.059215
C87	C	1.174653	0.412203	0.000139
C88	C	1.182590	0.460645	0.059494
C89	C	1.112070	0.557560	0.059493
C90	C	1.112061	0.557559	0.396302
C91	C	1.182597	0.460642	0.493223
C92	C	1.174687	0.412170	0.601034
C93	C	1.096236	0.460628	0.611923
C94	C	1.025702	0.557549	0.515004
C95	C	0.362718	1.468699	-0.396149
C96	C	0.292182	1.565645	-0.493070
C97	C	0.300092	1.614122	-0.600881
C98	C	0.378544	1.565658	-0.611770
C99	C	0.449077	1.468720	-0.514850
C100	C	0.449105	1.468658	0.059351
C101	C	0.378584	1.565596	0.059331
C102	C	0.300126	1.614083	-0.000026
C103	C	0.292189	1.565636	-0.059376
C104	C	0.362709	1.468707	-0.059362
C105	C	0.684959	0.459741	0.482129
C106	C	0.685180	0.566673	0.374789
C107	C	0.827292	0.479179	0.481723
C108	C	0.827011	0.371793	0.588592
C109	C	0.700671	0.546786	0.590149
C110	C	0.698846	0.655268	0.481467
H111	H	0.632681	0.588565	-0.163505
H112	H	0.278711	0.784158	0.114485
H113	H	0.385063	1.605024	0.107665
N114	N	0.864453	0.430766	0.417019
N115	N	0.936481	0.329747	0.461504
H116	H	0.962723	0.295552	0.415807
H117	H	0.710194	1.212562	-0.680335
N118	N	0.529210	1.419186	-0.525965
N119	N	0.592187	1.332625	-0.439433
H120	H	0.648781	1.297643	-0.447288
N121	N	0.741800	0.695532	0.513506
N122	N	0.801791	0.688575	0.481949
H123	H	0.832139	0.716995	0.504587
H124	H	1.246480	0.421155	0.107817
N125	N	0.354641	1.419174	-0.286022
N126	N	0.384351	1.300193	-0.218691
H127	H	0.378642	1.265223	-0.140915
N128	N	0.945531	0.607140	-0.119852
N129	N	0.882565	0.693678	-0.119863
H130	H	0.825964	0.728670	-0.162701
H131	H	0.710652	1.212883	-0.520576
N132	N	0.717293	0.347630	0.186553
N133	N	0.742428	0.347114	0.266255
H134	H	0.764909	0.268413	0.347085
N135	N	0.228104	1.713098	-0.000027
N136	N	0.235213	1.756329	0.052968
H137	H	0.184350	1.826258	0.052974
N138	N	0.212036	1.615172	-0.119979
N139	N	0.163058	1.604357	-0.068300
H140	H	0.106447	1.639339	-0.111093
H141	H	0.856408	0.993428	-0.568389
N142	N	0.212060	1.615123	-0.481911
N143	N	0.205017	1.571811	-0.385641
H144	H	0.148432	1.606752	-0.377755
N145	N	1.120201	0.607011	0.120132
N146	N	1.190261	0.563699	0.173120
H147	H	1.196010	0.598620	0.215949
H148	H	0.153535	1.127560	-0.197235
H149	H	1.232127	0.333251	0.679943
N150	N	0.354577	1.419224	-0.119968
N151	N	0.317768	1.365177	-0.094794
H152	H	0.312018	1.330234	-0.137600
H153	H	0.618981	0.656038	0.320503
H154	H	0.618591	0.496991	0.479781
N155	N	0.191575	1.268635	-0.127810
N156	N	0.214219	1.307537	-0.211860
H157	H	0.197885	1.400413	-0.258388
H158	H	0.868199	0.837564	-0.491381
N159	N	0.618874	0.596466	0.595272
N160	N	0.559896	0.709431	0.516320
H161	H	0.502124	0.744517	0.519929
H162	H	0.868053	0.836389	-0.331998
N163	N	1.088062	0.411232	-0.119852
N164	N	1.018002	0.454528	-0.172827
H165	H	1.012255	0.419603	-0.215653
N166	N	0.716628	0.347244	0.480850
N167	N	0.777654	0.238025	0.561319
H168	H	0.800023	0.158570	0.560420
N169	N	0.878703	0.334156	0.687201
N170	N	0.887707	0.248201	0.783631
H171	H	0.924218	0.221615	0.853271
N172	N	0.330930	0.885476	-0.092663
N173	N	0.396780	0.874922	-0.100416
H174	H	0.431067	0.828533	-0.134135
N175	N	0.741794	0.811229	-0.311440
N176	N	0.775717	0.717543	-0.320256
H177	H	0.806066	0.624768	-0.250129
N178	N	0.529236	1.419153	0.119998
N179	N	0.536297	1.462437	0.172969
H180	H	0.592888	1.427484	0.215800
H181	H	1.232068	0.333287	0.000132
H182	H	1.118517	0.597010	0.308526
H183	H	0.242652	1.693055	-0.679790
N184	N	1.262719	0.411171	0.482064
N185	N	1.269763	0.454457	0.385794
H186	H	1.326347	0.419521	0.377909
H187	H	0.321223	0.898783	0.197311
H188	H	1.089808	0.421148	0.699716
H189	H	0.153578	1.127540	0.082914
H190	H	0.710659	0.529206	0.321007
H191	H	0.738678	0.834203	-0.489244
N192	N	0.863905	0.257941	0.588254
N193	N	0.889680	0.258195	0.509242
H194	H	0.915737	0.177790	0.508996
N195	N	0.945582	0.607016	0.526159
N196	N	0.938540	0.563716	0.622430
H197	H	0.881956	0.598647	0.630317
H198	H	0.618973	1.212555	-0.519762
H199	H	0.632616	0.745776	0.430029
N200	N	0.864420	1.003983	-0.407616
N201	N	0.832306	1.121921	-0.484287
H202	H	0.858528	1.165778	-0.482414
N203	N	0.386613	1.615157	-0.721901
N204	N	0.423387	1.539438	-0.750817
H205	H	0.429083	1.574392	-0.828600
N206	N	0.878448	0.507076	0.515868
N207	N	0.941456	0.486238	0.487970
H208	H	0.977584	0.505945	0.512080
N209	N	0.748374	0.515664	0.688279
N210	N	0.809162	0.400777	0.760157
H211	H	0.842857	0.378785	0.829463
H212	H	0.618581	1.212850	-0.679322
H213	H	0.632605	0.994528	-0.411268
N214	N	0.717206	0.520654	0.185946
N215	N	0.780203	0.512196	0.216086
H216	H	0.802825	0.479676	0.296688
N217	N	0.602648	0.503916	0.028577
N218	N	0.581716	0.507348	-0.055293
H219	H	0.523232	0.539020	-0.086049
N220	N	0.618875	0.997474	-0.579483
N221	N	0.586665	1.093202	-0.681139
H222	H	0.528901	1.133893	-0.725486
H223	H	0.618767	0.655505	0.036816
H224	H	0.735330	0.683869	-0.179465
N225	N	0.617008	0.770903	-0.174507
N226	N	0.586222	0.817565	-0.120137
H227	H	0.528089	0.899359	-0.156188
N228	N	0.743317	0.520301	-0.194096
N229	N	0.774480	0.580266	-0.243782
H230	H	0.805825	0.560818	-0.293943
H231	H	0.855727	0.439142	0.144098
N232	N	0.867316	0.255011	0.162946
N233	N	0.877401	0.154407	0.180110
H234	H	0.905572	0.071359	0.259485
N235	N	0.879910	0.505737	-0.005932
N236	N	0.863141	0.552087	-0.109190
H237	H	0.900300	0.571154	-0.150879
H238	H	0.866298	0.346624	-0.001678
