data_functionalizedCrystal
_audit_creation_method	'MofGen! by Chris Wilmer'
_symmetry_space_group_name_H-M	'P1'
_symmetry_Int_Tables_number	1
_symmetry_cell_setting	triclinic
loop_
_symmetry_equiv_pos_as_xyz
  x,y,z
_cell_length_a	13.635800
_cell_length_b	9.109307
_cell_length_c	9.582880
_cell_angle_alpha	83.728948
_cell_angle_beta	111.207034
_cell_angle_gamma	68.235001
loop_
_atom_site_label
_atom_site_type_symbol
_atom_site_fract_x
_atom_site_fract_y
_atom_site_fract_z
V1	V	2.088746	-0.224628	0.495453
O2	O	2.049635	0.011501	0.456242
O3	O	2.094220	-0.446079	0.520706
O4	O	2.083623	-0.220862	0.698471
O5	O	2.060306	-0.215275	0.277247
V6	V	2.324243	-0.196421	0.465875
O7	O	2.233117	-0.286502	0.560337
O8	O	2.404971	-0.134546	0.400992
O9	O	2.207166	0.025031	0.440622
O10	O	2.422052	-0.432550	0.505086
O11	O	2.411382	-0.205774	0.684081
O12	O	2.217763	-0.200186	0.262858
V13	V	2.588746	-0.224628	0.495453
O14	O	2.549635	0.011501	0.456242
O15	O	2.594220	-0.446079	0.520706
O16	O	2.583623	-0.220862	0.698471
O17	O	2.560306	-0.215275	0.277247
V18	V	2.824243	-0.196421	0.465875
O19	O	2.733117	-0.286502	0.560337
O20	O	2.904971	-0.134546	0.400992
O21	O	2.707166	0.025031	0.440622
O22	O	2.922052	-0.432550	0.505086
O23	O	2.911382	-0.205774	0.684081
O24	O	2.717763	-0.200186	0.262858
C25	C	2.023322	-0.500074	0.520281
C26	C	2.068568	-0.681111	0.542281
C27	C	2.009803	-0.212785	0.747035
C28	C	2.046453	-0.211172	0.913191
C29	C	2.109735	0.079017	0.441044
C30	C	2.054109	0.260053	0.419054
C31	C	2.123253	-0.208268	0.214286
C32	C	2.076222	-0.209873	0.048128
C33	C	2.523322	-0.500074	0.520281
C34	C	2.568568	-0.681111	0.542281
C35	C	2.509803	-0.212785	0.747035
C36	C	2.546453	-0.211172	0.913191
C37	C	2.609735	0.079017	0.441044
C38	C	2.554109	0.260053	0.419054
C39	C	2.623253	-0.208268	0.214286
C40	C	2.576222	-0.209873	0.048128
C41	C	2.682727	-0.774421	0.561155
C42	C	2.725261	-0.944530	0.581851
C43	C	2.653632	-1.021324	0.583661
C44	C	2.539464	-0.928002	0.564789
C45	C	2.496935	-0.757898	0.544105
C46	C	2.612445	0.353361	0.400184
C47	C	2.560184	0.523469	0.379496
C48	C	2.449591	0.600263	0.377690
C49	C	2.391250	0.506942	0.396557
C50	C	2.443508	0.336840	0.417233
H51	H	2.007134	-0.651818	0.296691
H52	H	2.818222	-1.020488	0.597210
O53	O	2.124774	-0.786423	0.688210
C54	C	2.239792	-0.894062	0.716580
H55	H	2.243910	-0.902034	0.600778
H56	H	2.303246	-0.845498	0.783457
C57	C	2.269095	-1.056686	0.955889
C58	C	2.274150	-1.066487	0.813658
H59	H	2.290292	-1.163044	1.015777
H60	H	2.191607	-0.984164	0.936780
H61	H	2.321973	-1.016209	1.011600
H62	H	2.221262	-1.106943	0.757941
H63	H	2.351630	-1.139020	0.832760
O64	O	2.385987	-0.667495	0.525707
C65	C	2.331908	-0.771774	0.531776
H66	H	2.376821	-0.887450	0.500408
H67	H	2.339927	-0.807602	0.654570
C68	C	2.146169	-0.538952	0.453428
C69	C	2.201326	-0.681021	0.414889
H70	H	2.065619	-0.482971	0.381333
H71	H	2.182603	-0.468697	0.449345
H72	H	2.152863	-0.568829	0.555759
H73	H	2.194644	-0.651142	0.312568
H74	H	2.164887	-0.751270	0.418952
H75	H	2.741065	-0.711917	0.559676
O76	O	2.695136	-1.186608	0.603962
C77	C	2.794906	-1.269865	0.748589
H78	H	2.836172	-1.183953	0.786008
H79	H	2.767978	-1.310178	0.840013
C80	C	2.833841	-1.527927	0.686567
C81	C	2.884530	-1.422412	0.732519
H82	H	2.889123	-1.622029	0.676659
H83	H	2.766621	-1.471837	0.589132
H84	H	2.811402	-1.561503	0.762761
H85	H	2.906954	-1.388822	0.656317
H86	H	2.951755	-1.478500	0.829942
O87	O	2.719856	0.279057	0.401820
C88	C	2.760129	0.397914	0.380757
H89	H	2.682071	0.524743	0.319905
H90	H	2.821181	0.398262	0.499152
C91	C	2.922967	0.200174	0.354756
C92	C	2.827094	0.355947	0.280004
H93	H	2.964279	0.174284	0.292614
H94	H	2.895838	0.120095	0.368953
H95	H	2.973830	0.200484	0.453415
H96	H	2.776225	0.355628	0.181356
H97	H	2.854216	0.436024	0.265789
H98	H	2.481153	-0.990554	0.566266
O99	O	2.398888	0.765546	0.357395
C100	C	2.383874	0.848811	0.212770
H101	H	2.448676	0.762904	0.175346
H102	H	2.290489	0.889125	0.121347
C103	C	2.326493	1.106866	0.274803
C104	C	2.406091	1.001358	0.228846
H105	H	2.340192	1.200968	0.284715
H106	H	2.336603	1.050771	0.372238
H107	H	2.248679	1.140443	0.198610
H108	H	2.483901	0.967767	0.305047
H109	H	2.395994	1.057451	0.131424
H110	H	2.607705	0.599427	0.364139
H111	H	2.301199	0.569494	0.395081
H112	H	2.395999	0.260877	0.432610
