data_functionalizedCrystal
_audit_creation_method	'MofGen! by Chris Wilmer'
_symmetry_space_group_name_H-M	'P1'
_symmetry_Int_Tables_number	1
_symmetry_cell_setting	triclinic
loop_
_symmetry_equiv_pos_as_xyz
  x,y,z
_cell_length_a	19.121102
_cell_length_b	21.295411
_cell_length_c	19.121063
_cell_angle_alpha	92.420548
_cell_angle_beta	90.126902
_cell_angle_gamma	87.537204
loop_
_atom_site_label
_atom_site_type_symbol
_atom_site_fract_x
_atom_site_fract_y
_atom_site_fract_z
Zn1	Zn	1.059887	-0.408812	-0.324993
Zn2	Zn	1.393220	-0.075478	0.008341
Zn3	Zn	1.726553	0.257855	0.341674
Zn4	Zn	1.054784	-0.307825	-0.442209
Zn5	Zn	1.388117	0.025508	-0.108876
Zn6	Zn	1.721450	0.358842	0.224458
Zn7	Zn	0.942639	-0.298888	-0.319983
Zn8	Zn	1.275972	0.034445	0.013351
Zn9	Zn	1.609306	0.367779	0.346684
Zn10	Zn	0.937611	-0.408390	-0.437183
Zn11	Zn	1.270945	-0.075057	-0.103850
Zn12	Zn	1.604278	0.258276	0.229484
O13	O	0.998730	-0.355979	-0.381092
O14	O	1.332064	-0.022646	-0.047759
O15	O	1.665397	0.310688	0.285575
O16	O	1.157315	-0.399332	-0.344742
O17	O	1.490648	-0.065999	-0.011409
O18	O	1.823982	0.267335	0.321925
O19	O	1.039876	-0.218549	-0.426002
O20	O	1.373209	0.114784	-0.092669
O21	O	1.706542	0.448117	0.240665
O22	O	0.962432	-0.309906	-0.222543
O23	O	1.295765	0.023427	0.110790
O24	O	1.629099	0.356761	0.444124
O25	O	1.153566	-0.325138	-0.430860
O26	O	1.486899	0.008196	-0.097527
O27	O	1.820233	0.341529	0.235806
O28	O	1.048573	-0.390666	-0.226224
O29	O	1.381906	-0.057333	0.107109
O30	O	1.715240	0.276000	0.440443
O31	O	0.957484	-0.211983	-0.336203
O32	O	1.290817	0.121350	-0.002869
O33	O	1.624150	0.454683	0.330464
O34	O	0.843867	-0.309497	-0.331329
O35	O	1.177200	0.023836	0.002004
O36	O	1.510533	0.357169	0.335338
O37	O	0.953863	-0.496537	-0.422294
O38	O	1.287196	-0.163203	-0.088961
O39	O	1.620530	0.170130	0.244373
O40	O	0.840173	-0.389948	-0.417436
O41	O	1.173506	-0.056615	-0.084103
O42	O	1.506840	0.276718	0.249231
O43	O	1.043698	-0.496846	-0.339868
O44	O	1.377031	-0.163513	-0.006535
O45	O	1.710365	0.169820	0.326798
O46	O	1.035001	-0.324729	-0.539647
O47	O	1.368334	0.008604	-0.206313
O48	O	1.701667	0.341938	0.127020
O49	O	0.948915	-0.398614	-0.535954
O50	O	1.282248	-0.065281	-0.202621
O51	O	1.615582	0.268053	0.130713
C52	C	0.816582	-0.348708	-0.373294
C53	C	1.149916	-0.015374	-0.039961
C54	C	1.483249	0.317959	0.293373
C55	C	0.738658	-0.345613	-0.369975
C56	C	1.071991	-0.012279	-0.036641
C57	C	1.405324	0.321054	0.296692
C58	C	0.700141	-0.385984	-0.413314
C59	C	1.033474	-0.052651	-0.079981
C60	C	1.366808	0.280682	0.253352
C61	C	0.626923	-0.383079	-0.410186
C62	C	0.960257	-0.049745	-0.076853
C63	C	1.293590	0.283588	0.256480
C64	C	0.592223	-0.339798	-0.363722
C65	C	0.925557	-0.006465	-0.030389
C66	C	1.258890	0.326869	0.302945
C67	C	0.630745	-0.299425	-0.320378
C68	C	0.964079	0.033909	0.012955
C69	C	1.297412	0.367242	0.346289
C70	C	0.703962	-0.302334	-0.323503
C71	C	1.037295	0.031000	0.009831
C72	C	1.370629	0.364333	0.343164
C73	C	0.371252	-0.328925	-0.352038
C74	C	0.704585	0.004408	-0.018704
C75	C	1.037918	0.337741	0.314629
C76	C	0.298030	-0.326018	-0.348918
C77	C	0.631363	0.007315	-0.015584
C78	C	0.964696	0.340649	0.317749
C79	C	0.294213	-0.409673	-0.438725
C80	C	0.627546	-0.076340	-0.105392
C81	C	0.960879	0.256994	0.227941
C82	C	0.367431	-0.412576	-0.441849
C83	C	0.700764	-0.079242	-0.108516
C84	C	1.034098	0.254091	0.224818
C85	C	0.405947	-0.372205	-0.398502
C86	C	0.739280	-0.038871	-0.065169
C87	C	1.072613	0.294462	0.268164
C88	C	0.517383	-0.336826	-0.360525
C89	C	0.850716	-0.003493	-0.027192
C90	C	1.184049	0.329841	0.306141
C91	C	0.480786	-0.375180	-0.401696
C92	C	0.814119	-0.041847	-0.068363
C93	C	1.147453	0.291486	0.264971
C94	C	0.998789	-0.520171	-0.381080
C95	C	1.332122	-0.186838	-0.047746
C96	C	1.665456	0.146496	0.285587
C97	C	0.998814	-0.590140	-0.381074
C98	C	1.332147	-0.256806	-0.047741
C99	C	1.665481	0.076527	0.285592
C100	C	1.045589	-0.623169	-0.338153
C101	C	1.378923	-0.289835	-0.004820
C102	C	1.712256	0.043498	0.328513
C103	C	1.045590	-0.688910	-0.338123
C104	C	1.378923	-0.355577	-0.004789
C105	C	1.712256	-0.022243	0.328544
C106	C	0.998822	-0.721621	-0.381026
C107	C	1.332155	-0.388288	-0.047693
C108	C	1.665488	-0.054954	0.285640
C109	C	0.952037	-0.688584	-0.423950
C110	C	1.285371	-0.355251	-0.090617
C111	C	1.618704	-0.021917	0.242717
C112	C	0.952034	-0.622843	-0.423974
C113	C	1.285367	-0.289510	-0.090641
C114	C	1.618700	0.043823	0.242692
N115	N	0.990800	-0.826867	-0.442125
N116	N	1.324133	-0.493533	-0.108792
N117	N	1.657466	-0.160200	0.224542
N118	N	0.990807	-0.889317	-0.442100
N119	N	1.324141	-0.555984	-0.108767
N120	N	1.657474	-0.222651	0.224566
C121	C	0.998829	-0.919693	-0.380955
C122	C	1.332162	-0.586360	-0.047622
C123	C	1.665496	-0.253027	0.285711
N124	N	1.006856	-0.885260	-0.319835
N125	N	1.340190	-0.551926	0.013498
N126	N	1.673523	-0.218593	0.346832
N127	N	1.006852	-0.822803	-0.319861
N128	N	1.340186	-0.489470	0.013473
N129	N	1.673519	-0.156136	0.346806
C130	C	0.998820	-0.792905	-0.381005
C131	C	1.332153	-0.459572	-0.047671
C132	C	1.665487	-0.126239	0.285662
C133	C	1.045607	-1.024006	-0.337998
C134	C	1.378941	-0.690673	-0.004664
C135	C	1.712274	-0.357340	0.328669
C136	C	1.045603	-1.089749	-0.337966
C137	C	1.378936	-0.756415	-0.004632
C138	C	1.712269	-0.423082	0.328701
C139	C	0.952054	-1.089422	-0.423800
C140	C	1.285387	-0.756088	-0.090466
C141	C	1.618721	-0.422755	0.242867
C142	C	0.952055	-1.023680	-0.423825
C143	C	1.285388	-0.690347	-0.090492
C144	C	1.618722	-0.357014	0.242842
C145	C	0.998835	-0.990977	-0.380925
C146	C	1.332169	-0.657643	-0.047592
C147	C	1.665502	-0.324310	0.285742
C148	C	1.181589	-0.363279	-0.388921
C149	C	1.514923	-0.029945	-0.055587
C150	C	1.848256	0.303388	0.277746
C151	C	1.259513	-0.366390	-0.392257
C152	C	1.592846	-0.033056	-0.058924
C153	C	1.926180	0.300277	0.274410
C154	C	0.990878	-0.362610	-0.563238
C155	C	1.324211	-0.029277	-0.229905
C156	C	1.657544	0.304057	0.103428
C157	C	0.987582	-0.365471	-0.641164
C158	C	1.320916	-0.032137	-0.307831
C159	C	1.654249	0.301196	0.025502
C160	C	0.998714	-0.192425	-0.381055
C161	C	1.332047	0.140908	-0.047722
C162	C	1.665381	0.474241	0.285611
C163	C	0.998833	-0.122455	-0.380869
C164	C	1.332167	0.210878	-0.047535
C165	C	1.665500	0.544212	0.285798
C166	C	1.030889	-0.328381	-0.679675
C167	C	1.364223	0.004952	-0.346341
C168	C	1.697556	0.338285	-0.013008
C169	C	1.027794	-0.331075	-0.752894
C170	C	1.361128	0.002258	-0.419561
C171	C	1.694461	0.335591	-0.086228
C172	C	0.981388	-0.370856	-0.787602
C173	C	1.314722	-0.037523	-0.454269
C174	C	1.648055	0.295811	-0.120935
C175	C	0.938079	-0.407950	-0.749086
C176	C	1.271413	-0.074616	-0.415753
C177	C	1.604746	0.258717	-0.082420
C178	C	0.941179	-0.405258	-0.675868
C179	C	1.274512	-0.071925	-0.342535
C180	C	1.607845	0.261408	-0.009201
C181	C	0.969790	-0.380908	-1.008578
C182	C	1.303124	-0.047574	-0.675245
C183	C	1.636457	0.285759	-0.341912
C184	C	0.966693	-0.383595	-1.081802
C185	C	1.300026	-0.050261	-0.748468
C186	C	1.633360	0.283072	-0.415135
C187	C	1.056409	-0.306721	-1.085605
C188	C	1.389743	0.026612	-0.752271
C189	C	1.723076	0.359945	-0.418938
C190	C	1.059501	-0.304031	-1.012385
C191	C	1.392835	0.029303	-0.679052
C192	C	1.726168	0.362636	-0.345718
C193	C	1.016195	-0.341127	-0.973876
C194	C	1.349528	-0.007793	-0.640542
C195	C	1.682862	0.325540	-0.307209
C196	C	0.978222	-0.373609	-0.862444
C197	C	1.311555	-0.040276	-0.529111
C198	C	1.644889	0.293057	-0.195777
C199	C	1.019365	-0.338376	-0.899035
C200	C	1.352699	-0.005043	-0.565702
C201	C	1.686032	0.328290	-0.232368
C202	C	1.006633	-0.349336	-0.198235
C203	C	1.339966	-0.016003	0.135098
C204	C	1.673299	0.317330	0.468432
C205	C	1.010000	-0.346505	-0.120312
C206	C	1.343333	-0.013172	0.213021
C207	C	1.676667	0.320161	0.546355
H208	H	0.489122	-0.301585	-0.322695
H209	H	0.822455	0.031748	0.010638
H210	H	1.155789	0.365081	0.343971
Cl211	Cl	1.117853	-0.254028	-0.968758
Cl212	Cl	1.451186	0.079305	-0.635425
Cl213	Cl	1.784519	0.412639	-0.302092
H214	H	1.057152	-0.305989	-0.870774
H215	H	1.390485	0.027344	-0.537441
H216	H	1.723819	0.360677	-0.204107
H217	H	0.913970	-0.996788	-0.458780
H218	H	1.247303	-0.663455	-0.125447
H219	H	1.580636	-0.330122	0.207886
H220	H	1.068675	-0.295985	-0.651421
H221	H	1.402008	0.037348	-0.318087
H222	H	1.735342	0.370682	0.015246
H223	H	1.063059	-0.300873	-0.784246
H224	H	1.396392	0.032460	-0.450913
H225	H	1.729726	0.365794	-0.117580
H226	H	0.509042	-0.410422	-0.439524
H227	H	0.842375	-0.077088	-0.106191
H228	H	1.175709	0.256245	0.227143
H229	H	0.913968	-1.116054	-0.458725
H230	H	1.247301	-0.782721	-0.125392
H231	H	1.580634	-0.449387	0.207942
Cl232	Cl	1.104384	-0.730439	-0.284146
Cl233	Cl	1.437717	-0.397106	0.049188
Cl234	Cl	1.771050	-0.063773	0.382521
Cl235	Cl	1.110852	-0.260094	-1.134020
Cl236	Cl	1.444186	0.073239	-0.800687
Cl237	Cl	1.777519	0.406573	-0.467354
H238	H	0.602487	-0.264187	-0.282543
H239	H	0.935820	0.069146	0.050791
H240	H	1.269154	0.402479	0.384124
Cl241	Cl	0.893241	-0.729705	-0.477883
Cl242	Cl	1.226574	-0.396372	-0.144550
Cl243	Cl	1.559907	-0.063038	0.188783
Cl244	Cl	0.908341	-0.433600	-1.125433
Cl245	Cl	1.241674	-0.100267	-0.792099
Cl246	Cl	1.575007	0.233067	-0.458766
H247	H	0.728388	-0.421226	-0.451153
H248	H	1.061722	-0.087893	-0.117820
H249	H	1.395055	0.245441	0.215514
Cl250	Cl	0.919884	-0.423617	-0.906083
Cl251	Cl	1.253217	-0.090284	-0.572749
Cl252	Cl	1.586551	0.243050	-0.239416
H253	H	0.735322	-0.269462	-0.288207
H254	H	1.068655	0.063871	0.045126
H255	H	1.401988	0.397205	0.378459
H256	H	0.402602	-0.296048	-0.316747
H257	H	0.735936	0.037286	0.016586
H258	H	1.069269	0.370619	0.349920
H259	H	0.595566	-0.415953	-0.445479
H260	H	0.928899	-0.082620	-0.112145
H261	H	1.262233	0.250714	0.221188
H262	H	0.913941	-0.595952	-0.458925
H263	H	1.247274	-0.262618	-0.125591
H264	H	1.580607	0.070715	0.207742
H265	H	0.900298	-0.440343	-0.777351
H266	H	1.233631	-0.107009	-0.444018
H267	H	1.566964	0.226324	-0.110684
Cl268	Cl	0.411048	-0.466986	-0.500266
Cl269	Cl	0.744381	-0.133653	-0.166932
Cl270	Cl	1.077715	0.199680	0.166401
Cl271	Cl	0.245789	-0.460421	-0.493216
Cl272	Cl	0.579122	-0.127088	-0.159882
Cl273	Cl	0.912456	0.206246	0.173451
Cl274	Cl	0.254408	-0.271599	-0.290506
Cl275	Cl	0.587741	0.061734	0.042827
Cl276	Cl	0.921074	0.395067	0.376161
H277	H	1.083681	-0.596545	-0.303220
H278	H	1.417014	-0.263212	0.030114
H279	H	1.750347	0.070121	0.363447
Cl280	Cl	1.104412	-0.982890	-0.284064
Cl281	Cl	1.437745	-0.649556	0.049270
Cl282	Cl	1.771078	-0.316223	0.382603
Cl283	Cl	1.104422	-1.131272	-0.284014
Cl284	Cl	1.437755	-0.797939	0.049319
Cl285	Cl	1.771089	-0.464605	0.382653
H286	H	0.905914	-0.435461	-0.644513
H287	H	1.239248	-0.102128	-0.311180
H288	H	1.572581	0.231206	0.022153
H289	H	0.934527	-0.411111	-0.977230
H290	H	1.267861	-0.077778	-0.643896
H291	H	1.601194	0.255555	-0.310563
