data_functionalizedCrystal
_audit_creation_method	'MofGen! by Chris Wilmer'
_symmetry_space_group_name_H-M	'P1'
_symmetry_Int_Tables_number	1
_symmetry_cell_setting	triclinic
loop_
_symmetry_equiv_pos_as_xyz
  x,y,z
_cell_length_a	10.654545
_cell_length_b	14.853559
_cell_length_c	9.130313
_cell_angle_alpha	90.000808
_cell_angle_beta	90.003278
_cell_angle_gamma	84.057266
loop_
_atom_site_label
_atom_site_type_symbol
_atom_site_fract_x
_atom_site_fract_y
_atom_site_fract_z
O1	O	1.666523	0.126605	0.121777
O2	O	1.300918	0.138673	0.121782
O3	O	1.493492	0.001461	0.121778
O4	O	1.473949	0.263817	0.121781
O5	O	1.493477	0.001461	-0.121821
O6	O	1.300903	0.138673	-0.121816
O7	O	1.666508	0.126605	-0.121822
Cu8	Cu	1.483704	0.132639	-0.144062
Cu9	Cu	1.483722	0.132639	0.144022
O10	O	1.473934	0.263817	-0.121818
C11	C	1.254122	0.137788	-0.000016
C12	C	1.114706	0.135140	-0.000014
C13	C	1.049206	0.133893	-0.132801
C14	C	0.918213	0.131389	-0.132801
C15	C	0.918229	0.131383	0.132784
C16	C	1.049221	0.133880	0.132783
C17	C	1.492601	-0.032132	-0.000019
C18	C	1.489953	-0.132231	-0.000011
C19	C	1.478728	-0.555466	0.132776
C20	C	1.478712	-0.555460	-0.132805
C21	C	1.481210	-0.461414	-0.132807
C22	C	1.482466	-0.414389	-0.000015
C23	C	1.481223	-0.461410	0.132778
C24	C	1.482441	-0.414384	-0.265597
C25	C	1.484938	-0.320332	-0.265604
C26	C	1.486202	-0.273306	-0.132810
C27	C	1.484960	-0.320333	-0.000012
C28	C	1.486216	-0.273308	0.132780
C29	C	1.484983	-0.320334	0.265580
C30	C	1.482487	-0.414384	0.265572
C31	C	1.488698	-0.179256	-0.132802
C32	C	1.488710	-0.179252	0.132783
C33	C	1.713304	0.127490	-0.000020
C34	C	1.852720	0.130139	-0.000013
C35	C	1.474825	0.297411	-0.000018
C36	C	1.477473	0.397509	-0.000016
N37	N	1.483701	0.132639	-0.346684
C38	C	1.559957	0.187827	-0.423331
C39	C	1.559977	0.187822	-0.576668
C40	C	1.407476	0.077438	-0.576697
C41	C	1.407463	0.077439	-0.423363
N42	N	1.483734	0.132633	0.346645
H43	H	1.102553	0.134893	0.240920
O44	O	1.333266	0.023802	-0.349126
C45	C	1.182064	-0.085726	-0.365323
C46	C	1.265998	-0.025011	-0.449579
H47	H	1.127677	-0.125221	-0.446503
H48	H	1.112693	-0.041889	-0.293585
H49	H	1.243764	-0.135067	-0.293488
H50	H	1.204399	0.024339	-0.521494
H51	H	1.335378	-0.068905	-0.521225
O52	O	0.854773	0.130225	-0.261921
C53	C	0.868599	0.130445	-0.525344
C54	C	0.940594	0.131790	-0.379216
H55	H	0.937957	0.131690	-0.620215
H56	H	0.795907	0.192271	-0.532079
H57	H	0.818631	0.066306	-0.531912
H58	H	0.990637	0.195887	-0.372550
H59	H	1.013215	0.069920	-0.372543
H60	H	1.102520	0.134918	-0.240932
O61	O	1.481220	-0.460198	0.394432
C62	C	1.477442	-0.605098	0.512119
C63	C	1.478851	-0.553320	0.366085
H64	H	1.475553	-0.680398	0.489251
H65	H	1.390096	-0.578965	0.577622
H66	H	1.565735	-0.594262	0.577607
H67	H	1.390618	-0.564133	0.300479
H68	H	1.566255	-0.579463	0.300692
O69	O	1.490116	-0.133538	0.261730
C70	C	1.601525	-0.036793	0.415830
C71	C	1.600130	-0.088549	0.269771
H72	H	1.690448	-0.000390	0.422365
H73	H	1.600282	-0.086510	0.510815
H74	H	1.514813	0.014893	0.422396
H75	H	1.686826	-0.140234	0.263062
H76	H	1.601308	-0.038776	0.174855
O77	O	1.477294	-0.601171	0.261724
C78	C	1.365798	-0.697878	0.415777
C79	C	1.367256	-0.646135	0.269713
H80	H	1.276855	-0.734260	0.422271
H81	H	1.367035	-0.648155	0.510758
H82	H	1.452489	-0.749580	0.422392
H83	H	1.280581	-0.594433	0.262955
H84	H	1.366084	-0.695913	0.174802
O85	O	1.633948	0.241568	-0.349006
C86	C	1.683183	0.393637	-0.302018
C87	C	1.599316	0.332880	-0.386302
H88	H	1.655197	0.467476	-0.332118
H89	H	1.786282	0.374296	-0.332178
H90	H	1.670102	0.384114	-0.179266
H91	H	1.612288	0.342371	-0.509073
H92	H	1.496249	0.352236	-0.356020
H93	H	1.485996	-0.282033	0.373699
H94	H	0.864896	0.130359	0.240902
O95	O	1.486094	-0.274511	-0.394467
C96	C	1.490027	-0.129631	-0.512173
C97	C	1.488685	-0.181408	-0.366132
H98	H	1.492148	-0.054350	-0.489315
H99	H	1.401696	-0.140344	-0.577680
H100	H	1.577328	-0.155886	-0.577653
H101	H	1.401442	-0.155186	-0.300535
H102	H	1.577073	-0.170695	-0.300737
H103	H	1.477682	-0.593753	-0.240918
H104	H	1.481412	-0.452678	-0.373709
H105	H	1.489673	-0.140969	-0.240926
H106	H	1.622074	0.232761	-0.639067
H107	H	1.345404	0.032497	-0.639148
