data_functionalizedCrystal
_audit_creation_method	'MofGen! by Chris Wilmer'
_symmetry_space_group_name_H-M	'P1'
_symmetry_Int_Tables_number	1
_symmetry_cell_setting	triclinic
loop_
_symmetry_equiv_pos_as_xyz
  x,y,z
_cell_length_a	19.188925
_cell_length_b	19.188930
_cell_length_c	16.176319
_cell_angle_alpha	89.988074
_cell_angle_beta	89.991631
_cell_angle_gamma	83.143665
loop_
_atom_site_label
_atom_site_type_symbol
_atom_site_fract_x
_atom_site_fract_y
_atom_site_fract_z
O1	O	0.926150	0.087151	-0.068774
O2	O	1.426150	0.587151	0.431226
O3	O	0.722838	0.098889	-0.068773
O4	O	1.222838	0.598889	0.431227
O5	O	0.830361	-0.008635	-0.068757
O6	O	1.330361	0.491365	0.431243
O7	O	0.818627	0.194676	-0.068789
O8	O	1.318627	0.694676	0.431211
O9	O	0.830346	-0.008642	0.068736
O10	O	1.330346	0.491358	0.568736
O11	O	0.722823	0.098883	0.068721
O12	O	1.222823	0.598883	0.568721
O13	O	0.926135	0.087144	0.068720
O14	O	1.426135	0.587144	0.568720
Cu15	Cu	0.824478	0.093013	0.081274
Cu16	Cu	1.324478	0.593013	0.581274
Cu17	Cu	0.824495	0.093021	-0.081327
Cu18	Cu	1.324495	0.593021	0.418673
O19	O	0.818612	0.194669	0.068704
O20	O	1.318612	0.694669	0.568704
C21	C	0.696820	0.098507	-0.000026
C22	C	1.196820	0.598507	0.499974
C23	C	0.619315	0.097367	-0.000025
C24	C	1.119315	0.597367	0.499975
C25	C	0.057545	0.152831	-0.000035
C26	C	0.557545	0.652831	0.499965
C27	C	0.130368	0.153908	-0.000040
C28	C	0.630368	0.653908	0.499960
C29	C	0.175302	0.090816	-0.000028
C30	C	0.675302	0.590816	0.499972
C31	C	0.147408	0.026642	-0.000033
C32	C	0.647408	0.526642	0.499967
C33	C	0.074586	0.025568	-0.000037
C34	C	0.574586	0.525568	0.499963
N35	N	0.295975	0.045137	0.046783
N36	N	0.795975	0.545137	0.546783
N37	N	0.365152	0.046162	0.046788
N38	N	0.865152	0.546162	0.546788
C39	C	0.394712	0.094050	-0.000019
C40	C	0.894712	0.594050	0.499981
N41	N	0.352479	0.140884	-0.046821
N42	N	0.852479	0.640884	0.453179
N43	N	0.283295	0.139861	-0.046823
N44	N	0.783295	0.639861	0.453177
C45	C	0.254267	0.091974	-0.000025
C46	C	0.754267	0.591974	0.499975
C47	C	0.501561	0.159386	-0.000025
C48	C	1.001561	0.659386	0.499975
C49	C	0.574385	0.160460	-0.000035
C50	C	1.074385	0.660460	0.499965
C51	C	0.591425	0.033193	-0.000020
C52	C	1.091425	0.533193	0.499980
C53	C	0.518601	0.032121	-0.000018
C54	C	1.018601	0.532121	0.499982
C55	C	0.473673	0.095220	-0.000017
C56	C	0.973673	0.595220	0.499983
C57	C	0.829974	-0.034650	-0.000008
C58	C	1.329974	0.465350	0.499992
C59	C	0.828833	-0.112154	-0.000001
C60	C	1.328833	0.387846	0.499999
C61	C	0.891924	-0.157079	0.000003
C62	C	1.391924	0.342921	0.500003
C63	C	0.890852	-0.229903	-0.000010
C64	C	1.390852	0.270097	0.499990
C65	C	0.826686	-0.257799	-0.000011
C66	C	1.326686	0.242201	0.499989
C67	C	0.763587	-0.212864	-0.000019
C68	C	1.263587	0.287136	0.499981
C69	C	0.764660	-0.140041	-0.000014
C70	C	1.264660	0.359959	0.499986
N71	N	0.777634	-0.365805	0.046781
N72	N	1.277634	0.134195	0.546781
N73	N	0.776618	-0.434984	0.046778
N74	N	1.276618	0.065016	0.546778
C75	C	0.823448	-0.477207	-0.000027
C76	C	1.323448	0.022793	0.499973
N77	N	0.871342	-0.447640	-0.046820
N78	N	1.371342	0.052360	0.453180
N79	N	0.872360	-0.378456	-0.046813
N80	N	1.372360	0.121544	0.453187
C81	C	0.825515	-0.336761	-0.000017
C82	C	1.325515	0.163239	0.499983
C83	C	0.885381	-0.601097	-0.000039
C84	C	1.385381	-0.101097	0.499961
C85	C	0.884307	-0.673922	-0.000058
C86	C	1.384307	-0.173922	0.499942
C87	C	0.757040	-0.656880	-0.000058
C88	C	1.257040	-0.156880	0.499942
C89	C	0.758116	-0.584057	-0.000048
C90	C	1.258116	-0.084057	0.499952
C91	C	0.822289	-0.556170	-0.000035
C92	C	1.322289	-0.056170	0.499965
C93	C	0.952154	0.087527	-0.000029
C94	C	1.452154	0.587527	0.499971
C95	C	1.029658	0.088666	-0.000036
C96	C	1.529658	0.588666	0.499964
C97	C	0.819000	0.220684	-0.000047
C98	C	1.319000	0.720684	0.499953
C99	C	0.820140	0.298188	-0.000059
C100	C	1.320140	0.798188	0.499941
N101	N	0.824471	0.093007	0.195640
N102	N	1.324471	0.593007	0.695640
N103	N	0.824508	0.093021	-0.195693
N104	N	1.324508	0.593021	0.304307
C105	C	0.872096	0.045414	0.238911
C106	C	1.372096	0.545414	0.738911
C107	C	0.872100	0.045413	0.325458
C108	C	1.372100	0.545413	0.825458
C109	C	0.824481	0.093009	0.368732
C110	C	1.324481	0.593009	0.868732
C111	C	0.776850	0.140604	0.325455
C112	C	1.276850	0.640604	0.825455
C113	C	0.776844	0.140601	0.238909
C114	C	1.276844	0.640601	0.738909
C115	C	0.776874	0.140617	0.674483
C116	C	1.276874	0.640617	1.174483
C117	C	0.776885	0.140618	0.761035
C118	C	1.276885	0.640618	1.261035
C119	C	0.872130	0.045430	0.761031
C120	C	1.372130	0.545430	1.261031
C121	C	0.872124	0.045426	0.674486
C122	C	1.372124	0.545426	1.174486
C123	C	0.824491	0.093019	0.631216
C124	C	1.324491	0.593019	1.131216
C125	C	0.824487	0.093018	0.537372
C126	C	1.324487	0.593018	1.037372
C127	C	0.824488	0.093014	0.462575
C128	C	1.324488	0.593014	0.962575
H129	H	0.597088	0.212713	-0.000041
H130	H	1.097088	0.712713	0.499959
H131	H	0.738106	0.179378	0.796267
H132	H	1.238106	0.679378	1.296267
H133	H	0.628010	-0.018178	-0.000017
H134	H	1.128010	0.481822	0.499983
H135	H	0.020968	0.204211	-0.000038
H136	H	0.520968	0.704211	0.499962
H137	H	0.937635	-0.578390	-0.000032
H138	H	1.437635	-0.078390	0.499968
H139	H	0.495896	-0.020129	-0.000014
H140	H	0.995896	0.479871	0.499986
H141	H	0.738091	0.179370	0.639260
H142	H	1.238091	0.679370	1.139260
H143	H	0.738074	0.179355	0.360694
H144	H	1.238074	0.679355	0.860694
H145	H	0.910880	0.006659	0.360689
H146	H	1.410880	0.506659	0.860689
H147	H	0.944179	-0.134379	0.000011
H148	H	1.444179	0.365621	0.500011
H149	H	0.738062	0.179355	0.203679
H150	H	1.238062	0.679355	0.703679
H151	H	0.942230	-0.266488	-0.000011
H152	H	1.442230	0.233512	0.499989
H153	H	0.711342	-0.235581	-0.000021
H154	H	1.211342	0.264419	0.499979
H155	H	0.935686	-0.710500	-0.000059
H156	H	1.435686	-0.210500	0.499941
H157	H	0.153078	0.206160	-0.000032
H158	H	0.653078	0.706160	0.499968
H159	H	0.704794	-0.679592	-0.000062
H160	H	1.204794	-0.179592	0.499938
H161	H	0.706740	-0.547478	-0.000046
H162	H	1.206740	-0.047478	0.499954
H163	H	0.183999	-0.024728	-0.000026
H164	H	0.683999	0.475272	0.499974
H165	H	0.713282	-0.103462	-0.000017
H166	H	1.213282	0.396538	0.499983
H167	H	0.910876	0.006659	0.203682
H168	H	1.410876	0.506659	0.703682
H169	H	0.910902	0.006672	0.639255
H170	H	1.410902	0.506672	1.139255
H171	H	0.910913	0.006675	0.796271
H172	H	1.410913	0.506675	1.296271
H173	H	0.051883	-0.026685	-0.000038
H174	H	0.551883	0.473315	0.499962
H175	H	0.464978	0.210765	-0.000025
H176	H	0.964978	0.710765	0.499975
