data_functionalizedCrystal
_audit_creation_method	'MofGen! by Chris Wilmer'
_symmetry_space_group_name_H-M	'P1'
_symmetry_Int_Tables_number	1
_symmetry_cell_setting	triclinic
loop_
_symmetry_equiv_pos_as_xyz
  x,y,z
_cell_length_a	14.044191
_cell_length_b	9.130313
_cell_length_c	10.654550
_cell_angle_alpha	89.998357
_cell_angle_beta	91.161660
_cell_angle_gamma	90.002434
loop_
_atom_site_label
_atom_site_type_symbol
_atom_site_fract_x
_atom_site_fract_y
_atom_site_fract_z
O1	O	1.259701	0.121721	-0.303025
O2	O	0.983660	0.121740	-0.292082
O3	O	1.128027	0.121725	-0.115452
O4	O	1.115334	0.121736	-0.479655
O5	O	1.128013	-0.121874	-0.115452
O6	O	0.983646	-0.121859	-0.292082
O7	O	1.259687	-0.121878	-0.303025
Cu8	Cu	1.121665	-0.144111	-0.297553
Cu9	Cu	1.121682	0.143973	-0.297554
O10	O	1.115320	-0.121862	-0.479654
C11	C	0.948307	-0.000057	-0.287295
C12	C	0.842987	-0.000050	-0.273016
N13	N	1.121661	-0.346733	-0.297553
C14	C	1.057726	-0.423416	-0.375726
C15	C	1.057745	-0.576753	-0.375726
C16	C	1.185635	-0.576711	-0.219368
C17	C	1.185620	-0.423377	-0.219376
C18	C	0.993766	-0.346773	-0.453903
C19	C	0.929826	-0.423456	-0.532082
C20	C	0.929844	-0.576793	-0.532081
C21	C	0.993803	-0.653447	-0.453902
C22	C	0.593195	-0.000062	-0.348181
C23	C	0.650158	-0.000063	-0.246931
C24	C	0.757458	-0.000056	-0.261448
C25	C	0.485885	-0.000069	-0.333666
C26	C	1.295040	-0.000077	-0.307812
C27	C	1.400360	-0.000075	-0.322091
C28	C	1.127088	-0.000073	-0.068560
C29	C	1.124300	-0.000068	0.071163
N30	N	1.121694	0.346596	-0.297545
C31	C	1.116259	-0.000062	-0.526546
C32	C	1.119047	-0.000057	-0.666270
C33	C	1.209301	-0.000078	0.142104
C34	C	1.206675	-0.000067	0.273389
C35	C	1.034039	-0.000043	0.262779
C36	C	1.036666	-0.000043	0.131497
C37	C	1.296934	-0.000103	0.081770
C38	C	1.381943	-0.000115	0.152712
C39	C	1.379317	-0.000104	0.283997
C40	C	1.291683	-0.000082	0.344340
H41	H	0.993744	-0.221918	-0.453908
N42	N	0.864524	-0.655100	-0.611936
N43	N	0.776839	-0.637995	-0.600312
H44	H	0.730701	-0.693296	-0.656709
H45	H	0.618341	0.000037	-0.149345
H46	H	0.993819	-0.778304	-0.453918
H47	H	0.625010	-0.000055	-0.445759
N48	N	1.288982	-0.000080	0.478443
N49	N	1.210736	-0.000074	0.532300
H50	H	1.208827	-0.000078	0.627010
H51	H	1.237707	-0.639132	-0.155717
N52	N	0.944538	-0.000017	0.324435
N53	N	0.942206	-0.000017	0.441651
H54	H	0.878994	-0.000002	0.485196
N55	N	1.250814	-0.345060	-0.139349
N56	N	1.307829	-0.413505	-0.069432
H57	H	1.353830	-0.358194	-0.012847
N58	N	1.299635	-0.000127	-0.052331
N59	N	1.377881	-0.000155	-0.106190
H60	H	1.379788	-0.000177	-0.200900
H61	H	1.453291	-0.000096	0.103572
H62	H	0.967451	-0.000036	0.073735
H63	H	1.448535	-0.000099	0.341754
H64	H	0.877758	-0.361036	-0.595740
