data_functionalizedCrystal
_audit_creation_method	'MofGen! by Chris Wilmer'
_symmetry_space_group_name_H-M	'P1'
_symmetry_Int_Tables_number	1
_symmetry_cell_setting	triclinic
loop_
_symmetry_equiv_pos_as_xyz
  x,y,z
_cell_length_a	12.759401
_cell_length_b	17.640280
_cell_length_c	12.759393
_cell_angle_alpha	78.768965
_cell_angle_beta	89.979062
_cell_angle_gamma	78.802151
loop_
_atom_site_label
_atom_site_type_symbol
_atom_site_fract_x
_atom_site_fract_y
_atom_site_fract_z
Zn1	Zn	1.690818	-0.314597	-0.509562
Zn2	Zn	1.726238	-0.446790	-0.298393
Zn3	Zn	1.515128	-0.314639	-0.333886
Zn4	Zn	1.550623	-0.446735	-0.474045
O5	O	1.620702	-0.380691	-0.403971
O6	O	1.842539	-0.332138	-0.481560
O7	O	1.698203	-0.429301	-0.156069
O8	O	1.508756	-0.204028	-0.386908
O9	O	1.868562	-0.429260	-0.326415
O10	O	1.637835	-0.203997	-0.515976
O11	O	1.543101	-0.332210	-0.182146
O12	O	1.372814	-0.332157	-0.352468
O13	O	1.569251	-0.429166	-0.625788
O14	O	1.398892	-0.429207	-0.455443
O15	O	1.672252	-0.332085	-0.651883
O16	O	1.732620	-0.557389	-0.291976
O17	O	1.603596	-0.557349	-0.421027
C18	C	1.347732	-0.380681	-0.403953
C19	C	1.230959	-0.380696	-0.403965
C20	C	1.189724	-0.431307	-0.457458
C21	C	1.080001	-0.431310	-0.457478
C22	C	1.052757	-0.330089	-0.350505
C23	C	1.162477	-0.330082	-0.350491
C24	C	1.675832	-0.586048	-0.348819
C25	C	1.699513	-0.673900	-0.325259
C26	C	1.441231	-0.962869	-0.583333
C27	C	1.463485	-1.045420	-0.561162
C28	C	1.597921	-1.045396	-0.426917
C29	C	1.575682	-0.962844	-0.449081
C30	C	1.497335	-0.921586	-0.527289
C31	C	1.631786	-0.921561	-0.393036
C32	C	1.609545	-0.839016	-0.415195
C33	C	1.531199	-0.797753	-0.493397
C34	C	1.475094	-0.839041	-0.549447
C35	C	1.710127	-0.962820	-0.314823
C36	C	1.766231	-0.921538	-0.258779
C37	C	1.743996	-0.838991	-0.280942
C38	C	1.665650	-0.797728	-0.359145
C39	C	1.800101	-0.797703	-0.224892
C40	C	1.777860	-0.715158	-0.247051
C41	C	1.643409	-0.715183	-0.381303
C42	C	1.894738	-0.380701	-0.403990
C43	C	2.011516	-0.380705	-0.403998
C44	C	1.620760	-0.380615	-0.678025
C45	C	1.620785	-0.380582	-0.794811
C46	C	1.565385	-0.174531	-0.459363
C47	C	1.541813	-0.086679	-0.482967
C48	C	1.674420	-0.330024	-0.863264
C49	C	1.674429	-0.329990	-0.972997
C50	C	1.567166	-0.431079	-0.945813
C51	C	1.567151	-0.431109	-0.836083
C52	C	1.620689	-0.380709	-0.130999
C53	C	1.620808	-0.380519	-0.014274
H54	H	1.046433	-0.472521	-0.501038
C55	C	1.732617	-0.275245	-0.818243
C56	C	1.721149	-0.286103	-0.707490
C57	C	1.774753	-0.235657	-0.665983
H58	H	1.703046	-0.222103	-0.850378
H59	H	1.806340	-0.286814	-0.833065
H60	H	1.647441	-0.274528	-0.692676
H61	H	1.750724	-0.339235	-0.675327
H62	H	1.848476	-0.247226	-0.680806
H63	H	1.745177	-0.182518	-0.698126
H64	H	1.766987	-0.243022	-0.590833
H65	H	1.718102	-0.288819	-1.028728
H66	H	1.579618	-0.681589	-0.444996
C67	C	1.402495	-1.090099	-0.622175
C68	C	1.329144	-1.036296	-0.695426
C69	C	1.272954	-1.077425	-0.751657
H70	H	1.365336	-1.122349	-0.573408
H71	H	1.451299	-1.122238	-0.659418
H72	H	1.280347	-1.004171	-0.658185
H73	H	1.366275	-1.004044	-0.744215
H74	H	1.321758	-1.109564	-0.788900
H75	H	1.235801	-1.109674	-0.702881
H76	H	1.223186	-1.040926	-0.801370
C77	C	1.509051	-0.485909	-0.990822
C78	C	1.520567	-0.475079	-1.101566
C79	C	1.467059	-0.525584	-1.143059
H80	H	1.435324	-0.474392	-0.976051
H81	H	1.538687	-0.539038	-0.958626
H82	H	1.490926	-0.421962	-1.133752
H83	H	1.594281	-0.486601	-1.116367
H84	H	1.496695	-0.578713	-1.110864
H85	H	1.393335	-0.514063	-1.128281
H86	H	1.474873	-0.518248	-1.218202
H87	H	1.523467	-0.472279	-0.780346
H88	H	1.411304	-0.805448	-0.613140
C89	C	1.263993	-0.486152	-0.515726
C90	C	1.232774	-0.469019	-0.624318
C91	C	1.301171	-0.519518	-0.678035
H92	H	1.260312	-0.539275	-0.486112
H93	H	1.335254	-0.478895	-0.508131
H94	H	1.161532	-0.476282	-0.631907
H95	H	1.236461	-0.415905	-0.653962
H96	H	1.372432	-0.512261	-0.670440
H97	H	1.297484	-0.572637	-0.648413
H98	H	1.280005	-0.507895	-0.751722
C99	C	0.978237	-0.275227	-0.292464
C100	C	0.873326	-0.286078	-0.303900
C101	C	0.804654	-0.235559	-0.250434
H102	H	0.981838	-0.222102	-0.322159
H103	H	0.999212	-0.286734	-0.218731
H104	H	0.852357	-0.274565	-0.377618
H105	H	0.869691	-0.339192	-0.274199
H106	H	0.825629	-0.247066	-0.176701
H107	H	0.808264	-0.182438	-0.280135
H108	H	0.733466	-0.242920	-0.258178
H109	H	1.823545	-0.681545	-0.201412
H110	H	1.661708	-1.078999	-0.363237
H111	H	1.513085	-0.730539	-0.511429
H112	H	1.196049	-0.288864	-0.306933
H113	H	1.728236	-1.030034	-0.296788
C114	C	1.356248	-0.917924	-0.668249
C115	C	1.348800	-0.836799	-0.675670
C116	C	1.270540	-0.795372	-0.753887
H117	H	1.289253	-0.931403	-0.649264
H118	H	1.375222	-0.931365	-0.735269
H119	H	1.329821	-0.823364	-0.608665
H120	H	1.415775	-0.823296	-0.694669
H121	H	1.289514	-0.808812	-0.820907
H122	H	1.203551	-0.808857	-0.734895
H123	H	1.265483	-0.740324	-0.758940
C124	C	1.851274	-0.966478	-0.173932
C125	C	1.858756	-1.047604	-0.166529
C126	C	1.937091	-1.089025	-0.088383
H127	H	1.832382	-0.953076	-0.106887
H128	H	1.918241	-0.952955	-0.193002
H129	H	1.791804	-1.061122	-0.147452
H130	H	1.877662	-1.061030	-0.233553
H131	H	2.004057	-1.075502	-0.107454
H132	H	1.918191	-1.075617	-0.021344
H133	H	1.942184	-1.144073	-0.083357
C134	C	1.885294	-0.842405	-0.140066
C135	C	1.983806	-0.822252	-0.168423
C136	C	2.062306	-0.863409	-0.090297
H137	H	1.890642	-0.897490	-0.134826
H138	H	1.866378	-0.828896	-0.073071
H139	H	2.002719	-0.835766	-0.235399
H140	H	1.978494	-0.767174	-0.173655
H141	H	2.043390	-0.849900	-0.023302
H142	H	2.067644	-0.918491	-0.085063
H143	H	2.129153	-0.849735	-0.109521
