data_functionalizedCrystal
_audit_creation_method	'MofGen! by Chris Wilmer'
_symmetry_space_group_name_H-M	'P1'
_symmetry_Int_Tables_number	1
_symmetry_cell_setting	triclinic
loop_
_symmetry_equiv_pos_as_xyz
  x,y,z
_cell_length_a	19.188933
_cell_length_b	27.732064
_cell_length_c	18.266242
_cell_angle_alpha	89.997719
_cell_angle_beta	89.992377
_cell_angle_gamma	82.897496
loop_
_atom_site_label
_atom_site_type_symbol
_atom_site_fract_x
_atom_site_fract_y
_atom_site_fract_z
O1	O	0.925769	0.060352	-0.060850
O2	O	1.175769	0.310352	0.189150
O3	O	1.425769	0.560352	0.439150
O4	O	1.675769	0.810352	0.689150
O5	O	0.722406	0.068475	-0.060856
O6	O	0.972406	0.318475	0.189144
O7	O	1.222406	0.568475	0.439144
O8	O	1.472406	0.818475	0.689144
O9	O	0.830397	-0.005964	-0.060856
O10	O	1.080397	0.244036	0.189144
O11	O	1.330397	0.494036	0.439144
O12	O	1.580397	0.744036	0.689144
O13	O	0.817778	0.134790	-0.060850
O14	O	1.067778	0.384790	0.189150
O15	O	1.317778	0.634790	0.439150
O16	O	1.567778	0.884790	0.689150
O17	O	0.830379	-0.005967	0.060906
O18	O	1.080379	0.244033	0.310906
O19	O	1.330379	0.494033	0.560906
O20	O	1.580379	0.744033	0.810906
O21	O	0.722388	0.068471	0.060906
O22	O	0.972388	0.318471	0.310906
O23	O	1.222388	0.568471	0.560906
O24	O	1.472388	0.818471	0.810906
O25	O	0.925750	0.060348	0.060912
O26	O	1.175750	0.310348	0.310912
O27	O	1.425750	0.560348	0.560912
O28	O	1.675750	0.810348	0.810912
Zn29	Zn	0.824066	0.064409	0.080241
Zn30	Zn	1.074066	0.314409	0.330241
Zn31	Zn	1.324066	0.564409	0.580241
Zn32	Zn	1.574066	0.814409	0.830241
Zn33	Zn	0.824090	0.064414	-0.080185
Zn34	Zn	1.074090	0.314414	0.169815
Zn35	Zn	1.324090	0.564414	0.419815
Zn36	Zn	1.574090	0.814414	0.669815
O37	O	0.817759	0.134786	0.060912
O38	O	1.067759	0.384786	0.310912
O39	O	1.317759	0.634786	0.560912
O40	O	1.567759	0.884786	0.810912
C41	C	0.696388	0.068210	0.000024
C42	C	0.946388	0.318210	0.250024
C43	C	1.196388	0.568210	0.500024
C44	C	1.446388	0.818210	0.750024
C45	C	0.618889	0.067419	0.000022
C46	C	0.868889	0.317419	0.250022
C47	C	1.118889	0.567419	0.500022
C48	C	1.368889	0.817419	0.750022
C49	C	0.830122	-0.023973	0.000023
C50	C	1.080122	0.226027	0.250023
C51	C	1.330122	0.476027	0.500023
C52	C	1.580122	0.726027	0.750023
C53	C	0.829319	-0.077630	0.000016
C54	C	1.079319	0.172370	0.250016
C55	C	1.329319	0.422370	0.500016
C56	C	1.579319	0.672370	0.750016
C57	C	0.065678	0.061783	-0.066343
C58	C	0.315678	0.311783	0.183657
C59	C	0.565678	0.561783	0.433657
C60	C	0.815678	0.811783	0.683657
C61	C	0.138498	0.062522	-0.066346
C62	C	0.388498	0.312522	0.183654
C63	C	0.638498	0.562522	0.433654
C64	C	0.888498	0.812522	0.683654
C65	C	0.174903	0.062892	0.000026
C66	C	0.424903	0.312892	0.250026
C67	C	0.674903	0.562892	0.500026
C68	C	0.924903	0.812892	0.750026
C69	C	0.138484	0.062510	0.066406
C70	C	0.388484	0.312510	0.316406
C71	C	0.638484	0.562510	0.566406
C72	C	0.888484	0.812510	0.816406
C73	C	0.065667	0.061766	0.066407
C74	C	0.315667	0.311766	0.316407
C75	C	0.565667	0.561766	0.566407
C76	C	0.815667	0.811766	0.816407
N77	N	0.283735	0.091565	0.049431
N78	N	0.533735	0.341565	0.299431
N79	N	0.783735	0.591565	0.549431
N80	N	1.033735	0.841565	0.799431
N81	N	0.352908	0.092273	0.049426
N82	N	0.602908	0.342273	0.299426
N83	N	0.852908	0.592273	0.549426
N84	N	1.102908	0.842273	0.799426
C85	C	0.394297	0.065134	0.000028
C86	C	0.644297	0.315134	0.250028
C87	C	0.894297	0.565134	0.500028
C88	C	1.144297	0.815134	0.750028
N89	N	0.363899	0.037265	-0.049376
N90	N	0.613899	0.287265	0.200624
N91	N	0.863899	0.537265	0.450624
N92	N	1.113899	0.787265	0.700624
N93	N	0.294719	0.036559	-0.049373
N94	N	0.544719	0.286559	0.200627
N95	N	0.794719	0.536559	0.450627
N96	N	1.044719	0.786559	0.700627
C97	C	0.253861	0.063699	0.000033
C98	C	0.503861	0.313699	0.250033
C99	C	0.753861	0.563699	0.500033
C100	C	1.003861	0.813699	0.750033
C101	C	0.509667	0.066314	-0.066351
C102	C	0.759667	0.316314	0.183649
C103	C	1.009667	0.566314	0.433649
C104	C	1.259667	0.816314	0.683649
C105	C	0.582489	0.067050	-0.066351
C106	C	0.832489	0.317050	0.183649
C107	C	1.082489	0.567050	0.433649
C108	C	1.332489	0.817050	0.683649
C109	C	0.582473	0.067043	0.066403
C110	C	0.832473	0.317043	0.316403
C111	C	1.082473	0.567043	0.566403
C112	C	1.332473	0.817043	0.816403
C113	C	0.509653	0.066302	0.066401
C114	C	0.759653	0.316302	0.316401
C115	C	1.009653	0.566302	0.566401
C116	C	1.259653	0.816302	0.816401
C117	C	0.473255	0.065940	0.000022
C118	C	0.723255	0.315940	0.250022
C119	C	0.973255	0.565940	0.500022
C120	C	1.223255	0.815940	0.750022
C121	C	0.760035	-0.454915	0.000011
C122	C	1.010035	-0.204915	0.250011
C123	C	1.260035	0.045085	0.500011
C124	C	1.510035	0.295085	0.750011
C125	C	0.762990	-0.253246	0.000010
C126	C	1.012990	-0.003246	0.250010
C127	C	1.262990	0.246754	0.500010
C128	C	1.512990	0.496754	0.750010
O129	O	0.709228	-0.222158	-0.000020
O130	O	0.959228	0.027842	0.249980
O131	O	1.209228	0.277842	0.499980
O132	O	1.459228	0.527842	0.749980
N133	N	0.827027	-0.233922	0.000012
N134	N	1.077027	0.016078	0.250012
N135	N	1.327027	0.266078	0.500012
N136	N	1.577027	0.516078	0.750012
C137	C	0.890329	-0.265019	0.000009
C138	C	1.140329	-0.015019	0.250009
C139	C	1.390329	0.234981	0.500009
C140	C	1.640329	0.484981	0.750009
O141	O	0.944864	-0.243956	0.000003
O142	O	1.194864	0.006044	0.250003
O143	O	1.444864	0.256044	0.500003
O144	O	1.694864	0.506044	0.750003
C145	C	0.887373	-0.466688	0.000005
C146	C	1.137373	-0.216688	0.250005
C147	C	1.387373	0.033312	0.500005
C148	C	1.637373	0.283312	0.750005
C149	C	0.823332	-0.486008	0.000011
C150	C	1.073332	-0.236008	0.250011
C151	C	1.323332	0.013992	0.500011
C152	C	1.573332	0.263992	0.750011
C153	C	0.695999	-0.474236	0.000016
C154	C	0.945999	-0.224236	0.250016
C155	C	1.195999	0.025764	0.500016
C156	C	1.445999	0.275764	0.750016
C157	C	0.695261	-0.524650	0.000020
C158	C	0.945261	-0.274650	0.250020
C159	C	1.195261	-0.024650	0.500020
C160	C	1.445261	0.225350	0.750020
C161	C	0.758558	-0.555744	0.000020
C162	C	1.008558	-0.305744	0.250020
C163	C	1.258558	-0.055744	0.500020
C164	C	1.508558	0.194256	0.750020
C165	C	0.822594	-0.536423	0.000015
C166	C	1.072594	-0.286423	0.250015
C167	C	1.322594	-0.036423	0.500015
C168	C	1.572594	0.213577	0.750015
C169	C	0.950674	-0.497784	-0.000003
C170	C	1.200674	-0.247784	0.249997
C171	C	1.450674	0.002216	0.499997
C172	C	1.700674	0.252216	0.749997
C173	C	0.949930	-0.548204	-0.000006
C174	C	1.199930	-0.298204	0.249994
C175	C	1.449930	-0.048204	0.499994
C176	C	1.699930	0.201796	0.749994
C177	C	0.885889	-0.567524	-0.000000
C178	C	1.135889	-0.317524	0.250000
C179	C	1.385889	-0.067524	0.500000
C180	C	1.635889	0.182476	0.750000
C181	C	0.885153	-0.617930	0.000019
C182	C	1.135153	-0.367930	0.250019
C183	C	1.385153	-0.117930	0.500019
C184	C	1.635153	0.132070	0.750019
N185	N	0.821116	-0.637254	0.000017
N186	N	1.071116	-0.387254	0.250017
N187	N	1.321116	-0.137254	0.500017
N188	N	1.571116	0.112746	0.750017
C189	C	0.757819	-0.606160	0.000017
C190	C	1.007819	-0.356160	0.250017
C191	C	1.257819	-0.106160	0.500017
C192	C	1.507819	0.143840	0.750017
C193	C	0.891877	-0.159140	0.000013
C194	C	1.141877	0.090860	0.250013
C195	C	1.391877	0.340860	0.500013
C196	C	1.641877	0.590860	0.750013
C197	C	0.892616	-0.108723	0.000016
C198	C	1.142616	0.141277	0.250016
C199	C	1.392616	0.391277	0.500016
C200	C	1.642616	0.641277	0.750016
C201	C	0.765277	-0.096953	0.000015
C202	C	1.015277	0.153047	0.250015
C203	C	1.265277	0.403047	0.500015
C204	C	1.515277	0.653047	0.750015
C205	C	0.764538	-0.147371	0.000018
C206	C	1.014538	0.102629	0.250018
C207	C	1.264538	0.352629	0.500018
C208	C	1.514538	0.602629	0.750018
C209	C	0.827840	-0.178464	0.000011
C210	C	1.077840	0.071536	0.250011
C211	C	1.327840	0.321536	0.500011
C212	C	1.577840	0.571536	0.750011
C213	C	0.756273	-0.712035	0.000027
C214	C	1.006273	-0.462035	0.250027
C215	C	1.256273	-0.212035	0.500027
C216	C	1.506273	0.037965	0.750027
C217	C	0.755541	-0.762454	0.000034
C218	C	1.005541	-0.512454	0.250034
C219	C	1.255541	-0.262454	0.500034
C220	C	1.505541	-0.012454	0.750034
C221	C	0.882880	-0.774220	0.000031
C222	C	1.132880	-0.524220	0.250031
C223	C	1.382880	-0.274220	0.500031
C224	C	1.632880	-0.024220	0.750031
C225	C	0.883613	-0.723805	0.000027
C226	C	1.133613	-0.473805	0.250027
C227	C	1.383613	-0.223805	0.500027
C228	C	1.633613	0.026195	0.750027
C229	C	0.820304	-0.692713	0.000023
C230	C	1.070304	-0.442713	0.250023
C231	C	1.320304	-0.192713	0.500023
C232	C	1.570304	0.057287	0.750023
O233	O	0.938887	-0.649047	0.000041
O234	O	1.188887	-0.399047	0.250041
O235	O	1.438887	-0.149047	0.500041
O236	O	1.688887	0.100953	0.750041
O237	O	0.703292	-0.627233	0.000007
O238	O	0.953292	-0.377233	0.250007
O239	O	1.203292	-0.127233	0.500007
O240	O	1.453292	0.122767	0.750007
C241	C	0.760773	-0.404500	0.000007
C242	C	1.010773	-0.154500	0.250007
C243	C	1.260773	0.095500	0.500007
C244	C	1.510773	0.345500	0.750007
C245	C	0.824808	-0.385179	0.000002
C246	C	1.074808	-0.135179	0.250002
C247	C	1.324808	0.114821	0.500002
C248	C	1.574808	0.364821	0.750002
C249	C	0.888106	-0.416273	0.000002
C250	C	1.138106	-0.166273	0.250002
C251	C	1.388106	0.083727	0.500002
C252	C	1.638106	0.333727	0.750002
C253	C	0.825548	-0.334763	0.000005
C254	C	1.075548	-0.084763	0.250005
C255	C	1.325548	0.165237	0.500005
C256	C	1.575548	0.415237	0.750005
C257	C	0.762250	-0.303669	0.000005
C258	C	1.012250	-0.053669	0.250005
C259	C	1.262250	0.196331	0.500005
C260	C	1.512250	0.446331	0.750005
C261	C	0.698214	-0.322993	0.000004
C262	C	0.948214	-0.072993	0.250004
C263	C	1.198214	0.177007	0.500004
C264	C	1.448214	0.427007	0.750004
C265	C	0.697475	-0.373407	0.000008
C266	C	0.947475	-0.123407	0.250008
C267	C	1.197475	0.126593	0.500008
C268	C	1.447475	0.376593	0.750008
C269	C	0.952143	-0.396949	0.000003
C270	C	1.202143	-0.146949	0.250003
C271	C	1.452143	0.103051	0.500003
C272	C	1.702143	0.353051	0.750003
C273	C	0.952876	-0.346534	0.000000
C274	C	1.202876	-0.096534	0.250000
C275	C	1.452876	0.153466	0.500000
C276	C	1.702876	0.403466	0.750000
C277	C	0.889578	-0.315441	0.000001
C278	C	1.139578	-0.065441	0.250001
C279	C	1.389578	0.184559	0.500001
C280	C	1.639578	0.434559	0.750001
C281	C	0.951769	0.060613	0.000030
C282	C	1.201769	0.310613	0.250030
C283	C	1.451769	0.560613	0.500030
C284	C	1.701769	0.810613	0.750030
C285	C	1.029268	0.061403	0.000028
C286	C	1.279268	0.311403	0.250028
C287	C	1.529268	0.561403	0.500028
C288	C	1.779268	0.811403	0.750028
C289	C	0.818035	0.152796	0.000031
C290	C	1.068035	0.402796	0.250031
C291	C	1.318035	0.652796	0.500031
C292	C	1.568035	0.902796	0.750031
C293	C	0.818838	0.206453	0.000033
C294	C	1.068838	0.456453	0.250033
C295	C	1.318838	0.706453	0.500033
C296	C	1.568838	0.956453	0.750033
N297	N	0.824055	0.064405	0.189728
N298	N	1.074055	0.314405	0.439728
N299	N	1.324055	0.564405	0.689728
N300	N	1.574055	0.814405	0.939728
N301	N	0.824107	0.064414	-0.189672
N302	N	1.074107	0.314414	0.060328
N303	N	1.324107	0.564414	0.310328
N304	N	1.574107	0.814414	0.560328
C305	C	0.871889	0.031460	0.228037
C306	C	1.121889	0.281460	0.478037
C307	C	1.371889	0.531460	0.728037
C308	C	1.621889	0.781460	0.978037
C309	C	0.871894	0.031458	0.304682
C310	C	1.121894	0.281458	0.554682
C311	C	1.371894	0.531458	0.804682
C312	C	1.621894	0.781458	1.054682
C313	C	0.824071	0.064409	0.343015
C314	C	1.074071	0.314409	0.593015
C315	C	1.324071	0.564409	0.843015
C316	C	1.574071	0.814409	1.093015
C317	C	0.776228	0.097357	0.304697
C318	C	1.026228	0.347357	0.554697
C319	C	1.276228	0.597357	0.804697
C320	C	1.526228	0.847357	1.054697
C321	C	0.776220	0.097355	0.228054
C322	C	1.026220	0.347355	0.478054
C323	C	1.276220	0.597355	0.728054
C324	C	1.526220	0.847355	0.978054
N325	N	0.814726	0.107199	0.463349
N326	N	1.064726	0.357199	0.713349
N327	N	1.314726	0.607199	0.963349
N328	N	1.564726	0.857199	1.213349
N329	N	0.814738	0.107199	0.536157
N330	N	1.064738	0.357199	0.786157
N331	N	1.314738	0.607199	1.036157
N332	N	1.564738	0.857199	1.286157
C333	C	0.824090	0.064416	0.573938
C334	C	1.074090	0.314416	0.823938
C335	C	1.324090	0.564416	1.073938
C336	C	1.574090	0.814416	1.323938
N337	N	0.833445	0.021631	0.536160
N338	N	1.083445	0.271631	0.786160
N339	N	1.333445	0.521631	1.036160
N340	N	1.583445	0.771631	1.286160
N341	N	0.833437	0.021631	0.463345
N342	N	1.083437	0.271631	0.713345
N343	N	1.333437	0.521631	0.963345
N344	N	1.583437	0.771631	1.213345
C345	C	0.824074	0.064414	0.426122
C346	C	1.074074	0.314414	0.676122
C347	C	1.324074	0.564414	0.926122
C348	C	1.574074	0.814414	1.176122
C349	C	0.871932	0.031466	0.695354
C350	C	1.121932	0.281466	0.945354
C351	C	1.371932	0.531466	1.195354
C352	C	1.621932	0.781466	1.445354
C353	C	0.871931	0.031463	0.772000
C354	C	1.121931	0.281463	1.022000
C355	C	1.371931	0.531463	1.272000
C356	C	1.621931	0.781463	1.522000
C357	C	0.776269	0.097366	0.772013
C358	C	1.026269	0.347366	1.022013
C359	C	1.276269	0.597366	1.272013
C360	C	1.526269	0.847366	1.522013
C361	C	0.776266	0.097365	0.695368
C362	C	1.026266	0.347365	0.945368
C363	C	1.276266	0.597365	1.195368
C364	C	1.526266	0.847365	1.445368
C365	C	0.824101	0.064415	0.657043
C366	C	1.074101	0.314415	0.907043
C367	C	1.324101	0.564415	1.157043
C368	C	1.574101	0.814415	1.407043
H369	H	0.036047	0.061486	-0.120394
H370	H	0.286047	0.311486	0.129606
H371	H	0.536047	0.561486	0.379606
H372	H	0.786047	0.811486	0.629606
H373	H	0.703389	-0.778182	0.000042
H374	H	0.953389	-0.528182	0.250042
H375	H	1.203389	-0.278182	0.500042
H376	H	1.453389	-0.028182	0.750042
Cl377	Cl	0.932020	-0.009964	0.179858
Cl378	Cl	1.182020	0.240036	0.429858
Cl379	Cl	1.432020	0.490036	0.679858
Cl380	Cl	1.682020	0.740036	0.929858
Cl381	Cl	0.463876	0.065833	0.149844
Cl382	Cl	0.713876	0.315833	0.399844
Cl383	Cl	0.963876	0.565833	0.649844
Cl384	Cl	1.213876	0.815833	0.899844
H385	H	0.612133	0.067355	-0.120401
H386	H	0.862133	0.317355	0.129599
H387	H	1.112133	0.567355	0.379599
H388	H	1.362133	0.817355	0.629599
H389	H	0.612113	0.067342	0.120444
H390	H	0.862113	0.317342	0.370444
H391	H	1.112113	0.567342	0.620444
H392	H	1.362113	0.817342	0.870444
Cl393	Cl	0.184280	0.063000	-0.149791
Cl394	Cl	0.434280	0.313000	0.100209
Cl395	Cl	0.684280	0.563000	0.350209
Cl396	Cl	0.934280	0.813000	0.600209
Cl397	Cl	0.676684	-0.672955	0.000024
Cl398	Cl	0.926684	-0.422955	0.250024
Cl399	Cl	1.176684	-0.172955	0.500024
Cl400	Cl	1.426684	0.077045	0.750024
H401	H	0.168130	0.062810	0.120447
H402	H	0.418130	0.312810	0.370447
H403	H	0.668130	0.562810	0.620447
H404	H	0.918130	0.812810	0.870447
H405	H	0.737267	0.124183	0.196862
H406	H	0.987267	0.374183	0.446862
H407	H	1.237267	0.624183	0.696862
H408	H	1.487267	0.874183	0.946862
Cl409	Cl	0.716133	0.138786	0.647204
Cl410	Cl	0.966133	0.388786	0.897204
Cl411	Cl	1.216133	0.638786	1.147204
Cl412	Cl	1.466133	0.888786	1.397204
Cl413	Cl	0.971465	-0.198222	0.000010
Cl414	Cl	1.221465	0.051778	0.250010
Cl415	Cl	1.471465	0.301778	0.500010
Cl416	Cl	1.721465	0.551778	0.750010
Cl417	Cl	0.019892	0.061291	0.149852
Cl418	Cl	0.269892	0.311291	0.399852
Cl419	Cl	0.519892	0.561291	0.649852
Cl420	Cl	0.769892	0.811291	0.899852
H421	H	0.643112	-0.540376	0.000019
H422	H	0.893112	-0.290376	0.250019
H423	H	1.143112	-0.040376	0.500019
H424	H	1.393112	0.209624	0.750019
Cl425	Cl	0.932063	-0.009959	0.647172
Cl426	Cl	1.182063	0.240041	0.897172
Cl427	Cl	1.432063	0.490041	1.147172
Cl428	Cl	1.682063	0.740041	1.397172
H429	H	0.480030	0.066017	-0.120401
H430	H	0.730030	0.316017	0.129599
H431	H	0.980030	0.566017	0.379599
H432	H	1.230030	0.816017	0.629599
Cl433	Cl	0.616414	-0.435155	0.000016
Cl434	Cl	0.866414	-0.185155	0.250016
Cl435	Cl	1.116414	0.064845	0.500016
Cl436	Cl	1.366414	0.314845	0.750016
Cl437	Cl	0.684027	-0.171654	0.000023
Cl438	Cl	0.934027	0.078346	0.250023
Cl439	Cl	1.184027	0.328346	0.500023
Cl440	Cl	1.434027	0.578346	0.750023
H441	H	0.713738	-0.071628	0.000019
H442	H	0.963738	0.178372	0.250019
H443	H	1.213738	0.428372	0.500019
H444	H	1.463738	0.678372	0.750019
Cl445	Cl	0.973128	-0.084441	0.000019
Cl446	Cl	1.223128	0.165559	0.250019
Cl447	Cl	1.473128	0.415559	0.500019
Cl448	Cl	1.723128	0.665559	0.750019
H449	H	0.910881	0.004632	0.803192
H450	H	1.160881	0.254632	1.053192
H451	H	1.410881	0.504632	1.303192
H452	H	1.660881	0.754632	1.553192
Cl453	Cl	1.031188	-0.473508	-0.000028
Cl454	Cl	1.281188	-0.223508	0.249972
Cl455	Cl	1.531188	0.026492	0.499972
Cl456	Cl	1.781188	0.276492	0.749972
H457	H	1.001479	-0.573518	-0.000015
H458	H	1.251479	-0.323518	0.249985
H459	H	1.501479	-0.073518	0.499985
H460	H	1.751479	0.176482	0.749985
H461	H	0.737328	0.124193	0.803223
H462	H	0.987328	0.374193	1.053223
H463	H	1.237328	0.624193	1.303223
H464	H	1.487328	0.874193	1.553223
H465	H	0.935760	-0.708074	0.000033
H466	H	1.185760	-0.458074	0.250033
H467	H	1.435760	-0.208074	0.500033
H468	H	1.685760	0.041926	0.750033
H469	H	0.645327	-0.389133	0.000013
H470	H	0.895327	-0.139133	0.250013
H471	H	1.145327	0.110867	0.500013
H472	H	1.395327	0.360867	0.750013
H473	H	0.934415	-0.799545	0.000034
H474	H	1.184415	-0.549545	0.250034
H475	H	1.434415	-0.299545	0.500034
H476	H	1.684415	-0.049545	0.750034
H477	H	1.005029	-0.330809	0.000001
H478	H	1.255029	-0.080809	0.250001
H479	H	1.505029	0.169191	0.500001
H480	H	1.755029	0.419191	0.750001
Cl481	Cl	0.618641	-0.283895	0.000007
Cl482	Cl	0.868641	-0.033895	0.250007
Cl483	Cl	1.118641	0.216105	0.500007
Cl484	Cl	1.368641	0.466105	0.750007
Cl485	Cl	1.031725	-0.436031	0.000006
Cl486	Cl	1.281725	-0.186031	0.250006
Cl487	Cl	1.531725	0.063969	0.500006
Cl488	Cl	1.781725	0.313969	0.750006
Cl489	Cl	0.932034	-0.009962	0.352850
Cl490	Cl	1.182034	0.240038	0.602850
Cl491	Cl	1.432034	0.490038	0.852850
Cl492	Cl	1.682034	0.740038	1.102850
Cl493	Cl	0.716105	0.138779	0.352885
Cl494	Cl	0.966105	0.388779	0.602885
Cl495	Cl	1.216105	0.638779	0.852885
Cl496	Cl	1.466105	0.888779	1.102885
