data_functionalizedCrystal
_audit_creation_method	'MofGen! by Chris Wilmer'
_symmetry_space_group_name_H-M	'P1'
_symmetry_Int_Tables_number	1
_symmetry_cell_setting	triclinic
loop_
_symmetry_equiv_pos_as_xyz
  x,y,z
_cell_length_a	9.065215
_cell_length_b	13.339070
_cell_length_c	8.140239
_cell_angle_alpha	89.998768
_cell_angle_beta	89.997810
_cell_angle_gamma	100.321996
loop_
_atom_site_label
_atom_site_type_symbol
_atom_site_fract_x
_atom_site_fract_y
_atom_site_fract_z
O1	O	2.018449	0.148874	-0.136588
O2	O	1.593927	0.161089	-0.136595
O3	O	1.757466	0.007272	-0.136587
O4	O	1.854909	0.302691	-0.136595
O5	O	1.757453	0.007270	0.136640
O6	O	1.593913	0.161087	0.136633
O7	O	2.018436	0.148872	0.136639
Zn8	Zn	1.806173	0.154979	0.180017
Zn9	Zn	1.806190	0.154982	-0.179972
O10	O	1.854896	0.302689	0.136632
C11	C	1.538476	0.159915	0.000018
C12	C	1.373265	0.156407	0.000015
C13	C	1.741000	-0.030569	0.000024
C14	C	1.691936	-0.143320	0.000017
C15	C	2.073887	0.150046	0.000023
C16	C	2.239098	0.153554	0.000015
C17	C	2.073427	-0.504620	0.000024
C18	C	2.119529	-0.398685	0.000040
C19	C	2.012635	-0.334839	0.000033
C20	C	1.859631	-0.376937	0.000012
C21	C	1.813524	-0.482883	0.000009
C22	C	1.752732	-0.313101	0.000019
C23	C	1.599727	-0.355200	-0.000003
C24	C	1.553629	-0.461135	-0.000007
C25	C	1.660523	-0.524981	-0.000001
C26	C	1.798839	-0.207156	0.000022
C27	C	1.538935	-0.185419	0.000007
C28	C	1.492833	-0.291353	-0.000009
C29	C	1.871363	0.340530	0.000017
C30	C	1.920426	0.453281	0.000014
N31	N	1.806171	0.154977	0.425699
N32	N	1.806200	0.154976	-0.425654
H33	H	1.923415	-0.172890	0.000040
C34	C	2.190991	-0.574849	0.000037
H35	H	2.141615	-0.643971	0.000025
H36	H	2.251932	-0.561957	0.095320
H37	H	2.251947	-0.561957	-0.095253
C38	C	1.609814	-0.641511	-0.000009
H39	H	1.695392	-0.673501	0.000002
H40	H	1.551394	-0.661461	-0.095289
H41	H	1.551391	-0.661465	0.095284
H42	H	1.429043	-0.495408	-0.000013
H43	H	2.050181	-0.248583	0.000047
H44	H	2.244105	-0.364416	0.000060
C45	C	1.421344	-0.115199	-0.000014
H46	H	1.470715	-0.046076	-0.000029
H47	H	1.360381	-0.128091	0.095260
H48	H	1.360409	-0.128094	-0.095313
H49	H	1.368254	-0.325645	-0.000026
