data_functionalizedCrystal
_audit_creation_method	'MofGen! by Chris Wilmer'
_symmetry_space_group_name_H-M	'P1'
_symmetry_Int_Tables_number	1
_symmetry_cell_setting	triclinic
loop_
_symmetry_equiv_pos_as_xyz
  x,y,z
_cell_length_a	9.065218
_cell_length_b	11.295483
_cell_length_c	9.065218
_cell_angle_alpha	94.157802
_cell_angle_beta	94.984115
_cell_angle_gamma	94.166271
loop_
_atom_site_label
_atom_site_type_symbol
_atom_site_fract_x
_atom_site_fract_y
_atom_site_fract_z
O1	O	1.970208	0.099023	-0.206553
O2	O	1.540923	0.099024	-0.224299
O3	O	1.764438	0.099021	-0.000784
O4	O	1.746692	0.099026	-0.430068
O5	O	1.744806	-0.099029	-0.020385
O6	O	1.521291	-0.099026	-0.243900
O7	O	1.950575	-0.099028	-0.226154
Cu8	Cu	1.734140	-0.117111	-0.236817
Cu9	Cu	1.757358	0.117107	-0.213636
O10	O	1.727060	-0.099025	-0.449669
C11	C	1.476120	-0.000001	-0.232394
C12	C	1.312277	-0.000000	-0.227294
N13	N	1.717821	-0.281847	-0.253120
C14	C	1.891162	-0.531138	-0.079879
C15	C	1.878840	-0.655802	-0.092210
C16	C	1.680849	-0.655839	-0.290105
C17	C	1.693171	-0.531176	-0.277774
C18	C	1.798332	-0.468830	-0.172659
C19	C	1.810660	-0.344164	-0.160336
C20	C	1.612664	-0.344204	-0.358224
C21	C	1.600342	-0.468867	-0.370555
C22	C	2.015378	0.000000	-0.218059
C23	C	2.179222	0.000007	-0.223158
C24	C	1.752917	-0.000002	0.044402
C25	C	1.747818	0.000003	0.208246
N26	N	1.773688	0.281843	-0.197321
C27	C	1.738582	0.000001	-0.494855
C28	C	1.743682	0.000004	-0.658698
H29	H	1.976798	-0.480375	0.005700
O30	O	1.498120	-0.529569	-0.472468
C31	C	1.398881	-0.601670	-0.399313
H32	H	1.454254	-0.620330	-0.286506
H33	H	1.367702	-0.689341	-0.469246
H34	H	1.294443	-0.553646	-0.383032
O35	O	1.912648	-0.283678	-0.058004
C36	C	1.883670	-0.314206	0.085354
H37	H	1.762127	-0.348478	0.084279
H38	H	1.907760	-0.232244	0.167322
H39	H	1.957690	-0.386579	0.120383
O40	O	1.969173	-0.716145	-0.002011
C41	C	2.064597	-0.634378	0.093434
H42	H	2.075861	-0.545515	0.041701
H43	H	2.178571	-0.670377	0.110756
H44	H	2.016525	-0.621126	0.205021
O45	O	1.578623	-0.716551	-0.392006
C46	C	1.479400	-0.788646	-0.318825
H47	H	1.534788	-0.807289	-0.206019
H48	H	1.448220	-0.876325	-0.388740
H49	H	1.374960	-0.740624	-0.302541
O50	O	1.522701	-0.283549	-0.448417
C51	C	1.610076	-0.211459	-0.533442
H52	H	1.726592	-0.192759	-0.474418
H53	H	1.557469	-0.123807	-0.547280
H54	H	1.616819	-0.259514	-0.647380
