data_functionalizedCrystal
_audit_creation_method	'MofGen! by Chris Wilmer'
_symmetry_space_group_name_H-M	'P1'
_symmetry_Int_Tables_number	1
_symmetry_cell_setting	triclinic
loop_
_symmetry_equiv_pos_as_xyz
  x,y,z
_cell_length_a	19.805407
_cell_length_b	12.759400
_cell_length_c	19.805398
_cell_angle_alpha	90.021572
_cell_angle_beta	89.984135
_cell_angle_gamma	89.985315
loop_
_atom_site_label
_atom_site_type_symbol
_atom_site_fract_x
_atom_site_fract_y
_atom_site_fract_z
Zn1	Zn	1.034766	0.418308	-0.382740
Zn2	Zn	1.034711	0.593996	-0.269560
Zn3	Zn	0.921588	0.418332	-0.269565
Zn4	Zn	0.921567	0.593945	-0.382707
O5	O	0.978158	0.506145	-0.326143
O6	O	1.129475	0.441625	-0.367739
O7	O	1.019691	0.570725	-0.174844
O8	O	0.936633	0.271308	-0.284593
O9	O	1.129435	0.570702	-0.284586
O10	O	1.019784	0.271290	-0.367743
O11	O	0.936580	0.441665	-0.174848
O12	O	0.826869	0.441616	-0.284561
O13	O	0.936598	0.570615	-0.477428
O14	O	0.826854	0.570639	-0.367687
O15	O	1.019764	0.441575	-0.477452
O16	O	1.019671	0.741010	-0.284554
O17	O	0.936545	0.740973	-0.367682
C18	C	0.802302	0.506125	-0.326121
C19	C	0.727070	0.506142	-0.326128
C20	C	0.978118	0.779113	-0.326129
C21	C	0.978163	0.895889	-0.326146
C22	C	0.978185	0.506087	-0.502686
C23	C	0.978196	0.506062	-0.577918
C24	C	0.691736	0.573425	-0.369341
C25	C	0.621047	0.573427	-0.369351
C26	C	0.585695	0.506150	-0.326143
C27	C	0.621034	0.438859	-0.282928
C28	C	0.691721	0.438853	-0.282922
C29	C	0.335961	0.438883	-0.282950
C30	C	0.265269	0.438896	-0.282958
C31	C	0.265287	0.573456	-0.369379
C32	C	0.335974	0.573450	-0.369373
C33	C	0.371307	0.506156	-0.326161
C34	C	0.447956	0.506154	-0.326152
C35	C	0.509047	0.506157	-0.326148
C36	C	1.154701	0.506166	-0.326165
C37	C	1.229933	0.506175	-0.326175
C38	C	0.978217	0.232112	-0.326172
C39	C	0.978242	0.115335	-0.326184
C40	C	1.021495	0.950736	-0.282908
C41	C	1.021536	1.060460	-0.282929
C42	C	0.934908	1.060481	-0.369426
C43	C	0.934871	0.950759	-0.369408
C44	C	1.071507	0.950724	-0.232968
C45	C	1.071548	1.060448	-0.232989
C46	C	1.021582	0.438685	-1.039723
C47	C	1.021572	0.438717	-0.969034
C48	C	0.978265	0.505916	-0.933680
C49	C	0.934972	0.573095	-0.969017
C50	C	0.934986	0.573067	-1.039705
C51	C	0.934913	0.573209	-0.683944
C52	C	0.934900	0.573229	-0.613252
C53	C	1.021499	0.438859	-0.613274
C54	C	1.021513	0.438831	-0.683961
C55	C	0.978222	0.506013	-0.719292
C56	C	0.978235	0.505979	-0.795941
C57	C	0.978249	0.505946	-0.857033
C58	C	0.978171	0.506127	-0.150287
C59	C	0.978291	0.505856	-0.075055
H60	H	0.720515	0.628213	-0.404524
H61	H	0.899592	0.906104	-0.404621
F62	F	0.729326	0.367239	-0.236930
F63	F	1.136635	1.104829	-0.257601
F64	F	0.888837	1.118887	-0.415468
H65	H	0.899630	0.627950	-0.584468
F66	F	0.888841	0.644714	-0.721537
F67	F	1.139999	0.911698	-0.251373
H68	H	1.052749	0.916764	-0.183150
F69	F	0.583407	0.367252	-0.236947
F70	F	1.067610	0.367316	-0.721584
F71	F	0.888883	0.644616	-0.931389
F72	F	0.373595	0.645059	-0.415358
F73	F	0.583445	0.645039	-0.415345
F74	F	0.227677	0.645077	-0.415370
H75	H	1.057551	1.090297	-0.180559
H76	H	0.899734	0.627766	-1.068472
H77	H	0.236486	0.384105	-0.247773
H78	H	1.056843	0.383957	-1.068503
H79	H	1.056826	0.384023	-0.940270
F80	F	0.373556	0.367260	-0.236961
H81	H	1.056750	0.384159	-0.584498
