data_functionalizedCrystal
_audit_creation_method	'MofGen! by Chris Wilmer'
_symmetry_space_group_name_H-M	'P1'
_symmetry_Int_Tables_number	1
_symmetry_cell_setting	triclinic
loop_
_symmetry_equiv_pos_as_xyz
  x,y,z
_cell_length_a	14.560438
_cell_length_b	14.446369
_cell_length_c	14.560438
_cell_angle_alpha	90.000111
_cell_angle_beta	59.999258
_cell_angle_gamma	59.995779
loop_
_atom_site_label
_atom_site_type_symbol
_atom_site_fract_x
_atom_site_fract_y
_atom_site_fract_z
Zr1	Zr	1.005279	0.891709	-0.120512
O2	O	1.196900	0.743888	-0.267170
O3	O	0.813665	0.937032	-0.075551
O4	O	1.005279	0.937020	-0.267159
O5	O	1.005283	0.743900	0.075579
O6	O	1.005271	1.089357	-0.267154
O7	O	1.005286	0.743900	-0.075562
O8	O	0.662509	1.089379	0.075598
O9	O	1.348045	0.743878	-0.267173
O10	O	0.892470	1.070040	-0.056375
O11	O	0.892474	0.956352	0.056416
O12	O	1.118074	0.956338	-0.169178
O13	O	1.118078	0.842651	-0.056387
Zr14	Zr	1.005261	1.134669	0.120549
Zr15	Zr	1.005265	1.134669	-0.120503
Zr16	Zr	1.005274	0.891709	0.120540
Zr17	Zr	1.246338	0.891694	-0.120517
Zr18	Zr	0.764202	1.134684	0.120553
O19	O	1.196875	1.089346	0.075588
O20	O	1.196881	1.089346	-0.267157
O21	O	1.196894	0.743888	0.075575
O22	O	0.813640	1.282491	0.267207
O23	O	0.813646	1.282490	-0.075539
O24	O	0.813659	0.937033	0.267194
O25	O	1.005257	1.282478	-0.075542
O26	O	1.005261	1.089358	0.267196
O27	O	1.005269	0.937021	0.267190
O28	O	1.005254	1.282479	0.075599
O29	O	1.348035	0.936999	-0.267166
O30	O	0.662505	1.089379	0.267202
O31	O	0.662495	1.282500	0.267209
O32	O	0.662498	1.282500	0.075605
O33	O	1.348042	0.743879	-0.075568
O34	O	1.348031	0.936999	-0.075561
O35	O	0.892466	1.070040	0.169215
O36	O	0.892461	1.183727	0.056424
O37	O	1.118066	1.070026	-0.056379
O38	O	1.118070	0.956339	0.056412
C39	C	0.703741	1.013208	0.000024
C40	C	0.601405	1.013214	0.000026
C41	C	0.373907	1.097107	0.083286
C42	C	0.470042	1.097135	0.083292
C43	C	0.636633	0.929267	-0.083258
C44	C	0.540498	0.929245	-0.083267
C45	C	1.005287	0.709283	0.000007
C46	C	1.005292	0.606140	0.000004
C47	C	1.147566	0.387762	-0.070783
C48	C	1.147662	0.494994	-0.071181
C49	C	0.934618	0.602821	-0.051886
C50	C	0.935521	0.495052	-0.052405
C51	C	0.932588	0.496416	0.122769
C52	C	0.935269	0.602385	0.122576
C53	C	1.306799	1.013171	0.000013
C54	C	1.409135	1.013164	0.000011
C55	C	1.005275	1.013189	-0.301501
C56	C	1.005277	1.013189	-0.403834
C57	C	1.005253	1.317095	0.000029
C58	C	1.005248	1.420238	0.000033
C59	C	1.005274	1.097112	-0.451907
C60	C	1.005262	1.097115	-0.548053
C61	C	1.005262	0.929262	-0.548047
C62	C	1.005265	0.929264	-0.451899
C63	C	1.005265	1.013190	0.301538
C64	C	1.005263	1.013190	0.403871
C65	C	0.703725	1.317114	0.000035
C66	C	0.601383	1.420263	0.000041
C67	C	0.703736	1.013208	0.301544
C68	C	0.601398	1.013214	0.403878
C69	C	0.703719	1.317114	0.301555
C70	C	0.601376	1.420263	0.403893
C71	C	1.306821	0.709264	-0.301518
C72	C	1.409164	0.606115	-0.403857
C73	C	1.306815	0.709265	0.000002
C74	C	1.409157	0.606115	-0.000004
C75	C	1.306804	1.013170	-0.301507
C76	C	1.409142	1.013164	-0.403842
C77	C	0.553304	1.409382	-0.058834
C78	C	0.457151	1.506305	-0.058833
C79	C	0.457160	1.624988	0.058927
C80	C	0.553318	1.528065	0.058919
C81	C	0.553313	1.072560	0.510835
C82	C	0.457165	1.072553	0.606986
C83	C	0.457191	0.953853	0.489209
C84	C	0.553344	0.953854	0.393061
C85	C	0.553290	1.528067	0.393100
C86	C	0.457136	1.624983	0.489262
C87	C	0.457157	1.506278	0.607007
C88	C	0.553317	1.409365	0.510847
H89	H	0.743597	0.860941	-0.151058
Br90	Br	0.391919	1.771293	0.138833
Br91	Br	1.008467	0.413031	0.195027
Br92	Br	1.005286	1.211011	-0.386678
Br93	Br	0.588310	0.815320	-0.196298
Br94	Br	1.240671	0.297821	-0.013070
H95	H	1.203395	0.493231	-0.036646
H96	H	0.417989	1.712759	0.480466
H97	H	0.266948	1.165441	0.151096
Br98	Br	1.005250	0.815366	-0.613283
H99	H	0.592447	1.321608	-0.106788
H100	H	0.418011	1.497436	-0.106776
H101	H	0.418014	1.497418	0.694098
Br102	Br	1.021133	0.601545	0.187202
H103	H	0.592498	0.905522	0.305965
H104	H	0.441347	1.165490	0.151102
Br105	Br	0.618593	1.263048	0.525495
H106	H	1.203151	0.332774	-0.160775
H107	H	0.983709	0.604953	-0.141346
H108	H	0.418020	1.120877	0.694072
Br109	Br	1.240678	0.490907	-0.222086
Br110	Br	1.019247	0.411125	-0.202939
Br111	Br	0.618517	1.542860	0.247952
H112	H	0.831104	0.521712	-0.004160
Br113	Br	1.005254	0.815368	-0.386642
Br114	Br	0.760140	0.733278	0.029942
H115	H	0.827749	0.523861	0.175783
Br116	Br	0.762128	0.734311	0.217913
H117	H	1.005257	1.165455	-0.587190
Br118	Br	0.618584	1.542832	0.138816
Br119	Br	0.618527	1.153119	0.525518
Br120	Br	0.391967	0.873299	0.474537
