data_functionalizedCrystal
_audit_creation_method	'MofGen! by Chris Wilmer'
_symmetry_space_group_name_H-M	'P1'
_symmetry_Int_Tables_number	1
_symmetry_cell_setting	triclinic
loop_
_symmetry_equiv_pos_as_xyz
  x,y,z
_cell_length_a	19.288864
_cell_length_b	19.188924
_cell_length_c	18.366186
_cell_angle_alpha	89.991683
_cell_angle_beta	89.977106
_cell_angle_gamma	83.139105
loop_
_atom_site_label
_atom_site_type_symbol
_atom_site_fract_x
_atom_site_fract_y
_atom_site_fract_z
O1	O	0.921357	0.087099	-0.060786
O2	O	1.421357	0.587099	0.439214
O3	O	0.719097	0.098849	-0.060737
O4	O	1.219097	0.598849	0.439263
O5	O	0.826066	-0.008682	-0.060755
O6	O	1.326066	0.491318	0.439245
O7	O	0.814388	0.194631	-0.060769
O8	O	1.314388	0.694631	0.439231
O9	O	0.826048	-0.008687	0.060345
O10	O	1.326048	0.491313	0.560345
O11	O	0.719079	0.098844	0.060362
O12	O	1.219079	0.598844	0.560362
O13	O	0.921339	0.087094	0.060313
O14	O	1.421339	0.587094	0.560313
Zn15	Zn	0.820206	0.092968	0.079565
Zn16	Zn	1.320206	0.592968	0.579565
Zn17	Zn	0.820230	0.092975	-0.079989
Zn18	Zn	1.320230	0.592975	0.420011
O19	O	0.814370	0.194625	0.060330
O20	O	1.314370	0.694625	0.560330
C21	C	0.693212	0.098468	-0.000181
C22	C	1.193212	0.598468	0.499819
C23	C	0.616108	0.097333	-0.000162
C24	C	1.116108	0.597333	0.499838
C25	C	0.571415	0.160428	-0.000178
C26	C	1.071415	0.660428	0.499822
C27	C	0.498968	0.159362	-0.000186
C28	C	0.998968	0.659362	0.499814
C29	C	0.471217	0.095197	-0.000192
C30	C	0.971217	0.595197	0.499808
C31	C	0.515920	0.032095	-0.000172
C32	C	1.015920	0.532095	0.499828
C33	C	0.588365	0.033163	-0.000157
C34	C	1.088365	0.533163	0.499843
C35	C	0.362959	0.044759	-0.042640
C36	C	0.862959	0.544759	0.457360
C37	C	0.290514	0.043694	-0.042660
C38	C	0.790514	0.543694	0.457340
C39	C	0.247771	0.091901	-0.000236
C40	C	0.747771	0.591901	0.499764
C41	C	0.277480	0.141185	0.042198
C42	C	0.777480	0.641185	0.542198
C43	C	0.349925	0.142253	0.042213
C44	C	0.849925	0.642253	0.542213
C45	C	0.392663	0.094032	-0.000208
C46	C	0.892663	0.594032	0.499792
C47	C	0.124522	0.153843	-0.000260
C48	C	0.624522	0.653843	0.499740
C49	C	0.052074	0.152775	-0.000263
C50	C	0.552074	0.652775	0.499737
C51	C	0.069028	0.025506	-0.000257
C52	C	0.569028	0.525506	0.499743
C53	C	0.141474	0.026576	-0.000246
C54	C	0.641474	0.526576	0.499754
C55	C	0.169217	0.090747	-0.000251
C56	C	0.669217	0.590747	0.499749
C57	C	0.825680	-0.034696	-0.000204
C58	C	1.325680	0.465304	0.499796
C59	C	0.824547	-0.112201	-0.000202
C60	C	1.324547	0.387799	0.499798
C61	C	0.824028	-0.148597	-0.066213
C62	C	1.324028	0.351403	0.433787
C63	C	0.822954	-0.221419	-0.066218
C64	C	1.322954	0.278581	0.433782
C65	C	0.822412	-0.257845	-0.000209
C66	C	1.322412	0.242155	0.499791
C67	C	0.822927	-0.221440	0.065811
C68	C	1.322927	0.278560	0.565811
C69	C	0.823995	-0.148617	0.065815
C70	C	1.323995	0.351383	0.565815
N71	N	0.860256	-0.377513	0.048912
N72	N	1.360256	0.122487	0.548912
N73	N	0.859244	-0.446691	0.048904
N74	N	1.359244	0.053309	0.548904
C75	C	0.819195	-0.477254	-0.000215
C76	C	1.319195	0.022746	0.499785
N77	N	0.780206	-0.436026	-0.049337
N78	N	1.280206	0.063974	0.450663
N79	N	0.781222	-0.366842	-0.049331
N80	N	1.281222	0.133158	0.450669
C81	C	0.821255	-0.336808	-0.000205
C82	C	1.321255	0.163192	0.499795
C83	C	0.817510	-0.592612	-0.066236
C84	C	1.317510	-0.092612	0.433764
C85	C	0.816432	-0.665436	-0.066239
C86	C	1.316432	-0.165436	0.433761
C87	C	0.816412	-0.665456	0.065793
C88	C	1.316412	-0.165456	0.565793
C89	C	0.817484	-0.592633	0.065793
C90	C	1.317484	-0.092633	0.565793
C91	C	0.818036	-0.556216	-0.000223
C92	C	1.318036	-0.056216	0.499777
C93	C	0.947225	0.087475	-0.000245
C94	C	1.447225	0.587475	0.499755
C95	C	1.024328	0.088610	-0.000269
C96	C	1.524328	0.588610	0.499731
C97	C	0.814756	0.220639	-0.000222
C98	C	1.314756	0.720639	0.499778
C99	C	0.815889	0.298144	-0.000229
C100	C	1.315889	0.798144	0.499771
N101	N	0.820195	0.092963	0.188456
N102	N	1.320195	0.592963	0.688456
N103	N	0.820247	0.092975	-0.188880
N104	N	1.320247	0.592975	0.311120
C105	C	0.867576	0.045371	0.226549
C106	C	1.367576	0.545371	0.726549
C107	C	0.867581	0.045368	0.302776
C108	C	1.367581	0.545368	0.802776
C109	C	0.820210	0.092969	0.340909
C110	C	1.320210	0.592969	0.840909
C111	C	0.772820	0.140564	0.302807
C112	C	1.272820	0.640564	0.802807
C113	C	0.772812	0.140561	0.226580
C114	C	1.272812	0.640561	0.726580
C115	C	0.810915	0.156586	0.461666
C116	C	1.310915	0.656586	0.961666
C117	C	0.810928	0.156590	0.537891
C118	C	1.310928	0.656590	1.037891
C119	C	0.820230	0.092977	0.576016
C120	C	1.320230	0.592977	1.076016
C121	C	0.829534	0.029359	0.537907
C122	C	1.329534	0.529359	1.037907
C123	C	0.829527	0.029356	0.461681
C124	C	1.329527	0.529356	0.961681
C125	C	0.820213	0.092977	0.423563
C126	C	1.320213	0.592977	0.923563
C127	C	0.867619	0.045379	0.696764
C128	C	1.367619	0.545379	1.196764
C129	C	0.867618	0.045375	0.772993
C130	C	1.367618	0.545375	1.272993
C131	C	0.772861	0.140576	0.773022
C132	C	1.272861	0.640576	1.273022
C133	C	0.772858	0.140574	0.696794
C134	C	1.272858	0.640574	1.196794
C135	C	0.820241	0.092976	0.658670
C136	C	1.320241	0.592976	1.158670
H137	H	0.397755	0.005502	-0.077190
H138	H	0.897755	0.505502	0.422810
H139	H	0.822484	-0.251102	0.119557
H140	H	1.322484	0.248898	0.619557
N141	N	0.152877	0.219382	-0.000248
N142	N	0.652877	0.719382	0.499752
N143	N	0.217561	0.220328	-0.000236
N144	N	0.717561	0.720328	0.499764
H145	H	0.237587	0.266615	-0.000227
H146	H	0.737587	0.766615	0.499773
H147	H	0.837101	-0.022445	0.430656
H148	H	1.337101	0.477555	0.930656
N149	N	0.818029	-0.555442	0.133217
N150	N	1.318029	-0.055442	0.633217
N151	N	0.818984	-0.490423	0.133211
N152	N	1.318984	0.009577	0.633211
H153	H	0.819367	-0.464156	0.180832
H154	H	1.319367	0.035844	0.680832
H155	H	0.803356	0.208392	0.568913
H156	H	1.303356	0.708392	1.068913
N157	N	0.839027	-0.035620	0.576852
N158	N	1.339027	0.464380	1.076852
N159	N	0.839020	-0.035611	0.644910
N160	N	1.339020	0.464389	1.144910
H161	H	0.845720	-0.081500	0.672419
H162	H	1.345720	0.418500	1.172419
N163	N	0.916038	-0.003193	0.187618
N164	N	1.416038	0.496807	0.687618
N165	N	0.958379	-0.045644	0.221645
N166	N	1.458379	0.454356	0.721645
H167	H	0.992627	-0.079922	0.194149
H168	H	1.492627	0.420078	0.694149
N169	N	0.453306	0.223815	-0.000225
N170	N	0.953306	0.723815	0.499775
N171	N	0.411025	0.237409	-0.051289
N172	N	0.911025	0.737409	0.448711
H173	H	0.378779	0.282929	-0.051321
H174	H	0.878779	0.782929	0.448679
N175	N	0.599738	0.225982	-0.000168
N176	N	1.099738	0.725982	0.499832
N177	N	0.585935	0.268466	0.050874
N178	N	1.085935	0.768466	0.550874
H179	H	0.605938	0.314765	0.050883
H180	H	1.105938	0.814765	0.550883
N181	N	0.006428	0.217234	-0.000271
N182	N	0.506428	0.717234	0.499729
N183	N	0.031211	0.274520	-0.000273
N184	N	0.531211	0.774520	0.499727
H185	H	-0.001027	0.320047	-0.000277
H186	H	0.498973	0.820047	0.499723
H187	H	0.734249	0.179320	0.333858
H188	H	1.234249	0.679320	0.833858
N189	N	0.260156	-0.006637	-0.086000
N190	N	0.760156	0.493363	0.414000
N191	N	0.216993	0.013516	-0.134583
N192	N	0.716993	0.513516	0.365417
H193	H	0.195552	-0.022031	-0.165192
H194	H	0.695552	0.477969	0.334808
H195	H	0.046434	-0.026738	-0.000308
H196	H	0.546434	0.473262	0.499692
H197	H	0.906166	0.006612	0.333797
H198	H	1.406166	0.506612	0.833797
H199	H	0.906199	0.006619	0.665722
H200	H	1.406199	0.506619	1.165722
H201	H	0.824414	-0.118984	0.119571
H202	H	1.324414	0.381016	0.619571
H203	H	0.374112	0.182380	0.076766
H204	H	0.874112	0.682380	0.576766
N205	N	0.815852	-0.702641	0.133229
N206	N	1.315852	-0.202641	0.633229
N207	N	0.767014	-0.687919	0.177440
N208	N	1.267014	-0.187919	0.677440
H209	H	0.766616	-0.714182	0.225070
H210	H	1.266616	-0.214182	0.725070
N211	N	0.187122	-0.037880	-0.000232
N212	N	0.687122	0.462120	0.499768
N213	N	0.162339	-0.095167	-0.000235
N214	N	0.662339	0.404833	0.499765
H215	H	0.194577	-0.140693	-0.000223
H216	H	0.694577	0.359307	0.499777
H217	H	0.906200	0.006616	0.804009
H218	H	1.406200	0.506616	1.304009
N219	N	0.233817	0.190444	0.085511
N220	N	0.733817	0.690444	0.585511
N221	N	0.169133	0.189493	0.085484
N222	N	0.669133	0.689493	0.585484
H223	H	0.138292	0.224287	0.116065
H224	H	0.638292	0.724287	0.616065
H225	H	0.493321	-0.020148	-0.000188
H226	H	0.993321	0.479852	0.499812
N227	N	0.724470	0.189188	0.811975
N228	N	1.224470	0.689188	1.311975
N229	N	0.724479	0.189182	0.880033
N230	N	1.224479	0.689182	1.380033
H231	H	0.690299	0.223513	0.907548
H232	H	1.190299	0.723513	1.407548
N233	N	0.724404	0.189180	0.187677
N234	N	1.224404	0.689180	0.687677
N235	N	0.682107	0.231674	0.221728
N236	N	1.182107	0.731674	0.721728
H237	H	0.647918	0.266013	0.194252
H238	H	1.147918	0.766013	0.694252
N239	N	0.724454	0.189194	0.657890
N240	N	1.224454	0.689194	1.157890
N241	N	0.682159	0.231689	0.691942
N242	N	1.182159	0.731689	1.191942
H243	H	0.647969	0.266027	0.664467
H244	H	1.147969	0.766027	1.164467
H245	H	0.817956	-0.562960	-0.119991
H246	H	1.317956	-0.062960	0.380009
H247	H	0.824476	-0.118950	-0.119969
H248	H	1.324476	0.381050	0.380031
N249	N	0.634013	-0.031296	-0.000137
N250	N	1.134013	0.468704	0.499863
N251	N	0.609231	-0.088583	-0.000136
N252	N	1.109231	0.411417	0.499864
H253	H	0.641470	-0.134109	-0.000122
H254	H	1.141470	0.365891	0.499878
N255	N	0.822421	-0.258596	-0.133657
N256	N	1.322421	0.241404	0.366343
N257	N	0.822912	-0.226072	-0.192593
N258	N	1.322912	0.273928	0.307407
H259	H	0.822536	-0.252326	-0.240222
H260	H	1.322536	0.247674	0.259778
H261	H	0.816006	-0.695068	-0.119996
H262	H	1.316006	-0.195068	0.380004
N263	N	0.801420	0.221575	0.422737
N264	N	1.301420	0.721575	0.922737
N265	N	0.793129	0.278370	0.456768
N266	N	1.293129	0.778370	0.956768
H267	H	0.786427	0.324268	0.429276
H268	H	1.286427	0.824268	0.929276
