data_functionalizedCrystal
_audit_creation_method	'MofGen! by Chris Wilmer'
_symmetry_space_group_name_H-M	'P1'
_symmetry_Int_Tables_number	1
_symmetry_cell_setting	triclinic
loop_
_symmetry_equiv_pos_as_xyz
  x,y,z
_cell_length_a	13.185408
_cell_length_b	13.339070
_cell_length_c	9.130313
_cell_angle_alpha	90.000326
_cell_angle_beta	90.002624
_cell_angle_gamma	83.801397
loop_
_atom_site_label
_atom_site_type_symbol
_atom_site_fract_x
_atom_site_fract_y
_atom_site_fract_z
O1	O	1.373288	-0.243489	-0.121698
O2	O	1.084456	-0.148751	-0.121721
O3	O	1.195723	-0.334359	-0.121708
O4	O	1.262020	-0.057881	-0.121711
O5	O	1.195722	-0.334354	0.121891
O6	O	1.084455	-0.148747	0.121878
O7	O	1.373287	-0.243484	0.121901
Cu8	Cu	1.228871	-0.196115	0.144132
Cu9	Cu	1.228872	-0.196120	-0.143952
O10	O	1.262020	-0.057877	0.121888
C11	C	1.046733	-0.139145	0.000076
C12	C	0.934328	-0.110538	0.000067
C13	C	0.895277	-0.008684	0.000062
C14	C	0.789668	0.018197	0.000075
C15	C	0.723099	-0.056774	0.000081
C16	C	0.762150	-0.158631	0.000075
C17	C	0.867770	-0.185514	0.000074
C18	C	0.695592	-0.233605	0.000092
C19	C	0.734643	-0.335461	0.000086
C20	C	0.840253	-0.362340	0.000084
C21	C	0.906821	-0.287369	0.000078
C22	C	0.589973	-0.206722	0.000093
C23	C	0.562466	-0.383552	0.000104
C24	C	0.668075	-0.410432	0.000092
C25	C	1.184524	-0.368997	0.000089
C26	C	1.151143	-0.472211	0.000080
C27	C	1.410697	-0.907668	0.000101
C28	C	1.442064	-0.810695	0.000118
C29	C	1.369336	-0.726069	0.000108
C30	C	1.265237	-0.738426	0.000083
C31	C	1.233867	-0.835408	0.000078
C32	C	1.192506	-0.653810	0.000084
C33	C	1.088406	-0.666166	0.000059
C34	C	1.057042	-0.763140	0.000053
C35	C	1.129770	-0.847766	0.000063
C36	C	1.223876	-0.556827	0.000089
C37	C	1.047045	-0.484568	0.000066
C38	C	1.015679	-0.581541	0.000049
C39	C	1.411010	-0.253091	0.000101
C40	C	1.523415	-0.281698	0.000100
C41	C	1.273219	-0.023239	0.000088
C42	C	1.306600	0.079975	0.000087
N43	N	1.228877	-0.196114	0.346754
N44	N	1.228871	-0.196131	-0.346575
C45	C	1.278171	-0.278284	0.423412
C46	C	1.278164	-0.278295	0.576749
C47	C	1.179571	-0.113956	0.576757
C48	C	1.179572	-0.113949	0.423423
C49	C	1.327476	-0.360449	0.346744
C50	C	1.376774	-0.442626	0.423402
C51	C	1.376768	-0.442636	0.576739
C52	C	1.327464	-0.360470	0.653418
H53	H	0.872044	-0.445278	0.000097
O54	O	0.944764	-0.776467	0.000040
H55	H	0.926242	-0.818913	0.099333
O56	O	0.903401	-0.594871	0.000048
H57	H	0.893813	-0.676522	0.000060
O58	O	1.126409	-0.025330	0.659450
H59	H	1.134701	-0.039135	0.778952
H60	H	0.987824	-0.415664	0.000065
H61	H	1.416900	-0.509551	0.639152
H62	H	0.949485	0.052346	0.000069
H63	H	1.416909	-0.509526	0.360962
O64	O	1.327469	-0.360441	0.181360
H65	H	1.370025	-0.431382	0.140923
O66	O	1.020732	-0.316367	0.000078
H67	H	1.060455	-0.247121	0.000079
H68	H	1.327455	-0.360490	0.778275
O69	O	1.403170	-0.621478	0.000115
H70	H	1.373276	-0.580309	0.099401
H71	H	1.139432	-0.047039	0.361008
O72	O	1.336149	-0.543512	0.000097
H73	H	1.354677	-0.501067	0.099390
O74	O	0.547854	-0.096871	0.000098
H75	H	0.574710	-0.059638	-0.099197
O76	O	0.609191	-0.027790	0.000083
H77	H	0.593219	0.055631	0.000073
H78	H	0.757880	0.101128	0.000080
H79	H	0.508265	-0.444600	0.000042
H80	H	1.526821	-0.800642	0.000140
O81	O	0.710203	-0.520289	0.000112
H82	H	0.757667	-0.536767	-0.099167
O83	O	1.489134	-0.998935	0.000128
H84	H	1.449829	-1.068442	0.000119
O85	O	1.095933	-0.952360	0.000065
H86	H	1.163996	-1.009124	0.000083
