data_functionalizedCrystal
_audit_creation_method	'MofGen! by Chris Wilmer'
_symmetry_space_group_name_H-M	'P1'
_symmetry_Int_Tables_number	1
_symmetry_cell_setting	triclinic
loop_
_symmetry_equiv_pos_as_xyz
  x,y,z
_cell_length_a	12.811457
_cell_length_b	12.837942
_cell_length_c	9.798715
_cell_angle_alpha	89.997407
_cell_angle_beta	95.428260
_cell_angle_gamma	89.411937
loop_
_atom_site_label
_atom_site_type_symbol
_atom_site_fract_x
_atom_site_fract_y
_atom_site_fract_z
O1	O	1.406628	0.139675	0.060606
O2	O	1.102567	0.154865	0.022970
O3	O	1.247855	-0.003662	0.040962
O4	O	1.261340	0.298202	0.042614
O5	O	1.247843	-0.003662	0.267943
O6	O	1.102555	0.154865	0.249951
O7	O	1.406616	0.139674	0.287587
Zn8	Zn	1.254584	0.147269	0.304807
Zn9	Zn	1.254599	0.147270	0.005750
O10	O	1.261328	0.298201	0.269595
C11	C	1.063372	0.154014	0.131610
C12	C	0.946600	0.151466	0.117156
C13	C	0.727160	0.146658	0.337479
C14	C	0.617443	0.144263	0.323905
C15	C	0.617447	0.144275	0.076437
C16	C	0.727164	0.146670	0.090011
C17	C	0.782017	0.147862	0.220536
C18	C	0.891736	0.150264	0.234108
C19	C	0.891738	0.150269	-0.013359
C20	C	0.782021	0.147874	-0.026932
C21	C	1.243294	-0.042302	0.153888
C22	C	1.229708	-0.157438	0.152204
C23	C	1.393036	-0.397693	0.172392
C24	C	1.380276	-0.505874	0.170810
C25	C	1.191428	-0.481982	0.147449
C26	C	1.204188	-0.373802	0.149031
C27	C	1.304996	-0.331661	0.161505
C28	C	1.317755	-0.223478	0.163096
C29	C	1.128908	-0.199589	0.139725
C30	C	1.116148	-0.307770	0.138144
C31	C	1.445811	0.140525	0.178944
C32	C	1.562583	0.143073	0.193389
C33	C	1.265889	0.336842	0.156666
C34	C	1.279475	0.451977	0.158341
N35	N	1.254580	0.147269	0.508906
N36	N	1.254610	0.147263	-0.198348
C37	C	1.315556	0.080415	0.584234
C38	C	1.315573	0.080412	0.741399
H39	H	0.936395	0.151242	0.340388
Br40	Br	1.402598	-0.014982	0.849314
H41	H	1.202407	0.204505	0.736911
H42	H	0.936414	0.151256	-0.108582
H43	H	0.572783	0.143288	0.419133
Br44	Br	0.542990	0.142542	-0.100689
Br45	Br	1.454562	-0.166287	0.180039
Br46	Br	1.009417	-0.109968	0.124973
H47	H	1.475117	-0.363382	0.182562
H48	H	1.202384	0.204498	0.560767
Br49	Br	0.707570	0.146214	-0.204064
Br50	Br	1.499764	-0.595487	0.185577
Br51	Br	0.801608	0.148296	0.514613
Br52	Br	1.054629	-0.539192	0.130473
H53	H	1.034073	-0.342096	0.127983
Br54	Br	1.402260	-0.015244	0.497773
