data_functionalizedCrystal
_audit_creation_method	'MofGen! by Chris Wilmer'
_symmetry_space_group_name_H-M	'P1'
_symmetry_Int_Tables_number	1
_symmetry_cell_setting	triclinic
loop_
_symmetry_equiv_pos_as_xyz
  x,y,z
_cell_length_a	14.908783
_cell_length_b	19.120786
_cell_length_c	14.908308
_cell_angle_alpha	90.683525
_cell_angle_beta	89.788727
_cell_angle_gamma	95.607498
loop_
_atom_site_label
_atom_site_type_symbol
_atom_site_fract_x
_atom_site_fract_y
_atom_site_fract_z
Zn1	Zn	1.332649	-0.245599	-0.573621
Zn2	Zn	1.832649	0.254401	-0.073621
Zn3	Zn	1.335542	-0.355895	-0.416880
Zn4	Zn	1.835542	0.144105	0.083120
Zn5	Zn	1.191002	-0.244839	-0.414636
Zn6	Zn	1.691002	0.255161	0.085364
Zn7	Zn	1.175874	-0.369341	-0.557724
Zn8	Zn	1.675874	0.130659	-0.057724
O9	O	1.258767	-0.303918	-0.490715
O10	O	1.758767	0.196082	0.009285
O11	O	1.459135	-0.254921	-0.560421
O12	O	1.959135	0.245079	-0.060421
O13	O	1.323910	-0.335218	-0.291103
O14	O	1.823910	0.164782	0.208897
O15	O	1.214912	-0.146676	-0.441440
O16	O	1.714912	0.353324	0.058560
O17	O	1.461260	-0.335954	-0.445264
O18	O	1.961260	0.164046	0.054736
O19	O	1.318980	-0.147234	-0.558245
O20	O	1.818980	0.352766	-0.058245
O21	O	1.217717	-0.253625	-0.289455
O22	O	1.717717	0.246375	0.210545
O23	O	1.062894	-0.266663	-0.426025
O24	O	1.562894	0.233337	0.073975
O25	O	1.189129	-0.358871	-0.685312
O26	O	1.689129	0.141129	-0.185312
O27	O	1.051779	-0.358134	-0.531151
O28	O	1.551779	0.141866	-0.031151
O29	O	1.304311	-0.267959	-0.696991
O30	O	1.804311	0.232041	-0.196991
O31	O	1.309241	-0.455942	-0.429849
O32	O	1.809241	0.044058	0.070151
O33	O	1.191934	-0.465820	-0.533326
O34	O	1.691934	0.034180	-0.033326
C35	C	1.024640	-0.313776	-0.476620
C36	C	1.524640	0.186224	0.023380
C37	C	0.924477	-0.318011	-0.470610
C38	C	1.424477	0.181989	0.029390
C39	C	0.734028	-0.241720	-0.579398
C40	C	1.234028	0.258280	-0.079398
C41	C	0.639917	-0.245697	-0.573755
C42	C	1.139917	0.254303	-0.073755
C43	C	0.642140	-0.329938	-0.453676
C44	C	1.142140	0.170062	0.046324
C45	C	0.736252	-0.325961	-0.459319
C46	C	1.236252	0.174039	0.040681
C47	C	0.782193	-0.281851	-0.522184
C48	C	1.282193	0.218149	-0.022184
C49	C	0.876306	-0.277879	-0.527831
C50	C	1.376306	0.222121	-0.027831
C51	C	0.878528	-0.362115	-0.407748
C52	C	1.378528	0.137885	0.092252
C53	C	0.784416	-0.366092	-0.402105
C54	C	1.284416	0.133908	0.097895
C55	C	1.249283	-0.486360	-0.480127
C56	C	1.749283	0.013640	0.019873
C57	C	1.245307	-0.564407	-0.475633
C58	C	1.745307	-0.064407	0.024367
C59	C	1.297576	-0.601308	-0.534379
C60	C	1.797576	-0.101308	-0.034379
C61	C	1.293836	-0.674642	-0.530158
C62	C	1.793836	-0.174642	-0.030158
C63	C	1.237831	-0.711073	-0.467184
C64	C	1.737831	-0.211073	0.032816
C65	C	1.185557	-0.674167	-0.408435
C66	C	1.685557	-0.174167	0.091565
C67	C	1.189292	-0.600835	-0.412662
C68	C	1.689292	-0.100835	0.087338
C69	C	1.223839	-0.932477	-0.451381
C70	C	1.723839	-0.432477	0.048619
C71	C	1.220109	-1.005814	-0.447157
C72	C	1.720109	-0.505814	0.052843
C73	C	1.328387	-1.006284	-0.568882
C74	C	1.828387	-0.506284	-0.068882
C75	C	1.332122	-0.932950	-0.573099
C76	C	1.832122	-0.432950	-0.073099
C77	C	1.279844	-0.896051	-0.514353
C78	C	1.779844	-0.396051	-0.014353
C79	C	1.234009	-0.786031	-0.462865
C80	C	1.734009	-0.286031	0.037135
C81	C	1.283662	-0.821094	-0.518677
C82	C	1.783662	-0.321094	-0.018677
C83	C	1.493808	-0.294022	-0.504866
C84	C	1.993808	0.205978	-0.004866
C85	C	1.593969	-0.289805	-0.510896
C86	C	2.093969	0.210195	-0.010896
C87	C	1.244710	-0.315000	-0.724597
C88	C	1.744710	0.185000	-0.224597
C89	C	1.238720	-0.319722	-0.824263
C90	C	1.738720	0.180278	-0.324263
C91	C	1.268311	-0.120764	-0.501366
C92	C	1.768311	0.379236	-0.001366
C93	C	1.272378	-0.042715	-0.505904
C94	C	1.772378	0.457285	-0.005904
C95	C	1.347401	-0.233912	-1.023711
C96	C	1.847401	0.266088	-0.523711
C97	C	1.341776	-0.238346	-1.117357
C98	C	1.841776	0.261654	-0.617357
C99	C	1.221840	-0.333021	-1.105202
C100	C	1.721840	0.166979	-0.605202
C101	C	1.227465	-0.328587	-1.011556
C102	C	1.727465	0.171413	-0.511556
C103	C	1.290249	-0.279031	-0.970814
C104	C	1.790249	0.220969	-0.470814
C105	C	1.295878	-0.274600	-0.877167
C106	C	1.795878	0.225400	-0.377167
C107	C	1.175939	-0.369272	-0.865014
C108	C	1.675939	0.130728	-0.365014
C109	C	1.170313	-0.373706	-0.958659
C110	C	1.670313	0.126294	-0.458659
C111	C	1.272823	-0.292827	-0.257750
C112	C	1.772823	0.207173	0.242250
C113	C	1.278998	-0.287900	-0.158106
C114	C	1.778998	0.212100	0.341894
H115	H	0.746998	-0.402003	-0.350920
H116	H	1.246998	0.097997	0.149080
H117	H	1.377725	-0.903289	-0.624377
H118	H	1.877725	-0.403289	-0.124377
H119	H	1.129403	-0.406013	-0.821935
H120	H	1.629403	0.093987	-0.321935
H121	H	1.170725	-0.373366	-1.138391
H122	H	1.670725	0.126634	-0.638391
H123	H	1.336406	-0.704683	-0.577989
H124	H	1.836406	-0.204683	-0.077989
F125	F	1.133660	-0.561562	-0.350136
F126	F	1.633660	-0.061562	0.149864
H127	H	1.398526	-0.193565	-0.990539
H128	H	1.898526	0.306435	-0.490539
H129	H	0.917752	-0.394799	-0.361166
H130	H	1.417752	0.105201	0.138834
F131	F	1.125944	-0.712942	-0.341421
F132	F	1.625944	-0.212942	0.158579
H133	H	1.119195	-0.414051	-0.991844
H134	H	1.619195	0.085949	-0.491844
F135	F	0.782923	-0.194783	-0.646309
F136	F	1.282923	0.305217	-0.146309
F137	F	0.925198	-0.230936	-0.594738
F138	F	1.425198	0.269064	-0.094738
F139	F	0.588660	-0.202983	-0.634649
F140	F	1.088660	0.297017	-0.134649
F141	F	1.384019	-1.045560	-0.631401
F142	F	1.884019	-0.545560	-0.131401
H143	H	1.388313	-0.201604	-1.160422
H144	H	1.888313	0.298396	-0.660422
H145	H	0.604719	-0.365841	-0.402485
H146	H	1.104719	0.134159	0.097515
H147	H	1.329257	-0.791430	-0.569953
H148	H	1.829257	-0.291430	-0.069953
H149	H	1.188413	-0.815702	-0.411590
H150	H	1.688413	-0.315702	0.088410
F151	F	1.362699	-0.221862	-0.833808
F152	F	1.862699	0.278138	-0.333808
H153	H	1.174499	-1.035474	-0.395876
H154	H	1.674499	-0.535474	0.104124
F155	F	1.357189	-0.562541	-0.601401
F156	F	1.857189	-0.062541	-0.101401
F157	F	1.168192	-0.893216	-0.388864
F158	F	1.668192	-0.393216	0.111136
