data_functionalizedCrystal
_audit_creation_method	'MofGen! by Chris Wilmer'
_symmetry_space_group_name_H-M	'P1'
_symmetry_Int_Tables_number	1
_symmetry_cell_setting	triclinic
loop_
_symmetry_equiv_pos_as_xyz
  x,y,z
_cell_length_a	18.760487
_cell_length_b	12.970454
_cell_length_c	18.760492
_cell_angle_alpha	59.998381
_cell_angle_beta	90.032780
_cell_angle_gamma	60.020386
loop_
_atom_site_label
_atom_site_type_symbol
_atom_site_fract_x
_atom_site_fract_y
_atom_site_fract_z
Zr1	Zr	0.686687	1.128519	-0.093124
O2	O	0.572876	1.343610	-0.207011
O3	O	0.721576	0.913429	-0.058211
O4	O	0.721583	1.128519	-0.206918
O5	O	0.572864	1.128520	0.059000
O6	O	0.838886	1.128519	-0.206846
O7	O	0.572869	1.128520	-0.058303
O8	O	0.838874	0.743761	0.059165
O9	O	0.572876	1.513278	-0.207011
O10	O	0.823998	1.001898	-0.043267
O11	O	0.736453	1.001899	0.044220
O12	O	0.736460	1.255140	-0.130864
O13	O	0.648915	1.255140	-0.043376
Zr14	Zr	0.873764	1.128519	0.094076
Zr15	Zr	0.873772	1.128519	-0.093009
Zr16	Zr	0.686679	1.128520	0.093961
Zr17	Zr	0.686687	1.399119	-0.093125
Zr18	Zr	0.873764	0.857920	0.094077
O19	O	0.838874	1.343610	0.059163
O20	O	0.838886	1.343610	-0.206847
O21	O	0.572864	1.343611	0.058999
O22	O	0.987575	0.913429	0.207963
O23	O	0.987587	0.913428	-0.058047
O24	O	0.721565	0.913429	0.207799
O25	O	0.987587	1.128519	-0.058048
O26	O	0.838868	1.128520	0.207871
O27	O	0.721565	1.128520	0.207798
O28	O	0.987582	1.128519	0.059255
O29	O	0.721583	1.513277	-0.206920
O30	O	0.838868	0.743761	0.207872
O31	O	0.987575	0.743761	0.207963
O32	O	0.987582	0.743761	0.059256
O33	O	0.572869	1.513278	-0.058304
O34	O	0.721577	1.513278	-0.058213
O35	O	0.823991	1.001899	0.131816
O36	O	0.911536	1.001898	0.044328
O37	O	0.823998	1.255140	-0.043268
O38	O	0.736453	1.255140	0.044220
C39	C	0.780225	0.790040	0.000477
C40	C	0.780225	0.675163	0.000478
C41	C	0.546211	1.128520	0.000332
C42	C	0.466789	1.128520	0.000283
C43	C	0.085278	1.260714	-0.045096
C44	C	0.176674	0.996325	0.046356
C45	C	0.251296	0.996323	0.046281
C46	C	0.242912	1.128518	0.000515
C47	C	0.159905	1.260716	-0.045175
C48	C	0.334307	0.864128	0.091963
C49	C	0.408935	0.864120	0.091889
C50	C	0.400552	0.996317	0.046128
C51	C	0.317539	1.128520	0.000437
C52	C	0.309155	1.260716	-0.045329
C53	C	0.226143	1.392920	-0.091015
C54	C	0.151522	1.392913	-0.090936
C55	C	0.475173	0.996325	0.046049
C56	C	0.383783	1.260718	-0.045407
C57	C	1.014240	1.128519	0.000620
C58	C	1.093662	1.128519	0.000669
C59	C	0.780235	1.128519	-0.233538
C60	C	0.780239	1.128519	-0.312960
C61	C	0.780225	1.466999	0.000475
C62	C	0.780225	1.581875	0.000474
C63	C	0.825910	0.996325	-0.603050
C64	C	0.734519	1.260714	-0.694497
C65	C	0.734525	1.260716	-0.619877
C66	C	0.780223	1.128520	-0.536838
C67	C	0.825915	0.996323	-0.528421
C68	C	0.688826	1.392911	-0.628288
C69	C	0.688829	1.392918	-0.553665
C70	C	0.734533	1.260721	-0.470624
C71	C	0.780228	1.128518	-0.462209
C72	C	0.825926	0.996323	-0.379171
C73	C	0.871627	0.864119	-0.370754
C74	C	0.871619	0.864126	-0.445380
C75	C	0.734541	1.260714	-0.395998
C76	C	0.825931	0.996321	-0.304542
C77	C	0.780215	1.128520	0.234490
C78	C	0.780212	1.128520	0.313912
C79	C	1.014240	0.790040	0.000621
C80	C	1.093662	0.675163	0.000671
C81	C	0.780215	0.790041	0.234491
C82	C	0.780212	0.675164	0.313914
C83	C	1.014230	0.790040	0.234635
C84	C	1.093648	0.675163	0.314107
C85	C	0.546221	1.466999	-0.233683
C86	C	0.466802	1.581875	-0.313154
C87	C	0.546211	1.466999	0.000331
C88	C	0.466789	1.581876	0.000282
C89	C	0.780236	1.466998	-0.233539
C90	C	0.780239	1.581875	-0.312962
C91	C	1.085266	0.621215	-0.045038
C92	C	1.159884	0.513291	-0.045009
C93	C	1.242898	0.459309	0.000734
C94	C	1.251293	0.513267	0.046444
C95	C	1.176675	0.621197	0.046409
C96	C	0.825904	0.621217	0.396943
C97	C	0.825898	0.513293	0.471576
C98	C	0.780203	0.459311	0.463178
C99	C	0.734505	0.513269	0.380140
C100	C	0.734507	0.621198	0.305509
C101	C	1.176650	0.621216	0.305759
C102	C	1.251280	0.513292	0.380424
C103	C	1.242906	0.459310	0.463435
C104	C	1.159895	0.513268	0.471781
C105	C	1.085268	0.621198	0.397117
C106	C	0.383801	1.635836	-0.304807
C107	C	0.309171	1.743793	-0.379472
C108	C	0.317545	1.797781	-0.462483
C109	C	0.400555	1.743816	-0.470828
C110	C	0.475183	1.635868	-0.396165
C111	C	0.475185	1.635835	0.045982
C112	C	0.400567	1.743789	0.045933
C113	C	0.317553	1.797775	0.000187
C114	C	0.309158	1.743811	-0.045519
C115	C	0.383776	1.635867	-0.045474
C116	C	0.825942	1.635822	-0.304535
C117	C	0.825962	1.743747	-0.379154
C118	C	0.780274	1.797729	-0.462198
C119	C	0.734569	1.743771	-0.470623
C120	C	0.734555	1.635841	-0.396005
H121	H	0.376945	1.368369	-0.082666
C122	C	0.876170	0.680585	0.406203
N123	N	0.914027	0.725302	0.413184
H124	H	0.376927	1.591937	-0.082687
H125	H	0.083930	1.500547	-0.128131
C126	C	0.217868	1.803133	-0.370272
N127	N	0.149101	1.847824	-0.363341
C128	C	0.217834	1.803192	-0.095822
N129	N	0.149046	1.847908	-0.133702
H130	H	0.256771	1.885679	-0.523272
H131	H	0.017688	1.368352	-0.082291
H132	H	0.407419	1.787707	0.083156
H133	H	0.863147	1.591887	-0.236923
H134	H	0.863179	1.787668	-0.372278
C135	C	1.325008	0.340574	0.545560
N136	N	1.386850	0.251136	0.607413
C137	C	0.684351	1.803116	-0.561980
N138	N	0.646537	1.847803	-0.630793
H139	H	0.407363	1.787786	-0.538425
H140	H	0.697334	1.591929	-0.402878
H141	H	0.780293	1.885613	-0.522950
C142	C	0.876204	0.850892	-0.213201
N143	N	0.914068	0.741355	-0.144403
C144	C	0.374568	1.576479	-0.213502
N145	N	0.367606	1.531787	-0.144732
H146	H	0.697302	0.469301	0.373315
C147	C	0.343521	0.718723	0.142298
N148	N	0.350460	0.609199	0.180213
C149	C	1.185883	0.680584	0.214454
N150	N	1.192844	0.725300	0.145685
C151	C	0.216932	1.538331	-0.141358
N152	N	0.209998	1.647851	-0.179275
H153	H	1.153032	0.469372	-0.082232
C154	C	0.921980	0.718708	-0.279404
N155	N	0.959936	0.609189	-0.210597
H156	H	0.183493	0.888698	0.083613
C157	C	0.500242	0.718694	0.142151
N158	N	0.569015	0.609158	0.180012
C159	C	0.684250	0.680513	0.214178
N160	N	0.646395	0.725181	0.145388
H161	H	1.017687	0.665108	0.403925
C162	C	0.921875	0.718714	-0.436132
N163	N	0.959724	0.609191	-0.429169
C164	C	1.342583	0.453945	0.371225
N165	N	1.411350	0.409244	0.364293
H166	H	1.153090	0.469301	0.539378
H167	H	0.542765	1.591934	-0.402971
C168	C	0.876181	0.453946	0.562910
N169	N	0.914057	0.409244	0.631700
C170	C	0.684252	1.406120	-0.785839
N171	N	0.646391	1.515646	-0.854643
H172	H	0.542757	0.888686	0.083254
H173	H	0.863121	0.888687	-0.596201
H174	H	0.256801	1.885670	0.000158
C175	C	0.638559	1.538316	-0.719631
N176	N	0.600699	1.647840	-0.788436
C177	C	1.342617	0.453860	0.096765
N178	N	1.411405	0.409103	0.134673
H179	H	0.651618	1.500567	-0.560527
H180	H	0.697325	1.368353	-0.402854
H181	H	1.017678	0.665167	-0.082298
H182	H	0.542773	1.591888	0.083240
H183	H	1.303650	0.371425	0.000755
H184	H	1.183524	0.665107	0.083636
H185	H	0.780209	0.371429	0.523955
