data_functionalizedCrystal
_audit_creation_method	'MofGen! by Chris Wilmer'
_symmetry_space_group_name_H-M	'P1'
_symmetry_Int_Tables_number	1
_symmetry_cell_setting	triclinic
loop_
_symmetry_equiv_pos_as_xyz
  x,y,z
_cell_length_a	15.995350
_cell_length_b	17.666332
_cell_length_c	15.995350
_cell_angle_alpha	89.997020
_cell_angle_beta	96.507625
_cell_angle_gamma	90.005607
loop_
_atom_site_label
_atom_site_type_symbol
_atom_site_fract_x
_atom_site_fract_y
_atom_site_fract_z
O1	O	1.110991	0.062880	-0.107926
O2	O	1.610991	0.562880	0.392074
O3	O	0.867216	0.062896	-0.121254
O4	O	1.367216	0.562896	0.378746
O5	O	0.995767	0.062887	0.007297
O6	O	1.495767	0.562887	0.507297
O7	O	0.982440	0.062889	-0.236478
O8	O	1.482440	0.562889	0.263522
O9	O	0.995745	-0.063010	0.007301
O10	O	1.495745	0.436990	0.507301
O11	O	0.867193	-0.063001	-0.121250
O12	O	1.367193	0.436999	0.378750
O13	O	1.110969	-0.063016	-0.107923
O14	O	1.610969	0.436984	0.392077
Cu15	Cu	0.989079	-0.074504	-0.114586
Cu16	Cu	1.489079	0.425496	0.385414
Cu17	Cu	0.989106	0.074383	-0.114591
Cu18	Cu	1.489106	0.574383	0.385409
O19	O	0.982417	-0.063008	-0.236474
O20	O	1.482417	0.436992	0.263526
C21	C	0.836010	-0.000051	-0.120701
C22	C	1.336010	0.499949	0.379299
C23	C	0.743060	-0.000045	-0.119049
C24	C	1.243060	0.499955	0.380951
N25	N	0.989066	-0.179224	-0.114582
N26	N	1.489066	0.320776	0.385418
C27	C	0.405312	-0.000061	-0.113117
C28	C	0.905312	0.499939	0.386883
C29	C	0.452746	-0.000342	-0.021565
C30	C	0.952746	0.499658	0.478435
C31	C	0.549436	-0.000053	-0.023217
C32	C	1.049436	0.499947	0.476783
C33	C	0.572873	-0.000053	-0.116060
C34	C	1.072873	0.499947	0.383940
C35	C	0.531798	0.071837	-0.161218
C36	C	1.031798	0.571837	0.338782
C37	C	0.435163	0.071892	-0.158918
C38	C	0.935163	0.571892	0.341082
C39	C	0.434798	-0.071276	-0.160806
C40	C	0.934798	0.428724	0.339194
C41	C	0.531743	-0.072221	-0.160784
C42	C	1.031743	0.427779	0.339216
C43	C	0.667570	-0.000047	-0.117727
C44	C	1.167570	0.499953	0.382273
C45	C	0.310614	-0.000062	-0.111452
C46	C	0.810614	0.499938	0.388548
C47	C	1.039839	-0.218830	-0.165399
C48	C	1.539839	0.281170	0.334601
C49	C	1.039853	-0.298077	-0.165397
C50	C	1.539853	0.201923	0.334603
C51	C	0.989077	-0.337716	-0.114587
C52	C	1.489077	0.162284	0.385413
C53	C	0.938301	-0.298100	-0.063760
C54	C	1.438301	0.201900	0.436240
C55	C	0.938295	-0.218854	-0.063758
C56	C	1.438295	0.281146	0.436242
N57	N	0.915740	-0.462151	-0.112301
N58	N	1.415740	0.037849	0.387699
N59	N	0.915747	-0.537431	-0.112308
N60	N	1.415747	-0.037431	0.387692
C61	C	0.989093	-0.576480	-0.114590
C62	C	1.489093	-0.076480	0.385410
N63	N	1.062431	-0.537404	-0.116882
N64	N	1.562431	-0.037404	0.383118
N65	N	1.062422	-0.462117	-0.116879
N66	N	1.562422	0.037883	0.383121
C67	C	0.989078	-0.423645	-0.114584
C68	C	1.489078	0.076355	0.385416
C69	C	1.039885	-0.702015	-0.165407
C70	C	1.539885	-0.202015	0.334593
C71	C	1.039900	-0.781264	-0.165399
C72	C	1.539900	-0.281264	0.334601
C73	C	0.938340	-0.781285	-0.063767
C74	C	1.438340	-0.281285	0.436233
C75	C	0.938333	-0.702038	-0.063770
C76	C	1.438333	-0.202038	0.436230
C77	C	0.989104	-0.662408	-0.114595
C78	C	1.489104	-0.162408	0.385405
C79	C	1.142175	-0.000068	-0.108476
C80	C	1.642175	0.499932	0.391524
C81	C	1.235125	-0.000069	-0.110127
C82	C	1.735125	0.499931	0.389873
C83	C	0.995205	-0.000060	0.038494
C84	C	1.495205	0.499940	0.538494
C85	C	0.993553	-0.000056	0.131444
C86	C	1.493553	0.499944	0.631444
N87	N	0.989125	0.179103	-0.114588
N88	N	1.489125	0.679103	0.385412
C89	C	0.982980	-0.000059	-0.267671
C90	C	1.482980	0.499941	0.232329
C91	C	0.984631	-0.000059	-0.360621
C92	C	1.484631	0.499941	0.139379
C93	C	0.987621	-0.000058	0.469192
C94	C	1.487621	0.499942	0.969192
C95	C	0.896069	0.000230	0.421758
C96	C	1.396069	0.500230	0.921758
C97	C	0.897721	-0.000054	0.325068
C98	C	1.397721	0.499946	0.825068
C99	C	0.990564	-0.000056	0.301631
C100	C	1.490564	0.499944	0.801631
C101	C	1.035707	-0.071951	0.342711
C102	C	1.535707	0.428049	0.842711
C103	C	1.033407	-0.072011	0.439347
C104	C	1.533407	0.427989	0.939347
C105	C	1.035324	0.071157	0.439701
C106	C	1.535324	0.571157	0.939701
C107	C	1.035303	0.072107	0.342755
C108	C	1.535303	0.572107	0.842755
C109	C	0.992231	-0.000058	0.206934
C110	C	1.492231	0.499942	0.706934
C111	C	0.985956	-0.000061	0.563890
C112	C	1.485956	0.499939	1.063890
H113	H	0.577856	-0.051588	0.012280
H114	H	1.077856	0.448412	0.512280
C115	C	0.570132	0.144116	-0.118850
C116	C	1.070132	0.644116	0.381150
H117	H	0.611156	0.130636	-0.073647
H118	H	1.111156	0.630636	0.426353
H119	H	0.595871	0.173204	-0.158841
H120	H	1.095871	0.673204	0.341159
H121	H	0.527011	0.173094	-0.097904
H122	H	1.027011	0.673094	0.402096
H123	H	0.433162	0.050928	0.014860
H124	H	0.933162	0.550928	0.514860
C125	C	1.095750	-0.824835	-0.221301
C126	C	1.595750	-0.324835	0.278699
H127	H	1.088489	-0.877708	-0.214019
H128	H	1.588489	-0.377708	0.285981
H129	H	1.080182	-0.811847	-0.278581
H130	H	1.580182	-0.311847	0.221419
H131	H	1.153040	-0.811839	-0.205780
H132	H	1.653040	-0.311839	0.294220
H133	H	0.416864	0.125632	-0.125990
H134	H	0.916864	0.625632	0.374010
C135	C	1.127852	-0.075573	0.323637
C136	C	1.627852	0.424427	0.823637
H137	H	1.153961	-0.119463	0.349065
H138	H	1.653961	0.380537	0.849065
H139	H	1.129456	-0.077727	0.264500
H140	H	1.629456	0.422273	0.764500
H141	H	1.156991	-0.031762	0.345597
H142	H	1.656991	0.468238	0.845597
H143	H	0.577304	0.051570	0.012516
H144	H	1.077304	0.551570	0.512516
C145	C	1.126776	0.077963	0.322031
C146	C	1.626776	0.577963	0.822031
H147	H	1.152238	0.122043	0.347667
H148	H	1.652238	0.622043	0.847667
H149	H	1.157289	0.034483	0.342855
H150	H	1.657289	0.534483	0.842855
H151	H	1.127236	0.080982	0.262786
H152	H	1.627236	0.580982	0.762786
H153	H	1.100623	-0.075275	0.471595
H154	H	1.600623	0.424725	0.971595
C155	C	0.993320	-0.144226	0.304387
C156	C	1.493320	0.355774	0.804387
H157	H	0.948119	-0.130742	0.263363
H158	H	1.448119	0.369258	0.763363
H159	H	1.033302	-0.173318	0.278650
H160	H	1.533302	0.326682	0.778650
H161	H	0.972369	-0.173202	0.347513
H162	H	1.472369	0.326798	0.847513
C163	C	0.846833	-0.069018	0.448228
C164	C	1.346833	0.430982	0.948228
H165	H	0.791588	-0.068405	0.419286
H166	H	1.291588	0.431595	0.919286
H167	H	0.874771	-0.114045	0.434575
H168	H	1.374771	0.385955	0.934575
H169	H	0.843752	-0.067314	0.507162
H170	H	1.343752	0.432686	1.007162
C171	C	0.407046	-0.144890	-0.120373
C172	C	0.907046	0.355110	0.379627
H173	H	0.377215	-0.132878	-0.074023
H174	H	0.877215	0.367122	0.425977
H175	H	0.371569	-0.172958	-0.160775
H176	H	0.871569	0.327042	0.339225
H177	H	0.455237	-0.174241	-0.101356
H178	H	0.955237	0.325759	0.398644
C179	C	0.990781	0.143960	0.305872
C180	C	1.490781	0.643960	0.805872
H181	H	0.945121	0.130048	0.265575
H182	H	1.445121	0.630048	0.765575
H183	H	0.970220	0.172191	0.349772
H184	H	1.470220	0.672191	0.849772
H185	H	1.029538	0.173966	0.279496
H186	H	1.529538	0.673966	0.779496
H187	H	0.896984	-0.669790	-0.022393
H188	H	1.396984	-0.169790	0.477607
H189	H	0.402915	0.075155	-0.226134
H190	H	0.902915	0.575155	0.273866
H191	H	0.545924	0.074510	-0.229427
H192	H	1.045924	0.574510	0.270573
C193	C	0.568624	-0.144070	-0.116251
C194	C	1.068624	0.355930	0.383749
H195	H	0.608923	-0.130154	-0.070594
H196	H	1.108923	0.369846	0.429406
H197	H	0.524726	-0.172305	-0.095683
H198	H	1.024726	0.327695	0.404317
H199	H	0.594999	-0.174073	-0.155004
H200	H	1.094999	0.325927	0.344996
H201	H	0.862235	0.051483	0.296644
H202	H	1.362235	0.551483	0.796644
H203	H	0.896948	-0.186607	-0.022376
H204	H	1.396948	0.313393	0.477624
H205	H	1.081226	-0.669747	-0.206791
H206	H	1.581226	-0.169747	0.293209
C207	C	0.846639	0.069871	0.446797
C208	C	1.346639	0.569871	0.946797
H209	H	0.881388	0.099395	0.486408
H210	H	1.381388	0.599395	0.986408
H211	H	0.829806	0.099478	0.398221
H212	H	1.329806	0.599478	0.898221
H213	H	0.798230	0.053700	0.471233
H214	H	1.298230	0.553700	0.971233
C215	C	1.095701	-0.341657	-0.221299
C216	C	1.595701	0.158343	0.278701
H217	H	1.088436	-0.394529	-0.214016
H218	H	1.588436	0.105471	0.285984
H219	H	1.080138	-0.328669	-0.278579
H220	H	1.580138	0.171331	0.221421
H221	H	1.152993	-0.328666	-0.205774
H222	H	1.652993	0.171334	0.294226
H223	H	1.081184	-0.186568	-0.206781
H224	H	1.581184	0.313432	0.293219
C225	C	0.552494	-0.078090	-0.252246
C226	C	1.052494	0.421910	0.247754
H227	H	0.586660	-0.036415	-0.264410
H228	H	1.086660	0.463585	0.235590
H229	H	0.581838	-0.123975	-0.259331
H230	H	1.081838	0.376025	0.240669
H231	H	0.501781	-0.077484	-0.289429
H232	H	1.001781	0.422516	0.210571
C233	C	1.126510	0.071815	0.482604
C234	C	1.626510	0.571815	0.982604
H235	H	1.155017	0.114972	0.464531
H236	H	1.655017	0.614972	0.964531
H237	H	1.126194	0.073662	0.541921
H238	H	1.626194	0.573662	1.041921
H239	H	1.154578	0.027215	0.467817
H240	H	1.654578	0.527215	0.967817
H241	H	1.005402	0.125649	0.460239
H242	H	1.505402	0.625649	0.960239
C243	C	0.391897	-0.071934	-0.251992
C244	C	0.891897	0.428066	0.248008
H245	H	0.356183	-0.029046	-0.260991
H246	H	0.856183	0.470954	0.239009
H247	H	0.433566	-0.070353	-0.289812
H248	H	0.933566	0.429647	0.210188
H249	H	0.359457	-0.116803	-0.261422
H250	H	0.859457	0.383197	0.238578
H251	H	1.000469	-0.125751	0.457650
H252	H	1.500469	0.374249	0.957650
H253	H	0.896960	-0.330379	-0.022390
H254	H	1.396960	0.169621	0.477610
C255	C	0.849447	-0.069793	0.287422
C256	C	1.349447	0.430207	0.787422
H257	H	0.828756	-0.098066	0.331232
H258	H	1.328756	0.401934	0.831232
H259	H	0.803629	-0.053765	0.248450
H260	H	1.303629	0.446235	0.748450
H261	H	0.886188	-0.100588	0.259371
H262	H	1.386188	0.399412	0.759371
C263	C	0.882488	-0.824878	-0.007878
C264	C	1.382488	-0.324878	0.492122
H265	H	0.889759	-0.877747	-0.015160
H266	H	1.389759	-0.377747	0.484840
H267	H	0.898044	-0.811892	0.049404
H268	H	1.398044	-0.311892	0.549404
H269	H	0.825196	-0.811898	-0.023409
H270	H	1.325196	-0.311898	0.476591
H271	H	0.434215	-0.051898	0.015032
H272	H	0.934215	0.448102	0.515032
