data_functionalizedCrystal
_audit_creation_method	'MofGen! by Chris Wilmer'
_symmetry_space_group_name_H-M	'P1'
_symmetry_Int_Tables_number	1
_symmetry_cell_setting	triclinic
loop_
_symmetry_equiv_pos_as_xyz
  x,y,z
_cell_length_a	11.169417
_cell_length_b	10.686285
_cell_length_c	11.169417
_cell_angle_alpha	94.374231
_cell_angle_beta	90.000551
_cell_angle_gamma	85.633103
loop_
_atom_site_label
_atom_site_type_symbol
_atom_site_fract_x
_atom_site_fract_y
_atom_site_fract_z
Zn1	Zn	1.871441	-0.502498	0.641928
Zn2	Zn	1.886805	-0.713453	0.425878
Zn3	Zn	1.670792	-0.502486	0.441264
Zn4	Zn	1.686142	-0.713442	0.626525
O5	O	1.778795	-0.607970	0.533899
O6	O	2.041429	-0.530492	0.613276
O7	O	1.858156	-0.685466	0.259970
O8	O	1.684555	-0.325916	0.480768
O9	O	2.052717	-0.685479	0.454545
O10	O	1.831970	-0.325926	0.628195
O11	O	1.699453	-0.530470	0.271274
O12	O	1.504878	-0.530460	0.465833
O13	O	1.710716	-0.685461	0.796518
O14	O	1.516155	-0.685449	0.601942
O15	O	1.846854	-0.530482	0.807834
O16	O	1.873040	-0.890022	0.439609
O17	O	1.725614	-0.890015	0.587023
C18	C	1.466969	-0.607953	0.533886
C19	C	1.333571	-0.607976	0.533907
C20	C	1.802692	-0.935802	0.510001
C21	C	1.813026	-1.076049	0.499817
C22	C	2.091838	-0.607988	0.533912
C23	C	2.225239	-0.607995	0.533918
C24	C	1.754837	-0.278858	0.557916
C25	C	1.744627	-0.138610	0.568151
C26	C	1.778783	-0.607972	0.846941
C27	C	1.778779	-0.607973	0.980341
C28	C	1.778794	-0.607991	1.222073
C29	C	1.778782	-0.607974	1.088674
H30	H	1.879485	-1.129789	0.433510
H31	H	1.678163	-1.084878	0.634447
