data_functionalizedCrystal
_audit_creation_method	'MofGen! by Chris Wilmer'
_symmetry_space_group_name_H-M	'P1'
_symmetry_Int_Tables_number	1
_symmetry_cell_setting	triclinic
loop_
_symmetry_equiv_pos_as_xyz
  x,y,z
_cell_length_a	15.298114
_cell_length_b	15.297327
_cell_length_c	10.686551
_cell_angle_alpha	83.957836
_cell_angle_beta	85.407886
_cell_angle_gamma	88.422361
loop_
_atom_site_label
_atom_site_type_symbol
_atom_site_fract_x
_atom_site_fract_y
_atom_site_fract_z
Zn1	Zn	1.311729	-0.556811	0.530043
Zn2	Zn	1.275939	-0.710571	0.364908
Zn3	Zn	1.154192	-0.539333	0.353033
Zn4	Zn	1.144209	-0.674872	0.599168
O5	O	1.221517	-0.620397	0.461788
O6	O	1.428041	-0.599462	0.484178
O7	O	1.248989	-0.695481	0.191214
O8	O	1.194246	-0.420578	0.342614
O9	O	1.401746	-0.712429	0.362854
O10	O	1.309987	-0.433419	0.472663
O11	O	1.159542	-0.569673	0.182490
O12	O	1.031808	-0.535058	0.409643
O13	O	1.177230	-0.651586	0.762117
O14	O	1.024473	-0.634638	0.590477
O15	O	1.300307	-0.564846	0.711331
O16	O	1.239309	-0.826908	0.429882
O17	O	1.142527	-0.800681	0.601992
C18	C	0.996751	-0.579078	0.506273
C19	C	0.900594	-0.561422	0.525339
C20	C	0.574803	-0.746584	0.325824
C21	C	0.665148	-0.763173	0.307901
C22	C	0.724013	-0.712737	0.362260
C23	C	0.692527	-0.645709	0.434543
C24	C	0.602174	-0.629114	0.452460
C25	C	0.751384	-0.595266	0.488895
C26	C	0.719897	-0.528238	0.561179
C27	C	0.629553	-0.511647	0.579093
C28	C	0.570687	-0.562083	0.524734
C29	C	0.841737	-0.611861	0.470979
C30	C	0.869107	-0.494391	0.597614
C31	C	0.778763	-0.477802	0.615537
C32	C	1.185976	-0.845191	0.524749
C33	C	1.170853	-0.941371	0.551709
C34	C	1.329986	-1.267010	0.269447
C35	C	1.344194	-1.176643	0.244110
C36	C	1.300860	-1.117821	0.321008
C37	C	1.243316	-1.149373	0.423246
C38	C	1.229101	-1.239748	0.448580
C39	C	1.199975	-1.090559	0.500141
C40	C	1.142431	-1.122112	0.602380
C41	C	1.128219	-1.212478	0.627709
C42	C	1.171553	-1.271300	0.550811
C43	C	1.214190	-1.000185	0.474807
C44	C	1.113305	-0.972923	0.653940
C45	C	1.099097	-1.063289	0.679277
C46	C	1.447161	-0.661877	0.417130
C47	C	1.543317	-0.679553	0.398099
C48	C	1.241647	-0.606184	0.782600
C49	C	1.250226	-0.600127	0.919311
C50	C	1.257222	-0.394728	0.398603
C51	C	1.272438	-0.298562	0.371678
C52	C	1.201525	-0.634501	0.142197
C53	C	1.193153	-0.640345	0.005385
H54	H	0.526868	-0.787637	0.281564
O55	O	0.932585	-0.439986	0.656256
H56	H	1.000699	-0.462792	0.631667
O57	O	1.066148	-1.246506	0.737974
H58	H	1.012219	-1.282079	0.703132
H59	H	1.391045	-1.150957	0.160867
H60	H	1.261043	-0.974503	0.391563
O61	O	1.156227	-1.368769	0.578148
H62	H	1.085668	-1.381776	0.572835
H63	H	1.137730	-0.679414	0.974489
H64	H	0.753113	-0.423227	0.674390
H65	H	1.078017	-0.925029	0.716555
H66	H	1.305657	-0.561062	0.950212
H67	H	0.867364	-0.666437	0.412125
O68	O	1.037017	-1.097321	0.789531
H69	H	1.034409	-1.170041	0.794213
O70	O	0.595592	-0.439343	0.657037
H71	H	0.552223	-0.467806	0.738542
O72	O	0.821455	-0.730635	0.342929
H73	H	0.854041	-0.670820	0.295213
O74	O	0.699106	-0.835457	0.229934
H75	H	0.672357	-0.899280	0.273327
O76	O	0.473239	-0.544194	0.544055
H77	H	0.452469	-0.553309	0.646429
O78	O	1.316189	-1.020354	0.293698
H79	H	1.363490	-1.008296	0.209696
H80	H	1.365256	-1.314909	0.206841
