data_functionalizedCrystal
_audit_creation_method	'MofGen! by Chris Wilmer'
_symmetry_space_group_name_H-M	'P1'
_symmetry_Int_Tables_number	1
_symmetry_cell_setting	triclinic
loop_
_symmetry_equiv_pos_as_xyz
  x,y,z
_cell_length_a	16.959453
_cell_length_b	16.959455
_cell_length_c	16.959447
_cell_angle_alpha	89.985678
_cell_angle_beta	90.031064
_cell_angle_gamma	89.983065
loop_
_atom_site_label
_atom_site_type_symbol
_atom_site_fract_x
_atom_site_fract_y
_atom_site_fract_z
Zn1	Zn	-0.314730	-1.208384	0.446905
Zn2	Zn	0.185270	-0.708384	0.946905
Zn3	Zn	-0.446923	-1.208307	0.314724
Zn4	Zn	0.053077	-0.708307	0.814724
Zn5	Zn	-0.314755	-1.076213	0.314742
Zn6	Zn	0.185245	-0.576213	0.814742
Zn7	Zn	-0.446864	-1.076178	0.446863
Zn8	Zn	0.053136	-0.576178	0.946863
O9	O	-0.380818	-1.142270	0.380808
O10	O	0.119182	-0.642270	0.880808
O11	O	-0.332280	-1.318985	0.429381
O12	O	0.167720	-0.818985	0.929381
O13	O	-0.429426	-1.190767	0.204116
O14	O	0.070574	-0.690767	0.704116
O15	O	-0.204141	-1.093793	0.332299
O16	O	0.295859	-0.593793	0.832299
O17	O	-0.429402	-1.318928	0.332268
O18	O	0.070598	-0.818928	0.832268
O19	O	-0.204123	-1.190898	0.429398
O20	O	0.295877	-0.690898	0.929398
O21	O	-0.332323	-1.093718	0.204129
O22	O	0.167677	-0.593718	0.704129
O23	O	-0.332265	-0.965597	0.332258
O24	O	0.167735	-0.465597	0.832258
O25	O	-0.429301	-1.093733	0.557479
O26	O	0.070699	-0.593733	1.057479
O27	O	-0.429325	-0.965571	0.429327
O28	O	0.070675	-0.465571	0.929327
O29	O	-0.332223	-1.190864	0.557510
O30	O	0.167777	-0.690864	1.057510
O31	O	-0.557526	-1.190733	0.332228
O32	O	-0.057526	-0.690733	0.832228
O33	O	-0.557482	-1.093658	0.429310
O34	O	-0.057482	-0.593658	0.929310
C35	C	-0.380792	-0.936904	0.380790
C36	C	0.119208	-0.436904	0.880790
C37	C	-0.380800	-0.849048	0.380801
C38	C	0.119200	-0.349048	0.880801
C39	C	-0.586184	-1.142204	0.380780
C40	C	-0.086184	-0.642204	0.880780
C41	C	-0.674041	-1.142249	0.380794
C42	C	-0.174041	-0.642249	0.880794
C43	C	-0.380753	-1.142303	0.586977
C44	C	0.119247	-0.642303	1.086977
C45	C	-0.380725	-1.142317	0.674833
C46	C	0.119275	-0.642317	1.174833
C47	C	-1.045448	-1.192898	0.431463
C48	C	-0.545448	-0.692898	0.931463
C49	C	-1.045584	-1.091863	0.330271
C50	C	-0.545584	-0.591863	0.830271
C51	C	-0.963039	-1.091834	0.330253
C52	C	-0.463039	-0.591834	0.830253
C53	C	-0.921694	-1.142337	0.380842
C54	C	-0.421694	-0.642337	0.880842
C55	C	-0.962895	-1.192869	0.431449
C56	C	-0.462895	-0.692869	0.931449
C57	C	-0.921831	-1.041297	0.279652
C58	C	-0.421831	-0.541297	0.779652
C59	C	-0.839280	-1.041265	0.279633
C60	C	-0.339280	-0.541265	0.779633
C61	C	-0.797934	-1.091773	0.330218
C62	C	-0.297934	-0.591773	0.830218
C63	C	-0.839140	-1.142307	0.380827
C64	C	-0.339140	-0.642307	0.880827
C65	C	-0.797796	-1.192810	0.431415
C66	C	-0.297796	-0.692810	0.931415
C67	C	-0.839000	-1.243349	0.482021
C68	C	-0.339000	-0.743349	0.982021
C69	C	-0.921549	-1.243376	0.482034
C70	C	-0.421549	-0.743376	0.982034
C71	C	-0.715386	-1.091746	0.330205
C72	C	-0.215386	-0.591746	0.830205
C73	C	-0.715242	-1.192781	0.431401
C74	C	-0.215242	-0.692781	0.931401
C75	C	-0.174650	-1.142358	0.380855
C76	C	0.325350	-0.642358	0.880855
C77	C	-0.086793	-1.142395	0.380875
C78	C	0.413207	-0.642395	0.880875
C79	C	-0.380845	-1.348439	0.380827
C80	C	0.119155	-0.848439	0.880827
C81	C	-0.380856	-1.436295	0.380835
C82	C	0.119144	-0.936295	0.880835
C83	C	-0.330238	-0.477561	0.330370
C84	C	0.169762	0.022439	0.830370
C85	C	-0.431463	-0.477583	0.431292
C86	C	0.068537	0.022417	0.931292
C87	C	-0.431452	-0.560129	0.431287
C88	C	0.068548	-0.060129	0.931287
C89	C	-0.380834	-0.601395	0.380822
C90	C	0.119166	-0.101395	0.880822
C91	C	-0.330226	-0.560114	0.330362
C92	C	0.169774	-0.060114	0.830362
C93	C	-0.482064	-0.601415	0.481740
C94	C	0.017936	-0.101415	0.981740
C95	C	-0.482055	-0.683966	0.481737
C96	C	0.017945	-0.183966	0.981737
C97	C	-0.431432	-0.725233	0.431275
C98	C	0.068568	-0.225233	0.931275
C99	C	-0.380822	-0.683948	0.380814
C100	C	0.119178	-0.183948	0.880814
C101	C	-0.330204	-0.725214	0.330350
C102	C	0.169796	-0.225214	0.830350
C103	C	-0.279589	-0.683930	0.279892
C104	C	0.220411	-0.183930	0.779892
C105	C	-0.279603	-0.601382	0.279901
C106	C	0.220397	-0.101382	0.779901
C107	C	-0.431418	-0.807782	0.431266
C108	C	0.068582	-0.307782	0.931266
C109	C	-0.330193	-0.807767	0.330341
C110	C	0.169807	-0.307767	0.830341
C111	C	-0.380826	-1.142283	0.175442
C112	C	0.119174	-0.642283	0.675442
C113	C	-0.380631	-1.142422	0.087586
C114	C	0.119369	-0.642422	0.587586
C115	C	-0.431185	-1.091840	1.046296
C116	C	0.068815	-0.591840	1.546296
C117	C	-0.330097	-1.192984	1.046323
C118	C	0.169903	-0.692984	1.546323
C119	C	-0.330114	-1.192963	0.963777
C120	C	0.169886	-0.692963	1.463777
C121	C	-0.380668	-1.142380	0.922487
C122	C	0.119332	-0.642380	1.422487
C123	C	-0.431205	-1.091819	0.963742
C124	C	0.068795	-0.591819	1.463742
C125	C	-0.279584	-1.243529	0.922515
C126	C	0.220416	-0.743529	1.422515
C127	C	-0.279599	-1.243511	0.839964
C128	C	0.220401	-0.743511	1.339964
C129	C	-0.330149	-1.192923	0.798672
C130	C	0.169851	-0.692923	1.298672
C131	C	-0.380688	-1.142359	0.839933
C132	C	0.119312	-0.642359	1.339933
C133	C	-0.431242	-1.091777	0.798643
C134	C	0.068758	-0.591777	1.298643
C135	C	-0.481777	-1.041208	0.839902
C136	C	0.018223	-0.541208	1.339902
C137	C	-0.481756	-1.041232	0.922450
C138	C	0.018244	-0.541232	1.422450
C139	C	-0.330171	-1.192900	0.716124
C140	C	0.169829	-0.692900	1.216124
C141	C	-0.431262	-1.091756	0.716089
C142	C	0.068738	-0.591756	1.216089
H143	H	-0.681584	-1.233909	0.472593
H144	H	-0.181584	-0.733909	0.972593
O145	O	-0.275660	-0.433026	0.275949
O146	O	0.224340	0.066974	0.775949
H147	H	-0.213635	-0.448875	0.289613
H148	H	0.286365	0.051125	0.789613
O149	O	-0.965987	-1.297880	0.536616
O150	O	-0.465987	-0.797880	1.036616
H151	H	-0.950098	-1.284278	0.598635
H152	H	-0.450098	-0.784278	1.098635
H153	H	-0.238397	-0.567761	0.238820
H154	H	0.261603	-0.067761	0.738820
H155	H	-0.472679	-0.443979	0.472373
H156	H	0.027321	0.056021	0.972373
H157	H	-0.523280	-0.567810	0.522820
H158	H	-0.023280	-0.067810	1.022820
H159	H	-0.805328	-1.284465	0.523214
H160	H	-0.305328	-0.784465	1.023214
H161	H	-0.288943	-1.234170	1.079946
H162	H	0.211057	-0.734170	1.579946
O163	O	-0.536633	-0.728493	0.536164
O164	O	-0.036633	-0.228493	1.036164
H165	H	-0.571827	-0.685929	0.571261
H166	H	-0.071827	-0.185929	1.071261
O167	O	-0.485999	-0.852312	0.485683
O168	O	0.014001	-0.352312	0.985683
H169	H	-0.521197	-0.809749	0.520777
H170	H	-0.021197	-0.309749	1.020777
O171	O	-0.966420	-0.986842	0.225077
O172	O	-0.466420	-0.486842	0.725077
H173	H	-1.030743	-0.995367	0.233578
H174	H	-0.530743	-0.495367	0.733578
H175	H	-0.522901	-1.000064	0.956051
H176	H	-0.022901	-0.500064	1.456051
H177	H	-0.472422	-1.050558	0.682476
H178	H	0.027578	-0.550558	1.182476
H179	H	-1.079001	-1.234048	0.472663
H180	H	-0.579001	-0.734048	0.972663
H181	H	-0.238450	-1.284686	0.806378
H182	H	0.261550	-0.784686	1.306378
O183	O	-0.485684	-1.037294	1.090790
O184	O	0.014316	-0.537294	1.590790
H185	H	-0.525901	-1.072656	1.128388
H186	H	-0.025901	-0.572656	1.628388
O187	O	-0.536301	-0.986649	0.795366
O188	O	-0.036301	-0.486649	1.295366
H189	H	-0.527819	-0.995132	0.731034
H190	H	-0.027819	-0.495132	1.231034
H191	H	-0.238430	-1.284715	0.956140
H192	H	0.261570	-0.784715	1.456140
H193	H	-0.805737	-1.000115	0.238427
H194	H	-0.305737	-0.500115	0.738427
O195	O	-0.275677	-1.247437	0.671618
O196	O	0.224323	-0.747437	1.171618
H197	H	-0.213633	-1.233913	0.687475
H198	H	0.286367	-0.733913	1.187475
O199	O	-1.090180	-1.037407	0.275703
O200	O	-0.590180	-0.537407	0.775703
H201	H	-1.127798	-0.997185	0.311046
H202	H	-0.627798	-0.497185	0.811046
O203	O	-0.670940	-1.037247	0.275628
O204	O	-0.170940	-0.537247	0.775628
H205	H	-0.713558	-1.002137	0.240451
H206	H	-0.213558	-0.502137	0.740451
O207	O	-0.275595	-0.852277	0.275913
O208	O	0.224405	-0.352277	0.775913
H209	H	-0.310922	-0.889868	0.235635
H210	H	0.189078	-0.389868	0.735635
H211	H	-0.238379	-0.717540	0.238800
H212	H	0.261621	-0.217540	0.738800
