data_functionalizedCrystal
_audit_creation_method	'MofGen! by Chris Wilmer'
_symmetry_space_group_name_H-M	'P1'
_symmetry_Int_Tables_number	1
_symmetry_cell_setting	triclinic
loop_
_symmetry_equiv_pos_as_xyz
  x,y,z
_cell_length_a	19.805407
_cell_length_b	16.625546
_cell_length_c	19.805399
_cell_angle_alpha	89.972133
_cell_angle_beta	89.980427
_cell_angle_gamma	90.022468
loop_
_atom_site_label
_atom_site_type_symbol
_atom_site_fract_x
_atom_site_fract_y
_atom_site_fract_z
Zn1	Zn	1.034754	-0.321020	-0.382718
Zn2	Zn	1.534754	0.178980	0.117282
Zn3	Zn	1.034677	-0.455857	-0.269529
Zn4	Zn	1.534677	0.044143	0.230471
Zn5	Zn	0.921569	-0.321043	-0.269543
Zn6	Zn	1.421569	0.178957	0.230457
Zn7	Zn	0.921540	-0.455815	-0.382676
Zn8	Zn	1.421540	0.044185	0.117324
O9	O	0.978135	-0.388434	-0.326117
O10	O	1.478135	0.111566	0.173883
O11	O	1.129461	-0.338915	-0.367716
O12	O	1.629461	0.161085	0.132284
O13	O	1.019652	-0.438001	-0.174815
O14	O	1.519652	0.061999	0.325185
O15	O	0.936628	-0.208207	-0.284579
O16	O	1.436628	0.291793	0.215421
O17	O	1.129404	-0.437980	-0.284556
O18	O	1.629404	0.062020	0.215444
O19	O	1.019784	-0.208191	-0.367729
O20	O	1.519784	0.291809	0.132271
O21	O	0.936553	-0.338953	-0.174825
O22	O	1.436553	0.161047	0.325175
O23	O	0.826848	-0.338912	-0.284538
O24	O	1.326848	0.161088	0.215462
O25	O	0.936579	-0.437907	-0.477398
O26	O	1.436579	0.062093	0.022602
O27	O	0.826827	-0.437928	-0.367657
O28	O	1.326827	0.062072	0.132343
O29	O	1.019756	-0.338874	-0.477429
O30	O	1.519756	0.161126	0.022571
O31	O	1.019625	-0.568684	-0.284515
O32	O	1.519625	-0.068684	0.215485
O33	O	0.936504	-0.568653	-0.367644
O34	O	1.436504	-0.068653	0.132356
C35	C	0.802279	-0.388418	-0.326095
C36	C	1.302279	0.111582	0.173905
C37	C	0.727047	-0.388431	-0.326102
C38	C	1.227047	0.111569	0.173898
C39	C	0.691710	-0.440067	-0.369311
C40	C	1.191710	0.059933	0.130689
C41	C	0.621021	-0.440068	-0.369321
C42	C	1.121021	0.059932	0.130679
C43	C	0.585671	-0.388437	-0.326117
C44	C	1.085671	0.111563	0.173883
C45	C	0.621014	-0.336796	-0.282905
C46	C	1.121014	0.163204	0.217095
C47	C	0.691701	-0.336791	-0.282899
C48	C	1.191701	0.163209	0.217101
C49	C	0.335941	-0.336814	-0.282927
C50	C	0.835941	0.163186	0.217073
C51	C	0.265248	-0.336825	-0.282935
C52	C	0.765248	0.163175	0.217065
C53	C	0.265261	-0.440091	-0.369349
C54	C	0.765261	0.059909	0.130651
C55	C	0.335948	-0.440086	-0.369343
C56	C	0.835948	0.059914	0.130657
C57	C	0.371284	-0.388442	-0.326134
C58	C	0.871284	0.111558	0.173866
C59	C	0.447932	-0.388440	-0.326125
C60	C	0.947932	0.111560	0.173875
C61	C	0.509024	-0.388443	-0.326122
C62	C	1.009024	0.111557	0.173878
C63	C	0.978071	-0.597925	-0.326088
C64	C	1.478071	-0.097925	0.173912
C65	C	0.978105	-0.687546	-0.326099
C66	C	1.478105	-0.187546	0.173901
C67	C	0.978224	-1.015721	-0.326169
C68	C	1.478224	-0.515721	0.173831
C69	C	0.978189	-0.924413	-0.326152
C70	C	1.478189	-0.424413	0.173848
C71	C	0.978164	-0.851636	-0.326134
C72	C	1.478164	-0.351636	0.173866
C73	C	0.978130	-0.760322	-0.326117
C74	C	1.478130	-0.260322	0.173883
C75	C	1.154678	-0.388450	-0.326139
C76	C	1.654678	0.111550	0.173861
C77	C	1.229910	-0.388457	-0.326149
C78	C	1.729910	0.111543	0.173851
C79	C	0.978173	-0.388383	-0.502660
C80	C	1.478173	0.111617	-0.002660
C81	C	0.978189	-0.388361	-0.577892
C82	C	1.478189	0.111639	-0.077892
C83	C	0.978218	-0.178125	-0.326160
C84	C	1.478218	0.321875	0.173840
C85	C	0.978253	-0.088504	-0.326178
C86	C	1.478253	0.411496	0.173822
C87	C	1.021501	-0.336792	-0.613253
C88	C	1.521501	0.163208	-0.113253
C89	C	1.021508	-0.336769	-0.683941
C90	C	1.521508	0.163231	-0.183941
C91	C	0.978206	-0.388319	-0.719267
C92	C	1.478206	0.111681	-0.219267
C93	C	0.934889	-0.439890	-0.683901
C94	C	1.434889	0.060110	-0.183901
C95	C	0.934880	-0.439909	-0.613214
C96	C	1.434880	0.060091	-0.113214
C97	C	0.934928	-0.439815	-0.968974
C98	C	1.434928	0.060185	-0.468974
C99	C	0.934942	-0.439794	-1.039667
C100	C	1.434942	0.060206	-0.539667
C101	C	1.021556	-0.336675	-1.039702
C102	C	1.521556	0.163325	-0.539702
C103	C	1.021546	-0.336694	-0.969015
C104	C	1.521546	0.163306	-0.469015
C105	C	0.978227	-0.388262	-0.933655
C106	C	1.478227	0.111738	-0.433655
C107	C	0.978219	-0.388285	-0.857006
C108	C	1.478219	0.111715	-0.357006
C109	C	0.978217	-0.388300	-0.795914
C110	C	1.478217	0.111700	-0.295914
C111	C	0.978136	-0.388426	-0.150261
C112	C	1.478136	0.111574	0.349739
C113	C	0.978251	-0.388221	-0.075029
C114	C	1.478251	0.111779	0.424971
H115	H	0.720472	-0.294740	-0.247717
H116	H	1.220472	0.205260	0.252283
O117	O	0.726075	-0.490307	-0.411184
O118	O	1.226075	0.009693	0.088816
C119	C	0.766946	-0.542311	-0.372571
C120	C	1.266946	-0.042311	0.127429
H121	H	0.745621	-0.547212	-0.319256
H122	H	1.245621	-0.047212	0.180744
H123	H	0.820525	-0.517374	-0.370274
H124	H	1.320525	-0.017374	0.129726
C125	C	0.794211	-0.620162	-0.470997
C126	C	1.294211	-0.120162	0.029003
C127	C	0.768017	-0.626187	-0.405516
C128	C	1.268017	-0.126187	0.094484
H129	H	0.794875	-0.671900	-0.491320
H130	H	1.294875	-0.171900	0.008680
H131	H	0.766678	-0.585124	-0.497013
H132	H	1.266678	-0.085124	0.002987
H133	H	0.838858	-0.599378	-0.469074
H134	H	1.338858	-0.099378	0.030926
H135	H	0.723368	-0.646960	-0.407441
H136	H	1.223368	-0.146960	0.092559
H137	H	0.795543	-0.661230	-0.379502
H138	H	1.295543	-0.161230	0.120498
H139	H	0.899665	-0.481817	-0.940193
H140	H	1.399665	0.018183	-0.440193
O141	O	1.063587	-0.286640	-0.579045
O142	O	1.563587	0.213360	-0.079045
C143	C	1.101827	-0.241133	-0.625418
C144	C	1.601827	0.258867	-0.125418
H145	H	1.074111	-0.238326	-0.675801
H146	H	1.574111	0.261674	-0.175801
H147	H	1.153222	-0.270661	-0.632940
H148	H	1.653222	0.229339	-0.132940
C149	C	1.145654	-0.158771	-0.535971
C150	C	1.645654	0.341229	-0.035971
C151	C	1.111609	-0.155319	-0.597851
C152	C	1.611609	0.344681	-0.097851
H153	H	1.151691	-0.105839	-0.518966
H154	H	1.651691	0.394161	-0.018966
H155	H	1.119893	-0.189432	-0.504728
H156	H	1.619893	0.310568	-0.004728
H157	H	1.188479	-0.183382	-0.542248
H158	H	1.688479	0.316618	-0.042248
H159	H	1.068781	-0.130718	-0.591572
H160	H	1.568781	0.369282	-0.091572
H161	H	1.137363	-0.124652	-0.629092
H162	H	1.637363	0.375348	-0.129092
H163	H	0.364726	-0.482132	-0.404522
H164	H	0.864726	0.017868	0.095478
H165	H	1.056826	-0.294683	-1.068501
H166	H	1.556826	0.205317	-0.568501
O167	O	1.063482	-0.286582	-0.718316
O168	O	1.563482	0.213418	-0.218316
C169	C	1.024971	-0.234497	-0.759213
C170	C	1.524971	0.265503	-0.259213
H171	H	0.971660	-0.229528	-0.737901
H172	H	1.471660	0.270472	-0.237901
H173	H	1.022640	-0.259400	-0.812784
H174	H	1.522640	0.240600	-0.312784
C175	C	1.123542	-0.156778	-0.786484
C176	C	1.623542	0.343222	-0.286484
C177	C	1.058067	-0.150670	-0.760306
C178	C	1.558067	0.349330	-0.260306
H179	H	1.143958	-0.105071	-0.787162
H180	H	1.643958	0.394929	-0.287162
H181	H	1.149489	-0.191870	-0.758934
H182	H	1.649489	0.308130	-0.258934
H183	H	1.121590	-0.177534	-0.831124
H184	H	1.621590	0.322466	-0.331124
H185	H	1.060020	-0.129925	-0.715664
H186	H	1.560020	0.370075	-0.215664
H187	H	1.032121	-0.115572	-0.787849
H188	H	1.532121	0.384428	-0.287849
H189	H	1.056809	-0.294719	-0.940256
H190	H	1.556809	0.205281	-0.440256
H191	H	0.592253	-0.482116	-0.404506
H192	H	1.092253	0.017884	0.095494
H193	H	0.899678	-0.481774	-1.068427
H194	H	1.399678	0.018226	-0.568427
O195	O	0.892888	-0.489939	-0.718319
O196	O	1.392888	0.010061	-0.218319
C197	C	0.902172	-0.478853	-0.788292
C198	C	1.402172	0.021147	-0.288292
H199	H	0.954419	-0.452450	-0.797963
H200	H	1.454419	0.047550	-0.297963
H201	H	0.862045	-0.435904	-0.808354
H202	H	1.362045	0.064096	-0.308354
C203	C	0.831769	-0.592853	-0.812686
C204	C	1.331769	-0.092853	-0.312686
C205	C	0.895942	-0.560432	-0.824564
C206	C	1.395942	-0.060432	-0.324564
H207	H	0.827923	-0.643174	-0.835061
H208	H	1.327923	-0.143174	-0.335061
H209	H	0.825511	-0.600321	-0.765544
H210	H	1.325511	-0.100321	-0.265544
H211	H	0.798337	-0.557055	-0.829404
H212	H	1.298337	-0.057055	-0.329404
H213	H	0.929372	-0.596225	-0.807839
H214	H	1.429372	-0.096225	-0.307839
H215	H	0.902205	-0.552972	-0.871705
H216	H	1.402205	-0.052972	-0.371705
H217	H	0.236481	-0.482139	-0.404534
H218	H	0.736481	0.017861	0.095466
H219	H	0.899604	-0.481894	-0.584423
H220	H	1.399604	0.018106	-0.084423
H221	H	0.364703	-0.294769	-0.247739
H222	H	0.864703	0.205231	0.252261
O223	O	0.231013	-0.286587	-0.240946
O224	O	0.731013	0.213413	0.259054
C225	C	0.277359	-0.241016	-0.202796
C226	C	0.777359	0.258984	0.297204
H227	H	0.327760	-0.238262	-0.230518
H228	H	0.827760	0.261738	0.269482
H229	H	0.284847	-0.270455	-0.151342
H230	H	0.784847	0.229545	0.348658
C231	C	0.187880	-0.158572	-0.159132
C232	C	0.687880	0.341428	0.340868
C233	C	0.249783	-0.155184	-0.193183
C234	C	0.749783	0.344816	0.306817
H235	H	0.170870	-0.105627	-0.153199
H236	H	0.670870	0.394373	0.346801
H237	H	0.156656	-0.189276	-0.184832
H238	H	0.656656	0.310724	0.315168
H239	H	0.194129	-0.183108	-0.116258
H240	H	0.694129	0.316892	0.383742
H241	H	0.243532	-0.130658	-0.236060
H242	H	0.743532	0.369342	0.263940
H243	H	0.281006	-0.124474	-0.167490
H244	H	0.781006	0.375526	0.332510
H245	H	0.592226	-0.294754	-0.247730
H246	H	1.092226	0.205246	0.252270
