data_functionalizedCrystal
_audit_creation_method	'MofGen! by Chris Wilmer'
_symmetry_space_group_name_H-M	'P1'
_symmetry_Int_Tables_number	1
_symmetry_cell_setting	triclinic
loop_
_symmetry_equiv_pos_as_xyz
  x,y,z
_cell_length_a	16.109317
_cell_length_b	12.837942
_cell_length_c	15.186229
_cell_angle_alpha	89.990771
_cell_angle_beta	89.992508
_cell_angle_gamma	90.851422
loop_
_atom_site_label
_atom_site_type_symbol
_atom_site_fract_x
_atom_site_fract_y
_atom_site_fract_z
O1	O	-1.113706	0.133332	-0.073133
O2	O	-0.872962	0.149895	-0.073156
O3	O	-0.987995	-0.009288	-0.073140
O4	O	-0.998672	0.292515	-0.073149
O5	O	-0.988002	-0.009309	0.073318
O6	O	-0.872968	0.149875	0.073302
O7	O	-1.113712	0.133311	0.073324
Zn8	Zn	-0.993341	0.141589	0.096566
Zn9	Zn	-0.993333	0.141617	-0.096398
O10	O	-0.998678	0.292494	0.073308
C11	C	-0.841937	0.149211	0.000070
C12	C	-0.749482	0.147190	0.000062
C13	C	-0.449886	0.140676	-0.079762
C14	C	-0.536757	0.142568	-0.079766
C15	C	-0.536782	0.142531	0.079910
C16	C	-0.449912	0.140632	0.079913
C17	C	-0.406466	0.139710	0.000074
C18	C	-0.580208	0.143500	0.000068
C19	C	-0.674398	0.145551	0.000064
C20	C	-0.312270	0.137657	0.000078
C21	C	-0.984392	-0.047918	0.000088
C22	C	-0.973635	-0.162992	0.000086
C23	C	-1.102952	-0.403985	0.000079
C24	C	-1.092849	-0.512108	0.000077
C25	C	-0.943327	-0.487364	0.000072
C26	C	-0.953430	-0.379241	0.000075
C27	C	-1.033245	-0.337555	0.000080
C28	C	-1.043347	-0.229430	0.000088
C29	C	-0.893826	-0.204688	0.000077
C30	C	-0.883723	-0.312811	0.000075
C31	C	-0.144737	0.133996	0.000091
C32	C	-0.237192	0.136020	0.000080
C33	C	-1.002282	0.331124	0.000078
C34	C	-1.013039	0.446198	0.000075
N35	N	-0.993327	0.141628	-0.228090
C36	C	-0.938034	0.078575	-0.453815
C37	C	-0.938039	0.078563	-0.546005
C38	C	-1.048652	0.204625	-0.546010
C39	C	-1.048650	0.204631	-0.453822
C40	C	-0.993336	0.141608	-0.407727
C41	C	-0.993344	0.141590	-0.592105
C42	C	-0.993350	0.141577	-0.692061
C43	C	-0.993331	0.141619	-0.307765
N44	N	-0.993353	0.141570	0.228259
H45	H	-0.572166	0.143284	0.144912
H46	H	-1.093685	0.255938	-0.583552
N47	N	-0.797640	-0.357775	0.000067
H48	H	-0.801816	-0.436351	0.000064
H49	H	-0.766768	-0.333486	0.054362
N50	N	-0.878388	0.010586	-0.404100
H51	H	-0.886775	0.020153	-0.338705
H52	H	-0.819514	0.030892	-0.420227
H53	H	-0.837065	-0.150589	0.000084
H54	H	-1.167940	-0.370044	0.000092
H55	H	-0.893007	0.027234	-0.583526
H56	H	-0.572106	0.143353	-0.144776
N57	N	-0.403024	0.139677	-0.165869
H58	H	-0.443716	0.140573	-0.216445
H59	H	-0.368632	0.074668	-0.169345
N60	N	-0.403075	0.139581	0.166026
H61	H	-0.443794	0.139749	0.216601
H62	H	-0.365795	0.203375	0.169769
N63	N	-1.108320	0.272592	-0.404104
H64	H	-1.143363	0.312514	-0.447292
H65	H	-1.076024	0.323182	-0.365857
H66	H	-1.108337	-0.195492	0.000095
H67	H	-0.878345	-0.521323	0.000059
N68	N	-1.168032	-0.583759	0.000075
H69	H	-1.220124	-0.540940	0.000078
H70	H	-1.167102	-0.629170	0.054368
