data_functionalizedCrystal
_audit_creation_method	'MofGen! by Chris Wilmer'
_symmetry_space_group_name_H-M	'P1'
_symmetry_Int_Tables_number	1
_symmetry_cell_setting	triclinic
loop_
_symmetry_equiv_pos_as_xyz
  x,y,z
_cell_length_a	19.805407
_cell_length_b	13.897447
_cell_length_c	13.897449
_cell_angle_alpha	90.007994
_cell_angle_beta	90.010603
_cell_angle_gamma	90.018777
loop_
_atom_site_label
_atom_site_type_symbol
_atom_site_fract_x
_atom_site_fract_y
_atom_site_fract_z
Zn1	Zn	1.034677	-0.384207	0.545562
Zn2	Zn	1.034632	-0.545468	0.384268
Zn3	Zn	0.921519	-0.384187	0.384262
Zn4	Zn	0.921469	-0.545459	0.545501
O5	O	0.978074	-0.464830	0.464898
O6	O	1.129388	-0.405610	0.524194
O7	O	1.019630	-0.524069	0.249285
O8	O	0.936569	-0.249208	0.405682
O9	O	1.129355	-0.524089	0.405692
O10	O	1.019706	-0.249222	0.524189
O11	O	0.936526	-0.405577	0.249281
O12	O	0.826796	-0.405568	0.405623
O13	O	0.936484	-0.524073	0.680491
O14	O	0.826759	-0.524054	0.524084
O15	O	1.019658	-0.405602	0.680536
O16	O	1.019582	-0.680449	0.405632
O17	O	0.936441	-0.680442	0.524090
C18	C	0.802218	-0.464808	0.464847
C19	C	0.726986	-0.464822	0.464848
C20	C	0.265194	-0.526642	0.526546
C21	C	0.335882	-0.526640	0.526526
C22	C	0.371225	-0.464854	0.464936
C23	C	0.335875	-0.403071	0.403356
C24	C	0.265187	-0.403078	0.403372
C25	C	0.620948	-0.403042	0.403288
C26	C	0.691640	-0.403037	0.403278
C27	C	0.691643	-0.526604	0.526442
C28	C	0.620956	-0.526611	0.526458
C29	C	0.585612	-0.464833	0.464874
C30	C	0.508964	-0.464836	0.464896
C31	C	0.447872	-0.464844	0.464919
C32	C	0.978019	-0.715445	0.464876
C33	C	0.978058	-0.822658	0.464899
C34	C	0.978090	-0.909728	0.464921
C35	C	0.978138	-1.018961	0.464945
C36	C	1.154617	-0.464853	0.464950
C37	C	1.229849	-0.464862	0.464973
C38	C	0.978070	-0.464839	0.716491
C39	C	0.978069	-0.464842	0.823705
C40	C	0.978148	-0.213237	0.464942
C41	C	0.978179	-0.106023	0.464960
C42	C	0.978067	-0.464846	0.910775
C43	C	0.978067	-0.464841	1.020007
C44	C	0.978072	-0.464841	1.214284
C45	C	0.978070	-0.464832	1.107070
H46	H	0.364657	-0.576950	0.576663
H47	H	0.720428	-0.576909	0.576583
C48	C	0.226948	-0.593827	0.593459
C49	C	0.273035	-0.647946	0.647361
C50	C	0.237830	-0.709857	0.709003
H51	H	0.199389	-0.557102	0.635642
H52	H	0.199369	-0.635853	0.556521
H53	H	0.300602	-0.605925	0.684297
H54	H	0.300595	-0.684691	0.605203
H55	H	0.210251	-0.751884	0.672065
H56	H	0.210272	-0.673125	0.751180
H57	H	0.269094	-0.746591	0.745577
C58	C	0.582707	-0.593801	0.593362
C59	C	0.628791	-0.647926	0.647264
C60	C	0.593582	-0.709845	0.708895
H61	H	0.555145	-0.557082	0.635546
H62	H	0.555131	-0.635824	0.556415
H63	H	0.656356	-0.605908	0.684209
H64	H	0.656355	-0.684665	0.605106
H65	H	0.566006	-0.751867	0.671948
H66	H	0.566022	-0.673117	0.751072
H67	H	0.624845	-0.746582	0.745468
C68	C	0.729891	-0.335921	0.336292
C69	C	0.683810	-0.281840	0.282341
C70	C	0.719022	-0.220017	0.220619
H71	H	0.757485	-0.293860	0.373145
H72	H	0.757435	-0.372738	0.294150
H73	H	0.656278	-0.245026	0.324478
H74	H	0.656215	-0.323876	0.245469
H75	H	0.746566	-0.256834	0.178477
H76	H	0.746615	-0.177962	0.257479
H77	H	0.687762	-0.183322	0.184000
H78	H	0.236410	-0.352769	0.353235
H79	H	0.592180	-0.352742	0.353139
C80	C	0.374366	-0.336023	0.336591
C81	C	0.443836	-0.349218	0.349774
C82	C	0.479314	-0.287458	0.288297
H83	H	0.362846	-0.349977	0.271719
H84	H	0.362834	-0.271217	0.350832
H85	H	0.455364	-0.414010	0.335526
H86	H	0.455376	-0.335257	0.414632
H87	H	0.467781	-0.222651	0.302538
H88	H	0.467788	-0.301416	0.223429
H89	H	0.526453	-0.296395	0.297239
