data_functionalizedCrystal
_audit_creation_method	'MofGen! by Chris Wilmer'
_symmetry_space_group_name_H-M	'P1'
_symmetry_Int_Tables_number	1
_symmetry_cell_setting	triclinic
loop_
_symmetry_equiv_pos_as_xyz
  x,y,z
_cell_length_a	16.959455
_cell_length_b	17.637651
_cell_length_c	16.959447
_cell_angle_alpha	101.247502
_cell_angle_beta	90.014701
_cell_angle_gamma	101.218339
loop_
_atom_site_label
_atom_site_type_symbol
_atom_site_fract_x
_atom_site_fract_y
_atom_site_fract_z
Zn1	Zn	1.144790	-0.314761	0.383218
Zn2	Zn	1.117997	-0.446988	0.224281
Zn3	Zn	1.012612	-0.314791	0.251049
Zn4	Zn	0.985878	-0.446935	0.356430
O5	O	1.065319	-0.380869	0.303744
O6	O	1.251844	-0.332311	0.362144
O7	O	1.103993	-0.429487	0.117214
O8	O	1.052546	-0.204147	0.290995
O9	O	1.232160	-0.429457	0.245373
O10	O	1.149657	-0.204125	0.388100
O11	O	1.026567	-0.332363	0.136880
O12	O	0.898457	-0.332311	0.265019
O13	O	1.006983	-0.429367	0.470601
O14	O	0.878816	-0.429396	0.342442
O15	O	1.123734	-0.332259	0.490283
O16	O	1.078070	-0.557621	0.219397
O17	O	0.981003	-0.557582	0.316486
C18	C	0.859956	-0.380852	0.303728
C19	C	0.772097	-0.380863	0.303737
C20	C	0.720587	-0.431371	0.242882
C21	C	0.741053	-0.330362	0.364596
C22	C	0.658506	-0.330368	0.364604
C23	C	0.606995	-0.380876	0.303750
C24	C	0.638033	-0.431377	0.242887
C25	C	0.627463	-0.279862	0.425461
C26	C	0.544912	-0.279865	0.425471
C27	C	0.493399	-0.330378	0.364619
C28	C	0.524441	-0.380882	0.303755
C29	C	0.472931	-0.431390	0.242900
C30	C	0.503970	-0.481898	0.182038
C31	C	0.586520	-0.481890	0.182035
C32	C	0.410849	-0.330386	0.364622
C33	C	0.390376	-0.431396	0.242905
C34	C	1.023750	-0.586289	0.262147
C35	C	1.006039	-0.674169	0.244378
C36	C	1.200383	-0.962841	0.438983
C37	C	1.183715	-1.045418	0.422273
C38	C	1.082662	-1.045548	0.321060
C39	C	1.099323	-0.962970	0.337759
C40	C	1.158184	-0.921623	0.396722
C41	C	1.057125	-0.921752	0.295499
C42	C	1.073783	-0.839182	0.312200
C43	C	1.132639	-0.797829	0.371162
C44	C	1.174842	-0.839053	0.413423
C45	C	0.998260	-0.963101	0.236540
C46	C	0.956062	-0.921883	0.194279
C47	C	0.972723	-0.839311	0.210976
C48	C	1.031579	-0.797958	0.269938
C49	C	0.930520	-0.798087	0.168714
C50	C	0.947178	-0.715516	0.185415
C51	C	1.048237	-0.715387	0.286639
C52	C	1.271484	-0.380887	0.303761
C53	C	1.359339	-0.380894	0.303768
C54	C	1.065365	-0.380803	0.509926
C55	C	1.065385	-0.380775	0.597788
C56	C	1.107072	-0.174646	0.345521
C57	C	1.124865	-0.086767	0.363324
C58	C	1.065330	-0.380877	0.098377
C59	C	1.065509	-0.380682	0.010560
C60	C	1.004709	-0.431252	0.959036
C61	C	1.126283	-0.330133	0.979526
C62	C	1.126259	-0.330149	0.896977
C63	C	1.065459	-0.380719	0.845453
C64	C	1.004684	-0.431271	0.876479
C65	C	1.187038	-0.279603	0.865943
C66	C	1.187016	-0.279619	0.783389
C67	C	1.126212	-0.330185	0.731865
C68	C	1.065434	-0.380739	0.762895
C69	C	1.004635	-0.431308	0.711372
C70	C	0.943853	-0.481859	0.742401
C71	C	0.943880	-0.481838	0.824954
C72	C	1.126185	-0.330206	0.649312
C73	C	1.004610	-0.431328	0.628814
H74	H	0.462020	-0.523019	0.132488
H75	H	1.175674	-0.289051	0.624051
H76	H	0.611800	-0.523009	0.132483
H77	H	1.034735	-1.079224	0.273054
H78	H	1.096174	-0.681721	0.334647
C79	C	1.252603	-0.145742	0.785130
C80	C	1.253820	-0.224041	0.749295
H81	H	1.293842	-0.111428	0.764079
H82	H	1.261317	-0.138509	0.841661
H83	H	1.201829	-0.134184	0.773940
H84	H	1.304593	-0.235601	0.760490
H85	H	1.245113	-0.231277	0.692751
C86	C	1.328684	-0.241106	0.899163
C87	C	1.253869	-0.224022	0.922573
H88	H	1.369943	-0.206793	0.934130
H89	H	1.337363	-0.233884	0.845564
H90	H	1.329486	-0.294229	0.901933
H91	H	1.253065	-0.170901	0.919798
H92	H	1.245188	-0.231238	0.976187
H93	H	0.669409	-0.238738	0.475003
H94	H	0.348440	-0.472529	0.193352
H95	H	1.218072	-1.078974	0.456702
C96	C	0.857842	-0.913716	0.095902
C97	C	0.891363	-0.967335	0.129469
H98	H	0.817897	-0.941777	0.055893
H99	H	0.898800	-0.881512	0.072215
H100	H	0.834083	-0.881505	0.136835
H101	H	0.915127	-0.999543	0.088537
H102	H	0.850397	-0.999553	0.153156
C103	C	0.954201	-1.081345	0.287801
C104	C	0.979939	-1.053865	0.218183
H105	H	0.942893	-1.137378	0.276469
H106	H	0.906958	-1.062683	0.305192
H107	H	0.995306	-1.062618	0.328954
H108	H	0.938832	-1.072587	0.177032
H109	H	1.027189	-1.072534	0.200781
H110	H	0.882590	-0.831764	0.120712
H111	H	0.745863	-0.472496	0.193331
C112	C	0.845612	-0.723931	0.083684
C113	C	0.900792	-0.670203	0.138965
H114	H	0.816976	-0.695954	0.055008
H115	H	0.808861	-0.756135	0.111580
H116	H	0.873581	-0.756132	0.046964
H117	H	0.872822	-0.638005	0.175689
H118	H	0.937548	-0.637985	0.111068
H119	H	0.782997	-0.289237	0.414138
H120	H	1.222778	-0.805386	0.461431
C121	C	0.884445	-0.531289	0.616851
C122	C	0.937781	-0.486924	0.572180
H123	H	0.843193	-0.565616	0.581885
H124	H	0.861190	-0.496831	0.656023
H125	H	0.912780	-0.561519	0.642930
H126	H	0.909447	-0.456690	0.546106
H127	H	0.961037	-0.521387	0.532994
C128	C	1.298605	-0.970998	0.537373
C129	C	1.265080	-0.917384	0.503801
H130	H	1.338538	-0.942932	0.577392
H131	H	1.322373	-1.003199	0.496451
H132	H	1.257640	-1.003213	0.561055
H133	H	1.306044	-0.885173	0.480114
H134	H	1.241313	-0.885169	0.544730
C135	C	0.889943	-0.526708	0.942402
C136	C	0.877076	-0.537402	0.859063
H137	H	0.848704	-0.561016	0.963459
H138	H	0.889134	-0.473587	0.966691
H139	H	0.940715	-0.538282	0.953573
H140	H	0.826307	-0.525822	0.847892
H141	H	0.877878	-0.590535	0.834766
H142	H	0.519647	-0.238739	0.475030
H143	H	0.894352	-0.523036	0.700439
H144	H	1.175787	-0.288966	1.021480
H145	H	0.385581	-0.289257	0.414171
H146	H	0.955220	-0.472406	0.984305
H147	H	1.146201	-0.730594	0.384758
