data_functionalizedCrystal
_audit_creation_method	'MofGen! by Chris Wilmer'
_symmetry_space_group_name_H-M	'P1'
_symmetry_Int_Tables_number	1
_symmetry_cell_setting	triclinic
loop_
_symmetry_equiv_pos_as_xyz
  x,y,z
_cell_length_a	17.077404
_cell_length_b	16.120507
_cell_length_c	16.120256
_cell_angle_alpha	95.613568
_cell_angle_beta	87.120369
_cell_angle_gamma	87.068191
loop_
_atom_site_label
_atom_site_type_symbol
_atom_site_fract_x
_atom_site_fract_y
_atom_site_fract_z
Zn1	Zn	1.159590	0.356806	0.489421
Zn2	Zn	1.409590	0.606806	0.739421
Zn3	Zn	1.659590	0.856806	0.989421
Zn4	Zn	1.909590	1.106806	1.239421
Zn5	Zn	1.159473	0.489492	0.356725
Zn6	Zn	1.409473	0.739492	0.606725
Zn7	Zn	1.659473	0.989492	0.856725
Zn8	Zn	1.909473	1.239492	1.106725
Zn9	Zn	1.035332	0.349733	0.349669
Zn10	Zn	1.285332	0.599733	0.599669
Zn11	Zn	1.535332	0.849733	0.849669
Zn12	Zn	1.785332	1.099733	1.099669
Zn13	Zn	1.021258	0.496533	0.496451
Zn14	Zn	1.271258	0.746533	0.746451
Zn15	Zn	1.521258	0.996533	0.996451
Zn16	Zn	1.771258	1.246533	1.246451
O17	O	1.093913	0.423141	0.423066
O18	O	1.343913	0.673141	0.673066
O19	O	1.593913	0.923141	0.923066
O20	O	1.843913	1.173141	1.173066
O21	O	1.269420	0.374421	0.471829
O22	O	1.519420	0.624421	0.721829
O23	O	1.769420	0.874421	0.971829
O24	O	2.019420	1.124421	1.221829
O25	O	1.148847	0.465047	0.238827
O26	O	1.398847	0.715047	0.488827
O27	O	1.648847	0.965047	0.738827
O28	O	1.898847	1.215047	0.988827
O29	O	1.057754	0.233706	0.362311
O30	O	1.307754	0.483706	0.612311
O31	O	1.557754	0.733706	0.862311
O32	O	1.807754	0.983706	1.112311
O33	O	1.269334	0.471905	0.374339
O34	O	1.519334	0.721905	0.624339
O35	O	1.769334	0.971905	0.874339
O36	O	2.019334	1.221905	1.124339
O37	O	1.149046	0.238903	0.464987
O38	O	1.399046	0.488903	0.714987
O39	O	1.649046	0.738903	0.964987
O40	O	1.899046	0.988903	1.214987
O41	O	1.057641	0.362366	0.233642
O42	O	1.307641	0.612366	0.483642
O43	O	1.557641	0.862366	0.733642
O44	O	1.807641	1.112366	0.983642
O45	O	0.923620	0.369193	0.369129
O46	O	1.173620	0.619193	0.619129
O47	O	1.423620	0.869193	0.869129
O48	O	1.673620	1.119193	1.119129
O49	O	1.033766	0.483904	0.612481
O50	O	1.283766	0.733904	0.862481
O51	O	1.533766	0.983904	1.112481
O52	O	1.783766	1.233904	1.362481
O53	O	0.913279	0.477046	0.476969
O54	O	1.163279	0.727046	0.726969
O55	O	1.413279	0.977046	0.976969
O56	O	1.663279	1.227046	1.226969
O57	O	1.135398	0.381248	0.607316
O58	O	1.385398	0.631248	0.857316
O59	O	1.635398	0.881248	1.107316
O60	O	1.885398	1.131248	1.357316
O61	O	1.135199	0.607392	0.381156
O62	O	1.385199	0.857392	0.631156
O63	O	1.635199	1.107392	0.881156
O64	O	1.885199	1.357392	1.131156
O65	O	1.033653	0.612564	0.483812
O66	O	1.283653	0.862564	0.733812
O67	O	1.533653	1.112564	0.983812
O68	O	1.783653	1.362564	1.233812
C69	C	0.889967	0.423117	0.423046
C70	C	1.139967	0.673117	0.673046
C71	C	1.389967	0.923117	0.923046
C72	C	1.639967	1.173117	1.173046
C73	C	0.802717	0.423127	0.423059
C74	C	1.052717	0.673127	0.673059
C75	C	1.302717	0.923127	0.923059
C76	C	1.552717	1.173127	1.173059
C77	C	0.761763	0.372467	0.473909
C78	C	1.011763	0.622467	0.723909
C79	C	1.261763	0.872467	0.973909
C80	C	1.511763	1.122467	1.223909
C81	C	0.679782	0.372472	0.473913
C82	C	0.929782	0.622472	0.723913
C83	C	1.179782	0.872472	0.973913
C84	C	1.429782	1.122472	1.223913
C85	C	0.638756	0.423143	0.423071
C86	C	0.888756	0.673143	0.673071
C87	C	1.138756	0.923143	0.923071
C88	C	1.388756	1.173143	1.173071
C89	C	0.679715	0.473806	0.372215
C90	C	0.929715	0.723806	0.622215
C91	C	1.179715	0.973806	0.872215
C92	C	1.429715	1.223806	1.122215
C93	C	0.761695	0.473795	0.372207
C94	C	1.011695	0.723795	0.622207
C95	C	1.261695	0.973795	0.872207
C96	C	1.511695	1.223795	1.122207
C97	C	0.508843	0.473826	0.372237
C98	C	0.758843	0.723826	0.622237
C99	C	1.008843	0.973826	0.872237
C100	C	1.258843	1.223826	1.122237
C101	C	0.426858	0.473838	0.372246
C102	C	0.676858	0.723838	0.622246
C103	C	0.926858	0.973838	0.872246
C104	C	1.176858	1.223838	1.122246
C105	C	0.426930	0.372503	0.473942
C106	C	0.676930	0.622503	0.723942
C107	C	0.926930	0.872503	0.973942
C108	C	1.176930	1.122503	1.223942
C109	C	0.508910	0.372492	0.473934
C110	C	0.758910	0.622492	0.723934
C111	C	1.008910	0.872492	0.973934
C112	C	1.258910	1.122492	1.223934
C113	C	0.549864	0.423156	0.423080
C114	C	0.799864	0.673156	0.673080
C115	C	1.049864	0.923156	0.923080
C116	C	1.299864	1.173156	1.173080
C117	C	1.082907	0.640307	0.434031
C118	C	1.332907	0.890307	0.684031
C119	C	1.582907	1.140307	0.934031
C120	C	1.832907	1.390307	1.184031
C121	C	1.078268	0.733212	0.438749
C122	C	1.328268	0.983212	0.688749
C123	C	1.578268	1.233212	0.938749
C124	C	1.828268	1.483212	1.188749
C125	C	1.118039	0.942122	0.398718
C126	C	1.368039	1.192122	0.648718
C127	C	1.618039	1.442122	0.898718
C128	C	1.868039	1.692122	1.148718
C129	C	1.069814	0.903307	0.447373
C130	C	1.319814	1.153307	0.697373
C131	C	1.569814	1.403307	0.947373
C132	C	1.819814	1.653307	1.197373
C133	C	1.074520	0.808658	0.442573
C134	C	1.324520	1.058658	0.692573
C135	C	1.574520	1.308658	0.942573
C136	C	1.824520	1.558658	1.192573
C137	C	1.113335	1.036780	0.403517
C138	C	1.363335	1.286780	0.653517
C139	C	1.613335	1.536780	0.903517
C140	C	1.863335	1.786780	1.153517
C141	C	1.298655	0.423167	0.423087
C142	C	1.548655	0.673167	0.673087
C143	C	1.798655	0.923167	0.923087
C144	C	2.048655	1.173167	1.173087
C145	C	1.385904	0.423177	0.423096
C146	C	1.635904	0.673177	0.673096
C147	C	1.885904	0.923177	0.923096
C148	C	2.135904	1.173177	1.173096
C149	C	1.083025	0.434150	0.641073
C150	C	1.333025	0.684150	0.891073
C151	C	1.583025	0.934150	1.141073
C152	C	1.833025	1.184150	1.391073
C153	C	1.078385	0.438842	0.733975
C154	C	1.328385	0.688842	0.983975
C155	C	1.578385	0.938842	1.233975
C156	C	1.828385	1.188842	1.483975
C157	C	1.104954	1.205128	0.412065
C158	C	1.354954	1.455128	0.662065
C159	C	1.604954	1.705128	0.912065
C160	C	1.854954	1.955128	1.162065
C161	C	1.109583	1.112222	0.407344
C162	C	1.359583	1.362222	0.657344
C163	C	1.609583	1.612222	0.907344
C164	C	1.859583	1.862222	1.157344
C165	C	1.104807	0.412115	0.205905
C166	C	1.354807	0.662115	0.455905
C167	C	1.604807	0.912115	0.705905
C168	C	1.854807	1.162115	0.955905
C169	C	1.109611	0.407188	0.112992
C170	C	1.359611	0.657188	0.362992
C171	C	1.609611	0.907188	0.612992
C172	C	1.859611	1.157188	0.862992
C173	C	1.118109	0.398655	0.942901
C174	C	1.368109	0.648655	1.192901
C175	C	1.618109	0.898655	1.442901
C176	C	1.868109	1.148655	1.692901
C177	C	1.069890	0.447372	0.904060
C178	C	1.319890	0.697372	1.154060
C179	C	1.569890	0.947372	1.404060
C180	C	1.819890	1.197372	1.654060
C181	C	1.074618	0.442624	0.809416
C182	C	1.324618	0.692624	1.059416
C183	C	1.574618	0.942624	1.309416
C184	C	1.824618	1.192624	1.559416
C185	C	1.113382	0.403401	1.037554
C186	C	1.363382	0.653401	1.287554
C187	C	1.613382	0.903401	1.537554
C188	C	1.863382	1.153401	1.787554
H189	H	0.646441	0.331221	0.515321
H190	H	0.896441	0.581221	0.765321
H191	H	1.146441	0.831221	1.015321
H192	H	1.396441	1.081221	1.265321
Br193	Br	0.995164	0.522834	0.967102
Br194	Br	1.245164	0.772834	1.217102
Br195	Br	1.495164	1.022834	1.467102
Br196	Br	1.745164	1.272834	1.717102
H197	H	1.162939	0.353385	0.905077
H198	H	1.412939	0.603385	1.155077
H199	H	1.662939	0.853385	1.405077
H200	H	1.912939	1.103385	1.655077
Br201	Br	0.995107	0.966394	0.522807
Br202	Br	1.245107	1.216394	0.772807
Br203	Br	1.495107	1.466394	1.022807
Br204	Br	1.745107	1.716394	1.272807
H205	H	0.542311	0.331236	0.515339
H206	H	0.792311	0.581236	0.765339
H207	H	1.042311	0.831236	1.015339
H208	H	1.292311	1.081236	1.265339
H209	H	1.162857	0.904273	0.353461
H210	H	1.412857	1.154273	0.603461
H211	H	1.662857	1.404273	0.853461
H212	H	1.912857	1.654273	1.103461
H213	H	0.393582	0.331249	0.515348
H214	H	0.643582	0.581249	0.765348
H215	H	0.893582	0.831249	1.015348
H216	H	1.143582	1.081249	1.265348
Br217	Br	0.817433	0.303701	0.542918
Br218	Br	1.067433	0.553701	0.792918
Br219	Br	1.317433	0.803701	1.042918
Br220	Br	1.567433	1.053701	1.292918
H221	H	0.795039	0.515048	0.330800
H222	H	1.045039	0.765048	0.580800
H223	H	1.295039	1.015048	0.830800
H224	H	1.545039	1.265048	1.080800
H225	H	0.393456	0.515100	0.330847
H226	H	0.643456	0.765100	0.580847
H227	H	0.893456	1.015100	0.830847
H228	H	1.143456	1.265100	1.080847
H229	H	0.646306	0.515059	0.330815
H230	H	0.896306	0.765059	0.580815
H231	H	1.146306	1.015059	0.830815
H232	H	1.396306	1.265059	1.080815
Br233	Br	0.564423	0.542590	0.303224
Br234	Br	0.814423	0.792590	0.553224
Br235	Br	1.064423	1.042590	0.803224
Br236	Br	1.314423	1.292590	1.053224
