data_functionalizedCrystal
_audit_creation_method	'MofGen! by Chris Wilmer'
_symmetry_space_group_name_H-M	'P1'
_symmetry_Int_Tables_number	1
_symmetry_cell_setting	triclinic
loop_
_symmetry_equiv_pos_as_xyz
  x,y,z
_cell_length_a	17.038272
_cell_length_b	17.666332
_cell_length_c	17.038272
_cell_angle_alpha	89.993620
_cell_angle_beta	88.888444
_cell_angle_gamma	90.003567
loop_
_atom_site_label
_atom_site_type_symbol
_atom_site_fract_x
_atom_site_fract_y
_atom_site_fract_z
O1	O	1.048760	0.062854	-0.170538
O2	O	1.548760	0.562854	0.329462
O3	O	0.820948	0.062877	-0.167831
O4	O	1.320948	0.562877	0.332169
O5	O	0.933500	0.062860	-0.055279
O6	O	1.433500	0.562860	0.444721
O7	O	0.936208	0.062871	-0.283090
O8	O	1.436208	0.562871	0.216910
O9	O	0.933479	-0.063037	-0.055271
O10	O	1.433479	0.436963	0.444729
O11	O	0.820927	-0.063020	-0.167823
O12	O	1.320927	0.436980	0.332177
O13	O	1.048738	-0.063042	-0.170531
O14	O	1.548738	0.436958	0.329469
Cu15	Cu	0.934831	-0.074527	-0.169176
Cu16	Cu	1.434831	0.425473	0.330824
Cu17	Cu	0.934856	0.074361	-0.169185
Cu18	Cu	1.434856	0.574361	0.330815
O19	O	0.936187	-0.063025	-0.283082
O20	O	1.436187	0.436975	0.216918
C21	C	0.791645	-0.000069	-0.165364
C22	C	1.291645	0.499931	0.334636
C23	C	0.704361	-0.000061	-0.158016
C24	C	1.204361	0.499939	0.341984
C25	C	0.658752	-0.000058	-0.225479
C26	C	1.158752	0.499942	0.274521
C27	C	0.576740	-0.000069	-0.218570
C28	C	1.076740	0.499931	0.281430
C29	C	0.540339	-0.000077	-0.144197
C30	C	1.040339	0.499923	0.355803
C31	C	0.585954	-0.000082	-0.076728
C32	C	1.085954	0.499918	0.423272
C33	C	0.667965	-0.000077	-0.083638
C34	C	1.167965	0.499923	0.416362
C35	C	0.292951	-0.000098	-0.119787
C36	C	0.792951	0.499902	0.380213
C37	C	0.210935	-0.000101	-0.112882
C38	C	0.710935	0.499899	0.387118
C39	C	0.201726	-0.000089	-0.254725
C40	C	0.701726	0.499911	0.245275
C41	C	0.283739	-0.000080	-0.261628
C42	C	0.783739	0.499920	0.238372
C43	C	0.329347	-0.000089	-0.194159
C44	C	0.829347	0.499911	0.305841
C45	C	0.456510	-0.000086	-0.137133
C46	C	0.956510	0.499914	0.362867
C47	C	0.413174	-0.000085	-0.201224
C48	C	0.913174	0.499915	0.298776
N49	N	0.934818	-0.179246	-0.169169
N50	N	1.434818	0.320754	0.330831
C51	C	0.984675	-0.218863	-0.119359
C52	C	1.484675	0.281137	0.380641
C53	C	0.984680	-0.298111	-0.119355
C54	C	1.484680	0.201889	0.380645
C55	C	0.934835	-0.337738	-0.169176
C56	C	1.434835	0.162262	0.330824
C57	C	0.884969	-0.298111	-0.218990
C58	C	1.384969	0.201889	0.281010
C59	C	0.884960	-0.218865	-0.218987
C60	C	1.384960	0.281135	0.281013
N61	N	0.929461	-0.462153	-0.238001
N62	N	1.429461	0.037847	0.261999
N63	N	0.929474	-0.537433	-0.238002
N64	N	1.429474	-0.037433	0.261998
C65	C	0.934857	-0.576502	-0.169189
C66	C	1.434857	-0.076502	0.330811
N67	N	0.940242	-0.537447	-0.100373
N68	N	1.440242	-0.037447	0.399627
N69	N	0.940234	-0.462160	-0.100373
N70	N	1.440234	0.037840	0.399627
C71	C	0.934839	-0.423667	-0.169185
C72	C	1.434839	0.076333	0.330815
C73	C	0.984721	-0.702049	-0.119370
C74	C	1.484721	-0.202049	0.380630
C75	C	0.984720	-0.781298	-0.119365
C76	C	1.484720	-0.281298	0.380635
C77	C	0.885013	-0.781297	-0.219008
C78	C	1.385013	-0.281297	0.280992
C79	C	0.885010	-0.702049	-0.219005
C80	C	1.385010	-0.202049	0.280995
C81	C	0.934868	-0.662430	-0.169188
C82	C	1.434868	-0.162430	0.330812
C83	C	1.078042	-0.000095	-0.172997
C84	C	1.578042	0.499905	0.327003
C85	C	1.165326	-0.000099	-0.180346
C86	C	1.665326	0.499901	0.319654
C87	C	0.931027	-0.000088	-0.025982
C88	C	1.431027	0.499912	0.474018
C89	C	0.923679	-0.000088	0.061301
C90	C	1.423679	0.499912	0.561301
N91	N	0.934874	0.179080	-0.169186
N92	N	1.434874	0.679080	0.330814
C93	C	0.938660	-0.000076	-0.312379
C94	C	1.438660	0.499924	0.187621
C95	C	0.946008	-0.000072	-0.399663
C96	C	1.446008	0.499928	0.100337
C97	C	0.991142	-0.000095	0.106911
C98	C	1.491142	0.499905	0.606911
C99	C	0.984233	-0.000087	0.188923
C100	C	1.484233	0.499913	0.688923
C101	C	0.909860	-0.000077	0.225324
C102	C	1.409860	0.499923	0.725324
C103	C	0.842391	-0.000068	0.179708
C104	C	1.342391	0.499932	0.679708
C105	C	0.849301	-0.000070	0.097698
C106	C	1.349301	0.499930	0.597698
C107	C	0.885449	-0.000065	0.472712
C108	C	1.385449	0.499935	0.972712
C109	C	0.878545	-0.000064	0.554728
C110	C	1.378545	0.499936	1.054728
C111	C	1.020387	-0.000082	0.563937
C112	C	1.520387	0.499918	1.063937
C113	C	1.027291	-0.000089	0.481924
C114	C	1.527291	0.499911	0.981924
C115	C	0.959822	-0.000076	0.436316
C116	C	1.459822	0.499924	0.936316
C117	C	0.902796	-0.000072	0.309153
C118	C	1.402796	0.499928	0.809153
C119	C	0.966886	-0.000076	0.352488
C120	C	1.466886	0.499924	0.852488
H121	H	0.181300	-0.000107	-0.052315
H122	H	0.681300	0.499893	0.447685
H123	H	0.556310	-0.000100	-0.016172
H124	H	1.056310	0.499900	0.483828
H125	H	0.781835	-0.000055	0.209353
H126	H	1.281835	0.499945	0.709353
C127	C	0.323774	-0.000081	-0.343438
C128	C	0.823774	0.499919	0.156562
H129	H	0.284864	-0.000089	-0.382629
H130	H	0.784864	0.499911	0.117371
H131	H	0.355578	0.043821	-0.349089
H132	H	0.855578	0.543821	0.150911
H133	H	0.355571	-0.043990	-0.349073
H134	H	0.855571	0.456010	0.150927
C135	C	0.698786	-0.000048	-0.307291
C136	C	1.198786	0.499952	0.192709
H137	H	0.659874	-0.000055	-0.346479
H138	H	1.159874	0.499945	0.153521
H139	H	0.730587	0.043856	-0.312939
H140	H	1.230587	0.543856	0.187061
H141	H	0.730586	-0.043955	-0.312932
H142	H	1.230586	0.456045	0.187068
C143	C	0.830184	-0.824874	-0.273812
C144	C	1.330184	-0.324874	0.226188
H145	H	0.800487	-0.789925	-0.303476
H146	H	1.300487	-0.289925	0.196524
H147	H	0.860608	-0.855780	-0.308399
H148	H	1.360608	-0.355780	0.191601
H149	H	0.795615	-0.855795	-0.243363
H150	H	1.295615	-0.355795	0.256637
C151	C	1.039567	-0.824877	-0.064572
C152	C	1.539567	-0.324877	0.435428
H153	H	1.069263	-0.789929	-0.034910
H154	H	1.569263	-0.289929	0.465090
H155	H	1.009153	-0.855801	-0.029982
H156	H	1.509153	-0.355801	0.470018
H157	H	1.074137	-0.855781	-0.095027
H158	H	1.574137	-0.355781	0.404973
C159	C	0.830184	-0.658465	-0.273812
C160	C	1.330184	-0.158465	0.226188
H161	H	0.837316	-0.605594	-0.266673
H162	H	1.337316	-0.105594	0.233327
H163	H	0.842203	-0.671446	-0.326795
H164	H	1.342203	-0.171446	0.173205
H165	H	0.777201	-0.671457	-0.261769
H166	H	1.277201	-0.171457	0.238231
H167	H	0.164583	-0.000084	-0.309653
H168	H	0.664583	0.499916	0.190347
H169	H	1.025281	-0.330373	-0.078792
H170	H	1.525281	0.169627	0.421208
H171	H	1.051705	-0.000108	0.077279
H172	H	1.551705	0.499892	0.577279
H173	H	1.039170	-0.000095	0.226054
H174	H	1.539170	0.499905	0.726054
H175	H	1.087853	-0.000097	0.452293
H176	H	1.587853	0.499903	0.952293
H177	H	0.330076	-0.000106	-0.064848
H178	H	0.830076	0.499894	0.435152
C179	C	0.830144	-0.341698	-0.273795
C180	C	1.330144	0.158302	0.226205
H181	H	0.837295	-0.394569	-0.266669
H182	H	1.337295	0.105431	0.233331
H183	H	0.777163	-0.328724	-0.261749
H184	H	1.277163	0.171276	0.238251
H185	H	0.842160	-0.328699	-0.326782
H186	H	1.342160	0.171301	0.173218
H187	H	1.075316	-0.000092	0.601079
H188	H	1.575316	0.499908	1.101079
H189	H	0.817978	-0.000069	0.584363
H190	H	1.317978	0.499931	1.084363
C191	C	0.718135	-0.000072	-0.009428
C192	C	1.218135	0.499928	0.490572
H193	H	0.684712	-0.000070	0.035856
H194	H	1.184712	0.499930	0.535856
H195	H	0.750321	-0.043972	-0.009171
H196	H	1.250321	0.456028	0.490829
H197	H	0.750316	0.043840	-0.009181
H198	H	1.250316	0.543840	0.490819
H199	H	0.539608	-0.000065	-0.273507
H200	H	1.039608	0.499935	0.226493
C201	C	0.811236	-0.000063	0.422553
C202	C	1.311236	0.499937	0.922553
H203	H	0.765955	-0.000067	0.455980
H204	H	1.265955	0.499933	0.955980
H205	H	0.810983	0.043838	0.390361
H206	H	1.310983	0.543838	0.890361
H207	H	0.810979	-0.043974	0.390379
H208	H	1.310979	0.456026	0.890379
C209	C	0.453209	-0.000074	-0.283031
C210	C	0.953209	0.499926	0.216969
H211	H	0.414303	-0.000076	-0.322225
H212	H	0.914303	0.499924	0.177775
H213	H	0.485012	0.043831	-0.288669
H214	H	0.985012	0.543831	0.211331
H215	H	0.485009	-0.043981	-0.288672
H216	H	0.985009	0.456019	0.211328
H217	H	1.027441	-0.000067	0.322847
H218	H	1.527441	0.499933	0.822847
C219	C	0.416469	-0.000086	-0.055325
C220	C	0.916469	0.499914	0.444675
H221	H	0.455375	-0.000088	-0.016131
H222	H	0.955375	0.499912	0.483869
H223	H	0.384666	0.043814	-0.049691
H224	H	0.884666	0.543814	0.450309
H225	H	0.384670	-0.043997	-0.049680
H226	H	0.884670	0.456003	0.450320
H227	H	1.025271	-0.186608	-0.078792
H228	H	1.525271	0.313392	0.421208
H229	H	0.844360	-0.186608	-0.259549
H230	H	1.344360	0.313392	0.240451
C231	C	0.775094	-0.000062	0.047524
C232	C	1.275094	0.499938	0.547524
H233	H	0.789860	-0.000056	-0.006531
H234	H	1.289860	0.499944	0.493469
H235	H	0.744810	-0.043959	0.059075
H236	H	1.244810	0.456041	0.559075
H237	H	0.744834	0.043852	0.059068
H238	H	1.244834	0.543852	0.559068
C239	C	1.039553	-0.658465	-0.064566
C240	C	1.539553	-0.158465	0.435434
H241	H	1.069239	-0.693412	-0.034890
H242	H	1.569239	-0.193412	0.465110
H243	H	1.074120	-0.627542	-0.095007
H244	H	1.574120	-0.127542	0.404993
H245	H	1.009121	-0.627560	-0.029977
H246	H	1.509121	-0.127560	0.470023
H247	H	0.842241	-0.000065	0.338800
H248	H	1.342241	0.499935	0.838800
