data_functionalizedCrystal
_audit_creation_method	'MofGen! by Chris Wilmer'
_symmetry_space_group_name_H-M	'P1'
_symmetry_Int_Tables_number	1
_symmetry_cell_setting	triclinic
loop_
_symmetry_equiv_pos_as_xyz
  x,y,z
_cell_length_a	14.853566
_cell_length_b	19.188924
_cell_length_c	13.330367
_cell_angle_alpha	89.993282
_cell_angle_beta	89.995295
_cell_angle_gamma	83.388189
loop_
_atom_site_label
_atom_site_type_symbol
_atom_site_fract_x
_atom_site_fract_y
_atom_site_fract_z
O1	O	1.195860	0.091151	-0.083362
O2	O	0.933339	0.102011	-0.083379
O3	O	1.072179	-0.005050	-0.083358
O4	O	1.057021	0.198212	-0.083383
O5	O	1.072159	-0.005052	0.083489
O6	O	0.933319	0.102009	0.083468
O7	O	1.195840	0.091149	0.083485
Cu8	Cu	1.064578	0.096578	0.098711
Cu9	Cu	1.064601	0.096581	-0.098605
O10	O	1.057001	0.198209	0.083464
C11	C	0.899743	0.101518	0.000042
C12	C	0.799668	0.100044	0.000036
C13	C	0.376529	0.093810	-0.090894
C14	C	0.376528	0.093808	0.091010
C15	C	0.470555	0.095192	0.091006
C16	C	0.517572	0.095887	0.000052
C17	C	0.470564	0.095197	-0.090900
C18	C	0.517569	0.095889	0.181956
C19	C	0.611601	0.097275	0.181956
C20	C	0.658621	0.097964	0.091001
C21	C	0.611607	0.097273	0.000046
C22	C	0.658624	0.097967	-0.090909
C23	C	0.611613	0.097272	-0.181865
C24	C	0.517584	0.095886	-0.181855
C25	C	0.752650	0.099349	0.090991
C26	C	0.752659	0.099354	-0.090915
C27	C	1.071679	-0.031064	0.000066
C28	C	1.070208	-0.108573	0.000069
C29	C	1.069533	-0.144973	-0.090880
C30	C	1.068139	-0.217800	-0.090888
C31	C	1.067438	-0.254227	0.000059
C32	C	1.068108	-0.217818	0.091019
C33	C	1.069493	-0.144991	0.091024
N34	N	1.116558	-0.373728	0.067751
N35	N	1.115244	-0.442910	0.067740
C36	C	1.063262	-0.473650	0.000049
N37	N	1.012655	-0.432595	-0.067646
N38	N	1.013973	-0.363406	-0.067638
C39	C	1.065935	-0.333195	0.000063
C40	C	1.061073	-0.589018	-0.090915
C41	C	1.059673	-0.661846	-0.090919
C42	C	1.059652	-0.661863	0.090991
C43	C	1.061043	-0.589035	0.090992
C44	C	1.061758	-0.552617	0.000037
C45	C	1.229436	0.091642	0.000061
C46	C	1.329511	0.093116	0.000061
C47	C	1.057500	0.224223	0.000038
C48	C	1.058971	0.301733	0.000028
N49	N	1.064568	0.096576	0.237493
N50	N	1.064619	0.096578	-0.237386
C51	C	1.003121	0.143969	0.710106
C52	C	1.126106	0.049188	0.710093
C53	C	1.126096	0.049186	0.605074
C54	C	1.064598	0.096577	0.552567
C55	C	1.003111	0.143970	0.605078
C56	C	1.187589	0.001798	0.552555
C57	C	1.187582	0.001795	0.447531
C58	C	1.126079	0.049183	0.395021
C59	C	1.064588	0.096577	0.447539
C60	C	1.003090	0.143968	0.395032
C61	C	0.941594	0.191360	0.447547
C62	C	0.941608	0.191358	0.552569
C63	C	1.126065	0.049185	0.290000
C64	C	1.003080	0.143969	0.290004
H65	H	0.479280	0.095329	0.256006
N66	N	1.058947	-0.699052	0.183901
N67	N	1.059560	-0.666540	0.265101
H68	H	1.059060	-0.692807	0.330723
N69	N	0.328516	0.093107	0.183920
N70	N	0.330513	0.142436	0.244814
H71	H	0.296602	0.141941	0.310437
N72	N	1.061773	-0.551811	-0.183820
N73	N	0.999013	-0.504795	-0.204113
H74	H	0.999504	-0.478520	-0.269728
H75	H	0.338248	0.093241	-0.164948
H76	H	0.790922	0.099923	0.165046
N77	N	0.940260	0.192389	0.236389
N78	N	0.941233	0.256926	0.248117
H79	H	0.896866	0.291124	0.210253
H80	H	1.061600	-0.559399	0.165053
N81	N	0.800671	0.100055	-0.183835
N82	N	0.758684	0.099430	-0.265030
H83	H	0.792591	0.099924	-0.330656
N84	N	0.878791	0.239769	0.393892
N85	N	0.878805	0.239763	0.300123
H86	H	0.834453	0.273951	0.262224
H87	H	0.891541	0.229943	0.595334
N88	N	0.940307	0.192367	0.763758
N89	N	0.940316	0.192360	0.857527
H90	H	0.895953	0.226541	0.895421
N91	N	1.070180	-0.107794	0.183922
N92	N	1.007418	-0.060779	0.204207
H93	H	1.007903	-0.034506	0.269816
H94	H	0.649870	0.097840	0.256018
N95	N	1.067410	-0.255024	0.183919
N96	N	1.131091	-0.253272	0.244824
H97	H	1.130596	-0.279548	0.310438
N98	N	1.070261	-0.107785	-0.183794
N99	N	1.069655	-0.140300	-0.264994
H100	H	1.070168	-0.114035	-0.330617
H101	H	1.176180	0.010607	0.752847
N102	N	0.469561	0.095194	-0.274758
N103	N	0.471559	0.144528	-0.335660
H104	H	0.437640	0.144041	-0.401273
N105	N	1.067446	-0.254981	-0.183802
N106	N	1.068080	-0.222457	-0.265002
H107	H	1.067591	-0.248713	-0.330625
N108	N	1.058972	-0.699018	-0.183835
N109	N	1.059607	-0.666490	-0.265032
H110	H	1.059111	-0.692742	-0.330657
N111	N	1.250433	-0.046574	0.606204
N112	N	1.250448	-0.046552	0.699973
H113	H	1.294844	-0.080708	0.737868
H114	H	1.237654	-0.036794	0.404779
N115	N	1.188785	0.000738	0.236317
N116	N	1.187715	-0.063790	0.248065
H117	H	1.231980	-0.098023	0.210132
N118	N	0.659660	0.097974	-0.274762
N119	N	0.720644	0.049574	-0.295038
H120	H	0.754582	0.050070	-0.360644
