data_functionalizedCrystal
_audit_creation_method	'MofGen! by Chris Wilmer'
_symmetry_space_group_name_H-M	'P1'
_symmetry_Int_Tables_number	1
_symmetry_cell_setting	triclinic
loop_
_symmetry_equiv_pos_as_xyz
  x,y,z
_cell_length_a	13.897449
_cell_length_b	12.827892
_cell_length_c	12.827885
_cell_angle_alpha	90.029786
_cell_angle_beta	90.022760
_cell_angle_gamma	90.016219
loop_
_atom_site_label
_atom_site_type_symbol
_atom_site_fract_x
_atom_site_fract_y
_atom_site_fract_z
Zn1	Zn	1.474712	-0.415959	0.590946
Zn2	Zn	1.808045	-0.082626	0.924279
Zn3	Zn	2.141379	0.250707	1.257613
Zn4	Zn	1.474614	-0.590737	0.416206
Zn5	Zn	1.807948	-0.257403	0.749540
Zn6	Zn	2.141281	0.075930	1.082873
Zn7	Zn	1.313403	-0.416013	0.416209
Zn8	Zn	1.646736	-0.082679	0.749542
Zn9	Zn	1.980070	0.250654	1.082876
Zn10	Zn	1.313389	-0.590662	0.590896
Zn11	Zn	1.646723	-0.257328	0.924229
Zn12	Zn	1.980056	0.076005	1.257562
O13	O	1.394030	-0.503343	0.503564
O14	O	1.727363	-0.170009	0.836898
O15	O	2.060696	0.163324	1.170231
O16	O	1.609681	-0.439153	0.567786
O17	O	1.943014	-0.105820	0.901120
O18	O	2.276347	0.227514	1.234453
O19	O	1.453194	-0.567613	0.269970
O20	O	1.786527	-0.234280	0.603304
O21	O	2.119861	0.099054	0.936637
O22	O	1.334848	-0.269770	0.439410
O23	O	1.668181	0.063564	0.772744
O24	O	2.001514	0.396897	1.106077
O25	O	1.609609	-0.567561	0.439406
O26	O	1.942942	-0.234228	0.772739
O27	O	2.276276	0.099105	1.106072
O28	O	1.453361	-0.269730	0.567789
O29	O	1.786694	0.063603	0.901122
O30	O	2.120027	0.396936	1.234456
O31	O	1.334753	-0.439244	0.269972
O32	O	1.668086	-0.105911	0.603306
O33	O	2.001419	0.227423	0.936639
O34	O	1.178420	-0.439171	0.439362
O35	O	1.511753	-0.105838	0.772695
O36	O	1.845086	0.227495	1.106028
O37	O	1.334824	-0.567433	0.737138
O38	O	1.668158	-0.234100	1.070472
O39	O	2.001491	0.099234	1.403805
O40	O	1.178410	-0.567485	0.567703
O41	O	1.511743	-0.234152	0.901036
O42	O	1.845076	0.099182	1.234370
O43	O	1.453347	-0.439080	0.737175
O44	O	1.786681	-0.105747	1.070509
O45	O	2.120014	0.227587	1.403842
O46	O	1.453181	-0.736963	0.439357
O47	O	1.786514	-0.403629	0.772690
O48	O	2.119848	-0.070296	1.106024
O49	O	1.334730	-0.736908	0.567700
O50	O	1.668063	-0.403574	0.901034
O51	O	2.001396	-0.070241	1.234367
C52	C	1.393969	-0.774853	0.503546
C53	C	1.727303	-0.441519	0.836879
C54	C	2.060636	-0.108186	1.170212
C55	C	1.394032	-0.891006	0.503573
C56	C	1.727365	-0.557672	0.836906
C57	C	2.060698	-0.224339	1.170239
C58	C	1.143415	-0.503327	0.503528
C59	C	1.476749	-0.169993	0.836861
C60	C	1.810082	0.163340	1.170194
C61	C	1.036201	-0.503345	0.503537
C62	C	1.369535	-0.170011	0.836870
C63	C	1.702868	0.163322	1.170204
C64	C	1.452715	-0.942783	0.440135
C65	C	1.786048	-0.609450	0.773468
C66	C	2.119381	-0.276116	1.106802
C67	C	1.452781	-1.062833	0.440161
C68	C	1.786114	-0.729500	0.773495
C69	C	2.119447	-0.396167	1.106828
C70	C	0.949132	-0.503348	0.503554
C71	C	1.282465	-0.170015	0.836888
C72	C	1.615798	0.163318	1.170221
C73	C	0.839899	-0.503356	0.503586
C74	C	1.173232	-0.170022	0.836919
C75	C	1.506566	0.163311	1.170253
C76	C	1.645623	-0.503359	0.503601
C77	C	1.978956	-0.170026	0.836935
C78	C	2.312289	0.163307	1.170268
C79	C	1.752837	-0.503367	0.503617
C80	C	2.086170	-0.170033	0.836951
C81	C	2.419503	0.163300	1.170284
C82	C	1.394095	-0.503242	0.776135
C83	C	1.727429	-0.169909	1.109468
C84	C	2.060762	0.163424	1.442801
C85	C	1.394123	-0.503199	0.892288
C86	C	1.727457	-0.169866	1.225621
C87	C	2.060790	0.163467	1.558954
C88	C	1.394117	-0.230772	0.503606
C89	C	1.727450	0.102561	0.836939
C90	C	2.060783	0.435894	1.170272
C91	C	1.394154	-0.114619	0.503623
C92	C	1.727487	0.218714	0.836957
C93	C	2.060820	0.552047	1.170290
C94	C	1.394020	-0.503367	0.232054
C95	C	1.727353	-0.170034	0.565388
C96	C	2.060686	0.163300	0.898721
C97	C	1.394179	-0.503116	0.115902
C98	C	1.727512	-0.169782	0.449235
C99	C	2.060845	0.163551	0.782568
C100	C	1.452779	-0.439674	0.944091
C101	C	1.786112	-0.106341	1.277424
C102	C	2.119445	0.226993	1.610757
C103	C	1.452809	-0.439628	1.064141
C104	C	1.786142	-0.106295	1.397475
C105	C	2.119476	0.227038	1.730808
H106	H	1.502911	-0.898237	0.385807
H107	H	1.836245	-0.564904	0.719140
H108	H	2.169578	-0.231571	1.052473
Cl109	Cl	1.316573	-1.045885	0.587478
Cl110	Cl	1.649907	-0.712552	0.920811
Cl111	Cl	1.983240	-0.379219	1.254144
Cl112	Cl	1.316540	-0.959776	0.587466
Cl113	Cl	1.649874	-0.626442	0.920799
Cl114	Cl	1.983207	-0.293109	1.254133
Cl115	Cl	1.530348	-1.131574	0.356298
Cl116	Cl	1.863681	-0.798241	0.689632
Cl117	Cl	2.197014	-0.464908	1.022965
Cl118	Cl	1.530350	-0.355661	1.132916
Cl119	Cl	1.863683	-0.022327	1.466249
Cl120	Cl	2.197016	0.311006	1.799583
Cl121	Cl	1.530255	-0.355727	0.875355
Cl122	Cl	1.863589	-0.022393	1.208688
Cl123	Cl	2.196922	0.310940	1.542021
H124	H	1.343963	-0.557509	1.071359
H125	H	1.677296	-0.224175	1.404692
H126	H	2.010629	0.109158	1.738026
Cl127	Cl	1.316617	-0.587115	0.961024
Cl128	Cl	1.649951	-0.253781	1.294357
Cl129	Cl	1.983284	0.079552	1.627691
