data_functionalizedCrystal
_audit_creation_method	'MofGen! by Chris Wilmer'
_symmetry_space_group_name_H-M	'P1'
_symmetry_Int_Tables_number	1
_symmetry_cell_setting	triclinic
loop_
_symmetry_equiv_pos_as_xyz
  x,y,z
_cell_length_a	18.050591
_cell_length_b	18.050589
_cell_length_c	18.050591
_cell_angle_alpha	90.002114
_cell_angle_beta	90.007198
_cell_angle_gamma	90.024669
loop_
_atom_site_label
_atom_site_type_symbol
_atom_site_fract_x
_atom_site_fract_y
_atom_site_fract_z
Zn1	Zn	1.135200	-0.295895	0.420031
Zn2	Zn	1.635200	0.204105	0.920031
Zn3	Zn	1.135138	-0.420043	0.295850
Zn4	Zn	1.635138	0.079957	0.795850
Zn5	Zn	1.011047	-0.295864	0.295844
Zn6	Zn	1.511047	0.204136	0.795844
Zn7	Zn	1.010968	-0.420040	0.419988
Zn8	Zn	1.510968	0.079960	0.919988
O9	O	1.073088	-0.357961	0.357928
O10	O	1.573088	0.142039	0.857928
O11	O	1.239117	-0.312378	0.403578
O12	O	1.739117	0.187622	0.903578
O13	O	1.118684	-0.403559	0.191925
O14	O	1.618684	0.096441	0.691925
O15	O	1.027575	-0.191944	0.312333
O16	O	1.527575	0.308056	0.812333
O17	O	1.239071	-0.403589	0.312343
O18	O	1.739071	0.096411	0.812343
O19	O	1.118790	-0.191966	0.403572
O20	O	1.618790	0.308034	0.903572
O21	O	1.027515	-0.312325	0.191921
O22	O	1.527515	0.187675	0.691921
O23	O	0.907112	-0.312322	0.312292
O24	O	1.407112	0.187678	0.812292
O25	O	1.027440	-0.403583	0.523918
O26	O	1.527440	0.096417	1.023918
O27	O	0.907054	-0.403553	0.403500
O28	O	1.407054	0.096447	0.903500
O29	O	1.118713	-0.312375	0.523950
O30	O	1.618713	0.187625	1.023950
O31	O	1.118608	-0.523968	0.312302
O32	O	1.618608	-0.023968	0.812302
O33	O	1.027380	-0.523965	0.403506
O34	O	1.527380	-0.023965	0.903506
C35	C	0.880136	-0.357934	0.357891
C36	C	1.380136	0.142066	0.857891
C37	C	0.797590	-0.357941	0.357893
C38	C	1.297590	0.142059	0.857893
C39	C	0.548775	-0.308278	0.308411
C40	C	1.048775	0.191722	0.808411
C41	C	0.598192	-0.290216	0.376186
C42	C	1.098192	0.209784	0.876186
C43	C	0.500470	-0.357979	0.357954
C44	C	1.000470	0.142021	0.857954
C45	C	0.598135	-0.375987	0.290153
C46	C	1.098135	0.124013	0.790153
C47	C	0.646455	-0.357959	0.357920
C48	C	1.146455	0.142041	0.857920
C49	C	0.548800	-0.339882	0.425764
C50	C	1.048800	0.160118	0.925764
C51	C	0.548738	-0.425685	0.339686
C52	C	1.048738	0.074315	0.839686
C53	C	0.598133	-0.407649	0.407507
C54	C	1.098133	0.092351	0.907507
C55	C	0.416372	-0.357989	0.357972
C56	C	0.916372	0.142011	0.857972
C57	C	0.730552	-0.357949	0.357910
C58	C	1.230552	0.142051	0.857910
C59	C	1.072999	-0.550913	0.357916
C60	C	1.572999	-0.050913	0.857916
C61	C	1.073028	-0.633459	0.357936
C62	C	1.573028	-0.133459	0.857936
C63	C	1.023467	-0.832935	0.407515
C64	C	1.523467	-0.332935	0.907515
C65	C	1.005384	-0.882349	0.339746
C66	C	1.505384	-0.382349	0.839746
C67	C	1.073101	-0.784589	0.357945
C68	C	1.573101	-0.284589	0.857945
C69	C	1.091221	-0.882257	0.425722
C70	C	1.591221	-0.382257	0.925722
C71	C	1.073170	-0.930574	0.357961
C72	C	1.573170	-0.430574	0.857961
C73	C	1.054983	-0.832915	0.290141
C74	C	1.554983	-0.332915	0.790141
C75	C	1.140850	-0.832819	0.376162
C76	C	1.640850	-0.332819	0.876162
C77	C	1.122793	-0.882211	0.308347
C78	C	1.622793	-0.382211	0.808347
C79	C	1.073059	-0.700491	0.357937
C80	C	1.573059	-0.200491	0.857937
C81	C	1.073212	-1.014670	0.357961
C82	C	1.573212	-0.514670	0.857961
C83	C	1.266794	-0.357987	0.357966
C84	C	1.766794	0.142013	0.857966
C85	C	1.349340	-0.357999	0.357982
C86	C	1.849340	0.142001	0.857982
C87	C	1.073075	-0.357982	0.551634
C88	C	1.573075	0.142018	1.051634
C89	C	1.073069	-0.357991	0.634180
C90	C	1.573069	0.142009	1.134180
C91	C	1.073198	-0.164255	0.357957
C92	C	1.573198	0.335745	0.857957
C93	C	1.073245	-0.081709	0.357969
C94	C	1.573245	0.418291	0.857969
C95	C	1.023423	-0.407583	0.882988
C96	C	1.523423	0.092417	1.382988
C97	C	1.005294	-0.339830	0.833594
C98	C	1.505294	0.160170	1.333594
C99	C	1.073062	-0.357969	0.931300
C100	C	1.573062	0.142031	1.431300
C101	C	1.091159	-0.425729	0.833613
C102	C	1.591159	0.074271	1.333613
C103	C	1.073064	-0.357984	0.785315
C104	C	1.573064	0.142016	1.285315
C105	C	1.054898	-0.290180	0.882993
C106	C	1.554898	0.209820	1.382993
C107	C	1.140795	-0.376125	0.883016
C108	C	1.640795	0.123875	1.383016
C109	C	1.122692	-0.308326	0.833644
C110	C	1.622692	0.191674	1.333644
C111	C	1.073059	-0.357962	1.015398
C112	C	1.573059	0.142038	1.515398
C113	C	1.073067	-0.357983	0.701218
C114	C	1.573067	0.142017	1.201218
C115	C	1.073085	-0.357959	1.164976
C116	C	1.573085	0.142041	1.664976
C117	C	1.073059	-0.357961	1.082430
C118	C	1.573059	0.142039	1.582430
H119	H	0.619668	-0.449671	0.449437
H120	H	1.119668	0.050329	0.949437
H121	H	1.198098	-0.811049	0.391589
H122	H	1.698098	-0.311049	0.891589
H123	H	0.527000	-0.482935	0.324224
H124	H	1.027000	0.017065	0.824224
H125	H	0.981411	-0.449480	0.904655
H126	H	1.481411	0.050520	1.404655
O127	O	0.523186	-0.321637	0.494224
O128	O	1.023186	0.178363	0.994224
C129	C	0.583586	-0.308851	0.542089
C130	C	1.083586	0.191149	1.042089
H131	H	0.634589	-0.338879	0.520089
H132	H	1.134589	0.161121	1.020089
H133	H	0.569673	-0.330473	0.599774
H134	H	1.069673	0.169527	1.099774
H135	H	0.595337	-0.246864	0.545108
H136	H	1.095337	0.253136	1.045108
H137	H	0.619807	-0.391227	0.232829
H138	H	1.119807	0.108773	0.732829
O139	O	0.973223	-0.807149	0.457370
O140	O	1.473223	-0.307149	0.957370
C141	C	0.901906	-0.832406	0.437898
C142	C	1.401906	-0.332406	0.937898
H143	H	0.900566	-0.846269	0.376297
H144	H	1.400566	-0.346269	0.876297
H145	H	0.859507	-0.787272	0.450237
H146	H	1.359507	-0.287272	0.950237
H147	H	0.887975	-0.884097	0.471414
H148	H	1.387975	-0.384097	0.971414
O149	O	0.937078	-0.908396	0.321468
O150	O	1.437078	-0.408396	0.821468
C151	C	0.909533	-0.952453	0.379793
C152	C	1.409533	-0.452453	0.879793
H153	H	0.957728	-0.974061	0.414411
H154	H	1.457728	-0.474061	0.914411
H155	H	0.877218	-1.001200	0.355923
H156	H	1.377218	-0.501200	0.855923
H157	H	0.871382	-0.917727	0.416209
H158	H	1.371382	-0.417727	0.916209
H159	H	1.106466	-0.483027	0.811923
H160	H	1.606466	0.016973	1.311923
H161	H	1.039618	-0.811332	0.232813
H162	H	1.539618	-0.311332	0.732813
O163	O	1.172819	-0.907833	0.258190
O164	O	1.672819	-0.407833	0.758190
C165	C	1.153487	-0.882541	0.186863
C166	C	1.653487	-0.382541	0.686863
H167	H	1.091867	-0.868808	0.185388
H168	H	1.591867	-0.368808	0.685388
H169	H	1.166010	-0.927601	0.144426
H170	H	1.666010	-0.427601	0.644426
H171	H	1.186951	-0.830762	0.173099
H172	H	1.686951	-0.330762	0.673099
O173	O	1.109435	-0.908238	0.494056
O174	O	1.609435	-0.408238	0.994056
C175	C	1.109895	-0.986339	0.492942
C176	C	1.609895	-0.486339	0.992942
H177	H	1.073500	-1.006947	0.445609
H178	H	1.573500	-0.506947	0.945609
H179	H	1.087548	-1.008317	0.547772
H180	H	1.587548	-0.508317	1.047772
H181	H	1.169007	-1.006907	0.484546
H182	H	1.669007	-0.506907	0.984546
O183	O	0.522875	-0.258215	0.258427
O184	O	1.022875	0.241785	0.758427
C185	C	0.479867	-0.295025	0.204588
C186	C	0.979867	0.204975	0.704588
H187	H	0.496679	-0.355847	0.202189
H188	H	0.996679	0.144153	0.702189
H189	H	0.489401	-0.268304	0.148163
H190	H	0.989401	0.231696	0.648163
H191	H	0.418744	-0.290690	0.219876
H192	H	0.918744	0.209310	0.719876
H193	H	1.164672	-0.266327	0.812115
H194	H	1.664672	0.233673	1.312115
H195	H	0.619901	-0.232947	0.391637
H196	H	1.119901	0.267053	0.891637
H197	H	0.948014	-0.324474	0.811885
H198	H	1.448014	0.175526	1.311885
O199	O	1.036531	-0.221858	0.908879
O200	O	1.536531	0.278142	1.408879
C201	C	1.036737	-0.222679	0.986984
C202	C	1.536737	0.277321	1.486984
H203	H	1.028450	-0.281858	1.007431
H204	H	1.528450	0.218142	1.507431
H205	H	0.989906	-0.186223	1.008543
H206	H	1.489906	0.313777	1.508543
H207	H	1.092021	-0.200622	1.008138
H208	H	1.592021	0.299378	1.508138
H209	H	1.198058	-0.391501	0.904741
H210	H	1.698058	0.108499	1.404741
