data_functionalizedCrystal
_audit_creation_method	'MofGen! by Chris Wilmer'
_symmetry_space_group_name_H-M	'P1'
_symmetry_Int_Tables_number	1
_symmetry_cell_setting	triclinic
loop_
_symmetry_equiv_pos_as_xyz
  x,y,z
_cell_length_a	16.992694
_cell_length_b	9.565339
_cell_length_c	16.992695
_cell_angle_alpha	90.000721
_cell_angle_beta	89.331777
_cell_angle_gamma	89.998463
loop_
_atom_site_label
_atom_site_type_symbol
_atom_site_fract_x
_atom_site_fract_y
_atom_site_fract_z
O1	O	1.050850	0.116086	-0.166910
O2	O	1.550850	0.616086	0.333090
O3	O	0.822450	0.116127	-0.165079
O4	O	1.322450	0.616127	0.334921
O5	O	0.935734	0.116096	-0.051794
O6	O	1.435734	0.616096	0.448206
O7	O	0.937566	0.116118	-0.280194
O8	O	1.437566	0.616118	0.219806
O9	O	0.935725	-0.116424	-0.051803
O10	O	1.435725	0.383576	0.448197
O11	O	0.822440	-0.116393	-0.165088
O12	O	1.322440	0.383607	0.334912
O13	O	1.050840	-0.116434	-0.166919
O14	O	1.550840	0.383566	0.333081
Zn15	Zn	0.936639	-0.153331	-0.166005
Zn16	Zn	1.436639	0.346669	0.333995
Zn17	Zn	0.936652	0.153024	-0.165993
Zn18	Zn	1.436652	0.653024	0.334007
O19	O	0.937556	-0.116403	-0.280203
O20	O	1.437556	0.383597	0.219797
C21	C	0.793085	-0.000128	-0.162727
C22	C	1.293085	0.499872	0.337273
C23	C	0.705600	-0.000112	-0.155699
C24	C	1.205600	0.499888	0.344301
N25	N	0.936636	-0.362410	-0.166012
N26	N	1.436636	0.137590	0.333988
C27	C	0.659610	-0.000107	-0.223517
C28	C	1.159610	0.499893	0.276483
C29	C	0.577409	-0.000127	-0.216908
C30	C	1.077409	0.499873	0.283092
C31	C	0.541201	-0.000142	-0.142480
C32	C	1.041201	0.499858	0.357520
C33	C	0.587198	-0.000152	-0.074657
C34	C	1.087198	0.499848	0.425343
C35	C	0.669397	-0.000142	-0.081267
C36	C	1.169397	0.499858	0.418733
C37	C	0.295886	-0.000182	-0.115086
C38	C	0.795886	0.499818	0.384914
C39	C	0.213681	-0.000188	-0.108481
C40	C	0.713681	0.499812	0.391519
C41	C	0.203898	-0.000166	-0.250732
C42	C	0.703898	0.499834	0.249268
C43	C	0.286099	-0.000147	-0.257336
C44	C	0.786099	0.499853	0.242664
C45	C	0.332089	-0.000164	-0.189512
C46	C	0.832089	0.499836	0.310488
N47	N	0.457178	-0.000158	-0.135723
N48	N	0.957178	0.499842	0.364277
N49	N	0.416110	-0.000158	-0.196270
N50	N	0.916110	0.499842	0.303730
C51	C	0.884729	-0.546769	-0.218859
C52	C	1.384729	-0.046769	0.281141
C53	C	0.864364	-0.453546	-0.146950
C54	C	1.364364	0.046454	0.353050
C55	C	0.956965	-0.453564	-0.237913
C56	C	1.456965	0.046436	0.262087
C57	C	0.916258	-0.546725	-0.094033
C58	C	1.416258	-0.046725	0.405967
C59	C	1.008893	-0.546752	-0.185044
C60	C	1.508893	-0.046752	0.314956
C61	C	0.988555	-0.453571	-0.113086
C62	C	1.488555	0.046429	0.386914
C63	C	1.080205	-0.000176	-0.169270
C64	C	1.580205	0.499824	0.330730
C65	C	1.167690	-0.000182	-0.176299
C66	C	1.667690	0.499818	0.323701
C67	C	0.933374	-0.000164	-0.022439
C68	C	1.433374	0.499836	0.477561
C69	C	0.926345	-0.000162	0.065046
C70	C	1.426345	0.499838	0.565046
N71	N	0.936661	0.362104	-0.165980
N72	N	1.436661	0.862104	0.334020
C73	C	0.939917	-0.000140	-0.309559
C74	C	1.439917	0.499860	0.190441
C75	C	0.946945	-0.000132	-0.397044
C76	C	1.446945	0.499868	0.102956
C77	C	0.994163	-0.000176	0.111037
C78	C	1.494163	0.499824	0.611037
C79	C	0.987554	-0.000161	0.193238
C80	C	1.487554	0.499839	0.693238
C81	C	0.913127	-0.000143	0.229446
C82	C	1.413127	0.499857	0.729446
C83	C	0.845303	-0.000125	0.183449
C84	C	1.345303	0.499875	0.683449
C85	C	0.851913	-0.000130	0.101250
C86	C	1.351913	0.499870	0.601250
C87	C	0.885732	-0.000119	0.474760
C88	C	1.385732	0.499881	0.974760
C89	C	0.879127	-0.000119	0.556966
C90	C	1.379127	0.499881	1.056966
C91	C	1.021379	-0.000152	0.566749
C92	C	1.521379	0.499848	1.066749
C93	C	1.027982	-0.000165	0.484547
C94	C	1.527982	0.499835	0.984547
C95	C	0.960159	-0.000140	0.438558
C96	C	1.460159	0.499860	0.938558
N97	N	0.906369	-0.000133	0.313468
N98	N	1.406369	0.499867	0.813468
N99	N	0.966917	-0.000140	0.354537
N100	N	1.466917	0.499860	0.854537
H101	H	0.689084	-0.000093	-0.284124
H102	H	1.189084	0.499907	0.215876
H103	H	0.557710	-0.000184	-0.014056
H104	H	1.057710	0.499816	0.485944
H105	H	1.032460	-0.412909	-0.068330
H106	H	1.532460	0.087091	0.431670
C107	C	0.892941	-0.601773	-0.011847
C108	C	1.392941	-0.101773	0.488153
N109	N	0.875376	-0.643239	0.050054
N110	N	1.375376	-0.143239	0.550054
H111	H	0.333322	-0.000197	-0.059859
H112	H	0.833322	0.499803	0.440141
H113	H	0.974160	-0.412668	-0.298735
H114	H	1.474160	0.087332	0.201265
C115	C	0.797248	-0.000088	0.596792
C116	C	1.297248	0.499912	1.096792
N117	N	0.735579	-0.000065	0.626790
N118	N	1.235579	0.499935	1.126790
H119	H	0.796688	-0.000118	0.063804
H120	H	1.296688	0.499882	0.563804
H121	H	1.069971	-0.587727	-0.201182
H122	H	1.569971	-0.087727	0.298818
C123	C	1.076040	-0.000196	0.071216
C124	C	1.576040	0.499804	0.571216
N125	N	1.137712	-0.000205	0.041225
N126	N	1.637712	0.499795	0.541225
C127	C	0.526822	-0.000146	-0.291514
C128	C	1.026822	0.499854	0.208486
N129	N	0.488721	-0.000170	-0.347710
N130	N	0.988721	0.499830	0.152290
C131	C	0.811124	-0.000084	0.424182
C132	C	1.311124	0.499916	0.924182
N133	N	0.754925	-0.000053	0.386083
N134	N	1.254925	0.499947	0.886083
H135	H	0.803269	-0.412596	-0.130838
H136	H	1.303269	0.087404	0.369162
H137	H	1.042779	-0.000176	0.230680
H138	H	1.542779	0.499824	0.730680
H139	H	1.088589	-0.000180	0.455073
H140	H	1.588589	0.499820	0.955073
H141	H	0.315574	-0.000119	-0.317942
H142	H	0.815574	0.499881	0.182058
H143	H	1.076596	-0.000170	0.604202
H144	H	1.576596	0.499830	1.104202
H145	H	0.784703	-0.000102	0.212936
H146	H	1.284703	0.499898	0.712936
H147	H	0.166444	-0.000155	-0.305950
H148	H	0.666444	0.499845	0.194050
H149	H	0.840788	-0.587690	-0.263507
H150	H	1.340788	-0.087690	0.236493
H151	H	0.184203	-0.000199	-0.047870
H152	H	0.684203	0.499801	0.452130
H153	H	0.706842	-0.000145	-0.026042
H154	H	1.206842	0.499855	0.473958
