data_functionalizedCrystal
_audit_creation_method	'MofGen! by Chris Wilmer'
_symmetry_space_group_name_H-M	'P1'
_symmetry_Int_Tables_number	1
_symmetry_cell_setting	triclinic
loop_
_symmetry_equiv_pos_as_xyz
  x,y,z
_cell_length_a	14.044220
_cell_length_b	14.044191
_cell_length_c	16.053802
_cell_angle_alpha	87.186691
_cell_angle_beta	87.198230
_cell_angle_gamma	86.809673
loop_
_atom_site_label
_atom_site_type_symbol
_atom_site_fract_x
_atom_site_fract_y
_atom_site_fract_z
O1	O	-0.226523	1.280858	-0.069385
O2	O	0.273477	1.780858	0.430615
O3	O	-0.218210	1.004186	-0.069396
O4	O	0.281790	1.504186	0.430604
O5	O	-0.084031	1.138369	-0.069387
O6	O	0.415969	1.638369	0.430613
O7	O	-0.360702	1.146675	-0.069394
O8	O	0.139298	1.646675	0.430606
O9	O	-0.091383	1.130980	0.069472
O10	O	0.408617	1.630980	0.569472
O11	O	-0.225562	0.996797	0.069463
O12	O	0.274438	1.496797	0.569463
O13	O	-0.233876	1.273469	0.069473
O14	O	0.266124	1.773469	0.569473
Zn15	Zn	-0.230886	1.133960	0.091515
Zn16	Zn	0.269114	1.633960	0.591515
Zn17	Zn	-0.221199	1.143695	-0.091437
Zn18	Zn	0.278801	1.643695	0.408563
O19	O	-0.368055	1.139286	0.069465
O20	O	0.131945	1.639286	0.569465
C21	C	-0.218250	0.964870	0.000032
C22	C	0.281750	1.464870	0.500032
C23	C	-0.207402	0.858727	0.000028
C24	C	0.292598	1.358727	0.500028
C25	C	-0.264503	0.613268	0.000035
C26	C	0.235497	1.113268	0.500035
C27	C	-0.187587	0.664394	0.000036
C28	C	0.312413	1.164394	0.500036
C29	C	-0.198615	0.772531	0.000031
C30	C	0.301385	1.272531	0.500031
C31	C	-0.253476	0.505121	0.000039
C32	C	0.246524	1.005121	0.500039
C33	C	-0.400000	1.146616	0.000035
C34	C	0.100000	1.646616	0.500035
C35	C	-0.506143	1.157461	0.000032
C36	C	-0.006143	1.657461	0.500032
C37	C	-0.700482	1.177287	0.000036
C38	C	-0.200482	1.677287	0.500036
C39	C	-0.751609	1.100373	0.000034
C40	C	-0.251609	1.600373	0.500034
C41	C	-0.859746	1.111404	0.000037
C42	C	-0.359746	1.611404	0.500037
C43	C	-0.592335	1.166257	0.000034
C44	C	-0.092335	1.666257	0.500034
C45	C	-0.052085	1.131039	0.000041
C46	C	0.447915	1.631039	0.500041
C47	C	0.054058	1.120195	0.000039
C48	C	0.554058	1.620195	0.500039
C49	C	-0.233836	1.312786	0.000044
C50	C	0.266164	1.812786	0.500044
C51	C	-0.244683	1.418929	0.000042
C52	C	0.255317	1.918929	0.500042
N53	N	-0.237497	1.127323	0.216375
N54	N	0.262503	1.627323	0.716375
N55	N	-0.214581	1.150339	-0.216297
N56	N	0.285419	1.650339	0.283703
C57	C	-0.180428	1.184443	0.260072
C58	C	0.319572	1.684443	0.760072
C59	C	-0.185063	1.179810	0.347479
C60	C	0.314937	1.679810	0.847479
C61	C	-0.246772	1.118062	0.391186
C62	C	0.253228	1.618062	0.891186
C63	C	-0.303843	1.060936	0.347482
C64	C	0.196157	1.560936	0.847482
C65	C	-0.299203	1.065565	0.260077
C66	C	0.200797	1.565565	0.760077
C67	C	-0.267013	1.097841	0.652594
C68	C	0.232987	1.597841	1.152594
C69	C	-0.271650	1.093219	0.740005
C70	C	0.228350	1.593219	1.240005
C71	C	-0.152868	1.212093	0.739996
C72	C	0.347132	1.712093	1.239996
C73	C	-0.148238	1.216720	0.652589
C74	C	0.351762	1.716720	1.152589
C75	C	-0.205305	1.159590	0.608893
C76	C	0.294695	1.659590	1.108893
N77	N	-0.251513	1.113327	0.480530
N78	N	0.248487	1.613327	0.980530
N79	N	-0.200559	1.164321	0.519551
N80	N	0.299441	1.664321	1.019551
H81	H	-0.338629	0.650710	0.000031
H82	H	0.161371	1.150710	0.500031
H83	H	-0.130182	1.234729	0.224492
H84	H	0.369818	1.734729	0.724492
Br85	Br	-0.689211	0.976810	0.000035
Br86	Br	-0.189211	1.476810	0.500035
Br87	Br	-0.762883	1.300842	0.000044
Br88	Br	-0.262883	1.800842	0.500044
H89	H	-0.354085	1.010654	0.383074
H90	H	0.145915	1.510654	0.883074
H91	H	-0.097989	1.267000	0.617005
H92	H	0.402011	1.767000	1.117005
H93	H	-0.138592	1.226321	0.383057
H94	H	0.361408	1.726321	0.883057
Br95	Br	-0.075421	1.289620	0.799301
Br96	Br	0.424579	1.789620	1.299301
H97	H	-0.321905	1.042934	0.775588
H98	H	0.178095	1.542934	1.275588
Br99	Br	-0.344461	1.020313	0.593297
Br100	Br	0.155539	1.520313	1.093297
Br101	Br	-0.064026	0.601990	0.000041
Br102	Br	0.435974	1.101990	0.500041
H103	H	-0.345674	1.019050	0.224500
H104	H	0.154326	1.519050	0.724500
