data_functionalizedCrystal
_audit_creation_method	'MofGen! by Chris Wilmer'
_symmetry_space_group_name_H-M	'P1'
_symmetry_Int_Tables_number	1
_symmetry_cell_setting	triclinic
loop_
_symmetry_equiv_pos_as_xyz
  x,y,z
_cell_length_a	14.519709
_cell_length_b	15.944551
_cell_length_c	12.996460
_cell_angle_alpha	89.992903
_cell_angle_beta	90.000034
_cell_angle_gamma	83.589442
loop_
_atom_site_label
_atom_site_type_symbol
_atom_site_fract_x
_atom_site_fract_y
_atom_site_fract_z
O1	O	1.223676	0.110109	-0.085435
O2	O	1.473676	0.360109	0.164565
O3	O	1.723676	0.610109	0.414565
O4	O	1.973676	0.860109	0.664565
O5	O	0.955177	0.123076	-0.085467
O6	O	1.205177	0.373076	0.164533
O7	O	1.455177	0.623076	0.414533
O8	O	1.705177	0.873076	0.664533
O9	O	1.096759	-0.005672	-0.085441
O10	O	1.346759	0.244328	0.164559
O11	O	1.596759	0.494328	0.414559
O12	O	1.846759	0.744328	0.664559
O13	O	1.082094	0.238857	-0.085461
O14	O	1.332094	0.488857	0.164539
O15	O	1.582094	0.738857	0.414539
O16	O	1.832094	0.988857	0.664539
O17	O	1.096744	-0.005679	0.085693
O18	O	1.346744	0.244321	0.335693
O19	O	1.596744	0.494321	0.585693
O20	O	1.846744	0.744321	0.835693
O21	O	0.955162	0.123069	0.085667
O22	O	1.205162	0.373069	0.335667
O23	O	1.455162	0.623069	0.585667
O24	O	1.705162	0.873069	0.835667
O25	O	1.223661	0.110102	0.085699
O26	O	1.473661	0.360102	0.335699
O27	O	1.723661	0.610102	0.585699
O28	O	1.973661	0.860102	0.835699
Cu29	Cu	1.089410	0.116585	0.101309
Cu30	Cu	1.339410	0.366585	0.351309
Cu31	Cu	1.589410	0.616585	0.601309
Cu32	Cu	1.839410	0.866585	0.851309
Cu33	Cu	1.089428	0.116593	-0.101077
Cu34	Cu	1.339428	0.366593	0.148923
Cu35	Cu	1.589428	0.616593	0.398923
Cu36	Cu	1.839428	0.866593	0.648923
O37	O	1.082080	0.238849	0.085673
O38	O	1.332080	0.488849	0.335673
O39	O	1.582080	0.738849	0.585673
O40	O	1.832080	0.988849	0.835673
C41	C	0.920810	0.122468	0.000096
C42	C	1.170810	0.372468	0.250096
C43	C	1.420810	0.622468	0.500096
C44	C	1.670810	0.872468	0.750096
C45	C	0.818432	0.120657	0.000084
C46	C	1.068432	0.370657	0.250084
C47	C	1.318432	0.620657	0.500084
C48	C	1.568432	0.870657	0.750084
C49	C	0.443548	0.113990	0.000132
C50	C	0.693548	0.363990	0.250132
C51	C	0.943548	0.613990	0.500132
C52	C	1.193548	0.863990	0.750132
C53	C	0.547853	0.115842	0.000118
C54	C	0.797853	0.365842	0.250118
C55	C	1.047853	0.615842	0.500118
C56	C	1.297853	0.865842	0.750118
C57	C	0.630987	0.117323	0.000107
C58	C	0.880987	0.367323	0.250107
C59	C	1.130987	0.617323	0.500107
C60	C	1.380987	0.867323	0.750107
C61	C	0.735298	0.119175	0.000095
C62	C	0.985298	0.369175	0.250095
C63	C	1.235298	0.619175	0.500095
C64	C	1.485298	0.869175	0.750095
C65	C	1.096142	-0.036970	0.000126
C66	C	1.346142	0.213030	0.250126
C67	C	1.596142	0.463030	0.500126
C68	C	1.846142	0.713030	0.750126
C69	C	1.094317	-0.130219	0.000126
C70	C	1.344317	0.119781	0.250126
C71	C	1.594317	0.369781	0.500126
C72	C	1.844317	0.619781	0.750126
C73	C	1.002196	-0.345209	0.000101
C74	C	1.252196	-0.095209	0.250101
C75	C	1.502196	0.154791	0.500101
C76	C	1.752196	0.404791	0.750101
C77	C	1.044967	-0.406168	0.084486
C78	C	1.294967	-0.156168	0.334486
C79	C	1.544967	0.093832	0.584486
C80	C	1.794967	0.343832	0.834486
C81	C	1.091015	-0.300950	0.000118
C82	C	1.341015	-0.050950	0.250118
C83	C	1.591015	0.199050	0.500118
C84	C	1.841015	0.449050	0.750118
C85	C	1.045002	-0.406144	-0.084239
C86	C	1.295002	-0.156144	0.165761
C87	C	1.545002	0.093856	0.415761
C88	C	1.795002	0.343856	0.665761
C89	C	1.087820	-0.465867	0.000106
C90	C	1.337820	-0.215867	0.250106
C91	C	1.587820	0.034133	0.500106
C92	C	1.837820	0.284133	0.750106
C93	C	1.133811	-0.360680	0.084572
C94	C	1.383811	-0.110680	0.334572
C95	C	1.633811	0.139320	0.584572
C96	C	1.883811	0.389320	0.834572
C97	C	1.133834	-0.360650	-0.084228
C98	C	1.383834	-0.110650	0.165772
C99	C	1.633834	0.139350	0.415772
C100	C	1.883834	0.389350	0.665772
C101	C	1.176669	-0.421591	0.000177
C102	C	1.426669	-0.171591	0.250177
C103	C	1.676669	0.078409	0.500177
C104	C	1.926669	0.328409	0.750177
C105	C	1.092854	-0.205945	0.000126
C106	C	1.342854	0.044055	0.250126
C107	C	1.592854	0.294055	0.500126
C108	C	1.842854	0.544055	0.750126
C109	C	1.085988	-0.560871	0.000105
C110	C	1.335988	-0.310871	0.250105
C111	C	1.585988	-0.060871	0.500105
C112	C	1.835988	0.189129	0.750105
C113	C	1.258028	0.110710	0.000133
C114	C	1.508028	0.360710	0.250133
C115	C	1.758028	0.610710	0.500133
C116	C	2.008028	0.860710	0.750133
C117	C	1.360406	0.112521	0.000139
C118	C	1.610406	0.362521	0.250139
C119	C	1.860406	0.612521	0.500139
C120	C	2.110406	0.862521	0.750139
C121	C	1.082696	0.270148	0.000103
C122	C	1.332696	0.520148	0.250103
C123	C	1.582696	0.770148	0.500103
C124	C	1.832696	1.020148	0.750103
C125	C	1.084521	0.363397	0.000096
C126	C	1.334521	0.613397	0.250096
C127	C	1.584521	0.863397	0.500096
C128	C	1.834521	1.113397	0.750096
N129	N	1.089405	0.116578	0.243656
N130	N	1.339405	0.366578	0.493656
N131	N	1.589405	0.616578	0.743656
N132	N	1.839405	0.866578	0.993656
N133	N	1.089441	0.116593	-0.243424
N134	N	1.339441	0.366593	0.006576
N135	N	1.589441	0.616593	0.256576
N136	N	1.839441	0.866593	0.506576
C137	C	1.089426	0.116594	0.663470
C138	C	1.339426	0.366594	0.913470
C139	C	1.589426	0.616594	1.163470
C140	C	1.839426	0.866594	1.413470
C141	C	1.089418	0.116592	0.546665
C142	C	1.339418	0.366592	0.796665
C143	C	1.589418	0.616592	1.046665
C144	C	1.839418	0.866592	1.296665
C145	C	1.089416	0.116587	0.453567
C146	C	1.339416	0.366587	0.703567
C147	C	1.589416	0.616587	0.953567
C148	C	1.839416	0.866587	1.203567
C149	C	1.089406	0.116584	0.336754
C150	C	1.339406	0.366584	0.586754
C151	C	1.589406	0.616584	0.836754
C152	C	1.839406	0.866584	1.086754
H153	H	0.928471	-0.312009	0.000177
H154	H	1.178471	-0.062009	0.250177
H155	H	1.428471	0.187991	0.500177
H156	H	1.678471	0.437991	0.750177
O157	O	1.274436	-0.465314	0.000254
O158	O	1.524436	-0.215314	0.250254
O159	O	1.774436	0.034686	0.500254
O160	O	2.024436	0.284686	0.750254
H161	H	1.311498	-0.446216	-0.069130
H162	H	1.561498	-0.196216	0.180870
H163	H	1.811498	0.053784	0.430870
H164	H	2.061498	0.303784	0.680870
O165	O	0.995209	-0.432882	0.178979
O166	O	1.245209	-0.182882	0.428979
O167	O	1.495209	0.067118	0.678979
O168	O	1.745209	0.317118	0.928979
H169	H	0.922809	-0.401998	0.178801
H170	H	1.172809	-0.151998	0.428801
H171	H	1.422809	0.098002	0.678801
H172	H	1.672809	0.348002	0.928801
O173	O	1.183563	-0.333894	-0.178713
O174	O	1.433563	-0.083894	0.071287
O175	O	1.683563	0.166106	0.321287
O176	O	1.933563	0.416106	0.571287
H177	H	1.146555	-0.351891	-0.248661
H178	H	1.396555	-0.101891	0.001339
H179	H	1.646555	0.148109	0.251339
H180	H	1.896555	0.398109	0.501339
O181	O	0.995228	-0.432828	-0.178729
O182	O	1.245228	-0.182828	0.071271
O183	O	1.495228	0.067172	0.321271
O184	O	1.745228	0.317172	0.571271
H185	H	1.043284	-0.476769	-0.225105
H186	H	1.293284	-0.226769	0.024895
H187	H	1.543284	0.023231	0.274895
H188	H	1.793284	0.273231	0.524895
O189	O	1.183519	-0.334144	0.179182
O190	O	1.433519	-0.084144	0.429182
O191	O	1.683519	0.165856	0.679182
O192	O	1.933519	0.415856	0.929182
H193	H	1.184446	-0.264633	0.178466
H194	H	1.434446	-0.014633	0.428466
H195	H	1.684446	0.235367	0.678466
H196	H	1.934446	0.485367	0.928466
