data_functionalizedCrystal
_audit_creation_method	'MofGen! by Chris Wilmer'
_symmetry_space_group_name_H-M	'P1'
_symmetry_Int_Tables_number	1
_symmetry_cell_setting	triclinic
loop_
_symmetry_equiv_pos_as_xyz
  x,y,z
_cell_length_a	21.395362
_cell_length_b	17.640280
_cell_length_c	21.395355
_cell_angle_alpha	78.784922
_cell_angle_beta	89.956060
_cell_angle_gamma	78.812025
loop_
_atom_site_label
_atom_site_type_symbol
_atom_site_fract_x
_atom_site_fract_y
_atom_site_fract_z
Zn1	Zn	1.008318	-0.314390	-0.304290
Zn2	Zn	1.508318	0.185610	0.195710
Zn3	Zn	1.029429	-0.446530	-0.178373
Zn4	Zn	1.529429	0.053470	0.321627
Zn5	Zn	0.903539	-0.314427	-0.199486
Zn6	Zn	1.403539	0.185573	0.300514
Zn7	Zn	0.924713	-0.446546	-0.283075
Zn8	Zn	1.424713	0.053454	0.216925
O9	O	0.966500	-0.380473	-0.241306
O10	O	1.466500	0.119527	0.258694
O11	O	1.098793	-0.331896	-0.287630
O12	O	1.598793	0.168104	0.212370
O13	O	1.012702	-0.429015	-0.093494
O14	O	1.512702	0.070985	0.406506
O15	O	0.899742	-0.203828	-0.231102
O16	O	1.399742	0.296172	0.268898
O17	O	1.114303	-0.428979	-0.195119
O18	O	1.614303	0.071021	0.304881
O19	O	0.976723	-0.203801	-0.308102
O20	O	1.476723	0.296199	0.191898
O21	O	0.920212	-0.331959	-0.109006
O22	O	1.420212	0.168041	0.390994
O23	O	0.818673	-0.331975	-0.210531
O24	O	1.318673	0.168025	0.289469
O25	O	0.935830	-0.429007	-0.373569
O26	O	1.435830	0.070993	0.126431
O27	O	0.834230	-0.429043	-0.271944
O28	O	1.334230	0.070957	0.228056
O29	O	0.997254	-0.331912	-0.389155
O30	O	1.497254	0.168088	0.110845
O31	O	1.033234	-0.557126	-0.174548
O32	O	1.533234	-0.057126	0.325452
O33	O	0.956300	-0.557138	-0.251472
O34	O	1.456300	-0.057138	0.248528
C35	C	0.803719	-0.380515	-0.241227
C36	C	1.303719	0.119485	0.258773
C37	C	0.734083	-0.380552	-0.241204
C38	C	1.234083	0.119448	0.258796
C39	C	0.709497	-0.431162	-0.273111
C40	C	1.209497	0.068838	0.226889
C41	C	0.644059	-0.431143	-0.273143
C42	C	1.144059	0.068857	0.226857
C43	C	0.603210	-0.380521	-0.241254
C44	C	1.103210	0.119479	0.258746
C45	C	0.627802	-0.329901	-0.209346
C46	C	1.127802	0.170099	0.290654
C47	C	0.693239	-0.329917	-0.209321
C48	C	1.193239	0.170083	0.290679
C49	C	0.498463	-0.374155	-0.185867
C50	C	0.998463	0.125845	0.314133
C51	C	0.433029	-0.374145	-0.185890
C52	C	0.933029	0.125855	0.314110
C53	C	0.401381	-0.380470	-0.241331
C54	C	0.901381	0.119530	0.258669
C55	C	0.435178	-0.386821	-0.296749
C56	C	0.935178	0.113179	0.203251
C57	C	0.500615	-0.386836	-0.296724
C58	C	1.000615	0.113164	0.203276
C59	C	0.532254	-0.380499	-0.241278
C60	C	1.032254	0.119501	0.258722
C61	C	0.305840	-0.431062	-0.273275
C62	C	0.805840	0.068938	0.226725
C63	C	0.240399	-0.431037	-0.273308
C64	C	0.740399	0.068963	0.226692
C65	C	0.224144	-0.329800	-0.209505
C66	C	0.724144	0.170200	0.290495
C67	C	0.289583	-0.329820	-0.209478
C68	C	0.789583	0.170180	0.290522
C69	C	0.330428	-0.380456	-0.241362
C70	C	0.830428	0.119544	0.258638
C71	C	0.999372	-0.585808	-0.208431
C72	C	1.499372	-0.085808	0.291569
C73	C	1.013493	-0.673651	-0.194387
C74	C	1.513493	-0.173651	0.305613
C75	C	0.859485	-0.962724	-0.348219
C76	C	1.359485	-0.462724	0.151781
C77	C	0.872755	-1.045266	-0.335003
C78	C	1.372755	-0.545266	0.164997
C79	C	0.952916	-1.045188	-0.254983
C80	C	1.452916	-0.545188	0.245017
C81	C	0.939655	-0.962645	-0.268194
C82	C	1.439655	-0.462645	0.231806
C83	C	0.892939	-0.921419	-0.314813
C84	C	1.392939	-0.421419	0.185187
C85	C	0.973109	-0.921340	-0.234788
C86	C	1.473109	-0.421340	0.265212
C87	C	0.959847	-0.838803	-0.247996
C88	C	1.459847	-0.338803	0.252004
C89	C	0.913131	-0.797572	-0.294610
C90	C	1.413131	-0.297572	0.205390
C91	C	0.879677	-0.838883	-0.328021
C92	C	1.379677	-0.338883	0.171979
C93	C	1.019822	-0.962567	-0.188167
C94	C	1.519822	-0.462567	0.311833
C95	C	1.053276	-0.921262	-0.154760
C96	C	1.553276	-0.421262	0.345240
C97	C	1.040017	-0.838724	-0.167971
C98	C	1.540017	-0.338724	0.332029
C99	C	0.993301	-0.797492	-0.214586
C100	C	1.493301	-0.297492	0.285414
C101	C	1.073472	-0.797413	-0.134561
C102	C	1.573472	-0.297413	0.365439
C103	C	1.060209	-0.714877	-0.147769
C104	C	1.560209	-0.214877	0.352231
C105	C	0.980039	-0.714956	-0.227794
C106	C	1.480039	-0.214956	0.272206
C107	C	1.129916	-0.380432	-0.241386
C108	C	1.629916	0.119568	0.258614
C109	C	1.199555	-0.380414	-0.241420
C110	C	1.699555	0.119586	0.258580
C111	C	0.966549	-0.380457	-0.404732
C112	C	1.466549	0.119543	0.095268
C113	C	0.966570	-0.380450	-0.474374
C114	C	1.466570	0.119550	0.025626
C115	C	0.933515	-0.174337	-0.274324
C116	C	1.433515	0.325663	0.225676
C117	C	0.919460	-0.086494	-0.288394
C118	C	1.419460	0.413506	0.211606
C119	C	0.998552	-0.329891	-0.515205
C120	C	1.498552	0.170109	-0.015205
C121	C	0.998545	-0.329857	-0.580646
C122	C	1.498545	0.170143	-0.080646
C123	C	0.966566	-0.380397	-0.605251
C124	C	1.466566	0.119603	-0.105251
C125	C	0.934577	-0.430960	-0.564412
C126	C	1.434577	0.069040	-0.064412
C127	C	0.934579	-0.430986	-0.498974
C128	C	1.434579	0.069014	0.001026
C129	C	0.973012	-0.451559	-0.697531
C130	C	1.473012	0.048441	-0.197531
C131	C	0.973014	-0.451533	-0.762968
C132	C	1.473014	0.048467	-0.262968
C133	C	0.966557	-0.380313	-0.807086
C134	C	1.466557	0.119687	-0.307086
C135	C	0.960109	-0.309116	-0.785758
C136	C	1.460109	0.190884	-0.285758
C137	C	0.960111	-0.309143	-0.720320
C138	C	1.460111	0.190857	-0.220320
C139	C	0.966560	-0.380373	-0.676208
C140	C	1.466560	0.119627	-0.176208
C141	C	0.998533	-0.329712	-0.918875
C142	C	1.498533	0.170288	-0.418875
C143	C	0.998522	-0.329677	-0.984317
C144	C	1.498522	0.170323	-0.484317
C145	C	0.934559	-0.430787	-0.968082
C146	C	1.434559	0.069213	-0.468082
C147	C	0.934565	-0.430815	-0.902642
C148	C	1.434565	0.069185	-0.402642
C149	C	0.966556	-0.380279	-0.878042
C150	C	1.466556	0.119721	-0.378042
C151	C	0.966477	-0.380432	-0.078525
C152	C	1.466477	0.119568	0.421475
C153	C	0.966542	-0.380216	-0.008919
C154	C	1.466542	0.119784	0.491081
H155	H	0.405517	-0.368979	-0.140765
H156	H	0.905517	0.131021	0.359235
Br157	Br	1.037845	-1.074582	-0.170265
Br158	Br	1.537845	-0.574582	0.329735
H159	H	0.339097	-0.472288	-0.299240
H160	H	0.839097	0.027712	0.200760
Br161	Br	1.136864	-0.853371	-0.071291
Br162	Br	1.636864	-0.353371	0.428709
H163	H	1.024564	-0.288501	-1.017562
H164	H	1.524564	0.211499	-0.517562
Br165	Br	1.105602	-0.658814	-0.102423
Br166	Br	1.605602	-0.158814	0.397577
Br167	Br	0.726607	-0.261224	-0.166017
Br168	Br	1.226607	0.238776	0.333983
Br169	Br	0.796091	-0.906767	-0.411495
Br170	Br	1.296091	-0.406767	0.088505
H171	H	0.902330	-0.730366	-0.305359
H172	H	1.402330	-0.230366	0.194641
Br173	Br	1.041945	-0.261127	-0.885486
Br174	Br	1.541945	0.238873	-0.385486
H175	H	0.841640	-0.805315	-0.365986
H176	H	1.341640	-0.305315	0.134014
Br177	Br	0.541408	-0.365571	-0.110618
Br178	Br	1.041408	0.134429	0.389382
Br179	Br	1.116675	-0.977217	-0.091496
Br180	Br	1.616675	-0.477217	0.408504
Br181	Br	0.572365	-0.261194	-0.166074
Br182	Br	1.072365	0.238806	0.333926
Br183	Br	1.041964	-0.261304	-0.481823
Br184	Br	1.541964	0.238696	0.018177
H185	H	0.990951	-1.078765	-0.217025
H186	H	1.490951	-0.578765	0.282975
H187	H	1.024587	-0.288681	-0.613897
H188	H	1.524587	0.211319	-0.113897
H189	H	0.409412	-0.391970	-0.341895
H190	H	0.909412	0.108030	0.158105
Br191	Br	0.207031	-0.499722	-0.316621
Br192	Br	0.707031	0.000278	0.183379
Br193	Br	0.168712	-0.261090	-0.166234
Br194	Br	0.668712	0.238910	0.333766
Br195	Br	0.322952	-0.261131	-0.166173
Br196	Br	0.822952	0.238869	0.333827
Br197	Br	0.916645	-0.658999	-0.291070
Br198	Br	1.416645	-0.158999	0.208930
H199	H	0.845517	-1.078894	-0.362218
H200	H	1.345517	-0.578894	0.137782
Br201	Br	0.951358	-0.212525	-0.691376
Br202	Br	1.451358	0.287475	-0.191376
H203	H	0.954852	-0.251122	-0.821679
H204	H	1.454852	0.248878	-0.321679
Br205	Br	0.891160	-0.499437	-0.847225
Br206	Br	1.391160	0.000563	-0.347225
H207	H	0.908513	-0.471929	-0.988116
H208	H	1.408513	0.028071	-0.488116
H209	H	0.978268	-0.509506	-0.780327
H210	H	1.478268	-0.009506	-0.280327
H211	H	0.978100	-0.509540	-0.661617
H212	H	1.478100	-0.009540	-0.161617
H213	H	0.908538	-0.472107	-0.584451
H214	H	1.408538	0.027893	-0.084451
H215	H	0.908533	-0.472157	-0.465729
H216	H	1.408533	0.027843	0.034271
H217	H	0.742749	-0.472392	-0.299075
H218	H	1.242749	0.027608	0.200925
H219	H	0.624037	-0.472355	-0.299127
H220	H	1.124037	0.027645	0.200873
H221	H	0.528130	-0.392005	-0.341848
H222	H	1.028130	0.107995	0.158152
