data_functionalizedCrystal
_audit_creation_method	'MofGen! by Chris Wilmer'
_symmetry_space_group_name_H-M	'P1'
_symmetry_Int_Tables_number	1
_symmetry_cell_setting	triclinic
loop_
_symmetry_equiv_pos_as_xyz
  x,y,z
_cell_length_a	18.215405
_cell_length_b	17.077404
_cell_length_c	17.077396
_cell_angle_alpha	89.982756
_cell_angle_beta	89.967575
_cell_angle_gamma	90.025110
loop_
_atom_site_label
_atom_site_type_symbol
_atom_site_fract_x
_atom_site_fract_y
_atom_site_fract_z
Zn1	Zn	-0.292974	1.200026	-0.443826
Zn2	Zn	0.040360	1.533360	-0.110492
Zn3	Zn	0.373693	1.866693	0.222841
Zn4	Zn	-0.416049	1.199934	-0.312553
Zn5	Zn	-0.082716	1.533267	0.020781
Zn6	Zn	0.250618	1.866601	0.354114
Zn7	Zn	-0.293001	1.068763	-0.312574
Zn8	Zn	0.040332	1.402097	0.020760
Zn9	Zn	0.373665	1.735430	0.354093
Zn10	Zn	-0.416004	1.068721	-0.443776
Zn11	Zn	-0.082670	1.402055	-0.110443
Zn12	Zn	0.250663	1.735388	0.222890
O13	O	-0.354507	1.134361	-0.378182
O14	O	-0.021174	1.467695	-0.044849
O15	O	0.312160	1.801028	0.288485
O16	O	-0.309307	1.309861	-0.426424
O17	O	0.024026	1.643194	-0.093091
O18	O	0.357359	1.976528	0.240243
O19	O	-0.399757	1.182513	-0.202708
O20	O	-0.066424	1.515846	0.130625
O21	O	0.266910	1.849179	0.463958
O22	O	-0.190013	1.086232	-0.330014
O23	O	0.143320	1.419565	0.003319
O24	O	0.476653	1.752898	0.336653
O25	O	-0.399730	1.309793	-0.329978
O26	O	-0.066397	1.643126	0.003355
O27	O	0.266936	1.976460	0.336688
O28	O	-0.189993	1.182670	-0.426444
O29	O	0.143340	1.516003	-0.093111
O30	O	0.476673	1.849337	0.240222
O31	O	-0.309355	1.086142	-0.202724
O32	O	0.023979	1.419475	0.130609
O33	O	0.357312	1.752809	0.463943
O34	O	-0.309310	0.958911	-0.329966
O35	O	0.024023	1.292244	0.003367
O36	O	0.357356	1.625577	0.336701
O37	O	-0.399653	1.086160	-0.553630
O38	O	-0.066320	1.419494	-0.220296
O39	O	0.267014	1.752827	0.113037
O40	O	-0.399680	0.958880	-0.426360
O41	O	-0.066346	1.292213	-0.093027
O42	O	0.266987	1.625547	0.240307
O43	O	-0.309263	1.182630	-0.553666
O44	O	0.024070	1.515963	-0.220333
O45	O	0.357403	1.849296	0.113001
O46	O	-0.519027	1.182472	-0.329930
O47	O	-0.185694	1.515806	0.003403
O48	O	0.147639	1.849139	0.336737
O49	O	-0.518994	1.086071	-0.426340
O50	O	-0.185661	1.419404	-0.093006
O51	O	0.147673	1.752738	0.240327
C52	C	-0.354494	0.930413	-0.378160
C53	C	-0.021160	1.263747	-0.044827
C54	C	0.312173	1.597080	0.288506
C55	C	-0.354506	0.843164	-0.378170
C56	C	-0.021172	1.176497	-0.044836
C57	C	0.312161	1.509830	0.288497
C58	C	-0.401632	0.802178	-0.428282
C59	C	-0.068299	1.135511	-0.094948
C60	C	0.265035	1.468845	0.238385
C61	C	-0.401634	0.720198	-0.428294
C62	C	-0.068300	1.053531	-0.094961
C63	C	0.265033	1.386864	0.238373
C64	C	-0.354512	0.679204	-0.378190
C65	C	-0.021179	1.012537	-0.044857
C66	C	0.312155	1.345871	0.288476
C67	C	-0.307381	0.720195	-0.328076
C68	C	0.025953	1.053529	0.005257
C69	C	0.359286	1.386862	0.338590
C70	C	-0.307376	0.802174	-0.328068
C71	C	0.025957	1.135508	0.005265
C72	C	0.359291	1.468841	0.338598
C73	C	-0.307395	0.549325	-0.328095
C74	C	0.025938	0.882659	0.005238
C75	C	0.359272	1.215992	0.338571
C76	C	-0.307401	0.467341	-0.328102
C77	C	0.025933	0.800674	0.005231
C78	C	0.359266	1.134007	0.338565
C79	C	-0.401653	0.467349	-0.428321
C80	C	-0.068319	0.800682	-0.094988
C81	C	0.265014	1.134015	0.238346
C82	C	-0.401648	0.549327	-0.428313
C83	C	-0.068315	0.882661	-0.094980
C84	C	0.265019	1.215994	0.238354
C85	C	-0.354517	0.590313	-0.378198
C86	C	-0.021184	0.923646	-0.044864
C87	C	0.312149	1.256980	0.288469
C88	C	-0.545713	1.134278	-0.378144
C89	C	-0.212380	1.467612	-0.044811
C90	C	0.120953	1.800945	0.288522
C91	C	-0.627512	1.134315	-0.378154
C92	C	-0.294179	1.467648	-0.044821
C93	C	0.039154	1.800981	0.288512
C94	C	-0.815699	1.184629	-0.328046
C95	C	-0.482366	1.517962	0.005287
C96	C	-0.149032	1.851295	0.338620
C97	C	-0.892558	1.184664	-0.328065
C98	C	-0.559224	1.517997	0.005268
C99	C	-0.225891	1.851330	0.338601
C100	C	-0.892563	1.084194	-0.428374
C101	C	-0.559230	1.417528	-0.095041
C102	C	-0.225896	1.750861	0.238293
C103	C	-0.815706	1.084164	-0.428359
C104	C	-0.482372	1.417497	-0.095025
C105	C	-0.149039	1.750830	0.238308
C106	C	-0.777276	1.134380	-0.378190
C107	C	-0.443942	1.467713	-0.044857
C108	C	-0.110609	1.801046	0.288476
C109	C	-0.930992	1.134445	-0.378225
C110	C	-0.597658	1.467779	-0.044892
C111	C	-0.264325	1.801112	0.288442
C112	C	-1.014325	1.134483	-0.378246
C113	C	-0.680992	1.467816	-0.044912
C114	C	-0.347659	1.801150	0.288421
C115	C	-0.693937	1.134343	-0.378170
C116	C	-0.360603	1.467677	-0.044837
C117	C	-0.027270	1.801010	0.288497
C118	C	-0.162554	1.134466	-0.378237
C119	C	0.170779	1.467799	-0.044904
C120	C	0.504113	1.801132	0.288430
C121	C	-0.080755	1.134510	-0.378261
C122	C	0.252578	1.467844	-0.044927
C123	C	0.585912	1.801177	0.288406
C124	C	-0.354450	1.134401	-0.582926
C125	C	-0.021117	1.467734	-0.249593
C126	C	0.312217	1.801067	0.083740
C127	C	-0.354426	1.134417	-0.670176
C128	C	-0.021092	1.467751	-0.336843
C129	C	0.312241	1.801084	-0.003510
C130	C	-0.354521	1.339105	-0.378204
C131	C	-0.021188	1.672439	-0.044871
C132	C	0.312146	2.005772	0.288462
C133	C	-0.354527	1.426355	-0.378214
C134	C	-0.021194	1.759689	-0.044880
C135	C	0.312140	2.093022	0.288453
C136	C	-0.307347	1.084253	-0.711174
C137	C	0.025986	1.417586	-0.377841
C138	C	0.359319	1.750919	-0.044507
C139	C	-0.307331	1.084265	-0.793154
C140	C	0.026003	1.417599	-0.459821
C141	C	0.359336	1.750932	-0.126488
C142	C	-0.354389	1.134448	-0.834136
C143	C	-0.021056	1.467781	-0.500802
C144	C	0.312278	1.801114	-0.167469
C145	C	-0.401473	1.184615	-0.793132
C146	C	-0.068139	1.517948	-0.459799
C147	C	0.265194	1.851281	-0.126466
C148	C	-0.401492	1.184597	-0.711153
C149	C	-0.068159	1.517931	-0.377820
C150	C	0.265174	1.851264	-0.044487
C151	C	-0.401427	1.184649	-0.964003
C152	C	-0.068093	1.517982	-0.630669
C153	C	0.265240	1.851315	-0.297336
C154	C	-0.401406	1.184667	-1.045987
C155	C	-0.068073	1.518001	-0.712654
C156	C	0.265261	1.851334	-0.379321
C157	C	-0.307265	1.084317	-1.046004
C158	C	0.026068	1.417650	-0.712670
C159	C	0.359402	1.750983	-0.379337
C160	C	-0.307285	1.084299	-0.964025
C161	C	0.026049	1.417633	-0.630691
C162	C	0.359382	1.750966	-0.297358
C163	C	-0.354367	1.134468	-0.923027
C164	C	-0.021034	1.467801	-0.589694
C165	C	0.312299	1.801134	-0.256360
C166	C	-0.354511	1.134367	-0.174234
C167	C	-0.021177	1.467700	0.159099
C168	C	0.312156	1.801034	0.492432
C169	C	-0.354328	1.134502	-0.086985
C170	C	-0.020994	1.467836	0.246348
C171	C	0.312339	1.801169	0.579682
H172	H	-0.269010	0.686812	-0.287284
H173	H	0.064323	1.020145	0.046049
H174	H	0.397656	1.353479	0.379382
C175	C	-0.697880	1.229191	-0.283477
C176	C	-0.364547	1.562524	0.049856
C177	C	-0.031213	1.895857	0.383190
C178	C	-0.773455	1.239829	-0.272907
C179	C	-0.440122	1.573162	0.060426
C180	C	-0.106788	1.906496	0.393759
H181	H	-0.671803	1.263268	-0.249432
H182	H	-0.338470	1.596602	0.083901
H183	H	-0.005137	1.929935	0.417234
H184	H	-0.685241	1.240640	-0.336221
H185	H	-0.351908	1.573973	-0.002888
H186	H	-0.018574	1.907306	0.330446
H187	H	-0.685340	1.176449	-0.271933
H188	H	-0.352007	1.509783	0.061401
H189	H	-0.018674	1.843116	0.394734
H190	H	-0.785996	1.292569	-0.284457
H191	H	-0.452662	1.625903	0.048876
H192	H	-0.119329	1.959236	0.382209
H193	H	-0.786099	1.228386	-0.220151
H194	H	-0.452766	1.561719	0.113182
H195	H	-0.119432	1.895052	0.446515
H196	H	-0.269021	0.433966	-0.287312
H197	H	0.064312	0.767300	0.046021
H198	H	0.397645	1.100633	0.379354
H199	H	-0.269023	1.043393	-0.677813
H200	H	0.064311	1.376726	-0.344479
H201	H	0.397644	1.710059	-0.011146
C202	C	-0.979119	1.195740	-0.222559
C203	C	-0.645786	1.529073	0.110774
C204	C	-0.312453	1.862407	0.444107
C205	C	-0.934822	1.239925	-0.272997
C206	C	-0.601489	1.573258	0.060336
C207	C	-0.268155	1.906592	0.393669
H208	H	-1.005222	1.229869	-0.188581
H209	H	-0.671889	1.563202	0.144752
H210	H	-0.338555	1.896535	0.478085
H211	H	-0.949204	1.161579	-0.192445
H212	H	-0.615871	1.494912	0.140888
H213	H	-0.282537	1.828246	0.474221
H214	H	-1.012983	1.165816	-0.252447
H215	H	-0.679650	1.499149	0.080886
H216	H	-0.346316	1.832483	0.414219
H217	H	-0.900954	1.269845	-0.243109
H218	H	-0.567621	1.603178	0.090224
H219	H	-0.234288	1.936512	0.423557
H220	H	-0.964740	1.274100	-0.303114
H221	H	-0.631407	1.607433	0.030219
H222	H	-0.298073	1.940766	0.363552
H223	H	-0.439725	1.225530	-1.079352
H224	H	-0.106392	1.558863	-0.746019
H225	H	0.226942	1.892197	-0.412685
C226	C	-1.010383	1.039623	-0.472931
C227	C	-0.677050	1.372956	-0.139597
C228	C	-0.343716	1.706289	0.193736
C229	C	-0.934808	1.028990	-0.483509
C230	C	-0.601475	1.362324	-0.150176
C231	C	-0.268141	1.695657	0.183158
H232	H	-1.036460	1.005536	-0.506965
H233	H	-0.703127	1.338869	-0.173632
H234	H	-0.369794	1.672202	0.159701
H235	H	-1.022928	1.092354	-0.484476
H236	H	-0.689595	1.425688	-0.151143
H237	H	-0.356261	1.759021	0.182190
H238	H	-1.023015	1.028175	-0.420177
H239	H	-0.689681	1.361509	-0.086843
H240	H	-0.356348	1.694842	0.246490
H241	H	-0.922175	1.040443	-0.536262
H242	H	-0.588842	1.373777	-0.202928
H243	H	-0.255508	1.707110	0.130405
H244	H	-0.922258	0.976247	-0.471969
H245	H	-0.588924	1.309580	-0.138636
H246	H	-0.255591	1.642913	0.194698
H247	H	-0.784419	1.043245	-0.469195
H248	H	-0.451086	1.376578	-0.135862
H249	H	-0.117752	1.709911	0.197471
H250	H	-0.268998	1.043413	-0.826531
H251	H	0.064336	1.376747	-0.493198
H252	H	0.397669	1.710080	-0.159864
C253	C	-0.214230	0.985106	-0.972271
C254	C	0.119104	1.318439	-0.638937
C255	C	0.452437	1.651772	-0.305604
C256	C	-0.255558	1.029139	-0.918976
C257	C	0.077776	1.362473	-0.585642
C258	C	0.411109	1.695806	-0.252309
H259	H	-0.182300	0.951048	-0.944457
H260	H	0.151033	1.284382	-0.611124
H261	H	0.484367	1.617715	-0.277791
H262	H	-0.186074	1.019327	-1.004256
H263	H	0.147259	1.352660	-0.670922
H264	H	0.480593	1.685994	-0.337589
H265	H	-0.246290	0.955068	-1.004234
H266	H	0.087043	1.288402	-0.670901
H267	H	0.420377	1.621735	-0.337568
H268	H	-0.223497	1.059181	-0.887016
H269	H	0.109836	1.392515	-0.553682
H270	H	0.443169	1.725848	-0.220349
H271	H	-0.283716	0.994914	-0.886977
H272	H	0.049618	1.328247	-0.553644
H273	H	0.382951	1.661580	-0.220311
C274	C	-0.494788	0.793943	-0.527352
C275	C	-0.161455	1.127276	-0.194018
C276	C	0.171878	1.460609	0.139315
C277	C	-0.453428	0.847234	-0.483361
C278	C	-0.120095	1.180567	-0.150028
C279	C	0.213239	1.513901	0.183306
H280	H	-0.526760	0.821759	-0.561361
H281	H	-0.193427	1.155092	-0.228027
H282	H	0.139906	1.488425	0.105306
H283	H	-0.522901	0.761946	-0.493100
H284	H	-0.189567	1.095279	-0.159767
H285	H	0.143766	1.428613	0.173567
H286	H	-0.462751	0.761990	-0.557438
H287	H	-0.129418	1.095324	-0.224105
H288	H	0.203915	1.428657	0.109228
H289	H	-0.485465	0.879183	-0.453270
H290	H	-0.152131	1.212516	-0.119936
H291	H	0.181202	1.545849	0.213397
H292	H	-0.425313	0.879244	-0.517617
H293	H	-0.091980	1.212577	-0.184283
H294	H	0.241353	1.545911	0.149050
H295	H	-0.440026	0.433974	-0.469129
H296	H	-0.106693	0.767307	-0.135796
H297	H	0.226641	1.100641	0.197538
H298	H	-0.268997	0.835544	-0.287266
H299	H	0.064336	1.168877	0.046067
H300	H	0.397670	1.502211	0.379400
H301	H	-0.268928	1.043469	-1.079388
H302	H	0.064406	1.376802	-0.746054
H303	H	0.397739	1.710135	-0.412721
H304	H	-0.439760	1.225508	-0.930625
H305	H	-0.106427	1.558841	-0.597291
H306	H	0.226907	1.892175	-0.263958
C307	C	-0.411684	1.290220	-0.885327
C308	C	-0.078350	1.623553	-0.551994
C309	C	0.254983	1.956886	-0.218661
C310	C	-0.453201	1.239777	-0.838177
C311	C	-0.119868	1.573110	-0.504844
C312	C	0.213466	1.906444	-0.171510
H313	H	-0.443620	1.324279	-0.913130
H314	H	-0.110286	1.657612	-0.579797
H315	H	0.223047	1.990945	-0.246464
H316	H	-0.383649	1.260346	-0.921474
H317	H	-0.050316	1.593679	-0.588141
H318	H	0.283017	1.927013	-0.254808
H319	H	-0.379633	1.320254	-0.853350
H320	H	-0.046300	1.653587	-0.520016
H321	H	0.287034	1.986921	-0.186683
H322	H	-0.485248	1.209738	-0.870155
H323	H	-0.151914	1.543072	-0.536822
H324	H	0.181419	1.876405	-0.203489
H325	H	-0.481248	1.269654	-0.802025
H326	H	-0.147914	1.602987	-0.468692
H327	H	0.185419	1.936321	-0.135359
H328	H	-0.439823	1.225453	-0.677774
H329	H	-0.106490	1.558786	-0.344441
H330	H	0.226844	1.892119	-0.011108
C331	C	-0.412002	0.628057	-0.533882
C332	C	-0.078669	0.961390	-0.200548
C333	C	0.254664	1.294724	0.132785
C334	C	-0.453441	0.675152	-0.483378
C335	C	-0.120108	1.008485	-0.150045
C336	C	0.213225	1.341819	0.183289
H337	H	-0.443990	0.600254	-0.567893
H338	H	-0.110656	0.933588	-0.234559
H339	H	0.222677	1.266921	0.098774
H340	H	-0.383947	0.591910	-0.504049
H341	H	-0.050614	0.925243	-0.170716
H342	H	0.282720	1.258576	0.162618
H343	H	-0.379975	0.660072	-0.563964
H344	H	-0.046642	0.993406	-0.230631
H345	H	0.286692	1.326739	0.102703
H346	H	-0.485465	0.643136	-0.453291
H347	H	-0.152132	0.976469	-0.119958
H348	H	0.181201	1.309803	0.213375
H349	H	-0.481509	0.711303	-0.513214
H350	H	-0.148176	1.044637	-0.179881
H351	H	0.185157	1.377970	0.153453
C352	C	-0.208375	0.641547	-0.317360
C353	C	0.124959	0.974880	0.015973
C354	C	0.458292	1.308214	0.349306
C355	C	-0.255589	0.594375	-0.273005
C356	C	0.077745	0.927708	0.060329
C357	C	0.411078	1.261041	0.393662
H358	H	-0.176392	0.669353	-0.283347
H359	H	0.156941	1.002686	0.049987
H360	H	0.490274	1.336020	0.383320
H361	H	-0.236435	0.677691	-0.347191
H362	H	0.096899	1.011025	-0.013858
H363	H	0.430232	1.344358	0.319475
H364	H	-0.180268	0.609584	-0.351616
H365	H	0.153066	0.942917	-0.018283
H366	H	0.486399	1.276250	0.315050
H367	H	-0.283700	0.626339	-0.238753
H368	H	0.049634	0.959672	0.094581
H369	H	0.382967	1.293005	0.427914
H370	H	-0.227525	0.558226	-0.243160
H371	H	0.105808	0.891559	0.090173
H372	H	0.439141	1.224893	0.423506
H373	H	-0.440023	0.582702	-0.469108
H374	H	-0.106689	0.916035	-0.135774
H375	H	0.226644	1.249369	0.197559
