data_functionalizedCrystal
_audit_creation_method	'MofGen! by Chris Wilmer'
_symmetry_space_group_name_H-M	'P1'
_symmetry_Int_Tables_number	1
_symmetry_cell_setting	triclinic
loop_
_symmetry_equiv_pos_as_xyz
  x,y,z
_cell_length_a	12.759401
_cell_length_b	12.759393
_cell_length_c	12.759400
_cell_angle_alpha	90.031564
_cell_angle_beta	89.985304
_cell_angle_gamma	89.980563
loop_
_atom_site_label
_atom_site_type_symbol
_atom_site_fract_x
_atom_site_fract_y
_atom_site_fract_z
Zn1	Zn	1.606256	-0.594008	0.418204
Zn2	Zn	1.606150	-0.418328	0.593923
Zn3	Zn	1.430557	-0.418344	0.418259
Zn4	Zn	1.430546	-0.593966	0.593842
O5	O	1.518377	-0.506162	0.506057
O6	O	1.753263	-0.570714	0.441525
O7	O	1.582818	-0.271309	0.570677
O8	O	1.453913	-0.441671	0.271230
O9	O	1.753185	-0.441643	0.570625
O10	O	1.582998	-0.570730	0.271190
O11	O	1.453811	-0.271321	0.441618
O12	O	1.283535	-0.441630	0.441539
O13	O	1.453894	-0.740993	0.570486
O14	O	1.283527	-0.570659	0.570539
O15	O	1.582987	-0.741023	0.441446
O16	O	1.582807	-0.441603	0.740933
O17	O	1.453791	-0.570643	0.740873
C18	C	1.245410	-0.506143	0.506037
C19	C	1.128633	-0.506160	0.506053
C20	C	0.964070	-0.573257	0.573343
C21	C	1.073794	-0.573240	0.573329
C22	C	1.073743	-0.439084	0.438794
C23	C	0.964021	-0.439097	0.438814
C24	C	0.909236	-0.640350	0.640616
C25	C	0.964118	-0.707425	0.707876
C26	C	1.073842	-0.707408	0.707863
C27	C	1.128684	-0.640316	0.640588
C28	C	1.518451	-0.780195	0.505951
C29	C	1.518482	-0.896972	0.505906
C30	C	1.585710	-0.951851	0.438708
C31	C	1.585735	-1.061575	0.438670
C32	C	1.451301	-1.061531	0.573036
C33	C	1.451272	-0.951809	0.573068
C34	C	1.652920	-0.897014	0.371545
C35	C	1.720155	-0.951894	0.304343
C36	C	1.720180	-1.061618	0.304305
C37	C	1.652970	-1.116463	0.371469
C38	C	1.792411	-0.506181	0.506078
C39	C	1.909187	-0.506189	0.506087
C40	C	1.518315	-0.506140	0.779024
C41	C	1.518384	-0.506165	0.895801
C42	C	1.518364	-0.233194	0.506087
C43	C	1.518537	-0.116418	0.505836
C44	C	1.518468	-0.506207	0.232023
C45	C	1.518507	-0.506226	0.115247
C46	C	1.585637	-0.439048	0.950659
C47	C	1.585702	-0.439080	1.060383
C48	C	1.451252	-0.573350	1.060381
C49	C	1.451193	-0.573323	0.950659
C50	C	1.652828	-0.371891	0.895801
C51	C	1.720086	-0.304767	0.950659
C52	C	1.720150	-0.304800	1.060383
C53	C	1.652957	-0.371956	1.115249
H54	H	1.652910	-0.807671	0.371571
C55	C	0.788537	-0.640380	0.640631
N56	N	0.697627	-0.640405	0.640640
C57	C	0.903791	-0.781218	0.781878
N58	N	0.858353	-0.836800	0.837616
C59	C	1.377323	-0.891438	0.646995
N60	N	1.321622	-0.845966	0.702677
H61	H	1.652780	-0.371854	0.806458
H62	H	1.653024	-0.371985	1.204594
C63	C	1.793996	-0.230902	0.890305
N64	N	1.849667	-0.175265	0.844847
H65	H	1.218029	-0.640302	0.640589
H66	H	1.774867	-0.907232	0.249654
C67	C	1.794134	-1.121983	0.230379
N68	N	1.849843	-1.167447	0.174699
C69	C	1.377335	-0.647207	1.120737
N70	N	1.321655	-0.702832	1.166198
H71	H	1.118525	-0.762016	0.762637
H72	H	1.774922	-0.250152	1.105046
C73	C	1.377196	-0.647140	0.890311
N74	N	1.321456	-0.702737	0.844857
C75	C	1.377378	-1.121864	0.646913
N76	N	1.321699	-1.167307	0.702560
H77	H	1.118404	-0.384463	0.384022
H78	H	1.652984	-1.205808	0.371421
C79	C	0.903647	-0.365320	0.364826
N80	N	0.858173	-0.309747	0.309099
