data_functionalizedCrystal
_audit_creation_method	'MofGen! by Chris Wilmer'
_symmetry_space_group_name_H-M	'P1'
_symmetry_Int_Tables_number	1
_symmetry_cell_setting	triclinic
loop_
_symmetry_equiv_pos_as_xyz
  x,y,z
_cell_length_a	19.188930
_cell_length_b	13.339070
_cell_length_c	12.376457
_cell_angle_alpha	75.601917
_cell_angle_beta	78.732154
_cell_angle_gamma	80.612963
loop_
_atom_site_label
_atom_site_type_symbol
_atom_site_fract_x
_atom_site_fract_y
_atom_site_fract_z
O1	O	0.960520	-0.106678	-0.094379
O2	O	0.760527	-0.123681	-0.094302
O3	O	0.837571	0.031980	-0.094328
O4	O	0.883477	-0.262339	-0.094352
O5	O	0.818309	-0.006883	0.093691
O6	O	0.741266	-0.162544	0.093717
O7	O	0.941258	-0.145541	0.093640
Zn8	Zn	0.838204	-0.160213	0.123530
Zn9	Zn	0.863582	-0.109010	-0.124192
O10	O	0.864215	-0.301202	0.093666
C11	C	0.724777	-0.142565	-0.000283
C12	C	0.646946	-0.140919	-0.000253
C13	C	0.820186	0.050203	-0.000317
C14	C	0.797072	0.162402	-0.000313
C15	C	0.881600	-0.319425	-0.000347
C16	C	0.904714	-0.431622	-0.000359
C17	C	0.619911	-0.232248	-0.000278
C18	C	0.546784	-0.230694	-0.000290
C19	C	0.500698	-0.137802	-0.000300
C20	C	0.527740	-0.046463	-0.000268
C21	C	0.600864	-0.048021	-0.000245
N22	N	0.385373	-0.053564	-0.064331
N23	N	0.315909	-0.052089	-0.064356
C24	C	0.280378	-0.133100	-0.000369
N25	N	0.316939	-0.215654	0.063629
N26	N	0.386410	-0.217131	0.063649
C27	C	0.421406	-0.136101	-0.000325
C28	C	0.174051	-0.222750	-0.000406
C29	C	0.100923	-0.221193	-0.000411
C30	C	0.081881	-0.036957	-0.000401
C31	C	0.155007	-0.038519	-0.000384
C32	C	0.201089	-0.131416	-0.000392
C33	C	0.977009	-0.126657	-0.000382
C34	C	1.054841	-0.128301	-0.000419
N35	N	0.820889	-0.195156	0.292595
C36	C	0.976793	0.528004	-0.000381
C37	C	0.998510	0.422587	-0.000379
C38	C	0.948153	0.357535	-0.000363
C39	C	0.876074	0.397911	-0.000348
C40	C	0.854353	0.503337	-0.000342
C41	C	0.825713	0.332869	-0.000323
C42	C	0.753634	0.373244	-0.000309
C43	C	0.731917	0.478660	-0.000303
C44	C	0.782275	0.543711	-0.000319
C45	C	0.847434	0.227443	-0.000330
C46	C	0.724994	0.202776	-0.000290
C47	C	0.703276	0.308193	-0.000293
N48	N	0.880901	-0.074058	-0.293257
C49	C	0.921090	0.007078	0.647546
C50	C	0.933205	0.031536	0.529202
C51	C	0.905126	-0.025135	0.470044
C52	C	0.864932	-0.106268	0.529242
C53	C	0.852821	-0.130733	0.647598
C54	C	0.836858	-0.162946	0.470096
C55	C	0.796663	-0.244079	0.529294
C56	C	0.784554	-0.268540	0.647638
C57	C	0.812632	-0.211869	0.706796
C58	C	0.848969	-0.138481	0.351740
C59	C	0.780700	-0.276292	0.351793
C60	C	0.768585	-0.300750	0.470136
H61	H	0.657427	-0.307892	-0.000287
H62	H	0.683988	0.149810	-0.000272
Br63	Br	0.637557	0.075934	-0.000208
H64	H	0.802766	-0.231779	0.803161
Br65	Br	0.752818	0.686816	-0.000475
H66	H	0.735858	-0.366810	0.518350
H67	H	0.490213	0.029174	-0.000292
H68	H	0.673225	0.511528	-0.000283
Br69	Br	0.945251	0.172659	-0.000346
Br70	Br	1.096330	0.367802	-0.000423
Br71	Br	0.236594	-0.348824	-0.000409
H72	H	0.524767	-0.305067	-0.000308
H73	H	0.644588	0.341082	-0.000280
Br74	Br	0.064230	-0.345153	-0.000435
H75	H	0.177019	0.035852	-0.000370
H76	H	0.965840	0.271701	-0.000361
Br77	Br	0.903517	-0.028378	0.271415
Br78	Br	0.987753	0.141635	0.448863
H79	H	0.914992	-0.005218	0.373683
Br80	Br	0.959202	0.083970	0.727830
H81	H	0.751832	-0.334610	0.695837
Br82	Br	0.742598	-0.353214	0.271516
H83	H	0.044365	0.038692	-0.000479
H84	H	1.017785	0.580975	-0.000385
