data_functionalizedCrystal
_audit_creation_method	'MofGen! by Chris Wilmer'
_symmetry_space_group_name_H-M	'P1'
_symmetry_Int_Tables_number	1
_symmetry_cell_setting	triclinic
loop_
_symmetry_equiv_pos_as_xyz
  x,y,z
_cell_length_a	14.971486
_cell_length_b	14.048226
_cell_length_c	14.971486
_cell_angle_alpha	89.993360
_cell_angle_beta	96.385871
_cell_angle_gamma	90.001501
loop_
_atom_site_label
_atom_site_type_symbol
_atom_site_fract_x
_atom_site_fract_y
_atom_site_fract_z
O1	O	1.186947	0.079052	-0.116565
O2	O	1.520280	0.412385	0.216769
O3	O	1.853614	0.745718	0.550102
O4	O	0.926547	0.079078	-0.130523
O5	O	1.259880	0.412411	0.202810
O6	O	1.593214	0.745744	0.536143
O7	O	1.063726	0.079057	0.006656
O8	O	1.397060	0.412390	0.339989
O9	O	1.730393	0.745724	0.673323
O10	O	1.049768	0.079072	-0.253744
O11	O	1.383101	0.412405	0.079589
O12	O	1.716434	0.745739	0.412923
O13	O	1.063710	-0.079264	0.006664
O14	O	1.397043	0.254069	0.339998
O15	O	1.730376	0.587402	0.673331
O16	O	0.926530	-0.079244	-0.130515
O17	O	1.259864	0.254090	0.202818
O18	O	1.593197	0.587423	0.536151
O19	O	1.186930	-0.079270	-0.116556
O20	O	1.520264	0.254064	0.216777
O21	O	1.853597	0.587397	0.550110
Zn22	Zn	1.056728	-0.104394	-0.123535
Zn23	Zn	1.390061	0.228940	0.209799
Zn24	Zn	1.723394	0.562273	0.543132
Zn25	Zn	1.056750	0.104202	-0.123545
Zn26	Zn	1.390083	0.437535	0.209788
Zn27	Zn	1.723416	0.770868	0.543121
O28	O	1.049751	-0.079249	-0.253736
O29	O	1.383084	0.254084	0.079597
O30	O	1.716418	0.587417	0.412931
C31	C	0.893214	-0.000080	-0.129895
C32	C	1.226547	0.333254	0.203438
C33	C	1.559881	0.666587	0.536772
C34	C	0.793917	-0.000070	-0.128024
C35	C	1.127250	0.333263	0.205309
C36	C	1.460583	0.666597	0.538642
N37	N	1.056719	-0.246754	-0.123527
N38	N	1.390053	0.086579	0.209807
N39	N	1.723386	0.419912	0.543140
C40	C	0.736692	-0.000067	-0.208614
C41	C	1.070025	0.333267	0.124720
C42	C	1.403358	0.666600	0.458053
C43	C	0.643392	-0.000081	-0.206850
C44	C	0.976725	0.333252	0.126483
C45	C	1.310059	0.666586	0.459816
C46	C	0.607320	-0.000092	-0.124497
C47	C	0.940653	0.333241	0.208836
C48	C	1.273986	0.666575	0.542169
C49	C	0.664552	-0.000098	-0.043902
C50	C	0.997886	0.333235	0.289431
C51	C	1.331219	0.666569	0.622765
C52	C	0.757850	-0.000090	-0.045666
C53	C	1.091183	0.333243	0.287667
C54	C	1.424517	0.666576	0.621001
C55	C	0.470090	-0.000111	-0.040231
C56	C	0.803423	0.333222	0.293103
C57	C	1.136757	0.666555	0.626436
C58	C	0.376786	-0.000117	-0.038466
C59	C	0.710119	0.333216	0.294867
C60	C	1.043453	0.666550	0.628200
C61	C	0.355632	-0.000102	-0.201415
C62	C	0.688965	0.333231	0.131918
C63	C	1.022299	0.666565	0.465251
C64	C	0.448930	-0.000094	-0.203179
C65	C	0.782263	0.333239	0.130154
C66	C	1.115596	0.666572	0.463487
C67	C	0.506156	-0.000099	-0.122584
C68	C	0.839489	0.333235	0.210750
C69	C	1.172822	0.666568	0.544083
C70	C	1.117482	-0.296581	-0.062809
C71	C	1.450815	0.036752	0.270525
C72	C	1.784148	0.370085	0.603858
C73	C	1.117488	-0.396239	-0.062808
C74	C	1.450821	-0.062906	0.270525
C75	C	1.784154	0.270428	0.603858
C76	C	1.056735	-0.446068	-0.123531
C77	C	1.390068	-0.112734	0.209803
C78	C	1.723402	0.220599	0.543136
C79	C	0.995966	-0.396234	-0.184252
C80	C	1.329300	-0.062900	0.149082
C81	C	1.662633	0.270433	0.482415
C82	C	0.995957	-0.296578	-0.184247
C83	C	1.329290	0.036755	0.149086
C84	C	1.662624	0.370089	0.482420
C85	C	0.995992	-0.603948	-0.184258
C86	C	1.329326	-0.270615	0.149075
C87	C	1.662659	0.062719	0.482409
C88	C	0.996003	-0.703611	-0.184264
C89	C	1.329336	-0.370277	0.149069
C90	C	1.662669	-0.036944	0.482403
C91	C	1.117523	-0.703609	-0.062819
C92	C	1.450856	-0.370276	0.270514
C93	C	1.784190	-0.036943	0.603847
C94	C	1.117514	-0.603953	-0.062815
C95	C	1.450847	-0.270620	0.270519
C96	C	1.784180	0.062713	0.603852
C97	C	1.056746	-0.554126	-0.123537
C98	C	1.390079	-0.220793	0.209796
C99	C	1.723412	0.112541	0.543130
C100	C	1.220263	-0.000110	-0.117185
C101	C	1.553597	0.333223	0.216149
C102	C	1.886930	0.666556	0.549482
C103	C	1.319561	-0.000114	-0.119056
C104	C	1.652894	0.333220	0.214278
C105	C	1.986227	0.666553	0.547611
C106	C	1.063094	-0.000103	0.039985
C107	C	1.396427	0.333230	0.373318
C108	C	1.729761	0.666563	0.706652
C109	C	1.061223	-0.000102	0.139282
C110	C	1.394556	0.333231	0.472615
C111	C	1.727890	0.666565	0.805949
N112	N	1.056765	0.246562	-0.123546
N113	N	1.390098	0.579896	0.209787
N114	N	1.723432	0.913229	0.543121
C115	C	1.050384	-0.000087	-0.287065
C116	C	1.383717	0.333246	0.046269
C117	C	1.717050	0.666580	0.379602
C118	C	1.052254	-0.000082	-0.386362
C119	C	1.385588	0.333252	-0.053028
C120	C	1.718921	0.666585	0.280305
C121	C	1.141812	-0.000111	0.196507
C122	C	1.475146	0.333222	0.529841
C123	C	1.808479	0.666556	0.863174
C124	C	1.140049	-0.000101	0.289807
C125	C	1.473383	0.333232	0.623140
C126	C	1.806716	0.666566	0.956473
C127	C	1.057696	-0.000089	0.325879
C128	C	1.391029	0.333244	0.659212
C129	C	1.724363	0.666577	0.992546
C130	C	0.977101	-0.000078	0.268646
C131	C	1.310434	0.333255	0.601980
C132	C	1.643767	0.666589	0.935313
C133	C	0.978865	-0.000081	0.175349
C134	C	1.312198	0.333253	0.508682
C135	C	1.645531	0.666586	0.842015
C136	C	0.973430	-0.000074	0.463109
C137	C	1.306763	0.333259	0.796442
C138	C	1.640096	0.666593	1.129776
C139	C	0.971665	-0.000073	0.556413
C140	C	1.304998	0.333260	0.889746
C141	C	1.638332	0.666594	1.223080
C142	C	1.134614	-0.000094	0.577567
C143	C	1.467947	0.333239	0.910900
C144	C	1.801281	0.666572	1.244233
C145	C	1.136378	-0.000097	0.484269
C146	C	1.469712	0.333236	0.817603
C147	C	1.803045	0.666569	1.150936
C148	C	1.055782	-0.000088	0.427043
C149	C	1.389116	0.333246	0.760376
C150	C	1.722449	0.666579	1.093710
H151	H	0.766054	-0.000057	-0.275675
H152	H	1.099387	0.333276	0.057658
H153	H	1.432720	0.666609	0.390992
H154	H	0.946506	-0.563382	-0.233702
H155	H	1.279839	-0.230049	0.099632
H156	H	1.613172	0.103285	0.432965
H157	H	1.205673	-0.000110	0.336396
H158	H	1.539007	0.333223	0.669730
H159	H	1.872340	0.666556	1.003063
H160	H	1.166964	-0.436808	-0.013367
H161	H	1.500298	-0.103475	0.319967
H162	H	1.833631	0.229859	0.653300
H163	H	1.200238	-0.000099	0.624165
H164	H	1.533572	0.333234	0.957499
H165	H	1.866905	0.666567	1.290832
H166	H	0.635175	-0.000120	0.023152
H167	H	0.968508	0.333213	0.356485
H168	H	1.301842	0.666546	0.689818
H169	H	0.478296	-0.000077	-0.270239
H170	H	0.811630	0.333257	0.063095
H171	H	1.144963	0.666590	0.396428
H172	H	0.596802	-0.000077	-0.272474
H173	H	0.930136	0.333256	0.060859
H174	H	1.263469	0.666589	0.394192
H175	H	1.208874	-0.000126	0.167145
H176	H	1.542207	0.333207	0.500478
H177	H	1.875541	0.666540	0.833812
H178	H	0.946477	-0.256010	-0.233689
H179	H	1.279810	0.077324	0.099645
H180	H	1.613144	0.410657	0.432978
H181	H	0.904606	-0.000079	0.585780
H182	H	1.237939	0.333255	0.919113
H183	H	1.571273	0.666588	1.252446
H184	H	0.804443	-0.000093	0.019958
H185	H	1.137776	0.333241	0.353292
H186	H	1.471109	0.666574	0.686625
H187	H	0.347419	-0.000127	0.028593
H188	H	0.680753	0.333206	0.361926
H189	H	1.014086	0.666540	0.695260
H190	H	0.910047	-0.000062	0.298024
H191	H	1.243380	0.333271	0.631357
H192	H	1.576714	0.666604	0.964690
H193	H	0.516682	-0.000116	0.025399
H194	H	0.850015	0.333217	0.358732
H195	H	1.183348	0.666550	0.692066
H196	H	1.166957	-0.256017	-0.013365
H197	H	1.500290	0.077316	0.319968
H198	H	1.833624	0.410649	0.653301
H199	H	1.166987	-0.563383	-0.013375
H200	H	1.500320	-0.230050	0.319959
H201	H	1.833654	0.103284	0.653292
H202	H	0.309033	-0.000103	-0.267039
H203	H	0.642367	0.333231	0.066294
H204	H	0.975700	0.666564	0.399627
H205	H	0.913240	-0.000074	0.128756
H206	H	1.246574	0.333260	0.462089
H207	H	1.579907	0.666593	0.795423
H208	H	1.167002	-0.744184	-0.013377
H209	H	1.500335	-0.410851	0.319956
H210	H	1.833669	-0.077518	0.653289
H211	H	0.946496	-0.436810	-0.233690
H212	H	1.279829	-0.103477	0.099643
H213	H	1.613163	0.229857	0.432977
H214	H	0.946531	-0.744176	-0.233710
H215	H	1.279864	-0.410843	0.099624
H216	H	1.613198	-0.077510	0.432957
H217	H	1.203437	-0.000114	0.454903
H218	H	1.536771	0.333220	0.788236
H219	H	1.870104	0.666553	1.121569
H220	H	0.907800	-0.000064	0.416517
H221	H	1.241133	0.333270	0.749850
H222	H	1.574466	0.666603	1.083184
