data_functionalizedCrystal
_audit_creation_method	'MofGen! by Chris Wilmer'
_symmetry_space_group_name_H-M	'P1'
_symmetry_Int_Tables_number	1
_symmetry_cell_setting	triclinic
loop_
_symmetry_equiv_pos_as_xyz
  x,y,z
_cell_length_a	14.853567
_cell_length_b	14.853567
_cell_length_c	13.330367
_cell_angle_alpha	90.000844
_cell_angle_beta	90.004582
_cell_angle_gamma	83.634930
loop_
_atom_site_label
_atom_site_type_symbol
_atom_site_fract_x
_atom_site_fract_y
_atom_site_fract_z
O1	O	-1.196369	-0.117704	-0.083346
O2	O	-0.933909	-0.131725	-0.083362
O3	O	-1.072150	0.006515	-0.083356
O4	O	-1.058128	-0.255944	-0.083351
O5	O	-1.072130	0.006519	0.083491
O6	O	-0.933889	-0.131722	0.083485
O7	O	-1.196349	-0.117700	0.083501
Cu8	Cu	-1.065117	-0.124711	0.098728
Cu9	Cu	-1.065141	-0.124715	-0.098588
O10	O	-1.058108	-0.255941	0.083496
C11	C	-1.071504	0.040106	0.000064
C12	C	-1.069601	0.140189	0.000055
C13	C	-0.900311	-0.131088	0.000060
C14	C	-0.800227	-0.129184	0.000053
C15	C	-1.229947	-0.118337	0.000078
C16	C	-1.330031	-0.120241	0.000078
C17	C	-0.387693	-0.039019	0.000074
C18	C	-0.366412	-0.203251	0.000076
C19	C	-0.460446	-0.205042	0.000073
C20	C	-0.518108	-0.123819	0.000069
C21	C	-0.481736	-0.040806	0.000067
C22	C	-0.496825	-0.288053	0.000064
C23	C	-0.590864	-0.289846	0.000059
C24	C	-0.648528	-0.208623	0.000062
C25	C	-0.612150	-0.125607	0.000062
C26	C	-0.669812	-0.044384	0.000058
C27	C	-0.633437	0.038633	0.000065
C28	C	-0.539399	0.040417	0.000070
C29	C	-0.742565	-0.210407	0.000057
C30	C	-0.763855	-0.046172	0.000052
C31	C	-1.058754	-0.289531	0.000073
C32	C	-1.060657	-0.389615	0.000075
N33	N	-1.065107	-0.124708	0.237509
C34	C	-0.979435	0.552723	0.000069
C35	C	-1.143668	0.574004	0.000079
C36	C	-1.145458	0.479971	0.000073
C37	C	-1.064235	0.422309	0.000067
C38	C	-0.981223	0.458680	0.000066
C39	C	-1.228469	0.443591	0.000084
C40	C	-1.230262	0.349552	0.000079
C41	C	-1.149039	0.291889	0.000066
C42	C	-1.066023	0.328266	0.000064
C43	C	-0.984800	0.270604	0.000058
C44	C	-0.901783	0.306979	0.000049
C45	C	-0.899999	0.401017	0.000053
C46	C	-1.150823	0.197851	0.000062
C47	C	-0.986588	0.176561	0.000055
N48	N	-1.065158	-0.124711	-0.237370
C49	C	-1.003925	-0.185903	0.710130
C50	C	-1.126381	-0.063519	0.710103
C51	C	-1.126371	-0.063516	0.605084
C52	C	-1.065138	-0.124709	0.552584
C53	C	-1.003915	-0.185904	0.605102
C54	C	-1.187598	-0.002328	0.552559
C55	C	-1.187591	-0.002323	0.447534
C56	C	-1.126353	-0.063512	0.395031
C57	C	-1.065127	-0.124710	0.447556
C58	C	-1.003895	-0.185902	0.395055
C59	C	-0.942664	-0.247096	0.447578
C60	C	-0.942677	-0.247093	0.552599
C61	C	-1.126340	-0.063515	0.290010
C62	C	-1.003884	-0.185903	0.290027
H63	H	-0.810798	0.019971	0.000052
C64	C	-1.254949	0.064976	0.610308
H65	H	-1.246177	0.056218	0.680377
H66	H	-1.315125	0.055074	0.593090
H67	H	-1.245082	0.125167	0.593099
H68	H	-0.358072	0.028572	0.000083
C69	C	-1.317807	0.507014	0.000090
H70	H	-1.367503	0.471884	0.000104
H71	H	-1.320529	0.544139	-0.058094
H72	H	-1.320513	0.544140	0.058280
H73	H	-0.892826	-0.296916	0.595370
H74	H	-1.209795	0.620958	0.000092
C75	C	-1.321575	0.309547	0.000076
H76	H	-1.369691	0.357357	0.000072
H77	H	-1.325685	0.273298	0.058253
H78	H	-1.325689	0.273313	-0.058121
H79	H	-0.954070	-0.235724	0.752896
C80	C	-1.242129	0.157841	0.000074
H81	H	-1.290246	0.205650	0.000077
H82	H	-1.246229	0.121594	0.058255
H83	H	-1.246251	0.121604	-0.058119
H84	H	-0.920445	0.129618	0.000045
H85	H	-0.772178	-0.277998	0.000053
H86	H	-0.835652	0.260019	0.000051
H87	H	-0.680397	0.104764	0.000055
C88	C	-0.808691	0.441032	0.000057
H89	H	-0.819262	0.505295	0.000073
H90	H	-0.775244	0.421256	-0.058126
H91	H	-0.775243	0.421244	0.058248
C92	C	-1.254933	0.064993	0.389768
H93	H	-1.291397	0.101441	0.436078
H94	H	-1.292494	0.032500	0.348784
H95	H	-1.222444	0.102586	0.348814
C96	C	-1.193731	0.003787	0.767850
H97	H	-1.184966	-0.004974	0.837919
H98	H	-1.253907	-0.006110	0.750624
H99	H	-1.183858	0.063978	0.750645
C100	C	-0.936529	-0.253219	0.232285
H101	H	-0.900072	-0.289664	0.278608
H102	H	-0.898961	-0.220722	0.191318
H103	H	-0.969006	-0.290814	0.191314
H104	H	-1.176197	-0.013696	0.247251
H105	H	-0.911844	0.582344	0.000058
H106	H	-0.509774	0.108005	0.000100
C107	C	-0.302988	-0.292588	0.000083
H108	H	-0.241773	-0.279634	0.000092
H109	H	-0.314027	-0.326628	-0.058097
H110	H	-0.314024	-0.326615	0.058277
H111	H	-0.449870	-0.354180	0.000057
H112	H	-0.892811	-0.296924	0.404820
H113	H	-0.620472	-0.357443	0.000053
