data_functionalizedCrystal
_audit_creation_method	'MofGen! by Chris Wilmer'
_symmetry_space_group_name_H-M	'P1'
_symmetry_Int_Tables_number	1
_symmetry_cell_setting	triclinic
loop_
_symmetry_equiv_pos_as_xyz
  x,y,z
_cell_length_a	17.077404
_cell_length_b	12.759400
_cell_length_c	17.077396
_cell_angle_alpha	89.974414
_cell_angle_beta	89.980499
_cell_angle_gamma	90.014910
loop_
_atom_site_label
_atom_site_type_symbol
_atom_site_fract_x
_atom_site_fract_y
_atom_site_fract_z
Zn1	Zn	1.200099	-0.418260	-0.443859
Zn2	Zn	1.533433	-0.084927	-0.110525
Zn3	Zn	1.866766	0.248407	0.222808
Zn4	Zn	1.200025	-0.593961	-0.312599
Zn5	Zn	1.533359	-0.260627	0.020734
Zn6	Zn	1.866692	0.072706	0.354068
Zn7	Zn	1.068831	-0.418297	-0.312606
Zn8	Zn	1.402165	-0.084964	0.020727
Zn9	Zn	1.735498	0.248370	0.354060
Zn10	Zn	1.068818	-0.593898	-0.443823
Zn11	Zn	1.402151	-0.260565	-0.110489
Zn12	Zn	1.735485	0.072769	0.222844
O13	O	1.134443	-0.506104	-0.378222
O14	O	1.467777	-0.172771	-0.044888
O15	O	1.801110	0.160563	0.288445
O16	O	1.309936	-0.441578	-0.426459
O17	O	1.643270	-0.108244	-0.093125
O18	O	1.976603	0.225089	0.240208
O19	O	1.182597	-0.570700	-0.202753
O20	O	1.515930	-0.237367	0.130580
O21	O	1.849263	0.095967	0.463914
O22	O	1.086281	-0.271271	-0.330035
O23	O	1.419614	0.062062	0.003298
O24	O	1.752947	0.395396	0.336631
O25	O	1.309882	-0.570664	-0.330023
O26	O	1.643215	-0.237331	0.003310
O27	O	1.976549	0.096003	0.336644
O28	O	1.182723	-0.271244	-0.426466
O29	O	1.516056	0.062090	-0.093132
O30	O	1.849390	0.395423	0.240201
O31	O	1.086209	-0.441641	-0.202759
O32	O	1.419542	-0.108307	0.130575
O33	O	1.752876	0.225026	0.463908
O34	O	0.958983	-0.441580	-0.330001
O35	O	1.292316	-0.108247	0.003333
O36	O	1.625649	0.225087	0.336666
O37	O	1.086258	-0.570558	-0.553674
O38	O	1.419592	-0.237225	-0.220341
O39	O	1.752925	0.096109	0.112992
O40	O	0.958973	-0.570594	-0.426405
O41	O	1.292306	-0.237260	-0.093071
O42	O	1.625639	0.096073	0.240262
O43	O	1.182710	-0.441517	-0.553701
O44	O	1.516043	-0.108184	-0.220367
O45	O	1.849377	0.225149	0.112966
O46	O	1.182584	-0.740973	-0.329988
O47	O	1.515917	-0.407640	0.003345
O48	O	1.849250	-0.074307	0.336678
O49	O	1.086186	-0.740927	-0.426398
O50	O	1.419520	-0.407594	-0.093064
O51	O	1.752853	-0.074261	0.240269
C52	C	0.930496	-0.506085	-0.378200
C53	C	1.263829	-0.172752	-0.044867
C54	C	1.597162	0.160582	0.288467
C55	C	0.843246	-0.506102	-0.378209
C56	C	1.176579	-0.172769	-0.044876
C57	C	1.509912	0.160565	0.288457
C58	C	0.802271	-0.573381	-0.428326
C59	C	1.135604	-0.240047	-0.094993
C60	C	1.468938	0.093286	0.238340
C61	C	0.720291	-0.573383	-0.428339
C62	C	1.053624	-0.240050	-0.095006
C63	C	1.386957	0.093284	0.238328
C64	C	0.679286	-0.506111	-0.378230
C65	C	1.012620	-0.172778	-0.044897
C66	C	1.345953	0.160556	0.288437
C67	C	0.720267	-0.438825	-0.328111
C68	C	1.053600	-0.105492	0.005223
C69	C	1.386933	0.227842	0.338556
C70	C	0.802246	-0.438818	-0.328103
C71	C	1.135579	-0.105485	0.005231
C72	C	1.468912	0.227849	0.338564
C73	C	0.549397	-0.438846	-0.328130
C74	C	0.882730	-0.105512	0.005204
C75	C	1.216063	0.227821	0.338537
C76	C	0.467412	-0.438854	-0.328136
C77	C	0.800745	-0.105520	0.005197
C78	C	1.134079	0.227813	0.338530
C79	C	0.467442	-0.573410	-0.428366
C80	C	0.800775	-0.240077	-0.095033
C81	C	1.134108	0.093256	0.238301
C82	C	0.549421	-0.573404	-0.428358
C83	C	0.882754	-0.240070	-0.095025
C84	C	1.216087	0.093263	0.238309
C85	C	0.590395	-0.506119	-0.378237
C86	C	0.923729	-0.172785	-0.044904
C87	C	1.257062	0.160548	0.288429
C88	C	1.134397	-0.779071	-0.378205
C89	C	1.467730	-0.445738	-0.044872
C90	C	1.801064	-0.112405	0.288461
C91	C	1.134449	-0.895848	-0.378225
C92	C	1.467782	-0.562515	-0.044891
C93	C	1.801115	-0.229181	0.288442
C94	C	1.184699	-0.950699	-0.328080
C95	C	1.518032	-0.617366	0.005254
C96	C	1.851365	-0.284032	0.338587
C97	C	1.184747	-1.060423	-0.328104
C98	C	1.518080	-0.727090	0.005229
C99	C	1.851413	-0.393756	0.338563
C100	C	1.084289	-1.060435	-0.428420
C101	C	1.417622	-0.727102	-0.095087
C102	C	1.750955	-0.393769	0.238247
C103	C	1.084245	-0.950713	-0.428399
C104	C	1.417578	-0.617380	-0.095066
C105	C	1.750912	-0.284047	0.238267
C106	C	1.234902	-0.895833	-0.277905
C107	C	1.568236	-0.562500	0.055428
C108	C	1.901569	-0.229167	0.388762
C109	C	1.285156	-0.950685	-0.227755
C110	C	1.618489	-0.617351	0.105578
C111	C	1.951822	-0.284018	0.438911
C112	C	1.285204	-1.060409	-0.227780
C113	C	1.618537	-0.727075	0.105554
C114	C	1.951871	-0.393742	0.438887
C115	C	1.234999	-1.115282	-0.277954
C116	C	1.568332	-0.781948	0.055380
C117	C	1.901665	-0.448615	0.388713
C118	C	1.339188	-0.506124	-0.378244
C119	C	1.672521	-0.172790	-0.044911
C120	C	2.005854	0.160543	0.288423
C121	C	1.426437	-0.506132	-0.378253
C122	C	1.759771	-0.172799	-0.044920
C123	C	2.093104	0.160534	0.288413
C124	C	1.134491	-0.506026	-0.582966
C125	C	1.467824	-0.172693	-0.249633
C126	C	1.801158	0.160640	0.083701
C127	C	1.134511	-0.505993	-0.670216
C128	C	1.467844	-0.172660	-0.336883
C129	C	1.801178	0.160673	-0.003549
C130	C	1.134512	-0.232071	-0.378255
C131	C	1.467845	0.101263	-0.044922
C132	C	1.801178	0.434596	0.288411
C133	C	1.134541	-0.115294	-0.378270
C134	C	1.467874	0.218039	-0.044936
C135	C	1.801207	0.551373	0.288397
C136	C	1.184735	-0.438796	-0.711221
C137	C	1.518069	-0.105463	-0.377888
C138	C	1.851402	0.227870	-0.044554
C139	C	1.184745	-0.438761	-0.793202
C140	C	1.518078	-0.105428	-0.459868
C141	C	1.851412	0.227905	-0.126535
C142	C	1.134533	-0.505930	-0.834175
C143	C	1.467867	-0.172596	-0.500842
C144	C	1.801200	0.160737	-0.167509
C145	C	1.084304	-0.573130	-0.793165
C146	C	1.417637	-0.239796	-0.459831
C147	C	1.750970	0.093537	-0.126498
C148	C	1.084291	-0.573159	-0.711186
C149	C	1.417624	-0.239825	-0.377852
C150	C	1.750957	0.093508	-0.044519
C151	C	1.084335	-0.573066	-0.964035
C152	C	1.417668	-0.239733	-0.630701
C153	C	1.751002	0.093600	-0.297368
C154	C	1.084349	-0.573039	-1.046019
C155	C	1.417682	-0.239706	-0.712686
C156	C	1.751015	0.093627	-0.379353
C157	C	1.184789	-0.438669	-1.046051
C158	C	1.518123	-0.105336	-0.712717
C159	C	1.851456	0.227997	-0.379384
C160	C	1.184777	-0.438698	-0.964072
C161	C	1.518110	-0.105365	-0.630738
C162	C	1.851443	0.227968	-0.297405
C163	C	1.134547	-0.505900	-0.923066
C164	C	1.467881	-0.172567	-0.589733
C165	C	1.801214	0.160767	-0.256400
C166	C	1.134441	-0.506105	-0.174274
C167	C	1.467775	-0.172772	0.159059
C168	C	1.801108	0.160561	0.492393
C169	C	1.134573	-0.505842	-0.087025
C170	C	1.467906	-0.172509	0.246309
C171	C	1.801240	0.160824	0.579642
H172	H	0.582804	-0.628188	-0.469157
H173	H	0.916137	-0.294855	-0.135823
H174	H	1.249471	0.038478	0.197510
H175	H	1.043385	-0.627867	-0.677800
H176	H	1.376718	-0.294533	-0.344467
H177	H	1.710052	0.038800	-0.011134
H178	H	1.043328	-0.906053	-0.469233
H179	H	1.376661	-0.572720	-0.135899
H180	H	1.709994	-0.239386	0.197434
F181	F	0.423833	-0.645009	-0.481717
F182	F	0.757166	-0.311676	-0.148384
F183	F	1.090499	0.021658	0.184950
H184	H	1.326128	-1.105065	-0.186951
H185	H	1.659461	-0.771732	0.146382
H186	H	1.992795	-0.438399	0.479715
F187	F	0.593003	-0.367232	-0.274786
F188	F	0.926337	-0.033898	0.058547
F189	F	1.259670	0.299435	0.391880
H190	H	1.043421	-0.627773	-0.930651
H191	H	1.376754	-0.294439	-0.597317
H192	H	1.710088	0.038894	-0.263984
H193	H	1.225626	-0.384103	-0.677866
H194	H	1.558959	-0.050770	-0.344533
H195	H	1.892293	0.282563	-0.011199
H196	H	0.686875	-0.384046	-0.287314
H197	H	1.020208	-0.050713	0.046019
H198	H	1.353541	0.282620	0.379352
H199	H	0.434029	-0.384062	-0.287342
H200	H	0.767362	-0.050729	0.045991
H201	H	1.100695	0.282604	0.379324
H202	H	0.835606	-0.384027	-0.287296
H203	H	1.168940	-0.050694	0.046037
H204	H	1.502273	0.282639	0.379370
H205	H	1.225668	-0.384010	-0.930713
H206	H	1.559001	-0.050677	-0.597380
H207	H	1.892334	0.282657	-0.264046
H208	H	1.235048	-1.204626	-0.277975
H209	H	1.568382	-0.871293	0.055358
H210	H	1.901715	-0.537960	0.388691
H211	H	1.234867	-0.806491	-0.277878
H212	H	1.568200	-0.473157	0.055456
H213	H	1.901533	-0.139824	0.388789
F214	F	1.338591	-0.892284	-0.174367
F215	F	1.671924	-0.558950	0.158967
F216	F	2.005257	-0.225617	0.492300
F217	F	1.030859	-1.118838	-0.481813
F218	F	1.364193	-0.785505	-0.148480
F219	F	1.697526	-0.452172	0.184853
F220	F	1.238228	-0.367277	-0.836839
F221	F	1.571561	-0.033944	-0.503505
F222	F	1.904894	0.299389	-0.170172
H223	H	1.225686	-0.383950	-1.079441
H224	H	1.559020	-0.050616	-0.746108
H225	H	1.892353	0.282717	-0.412774
H226	H	1.043460	-0.627731	-1.079378
H227	H	1.376794	-0.294398	-0.746045
H228	H	1.710127	0.038936	-0.412711
H229	H	0.835651	-0.628165	-0.469129
H230	H	1.168984	-0.294832	-0.135795
H231	H	1.502318	0.038502	0.197538
F232	F	0.676686	-0.644990	-0.481681
F233	F	1.010019	-0.311657	-0.148348
F234	F	1.343353	0.021677	0.184986
F235	F	1.030861	-0.644611	-0.836774
F236	F	1.364195	-0.311278	-0.503441
F237	F	1.697528	0.022055	-0.170108
