data_functionalizedCrystal
_audit_creation_method	'MofGen! by Chris Wilmer'
_symmetry_space_group_name_H-M	'P1'
_symmetry_Int_Tables_number	1
_symmetry_cell_setting	triclinic
loop_
_symmetry_equiv_pos_as_xyz
  x,y,z
_cell_length_a	16.959455
_cell_length_b	16.959453
_cell_length_c	10.686551
_cell_angle_alpha	94.408900
_cell_angle_beta	94.398429
_cell_angle_gamma	90.018936
loop_
_atom_site_label
_atom_site_type_symbol
_atom_site_fract_x
_atom_site_fract_y
_atom_site_fract_z
Zn1	Zn	1.242747	-0.280355	0.713534
Zn2	Zn	1.232507	-0.422701	0.502517
Zn3	Zn	1.100414	-0.290537	0.502536
Zn4	Zn	1.110537	-0.412497	0.713458
O5	O	1.171551	-0.351523	0.608011
O6	O	1.352001	-0.299247	0.685565
O7	O	1.206463	-0.413701	0.325937
O8	O	1.119344	-0.178574	0.530565
O9	O	1.344478	-0.403828	0.530532
O10	O	1.223915	-0.171093	0.685584
O11	O	1.109415	-0.316601	0.325951
O12	O	0.991145	-0.306706	0.530492
O13	O	1.136596	-0.386437	0.890051
O14	O	0.998582	-0.396309	0.685456
O15	O	1.233730	-0.289353	0.890107
O16	O	1.216279	-0.531960	0.530459
O17	O	1.126667	-0.524463	0.685437
C18	C	0.966183	-0.351506	0.607969
C19	C	0.878327	-0.351516	0.607980
C20	C	1.171483	-0.556891	0.607965
C21	C	1.171528	-0.644747	0.607988
C22	C	0.833164	-0.304786	0.527427
C23	C	0.840938	-0.398252	0.688552
C24	C	0.758393	-0.398260	0.688571
C25	C	0.713229	-0.351530	0.608018
C26	C	0.750611	-0.304791	0.527446
C27	C	0.721005	-0.444992	0.769150
C28	C	0.638455	-0.445002	0.769173
C29	C	0.593290	-0.398275	0.688612
C30	C	0.630677	-0.351534	0.608036
C31	C	0.585513	-0.304804	0.527483
C32	C	0.622898	-0.258067	0.446900
C33	C	0.705446	-0.258064	0.446886
C34	C	0.510742	-0.398278	0.688627
C35	C	0.502961	-0.304809	0.527502
C36	C	1.226074	-1.012260	0.688882
C37	C	1.117259	-1.020173	0.527328
C38	C	1.117228	-0.937629	0.527299
C39	C	1.171620	-0.892396	0.608064
C40	C	1.226043	-0.929708	0.688858
C41	C	1.062801	-0.900310	0.446516
C42	C	1.062767	-0.817761	0.446484
C43	C	1.117164	-0.772527	0.527244
C44	C	1.171590	-0.809844	0.608040
C45	C	1.225982	-0.764611	0.688805
C46	C	1.280412	-0.801927	0.769596
C47	C	1.280439	-0.884474	0.769618
C48	C	1.117136	-0.689979	0.527223
C49	C	1.225951	-0.682059	0.688782
C50	C	1.377721	-0.351540	0.608055
C51	C	1.465579	-0.351548	0.608074
C52	C	1.187435	-0.335621	0.937145
C53	C	1.194203	-0.328844	1.077402
C54	C	1.171642	-0.145351	0.608085
C55	C	1.171681	-0.057493	0.608117
C56	C	1.155775	-0.367306	0.280158
C57	C	1.149160	-0.373860	0.139902
H58	H	0.466194	-0.266756	0.461903
H59	H	1.018516	-0.937144	0.380765
H60	H	1.105420	-0.417586	1.086109
Cl61	Cl	1.261748	-0.261337	1.160455
Cl62	Cl	1.294338	-0.625201	0.790314
Cl63	Cl	0.752449	-0.199310	0.345599
Cl64	Cl	0.566112	-0.199316	0.345647
Cl65	Cl	1.294498	-1.059169	0.790438
H66	H	1.018449	-0.787384	0.380700
Cl67	Cl	0.880159	-0.246037	0.426125
H68	H	0.877714	-0.436294	0.754140
H69	H	1.072972	-1.057006	0.461578
Cl70	Cl	1.348781	-0.745053	0.871137
Cl71	Cl	0.777783	-0.503751	0.870386
H72	H	0.608024	-0.483058	0.834787
H73	H	0.480308	-0.436325	0.754244
Cl74	Cl	1.048714	-0.643072	0.425668
Cl75	Cl	1.348855	-0.931390	0.871180
