data_functionalizedCrystal
_audit_creation_method	'MofGen! by Chris Wilmer'
_symmetry_space_group_name_H-M	'P1'
_symmetry_Int_Tables_number	1
_symmetry_cell_setting	triclinic
loop_
_symmetry_equiv_pos_as_xyz
  x,y,z
_cell_length_a	29.839135
_cell_length_b	18.050589
_cell_length_c	18.050582
_cell_angle_alpha	90.018205
_cell_angle_beta	90.018409
_cell_angle_gamma	90.030048
loop_
_atom_site_label
_atom_site_type_symbol
_atom_site_fract_x
_atom_site_fract_y
_atom_site_fract_z
Zn1	Zn	-0.686773	0.295670	-0.420004
Zn2	Zn	-0.686719	0.419854	-0.295824
Zn3	Zn	-0.611652	0.295686	-0.295821
Zn4	Zn	-0.611620	0.419827	-0.419965
O5	O	-0.649191	0.357759	-0.357903
O6	O	-0.749633	0.312148	-0.403549
O7	O	-0.676751	0.403400	-0.191899
O8	O	-0.621653	0.191759	-0.312309
O9	O	-0.749593	0.403385	-0.312314
O10	O	-0.676843	0.191748	-0.403546
O11	O	-0.621600	0.312175	-0.191896
O12	O	-0.548781	0.312149	-0.312271
O13	O	-0.621599	0.403340	-0.523894
O14	O	-0.548758	0.403355	-0.403479
O15	O	-0.676813	0.312122	-0.523924
O16	O	-0.676721	0.523775	-0.312276
O17	O	-0.621547	0.523755	-0.403482
C18	C	-0.532468	0.357751	-0.357871
C19	C	-0.482534	0.357766	-0.357874
C20	C	-0.172908	0.310315	-0.405476
C21	C	0.014765	0.310316	-0.405495
O22	O	0.039015	0.269959	-0.445934
N23	N	0.038251	0.357746	-0.357925
C24	C	0.014816	0.405176	-0.310343
O25	O	0.039099	0.445513	-0.269877
C26	C	-0.172856	0.405170	-0.310321
C27	C	-0.196340	0.357742	-0.357899
C28	C	-0.196392	0.262890	-0.453050
C29	C	-0.243308	0.262893	-0.453047
C30	C	-0.266739	0.310321	-0.405471
C31	C	-0.243255	0.357745	-0.357897
C32	C	-0.196290	0.452596	-0.262736
C33	C	-0.243211	0.452589	-0.262733
C34	C	-0.266695	0.405161	-0.310311
C35	C	-0.313602	0.405176	-0.310317
N36	N	-0.337088	0.357746	-0.357887
C37	C	-0.313657	0.310318	-0.405464
C38	C	0.113347	0.405177	-0.310360
C39	C	0.160265	0.405179	-0.310366
C40	C	0.160210	0.310318	-0.405518
C41	C	0.113291	0.310320	-0.405514
C42	C	0.089861	0.357746	-0.357930
C43	C	-0.412183	0.310328	-0.405456
C44	C	-0.459102	0.310338	-0.405451
C45	C	-0.459044	0.405196	-0.310297
C46	C	-0.412128	0.405190	-0.310304
C47	C	-0.388699	0.357750	-0.357886
O48	O	-0.337881	0.445506	-0.269894
O49	O	-0.337948	0.269975	-0.445913
C50	C	-0.125993	0.310312	-0.405478
C51	C	-0.102509	0.357736	-0.357904
C52	C	-0.125940	0.405164	-0.310328
C53	C	-0.055591	0.357739	-0.357911
C54	C	-0.032159	0.310311	-0.405487
C55	C	-0.055646	0.262881	-0.453057
C56	C	-0.102561	0.262884	-0.453055
C57	C	-0.102454	0.452594	-0.262758
C58	C	-0.055539	0.452588	-0.262765
C59	C	-0.032107	0.405160	-0.310341
C60	C	-0.649137	0.550711	-0.357891
C61	C	-0.649155	0.633257	-0.357911
C62	C	-0.649209	0.357726	-0.551609
C63	C	-0.649216	0.357712	-0.634155
C64	C	0.233631	0.357763	-0.357935
C65	C	0.183696	0.357751	-0.357943
C66	C	-0.649258	0.164054	-0.357932
C67	C	-0.649286	0.081508	-0.357944
C68	C	-0.619180	0.832724	-0.407491
C69	C	-0.608232	0.882159	-0.339722
C70	C	-0.649199	0.784388	-0.357920
C71	C	-0.660169	0.882035	-0.425696
C72	C	-0.649241	0.930373	-0.357936
C73	C	-0.638229	0.832735	-0.290116
C74	C	-0.690185	0.832607	-0.376136
C75	C	-0.679252	0.882019	-0.308320
C76	C	-0.649173	0.700289	-0.357912
C77	C	-0.649266	1.014469	-0.357936
C78	C	-0.619214	0.407249	-0.833590
C79	C	-0.660201	0.425400	-0.882987
C80	C	-0.649238	0.357656	-0.785285
C81	C	-0.608274	0.339484	-0.882970
C82	C	-0.649256	0.357602	-0.931270
C83	C	-0.690247	0.375842	-0.833595
C84	C	-0.638292	0.289895	-0.833574
C85	C	-0.679307	0.308020	-0.882949
C86	C	-0.649227	0.357688	-0.701187
C87	C	-0.649271	0.357570	-1.015367
C88	C	-0.649199	0.357739	-0.164951
C89	C	-0.649279	0.357543	-0.082406
H90	H	-0.393112	0.271696	-0.444199
O91	O	-0.125232	0.498565	-0.216464
C92	C	-0.178195	0.508447	-0.116204
C93	C	-0.152422	0.456292	-0.168572
H94	H	-0.200191	0.474290	-0.077480
H95	H	-0.153367	0.542330	-0.082155
H96	H	-0.200133	0.547343	-0.150252
H97	H	-0.130483	0.417351	-0.134582
H98	H	-0.177274	0.422461	-0.202623
O99	O	-0.266047	0.216743	-0.499281
C100	C	-0.261132	0.122675	-0.593677
C101	C	-0.235328	0.174897	-0.541345
H102	H	-0.236307	0.088840	-0.627711
H103	H	-0.283087	0.083744	-0.559678
H104	H	-0.283110	0.156825	-0.632425
H105	H	-0.213326	0.140807	-0.502587
H106	H	-0.213401	0.213830	-0.575390
H107	H	-0.177319	0.224264	-0.491792
O108	O	-0.481934	0.264369	-0.451749
C109	C	-0.534947	0.254512	-0.552004
C110	C	-0.509113	0.306655	-0.499634
H111	H	-0.556935	0.288678	-0.590722
H112	H	-0.510158	0.220626	-0.586060
H113	H	-0.556899	0.215618	-0.517959
H114	H	-0.487161	0.345594	-0.533622
H115	H	-0.533927	0.340488	-0.465576
H116	H	-0.478130	0.443812	-0.271563
H117	H	-0.573623	0.324136	-0.904659
H118	H	0.094174	0.271698	-0.444255
H119	H	-0.121678	0.224262	-0.491798
H120	H	-0.593847	0.449243	-0.811918
H121	H	0.179296	0.271701	-0.444257
H122	H	0.179381	0.443808	-0.271632
H123	H	-0.036560	0.224266	-0.491798
O124	O	-0.731480	0.806493	-0.394488
C125	C	-0.777789	0.698915	-0.414454
C126	C	-0.731004	0.728390	-0.393633
H127	H	-0.777418	0.635766	-0.413786
H128	H	-0.803502	0.719995	-0.372783
H129	H	-0.787078	0.719174	-0.472266
H130	H	-0.721674	0.708143	-0.335839
H131	H	-0.705319	0.707316	-0.435352
O132	O	-0.627169	0.221638	-0.807563
C133	C	-0.575704	0.149626	-0.734134
C134	C	-0.588263	0.226970	-0.763530
H135	H	-0.544242	0.153909	-0.698540
H136	H	-0.604450	0.126818	-0.699346
H137	H	-0.569109	0.110879	-0.782807
H138	H	-0.594851	0.265773	-0.714902
H139	H	-0.559510	0.249718	-0.798340
O140	O	-0.709502	0.907775	-0.258217
C141	C	-0.721646	0.980860	-0.148313
C142	C	-0.687346	0.951754	-0.205015
H143	H	-0.703745	1.016410	-0.105277
H144	H	-0.747997	1.015623	-0.178004
H145	H	-0.738587	0.932042	-0.119654
H146	H	-0.670372	1.000527	-0.233692
H147	H	-0.661023	0.916969	-0.175284
O148	O	-0.588888	0.806771	-0.457424
C149	C	-0.555168	0.699371	-0.513770
C150	C	-0.589498	0.728664	-0.457214
H151	H	-0.555643	0.636219	-0.513608
H152	H	-0.564157	0.720442	-0.571421
H153	H	-0.520264	0.719775	-0.498111
H154	H	-0.624414	0.708272	-0.472803
H155	H	-0.580470	0.707600	-0.399578
O156	O	-0.566878	0.908093	-0.321465
C157	C	-0.488458	0.912364	-0.353022
C158	C	-0.535269	0.882963	-0.373787
H159	H	-0.462889	0.892045	-0.395304
H160	H	-0.488931	0.975516	-0.352709
H161	H	-0.478897	0.891254	-0.295639
H162	H	-0.544860	0.904018	-0.431174
H163	H	-0.534772	0.819812	-0.374049
O164	O	-0.671169	0.907782	-0.494122
C165	C	-0.651904	0.911970	-0.623685
C166	C	-0.639406	0.882752	-0.546237
H167	H	-0.626226	0.891758	-0.665839
H168	H	-0.686569	0.890716	-0.639673
H169	H	-0.652155	0.975121	-0.622869
H170	H	-0.639129	0.819604	-0.546995
H171	H	-0.604750	0.904063	-0.530280
H172	H	-0.669470	0.482681	-0.904691
H173	H	0.094274	0.443800	-0.271609
O174	O	-0.627118	0.806889	-0.221776
C175	C	-0.614657	0.699609	-0.145088
C176	C	-0.627238	0.728780	-0.222517
H177	H	-0.614759	0.636455	-0.145657
H178	H	-0.579833	0.720409	-0.129453
H179	H	-0.640098	0.720377	-0.102812
H180	H	-0.601827	0.708024	-0.264845
H181	H	-0.662073	0.707986	-0.238089
H182	H	-0.177177	0.491216	-0.223991
O183	O	-0.265990	0.498558	-0.216431
C184	C	-0.318953	0.508419	-0.116168
C185	C	-0.293177	0.456274	-0.168544
H186	H	-0.340947	0.474254	-0.077449
H187	H	-0.294126	0.542300	-0.082115
H188	H	-0.340893	0.547317	-0.150210
H189	H	-0.271237	0.417331	-0.134560
H190	H	-0.318029	0.422445	-0.202600
H191	H	-0.393006	0.443818	-0.271571
H192	H	-0.036422	0.491217	-0.224022
O193	O	-0.731565	0.394257	-0.807711
C194	C	-0.777917	0.414900	-0.700388
C195	C	-0.731103	0.394050	-0.729602
H196	H	-0.777561	0.414724	-0.637234
H197	H	-0.787324	0.472480	-0.721129
H198	H	-0.803535	0.372876	-0.721183
H199	H	-0.705454	0.436023	-0.708820
H200	H	-0.721734	0.336451	-0.708868
H201	H	-0.704735	0.266058	-0.904484
