data_functionalizedCrystal
_audit_creation_method	'MofGen! by Chris Wilmer'
_symmetry_space_group_name_H-M	'P1'
_symmetry_Int_Tables_number	1
_symmetry_cell_setting	triclinic
loop_
_symmetry_equiv_pos_as_xyz
  x,y,z
_cell_length_a	12.837943
_cell_length_b	14.853567
_cell_length_c	11.892095
_cell_angle_alpha	93.898435
_cell_angle_beta	85.689438
_cell_angle_gamma	89.231935
loop_
_atom_site_label
_atom_site_type_symbol
_atom_site_fract_x
_atom_site_fract_y
_atom_site_fract_z
O1	O	1.382409	0.229205	-0.093964
O2	O	1.080587	0.217625	-0.093972
O3	O	1.239561	0.092869	-0.093971
O4	O	1.223436	0.353961	-0.093965
O5	O	1.226306	0.103253	0.094036
O6	O	1.067332	0.228009	0.094035
O7	O	1.369154	0.239589	0.094043
Zn8	Zn	1.216139	0.235448	0.123889
Zn9	Zn	1.233603	0.221766	-0.123818
O10	O	1.210181	0.364345	0.094042
C11	C	1.035334	0.218906	0.000031
C12	C	0.920240	0.207240	0.000027
C13	C	0.679482	0.347487	0.000047
C14	C	0.571341	0.336530	0.000045
C15	C	0.595813	0.174369	0.000029
C16	C	0.703955	0.185327	0.000031
C17	C	0.745785	0.271888	0.000038
C18	C	0.853929	0.282844	0.000032
C19	C	0.878399	0.120685	0.000024
C20	C	0.770257	0.109727	0.000022
C21	C	1.232203	0.064410	0.000029
C22	C	1.230014	-0.035860	0.000019
C23	C	1.126324	-0.457187	0.000038
C24	C	1.315188	-0.462449	0.000043
C25	C	1.317247	-0.368241	0.000036
C26	C	1.223843	-0.318502	0.000032
C27	C	1.128380	-0.362970	0.000035
C28	C	1.412707	-0.323765	0.000045
C29	C	1.414770	-0.229551	0.000040
C30	C	1.321366	-0.179810	0.000028
C31	C	1.225899	-0.224285	0.000029
C32	C	1.132495	-0.174546	0.000025
C33	C	1.037028	-0.219019	0.000018
C34	C	1.034976	-0.313230	0.000023
C35	C	1.323418	-0.085599	0.000023
C36	C	1.134551	-0.080329	0.000022
C37	C	1.414408	0.238308	0.000038
C38	C	1.529502	0.249974	0.000034
C39	C	1.217539	0.392804	0.000040
C40	C	1.219728	0.493073	0.000042
N41	N	1.204228	0.244785	0.292943
N42	N	1.245522	0.212422	-0.292873
C43	C	1.328405	0.147396	0.529592
C44	C	1.320087	0.153930	0.647934
C45	C	1.179269	0.264382	0.647971
C46	C	1.187587	0.257848	0.529629
C47	C	1.262159	0.199354	0.470444
C48	C	1.270481	0.192826	0.352100
C49	C	1.129659	0.303272	0.352140
C50	C	1.121341	0.309806	0.470481
H51	H	0.887985	0.353327	0.000040
O52	O	0.719948	0.431634	0.000097
C53	C	0.638239	0.496010	0.000065
H54	H	0.562229	0.466400	0.035659
H55	H	0.657082	0.558898	0.054647
H56	H	0.629335	0.514790	-0.090132
O57	O	1.048816	0.366637	0.527803
C58	C	0.992148	0.411113	0.450216
H59	H	0.996857	0.369390	0.365854
H60	H	0.906970	0.419605	0.484424
H61	H	1.026791	0.480308	0.437633
O62	O	0.942236	-0.356403	-0.000177
C63	C	0.892140	-0.337152	-0.097537
H64	H	0.952752	-0.316553	-0.165595
H65	H	0.850264	-0.399727	-0.130215
H66	H	0.832894	-0.279612	-0.075528
O67	O	1.405930	-0.510709	0.000246
C68	C	1.457034	-0.483889	0.097599
H69	H	1.397552	-0.452687	0.165656
H70	H	1.496214	-0.545233	0.130285
H71	H	1.518659	-0.432062	0.075578
H72	H	1.374030	0.111620	0.696089
O73	O	1.065455	0.353796	0.294562
C74	C	1.125874	0.410455	0.226131
H75	H	1.208189	0.380564	0.208379
H76	H	1.088475	0.416400	0.142924
H77	H	1.129814	0.480216	0.271752
H78	H	0.517360	0.398091	0.000055
H79	H	0.561729	0.103900	0.000116
H80	H	0.736183	0.039252	0.000029
O81	O	1.507543	-0.186408	-0.000163
C82	C	1.571359	-0.216437	-0.097517
H83	H	1.520336	-0.244559	-0.165570
H84	H	1.617852	-0.157484	-0.130209
H85	H	1.627492	-0.271548	-0.075497
O86	O	0.942951	0.047340	0.000062
C87	C	1.047374	0.075567	0.000029
H88	H	1.049123	0.148706	0.035636
H89	H	1.092446	0.030958	0.054598
H90	H	1.084992	0.069860	-0.090171
H91	H	1.058490	-0.039837	0.000014
O92	O	0.946340	-0.170669	-0.000185
C93	C	0.948766	-0.121373	-0.097538
H94	H	1.006529	-0.155022	-0.165593
H95	H	0.867575	-0.119769	-0.130226
H96	H	0.974152	-0.049466	-0.075517
O97	O	1.033678	-0.500522	0.000083
C98	C	1.051886	-0.594344	0.000052
H99	H	1.130251	-0.607512	0.035648
H100	H	0.986945	-0.625451	0.054632
H101	H	1.053185	-0.625935	-0.090146
O102	O	1.400969	0.090725	0.472055
C103	C	1.469782	0.140778	0.403587
H104	H	1.469087	0.214007	0.439255
H105	H	1.552238	0.111062	0.402246
H106	H	1.443668	0.137739	0.313896
H107	H	1.488751	-0.364268	0.000059
O108	O	1.416181	-0.042448	-0.000173
C109	C	1.480005	-0.072473	-0.097524
H110	H	1.428988	-0.100599	-0.165581
H111	H	1.526494	-0.013517	-0.130212
H112	H	1.536142	-0.127580	-0.075499
H113	H	1.331203	0.145200	0.303912
O114	O	1.106781	0.321071	0.705605
C115	C	1.037935	0.271022	0.774041
H116	H	1.077885	0.205009	0.791737
H117	H	1.015742	0.311822	0.857275
H118	H	0.964509	0.255766	0.728452
