data_functionalizedCrystal
_audit_creation_method	'MofGen! by Chris Wilmer'
_symmetry_space_group_name_H-M	'P1'
_symmetry_Int_Tables_number	1
_symmetry_cell_setting	triclinic
loop_
_symmetry_equiv_pos_as_xyz
  x,y,z
_cell_length_a	10.654550
_cell_length_b	14.971486
_cell_length_c	13.448316
_cell_angle_alpha	90.006811
_cell_angle_beta	90.010265
_cell_angle_gamma	84.049516
loop_
_atom_site_label
_atom_site_type_symbol
_atom_site_fract_x
_atom_site_fract_y
_atom_site_fract_z
O1	O	-1.666497	-0.125633	-0.082774
O2	O	-1.300890	-0.137602	-0.082758
O3	O	-1.493493	-0.001471	-0.082760
O4	O	-1.473895	-0.261765	-0.082773
O5	O	-1.493469	-0.001462	0.082624
O6	O	-1.300866	-0.137594	0.082626
O7	O	-1.666473	-0.125625	0.082610
Cu8	Cu	-1.483667	-0.131608	0.097718
Cu9	Cu	-1.483696	-0.131619	-0.097867
O10	O	-1.473870	-0.261756	0.082611
C11	C	-1.254090	-0.136719	-0.000064
C12	C	-1.114675	-0.134090	-0.000058
C13	C	-1.492605	0.031863	-0.000068
C14	C	-1.489978	0.131174	-0.000069
C15	C	-1.713274	-0.126508	-0.000087
C16	C	-1.852689	-0.129137	-0.000099
C17	C	-1.034329	-0.214242	-0.000077
C18	C	-0.903335	-0.211766	-0.000094
C19	C	-0.933045	-0.048979	-0.000078
C20	C	-1.064036	-0.051456	-0.000054
C21	C	-1.017175	-0.308226	-0.000090
C22	C	-0.886181	-0.305750	-0.000107
C23	C	-1.474759	-0.295090	-0.000083
C24	C	-1.477386	-0.394401	-0.000089
N25	N	-1.483656	-0.131601	0.235283
C26	C	-1.603127	0.187784	-0.000073
C27	C	-1.600651	0.281097	-0.000083
C28	C	-1.485026	0.317798	-0.000081
C29	C	-1.371868	0.261181	-0.000080
C30	C	-1.374345	0.167870	-0.000077
C31	C	-1.366714	0.455672	-0.000084
C32	C	-1.364237	0.548989	-0.000084
C33	C	-1.593020	0.568898	-0.000089
C34	C	-1.595497	0.475587	-0.000086
C35	C	-1.482339	0.418977	-0.000083
N36	N	-1.483717	-0.131619	-0.235431
C37	C	-1.568967	-0.071347	0.287323
C38	C	-1.568975	-0.071346	0.391426
C39	C	-1.483677	-0.131604	0.443487
C40	C	-1.398357	-0.191861	0.391440
C41	C	-1.398344	-0.191857	0.287339
C42	C	-1.398392	-0.191867	0.608420
C43	C	-1.398406	-0.191873	0.712529
C44	C	-1.569023	-0.071357	0.712507
C45	C	-1.569010	-0.071352	0.608406
C46	C	-1.483691	-0.131611	0.556366
H47	H	-0.891798	0.018299	-0.000089
O48	O	-1.707781	0.439889	0.000089
C49	C	-1.843293	0.346050	0.085733
C50	C	-1.716101	0.386436	0.085675
H51	H	-1.850050	0.302808	0.154911
H52	H	-1.923798	0.402500	0.085791
H53	H	-1.850155	0.302891	0.016489
H54	H	-1.709116	0.429585	0.154907
H55	H	-1.635657	0.329943	0.085565
O56	O	-0.831287	-0.339466	0.085130
C57	C	-0.706774	-0.310918	0.229076
C58	C	-0.768896	-0.272628	0.132581
H59	H	-0.656293	-0.256904	0.267458
H60	H	-0.782303	-0.333432	0.280700
H61	H	-0.635656	-0.370798	0.210466
H62	H	-0.840004	-0.212722	0.151099
H63	H	-0.693297	-0.250176	0.080985
H64	H	-1.685158	0.614995	-0.000095
H65	H	-1.274568	0.409581	-0.000084
H66	H	-1.046102	-0.344979	0.069125
H67	H	-1.052520	-0.338155	-0.071495
H68	H	-1.277724	0.291071	-0.000085
O69	O	-1.651703	-0.012669	0.236821
C70	C	-1.725077	0.142396	0.205105
C71	C	-1.631291	0.076028	0.262323
H72	H	-1.708624	0.214121	0.225718
H73	H	-1.710447	0.132155	0.121743
H74	H	-1.825665	0.130035	0.225548
H75	H	-1.530666	0.088348	0.241963
H76	H	-1.646031	0.086284	0.345671
O77	O	-1.651736	-0.012849	0.557672
C78	C	-1.822702	0.005395	0.439680
C79	C	-1.729278	-0.061024	0.497166
H80	H	-1.885401	-0.033528	0.390731
H81	H	-1.883795	0.048589	0.494576
H82	H	-1.768003	0.050304	0.391123
H83	H	-1.783876	-0.105991	0.545725
H84	H	-1.668186	-0.104155	0.442217
O85	O	-1.264350	0.112967	-0.000204
C86	C	-1.069622	0.067347	-0.085916
C87	C	-1.194134	0.129590	-0.085877
H88	H	-1.012829	0.080752	-0.155185
H89	H	-1.012623	0.080798	-0.016750
H90	H	-1.091285	-0.005641	-0.085870
H91	H	-1.172585	0.202600	-0.085958
H92	H	-1.251096	0.116062	-0.155037
O93	O	-0.836154	-0.347995	-0.082754
C94	C	-0.876591	-0.427564	-0.233251
C95	C	-0.933415	-0.379727	-0.139715
H96	H	-0.955196	-0.453248	-0.279319
H97	H	-0.826167	-0.378375	-0.279478
H98	H	-0.806315	-0.486542	-0.210160
H99	H	-1.003742	-0.320752	-0.162717
H100	H	-0.983760	-0.428974	-0.093511
O101	O	-1.651682	-0.012728	0.442016
C102	C	-1.678287	0.109224	0.559598
C103	C	-1.584477	0.042900	0.502354
H104	H	-1.623989	0.154204	0.608411
H105	H	-1.739234	0.152349	0.504546
H106	H	-1.741101	0.070168	0.608271
H107	H	-1.521581	0.081884	0.453680
H108	H	-1.523619	-0.000225	0.557461
O109	O	-1.715478	0.152178	-0.000252
C110	C	-1.911815	0.140684	-0.085918
C111	C	-1.784607	0.181047	-0.085844
H112	H	-1.967753	0.164024	-0.155101
H113	H	-1.894227	0.064263	-0.085978
H114	H	-1.967679	0.163934	-0.016678
H115	H	-1.728678	0.157866	-0.155072
H116	H	-1.802284	0.257462	-0.085732
H117	H	-1.638492	-0.022293	0.754884
O118	O	-1.315410	-0.250427	0.762949
C119	C	-1.146189	-0.369968	0.751991
C120	C	-1.240101	-0.303696	0.694767
H121	H	-1.085295	-0.413067	0.696891
H122	H	-1.083339	-0.330962	0.800718
H123	H	-1.200479	-0.414983	0.800741
H124	H	-1.185914	-0.258666	0.645963
H125	H	-1.302950	-0.342758	0.646103
O126	O	-1.315687	-0.250440	0.557757
C127	C	-1.289125	-0.372454	0.440250
C128	C	-1.382916	-0.306157	0.497548
H129	H	-1.343443	-0.417531	0.391573
H130	H	-1.226347	-0.333467	0.391466
H131	H	-1.228139	-0.415486	0.495357
H132	H	-1.443985	-0.263109	0.442512
H133	H	-1.445606	-0.345198	0.546347
H134	H	-1.328899	-0.240921	0.433835
H135	H	-1.692789	0.327185	-0.000084
H136	H	-1.129450	0.013812	-0.000024
O137	O	-1.315601	-0.250514	0.236828
C138	C	-1.242178	-0.405556	0.205005
C139	C	-1.335981	-0.339228	0.262250
H140	H	-1.258605	-0.477295	0.225553
H141	H	-1.256816	-0.395279	0.121647
H142	H	-1.141596	-0.393187	0.225488
H143	H	-1.436600	-0.351557	0.241851
H144	H	-1.321233	-0.349521	0.345594
H145	H	-1.270084	0.578868	-0.000067
