data_functionalizedCrystal
_audit_creation_method	'MofGen! by Chris Wilmer'
_symmetry_space_group_name_H-M	'P1'
_symmetry_Int_Tables_number	1
_symmetry_cell_setting	triclinic
loop_
_symmetry_equiv_pos_as_xyz
  x,y,z
_cell_length_a	17.699104
_cell_length_b	12.811415
_cell_length_c	16.176319
_cell_angle_alpha	84.562354
_cell_angle_beta	89.991696
_cell_angle_gamma	83.669063
loop_
_atom_site_label
_atom_site_type_symbol
_atom_site_fract_x
_atom_site_fract_y
_atom_site_fract_z
O1	O	1.004664	0.132836	-0.078720
O2	O	0.784365	0.150082	-0.080011
O3	O	0.900056	-0.011347	-0.067906
O4	O	0.888973	0.294266	-0.090825
O5	O	0.900040	-0.011358	0.069588
O6	O	0.784349	0.150072	0.057483
O7	O	1.004648	0.132826	0.058774
Cu8	Cu	0.894497	0.141448	0.070683
Cu9	Cu	0.894516	0.141460	-0.091920
O10	O	0.888957	0.294256	0.046669
C11	C	0.756158	0.149455	-0.011217
C12	C	0.672132	0.147590	-0.011076
C13	C	0.147639	0.231828	-0.017402
C14	C	0.226590	0.233574	-0.017536
C15	C	0.274783	0.138809	-0.010429
C16	C	0.244021	0.042291	-0.003197
C17	C	0.165070	0.040546	-0.003069
C18	C	0.562418	0.049326	-0.003711
C19	C	0.641373	0.051079	-0.003836
C20	C	0.623938	0.242355	-0.018177
C21	C	0.544988	0.240610	-0.018050
C22	C	0.514232	0.144093	-0.010822
C23	C	0.428624	0.142200	-0.010679
C24	C	0.360390	0.140700	-0.010566
C25	C	0.899427	-0.050455	0.003771
C26	C	0.897566	-0.166969	0.012504
C27	C	0.894073	-0.385889	-0.121000
C28	C	0.892325	-0.495364	-0.112799
C29	C	0.892316	-0.495397	0.037106
C30	C	0.894064	-0.385921	0.028905
C31	C	0.894944	-0.331172	-0.050151
C32	C	0.896698	-0.221695	-0.058351
C33	C	0.896683	-0.221728	0.091553
C34	C	0.894934	-0.331204	0.099754
C35	C	1.032856	0.133453	-0.010022
C36	C	1.116881	0.135318	-0.010168
C37	C	0.889587	0.333364	-0.025011
C38	C	0.891447	0.449878	-0.033749
N39	N	0.894489	0.141439	0.185048
N40	N	0.894530	0.141461	-0.206285
C41	C	0.945733	0.069987	0.233670
C42	C	0.945737	0.069986	0.320218
C43	C	0.894500	0.141443	0.358141
C44	C	0.843251	0.212898	0.309513
C45	C	0.843244	0.212893	0.222967
C46	C	0.843277	0.212917	0.658539
C47	C	0.843289	0.212919	0.745091
C48	C	0.945770	0.070010	0.755790
C49	C	0.945763	0.070006	0.669244
C50	C	0.894511	0.141457	0.620624
C51	C	0.894507	0.141456	0.526780
C52	C	0.894508	0.141449	0.451983
H53	H	0.680611	-0.026095	0.001949
H54	H	0.897416	-0.177120	-0.122722
H55	H	0.894797	-0.341312	-0.185370
H56	H	0.891613	-0.539911	-0.170492
H57	H	0.801563	0.271109	0.775966
H58	H	0.891593	-0.539992	0.101469
H59	H	0.108405	0.308998	-0.023183
H60	H	0.251628	0.312163	-0.023434
H61	H	0.505752	0.317777	-0.023833
H62	H	0.894215	-0.375795	0.164119
H63	H	0.648988	0.320944	-0.024066
H64	H	0.987499	0.011827	0.795386
H65	H	0.897394	-0.177166	0.149244
H66	H	0.801548	0.271097	0.618959
H67	H	0.987459	0.011803	0.202799
H68	H	0.537387	-0.029263	0.002177
H69	H	0.987462	0.011804	0.359806
H70	H	0.801529	0.271076	0.340395
H71	H	0.987487	0.011823	0.638370
H72	H	0.283266	-0.034868	0.002585
H73	H	0.140030	-0.038042	0.002820
H74	H	0.801516	0.271075	0.183380
