data_functionalizedCrystal
_audit_creation_method	'MofGen! by Chris Wilmer'
_symmetry_space_group_name_H-M	'P1'
_symmetry_Int_Tables_number	1
_symmetry_cell_setting	triclinic
loop_
_symmetry_equiv_pos_as_xyz
  x,y,z
_cell_length_a	6.817900
_cell_length_b	10.943632
_cell_length_c	10.943624
_cell_angle_alpha	91.771060
_cell_angle_beta	108.838799
_cell_angle_gamma	108.838880
loop_
_atom_site_label
_atom_site_type_symbol
_atom_site_fract_x
_atom_site_fract_y
_atom_site_fract_z
V1	V	-4.115495	-0.178596	-0.402520
O2	O	-4.073204	0.008617	-0.394890
O3	O	-4.093445	-0.354159	-0.399737
O4	O	-4.093458	-0.175834	-0.578087
O5	O	-4.073192	-0.170943	-0.215305
V6	V	-4.592293	-0.156205	-0.380131
O7	O	-4.391506	-0.227713	-0.451632
O8	O	-4.766479	-0.107088	-0.331020
O9	O	-4.391136	0.019358	-0.382915
O10	O	-4.751980	-0.343418	-0.387762
O11	O	-4.751993	-0.163858	-0.567347
O12	O	-4.391123	-0.158967	-0.204564
C13	C	-3.944003	-0.396958	-0.393379
C14	C	-4.007438	-0.540484	-0.392273
C15	C	-3.852284	-0.617637	-0.384920
C16	C	-3.931120	-0.690292	-0.280695
C17	C	-4.041658	-0.723567	-0.494542
C18	C	-4.085393	-0.611235	-0.287974
C19	C	-4.195950	-0.644516	-0.501916
C20	C	-4.274895	-0.717134	-0.397670
C21	C	-3.944018	-0.169484	-0.620881
C22	C	-4.007457	-0.168388	-0.764408
C23	C	-3.852287	-0.161001	-0.841556
C24	C	-4.041646	-0.270645	-0.947527
C25	C	-3.931164	-0.056801	-0.914178
C26	C	-4.196026	-0.278134	-0.868502
C27	C	-4.085465	-0.064194	-0.835129
C28	C	-4.274960	-0.173869	-0.941070
C29	C	-4.203920	0.062151	-0.389269
C30	C	-4.119726	0.205675	-0.390383
C31	C	-4.203905	-0.165321	-0.161764
C32	C	-4.119703	-0.166411	-0.018236
H33	H	-3.672971	-0.574154	-0.379408
C34	C	-3.780741	0.069575	-0.942186
C35	C	-3.528934	0.100638	-0.896652
C36	C	-3.378496	0.227007	-0.924658
C37	C	-3.479865	0.322313	-0.998198
C38	C	-3.731685	0.291253	-1.043737
C39	C	-3.882123	0.164884	-1.015731
H40	H	-3.453883	0.030084	-0.842210
H41	H	-3.192082	0.249999	-0.890947
H42	H	-3.368502	0.415858	-1.018930
H43	H	-3.806736	0.361806	-1.098179
H44	H	-4.068537	0.141892	-1.049442
H45	H	-4.023738	-0.772480	-0.581812
H46	H	-3.819813	-0.711058	-0.187152
C47	C	-4.346500	-0.404650	-0.840742
C48	C	-4.598552	-0.436377	-0.887428
C49	C	-4.749013	-0.562892	-0.859666
C50	C	-4.647423	-0.657680	-0.785218
C51	C	-4.395358	-0.625956	-0.738528
C52	C	-4.244896	-0.499440	-0.766290
H53	H	-4.673767	-0.366206	-0.942543
H54	H	-4.935609	-0.586376	-0.894230
H55	H	-4.758803	-0.751334	-0.764667
H56	H	-4.320143	-0.696126	-0.683413
H57	H	-4.058301	-0.475956	-0.731726
H58	H	-4.103227	-0.562474	-0.200587
H59	H	-4.023784	-0.357924	-0.996461
H60	H	-4.454151	-0.760358	-0.403023
H61	H	-4.454274	-0.179336	-0.984314
H62	H	-3.673087	-0.155706	-0.798109
H63	H	-4.307176	-0.623718	-0.595459
H64	H	-4.103242	0.023090	-0.786160
