data_functionalizedCrystal
_audit_creation_method	'MofGen! by Chris Wilmer'
_symmetry_space_group_name_H-M	'P1'
_symmetry_Int_Tables_number	1
_symmetry_cell_setting	triclinic
loop_
_symmetry_equiv_pos_as_xyz
  x,y,z
_cell_length_a	14.044220
_cell_length_b	16.992694
_cell_length_c	15.455446
_cell_angle_alpha	92.849065
_cell_angle_beta	92.902385
_cell_angle_gamma	88.071450
loop_
_atom_site_label
_atom_site_type_symbol
_atom_site_fract_x
_atom_site_fract_y
_atom_site_fract_z
O1	O	0.198167	-1.057673	-0.072023
O2	O	0.698167	-0.557673	0.427977
O3	O	0.195949	-0.829234	-0.072049
O4	O	0.695949	-0.329234	0.427951
O5	O	0.058814	-0.940024	-0.072028
O6	O	0.558814	-0.440024	0.427972
O7	O	0.335302	-0.946883	-0.072044
O8	O	0.835302	-0.446883	0.427956
O9	O	0.066606	-0.933706	0.072230
O10	O	0.566606	-0.433706	0.572230
O11	O	0.203741	-0.822916	0.072209
O12	O	0.703741	-0.322916	0.572209
O13	O	0.205959	-1.051355	0.072235
O14	O	0.705959	-0.551355	0.572235
Cu15	Cu	0.205562	-0.936558	0.085394
Cu16	Cu	0.705562	-0.436558	0.585394
Cu17	Cu	0.196347	-0.944030	-0.085208
Cu18	Cu	0.696347	-0.444030	0.414792
O19	O	0.343094	-0.940564	0.072214
O20	O	0.843094	-0.440564	0.572214
C21	C	0.027168	-0.933863	0.000101
C22	C	0.527168	-0.433863	0.500101
C23	C	-0.078736	-0.924909	0.000101
C24	C	0.421264	-0.424909	0.500101
C25	C	0.196993	-0.796663	0.000077
C26	C	0.696993	-0.296663	0.500077
C27	C	0.188484	-0.709024	0.000068
C28	C	0.688484	-0.209024	0.500068
C29	C	0.204915	-1.083926	0.000107
C30	C	0.704915	-0.583926	0.500107
C31	C	0.213424	-1.171565	0.000111
C32	C	0.713424	-0.671565	0.500111
C33	C	-0.272638	-0.908540	0.000087
C34	C	0.227362	-0.408540	0.500087
C35	C	-0.325460	-0.972046	0.000092
C36	C	0.174540	-0.472046	0.500092
C37	C	-0.433354	-0.962938	0.000084
C38	C	0.066646	-0.462938	0.500084
C39	C	-0.164734	-0.917647	0.000095
C40	C	0.335266	-0.417647	0.500095
C41	C	0.374740	-0.946726	0.000083
C42	C	0.874740	-0.446726	0.500083
C43	C	0.480644	-0.955680	0.000077
C44	C	0.980644	-0.455680	0.500077
C45	C	0.270581	-0.664526	0.000063
C46	C	0.770581	-0.164526	0.500063
C47	C	0.262581	-0.582179	0.000076
C48	C	0.762581	-0.082179	0.500076
C49	C	0.172483	-0.544332	0.000086
C50	C	0.672483	-0.044332	0.500086
C51	C	0.090381	-0.588836	0.000093
C52	C	0.590381	-0.088836	0.500093
C53	C	0.098382	-0.671181	0.000087
C54	C	0.598382	-0.171181	0.500087
C55	C	0.139322	-0.298414	0.000112
C56	C	0.639322	0.201586	0.500112
C57	C	0.131327	-0.216063	0.000115
C58	C	0.631327	0.283937	0.500115
C59	C	0.303528	-0.209412	0.000100
C60	C	0.803528	0.290588	0.500100
C61	C	0.311521	-0.291759	0.000088
C62	C	0.811521	0.208241	0.500088
C63	C	0.229419	-0.336255	0.000099
C64	C	0.729419	0.163745	0.500099
N65	N	0.164304	-0.460161	0.000096
N66	N	0.664304	0.039839	0.500096
N67	N	0.237599	-0.420425	0.000096
N68	N	0.737599	0.079575	0.500096
N69	N	0.189859	-0.949286	-0.205200
N70	N	0.689859	-0.449286	0.294800
C71	C	0.153916	-0.978478	-0.749188
C72	C	0.653916	-0.478478	-0.249188
C73	C	0.158828	-0.974482	-0.658383
C74	C	0.658828	-0.474482	-0.158383
C75	C	0.221872	-0.923320	-0.613005
C76	C	0.721872	-0.423320	-0.113005
C77	C	0.280001	-0.876145	-0.658437
C78	C	0.780001	-0.376145	-0.158437
C79	C	0.275084	-0.880138	-0.749241
C80	C	0.775084	-0.380138	-0.249241
C81	C	0.243070	-0.906104	-0.341435
C82	C	0.743070	-0.406104	0.158565
C83	C	0.247985	-0.902117	-0.250625
C84	C	0.747985	-0.402117	0.249375
C85	C	0.126810	-1.000452	-0.250578
C86	C	0.626810	-0.500452	0.249422
C87	C	0.121903	-1.004444	-0.341383
C88	C	0.621903	-0.504444	0.158617
C89	C	0.180028	-0.957266	-0.386807
C90	C	0.680028	-0.457266	0.113193
N91	N	0.226896	-0.919236	-0.520188
N92	N	0.726896	-0.419236	-0.020188
N93	N	0.174998	-0.961347	-0.479623
N94	N	0.674998	-0.461347	0.020377
N95	N	0.212043	-0.931309	0.205386
N96	N	0.712043	-0.431309	0.705386
H97	H	-0.308444	-0.847335	0.000078
H98	H	0.191556	-0.347335	0.500078
O99	O	0.059609	-0.341662	0.000265
O100	O	0.559609	0.158338	0.500265
C101	C	-0.027238	-0.435269	0.074967
C102	C	0.472762	0.064731	0.574967
C103	C	0.063074	-0.386314	0.074915
C104	C	0.563074	0.113686	0.574915
H105	H	-0.024458	-0.471395	0.135305
H106	H	0.475542	0.028605	0.635305
H107	H	-0.093039	-0.394110	0.075025
H108	H	0.406961	0.105890	0.575025
H109	H	-0.031046	-0.476588	0.014564
H110	H	0.468954	0.023412	0.514564
H111	H	0.066974	-0.344991	0.135306
H112	H	0.566974	0.155009	0.635306
H113	H	0.128831	-0.427519	0.074811
H114	H	0.628831	0.072481	0.574811
H115	H	0.331330	-0.834484	-0.621485
H116	H	0.831330	-0.334484	-0.121485
O117	O	0.092521	-1.028086	-0.793206
O118	O	0.592521	-0.528086	-0.293206
C119	C	-0.071075	-1.064164	-0.820842
C120	C	0.428925	-0.564164	-0.320842
C121	C	-0.001638	-1.007920	-0.770970
C122	C	0.498362	-0.507920	-0.270970
H123	H	-0.147215	-1.047890	-0.802869
H124	H	0.352785	-0.547890	-0.302869
H125	H	-0.064718	-1.058929	-0.893562
H126	H	0.435282	-0.558929	-0.393562
H127	H	-0.052683	-1.127356	-0.802971
H128	H	0.447317	-0.627356	-0.302971
H129	H	-0.019985	-0.944704	-0.788769
H130	H	0.480015	-0.444704	-0.288769
H131	H	-0.008008	-1.013223	-0.698263
H132	H	0.491992	-0.513223	-0.198263
H133	H	-0.289655	-1.033258	0.000040
H134	H	0.210345	-0.533258	0.500040
H135	H	0.343947	-0.695334	0.000054
H136	H	0.843947	-0.195334	0.500054
H137	H	0.290401	-0.867691	-0.378412
H138	H	0.790401	-0.367691	0.121588
O139	O	0.002846	-0.552105	0.000255
O140	O	0.502846	-0.052105	0.500255
C141	C	-0.142769	-0.529377	0.074971
C142	C	0.357231	-0.029377	0.574971
C143	C	-0.043649	-0.571002	0.074910
C144	C	0.456351	-0.071002	0.574910
H145	H	-0.180397	-0.544652	0.135313
H146	H	0.319603	-0.044652	0.635313
H147	H	-0.134444	-0.462869	0.075026
H148	H	0.365556	0.037131	0.575026
H149	H	-0.186876	-0.549838	0.014573
H150	H	0.313124	-0.049838	0.514573
H151	H	0.000511	-0.550605	0.135298
H152	H	0.500511	-0.050605	0.635298
H153	H	-0.052045	-0.637503	0.074809
H154	H	0.447955	-0.137503	0.574809
H155	H	0.329433	-0.545952	0.000072
H156	H	0.829433	-0.045952	0.500072
O157	O	0.399118	-0.328393	0.000121
O158	O	0.899118	0.171607	0.500121
C159	C	0.569070	-0.313105	0.000059
C160	C	1.069070	0.186895	0.500059
C161	C	0.469928	-0.271515	0.000045
C162	C	0.969928	0.228485	0.500045
H163	H	0.626346	-0.267138	-0.000021
H164	H	1.126346	0.232862	0.499979
H165	H	0.580446	-0.348830	0.060442
H166	H	1.080446	0.151170	0.560442
H167	H	0.573809	-0.354149	-0.060302
H168	H	1.073809	0.145851	0.439698
H169	H	0.465119	-0.230433	0.060365
H170	H	0.965119	0.269567	0.560365
H171	H	0.458595	-0.235839	-0.060377
H172	H	0.958595	0.264161	0.439623
H173	H	0.322416	-0.841726	-0.786226
H174	H	0.822416	-0.341726	-0.286226
H175	H	0.370371	-0.173174	0.000092
H176	H	0.870371	0.326826	0.500092
H177	H	0.031530	-0.707411	0.000090
H178	H	0.531530	-0.207411	0.500090
O179	O	0.043730	-0.179421	0.000163
O180	O	0.543730	0.320579	0.500163
C181	C	-0.126229	-0.194706	0.000123
C182	C	0.373771	0.305294	0.500123
C183	C	-0.027091	-0.236303	0.000095
C184	C	0.472909	0.263697	0.500095
H185	H	-0.183516	-0.240677	0.000049
H186	H	0.316484	0.259323	0.500049
H187	H	-0.131077	-0.153703	0.060508
H188	H	0.368923	0.346297	0.560508
H189	H	-0.137487	-0.158937	-0.060236
H190	H	0.362513	0.341063	0.439764
H191	H	-0.015768	-0.272114	0.060413
H192	H	0.484232	0.227886	0.560413
H193	H	-0.022290	-0.277259	-0.060330
H194	H	0.477710	0.222741	0.439670
O195	O	0.102265	-1.020191	-0.614223
O196	O	0.602265	-0.520191	-0.114223
C197	C	-0.020988	-1.023581	-0.511650
C198	C	0.479012	-0.523581	-0.011650
C199	C	0.043000	-0.971718	-0.561618
C200	C	0.543000	-0.471718	-0.061618
H201	H	-0.068905	-0.984412	-0.469093
H202	H	0.431095	-0.484412	0.030907
H203	H	-0.066951	-1.060818	-0.559646
H204	H	0.433049	-0.560818	-0.059646
H205	H	0.025578	-1.063918	-0.469170
H206	H	0.525578	-0.563918	0.030830
H207	H	-0.003492	-0.931335	-0.604099
H208	H	0.496508	-0.431335	-0.104099
H209	H	0.088969	-0.934534	-0.513575
H210	H	0.588969	-0.434534	-0.013575
O211	O	0.060575	-1.054157	-0.385326
O212	O	0.560575	-0.554157	0.114674
C213	C	-0.059056	-1.151304	-0.375693
C214	C	0.440944	-0.651304	0.124307
C215	C	0.010335	-1.095022	-0.325820
C216	C	0.510335	-0.595022	0.174180
H217	H	-0.099679	-1.184371	-0.327604
H218	H	0.400321	-0.684371	0.172396
H219	H	-0.111706	-1.115921	-0.418184
H220	H	0.388294	-0.615921	0.081816
H221	H	-0.017098	-1.195330	-0.418223
H222	H	0.482902	-0.695330	0.081777
H223	H	-0.031543	-1.050985	-0.283243
H224	H	0.468457	-0.550985	0.216757
H225	H	0.062985	-1.130456	-0.283383
H226	H	0.562985	-0.630456	0.216617
H227	H	0.079486	-1.038861	-0.213585
H228	H	0.579486	-0.538861	0.286415
O229	O	0.309242	-0.852338	-0.206678
O230	O	0.809242	-0.352338	0.293322
C231	C	0.428931	-0.755238	-0.216302
C232	C	0.928931	-0.255238	0.283698
C233	C	0.359592	-0.811562	-0.266180
C234	C	0.859592	-0.311562	0.233820
H235	H	0.469672	-0.722267	-0.264388
H236	H	0.969672	-0.222267	0.235612
H237	H	0.387018	-0.711137	-0.173821
H238	H	0.887018	-0.211137	0.326179
H239	H	0.481485	-0.790660	-0.173762
H240	H	0.981485	-0.290660	0.326238
H241	H	0.307023	-0.776205	-0.308768
H242	H	0.807023	-0.276205	0.191232
H243	H	0.401567	-0.855663	-0.308607
H244	H	0.901567	-0.355663	0.191393
