data_functionalizedCrystal
_audit_creation_method	'MofGen! by Chris Wilmer'
_symmetry_space_group_name_H-M	'P1'
_symmetry_Int_Tables_number	1
_symmetry_cell_setting	triclinic
loop_
_symmetry_equiv_pos_as_xyz
  x,y,z
_cell_length_a	11.026607
_cell_length_b	10.654550
_cell_length_c	9.730223
_cell_angle_alpha	89.997176
_cell_angle_beta	89.996882
_cell_angle_gamma	96.535473
loop_
_atom_site_label
_atom_site_type_symbol
_atom_site_fract_x
_atom_site_fract_y
_atom_site_fract_z
O1	O	-1.614596	-0.526876	0.114298
O2	O	-1.260785	-0.466880	0.114299
O3	O	-1.445825	-0.315905	0.114289
O4	O	-1.429556	-0.677852	0.114307
O5	O	-1.445812	-0.315902	-0.114290
O6	O	-1.260772	-0.466877	-0.114281
O7	O	-1.614583	-0.526873	-0.114282
Zn8	Zn	-1.437675	-0.496875	-0.150574
Zn9	Zn	-1.437693	-0.496879	0.150590
O10	O	-1.429543	-0.677849	-0.114273
C11	C	-1.215474	-0.455811	0.000009
C12	C	-1.080483	-0.422816	0.000009
C13	C	-1.444624	-0.268846	0.000000
C14	C	-1.441050	-0.128627	0.000002
C15	C	-1.659894	-0.537943	0.000011
C16	C	-1.794885	-0.570937	0.000020
C17	C	-1.007444	-0.513920	0.000014
C18	C	-0.867923	-0.479820	0.000014
C19	C	-1.430744	-0.724907	0.000019
C20	C	-1.434318	-0.865126	0.000026
N21	N	-1.437672	-0.496873	-0.356110
C22	C	-1.549999	-0.072791	0.000003
C23	C	-1.546633	0.058961	0.000019
C24	C	-1.325361	0.079029	0.000030
C25	C	-1.328728	-0.052720	0.000023
C26	C	-1.512051	-0.589901	-0.428027
C27	C	-1.512071	-0.589898	-0.571910
C28	C	-1.363323	-0.403835	-0.571946
C29	C	-1.363311	-0.403834	-0.428066
N30	N	-1.437705	-0.496872	0.356127
H31	H	-1.048204	-0.617161	0.000011
H32	H	-1.240003	-0.098182	0.000027
C33	C	-1.025424	-0.283338	0.000002
N34	N	-0.983955	-0.178280	-0.000001
H35	H	-1.635351	0.104416	0.000023
C36	C	-1.593862	-0.692238	-0.348881
N37	N	-1.655489	-0.769318	-0.289272
H38	H	-0.827168	-0.376572	0.000045
H39	H	-1.302780	-0.328087	-0.630550
H40	H	-1.572639	-0.665649	-0.630459
C41	C	-0.849936	-0.710423	0.000027
N42	N	-0.891401	-0.815482	0.000036
H43	H	-1.641459	-0.134591	-0.000011
C44	C	-1.201812	0.162538	0.000026
N45	N	-1.108753	0.225436	0.000012
C46	C	-1.281483	-0.301492	-0.348952
N47	N	-1.219854	-0.224410	-0.289363
