data_functionalizedCrystal
_audit_creation_method	'MofGen! by Chris Wilmer'
_symmetry_space_group_name_H-M	'P1'
_symmetry_Int_Tables_number	1
_symmetry_cell_setting	triclinic
loop_
_symmetry_equiv_pos_as_xyz
  x,y,z
_cell_length_a	21.395364
_cell_length_b	17.640280
_cell_length_c	21.395356
_cell_angle_alpha	101.220420
_cell_angle_beta	90.016560
_cell_angle_gamma	78.798629
loop_
_atom_site_label
_atom_site_type_symbol
_atom_site_fract_x
_atom_site_fract_y
_atom_site_fract_z
Zn1	Zn	1.008329	-0.314732	0.303897
Zn2	Zn	1.258329	-0.064732	0.553897
Zn3	Zn	1.508329	0.185268	0.803897
Zn4	Zn	1.758329	0.435268	1.053897
Zn5	Zn	1.029462	-0.446900	0.177969
Zn6	Zn	1.279462	-0.196900	0.427969
Zn7	Zn	1.529462	0.053100	0.677969
Zn8	Zn	1.779462	0.303100	0.927969
Zn9	Zn	0.903561	-0.314745	0.199132
Zn10	Zn	1.153561	-0.064745	0.449132
Zn11	Zn	1.403561	0.185255	0.699132
Zn12	Zn	1.653561	0.435255	0.949132
Zn13	Zn	0.924722	-0.446860	0.282715
Zn14	Zn	1.174722	-0.196860	0.532715
Zn15	Zn	1.424722	0.053140	0.782715
Zn16	Zn	1.674722	0.303140	1.032715
O17	O	0.966519	-0.380809	0.240928
O18	O	1.216519	-0.130809	0.490928
O19	O	1.466519	0.119191	0.740928
O20	O	1.716519	0.369191	0.990928
O21	O	1.098812	-0.332276	0.287201
O22	O	1.348812	-0.082276	0.537201
O23	O	1.598812	0.167724	0.787201
O24	O	1.848812	0.417724	1.037201
O25	O	1.012749	-0.429392	0.093094
O26	O	1.262749	-0.179392	0.343094
O27	O	1.512749	0.070608	0.593094
O28	O	1.762749	0.320608	0.843094
O29	O	0.899758	-0.204139	0.230751
O30	O	1.149758	0.045861	0.480751
O31	O	1.399758	0.295861	0.730751
O32	O	1.649758	0.545861	0.980751
O33	O	1.114338	-0.429379	0.194681
O34	O	1.364338	-0.179379	0.444681
O35	O	1.614338	0.070621	0.694681
O36	O	1.864338	0.320621	0.944681
O37	O	0.976731	-0.204130	0.307721
O38	O	1.226731	0.045870	0.557721
O39	O	1.476731	0.295870	0.807721
O40	O	1.726731	0.545870	1.057721
O41	O	0.920250	-0.332298	0.108643
O42	O	1.170250	-0.082298	0.358643
O43	O	1.420250	0.167702	0.608643
O44	O	1.670250	0.417702	0.858643
O45	O	0.818688	-0.332258	0.210211
O46	O	1.068688	-0.082258	0.460211
O47	O	1.318688	0.167742	0.710211
O48	O	1.568688	0.417742	0.960211
O49	O	0.935825	-0.429310	0.373206
O50	O	1.185825	-0.179310	0.623206
O51	O	1.435825	0.070690	0.873206
O52	O	1.685825	0.320690	1.123206
O53	O	0.834235	-0.429323	0.271619
O54	O	1.084235	-0.179323	0.521619
O55	O	1.334235	0.070677	0.771619
O56	O	1.584235	0.320677	1.021619
O57	O	0.997250	-0.332237	0.388769
O58	O	1.247250	-0.082237	0.638769
O59	O	1.497250	0.167763	0.888769
O60	O	1.747250	0.417763	1.138769
O61	O	1.033268	-0.557498	0.174142
O62	O	1.283268	-0.307498	0.424142
O63	O	1.533268	-0.057498	0.674142
O64	O	1.783268	0.192502	0.924142
O65	O	0.956317	-0.557468	0.251098
O66	O	1.206317	-0.307468	0.501098
O67	O	1.456317	-0.057468	0.751098
O68	O	1.706317	0.192532	1.001098
C69	C	0.803728	-0.380788	0.240913
C70	C	1.053728	-0.130788	0.490913
C71	C	1.303728	0.119212	0.740913
C72	C	1.553728	0.369212	0.990913
C73	C	0.734088	-0.380798	0.240919
C74	C	0.984088	-0.130798	0.490919
C75	C	1.234088	0.119202	0.740919
C76	C	1.484088	0.369202	0.990919
C77	C	0.240420	-0.431443	0.272850
C78	C	0.490420	-0.181443	0.522850
C79	C	0.740420	0.068557	0.772850
C80	C	0.990420	0.318557	1.022850
C81	C	0.305856	-0.431443	0.272843
C82	C	0.555856	-0.181443	0.522843
C83	C	0.805856	0.068557	0.772843
C84	C	1.055856	0.318557	1.022843
C85	C	0.330454	-0.380826	0.240945
C86	C	0.580454	-0.130826	0.490945
C87	C	0.830454	0.119174	0.740945
C88	C	1.080454	0.369174	0.990945
C89	C	0.289614	-0.330220	0.209038
C90	C	0.539614	-0.080220	0.459038
C91	C	0.789614	0.169780	0.709038
C92	C	1.039614	0.419780	0.959038
C93	C	0.224181	-0.330227	0.209040
C94	C	0.474181	-0.080227	0.459040
C95	C	0.724181	0.169773	0.709040
C96	C	0.974181	0.419773	0.959040
C97	C	0.422710	-0.309598	0.247493
C98	C	0.672710	-0.059598	0.497493
C99	C	0.922710	0.190402	0.747493
C100	C	1.172710	0.440402	0.997493
C101	C	0.488142	-0.309589	0.247495
C102	C	0.738142	-0.059589	0.497495
C103	C	0.988142	0.190411	0.747495
C104	C	1.238142	0.440411	0.997495
C105	C	0.532272	-0.380806	0.240935
C106	C	0.782272	-0.130806	0.490935
C107	C	1.032272	0.119194	0.740935
C108	C	1.282272	0.369194	0.990935
C109	C	0.510962	-0.452032	0.234385
C110	C	0.760962	-0.202032	0.484385
C111	C	1.010962	0.047968	0.734385
C112	C	1.260962	0.297968	0.984385
C113	C	0.445529	-0.452039	0.234387
C114	C	0.695529	-0.202039	0.484387
C115	C	0.945529	0.047961	0.734387
C116	C	1.195529	0.297961	0.984387
C117	C	0.401405	-0.380814	0.240939
C118	C	0.651405	-0.130814	0.490939
C119	C	0.901405	0.119186	0.740939
C120	C	1.151405	0.369186	0.990939
C121	C	0.644057	-0.431413	0.272829
C122	C	0.894057	-0.181413	0.522829
C123	C	1.144057	0.068587	0.772829
C124	C	1.394057	0.318587	1.022829
C125	C	0.709494	-0.431414	0.272818
C126	C	0.959494	-0.181414	0.522818
C127	C	1.209494	0.068586	0.772818
C128	C	1.459494	0.318586	1.022818
C129	C	0.693249	-0.330184	0.209017
C130	C	0.943249	-0.080184	0.459017
C131	C	1.193249	0.169816	0.709017
C132	C	1.443249	0.419816	0.959017
C133	C	0.627815	-0.330190	0.209024
C134	C	0.877815	-0.080190	0.459024
C135	C	1.127815	0.169810	0.709024
C136	C	1.377815	0.419810	0.959024
C137	C	0.603223	-0.380803	0.240933
C138	C	0.853223	-0.130803	0.490933
C139	C	1.103223	0.119197	0.740933
C140	C	1.353223	0.369197	0.990933
C141	C	0.999399	-0.586162	0.208039
C142	C	1.249399	-0.336162	0.458039
C143	C	1.499399	-0.086162	0.708039
C144	C	1.749399	0.163838	0.958039
C145	C	1.013523	-0.674012	0.193990
C146	C	1.263523	-0.424012	0.443990
C147	C	1.513523	-0.174012	0.693990
C148	C	1.763523	0.075988	0.943990
C149	C	0.859480	-0.963002	0.347886
C150	C	1.109480	-0.713002	0.597886
C151	C	1.359480	-0.463002	0.847886
C152	C	1.609480	-0.213002	1.097886
C153	C	0.872752	-1.045551	0.334665
C154	C	1.122752	-0.795551	0.584665
C155	C	1.372752	-0.545551	0.834665
C156	C	1.622752	-0.295551	1.084665
C157	C	0.952932	-1.045517	0.254611
C158	C	1.202932	-0.795517	0.504611
C159	C	1.452932	-0.545517	0.754611
C160	C	1.702932	-0.295517	1.004611
C161	C	0.939668	-0.962966	0.267828
C162	C	1.189668	-0.712966	0.517828
C163	C	1.439668	-0.462966	0.767828
C164	C	1.689668	-0.212966	1.017828
C165	C	0.892941	-0.921715	0.314466
C166	C	1.142941	-0.671715	0.564466
C167	C	1.392941	-0.421715	0.814466
C168	C	1.642941	-0.171715	1.064466
C169	C	0.973130	-0.921679	0.234407
C170	C	1.223130	-0.671679	0.484407
C171	C	1.473130	-0.421679	0.734407
C172	C	1.723130	-0.171679	0.984407
C173	C	0.959864	-0.839136	0.247621
C174	C	1.209864	-0.589136	0.497621
C175	C	1.459864	-0.339136	0.747621
C176	C	1.709864	-0.089136	0.997621
C177	C	0.913138	-0.797879	0.294255
C178	C	1.163138	-0.547879	0.544255
C179	C	1.413138	-0.297879	0.794255
C180	C	1.663138	-0.047879	1.044255
C181	C	0.879676	-0.839172	0.327679
C182	C	1.129676	-0.589172	0.577679
C183	C	1.379676	-0.339172	0.827679
C184	C	1.629676	-0.089172	1.077679
C185	C	1.019853	-0.962931	0.187766
C186	C	1.269853	-0.712931	0.437766
C187	C	1.519853	-0.462931	0.687766
C188	C	1.769853	-0.212931	0.937766
C189	C	1.053315	-0.921645	0.154346
C190	C	1.303315	-0.671645	0.404346
C191	C	1.553315	-0.421645	0.654346
C192	C	1.803315	-0.171645	0.904346
C193	C	1.040053	-0.839099	0.167562
C194	C	1.290053	-0.589099	0.417562
C195	C	1.540053	-0.339099	0.667562
C196	C	1.790053	-0.089099	0.917562
C197	C	0.993327	-0.797843	0.214197
C198	C	1.243327	-0.547843	0.464197
C199	C	1.493327	-0.297843	0.714197
C200	C	1.743327	-0.047843	0.964197
C201	C	1.073515	-0.797807	0.134138
C202	C	1.323515	-0.547807	0.384138
C203	C	1.573515	-0.297807	0.634138
C204	C	1.823515	-0.047807	0.884138
C205	C	1.060250	-0.715263	0.147352
C206	C	1.310250	-0.465263	0.397352
C207	C	1.560250	-0.215263	0.647352
C208	C	1.810250	0.034737	0.897352
C209	C	0.980061	-0.715299	0.227410
C210	C	1.230061	-0.465299	0.477410
C211	C	1.480061	-0.215299	0.727410
C212	C	1.730061	0.034701	0.977410
C213	C	1.129945	-0.380831	0.240943
C214	C	1.379945	-0.130831	0.490943
C215	C	1.629945	0.119169	0.740943
C216	C	1.879945	0.369169	0.990943
C217	C	1.199588	-0.380840	0.240949
C218	C	1.449588	-0.130840	0.490949
C219	C	1.699588	0.119160	0.740949
C220	C	1.949588	0.369160	0.990949
C221	C	0.966541	-0.380768	0.404358
C222	C	1.216541	-0.130768	0.654358
C223	C	1.466541	0.119232	0.904358
C224	C	1.716541	0.369232	1.154358
C225	C	0.966550	-0.380750	0.474002
C226	C	1.216550	-0.130750	0.724002
C227	C	1.466550	0.119250	0.974002
C228	C	1.716550	0.369250	1.224002
C229	C	0.933527	-0.174655	0.273960
C230	C	1.183527	0.075345	0.523960
C231	C	1.433527	0.325345	0.773960
C232	C	1.683527	0.575345	1.023960
C233	C	0.919468	-0.086804	0.288036
C234	C	1.169468	0.163196	0.538036
C235	C	1.419468	0.413196	0.788036
C236	C	1.669468	0.663196	1.038036
C237	C	0.966524	-0.380793	0.078143
C238	C	1.216524	-0.130793	0.328143
C239	C	1.466524	0.119207	0.578143
C240	C	1.716524	0.369207	0.828143
C241	C	0.966600	-0.380588	0.008535
C242	C	1.216600	-0.130588	0.258535
C243	C	1.466600	0.119412	0.508535
C244	C	1.716600	0.369412	0.758535
C245	C	1.014758	-0.431141	0.967730
C246	C	1.264758	-0.181141	1.217730
C247	C	1.514758	0.068859	1.467730
C248	C	1.764758	0.318859	1.717730
C249	C	1.014751	-0.431166	0.902290
C250	C	1.264751	-0.181166	1.152290
C251	C	1.514751	0.068834	1.402290
C252	C	1.764751	0.318834	1.652290
C253	C	0.966590	-0.380624	0.877661
C254	C	1.216590	-0.130624	1.127661
C255	C	1.466590	0.119376	1.377661
C256	C	1.716590	0.369376	1.627661
C257	C	0.918423	-0.330068	0.918475
C258	C	1.168423	-0.080068	1.168475
C259	C	1.418423	0.169932	1.418475
C260	C	1.668423	0.419932	1.668475
C261	C	0.918428	-0.330050	0.983912
C262	C	1.168428	-0.080050	1.233912
C263	C	1.418428	0.169950	1.483912
C264	C	1.668428	0.419950	1.733912
C265	C	0.950238	-0.309443	0.785397
C266	C	1.200238	-0.059443	1.035397
C267	C	1.450238	0.190557	1.285397
C268	C	1.700238	0.440557	1.535397
C269	C	0.950237	-0.309460	0.719961
C270	C	1.200237	-0.059460	0.969961
C271	C	1.450237	0.190540	1.219961
C272	C	1.700237	0.440540	1.469961
C273	C	0.966571	-0.380681	0.675831
C274	C	1.216571	-0.130681	0.925831
C275	C	1.466571	0.119319	1.175831
C276	C	1.716571	0.369319	1.425831
C277	C	0.982918	-0.451887	0.697144
C278	C	1.232918	-0.201887	0.947144
C279	C	1.482918	0.048113	1.197144
C280	C	1.732918	0.298113	1.447144
C281	C	0.982923	-0.451869	0.762581
C282	C	1.232923	-0.201869	1.012581
C283	C	1.482923	0.048131	1.262581
C284	C	1.732923	0.298131	1.512581
C285	C	0.966579	-0.380639	0.806706
C286	C	1.216579	-0.130639	1.056706
C287	C	1.466579	0.119361	1.306706
C288	C	1.716579	0.369361	1.556706
C289	C	1.014724	-0.431265	0.564068
C290	C	1.264724	-0.181265	0.814068
C291	C	1.514724	0.068735	1.064068
C292	C	1.764724	0.318735	1.314068
C293	C	1.014712	-0.431291	0.498627
C294	C	1.264712	-0.181291	0.748627
C295	C	1.514712	0.068709	0.998627
C296	C	1.764712	0.318709	1.248627
C297	C	0.918387	-0.330186	0.514814
C298	C	1.168387	-0.080186	0.764814
C299	C	1.418387	0.169814	1.014814
C300	C	1.668387	0.419814	1.264814
C301	C	0.918396	-0.330167	0.580252
C302	C	1.168396	-0.080167	0.830252
C303	C	1.418396	0.169833	1.080252
C304	C	1.668396	0.419833	1.330252
C305	C	0.966568	-0.380705	0.604876
C306	C	1.216568	-0.130705	0.854876
C307	C	1.466568	0.119295	1.104876
C308	C	1.716568	0.369295	1.354876
H309	H	0.546892	-0.510023	0.229047
H310	H	0.796892	-0.260023	0.479047
H311	H	1.046892	-0.010023	0.729047
H312	H	1.296892	0.239977	0.979047
F313	F	0.422852	-0.527841	0.227414
F314	F	0.672852	-0.277841	0.477414
F315	F	0.922852	-0.027841	0.727414
F316	F	1.172852	0.222159	0.977414
F317	F	0.933095	-0.233608	0.832363
F318	F	1.183095	0.016392	1.082363
F319	F	1.433095	0.266392	1.332363
F320	F	1.683095	0.516392	1.582363
F321	F	1.000304	-0.527691	0.650182
F322	F	1.250304	-0.277691	0.900182
F323	F	1.500304	-0.027691	1.150182
F324	F	1.750304	0.222309	1.400182
F325	F	0.899133	-0.710028	0.308431
F326	F	1.149133	-0.460028	0.558431
F327	F	1.399133	-0.210028	0.808431
F328	F	1.649133	0.039972	1.058431
H329	H	0.624033	-0.472626	0.298811
H330	H	0.874033	-0.222626	0.548811
H331	H	1.124033	0.027374	0.798811
H332	H	1.374033	0.277374	1.048811
F333	F	0.932844	-0.233676	0.697284
F334	F	1.182844	0.016324	0.947284
F335	F	1.432844	0.266324	1.197284
F336	F	1.682844	0.516324	1.447284
F337	F	0.584356	-0.276325	0.175076
F338	F	0.834356	-0.026325	0.425076
F339	F	1.084356	0.223675	0.675076
F340	F	1.334356	0.473675	0.925076
H341	H	1.053975	-0.472323	0.869062
H342	H	1.303975	-0.222323	1.119062
H343	H	1.553975	0.027677	1.369062
H344	H	1.803975	0.277677	1.619062
F345	F	1.002662	-1.089427	0.204978
F346	F	1.252662	-0.839427	0.454978
F347	F	1.502662	-0.589427	0.704978
F348	F	1.752662	-0.339427	0.954978
F349	F	0.752952	-0.485281	0.306768
F350	F	1.002952	-0.235281	0.556768
F351	F	1.252952	0.014719	0.806768
F352	F	1.502952	0.264719	1.056768
F353	F	0.930334	-0.671392	0.277053
F354	F	1.180334	-0.421392	0.527053
F355	F	1.430334	-0.171392	0.777053
F356	F	1.680334	0.078608	1.027053
F357	F	0.719426	-0.276319	0.175062
F358	F	0.969426	-0.026319	0.425062
F359	F	1.219426	0.223681	0.675062
F360	F	1.469426	0.473681	0.925062
F361	F	0.867167	-0.276247	1.027341
F362	F	1.117167	-0.026247	1.277341
F363	F	1.367167	0.223753	1.527341
F364	F	1.617167	0.473753	1.777341
H365	H	0.505486	-0.251592	0.252836
H366	H	0.755486	-0.001592	0.502836
H367	H	1.005486	0.248408	0.752836
H368	H	1.255486	0.498408	1.002836
F369	F	1.065991	-0.485052	0.590276
F370	F	1.315991	-0.235052	0.840276
F371	F	1.565991	0.014948	1.090276
F372	F	1.815991	0.264948	1.340276
F373	F	1.033988	-1.050783	0.173722
F374	F	1.283988	-0.800783	0.423722
F375	F	1.533988	-0.550783	0.673722
F376	F	1.783988	-0.300783	0.923722
H377	H	0.386783	-0.251602	0.252825
H378	H	0.636783	-0.001602	0.502825
H379	H	0.886783	0.248398	0.752825
H380	H	1.136783	0.498398	1.002825
F381	F	0.315794	-0.276352	0.175087
F382	F	0.565794	-0.026352	0.425087
F383	F	0.815794	0.223648	0.675087
F384	F	1.065794	0.473648	0.925087
H385	H	1.091358	-0.955242	0.116371
H386	H	1.341358	-0.705242	0.366371
H387	H	1.591358	-0.455242	0.616371
H388	H	1.841358	-0.205242	0.866371
H389	H	1.053926	-0.472464	0.465402
H390	H	1.303926	-0.222464	0.715402
H391	H	1.553926	0.027536	0.965402
H392	H	1.803926	0.277536	1.215402
F393	F	0.867119	-0.276412	0.488603
F394	F	1.117119	-0.026412	0.738603
F395	F	1.367119	0.223588	0.988603
F396	F	1.617119	0.473588	1.238603
F397	F	1.123240	-0.841719	0.084501
F398	F	1.373240	-0.591719	0.334501
F399	F	1.623240	-0.341719	0.584501
F400	F	1.873240	-0.091719	0.834501
H401	H	0.879182	-0.288998	0.613478
H402	H	1.129182	-0.038998	0.863478
H403	H	1.379182	0.211002	1.113478
H404	H	1.629182	0.461002	1.363478
H405	H	0.190934	-0.289017	0.183063
H406	H	0.440934	-0.039017	0.433063
H407	H	0.690934	0.210983	0.683063
H408	H	0.940934	0.460983	0.933063
H409	H	0.845508	-1.079164	0.361891
H410	H	1.095508	-0.829164	0.611891
H411	H	1.345508	-0.579164	0.861891
H412	H	1.595508	-0.329164	1.111891
H413	H	1.087497	-0.681647	0.120136
H414	H	1.337497	-0.431647	0.370136
H415	H	1.587497	-0.181647	0.620136
H416	H	1.837497	0.068353	0.870136
F417	F	0.214252	-0.485314	0.306808
F418	F	0.464252	-0.235314	0.556808
F419	F	0.714252	0.014686	0.806808
F420	F	0.964252	0.264686	1.056808
F421	F	0.829948	-0.795265	0.377322
F422	F	1.079948	-0.545265	0.627322
F423	F	1.329948	-0.295265	0.877322
F424	F	1.579948	-0.045265	1.127322
H425	H	0.821434	-0.929414	0.385868
H426	H	1.071434	-0.679414	0.635868
H427	H	1.321434	-0.429414	0.885868
H428	H	1.571434	-0.179414	1.135868
H429	H	1.053982	-0.472295	0.987773
H430	H	1.303982	-0.222295	1.237773
H431	H	1.553982	0.027705	1.487773
H432	H	1.803982	0.277705	1.737773
F433	F	1.000318	-0.527650	0.785262
F434	F	1.250318	-0.277650	1.035262
F435	F	1.500318	-0.027650	1.285262
F436	F	1.750318	0.222350	1.535262
F437	F	0.349320	-0.485304	0.306798
F438	F	0.599320	-0.235304	0.556798
F439	F	0.849320	0.014696	0.806798
F440	F	1.099320	0.264696	1.056798
F441	F	0.867168	-0.276277	0.892262
F442	F	1.117168	-0.026277	1.142262
F443	F	1.367168	0.223723	1.392262
F444	F	1.617168	0.473723	1.642262
