data_functionalizedCrystal
_audit_creation_method	'MofGen! by Chris Wilmer'
_symmetry_space_group_name_H-M	'P1'
_symmetry_Int_Tables_number	1
_symmetry_cell_setting	triclinic
loop_
_symmetry_equiv_pos_as_xyz
  x,y,z
_cell_length_a	17.699083
_cell_length_b	23.532407
_cell_length_c	16.176319
_cell_angle_alpha	89.988065
_cell_angle_beta	89.999520
_cell_angle_gamma	96.934118
loop_
_atom_site_label
_atom_site_type_symbol
_atom_site_fract_x
_atom_site_fract_y
_atom_site_fract_z
O1	O	-1.003712	0.072017	-0.068638
O2	O	-0.503712	0.572017	0.431362
O3	O	-0.783286	0.081387	-0.068669
O4	O	-0.283286	0.581387	0.431331
O5	O	-0.900146	-0.006210	-0.068629
O6	O	-0.400146	0.493790	0.431371
O7	O	-0.886852	0.159615	-0.068678
O8	O	-0.386852	0.659615	0.431322
O9	O	-0.900132	-0.006211	0.068864
O10	O	-0.400132	0.493789	0.568864
O11	O	-0.783273	0.081387	0.068824
O12	O	-0.283273	0.581387	0.568824
O13	O	-1.003699	0.072017	0.068855
O14	O	-0.503699	0.572017	0.568855
Cu15	Cu	-0.893484	0.076702	0.081394
Cu16	Cu	-0.393484	0.576702	0.581394
Cu17	Cu	-0.893501	0.076702	-0.081208
Cu18	Cu	-0.393501	0.576702	0.418792
O19	O	-0.886839	0.159615	0.068816
O20	O	-0.386839	0.659615	0.568816
C21	C	-0.755084	0.081051	0.000074
C22	C	-0.255084	0.581051	0.500074
C23	C	-0.671071	0.080044	0.000063
C24	C	-0.171071	0.580044	0.500063
C25	C	-0.622189	0.131462	0.000048
C26	C	-0.122189	0.631462	0.500048
C27	C	-0.543251	0.130512	0.000059
C28	C	-0.043251	0.630512	0.500059
C29	C	-0.513196	0.078144	0.000078
C30	C	-0.013196	0.578144	0.500078
C31	C	-0.562084	0.026722	0.000096
C32	C	-0.062084	0.526722	0.500096
C33	C	-0.641021	0.027672	0.000091
C34	C	-0.141021	0.527672	0.500091
C35	C	-0.243740	0.022888	0.000115
C36	C	0.256260	0.522888	0.500115
C37	C	-0.164797	0.021942	0.000117
C38	C	0.335203	0.521942	0.500117
C39	C	-0.145970	0.125728	0.000082
C40	C	0.354030	0.625728	0.500082
C41	C	-0.224907	0.126678	0.000078
C42	C	0.275093	0.626678	0.500078
C43	C	-0.273788	0.075257	0.000100
C44	C	0.226212	0.575257	0.500100
C45	C	-0.359382	0.076287	0.000090
C46	C	0.140618	0.576287	0.500090
C47	C	-0.427603	0.077113	0.000082
C48	C	0.072397	0.577113	0.500082
C49	C	-0.899801	-0.027427	0.000121
C50	C	-0.399801	0.472573	0.500121
C51	C	-0.898783	-0.090647	0.000134
C52	C	-0.398783	0.409353	0.500134
C53	C	-0.825430	-0.357026	0.000072
C54	C	-0.325430	0.142974	0.500072
C55	C	-0.826376	-0.297623	0.000078
C56	C	-0.326376	0.202377	0.500078
O57	O	-0.768186	-0.261045	0.000044
O58	O	-0.268186	0.238955	0.500044
N59	N	-0.895849	-0.274797	0.000098
N60	N	-0.395849	0.225203	0.500098
C61	C	-0.964381	-0.311378	0.000102
C62	C	-0.464381	0.188622	0.500102
O63	O	-1.023560	-0.286508	0.000118
O64	O	-0.523560	0.213492	0.500118
C65	C	-0.963435	-0.370779	0.000090
C66	C	-0.463435	0.129221	0.500090
C67	C	-0.893957	-0.393602	0.000079
C68	C	-0.393957	0.106398	0.500079
C69	C	-0.755958	-0.379848	0.000060
C70	C	-0.255958	0.120152	0.500060
C71	C	-0.755013	-0.439247	0.000055
C72	C	-0.255013	0.060753	0.500055
C73	C	-0.823540	-0.475823	0.000062
C74	C	-0.323540	0.024177	0.500062
C75	C	-0.893012	-0.453000	0.000074
C76	C	-0.393012	0.047000	0.500074
C77	C	-1.031966	-0.407359	0.000088
C78	C	-0.531966	0.092641	0.500088
C79	C	-1.031014	-0.466764	0.000075
C80	C	-0.531014	0.033236	0.500075
C81	C	-0.961536	-0.489586	0.000064
C82	C	-0.461536	0.010414	0.500064
C83	C	-0.960594	-0.548975	0.000076
C84	C	-0.460594	-0.048975	0.500076
N85	N	-0.891121	-0.571801	0.000057
N86	N	-0.391121	-0.071801	0.500057
C87	C	-0.822594	-0.535225	0.000050
C88	C	-0.322594	-0.035225	0.500050
C89	C	-0.966363	-0.186629	0.000127
C90	C	-0.466363	0.313371	0.500127
C91	C	-0.967310	-0.127229	0.000145
C92	C	-0.467310	0.372771	0.500145
C93	C	-0.829305	-0.113478	0.000120
C94	C	-0.329305	0.386522	0.500120
C95	C	-0.828358	-0.172880	0.000107
C96	C	-0.328358	0.327120	0.500107
C97	C	-0.896890	-0.209455	0.000107
C98	C	-0.396890	0.290545	0.500107
C99	C	-0.820614	-0.659968	0.000040
C100	C	-0.320614	-0.159968	0.500040
C101	C	-0.819675	-0.719372	0.000038
C102	C	-0.319675	-0.219372	0.500038
C103	C	-0.957680	-0.733118	0.000059
C104	C	-0.457680	-0.233118	0.500059
C105	C	-0.958620	-0.673718	0.000065
C106	C	-0.458620	-0.173718	0.500065
C107	C	-0.890081	-0.637144	0.000053
C108	C	-0.390081	-0.137144	0.500053
O109	O	-1.018753	-0.585587	0.000107
O110	O	-0.518753	-0.085587	0.500107
O111	O	-0.763424	-0.560103	0.000023
O112	O	-0.263424	-0.060103	0.500023
C113	C	-0.031901	0.072353	0.000108
C114	C	0.468099	0.572353	0.500108
C115	C	-0.115914	0.073360	0.000107
C116	C	0.384086	0.573360	0.500107
C117	C	-0.887184	0.180832	0.000063
C118	C	-0.387184	0.680832	0.500063
C119	C	-0.888202	0.244052	0.000045
C120	C	-0.388202	0.744052	0.500045
N121	N	-0.893512	0.076698	-0.195573
N122	N	-0.393512	0.576698	0.304427
N123	N	-0.893479	0.076701	0.195759
N124	N	-0.393479	0.576701	0.695759
C125	C	-0.939118	0.111201	0.239016
C126	C	-0.439118	0.611201	0.739016
C127	C	-0.939126	0.111198	0.325563
C128	C	-0.439126	0.611198	0.825563
C129	C	-0.893490	0.076700	0.368852
C130	C	-0.393490	0.576700	0.868852
C131	C	-0.847849	0.042197	0.325589
C132	C	-0.347849	0.542197	0.825589
C133	C	-0.847845	0.042196	0.239043
C134	C	-0.347845	0.542196	0.739043
C135	C	-0.847863	0.042197	0.674617
C136	C	-0.347863	0.542197	1.174617
C137	C	-0.847868	0.042202	0.761169
C138	C	-0.347868	0.542202	1.261169
C139	C	-0.939144	0.111200	0.761137
C140	C	-0.439144	0.611200	1.261137
C141	C	-0.939141	0.111199	0.674591
C142	C	-0.439141	0.611199	1.174591
C143	C	-0.893502	0.076694	0.631336
C144	C	-0.393502	0.576694	1.131336
C145	C	-0.893495	0.076696	0.537492
C146	C	-0.393495	0.576696	1.037492
C147	C	-0.893493	0.076701	0.462694
C148	C	-0.393493	0.576701	0.962694
H149	H	-0.503454	0.172382	0.000045
H150	H	-0.003454	0.672382	0.500045
H151	H	-1.015194	-0.655136	0.000086
H152	H	-0.515194	-0.155136	0.500086
H153	H	-0.976299	0.139294	0.639350
H154	H	-0.476299	0.639294	1.139350
H155	H	-0.810680	0.014104	0.203825
H156	H	-0.310680	0.514104	0.703825
Br157	Br	-0.124009	-0.049135	0.000141
Br158	Br	0.375991	0.450865	0.500141
Br159	Br	-1.124027	-0.516399	0.000069
Br160	Br	-0.624027	-0.016399	0.500069
Br161	Br	-0.727596	-0.610340	0.000024
Br162	Br	-0.227596	-0.110340	0.500024
Br163	Br	-0.521296	-0.044350	0.000130
Br164	Br	-0.021296	0.455650	0.500130
H165	H	-1.013473	-0.762909	0.000069
H166	H	-0.513473	-0.262909	0.500069
Br167	Br	-0.662970	0.202537	0.000013
Br168	Br	-0.162970	0.702537	0.500013
H169	H	-0.680820	-0.014197	0.000103
H170	H	-0.180820	0.485803	0.500103
H171	H	-0.106161	0.167598	0.000069
H172	H	0.393839	0.667598	0.500069
Br173	Br	-0.734064	-0.203846	0.000093
Br174	Br	-0.234064	0.296154	0.500093
H175	H	-0.698437	-0.457823	0.000039
H176	H	-0.198437	0.042177	0.500039
H177	H	-0.700152	-0.350073	0.000052
H178	H	-0.200152	0.149927	0.500052
Br179	Br	-0.725378	-0.750341	0.000028
Br180	Br	-0.225378	-0.250341	0.500028
Br181	Br	-0.265692	0.197752	0.000044
Br182	Br	0.234308	0.697752	0.500044
Br183	Br	-0.310069	-0.046898	0.000146
Br184	Br	0.189931	0.453102	0.500146
H185	H	-0.976307	0.139294	0.796366
H186	H	-0.476307	0.639294	1.296366
H187	H	-0.976276	0.139297	0.203776
H188	H	-0.476276	0.639297	0.703776
H189	H	-0.773506	-0.083687	0.000115
H190	H	-0.273506	0.416313	0.500115
H191	H	-1.023886	-0.108652	0.000167
H192	H	-0.523886	0.391348	0.500167
H193	H	-1.022174	-0.216406	0.000132
H194	H	-0.522174	0.283594	0.500132
H195	H	-1.088542	-0.388788	0.000096
H196	H	-0.588542	0.111212	0.500096
H197	H	-0.976292	0.139290	0.360779
H198	H	-0.476292	0.639290	0.860779
Br199	Br	-0.785928	-0.004620	0.819918
Br200	Br	-0.285928	0.495380	1.319918
H201	H	-0.810701	0.014101	0.639409
H202	H	-0.310701	0.514101	1.139409
H203	H	-0.810695	0.014104	0.360842
H204	H	-0.310695	0.514104	0.860842
