data_functionalizedCrystal
_audit_creation_method	'MofGen! by Chris Wilmer'
_symmetry_space_group_name_H-M	'P1'
_symmetry_Int_Tables_number	1
_symmetry_cell_setting	triclinic
loop_
_symmetry_equiv_pos_as_xyz
  x,y,z
_cell_length_a	14.971482
_cell_length_b	19.288857
_cell_length_c	14.048226
_cell_angle_alpha	89.991412
_cell_angle_beta	89.994098
_cell_angle_gamma	83.372858
loop_
_atom_site_label
_atom_site_type_symbol
_atom_site_fract_x
_atom_site_fract_y
_atom_site_fract_z
O1	O	1.186457	0.090505	-0.079153
O2	O	1.686457	0.590505	0.420847
O3	O	0.925997	0.101348	-0.079158
O4	O	1.425997	0.601348	0.420842
O5	O	1.063756	-0.005180	-0.079144
O6	O	1.563756	0.494820	0.420856
O7	O	1.048697	0.197033	-0.079167
O8	O	1.548697	0.697033	0.420833
O9	O	1.063740	-0.005186	0.079177
O10	O	1.563740	0.494814	0.579177
O11	O	0.925980	0.101341	0.079163
O12	O	1.425980	0.601341	0.579163
O13	O	1.186440	0.090499	0.079168
O14	O	1.686440	0.590499	0.579168
Zn15	Zn	1.056208	0.095919	0.104303
Zn16	Zn	1.556208	0.595919	0.604303
Zn17	Zn	1.056229	0.095927	-0.104292
Zn18	Zn	1.556229	0.595927	0.395708
O19	O	1.048681	0.197026	0.079154
O20	O	1.548681	0.697026	0.579154
C21	C	0.892667	0.100860	0.000002
C22	C	1.392667	0.600860	0.500002
C23	C	0.793377	0.099408	0.000000
C24	C	1.293377	0.599408	0.500000
C25	C	0.746727	0.098721	0.086303
C26	C	1.246727	0.598721	0.586303
C27	C	0.653436	0.097346	0.086304
C28	C	1.153436	0.597346	0.586304
C29	C	0.606796	0.096663	0.000002
C30	C	1.106796	0.596663	0.500002
C31	C	0.653453	0.097348	-0.086307
C32	C	1.153453	0.597348	0.413693
C33	C	0.746743	0.098718	-0.086307
C34	C	1.246743	0.598718	0.413693
C35	C	0.459006	0.094494	-0.086300
C36	C	0.959006	0.594494	0.413700
C37	C	0.365710	0.093125	-0.086301
C38	C	0.865710	0.593125	0.413699
C39	C	0.365700	0.093122	0.086310
C40	C	0.865700	0.593122	0.586310
C41	C	0.458990	0.094492	0.086310
C42	C	0.958990	0.594492	0.586310
C43	C	0.505640	0.095178	0.000001
C44	C	1.005640	0.595178	0.500001
C45	C	1.063265	-0.031061	0.000018
C46	C	1.563265	0.468939	0.500018
C47	C	1.061814	-0.108170	0.000020
C48	C	1.561814	0.391830	0.500020
C49	C	1.061145	-0.144379	-0.086281
C50	C	1.561145	0.355621	0.413719
C51	C	1.059769	-0.216829	-0.086288
C52	C	1.559769	0.283171	0.413712
C53	C	1.059079	-0.253070	0.000011
C54	C	1.559079	0.246930	0.500011
C55	C	1.059743	-0.216851	0.086323
C56	C	1.559743	0.283149	0.586323
C57	C	1.061110	-0.144401	0.086328
C58	C	1.561110	0.355599	0.586328
C59	C	1.109296	-0.373140	0.066122
C60	C	1.609296	0.126860	0.566122
C61	C	1.107935	-0.445590	0.066114
C62	C	1.607935	0.054410	0.566114
C63	C	1.054858	-0.476529	0.000000
C64	C	1.554858	0.023471	0.500000
C65	C	1.003155	-0.435012	-0.066121
C66	C	1.503155	0.064988	0.433879
C67	C	1.004523	-0.362562	-0.066117
C68	C	1.504523	0.137438	0.433883
C69	C	1.057596	-0.331629	0.000016
C70	C	1.557596	0.168371	0.500016
C71	C	1.052697	-0.591298	-0.086315
C72	C	1.552697	-0.091298	0.413685
C73	C	1.051315	-0.663749	-0.086318
C74	C	1.551315	-0.163749	0.413682
C75	C	1.051297	-0.663770	0.086296
C76	C	1.551297	-0.163770	0.586296
C77	C	1.052670	-0.591319	0.086297
C78	C	1.552670	-0.091319	0.586297
C79	C	1.053374	-0.555088	-0.000011
C80	C	1.553374	-0.055088	0.499989
C81	C	1.219770	0.090987	0.000006
C82	C	1.719770	0.590987	0.500006
C83	C	1.319060	0.092438	0.000001
C84	C	1.819060	0.592438	0.500001
C85	C	1.049172	0.222908	-0.000009
C86	C	1.549172	0.722908	0.499991
C87	C	1.050623	0.300016	-0.000018
C88	C	1.550623	0.800016	0.499982
N89	N	1.056199	0.095913	0.246663
N90	N	1.556199	0.595913	0.746663
N91	N	1.056245	0.095928	-0.246653
N92	N	1.556245	0.595928	0.253347
C93	C	1.117218	0.048762	0.296488
C94	C	1.617218	0.548762	0.796488
C95	C	1.117224	0.048762	0.396145
C96	C	1.617224	0.548762	0.896145
C97	C	1.056215	0.095916	0.445977
C98	C	1.556215	0.595916	0.945977
C99	C	0.995190	0.143069	0.396146
C100	C	1.495190	0.643069	0.896146
C101	C	0.995180	0.143066	0.296490
C102	C	1.495180	0.643066	0.796490
C103	C	0.995215	0.143074	0.603860
C104	C	1.495215	0.643074	1.103860
C105	C	0.995226	0.143079	0.703523
C106	C	1.495226	0.643079	1.203523
C107	C	1.117260	0.048770	0.703515
C108	C	1.617260	0.548770	1.203515
C109	C	1.117250	0.048767	0.603860
C110	C	1.617250	0.548767	1.103860
C111	C	1.056226	0.095921	0.554035
C112	C	1.556226	0.595921	1.054035
H113	H	1.061716	-0.114884	-0.156559
H114	H	1.561716	0.385116	0.343441
Cl115	Cl	0.939524	-0.310370	-0.149232
Cl116	Cl	1.439524	0.189630	0.350768
Cl117	Cl	1.193925	-0.010518	0.233853
Cl118	Cl	1.693925	0.489482	0.733853
H119	H	1.166932	0.010374	0.563287
H120	H	1.666932	0.510374	1.063287
Cl121	Cl	0.594824	0.096464	-0.194802
Cl122	Cl	1.094824	0.596464	0.305198
Cl123	Cl	0.918464	0.202342	0.233854
Cl124	Cl	1.418464	0.702342	0.733854
H125	H	1.152516	-0.347956	0.119967
H126	H	1.652516	0.152044	0.619967
Cl127	Cl	1.193976	-0.010507	0.766155
Cl128	Cl	1.693976	0.489493	1.266155
Cl129	Cl	0.594792	0.096495	0.194803
Cl130	Cl	1.094792	0.596495	0.694803
H131	H	1.053264	-0.561796	-0.156592
H132	H	1.553264	-0.061796	0.343408
H133	H	0.945545	0.181476	0.744090
H134	H	1.445545	0.681476	1.244090
H135	H	1.166910	0.010368	0.436712
H136	H	1.666910	0.510368	0.936712
H137	H	0.945510	0.181461	0.436724
H138	H	1.445510	0.681461	0.936724
Cl139	Cl	0.805351	0.099584	0.194803
Cl140	Cl	1.305351	0.599584	0.694803
Cl141	Cl	0.918494	0.202354	0.541227
Cl142	Cl	1.418494	0.702354	1.041227
H143	H	0.496961	0.095052	0.156585
H144	H	0.996961	0.595052	0.656585
Cl145	Cl	0.805389	0.099579	-0.194806
Cl146	Cl	1.305389	0.599579	0.305194
H147	H	0.327713	0.092563	0.156586
H148	H	0.827713	0.592563	0.656586
H149	H	0.327738	0.092570	-0.156575
H150	H	0.827738	0.592570	0.343425
Cl151	Cl	1.058929	-0.262359	-0.194789
Cl152	Cl	1.558929	0.237641	0.305211
H153	H	0.959936	-0.460200	-0.119958
H154	H	1.459936	0.039800	0.380042
H155	H	1.059178	-0.246362	0.156589
H156	H	1.559178	0.253638	0.656589
H157	H	0.496986	0.095053	-0.156583
H158	H	0.996986	0.595053	0.343417
H159	H	1.050766	-0.693229	-0.156598
H160	H	1.550766	-0.193229	0.343402
Cl161	Cl	1.050425	-0.709321	0.194787
Cl162	Cl	1.550425	-0.209321	0.694787
Cl163	Cl	1.053510	-0.545796	0.194796
Cl164	Cl	1.553510	-0.045796	0.694796
Cl165	Cl	1.061949	-0.098878	0.194830
Cl166	Cl	1.561949	0.401122	0.694830
Cl167	Cl	1.172935	-0.497776	0.149234
Cl168	Cl	1.672935	0.002224	0.649234
