data_functionalizedCrystal
_audit_creation_method	'MofGen! by Chris Wilmer'
_symmetry_space_group_name_H-M	'P1'
_symmetry_Int_Tables_number	1
_symmetry_cell_setting	triclinic
loop_
_symmetry_equiv_pos_as_xyz
  x,y,z
_cell_length_a	12.784890
_cell_length_b	27.731996
_cell_length_c	11.295501
_cell_angle_alpha	85.364328
_cell_angle_beta	85.049087
_cell_angle_gamma	77.863973
loop_
_atom_site_label
_atom_site_type_symbol
_atom_site_fract_x
_atom_site_fract_y
_atom_site_fract_z
O1	O	1.416608	0.005663	-0.098990
O2	O	1.106804	0.026380	-0.099006
O3	O	1.271355	-0.054751	-0.098972
O4	O	1.252057	0.086793	-0.099024
O5	O	1.258656	-0.060028	0.099080
O6	O	1.094105	0.021103	0.099046
O7	O	1.403909	0.000386	0.099062
Cu8	Cu	1.247848	0.010263	0.117138
Cu9	Cu	1.262865	0.016503	-0.117082
O10	O	1.239358	0.081517	0.099028
C11	C	1.060833	0.025089	0.000019
C12	C	0.942771	0.029098	0.000014
C13	C	0.762950	0.079343	-0.000007
C14	C	0.873879	0.075579	-0.000005
C15	C	0.900729	-0.013622	0.000028
C16	C	0.789801	-0.009859	0.000026
C17	C	0.720915	0.036625	0.000011
C18	C	0.609984	0.040388	0.000018
C19	C	0.636837	-0.048812	0.000042
C20	C	0.747766	-0.052576	0.000044
C21	C	1.264609	-0.075381	0.000058
C22	C	1.263414	-0.128992	0.000070
C23	C	1.262826	-0.458540	-0.107946
C24	C	1.258292	-0.660022	-0.107968
O25	O	1.263547	-0.683622	-0.199783
N26	N	1.250807	-0.688094	-0.000010
C27	C	1.244447	-0.665792	0.107960
O28	O	1.237966	-0.694290	0.199784
C29	C	1.248974	-0.464309	0.107980
C30	C	1.256470	-0.436241	0.000015
C31	C	1.270321	-0.430472	-0.215902
C32	C	1.271460	-0.380105	-0.215896
C33	C	1.265104	-0.357806	-0.107934
C34	C	1.257609	-0.385874	0.000022
C35	C	1.242607	-0.442007	0.215949
C36	C	1.243736	-0.391633	0.215944
C37	C	1.251233	-0.363564	0.107980
C38	C	1.252393	-0.313208	0.107990
N39	N	1.259878	-0.285137	0.000033
C40	C	1.266234	-0.307435	-0.107929
C41	C	1.242074	-0.771573	0.107942
C42	C	1.240944	-0.821943	0.107937
C43	C	1.254787	-0.816170	-0.107991
C44	C	1.255924	-0.765800	-0.107985
C45	C	1.249559	-0.743501	-0.000016
C46	C	1.268626	-0.201661	-0.107907
C47	C	1.269769	-0.151291	-0.107891
C48	C	1.255921	-0.157068	0.108036
C49	C	1.254784	-0.207434	0.108020
C50	C	1.261133	-0.229730	0.000039
O51	O	1.247129	-0.289575	0.199757
O52	O	1.272691	-0.278926	-0.199739
C53	C	1.261687	-0.508907	-0.107953
C54	C	1.254192	-0.536975	0.000003
C55	C	1.247836	-0.514676	0.107965
C56	C	1.253062	-0.587346	-0.000002
C57	C	1.259418	-0.609644	-0.107964
C58	C	1.266903	-0.581573	-0.215921
C59	C	1.268042	-0.531206	-0.215915
C60	C	1.240351	-0.542748	0.215922
C61	C	1.239214	-0.593115	0.215907
C62	C	1.245569	-0.615414	0.107945
C63	C	1.449880	0.001677	0.000035
C64	C	1.567942	-0.002332	0.000032
C65	C	1.246104	0.102147	-0.000005
C66	C	1.247300	0.155758	-0.000025
N67	N	1.237293	0.005873	0.281875
N68	N	1.273429	0.020889	-0.281819
C69	C	1.349397	0.052514	0.531152
C70	C	1.341429	0.049192	0.655816
C71	C	1.213394	-0.004095	0.655871
C72	C	1.221363	-0.000774	0.531207
C73	C	1.289365	0.027532	0.468851
C74	C	1.297327	0.030857	0.344185
C75	C	1.169298	-0.022433	0.344242
C76	C	1.161330	-0.025755	0.468906
H77	H	1.273792	-0.219807	-0.195836
N78	N	1.279114	-0.351444	-0.326190
N79	N	1.284783	-0.371368	-0.422568
H80	H	1.290186	-0.351130	-0.500471
N81	N	1.233853	-0.519982	0.326219
N82	N	1.227168	-0.545057	0.422593
H83	H	1.222583	-0.528981	0.500499
N84	N	1.249432	-0.134294	0.218324
N85	N	1.319663	-0.149460	0.290630
H86	H	1.315073	-0.133375	0.368524
N87	N	1.247111	-0.236108	0.218298
N88	N	1.169917	-0.257239	0.242371
H89	H	1.164486	-0.277487	0.320256
H90	H	1.275493	-0.448621	-0.303822
N91	N	1.237228	-0.368847	0.326224
N92	N	1.161313	-0.333771	0.350308
H93	H	1.156718	-0.317678	0.428192
H94	H	1.120410	-0.042772	0.293504
H95	H	0.803868	-0.090422	0.000052
N96	N	0.593880	-0.092446	0.000081
N97	N	0.494836	-0.089081	0.000096
H98	H	0.464494	-0.119897	0.000132
N99	N	1.402726	0.074714	0.719474
N100	N	1.395599	0.071749	0.830780
H101	H	1.438890	0.089776	0.875741
H102	H	1.404757	0.075566	0.480381
N103	N	0.539631	0.087872	0.000013
N104	N	0.577182	0.126008	-0.000002
H105	H	0.527498	0.159545	-0.000007
H106	H	1.272083	-0.599737	-0.303828
N107	N	0.692593	0.126825	-0.000001
N108	N	0.730138	0.164962	-0.000002
H109	H	0.680450	0.198498	0.000005
N110	N	1.233287	-0.850604	0.218231
N111	N	1.153772	-0.839292	0.290510
H112	H	1.148358	-0.859531	0.368410
H113	H	1.275877	-0.128440	-0.195813
N114	N	1.091852	-0.054657	0.532608
N115	N	0.993523	-0.044346	0.518707
H116	H	0.944448	-0.064757	0.563695
N117	N	1.143926	-0.033000	0.719584
N118	N	1.045594	-0.022695	0.705699
H119	H	0.996530	-0.043108	0.750698
N120	N	0.916800	0.119219	-0.000030
N121	N	0.855279	0.160717	-0.000048
H122	H	0.885591	0.191540	-0.000068
H123	H	1.233117	-0.615965	0.303831
H124	H	1.352693	0.053907	0.293417
N125	N	0.971120	-0.061096	0.000018
N126	N	1.070161	-0.064447	0.000002
H127	H	1.119877	-0.097975	-0.000009
N128	N	1.263587	-0.737139	-0.218277
N129	N	1.269268	-0.757062	-0.314658
H130	H	1.274680	-0.736822	-0.392558
H131	H	1.259963	-0.834335	-0.195898
H132	H	1.236895	-0.753423	0.195868
N133	N	1.234958	-0.470663	0.326244
N134	N	1.229281	-0.450737	0.422620
H135	H	1.223879	-0.470975	0.500525
N136	N	1.275704	-0.502546	-0.326210
N137	N	1.281379	-0.522471	-0.422587
H138	H	1.286790	-0.502233	-0.500490
