data_functionalizedCrystal
_audit_creation_method	'MofGen! by Chris Wilmer'
_symmetry_space_group_name_H-M	'P1'
_symmetry_Int_Tables_number	1
_symmetry_cell_setting	triclinic
loop_
_symmetry_equiv_pos_as_xyz
  x,y,z
_cell_length_a	17.699104
_cell_length_b	17.699083
_cell_length_c	17.766277
_cell_angle_alpha	89.992740
_cell_angle_beta	89.989752
_cell_angle_gamma	83.287266
loop_
_atom_site_label
_atom_site_type_symbol
_atom_site_fract_x
_atom_site_fract_y
_atom_site_fract_z
O1	O	1.004071	0.095787	-0.062611
O2	O	0.783695	0.108223	-0.062609
O3	O	0.900109	-0.008183	-0.062604
O4	O	0.887657	0.212194	-0.062617
O5	O	0.900089	-0.008189	0.062585
O6	O	0.783674	0.108217	0.062579
O7	O	1.004051	0.095781	0.062578
Cu8	Cu	0.893861	0.101999	0.074009
Cu9	Cu	0.893885	0.102006	-0.074041
O10	O	0.887636	0.212188	0.062572
C11	C	0.755488	0.107772	-0.000015
C12	C	0.671471	0.106427	-0.000014
C13	C	0.146600	0.167171	-0.000025
C14	C	0.225543	0.168430	-0.000028
C15	C	0.274161	0.100095	-0.000023
C16	C	0.243831	0.030496	-0.000025
C17	C	0.164889	0.029238	-0.000028
C18	C	0.562197	0.035569	-0.000013
C19	C	0.641144	0.036833	-0.000007
C20	C	0.622852	0.174762	-0.000013
C21	C	0.543909	0.173503	-0.000016
C22	C	0.513587	0.103905	-0.000021
C23	C	0.427987	0.102541	-0.000020
C24	C	0.359759	0.101459	-0.000019
C25	C	0.899653	-0.036383	-0.000009
C26	C	0.898314	-0.120402	-0.000009
C27	C	0.966647	-0.169017	-0.000008
C28	C	0.965385	-0.247961	-0.000015
C29	C	0.895789	-0.278287	-0.000017
C30	C	0.827451	-0.229665	-0.000020
C31	C	0.828714	-0.150723	-0.000018
C32	C	0.822356	-0.548028	-0.000026
C33	C	0.821098	-0.626976	-0.000025
C34	C	0.959026	-0.645266	-0.000022
C35	C	0.960289	-0.566324	-0.000021
C36	C	0.891952	-0.517709	-0.000028
C37	C	0.893321	-0.432110	-0.000022
C38	C	0.894419	-0.363885	-0.000017
C39	C	1.032258	0.096233	-0.000019
C40	C	1.116275	0.097578	-0.000024
C41	C	0.888093	0.240388	-0.000024
C42	C	0.889431	0.324406	-0.000029
N43	N	0.893849	0.101994	0.178139
N44	N	0.893902	0.102005	-0.178171
C45	C	0.945414	0.050474	0.217529
C46	C	0.945418	0.050470	0.296331
C47	C	0.893865	0.102000	0.335740
C48	C	0.842291	0.153523	0.296341
C49	C	0.842283	0.153520	0.217541
C50	C	0.883822	0.170948	0.460574
C51	C	0.883835	0.170952	0.539373
C52	C	0.893885	0.102009	0.578786
C53	C	0.903939	0.033059	0.539391
C54	C	0.903931	0.033056	0.460591
C55	C	0.893868	0.102008	0.421186
C56	C	0.945458	0.050481	0.703622
C57	C	0.945457	0.050476	0.782425
C58	C	0.842333	0.153536	0.782434
C59	C	0.842330	0.153534	0.703632
C60	C	0.893897	0.102007	0.664231
H61	H	0.107020	0.222818	-0.000023
H62	H	0.680728	-0.018817	-0.000006
H63	H	0.504328	0.229149	-0.000016
H64	H	1.014670	-0.684858	-0.000021
C65	C	0.747186	-0.494558	-0.000017
C66	C	0.670635	-0.527919	-0.000006
C67	C	0.595461	-0.474445	0.000008
C68	C	0.596839	-0.387610	0.000012
C69	C	0.673394	-0.354245	0.000001
C70	C	0.748567	-0.407719	-0.000013
H71	H	0.669612	-0.592203	-0.000009
H72	H	0.538791	-0.499144	0.000016
H73	H	0.541192	-0.348025	0.000022
H74	H	0.674417	-0.289961	0.000004
H75	H	0.805238	-0.383020	-0.000021
H76	H	0.283422	-0.025143	-0.000026
C77	C	0.872783	0.246796	0.582700
C78	C	0.935031	0.267677	0.636843
C79	C	0.923980	0.343524	0.680167
C80	C	0.850682	0.398490	0.669346
C81	C	0.788429	0.377609	0.615199
C82	C	0.799479	0.301762	0.571876
H83	H	0.989295	0.226987	0.644856
H84	H	0.970065	0.358981	0.720249
H85	H	0.842502	0.454636	0.701416
H86	H	0.734165	0.418299	0.607187
H87	H	0.753395	0.286306	0.531794
C88	C	1.002128	-0.006209	0.174186
C89	C	1.058848	-0.062887	0.217516
C90	C	1.115560	-0.119571	0.174169
C91	C	1.115551	-0.119578	0.087492
C92	C	1.058829	-0.062898	0.044157
C93	C	1.002117	-0.006214	0.087503
H94	H	1.058857	-0.062884	0.281684
H95	H	1.157550	-0.161530	0.206249
H96	H	1.157533	-0.161539	0.055404
H97	H	1.058820	-0.062901	-0.020011
H98	H	0.960127	0.035745	0.055423
C99	C	0.528848	-0.040987	-0.000018
C100	C	0.582328	-0.116152	-0.000013
C101	C	0.548976	-0.192712	-0.000022
C102	C	0.462144	-0.194107	-0.000035
C103	C	0.408659	-0.118939	-0.000040
C104	C	0.442011	-0.042379	-0.000032
H105	H	0.646611	-0.115121	-0.000004
H106	H	0.588570	-0.248356	-0.000018
H107	H	0.437455	-0.250781	-0.000041
H108	H	0.344376	-0.119970	-0.000050
H109	H	0.402417	0.013265	-0.000036
C110	C	0.785622	0.210218	0.825776
C111	C	0.785678	0.210272	0.912453
C112	C	0.728963	0.266953	0.955799
C113	C	0.672192	0.323580	0.912469
C114	C	0.672134	0.323528	0.825787
C115	C	0.728849	0.266847	0.782440
H116	H	0.827705	0.168351	0.944533
H117	H	0.729006	0.266991	1.019967
H118	H	0.630208	0.365539	0.944557
H119	H	0.630107	0.365449	0.793707
H120	H	0.728805	0.266809	0.718272
H121	H	0.770785	-0.254362	-0.000026
H122	H	0.140200	-0.027432	-0.000028
H123	H	0.800344	0.195489	0.671559
C124	C	0.872769	0.246791	0.417223
C125	C	0.861725	0.322631	0.460551
C126	C	0.850673	0.398472	0.417201
C127	C	0.850665	0.398472	0.330524
C128	C	0.861709	0.322629	0.287192
C129	C	0.872761	0.246789	0.330541
H130	H	0.861731	0.322634	0.524719
H131	H	0.842498	0.454616	0.449279
H132	H	0.842484	0.454613	0.298434
H133	H	0.861703	0.322627	0.223024
H134	H	0.880937	0.190645	0.298463
C135	C	0.914974	-0.042784	0.417256
C136	C	0.926025	-0.118624	0.460598
C137	C	0.937062	-0.194464	0.417263
C138	C	0.937047	-0.194464	0.330586
C139	C	0.925995	-0.118621	0.287239
C140	C	0.914959	-0.042781	0.330574
H141	H	0.926036	-0.118627	0.524766
H142	H	0.945243	-0.250608	0.449351
H143	H	0.945217	-0.250606	0.298506
H144	H	0.925984	-0.118618	0.223071
H145	H	0.906778	0.013363	0.298485
C146	C	0.258901	0.244984	-0.000026
C147	C	0.205425	0.320152	-0.000023
C148	C	0.238781	0.396709	-0.000023
C149	C	0.325614	0.398100	-0.000025
C150	C	0.379095	0.322930	-0.000027
C151	C	0.345739	0.246372	-0.000028
H152	H	0.141141	0.319125	-0.000022
H153	H	0.199190	0.452355	-0.000021
H154	H	0.350306	0.454773	-0.000024
H155	H	0.443379	0.323957	-0.000029
H156	H	0.385330	0.190726	-0.000030
C157	C	1.036846	-0.532968	-0.000022
C158	C	1.093563	-0.551376	0.064980
C159	C	1.170122	-0.518021	0.064975
C160	C	1.189964	-0.466259	-0.000034
C161	C	1.133246	-0.447848	-0.065041
C162	C	1.056687	-0.481202	-0.065035
H163	H	1.078876	-0.589696	0.113108
H164	H	1.212109	-0.531650	0.113098
H165	H	1.246637	-0.441568	-0.000038
H166	H	1.147932	-0.409528	-0.113168
H167	H	1.014700	-0.467573	-0.113159
H168	H	0.987410	0.008515	0.328408
H169	H	0.647550	0.231432	-0.000012
H170	H	1.023320	-0.144333	-0.000002
H171	H	0.800314	0.195478	0.328432
H172	H	0.912122	-0.023081	0.571480
C173	C	1.002172	-0.006203	0.660276
C174	C	1.058886	-0.062884	0.703611
C175	C	1.115600	-0.119569	0.660269
C176	C	1.115601	-0.119574	0.573591
C177	C	1.058886	-0.062891	0.530252
C178	C	1.002171	-0.006206	0.573594
H179	H	1.058887	-0.062883	0.767779
H180	H	1.157585	-0.161530	0.692352
H181	H	1.157585	-0.161536	0.541507
H182	H	1.058884	-0.062892	0.466084
H183	H	0.960186	0.035755	0.541510
H184	H	0.987445	0.008519	0.814497
H185	H	0.800291	0.195474	0.185469
H186	H	1.021028	-0.287541	-0.000013
H187	H	0.773070	-0.111140	-0.000019
H188	H	0.764421	-0.651664	-0.000025
