data_functionalizedCrystal
_audit_creation_method	'MofGen! by Chris Wilmer'
_symmetry_space_group_name_H-M	'P1'
_symmetry_Int_Tables_number	1
_symmetry_cell_setting	triclinic
loop_
_symmetry_equiv_pos_as_xyz
  x,y,z
_cell_length_a	19.805407
_cell_length_b	13.032868
_cell_length_c	19.805399
_cell_angle_alpha	97.153250
_cell_angle_beta	90.024201
_cell_angle_gamma	82.787795
loop_
_atom_site_label
_atom_site_type_symbol
_atom_site_fract_x
_atom_site_fract_y
_atom_site_fract_z
Zn1	Zn	1.000496	0.416088	0.417014
Zn2	Zn	1.500496	0.916088	0.917014
Zn3	Zn	0.986030	0.590848	0.318194
Zn4	Zn	1.486030	1.090848	0.818194
Zn5	Zn	0.887309	0.416115	0.303831
Zn6	Zn	1.387309	0.916115	0.803831
Zn7	Zn	0.872898	0.590790	0.431327
Zn8	Zn	1.372898	1.090790	0.931327
O9	O	0.936683	0.503460	0.367592
O10	O	1.436683	1.003460	0.867592
O11	O	1.093293	0.439283	0.403926
O12	O	1.593293	0.939283	0.903926
O13	O	0.972911	0.567704	0.221575
O14	O	1.472911	1.067704	0.721575
O15	O	0.914408	0.269872	0.306844
O16	O	1.414408	0.769872	0.806844
O17	O	1.082665	0.567678	0.331323
O18	O	1.582665	1.067678	0.831323
O19	O	0.997566	0.269852	0.389999
O20	O	1.497566	0.769852	0.889999
O21	O	0.900381	0.439329	0.211023
O22	O	1.400381	0.939329	0.711023
O23	O	0.790681	0.439273	0.320723
O24	O	1.290681	0.939273	0.820723
O25	O	0.889848	0.567580	0.524142
O26	O	1.389848	1.067580	1.024142
O27	O	0.780094	0.567606	0.414394
O28	O	1.280094	1.067606	0.914394
O29	O	0.983593	0.439227	0.513626
O30	O	1.483593	0.939227	1.013626
O31	O	0.958938	0.737079	0.345202
O32	O	1.458938	1.237079	0.845202
O33	O	0.875820	0.737037	0.428321
O34	O	1.375820	1.237037	0.928321
C35	C	0.760829	0.503436	0.367553
C36	C	1.260829	1.003436	0.867553
C37	C	0.685596	0.503452	0.367555
C38	C	1.185596	1.003452	0.867555
C39	C	0.914264	0.774976	0.389888
C40	C	1.414264	1.274976	0.889888
C41	C	0.904735	0.891132	0.399449
C42	C	1.404735	1.391132	0.899449
C43	C	0.218299	0.570409	0.416351
C44	C	0.718299	1.070409	0.916351
C45	C	0.288987	0.570407	0.416337
C46	C	0.788987	1.070407	0.916337
C47	C	0.329831	0.503485	0.367620
C48	C	0.829831	1.003485	0.867620
C49	C	0.299983	0.436568	0.318910
C50	C	0.799983	0.936568	0.818910
C51	C	0.229295	0.436576	0.318922
C52	C	0.729295	0.936576	0.818922
C53	C	0.585059	0.436536	0.318860
C54	C	1.085059	0.936536	0.818860
C55	C	0.655751	0.436532	0.318853
C56	C	1.155751	0.936532	0.818853
C57	C	0.644751	0.570367	0.416275
C58	C	1.144751	1.070367	0.916275
C59	C	0.574063	0.570375	0.416287
C60	C	1.074063	1.070375	0.916287
C61	C	0.544221	0.503463	0.367575
C62	C	1.044221	1.003463	0.867575
C63	C	0.467572	0.503467	0.367591
C64	C	0.967572	1.003467	0.867591
C65	C	0.406479	0.503475	0.367607
C66	C	0.906479	1.003475	0.867607
C67	C	0.941648	0.942905	0.362617
C68	C	1.441648	1.442905	0.862617
C69	C	0.931800	1.062958	0.372498
C70	C	1.431800	1.562958	0.872498
C71	C	1.113224	0.503484	0.367630
C72	C	1.613224	1.003484	0.867630
C73	C	1.188455	0.503495	0.367647
C74	C	1.688455	1.003495	0.867647
C75	C	0.959186	1.230883	0.345215
C76	C	1.459186	1.730883	0.845215
C77	C	0.968718	1.114727	0.335661
C78	C	1.468718	1.614727	0.835661
C79	C	0.936727	0.503394	0.544129
C80	C	1.436727	1.003394	1.044129
C81	C	0.936745	0.503366	0.619359
C82	C	1.436745	1.003366	1.119359
C83	C	0.936685	0.503450	0.191735
C84	C	1.436685	1.003450	0.691735
C85	C	0.936822	0.503184	0.116481
C86	C	1.436822	1.003184	0.616481
C87	C	0.985560	0.436530	0.649228
C88	C	1.485560	0.936530	1.149228
C89	C	0.985569	0.436499	0.719914
C90	C	1.485569	0.936499	1.219914
C91	C	0.936766	0.503312	0.760730
C92	C	1.436766	1.003312	1.260730
C93	C	0.887947	0.570151	0.730856
C94	C	1.387947	1.070151	1.230856
C95	C	0.887935	0.570175	0.660171
C96	C	1.387935	1.070175	1.160171
C97	C	0.887993	0.570054	1.015921
C98	C	1.387993	1.070054	1.515921
C99	C	0.888010	0.570026	1.086611
C100	C	1.388010	1.070026	1.586611
C101	C	0.985627	0.436378	1.075665
C102	C	1.485627	0.936378	1.575665
C103	C	0.985615	0.436402	1.004979
C104	C	1.485615	0.936402	1.504979
C105	C	0.936794	0.503237	0.975111
C106	C	1.436794	1.003237	1.475111
C107	C	0.936783	0.503268	0.898465
C108	C	1.436783	1.003268	1.398465
C109	C	0.936779	0.503287	0.837375
C110	C	1.436779	1.003287	1.337375
H111	H	0.185048	0.624898	0.456026
H112	H	0.685048	1.124898	0.956026
H113	H	0.848209	0.624547	0.764093
H114	H	1.348209	1.124547	1.264093
C115	C	0.834236	0.643702	0.627315
C116	C	1.334236	1.143702	1.127315
N117	N	0.793787	0.699084	0.602569
N118	N	1.293787	1.199084	1.102569
C119	C	0.834286	0.643571	0.983075
C120	C	1.334286	1.143571	1.483075
N121	N	0.793830	0.698946	0.958333
N122	N	1.293830	1.198946	1.458333
C123	C	0.994192	0.882718	0.310133
C124	C	1.494192	1.382718	0.810133
N125	N	1.033768	0.837388	0.270599
N126	N	1.533768	1.337388	0.770599
H127	H	0.865845	0.935687	0.438300
H128	H	1.365845	1.435687	0.938300
C129	C	0.196468	0.362963	0.265345
C130	C	0.696468	0.862963	0.765345
N131	N	0.171744	0.307517	0.224987
N132	N	0.671744	0.807517	0.724987
H133	H	0.892907	1.107508	0.411352
H134	H	1.392907	1.607508	0.911352
H135	H	1.007617	1.070178	0.296813
H136	H	1.507617	1.570178	0.796813
H137	H	0.313282	0.624897	0.455996
H138	H	0.813282	1.124897	0.955996
H139	H	1.025302	0.382127	0.616000
H140	H	1.525302	0.882127	1.116000
H141	H	1.025320	0.382077	0.744230
H142	H	1.525320	0.882077	1.244230
H143	H	0.333243	0.382084	0.279241
H144	H	0.833243	0.882084	0.779241
C145	C	1.039300	0.362899	0.960085
C146	C	1.539300	0.862899	1.460085
N147	N	1.079733	0.307531	0.926271
N148	N	1.579733	0.807531	1.426271
C149	C	1.039325	0.362844	1.108525
C150	C	1.539325	0.862844	1.608525
N151	N	1.079769	0.307460	1.133274
N152	N	1.579769	0.807460	1.633274
C153	C	0.529138	0.644003	0.469874
C154	C	1.029138	1.144003	0.969874
N155	N	0.495300	0.699467	0.510233
N156	N	0.995300	1.199467	1.010233
C157	C	0.552242	0.362916	0.265284
C158	C	1.052242	0.862916	0.765284
N159	N	0.527523	0.307457	0.224930
N160	N	1.027523	0.807457	0.724930
C161	C	0.677583	0.643983	0.469853
C162	C	1.177583	1.143983	0.969853
N163	N	0.702312	0.699429	0.510208
N164	N	1.202312	1.199429	1.010208
C165	C	0.700679	0.362915	0.265254
C166	C	1.200679	0.862915	0.765254
N167	N	0.734518	0.307471	0.224886
N168	N	1.234518	0.807471	0.724886
H169	H	0.848266	0.624435	1.119842
H170	H	1.348266	1.124435	1.619842
