data_functionalizedCrystal
_audit_creation_method	'MofGen! by Chris Wilmer'
_symmetry_space_group_name_H-M	'P1'
_symmetry_Int_Tables_number	1
_symmetry_cell_setting	triclinic
loop_
_symmetry_equiv_pos_as_xyz
  x,y,z
_cell_length_a	16.992701
_cell_length_b	17.019370
_cell_length_c	15.455313
_cell_angle_alpha	96.534600
_cell_angle_beta	87.136501
_cell_angle_gamma	87.022613
loop_
_atom_site_label
_atom_site_type_symbol
_atom_site_fract_x
_atom_site_fract_y
_atom_site_fract_z
O1	O	1.043058	0.164559	-0.059851
O2	O	0.814782	0.162720	-0.059988
O3	O	0.935697	0.048826	-0.068486
O4	O	0.922143	0.278453	-0.051353
O5	O	0.928783	0.055311	0.076260
O6	O	0.807867	0.169205	0.084758
O7	O	1.036144	0.171044	0.084895
Cu8	Cu	0.921374	0.170716	0.098043
Cu9	Cu	0.929551	0.163048	-0.073136
O10	O	0.915228	0.284938	0.093393
C11	C	0.782123	0.163594	0.012208
C12	C	0.695112	0.156529	0.011680
C13	C	0.931862	0.022551	0.001683
C14	C	0.930727	-0.065404	-0.004886
C15	C	0.206375	0.109053	0.008135
C16	C	0.288130	0.115699	0.008636
C17	C	0.319323	0.190526	0.014215
C18	C	0.268756	0.258713	0.019303
C19	C	0.187002	0.252067	0.018808
C20	C	0.562791	0.218070	0.016273
C21	C	0.644552	0.224711	0.016765
C22	C	0.663919	0.081695	0.006100
C23	C	0.582163	0.075056	0.005600
C24	C	0.531603	0.143243	0.010692
N25	N	0.402890	0.197320	0.014725
N26	N	0.448038	0.136448	0.010189
C27	C	0.926423	-0.103198	0.070926
C28	C	0.925362	-0.185842	0.064746
C29	C	0.928599	-0.230690	-0.017245
C30	C	0.932906	-0.192890	-0.093062
C31	C	0.933973	-0.110248	-0.086882
C32	C	0.925572	-0.480391	-0.039852
C33	C	0.924503	-0.563038	-0.046026
C34	C	0.916960	-0.555984	0.111783
C35	C	0.918023	-0.473341	0.117956
C36	C	0.922333	-0.435549	0.042139
C37	C	0.927512	-0.315164	-0.023563
C38	C	0.923426	-0.351076	0.048458
C39	C	1.068803	0.170170	0.012697
C40	C	1.155814	0.177235	0.013219
C41	C	0.919063	0.311214	0.023223
C42	C	0.920199	0.399168	0.029785
N43	N	0.915629	0.176110	0.218441
N44	N	0.935303	0.157648	-0.193534
C45	C	0.967016	0.127744	0.260226
C46	C	0.962678	0.131830	0.351339
C47	C	0.906956	0.184288	0.400665
C48	C	0.855564	0.232656	0.358874
C49	C	0.859898	0.228564	0.267762
C50	C	0.888246	0.201925	0.673563
C51	C	0.883916	0.206015	0.764680
C52	C	0.991030	0.105188	0.757140
C53	C	0.995363	0.101105	0.666027
C54	C	0.943968	0.149470	0.624243
N55	N	0.902522	0.188468	0.493797
N56	N	0.948398	0.145285	0.531112
H57	H	0.180984	0.048120	0.003586
H58	H	0.145836	0.307589	0.022951
C59	C	0.719541	0.006695	0.000512
N60	N	0.761435	-0.049798	-0.003690
H61	H	0.923774	-0.066688	0.137692
C62	C	0.507185	0.293080	0.021886
N63	N	0.465299	0.349581	0.026119
C64	C	0.303072	0.341025	0.025443
N65	N	0.328917	0.403024	0.030064
H66	H	1.012393	0.085031	0.220071
H67	H	0.838539	0.248735	0.804838
C68	C	0.803375	0.281778	0.221800
N69	N	0.760800	0.321860	0.187182
C70	C	0.920620	-0.227411	0.148146
N71	N	0.917046	-0.258720	0.210966
H72	H	1.004520	0.092446	0.385360
C73	C	0.914460	-0.424014	0.208153
N74	N	0.911773	-0.386861	0.276090
C75	C	1.056657	0.043393	0.611774
N76	N	1.102825	-0.000075	0.570911
H77	H	0.935547	-0.229412	-0.159821
H78	H	0.937478	-0.079478	-0.148616
C79	C	0.343743	0.040692	0.003042
N80	N	0.385631	-0.015806	-0.001171
C81	C	0.928033	-0.612367	-0.136227
N82	N	0.930680	-0.649521	-0.204162
H83	H	0.556772	0.014123	0.001057
H84	H	0.846399	0.241308	0.639550
H85	H	0.929081	-0.449631	-0.101588
C86	C	1.047554	0.051983	0.803109
N87	N	1.090128	0.011904	0.837733
H88	H	0.810190	0.275365	0.399040
H89	H	0.669945	0.285648	0.021321
H90	H	0.913452	-0.586763	0.173509
H91	H	0.920795	-0.314558	0.115215
H92	H	0.930146	-0.351688	-0.090321
