data_functionalizedCrystal
_audit_creation_method	'MofGen! by Chris Wilmer'
_symmetry_space_group_name_H-M	'P1'
_symmetry_Int_Tables_number	1
_symmetry_cell_setting	triclinic
loop_
_symmetry_equiv_pos_as_xyz
  x,y,z
_cell_length_a	18.050589
_cell_length_b	12.759401
_cell_length_c	12.759393
_cell_angle_alpha	90.022017
_cell_angle_beta	89.971089
_cell_angle_gamma	89.970957
loop_
_atom_site_label
_atom_site_type_symbol
_atom_site_fract_x
_atom_site_fract_y
_atom_site_fract_z
Zn1	Zn	-0.295612	-1.606163	-0.594071
Zn2	Zn	-0.419818	-1.606014	-0.418394
Zn3	Zn	-0.295648	-1.430463	-0.418401
Zn4	Zn	-0.419766	-1.430412	-0.594026
O5	O	-0.357711	-1.518263	-0.506223
O6	O	-0.312095	-1.753164	-0.570782
O7	O	-0.403384	-1.582686	-0.271374
O8	O	-0.191719	-1.453854	-0.441726
O9	O	-0.403349	-1.753055	-0.441713
O10	O	-0.191692	-1.582939	-0.570789
O11	O	-0.312157	-1.453709	-0.271379
O12	O	-0.312107	-1.283435	-0.441683
O13	O	-0.403260	-1.453767	-0.741053
O14	O	-0.403295	-1.283398	-0.570714
O15	O	-0.312044	-1.582890	-0.741086
O16	O	-0.523736	-1.582636	-0.441670
O17	O	-0.523698	-1.453622	-0.570706
C18	C	-0.357700	-1.245295	-0.506195
C19	C	-0.357713	-1.128519	-0.506207
C20	C	-0.550663	-1.518136	-0.506205
C21	C	-0.633209	-1.518178	-0.506233
C22	C	-0.832666	-1.448089	-0.576379
C23	C	-0.882113	-1.422474	-0.480509
C24	C	-0.784340	-1.518281	-0.506247
C25	C	-0.881974	-1.543948	-0.602127
C26	C	-0.930325	-1.518379	-0.506269
C27	C	-0.832699	-1.492616	-0.410326
C28	C	-0.832556	-1.614134	-0.532010
C29	C	-0.881981	-1.588555	-0.436074
C30	C	-0.700241	-1.518222	-0.506236
C31	C	-1.014421	-1.518438	-0.506269
C32	C	-0.405267	-1.073665	-0.573287
C33	C	-0.405269	-0.963941	-0.573305
C34	C	-0.310161	-0.963934	-0.439155
C35	C	-0.310156	-1.073656	-0.439143
C36	C	-0.164006	-1.518419	-0.506263
C37	C	-0.081460	-1.518485	-0.506281
C38	C	-0.357642	-1.518339	-0.780256
C39	C	-0.357613	-1.518372	-0.897033
C40	C	-0.357721	-0.792296	-0.506245
C41	C	-0.357720	-0.909073	-0.506237
C42	C	-0.405059	-1.585557	-1.061628
C43	C	-0.405095	-1.585532	-0.951904
C44	C	-0.310098	-1.451225	-0.951892
C45	C	-0.310067	-1.451246	-1.061615
C46	C	-0.357727	-1.518247	-0.233256
C47	C	-0.357547	-1.518418	-0.116479
H48	H	-0.811012	-1.388643	-0.635603
C49	C	-0.257799	-1.377392	-1.121956
H50	H	-0.229519	-1.337395	-1.073567
H51	H	-0.286194	-1.331602	-1.164746
H52	H	-0.225429	-1.417625	-1.164769
H53	H	-0.271442	-0.919252	-0.384552
C54	C	-0.457575	-1.134015	-0.647053
H55	H	-0.450769	-1.207219	-0.637433
H56	H	-0.446771	-1.116078	-0.717673
H57	H	-0.507462	-1.115990	-0.631546
C58	C	-0.803586	-1.463204	-0.300772
H59	H	-0.750956	-1.463310	-0.301443
H60	H	-0.820864	-1.512782	-0.250919
H61	H	-0.820967	-1.395353	-0.282377
C62	C	-0.911522	-1.313030	-0.451075
H63	H	-0.894642	-1.263202	-0.500964
H64	H	-0.893926	-1.294347	-0.383453
H65	H	-0.964147	-1.314019	-0.450675
H66	H	-0.271427	-1.118320	-0.384519
H67	H	-0.443721	-1.640252	-1.106296
H68	H	-0.903498	-1.647956	-0.376707
H69	H	-0.810774	-1.695130	-0.553826
H70	H	-0.903619	-1.565618	-0.683204
C71	C	-0.257876	-1.377336	-0.891543
H72	H	-0.229582	-1.337343	-0.939928
H73	H	-0.225529	-1.417532	-0.848747
H74	H	-0.286307	-1.331527	-0.848734
H75	H	-0.443991	-0.919284	-0.627929
H76	H	-0.443784	-1.640203	-0.907248
