data_functionalizedCrystal
_audit_creation_method	'MofGen! by Chris Wilmer'
_symmetry_space_group_name_H-M	'P1'
_symmetry_Int_Tables_number	1
_symmetry_cell_setting	triclinic
loop_
_symmetry_equiv_pos_as_xyz
  x,y,z
_cell_length_a	18.050591
_cell_length_b	18.050589
_cell_length_c	18.050583
_cell_angle_alpha	89.971909
_cell_angle_beta	89.975765
_cell_angle_gamma	90.024227
loop_
_atom_site_label
_atom_site_type_symbol
_atom_site_fract_x
_atom_site_fract_y
_atom_site_fract_z
Zn1	Zn	1.135317	-0.295713	-0.420054
Zn2	Zn	1.135220	-0.419918	-0.295873
Zn3	Zn	1.011129	-0.295738	-0.295865
Zn4	Zn	1.011084	-0.419857	-0.420009
O5	O	1.073188	-0.357807	-0.357950
O6	O	1.239229	-0.312204	-0.403604
O7	O	1.118738	-0.403481	-0.191948
O8	O	1.027662	-0.191810	-0.312354
O9	O	1.239158	-0.403457	-0.312369
O10	O	1.118902	-0.191792	-0.403595
O11	O	1.027568	-0.312246	-0.191942
O12	O	0.907198	-0.312187	-0.312311
O13	O	1.027585	-0.403354	-0.523940
O14	O	0.907165	-0.403377	-0.403519
O15	O	1.118859	-0.312146	-0.523973
O16	O	1.118694	-0.523835	-0.312325
O17	O	1.027492	-0.523790	-0.403527
C18	C	0.880235	-0.357779	-0.357909
C19	C	0.797690	-0.357785	-0.357909
C20	C	0.598235	-0.308138	-0.308425
C21	C	0.548815	-0.375877	-0.290154
C22	C	0.646559	-0.357807	-0.357943
C23	C	0.548898	-0.290092	-0.376212
C24	C	0.500574	-0.357823	-0.357974
C25	C	0.598226	-0.425582	-0.339637
C26	C	0.598314	-0.339751	-0.425726
C27	C	0.548915	-0.407537	-0.407481
C28	C	0.730658	-0.357797	-0.357923
C29	C	0.416478	-0.357841	-0.357994
C30	C	1.073098	-0.550759	-0.357938
C31	C	1.073127	-0.633304	-0.357958
C32	C	1.023580	-0.832758	-0.407536
C33	C	1.005479	-0.882202	-0.339767
C34	C	1.073200	-0.784435	-0.357967
C35	C	1.091339	-0.882072	-0.425744
C36	C	1.073269	-0.930420	-0.357983
C37	C	1.055063	-0.832792	-0.290162
C38	C	1.140955	-0.832657	-0.376186
C39	C	1.122879	-0.882080	-0.308370
C40	C	1.073159	-0.700337	-0.357959
C41	C	1.073311	-1.014516	-0.357983
C42	C	1.266893	-0.357835	-0.357992
C43	C	1.349439	-0.357847	-0.358010
C44	C	1.073228	-0.357740	-0.551656
C45	C	1.073245	-0.357712	-0.634202
C46	C	1.073298	-0.164101	-0.357979
C47	C	1.073345	-0.081555	-0.357991
C48	C	1.122926	-0.308063	-0.883046
C49	C	1.141048	-0.375827	-0.833639
C50	C	1.073293	-0.357665	-0.931322
C51	C	1.055182	-0.289927	-0.833648
C52	C	1.073271	-0.357684	-0.785337
C53	C	1.091450	-0.425465	-0.883003
C54	C	1.005553	-0.339519	-0.883016
C55	C	1.023649	-0.407331	-0.833631
C56	C	1.073307	-0.357652	-1.015421
C57	C	1.073257	-0.357704	-0.701241
C58	C	1.073190	-0.357819	-0.164998
C59	C	1.073317	-0.357638	-0.082453
H60	H	0.527396	-0.449596	-0.449370
N61	N	0.521520	-0.395058	-0.218270
N62	N	0.481889	-0.451276	-0.210091
H63	H	0.462612	-0.464819	-0.159322
H64	H	0.527191	-0.232827	-0.391625
N65	N	0.625300	-0.497448	-0.320187
N66	N	0.693492	-0.509033	-0.317011
H67	H	0.712616	-0.559787	-0.303273
N68	N	0.625603	-0.320547	-0.497601
N69	N	0.609844	-0.259091	-0.525363
H70	H	0.629117	-0.245520	-0.576125
H71	H	1.198324	-0.391187	-0.811947
N72	N	1.175618	-0.255493	-0.910282
N73	N	1.154615	-0.202724	-0.949905
H74	H	1.191829	-0.165599	-0.969143
N75	N	1.110734	-0.497357	-0.910091
N76	N	1.113879	-0.508944	-0.978286
H77	H	1.127499	-0.559716	-0.997420
N78	N	1.035964	-0.218063	-0.806439
N79	N	1.032344	-0.206711	-0.738228
H80	H	1.018775	-0.155955	-0.719013
H81	H	1.198207	-0.810881	-0.391613
N82	N	1.035768	-0.805762	-0.218241
N83	N	1.074866	-0.822073	-0.163477
H84	H	1.061237	-0.802981	-0.112684
N85	N	0.970864	-0.805568	-0.460037
N86	N	0.962762	-0.737359	-0.468824
H87	H	0.925529	-0.718153	-0.505899
H88	H	0.948213	-0.903981	-0.324371
H89	H	1.164870	-0.903599	-0.266409
N90	N	1.110540	-0.909231	-0.497642
N91	N	1.071087	-0.893414	-0.552297
H92	H	1.084641	-0.912594	-0.603077
N93	N	0.970985	-0.460027	-0.806591
N94	N	0.977749	-0.527060	-0.822554
H95	H	0.940558	-0.564279	-0.803456
N96	N	0.933727	-0.320211	-0.910255
N97	N	0.925892	-0.264601	-0.950789
H98	H	0.875164	-0.250957	-0.970029
N99	N	0.625397	-0.255504	-0.255831
N100	N	0.609503	-0.262250	-0.188759
H101	H	0.628686	-0.225081	-0.151613
