data_functionalizedCrystal
_audit_creation_method	'MofGen! by Chris Wilmer'
_symmetry_space_group_name_H-M	'P1'
_symmetry_Int_Tables_number	1
_symmetry_cell_setting	triclinic
loop_
_symmetry_equiv_pos_as_xyz
  x,y,z
_cell_length_a	15.537862
_cell_length_b	17.038272
_cell_length_c	14.185569
_cell_angle_alpha	75.875097
_cell_angle_beta	97.877082
_cell_angle_gamma	69.187995
loop_
_atom_site_label
_atom_site_type_symbol
_atom_site_fract_x
_atom_site_fract_y
_atom_site_fract_z
O1	O	1.210580	-0.225122	-0.083361
O2	O	0.943379	-0.136830	-0.083376
O3	O	1.075393	-0.294343	-0.083361
O4	O	1.078565	-0.067609	-0.083377
O5	O	1.114391	-0.340870	0.083478
O6	O	0.982377	-0.183357	0.083463
O7	O	1.249578	-0.271649	0.083478
Cu8	Cu	1.119538	-0.231751	0.098704
Cu9	Cu	1.073418	-0.176728	-0.098603
O10	O	1.117564	-0.114136	0.083462
C11	C	0.928520	-0.150856	0.000041
C12	C	0.826145	-0.123339	0.000036
C13	C	0.676452	-0.011802	0.000024
C14	C	0.772650	-0.037667	0.000029
C15	C	0.783458	-0.183180	0.000043
C16	C	0.687260	-0.157329	0.000044
C17	C	0.633765	-0.071638	0.000033
C18	C	0.644572	-0.217165	0.000052
C19	C	0.548382	-0.191314	0.000047
C20	C	0.494880	-0.105626	0.000033
C21	C	0.537574	-0.045787	0.000028
C22	C	0.698068	-0.302853	0.000056
C23	C	0.655380	-0.362690	0.000065
C24	C	0.559190	-0.336841	0.000067
C25	C	0.505687	-0.251153	0.000053
C26	C	0.516495	-0.396680	0.000073
C27	C	0.420305	-0.370829	0.000068
C28	C	0.409497	-0.225302	0.000048
C29	C	1.092003	-0.345916	0.000058
C30	C	1.083385	-0.430264	0.000057
C31	C	1.162513	-0.502822	0.000063
C32	C	1.154408	-0.582071	0.000053
C33	C	1.067174	-0.588763	0.000045
C34	C	0.988039	-0.516196	0.000036
C35	C	0.996144	-0.436947	0.000039
C36	C	1.038540	-0.826396	0.000029
C37	C	1.030441	-0.905655	0.000029
C38	C	1.196810	-0.971524	0.000044
C39	C	1.204909	-0.892272	0.000053
C40	C	1.125773	-0.819710	0.000039
C41	C	1.058887	-0.669769	0.000038
C42	C	1.134059	-0.738705	0.000039
C43	C	1.264436	-0.257623	0.000058
C44	C	1.366809	-0.285138	0.000057
C45	C	1.100953	-0.062563	0.000041
C46	C	1.109570	0.021787	0.000035
N47	N	1.151984	-0.270454	0.237479
N48	N	1.040980	-0.138033	-0.237378
C49	C	0.945653	-0.024357	0.605105
C50	C	0.970237	-0.053671	0.710129
C51	C	1.087164	-0.193117	0.710104
C52	C	1.062587	-0.163817	0.605077
C53	C	0.991832	-0.079436	0.552586
C54	C	1.108765	-0.218895	0.552558
C55	C	1.084194	-0.189595	0.447541
C56	C	1.013443	-0.105216	0.395042
C57	C	0.967260	-0.050135	0.447568
C58	C	1.179525	-0.303273	0.605051
C59	C	1.225704	-0.358352	0.552533
C60	C	1.201127	-0.329054	0.447513
C61	C	1.130377	-0.244676	0.395015
C62	C	1.247311	-0.384135	0.394987
C63	C	1.222739	-0.354835	0.289970
C64	C	1.105805	-0.215376	0.289997
H65	H	0.807405	0.011062	0.000033
H66	H	1.304927	-0.452836	0.437739
H67	H	0.560063	-0.466446	0.000072
H68	H	0.365941	-0.155528	0.000053
Br69	Br	0.849613	0.090156	0.533861
Br70	Br	0.364332	-0.070537	0.000019
Br71	Br	0.727989	-0.478980	0.000078
H72	H	1.275944	-0.886832	0.000060
H73	H	0.917010	-0.521649	0.000023
H74	H	0.494018	0.023987	0.000032
Br75	Br	1.280911	-0.493754	0.000089
H76	H	1.048182	-0.146668	0.247257
H77	H	1.218843	-0.641148	0.000060
H78	H	1.261238	-1.030610	0.000054
H79	H	0.931709	-0.377868	0.000034
H80	H	1.199532	-0.327124	0.690563
Br81	Br	1.285417	-0.429584	0.218691
H82	H	0.959406	-0.911100	0.000039
Br83	Br	0.603848	0.104487	0.000035
Br84	Br	0.980101	-0.065446	0.252517
H85	H	1.205078	-0.733246	0.000024
Br86	Br	0.907560	0.021095	0.781398
Br87	Br	0.931138	-0.727929	0.000004
H88	H	0.909637	0.018572	0.404828
H89	H	0.987862	-0.675227	0.000033
H90	H	0.827026	-0.252949	0.000049
Br91	Br	0.828611	-0.337935	0.000052
H92	H	1.144776	-0.261820	0.752854
H93	H	0.385548	-0.419553	0.000073
Br94	Br	1.321730	-0.472864	0.623777
