data_functionalizedCrystal
_audit_creation_method	'MofGen! by Chris Wilmer'
_symmetry_space_group_name_H-M	'P1'
_symmetry_Int_Tables_number	1
_symmetry_cell_setting	triclinic
loop_
_symmetry_equiv_pos_as_xyz
  x,y,z
_cell_length_a	29.999520
_cell_length_b	29.998686
_cell_length_c	29.995014
_cell_angle_alpha	60.005185
_cell_angle_beta	60.010401
_cell_angle_gamma	59.993433
loop_
_atom_site_label
_atom_site_type_symbol
_atom_site_fract_x
_atom_site_fract_y
_atom_site_fract_z
O1	O	0.061772	-0.651300	0.544623
O2	O	0.023267	-0.507084	0.438819
O3	O	0.114589	-0.598332	0.438743
O4	O	-0.029550	-0.560051	0.544699
O5	O	0.144886	-0.568039	0.468961
O6	O	0.053564	-0.476791	0.469038
O7	O	0.092069	-0.621007	0.574841
Zn8	Zn	0.077627	-0.544089	0.526737
Zn9	Zn	0.037709	-0.584002	0.486923
O10	O	0.000748	-0.529758	0.574918
N11	N	0.104871	-0.516854	0.553912
N12	N	0.010470	-0.611242	0.459748
C13	C	0.143162	-0.478782	0.827124
C14	C	0.378203	-0.478734	0.591892
C15	C	0.143005	-0.478752	0.591997
C16	C	0.142986	-0.243586	0.592008
C17	C	0.180857	-0.357087	0.629814
C18	C	0.180866	-0.440920	0.629807
C19	C	0.201840	-0.419964	0.650755
C20	C	0.293272	-0.404201	0.602606
C21	C	0.350426	-0.423248	0.583534
C22	C	0.350451	-0.515727	0.618798
C23	C	0.293297	-0.496678	0.637872
C24	C	0.194628	-0.328499	0.573626
C25	C	0.175551	-0.271340	0.554591
C26	C	0.128936	-0.271362	0.647935
C27	C	0.148014	-0.328521	0.666970
C28	C	0.124672	-0.427119	0.643641
C29	C	0.105611	-0.446170	0.624592
C30	C	0.198934	-0.492820	0.577889
C31	C	0.217998	-0.473770	0.596931
C32	C	0.124740	-0.427136	0.742229
C33	C	0.105728	-0.446202	0.799386
C34	C	0.199085	-0.492863	0.799337
C35	C	0.218096	-0.473798	0.742178
C36	C	0.180923	-0.440933	0.713626
C37	C	0.264710	-0.440915	0.629773
C38	C	0.121509	-0.499370	0.889991
C39	C	0.441068	-0.498953	0.570621
C40	C	0.121297	-0.499349	0.571429
C41	C	0.121653	-0.180715	0.571802
C42	C	-0.111071	-0.648912	0.421584
C43	C	-0.027286	-0.649018	0.421777
C44	C	-0.048200	-0.669944	0.400740
C45	C	-0.064036	-0.761340	0.448814
C46	C	-0.045033	-0.818500	0.467893
C47	C	0.047447	-0.818609	0.432797
C48	C	0.028444	-0.761451	0.413717
C49	C	-0.139731	-0.662677	0.477755
C50	C	-0.196885	-0.643554	0.496701
C51	C	-0.196717	-0.596907	0.403303
C52	C	-0.139562	-0.616030	0.384357
C53	C	-0.041053	-0.592827	0.407952
C54	C	-0.022041	-0.573809	0.427083
C55	C	0.024504	-0.667167	0.473848
C56	C	0.005492	-0.686188	0.454725
C57	C	-0.040886	-0.592836	0.309259
C58	C	-0.021740	-0.573821	0.252102
C59	C	0.024886	-0.667185	0.252163
C60	C	0.005743	-0.686199	0.309322
C61	C	-0.027145	-0.649023	0.337868
C62	C	-0.027299	-0.732818	0.421728
N63	N	0.492511	-0.516826	0.553742
O64	O	0.679283	-0.525926	0.419277
O65	O	0.679465	-0.632059	0.563349
O66	O	0.679393	-0.631817	0.471975
O67	O	0.679355	-0.526168	0.510650
O68	O	0.588593	-0.601610	0.502313
O69	O	0.588665	-0.601852	0.593686
O70	O	0.588483	-0.495720	0.449614
Zn71	Zn	0.574158	-0.543990	0.526467
Zn72	Zn	0.693790	-0.583788	0.486496
O73	O	0.588555	-0.495962	0.540987
N74	N	0.775436	-0.610952	0.459215
N75	N	0.104844	-0.129269	0.553931
O76	O	-0.029548	0.057600	0.544709
O77	O	0.114530	0.057617	0.438578
O78	O	0.023130	0.057594	0.438850
O79	O	0.061852	0.057623	0.544437
O80	O	0.053431	-0.033213	0.469115
O81	O	0.144831	-0.033190	0.468843
O82	O	0.000753	-0.033207	0.574974
Zn83	Zn	0.077603	-0.047616	0.526714
Zn84	Zn	0.037680	0.072026	0.486838
O85	O	0.092153	-0.033184	0.574702
N86	N	0.010432	0.153679	0.459622
N87	N	0.105130	-0.516904	0.941437
O88	O	0.095923	-0.651280	1.128292
O89	O	-0.010184	-0.507155	1.128318
O90	O	-0.009938	-0.598539	1.128284
O91	O	0.095677	-0.559897	1.128326
O92	O	0.020315	-0.568257	1.037481
O93	O	0.020068	-0.476874	1.037515
O94	O	0.126176	-0.620999	1.037489
Zn95	Zn	0.077925	-0.544128	1.023085
Zn96	Zn	0.038066	-0.584026	1.142722
O97	O	0.125929	-0.529616	1.037523
N98	N	0.010860	-0.611256	1.224371
C99	C	0.034807	-0.473765	0.439352
C100	C	0.147897	-0.586765	0.439257
C101	C	0.080529	-0.654326	0.574308
C102	C	-0.032561	-0.541326	0.574403
C103	C	0.634087	-0.631571	0.596668
C104	C	0.633999	-0.631272	0.483513
C105	C	0.633858	-0.496206	0.416295
C106	C	0.633949	-0.496507	0.529449
C107	C	0.147793	0.012327	0.439058
C108	C	0.034644	0.012187	0.439432
C109	C	-0.032548	0.012195	0.574457
C110	C	0.080639	0.012222	0.574120
C111	C	-0.009670	-0.473857	1.082920
C112	C	-0.009359	-0.587018	1.082860
C113	C	0.125662	-0.654297	1.082887
C114	C	0.125358	-0.541129	1.082927
H115	H	0.094465	-0.400370	0.718985
H116	H	0.026351	0.012184	0.406260
H117	H	0.158977	-0.695688	1.082873
O118	O	-0.049363	-0.424455	1.082952
C119	C	-0.029707	-0.390477	1.082955
H120	H	0.005343	-0.416735	1.100148
H121	H	-0.014554	-0.362903	1.039397
C122	C	-0.119102	-0.322892	1.097456
C123	C	-0.076055	-0.355142	1.118577
H124	H	-0.147692	-0.301093	1.119427
H125	H	-0.132344	-0.345782	1.097452
H126	H	-0.106467	-0.299918	1.061158
H127	H	-0.088689	-0.378120	1.154872
H128	H	-0.062816	-0.332255	1.118588
H129	H	-0.073925	0.012190	0.607776
O130	O	0.024939	-0.424369	0.399690
C131	C	-0.019276	-0.414621	0.387137
H132	H	-0.023616	-0.455176	0.399182
H133	H	-0.058413	-0.388328	0.410634
C134	C	-0.003513	-0.334895	0.310620
C135	C	-0.008841	-0.384707	0.325410
H136	H	0.002922	-0.316441	0.272545
H137	H	0.026274	-0.341461	0.319078
H138	H	-0.036129	-0.312991	0.330206
H139	H	0.023777	-0.406612	0.305830
H140	H	-0.038623	-0.378144	0.316947
O141	O	-0.081971	-0.531498	0.614048
C142	C	-0.115904	-0.477854	0.594308
H143	H	-0.089615	-0.451926	0.559242
H144	H	-0.143480	-0.478685	0.579149
C145	C	-0.183522	-0.485002	0.683658
C146	C	-0.151233	-0.453156	0.640592
H147	H	-0.205317	-0.469768	0.712208
H148	H	-0.160662	-0.521144	0.696957
H149	H	-0.206497	-0.485692	0.671018
H150	H	-0.128254	-0.452473	0.653230
H151	H	-0.174091	-0.417014	0.627296
H152	H	0.633941	-0.463320	0.537725
O153	O	0.090627	0.012197	0.613647
C154	C	0.144291	0.012216	0.593745
H155	H	0.170105	-0.004968	0.558692
H156	H	0.143478	0.055782	0.578519
C157	C	0.137430	-0.002293	0.682973
C158	C	0.169137	-0.023404	0.639925
H159	H	0.152756	-0.024263	0.711459
H160	H	0.101275	-0.002304	0.696382
H161	H	0.136755	0.034012	0.670278
H162	H	0.169805	-0.059705	0.652618
H163	H	0.205293	-0.023399	0.626519
O164	O	0.197074	0.012661	0.399257
C165	C	0.231036	0.012762	0.418866
H166	H	0.204776	0.029775	0.454040
H167	H	0.258816	-0.030743	0.433831
C168	C	0.298333	0.027766	0.329352
C169	C	0.266080	0.048666	0.372551
H170	H	0.319952	0.049910	0.300782
H171	H	0.275453	0.027695	0.316141
H172	H	0.321478	-0.008488	0.341830
H173	H	0.242931	0.084916	0.360073
H174	H	0.288957	0.048743	0.385758
O175	O	0.164997	-0.531368	1.082957
C176	C	0.212119	-0.578253	1.082934
H177	H	0.200202	-0.615788	1.100116
H178	H	0.241801	-0.573845	1.039369
C179	C	0.254233	-0.538615	1.097443
C180	C	0.239596	-0.584718	1.118551
H181	H	0.271184	-0.542603	1.119412
H182	H	0.222487	-0.507027	1.097457
H183	H	0.278966	-0.534947	1.061140
H184	H	0.214859	-0.588382	1.154851
H185	H	0.271339	-0.616307	1.118544
O186	O	0.051131	-0.432720	0.827082
C187	C	0.022402	-0.399634	0.789621
H188	H	0.049642	-0.378852	0.748872
H189	H	0.010069	-0.425999	0.783548
C190	C	-0.062572	-0.381477	0.861998
C191	C	-0.029118	-0.355948	0.811950
H192	H	-0.094353	-0.354531	0.875772
H193	H	-0.043218	-0.403768	0.887236
H194	H	-0.072844	-0.403447	0.856930
H195	H	-0.018841	-0.333985	0.817019
H196	H	-0.048472	-0.333652	0.786713
O197	O	0.235271	-0.524793	0.826984
C198	C	0.288935	-0.532864	0.789479
H199	H	0.288804	-0.526475	0.748744
H200	H	0.305301	-0.502435	0.783392
C201	C	0.325787	-0.599266	0.861789
C202	C	0.325626	-0.591423	0.811759
H203	H	0.348421	-0.635386	0.875533
H204	H	0.289633	-0.593827	0.887058
H205	H	0.339424	-0.573904	0.856710
H206	H	0.311984	-0.616779	0.816839
H207	H	0.361780	-0.596867	0.786491
H208	H	0.634133	-0.664888	0.638048
O209	O	-0.048860	-0.596942	1.082775
C210	C	-0.028972	-0.650612	1.082759
H211	H	0.017533	-0.664993	1.065599
H212	H	-0.042798	-0.678864	1.126308
C213	C	-0.108509	-0.633988	1.068167
C214	C	-0.051391	-0.651649	1.047087
H215	H	-0.122340	-0.634628	1.046166
H216	H	-0.121909	-0.597830	1.068180
H217	H	-0.120023	-0.657533	1.104458
H218	H	-0.039878	-0.628100	1.010800
H219	H	-0.037990	-0.687803	1.047068
H220	H	0.263847	-0.485039	0.718893
H221	H	0.094434	-0.400372	0.670409
O222	O	-0.224751	-0.656832	0.551264
C223	C	-0.257821	-0.608787	0.565043
H224	H	-0.240547	-0.574483	0.532850
H225	H	-0.301116	-0.596710	0.566853
C226	C	-0.280013	-0.661089	0.660677
C227	C	-0.258793	-0.618958	0.621140
H228	H	-0.280615	-0.667363	0.695281
H229	H	-0.257734	-0.693459	0.651395
H230	H	-0.316090	-0.651020	0.662178
H231	H	-0.222715	-0.629031	0.619634
H232	H	-0.281066	-0.586590	0.630423
H233	H	0.059853	-0.434921	0.635844
O234	O	0.633919	-0.670819	0.473650
C235	C	0.586875	-0.652031	0.460822
H236	H	0.553998	-0.618144	0.478466
H237	H	0.597461	-0.635549	0.414589
C238	C	0.605978	-0.741172	0.463759
C239	C	0.565597	-0.699554	0.485434
H240	H	0.592854	-0.770486	0.478938
H241	H	0.637674	-0.753829	0.472399
H242	H	0.614796	-0.727430	0.425231
H243	H	0.556784	-0.713295	0.523959
H244	H	0.533899	-0.686900	0.476800
O245	O	0.235079	-0.524709	0.545943
C246	C	0.288763	-0.532815	0.537836
H247	H	0.288660	-0.498356	0.544225
H248	H	0.305163	-0.573536	0.568245
C249	C	0.325517	-0.575531	0.471425
C250	C	0.325391	-0.533206	0.479268
H251	H	0.348112	-0.575775	0.435299
H252	H	0.289349	-0.570072	0.476888
H253	H	0.339182	-0.609461	0.496769
H254	H	0.311720	-0.499277	0.453929
H255	H	0.361558	-0.538659	0.473799
H256	H	0.263756	-0.485001	0.585661
H257	H	0.373728	-0.561133	0.625383
O258	O	0.265635	-0.532414	0.664229
C259	C	0.303126	-0.585718	0.667294
H260	H	0.343853	-0.583540	0.633524
H261	H	0.309234	-0.607540	0.708707
C262	C	0.230788	-0.620085	0.701791
C263	C	0.280810	-0.617410	0.660312
H264	H	0.217023	-0.639635	0.697487
H265	H	0.205530	-0.584174	0.699728
H266	H	0.235885	-0.638268	0.736298
H267	H	0.275711	-0.599221	0.625806
H268	H	0.306067	-0.653319	0.662368
H269	H	0.186762	-0.248063	0.508836
H270	H	-0.219915	-0.570138	0.372989
H271	H	0.270000	-0.358795	0.596010
O272	O	0.378089	-0.387508	0.557132
C273	C	0.340600	-0.334206	0.554085
H274	H	0.299852	-0.331982	0.557845
H275	H	0.334542	-0.323538	0.588712
C276	C	0.412924	-0.296132	0.494284
C277	C	0.362878	-0.293398	0.498898
H278	H	0.426666	-0.270959	0.460244
H279	H	0.438181	-0.332043	0.496338
H280	H	0.407869	-0.287243	0.523143
H281	H	0.367935	-0.302294	0.470043
H282	H	0.337622	-0.257488	0.496838
H283	H	0.221368	-0.351757	0.543370
H284	H	0.633799	-0.462884	0.374920
O285	O	0.197281	-0.596584	0.399578
C286	C	0.207037	-0.640761	0.386961
H287	H	0.181524	-0.666992	0.423065
H288	H	0.195306	-0.624538	0.349513
C289	C	0.299342	-0.643278	0.330649
C290	C	0.268010	-0.675499	0.374995
H291	H	0.336953	-0.664706	0.323265
H292	H	0.292769	-0.613514	0.339148
H293	H	0.289559	-0.629761	0.299448
H294	H	0.277788	-0.689010	0.406196
H295	H	0.274586	-0.705266	0.366501
O296	O	0.097099	-0.243664	0.684076
C297	C	0.125993	-0.257613	0.717088
H298	H	0.159274	-0.299110	0.717637
H299	H	0.145379	-0.225436	0.699884
C300	C	0.045534	-0.209294	0.774974
C301	C	0.086408	-0.260263	0.775652
H302	H	0.021117	-0.210927	0.811099
H303	H	0.026068	-0.199895	0.752732
H304	H	0.061696	-0.182485	0.760634
H305	H	0.070247	-0.287070	0.789986
H306	H	0.105870	-0.269667	0.797898
O307	O	-0.035006	-0.519242	0.224291
C308	C	0.013043	-0.505488	0.191302
H309	H	0.047331	-0.537735	0.208602
H310	H	0.025138	-0.503610	0.147973
C311	C	-0.039238	-0.409837	0.169177
C312	C	0.002874	-0.449440	0.190428
H313	H	-0.045511	-0.375262	0.168636
H314	H	-0.071610	-0.419103	0.191401
H315	H	-0.029153	-0.408278	0.133072
H316	H	-0.007214	-0.451003	0.226535
H317	H	0.035244	-0.440173	0.168211
H318	H	0.136793	-0.351798	0.712725
O319	O	0.090343	-0.703707	0.614003
C320	C	0.084253	-0.696584	0.660019
H321	H	0.090210	-0.656572	0.646904
H322	H	0.041603	-0.695439	0.690922
C323	C	0.119850	-0.793541	0.702367
C324	C	0.127171	-0.744400	0.686257
H325	H	0.146322	-0.823037	0.718554
H326	H	0.123951	-0.798341	0.671366
H327	H	0.084307	-0.792580	0.728117
H328	H	0.162711	-0.745359	0.660503
H329	H	0.123076	-0.739602	0.717255
H330	H	-0.067667	-0.562559	0.332499
H331	H	0.051655	-0.697459	0.228927
O332	O	0.019026	-0.740787	0.337088
C333	C	-0.000481	-0.764492	0.323041
H334	H	-0.035681	-0.731916	0.307248
H335	H	0.033843	-0.782573	0.289904
C336	C	0.022629	-0.849975	0.393189
C337	C	-0.020608	-0.809966	0.373797
H338	H	0.010216	-0.878028	0.424497
H339	H	0.035773	-0.834006	0.402652
H340	H	0.051228	-0.865037	0.365570
H341	H	-0.049203	-0.794901	0.401414
H342	H	-0.033757	-0.825934	0.364340
O343	O	-0.072910	-0.556646	0.375976
C344	C	-0.080974	-0.502974	0.367871
H345	H	-0.074652	-0.503082	0.402379
H346	H	-0.050498	-0.486642	0.327196
C347	C	-0.147256	-0.466125	0.324968
C348	C	-0.139496	-0.466258	0.367353
H349	H	-0.183354	-0.443475	0.324646
H350	H	-0.141822	-0.502285	0.330426
H351	H	-0.121856	-0.452517	0.291076
H352	H	-0.164891	-0.479872	0.401244
H353	H	-0.144936	-0.430099	0.361901
H354	H	-0.033252	-0.528055	0.415829
O355	O	-0.080792	-0.846120	0.494179
C356	C	-0.107527	-0.832149	0.459162
H357	H	-0.106125	-0.790690	0.426585
H358	H	-0.086224	-0.864362	0.438754
C359	C	-0.169127	-0.880295	0.532500
C360	C	-0.167408	-0.829373	0.492490
H361	H	-0.206064	-0.878585	0.553058
H362	H	-0.151114	-0.889710	0.556091
H363	H	-0.151372	-0.907135	0.515487
H364	H	-0.185158	-0.802536	0.509504
H365	H	-0.185426	-0.819953	0.468902
O366	O	0.056322	-0.703350	0.505864
C367	C	0.064406	-0.757022	0.513944
H368	H	0.029978	-0.756875	0.507472
H369	H	0.105150	-0.773442	0.483578
C370	C	0.106993	-0.793846	0.580486
C371	C	0.064704	-0.793667	0.572540
H372	H	0.107179	-0.816452	0.616629
H373	H	0.101548	-0.757687	0.575040
H374	H	0.140941	-0.807528	0.555177
H375	H	0.030756	-0.779978	0.597844
H376	H	0.070143	-0.829825	0.577991
O377	O	0.064203	-0.733828	0.387437
C378	C	0.117478	-0.771360	0.384450
H379	H	0.115246	-0.812084	0.418211
H380	H	0.139349	-0.777466	0.343035
C381	C	0.151885	-0.699077	0.350060
C382	C	0.149144	-0.749095	0.391529
H383	H	0.171420	-0.685343	0.354424
H384	H	0.115993	-0.673791	0.352070
H385	H	0.170110	-0.704173	0.315552
H386	H	0.130913	-0.743998	0.426036
H387	H	0.185034	-0.774380	0.389525
H388	H	0.092838	-0.841923	0.426277
O389	O	-0.112112	-0.694672	0.513966
C390	C	-0.126127	-0.742578	0.546980
H391	H	-0.167605	-0.734861	0.547455
H392	H	-0.093955	-0.776985	0.529829
C393	C	-0.077924	-0.768329	0.604986
C394	C	-0.128870	-0.758850	0.605573
H395	H	-0.079613	-0.778369	0.641128
H396	H	-0.068480	-0.736055	0.582743
H397	H	-0.051119	-0.797000	0.590691
H398	H	-0.155672	-0.730175	0.619861
H399	H	-0.138318	-0.791120	0.627820
O400	O	-0.111804	-0.602632	0.329771
C401	C	-0.149207	-0.569497	0.300977
H402	H	-0.189977	-0.576733	0.328165
H403	H	-0.155249	-0.524737	0.288650
C404	C	-0.076752	-0.575105	0.216053
C405	C	-0.126826	-0.583996	0.249446
H406	H	-0.062946	-0.584046	0.184265
H407	H	-0.051552	-0.597427	0.235452
H408	H	-0.081794	-0.537805	0.205787
H409	H	-0.121782	-0.621296	0.259717
H410	H	-0.152024	-0.561680	0.230047
H411	H	0.016700	-0.731943	0.465981
H412	H	-0.109425	-0.738032	0.455342
