data_functionalizedCrystal
_audit_creation_method	'MofGen! by Chris Wilmer'
_symmetry_space_group_name_H-M	'P1'
_symmetry_Int_Tables_number	1
_symmetry_cell_setting	triclinic
loop_
_symmetry_equiv_pos_as_xyz
  x,y,z
_cell_length_a	25.639233
_cell_length_b	19.121102
_cell_length_c	19.121063
_cell_angle_alpha	90.126902
_cell_angle_beta	87.579147
_cell_angle_gamma	92.451631
loop_
_atom_site_label
_atom_site_type_symbol
_atom_site_fract_x
_atom_site_fract_y
_atom_site_fract_z
Zn1	Zn	-0.339548	-1.059798	0.324995
Zn2	Zn	-0.255671	-1.054717	0.442211
Zn3	Zn	-0.248248	-0.942574	0.319984
Zn4	Zn	-0.339198	-0.937523	0.437185
O5	O	-0.295666	-0.998653	0.381094
O6	O	-0.331674	-1.157228	0.344744
O7	O	-0.181521	-1.039828	0.426003
O8	O	-0.257399	-0.962365	0.222545
O9	O	-0.270050	-1.153495	0.430862
O10	O	-0.324477	-1.048488	0.226226
O11	O	-0.176067	-0.957438	0.336204
O12	O	-0.257060	-0.843800	0.331331
O13	O	-0.412410	-0.953755	0.422297
O14	O	-0.323880	-0.840088	0.417438
O15	O	-0.412667	-1.043590	0.339871
O16	O	-0.269711	-1.034930	0.539649
O17	O	-0.331078	-0.948828	0.535956
C18	C	-0.289627	-0.816506	0.373296
C19	C	-0.287056	-0.738583	0.369977
C20	C	-0.301174	-0.990799	0.563241
C21	C	-0.303550	-0.987503	0.641166
C22	C	-0.432040	-0.998676	0.381083
C23	C	-0.490154	-0.998686	0.381078
C24	C	-0.850654	-1.045525	0.338028
C25	C	-0.905258	-1.045535	0.338009
O26	O	-0.933613	-1.085299	0.301487
N27	N	-0.932434	-0.998770	0.380917
C28	C	-0.905003	-0.951988	0.423841
O29	O	-0.933131	-0.912211	0.460335
C30	C	-0.850399	-0.951976	0.423856
C31	C	-0.823227	-0.998748	0.380951
C32	C	-0.823482	-1.092294	0.295126
C33	C	-0.768882	-1.092285	0.295146
C34	C	-0.741454	-1.045508	0.338068
C35	C	-0.768627	-0.998740	0.380971
C36	C	-0.822968	-0.905191	0.466776
C37	C	-0.768361	-0.905182	0.466787
C38	C	-0.741189	-0.951955	0.423882
C39	C	-0.686599	-0.951954	0.423913
N40	N	-0.659423	-0.998718	0.381006
C41	C	-0.686851	-1.045496	0.338083
C42	C	-1.019673	-0.952017	0.423806
C43	C	-1.074275	-0.952032	0.423795
C44	C	-1.074528	-1.045578	0.337962
C45	C	-1.019924	-1.045566	0.337977
C46	C	-0.992497	-0.998781	0.380898
C47	C	-0.572186	-1.045474	0.338129
C48	C	-0.517581	-1.045463	0.338155
C49	C	-0.517334	-0.951915	0.423985
C50	C	-0.571934	-0.951928	0.423962
C51	C	-0.599359	-0.998710	0.381029
O52	O	-0.658210	-0.912207	0.460415
O53	O	-0.658715	-1.085259	0.301588
C54	C	-0.159823	-0.998672	0.381056
C55	C	-0.101708	-0.998807	0.380870
C56	C	-0.301729	-1.181510	0.388923
C57	C	-0.304313	-1.259433	0.392259
C58	C	-0.320588	-0.700057	0.413317
C59	C	-0.318175	-0.626840	0.410189
C60	C	-0.282227	-0.592149	0.363724
C61	C	-0.248694	-0.630680	0.320380
C62	C	-0.251110	-0.703896	0.323505
C63	C	-0.273196	-0.371180	0.352040
C64	C	-0.270782	-0.297959	0.348919
C65	C	-0.340263	-0.294124	0.438728
C66	C	-0.342674	-0.367341	0.441852
C67	C	-0.309143	-0.405866	0.398505
C68	C	-0.279758	-0.517310	0.360527
C69	C	-0.311614	-0.480704	0.401698
C70	C	-0.290149	-1.006557	0.198237
C71	C	-0.287798	-1.009925	0.120314
C72	C	-0.272744	-1.030818	0.679677
C73	C	-0.274982	-1.027722	0.752896
C74	C	-0.308023	-0.981308	0.787604
C75	C	-0.338832	-0.937991	0.749089
C76	C	-0.336596	-0.941090	0.675871
C77	C	-0.316371	-0.969708	1.008581
C78	C	-0.318603	-0.966610	1.081804
C79	C	-0.254754	-1.056343	1.085607
C80	C	-0.252520	-1.059435	1.012387
C81	C	-0.283330	-1.016121	0.973878
C82	C	-0.310310	-0.978141	0.862446
C83	C	-0.281046	-1.019292	0.899037
H84	H	-0.594509	-1.083566	0.303166
C85	C	-0.240215	-0.479143	0.309422
C86	C	-0.259621	-0.431185	0.252285
C87	C	-0.220080	-0.393014	0.201179
C88	C	-0.161135	-0.402799	0.207209
C89	C	-0.141727	-0.450758	0.264348
C90	C	-0.181267	-0.488930	0.315454
H91	H	-0.303258	-0.423940	0.247819
H92	H	-0.234447	-0.357511	0.158880
H93	H	-0.131864	-0.374542	0.169377
H94	H	-0.098089	-0.458004	0.268814
H95	H	-0.166900	-0.524433	0.357753
H96	H	-0.845807	-1.130386	0.260169
H97	H	-0.245837	-1.068611	0.651422
C98	C	-0.990037	-1.097011	0.290776
C99	C	-0.994947	-1.094735	0.210833
C100	C	-0.965063	-1.146182	0.163628
C101	C	-0.930268	-1.199905	0.196367
C102	C	-0.925356	-1.202183	0.276315
C103	C	-0.955240	-1.150736	0.323519
H104	H	-1.020706	-1.054965	0.186593
H105	H	-0.968699	-1.144496	0.104445
H106	H	-0.908145	-1.237989	0.161423
H107	H	-0.899597	-1.241953	0.300554
H108	H	-0.951604	-1.152423	0.382702
H109	H	-0.249897	-1.062994	0.784248
C110	C	-0.738998	-1.143731	0.247940
C111	C	-0.743911	-1.141446	0.167998
C112	C	-0.714032	-1.192893	0.120786
C113	C	-0.679240	-1.246624	0.153518
C114	C	-0.674325	-1.248910	0.233464
C115	C	-0.704204	-1.197464	0.280676
H116	H	-0.769667	-1.101669	0.143764
H117	H	-0.717670	-1.191200	0.061604
H118	H	-0.657122	-1.284707	0.118569
H119	H	-0.648569	-1.288687	0.257698
H120	H	-0.700566	-1.199156	0.339858
C121	C	-1.104704	-1.097031	0.290741
C122	C	-1.164766	-1.097035	0.290724
C123	C	-1.194944	-1.148485	0.243507
C124	C	-1.165061	-1.199931	0.196306
C125	C	-1.104997	-1.199929	0.196321
C126	C	-1.074818	-1.148479	0.243538
H127	H	-1.186890	-1.058950	0.325667
H128	H	-1.239408	-1.148486	0.243496
H129	H	-1.187401	-1.238017	0.161353
H130	H	-1.082873	-1.238014	0.161378
H131	H	-1.030354	-1.148478	0.243549
H132	H	-0.349859	-0.728297	0.451155
H133	H	-0.345479	-0.595476	0.445481
H134	H	-0.494993	-0.913832	0.458934
C135	C	-0.214225	-0.746279	0.275832
C136	C	-0.236949	-0.798990	0.222985
C137	C	-0.200065	-0.841373	0.175308
C138	C	-0.140457	-0.831044	0.180478
C139	C	-0.117729	-0.778330	0.233326
C140	C	-0.154613	-0.735948	0.281003
H141	H	-0.281078	-0.806638	0.219157
H142	H	-0.216890	-0.880395	0.136186
H143	H	-0.113153	-0.862418	0.145184
H144	H	-0.073600	-0.770682	0.237155
H145	H	-0.137788	-0.696925	0.320125
C146	C	-0.370481	-0.893442	0.633505
C147	C	-0.344434	-0.840553	0.580875
C148	C	-0.378322	-0.792906	0.538511
C149	C	-0.438257	-0.798148	0.548776
C150	C	-0.464307	-0.851039	0.601409
C151	C	-0.430419	-0.898686	0.643773
H152	H	-0.300064	-0.836671	0.573274
H153	H	-0.359038	-0.753752	0.499549
H154	H	-0.463343	-0.762876	0.517415
H155	H	-0.508677	-0.854921	0.609010
H156	H	-0.449703	-0.937840	0.682735
H157	H	-0.225615	-1.097230	0.984129
H158	H	-0.367563	-0.262749	0.474018
C159	C	-0.351156	-0.518862	0.452809
C160	C	-0.331750	-0.566818	0.509945
C161	C	-0.371289	-0.604983	0.561058
C162	C	-0.430234	-0.595191	0.555034
C163	C	-0.449643	-0.547233	0.497896
C164	C	-0.410104	-0.509068	0.446783
H165	H	-0.288112	-0.574069	0.514407
H166	H	-0.356921	-0.640486	0.603356
H167	H	-0.459504	-0.623443	0.592871
H168	H	-0.493281	-0.539982	0.493434
H169	H	-0.424472	-0.473565	0.404485
H170	H	-0.371945	-0.395581	0.479690
C171	C	-0.601837	-0.900501	0.471173
C172	C	-0.596939	-0.902798	0.551118
C173	C	-0.626840	-0.851375	0.598329
C174	C	-0.661640	-0.797655	0.565596
C175	C	-0.666540	-0.795356	0.485647
C176	C	-0.636638	-0.846779	0.438436
H177	H	-0.571176	-0.942567	0.575353
H178	H	-0.623213	-0.853077	0.657513
H179	H	-0.683775	-0.759589	0.600545
H180	H	-0.692302	-0.755587	0.461412
H181	H	-0.640265	-0.845077	0.379252
C182	C	-1.104162	-0.900582	0.470993
C183	C	-1.073984	-0.849127	0.518201
C184	C	-1.103868	-0.797670	0.565394
C185	C	-1.163929	-0.797667	0.565379
C186	C	-1.194109	-0.849123	0.518169
C187	C	-1.164226	-0.900581	0.470976
H188	H	-1.029520	-0.849128	0.518213
H189	H	-1.081525	-0.759579	0.600341
H190	H	-1.186050	-0.759575	0.600314
H191	H	-1.238573	-0.849123	0.518157
H192	H	-1.186568	-0.938672	0.436028
C193	C	-0.354951	-0.915552	1.119985
C194	C	-0.388843	-0.867907	1.077628
C195	C	-0.425187	-0.816851	1.115809
C196	C	-0.427640	-0.813438	1.196346
C197	C	-0.393747	-0.861084	1.238707
C198	C	-0.357403	-0.912141	1.200526
H199	H	-0.387028	-0.870432	1.018006
H200	H	-0.450277	-0.781580	1.084451
H201	H	-0.454544	-0.775643	1.224610
H202	H	-0.395562	-0.858560	1.298329
H203	H	-0.332314	-0.947412	1.231885
C204	C	-0.350264	-0.922061	0.966232
C205	C	-0.343619	-0.841938	0.972963
C206	C	-0.377515	-0.794288	0.930613
C207	C	-0.418056	-0.826762	0.881531
C208	C	-0.424703	-0.906890	0.874797
C209	C	-0.390807	-0.954539	0.917148
H210	H	-0.313606	-0.817895	1.009298
H211	H	-0.372594	-0.734973	0.935598
H212	H	-0.443148	-0.791490	0.850180
H213	H	-0.454715	-0.930933	0.838462
H214	H	-0.395727	-1.013854	0.912163
H215	H	-0.229671	-1.091608	1.116968
C216	C	-0.852856	-0.853734	0.513960
C217	C	-0.887644	-0.800021	0.481194
C218	C	-0.917534	-0.748559	0.528375
C219	C	-0.912636	-0.750811	0.608321
C220	C	-0.877846	-0.804527	0.641091
C221	C	-0.847956	-0.855989	0.593910
H222	H	-0.891272	-0.798352	0.422010
H223	H	-0.943288	-0.708795	0.504116
H224	H	-0.934762	-0.712716	0.643247
H225	H	-0.874218	-0.806196	0.700275
H226	H	-0.822202	-0.895753	0.618169
C227	C	-0.244702	-1.070347	0.860861
C228	C	-0.201099	-1.042127	0.809278
C229	C	-0.164753	-1.093180	0.771094
C230	C	-0.172011	-1.172452	0.784492
C231	C	-0.215616	-1.200676	0.836077
C232	C	-0.251961	-1.149623	0.874261
H233	H	-0.195724	-0.983441	0.799358
H234	H	-0.132473	-1.072286	0.732907
H235	H	-0.145105	-1.210244	0.756225
H236	H	-0.220990	-1.259361	0.845997
H237	H	-0.284241	-1.170516	0.912448
H238	H	-0.997345	-0.913918	0.458761
H239	H	-0.241512	-0.269717	0.311074
C240	C	-0.209152	-0.592520	0.269268
C241	C	-0.228553	-0.544562	0.212129
C242	C	-0.189010	-0.506402	0.161017
C243	C	-0.130066	-0.516200	0.167045
C244	C	-0.110662	-0.564160	0.224185
C245	C	-0.150205	-0.602320	0.275297
H246	H	-0.272190	-0.537307	0.207665
H247	H	-0.203375	-0.470898	0.118718
H248	H	-0.100794	-0.487952	0.129209
H249	H	-0.067025	-0.571416	0.228649
H250	H	-0.135841	-0.637824	0.317596
H251	H	-0.337210	-0.940348	0.890714
C252	C	-0.487693	-1.096914	0.290954
C253	C	-0.492596	-1.094636	0.211010
C254	C	-0.462709	-1.146084	0.163809
C255	C	-0.427920	-1.199810	0.196553
C256	C	-0.423015	-1.202090	0.276502
C257	C	-0.452902	-1.150642	0.323702
H258	H	-0.518350	-1.054863	0.186767
H259	H	-0.466340	-1.144396	0.104626
H260	H	-0.405796	-1.237896	0.161613
H261	H	-0.397261	-1.241863	0.300745
H262	H	-0.449271	-1.152330	0.382886
H263	H	-0.746033	-0.867077	0.501732
H264	H	-0.245889	-0.402538	0.316749
H265	H	-0.365736	-0.900202	0.777354
