data_functionalizedCrystal
_audit_creation_method	'MofGen! by Chris Wilmer'
_symmetry_space_group_name_H-M	'P1'
_symmetry_Int_Tables_number	1
_symmetry_cell_setting	triclinic
loop_
_symmetry_equiv_pos_as_xyz
  x,y,z
_cell_length_a	17.639054
_cell_length_b	17.640280
_cell_length_c	17.639197
_cell_angle_alpha	87.831537
_cell_angle_beta	92.182570
_cell_angle_gamma	87.823438
loop_
_atom_site_label
_atom_site_type_symbol
_atom_site_fract_x
_atom_site_fract_y
_atom_site_fract_z
Zn1	Zn	1.124313	-0.215459	0.631167
Zn2	Zn	1.171899	-0.309382	0.489670
Zn3	Zn	1.020783	-0.205779	0.479990
Zn4	Zn	1.030360	-0.356916	0.583530
O5	O	1.086839	-0.271884	0.546089
O6	O	1.233187	-0.212076	0.636385
O7	O	1.167760	-0.271695	0.385838
O8	O	1.010594	-0.104505	0.515929
O9	O	1.268148	-0.281081	0.532428
O10	O	1.086657	-0.111617	0.626998
O11	O	1.056736	-0.195578	0.378726
O12	O	0.919492	-0.241670	0.469737
O13	O	1.026916	-0.362095	0.692397
O14	O	0.926528	-0.352709	0.545807
O15	O	1.095943	-0.258168	0.727396
O16	O	1.177046	-0.418246	0.486236
O17	O	1.073058	-0.453169	0.555194
C18	C	0.896417	-0.301298	0.501553
C19	C	0.814955	-0.313903	0.482515
C20	C	0.718332	-0.367504	0.401500
C21	C	0.794875	-0.355655	0.419396
C22	C	0.758491	-0.283986	0.527765
C23	C	0.681943	-0.295832	0.509881
C24	C	0.661870	-0.337591	0.446747
C25	C	0.625481	-0.265919	0.555128
C26	C	0.548940	-0.277761	0.537243
C27	C	0.528860	-0.319516	0.474110
C28	C	0.585328	-0.349433	0.428862
C29	C	0.645556	-0.224156	0.618259
C30	C	0.589094	-0.194243	0.663506
C31	C	0.512551	-0.206089	0.645624
C32	C	0.492471	-0.247844	0.582491
C33	C	0.456082	-0.176172	0.690872
C34	C	0.379541	-0.188014	0.672987
C35	C	0.415929	-0.259686	0.564606
C36	C	1.131272	-0.462300	0.516616
C37	C	1.150344	-0.543756	0.504048
C38	C	0.942209	-0.902672	0.641907
C39	C	0.960135	-0.979207	0.630074
C40	C	1.068461	-0.942789	0.558376
C41	C	1.050546	-0.866250	0.570206
C42	C	0.987419	-0.846198	0.611971
C43	C	1.095756	-0.809776	0.540271
C44	C	1.077840	-0.733243	0.552097
C45	C	1.014714	-0.713185	0.593858
C46	C	0.969502	-0.769665	0.623797
C47	C	1.158880	-0.829829	0.498501
C48	C	1.204089	-0.773355	0.468566
C49	C	1.186177	-0.696821	0.480396
C50	C	1.123051	-0.676763	0.522158
C51	C	1.231388	-0.640341	0.450457
C52	C	1.213472	-0.563808	0.462283
C53	C	1.105135	-0.600230	0.533983
C54	C	1.278004	-0.242356	0.590800
C55	C	1.359468	-0.229773	0.609853
C56	C	1.057190	-0.316514	0.737230
C57	C	1.044555	-0.335532	0.818683
C58	C	1.042249	-0.080725	0.575698
C59	C	1.023247	0.000735	0.588315
C60	C	0.990813	-0.416443	0.915268
C61	C	1.002689	-0.398566	0.838733
C62	C	1.074566	-0.290353	0.875168
C63	C	1.062699	-0.308223	0.951708
C64	C	1.020821	-0.371268	0.971751
C65	C	1.092707	-0.263049	1.008191
C66	C	1.080837	-0.280915	1.084724
C67	C	1.038960	-0.343957	1.104774
C68	C	1.008951	-0.389135	1.048284
C69	C	1.134580	-0.200000	0.988146
C70	C	1.164588	-0.154826	1.044629
C71	C	1.152723	-0.172696	1.121164
C72	C	1.110846	-0.235737	1.141214
C73	C	1.182732	-0.127517	1.177654
C74	C	1.170862	-0.145384	1.254187
C75	C	1.098976	-0.253604	1.217747
C76	C	1.116365	-0.227446	1.355687
C77	C	1.128984	-0.208429	1.274231
H78	H	0.707882	-0.214512	0.632816
C79	C	0.780582	-0.238052	0.597210
N80	N	0.797219	-0.203455	0.649519
C81	C	0.995006	-0.628996	0.606867
N82	N	0.980163	-0.565585	0.616667
H83	H	0.466533	-0.329143	0.459540
C84	C	0.563245	-0.395376	0.359415
N85	N	0.546610	-0.429979	0.307110
C86	C	1.120629	-0.221004	0.853110
N87	N	1.155328	-0.168772	0.836498
H88	H	0.472438	-0.142166	0.742272
H89	H	0.956718	-0.467785	0.931588
H90	H	0.918102	-0.753340	0.657814
C91	C	0.696248	-0.413448	0.332054
N92	N	0.679614	-0.448050	0.279748
H93	H	0.890809	-0.886347	0.675923
C94	C	0.856984	-0.388570	0.369618
N95	N	0.903763	-0.413361	0.332126
H96	H	0.923323	-1.025189	0.654465
H97	H	0.605449	-0.160241	0.714908
C98	C	1.052913	-0.322960	1.239799
N99	N	1.018218	-0.375196	1.256408
C100	C	1.210652	-0.085478	1.022572
N101	N	1.245350	-0.033245	1.005959
H102	H	1.029290	-0.358498	1.167093
H103	H	1.250286	-0.517825	0.437905
H104	H	1.119858	-0.959127	0.524368
C105	C	1.300819	-0.662409	0.404507
N106	N	1.353115	-0.679030	0.369896
C107	C	0.317430	-0.155111	0.722763
N108	N	0.270647	-0.130326	0.760255
C109	C	0.962888	-0.458492	1.070336
N110	N	0.928193	-0.510728	1.086945
C111	C	1.228789	-0.058165	1.155594
N112	N	1.263480	-0.005928	1.138979
H113	H	1.173466	-0.892148	0.488877
C114	C	1.273525	-0.795422	0.422622
N115	N	1.325826	-0.812042	0.388017
H116	H	0.978232	-0.435345	0.792743
H117	H	1.053734	-0.583905	0.568000
H118	H	1.144245	-0.185457	0.925827
H119	H	1.195293	-0.108595	1.300178
H120	H	0.399586	-0.293698	0.513201
