data_functionalizedCrystal
_audit_creation_method	'MofGen! by Chris Wilmer'
_symmetry_space_group_name_H-M	'P1'
_symmetry_Int_Tables_number	1
_symmetry_cell_setting	triclinic
loop_
_symmetry_equiv_pos_as_xyz
  x,y,z
_cell_length_a	17.038278
_cell_length_b	17.038272
_cell_length_c	13.448316
_cell_angle_alpha	89.993314
_cell_angle_beta	89.993302
_cell_angle_gamma	91.111028
loop_
_atom_site_label
_atom_site_type_symbol
_atom_site_fract_x
_atom_site_fract_y
_atom_site_fract_z
O1	O	1.048756	0.170529	-0.082702
O2	O	0.820945	0.167823	-0.082702
O3	O	0.933497	0.055270	-0.082694
O4	O	0.936205	0.283082	-0.082710
O5	O	0.933481	0.055262	0.082690
O6	O	0.820929	0.167815	0.082682
O7	O	1.048741	0.170521	0.082682
Cu8	Cu	0.934834	0.169167	0.097783
Cu9	Cu	0.934852	0.169177	-0.097803
O10	O	0.936189	0.283074	0.082674
C11	C	0.791645	0.165356	-0.000010
C12	C	0.704361	0.158009	-0.000010
C13	C	0.210935	0.112872	-0.000010
C14	C	0.292947	0.119781	-0.000005
C15	C	0.329347	0.194155	-0.000015
C16	C	0.283730	0.261623	-0.000020
C17	C	0.201720	0.254713	-0.000018
C18	C	0.576734	0.218567	-0.000013
C19	C	0.658751	0.225473	-0.000018
C20	C	0.667962	0.083630	-0.000001
C21	C	0.585949	0.076726	-0.000006
C22	C	0.540340	0.144194	-0.000006
C23	C	0.413176	0.201219	-0.000012
C24	C	0.456513	0.137129	-0.000001
C25	C	0.931026	0.025974	-0.000002
C26	C	0.923678	-0.061310	-0.000002
C27	C	0.991142	-0.106920	-0.000001
C28	C	0.984233	-0.188932	-0.000011
C29	C	0.909859	-0.225332	-0.000014
C30	C	0.842391	-0.179716	-0.000018
C31	C	0.849300	-0.097706	-0.000016
C32	C	0.885449	-0.472720	-0.000028
C33	C	0.878544	-0.554736	-0.000027
C34	C	1.020387	-0.563946	-0.000021
C35	C	1.027290	-0.481934	-0.000013
C36	C	0.959821	-0.436325	-0.000022
C37	C	0.902796	-0.309161	-0.000021
C38	C	0.966886	-0.352497	-0.000023
C39	C	1.078041	0.172988	-0.000012
C40	C	1.165325	0.180335	-0.000019
C41	C	0.938660	0.312370	-0.000020
C42	C	0.946008	0.399654	-0.000026
N43	N	0.934826	0.169160	0.235347
N44	N	0.934865	0.169178	-0.235367
C45	C	0.984682	0.119345	0.287391
C46	C	0.984687	0.119344	0.391494
C47	C	0.934840	0.169164	0.443552
C48	C	0.884978	0.218981	0.391501
C49	C	0.884970	0.218977	0.287399
C50	C	0.885000	0.218988	0.608481
C51	C	0.885009	0.218994	0.712589
C52	C	0.984718	0.119355	0.712576
C53	C	0.984709	0.119351	0.608474
C54	C	0.934849	0.169170	0.556430
H55	H	0.181305	0.052309	-0.000009
O56	O	0.830594	-0.344614	-0.000147
C57	C	0.822358	-0.391751	-0.085816
H58	H	0.882901	-0.408023	-0.114378
H59	H	0.787492	-0.447479	-0.066552
H60	H	0.790019	-0.357868	-0.145789
O61	O	1.063346	-0.071473	-0.000131
C62	C	1.071601	-0.024317	-0.085796
H63	H	1.011064	-0.008027	-0.114350
H64	H	1.106474	0.031400	-0.066532
H65	H	1.103940	-0.058191	-0.145776
O66	O	1.039147	-0.317177	-0.000197
C67	C	1.080626	-0.340022	-0.085834
H68	H	1.037242	-0.359872	-0.145705
H69	H	1.117336	-0.288172	-0.114583
H70	H	1.120840	-0.390495	-0.066465
H71	H	0.817978	-0.584370	-0.000014
O72	O	1.085841	-0.608367	-0.000065
C73	C	1.063800	-0.688558	-0.000043
H74	H	1.001909	-0.695797	-0.031352
H75	H	1.106471	-0.722661	-0.048062
H76	H	1.065196	-0.712058	0.079298
H77	H	0.830511	-0.435595	-0.000035
H78	H	1.025315	0.078791	0.754956
O79	O	0.770187	-0.215164	-0.000155
C80	C	0.761949	-0.262304	-0.085820
H81	H	0.822492	-0.278586	-0.114376
H82	H	0.727074	-0.318026	-0.066556
H83	H	0.729619	-0.228419	-0.145799
H84	H	0.794364	-0.060571	-0.000017
O85	O	0.337136	0.054167	-0.000041
C86	C	0.287423	-0.012958	-0.000012
H87	H	0.227617	0.002909	-0.031330
H88	H	0.314347	-0.060562	-0.048019
H89	H	0.280105	-0.035500	0.079333
H90	H	1.039169	-0.226064	-0.000008
H91	H	0.556319	0.016163	0.000002
H92	H	0.164585	0.309649	-0.000021
H93	H	1.087852	-0.452303	-0.000010
H94	H	1.025277	0.078779	0.245013
O95	O	0.836478	0.267398	0.441912
C96	C	0.792484	0.311377	0.373649
H97	H	0.789454	0.279117	0.299450
H98	H	0.730565	0.319147	0.403742
H99	H	0.821854	0.371430	0.362558
H100	H	1.025283	0.078780	0.433868
H101	H	0.705105	0.028701	-0.000000
O102	O	1.033156	0.070884	0.558058
C103	C	1.077179	0.026927	0.626313
H104	H	1.044933	0.023879	0.700532
H105	H	1.084989	-0.034987	0.596241
H106	H	1.137213	0.056342	0.637359
O107	O	0.836503	0.267400	0.763006
C108	C	0.792497	0.311375	0.694751
H109	H	0.789474	0.279121	0.620546
H110	H	0.730577	0.319128	0.724846
H111	H	0.821854	0.371435	0.683667
O112	O	0.836652	0.267410	0.236731
C113	C	0.881923	0.318692	0.176508
H114	H	0.941295	0.291537	0.160902
H115	H	0.849963	0.328912	0.103310
H116	H	0.891117	0.377095	0.216611
H117	H	0.313374	0.322180	-0.000021
H118	H	0.688384	0.286039	-0.000011
H119	H	0.844396	0.259553	0.566110
O120	O	0.532553	0.284184	-0.000063
C121	C	0.582270	0.351306	-0.000051
H122	H	0.642081	0.335437	-0.031364
H123	H	0.555358	0.398913	-0.048071
H124	H	0.589573	0.373846	0.079288
H125	H	0.426872	0.076575	-0.000004
H126	H	0.442822	0.261775	-0.000023
