data_functionalizedCrystal
_audit_creation_method	'MofGen! by Chris Wilmer'
_symmetry_space_group_name_H-M	'P1'
_symmetry_Int_Tables_number	1
_symmetry_cell_setting	triclinic
loop_
_symmetry_equiv_pos_as_xyz
  x,y,z
_cell_length_a	12.759399
_cell_length_b	12.759401
_cell_length_c	12.759393
_cell_angle_alpha	89.979434
_cell_angle_beta	90.030906
_cell_angle_gamma	89.986676
loop_
_atom_site_label
_atom_site_type_symbol
_atom_site_fract_x
_atom_site_fract_y
_atom_site_fract_z
Zn1	Zn	-0.418266	-1.606263	0.594007
Zn2	Zn	-0.593981	-1.606153	0.418326
Zn3	Zn	-0.418311	-1.430562	0.418343
Zn4	Zn	-0.593898	-1.430553	0.593964
O5	O	-0.506114	-1.518383	0.506160
O6	O	-0.441591	-1.753270	0.570713
O7	O	-0.570732	-1.582818	0.271307
O8	O	-0.271284	-1.453919	0.441670
O9	O	-0.570688	-1.753189	0.441641
O10	O	-0.271251	-1.583006	0.570730
O11	O	-0.441669	-1.453812	0.271320
O12	O	-0.441587	-1.283540	0.441629
O13	O	-0.570546	-1.453903	0.740991
O14	O	-0.570590	-1.283533	0.570657
O15	O	-0.441510	-1.582997	0.741022
O16	O	-0.740991	-1.582809	0.441599
O17	O	-0.740930	-1.453796	0.570640
C18	C	-0.506085	-1.245415	0.506141
C19	C	-0.506098	-1.128639	0.506157
C20	C	-0.438997	-1.073820	0.573468
C21	C	-0.439003	-0.964096	0.573473
C22	C	-0.573222	-0.964020	0.438854
C23	C	-0.573210	-1.073742	0.438845
C24	C	-0.779081	-1.518318	0.506136
C25	C	-0.895858	-1.518387	0.506161
C26	C	-0.950717	-1.585641	0.439046
C27	C	-1.060441	-1.585708	0.439081
C28	C	-1.060437	-1.451259	0.573349
C29	C	-0.950715	-1.451198	0.573319
C30	C	-0.232081	-1.518476	0.506207
C31	C	-0.115304	-1.518516	0.506227
C32	C	-0.506013	-1.518461	0.780193
C33	C	-0.505970	-1.518495	0.896970
C34	C	-0.506134	-0.792416	0.506176
C35	C	-0.506117	-0.909193	0.506172
C36	C	-0.506139	-1.518365	0.233192
C37	C	-0.505886	-1.518535	0.116416
C38	C	-0.438770	-1.585719	0.951850
C39	C	-0.438725	-1.585737	1.061574
C40	C	-0.573088	-1.451303	1.061529
C41	C	-0.573128	-1.451281	0.951806
H42	H	-0.627853	-1.118377	0.384027
C43	C	-0.647049	-1.377332	0.891429
H44	H	-0.637443	-1.386939	0.818230
H45	H	-0.717637	-1.392681	0.909396
H46	H	-0.631648	-1.306747	0.909403
C47	C	-1.120784	-1.377347	0.647206
H48	H	-1.193988	-1.387006	0.637605
H49	H	-1.102735	-1.392671	0.717806
H50	H	-1.102867	-1.306752	0.631753
C51	C	-0.890377	-1.659555	0.365186
H52	H	-0.938768	-1.699625	0.325227
H53	H	-0.847642	-1.619370	0.319359
H54	H	-0.847508	-1.705290	0.405412
C55	C	-0.890366	-1.377214	0.647147
H56	H	-0.938750	-1.337197	0.687138
H57	H	-0.847494	-1.417357	0.692945
H58	H	-0.847634	-1.331431	0.606898
H59	H	-1.105102	-1.640474	0.384430
H60	H	-0.384083	-1.640446	0.907205
C61	C	-0.646965	-1.377384	1.121852
H62	H	-0.637326	-1.387032	1.195059
H63	H	-0.631590	-1.306794	1.103865
H64	H	-0.717566	-1.392740	1.103857
H65	H	-0.384003	-1.640476	1.106253
H66	H	-0.384347	-1.118514	0.628275
H67	H	-0.384361	-0.919467	0.628283
C68	C	-0.647048	-0.903629	0.364826
H69	H	-0.637454	-0.830431	0.374479
H70	H	-0.631589	-0.921579	0.294260
H71	H	-0.717657	-0.921613	0.380087
