data_functionalizedCrystal
_audit_creation_method	'MofGen! by Chris Wilmer'
_symmetry_space_group_name_H-M	'P1'
_symmetry_Int_Tables_number	1
_symmetry_cell_setting	triclinic
loop_
_symmetry_equiv_pos_as_xyz
  x,y,z
_cell_length_a	10.654562
_cell_length_b	15.944551
_cell_length_c	9.130313
_cell_angle_alpha	89.997799
_cell_angle_beta	89.996930
_cell_angle_gamma	83.994421
loop_
_atom_site_label
_atom_site_type_symbol
_atom_site_fract_x
_atom_site_fract_y
_atom_site_fract_z
O1	O	1.666298	0.118023	-0.121899
O2	O	1.300676	0.129252	-0.121881
O3	O	1.493471	0.001421	-0.121878
O4	O	1.473503	0.245855	-0.121903
O5	O	1.493469	0.001425	0.121721
O6	O	1.300674	0.129256	0.121718
O7	O	1.666295	0.118027	0.121700
Cu8	Cu	1.483484	0.123642	0.143951
Cu9	Cu	1.483487	0.123638	-0.144133
O10	O	1.473500	0.245858	0.121696
C11	C	1.253888	0.128427	-0.000079
C12	C	1.114477	0.125954	-0.000072
C13	C	1.048960	0.124802	0.132702
C14	C	0.917968	0.122485	0.132678
C15	C	0.918021	0.122475	-0.132907
C16	C	1.049012	0.124786	-0.132881
C17	C	1.048928	0.124812	0.286036
C18	C	0.917936	0.122494	0.286012
C19	C	1.492641	-0.029876	-0.000078
C20	C	1.490156	-0.123136	-0.000077
C21	C	1.364712	-0.338723	-0.000091
C22	C	1.422963	-0.399400	0.120015
C23	C	1.485660	-0.293888	-0.000088
C24	C	1.422993	-0.399386	-0.120154
C25	C	1.481308	-0.458826	-0.000105
C26	C	1.543944	-0.353337	0.120117
C27	C	1.543958	-0.353317	-0.120160
C28	C	1.602296	-0.413976	-0.000024
C29	C	1.488163	-0.198872	-0.000077
C30	C	1.478814	-0.553842	-0.000105
C31	C	1.713084	0.118852	-0.000105
C32	C	1.852494	0.121325	-0.000122
C33	C	1.474330	0.277155	-0.000107
C34	C	1.476816	0.370416	-0.000118
N35	N	1.483491	0.123644	0.346574
N36	N	1.483490	0.123629	-0.346755
C37	C	1.568883	0.067060	0.423227
C38	C	1.568879	0.067050	0.576564
C39	C	1.398089	0.180216	0.576580
C40	C	1.398088	0.180221	0.423246
C41	C	1.667491	0.001727	0.423219
C42	C	1.667488	0.001717	0.576556
H43	H	1.077709	0.186072	0.333606
O44	O	1.315013	0.235203	0.650836
C45	C	1.239666	0.285162	0.550293
H46	H	1.238255	0.250722	0.440986
H47	H	1.139378	0.297342	0.594598
H48	H	1.280432	0.347820	0.533994
O49	O	1.782341	0.018844	0.626458
C50	C	1.782111	0.018820	0.780881
H51	H	1.705895	-0.020390	0.822314
H52	H	1.878150	-0.009472	0.822676
H53	H	1.762104	0.086301	0.822524
O54	O	1.604950	-0.328800	-0.241191
C55	C	1.607397	-0.240570	-0.238782
H56	H	1.596159	-0.216864	-0.121237
H57	H	1.701229	-0.224024	-0.284653
H58	H	1.526785	-0.209476	-0.308507
H59	H	0.889140	0.061236	0.333597
O60	O	1.604835	-0.328992	0.241347
C61	C	1.606420	-0.240685	0.239904
H62	H	1.525806	-0.210959	0.168725
H63	H	1.594544	-0.215303	0.356357
H64	H	1.700188	-0.224387	0.193465
H65	H	1.637764	-0.059294	0.624111
O66	O	1.112745	0.125750	-0.261818
C67	C	1.202739	0.054479	-0.269708
H68	H	1.173171	0.003033	-0.194347
H69	H	1.209019	0.030121	-0.387146
H70	H	1.298796	0.072652	-0.234015
O71	O	0.854337	0.121494	-0.261872
C72	C	0.764342	0.192761	-0.269826
H73	H	0.793875	0.244216	-0.194472
H74	H	0.758109	0.217107	-0.387275
H75	H	0.668272	0.174589	-0.234166
O76	O	1.104979	0.055474	0.356067
C77	C	1.075069	-0.017797	0.283125
H78	H	1.048581	-0.001675	0.164705
H79	H	1.160317	-0.067357	0.285298
H80	H	0.992126	-0.043607	0.340387
H81	H	1.264320	-0.305999	0.000034
O82	O	1.642672	-0.075259	0.373643
C83	C	1.523534	-0.092945	0.425281
H84	H	1.463868	-0.031361	0.452528
H85	H	1.474204	-0.128099	0.337151
H86	H	1.536189	-0.133674	0.527916
O87	O	0.861752	0.191790	0.356046
C88	C	0.891549	0.265128	0.283216
H89	H	0.918151	0.249074	0.164802
H90	H	0.806205	0.314612	0.285369
H91	H	0.974383	0.291002	0.340583
H92	H	1.371805	-0.419804	0.221560
H93	H	1.371823	-0.419762	-0.221701
O94	O	1.722185	-0.452806	0.000303
C95	C	1.785472	-0.429305	0.127081
H96	H	1.713374	-0.407818	0.215194
H97	H	1.850271	-0.485618	0.168998
H98	H	1.843946	-0.375478	0.099568
H99	H	1.328545	0.226289	0.360836
H100	H	1.758409	0.022187	0.375654
