data_functionalizedCrystal
_audit_creation_method	'MofGen! by Chris Wilmer'
_symmetry_space_group_name_H-M	'P1'
_symmetry_Int_Tables_number	1
_symmetry_cell_setting	triclinic
loop_
_symmetry_equiv_pos_as_xyz
  x,y,z
_cell_length_a	6.817900
_cell_length_b	12.840933
_cell_length_c	16.255699
_cell_angle_alpha	81.394484
_cell_angle_beta	103.489404
_cell_angle_gamma	88.345099
loop_
_atom_site_label
_atom_site_type_symbol
_atom_site_fract_x
_atom_site_fract_y
_atom_site_fract_z
V1	V	-3.898237	0.325566	-0.119085
O2	O	-3.888306	0.319012	0.003671
O3	O	-3.850528	0.323681	-0.234153
O4	O	-3.793830	0.467400	-0.118154
O5	O	-3.945396	0.174299	-0.113131
V6	V	-4.389033	0.307431	-0.104296
O7	O	-4.143543	0.365345	-0.151527
O8	O	-4.593925	0.267652	-0.071854
O9	O	-4.213535	0.309316	0.010772
O10	O	-4.516361	0.313985	-0.227052
O11	O	-4.459270	0.458698	-0.110250
O12	O	-4.270233	0.165597	-0.105227
C13	C	-3.697509	0.318634	-0.262176
C14	C	-3.739415	0.318039	-0.356251
C15	C	-3.625198	0.501960	-0.114203
C16	C	-3.621044	0.620091	-0.114201
C17	C	-4.102208	0.131032	-0.109176
C18	C	-4.085211	0.012900	-0.109175
C19	C	-3.652687	0.311219	-0.579035
C20	C	-3.769511	0.227167	-0.626139
C21	C	-3.816226	0.317000	-0.528498
C22	C	-3.774091	0.400003	-0.649021
C23	C	-3.890407	0.316000	-0.694882
C24	C	-3.932497	0.232883	-0.574353
C25	C	-3.937050	0.405796	-0.597241
C26	C	-4.053999	0.321726	-0.644319
C27	C	-3.773486	0.317574	-0.432649
C28	C	-3.933160	0.315418	-0.790729
V29	V	-3.881186	0.811730	-0.119091
O30	O	-3.917726	0.962918	-0.113136
O31	O	-3.786926	0.664543	-0.118160
O32	O	-3.831938	0.853474	-0.234157
O33	O	-3.872403	0.772680	0.003665
V34	V	-4.370035	0.849131	-0.104306
O35	O	-4.128429	0.796299	-0.151535
O36	O	-4.572195	0.887248	-0.071866
O37	O	-4.241482	0.985070	-0.105235
O38	O	-4.450684	0.703859	-0.110263
O39	O	-4.496008	0.894097	-0.227063
O40	O	-4.196470	0.796140	0.010762
C41	C	-4.029897	0.314360	0.038790
C42	C	-3.967227	0.314962	0.132865
C43	C	-3.678470	0.861091	-0.262174
C44	C	-3.719040	0.898361	-0.356247
C45	C	-4.013872	0.771554	0.038787
C46	C	-3.952577	0.733248	0.132862
C47	C	-3.918155	0.921330	-0.404773
C48	C	-3.956302	0.956364	-0.493164
C49	C	-3.795333	0.968422	-0.533028
C50	C	-3.596201	0.945453	-0.484496
C51	C	-3.558056	0.910426	-0.396106
C52	C	-3.749732	0.702848	0.172709
C53	C	-3.692107	0.666867	0.261104
C54	C	-3.837333	0.661280	0.309650
C55	C	-4.040195	0.691686	0.269797
C56	C	-4.097815	0.727673	0.181405
H57	H	-3.482653	0.306676	-0.550505
H58	H	-3.826421	0.996943	-0.605002
C59	C	-3.309604	0.861474	-0.516299
C60	C	-3.419278	0.958693	-0.528327
H61	H	-3.200378	0.869646	-0.543359
H62	H	-3.395655	0.811508	-0.540669
H63	H	-3.258372	0.837343	-0.456710
H64	H	-3.470523	0.982820	-0.587916
H65	H	-3.333212	1.008676	-0.503961
C66	C	-3.314803	0.779243	-0.303654
C67	C	-3.339175	0.885161	-0.342774
H68	H	-3.179672	0.763650	-0.270729
H69	H	-3.342988	0.735191	-0.346433
H70	H	-3.405203	0.767063	-0.267257
H71	H	-3.248786	0.897340	-0.379176
H72	H	-3.310968	0.929227	-0.299989
C73	C	-3.399866	0.674708	0.173019
C74	C	-3.590069	0.708987	0.119361
H75	H	-3.301289	0.678506	0.140088
H76	H	-3.402845	0.603853	0.199570
H77	H	-3.366460	0.718533	0.215783
H78	H	-3.623483	0.665157	0.076601
H79	H	-3.587095	0.779854	0.092796
H80	H	-3.526920	0.642112	0.293539
H81	H	-4.158424	0.687132	0.309336
H82	H	-3.699127	0.151637	-0.639282
C83	C	-3.981863	0.138805	-0.442303
C84	C	-4.022306	0.137432	-0.530621
H85	H	-4.037292	0.079873	-0.415305
H86	H	-4.041022	0.202142	-0.432273
H87	H	-3.839838	0.135313	-0.419434
H88	H	-4.164332	0.140932	-0.553491
H89	H	-3.963154	0.074079	-0.540657
C90	C	-4.241111	0.514150	-0.613935
C91	C	-4.031967	0.507760	-0.579468
H92	H	-4.299692	0.577109	-0.602969
H93	H	-4.297913	0.454864	-0.588175
H94	H	-4.267561	0.514828	-0.674040
H95	H	-4.005516	0.507074	-0.519361
H96	H	-3.975145	0.567061	-0.605225
C97	C	-3.686866	0.518434	0.421942
C98	C	-3.773982	0.621709	0.406811
H99	H	-3.647761	0.494001	0.481924
H100	H	-3.571363	0.517425	0.398732
H101	H	-3.782414	0.473833	0.395442
H102	H	-3.678429	0.666311	0.433306
H103	H	-3.889500	0.622725	0.430032
H104	H	-4.118456	0.975058	-0.532667
H105	H	-4.224090	0.326141	-0.672679
C106	C	-3.726305	0.494315	-0.781276
C107	C	-3.684213	0.495333	-0.692882
H108	H	-3.670794	0.553161	-0.808348
H109	H	-3.868482	0.498188	-0.803755
H110	H	-3.668152	0.430911	-0.791671
H111	H	-3.742380	0.558733	-0.682487
H112	H	-3.542009	0.491469	-0.670396
H113	H	-4.049250	0.911513	-0.372328
H114	H	-4.262994	0.752418	0.148968
