data_functionalizedCrystal
_audit_creation_method	'MofGen! by Chris Wilmer'
_symmetry_space_group_name_H-M	'P1'
_symmetry_Int_Tables_number	1
_symmetry_cell_setting	triclinic
loop_
_symmetry_equiv_pos_as_xyz
  x,y,z
_cell_length_a	23.532407
_cell_length_b	19.288865
_cell_length_c	18.366186
_cell_angle_alpha	90.011479
_cell_angle_beta	89.988493
_cell_angle_gamma	97.007538
loop_
_atom_site_label
_atom_site_type_symbol
_atom_site_fract_x
_atom_site_fract_y
_atom_site_fract_z
O1	O	0.755438	-0.084319	-0.060599
O2	O	1.088771	0.249014	0.272735
O3	O	1.422105	0.582348	0.606068
O4	O	0.589600	-0.096519	-0.060592
O5	O	0.922933	0.236814	0.272741
O6	O	1.256267	0.570147	0.606074
O7	O	0.677311	0.010726	-0.060581
O8	O	1.010644	0.344059	0.272752
O9	O	1.343978	0.677393	0.606085
O10	O	0.667727	-0.191564	-0.060610
O11	O	1.001060	0.141769	0.272724
O12	O	1.334394	0.475102	0.606057
O13	O	0.677296	0.010731	0.060518
O14	O	1.010629	0.344064	0.393851
O15	O	1.343963	0.677398	0.727185
O16	O	0.589585	-0.096514	0.060507
O17	O	0.922918	0.236819	0.393840
O18	O	1.256252	0.570153	0.727174
O19	O	0.755423	-0.084314	0.060501
O20	O	1.088756	0.249019	0.393834
O21	O	1.422090	0.582353	0.727167
Zn22	Zn	0.672502	-0.090413	0.079731
Zn23	Zn	1.005835	0.242920	0.413064
Zn24	Zn	1.339168	0.576254	0.746398
Zn25	Zn	0.672521	-0.090420	-0.079823
Zn26	Zn	1.005855	0.242913	0.253511
Zn27	Zn	1.339188	0.576247	0.586844
O28	O	0.667712	-0.191559	0.060490
O29	O	1.001045	0.141774	0.393823
O30	O	1.334379	0.475108	0.727156
C31	C	0.568376	-0.096206	-0.000042
C32	C	0.901709	0.237127	0.333292
C33	C	1.235042	0.570461	0.666625
C34	C	0.505157	-0.095272	-0.000039
C35	C	0.838490	0.238061	0.333295
C36	C	1.171823	0.571395	0.666628
C37	C	0.676995	0.036604	-0.000029
C38	C	1.010328	0.369937	0.333304
C39	C	1.343662	0.703271	0.666637
C40	C	0.676069	0.113705	-0.000023
C41	C	1.009403	0.447038	0.333310
C42	C	1.342736	0.780371	0.666644
C43	C	0.776647	-0.084627	-0.000052
C44	C	1.109981	0.248706	0.333282
C45	C	1.443314	0.582039	0.666615
C46	C	0.839866	-0.085561	-0.000059
C47	C	1.173200	0.247772	0.333274
C48	C	1.506533	0.581105	0.666607
C49	C	1.238850	-0.027954	-0.000026
C50	C	1.572183	0.305379	0.333307
C51	C	1.905517	0.638712	0.666641
C52	C	1.298252	-0.028822	-0.000023
C53	C	1.631585	0.304511	0.333310
C54	C	1.964919	0.637845	0.666644
O55	O	1.334886	0.024580	0.000011
O56	O	1.668219	0.357913	0.333344
O57	O	2.001552	0.691247	0.666677
N58	N	1.321010	-0.092579	-0.000034
N59	N	1.654344	0.240754	0.333299
N60	N	1.987677	0.574087	0.666633
C61	C	1.284363	-0.155473	-0.000041
C62	C	1.617696	0.177860	0.333292
C63	C	1.951030	0.511194	0.666626
O64	O	1.309175	-0.209783	-0.000049
O65	O	1.642509	0.123550	0.333284
O66	O	1.975842	0.456884	0.666617
C67	C	1.224962	-0.154604	-0.000039
C68	C	1.558295	0.178729	0.333294
C69	C	1.891629	0.512062	0.666628
C70	C	1.202207	-0.090843	-0.000035
C71	C	1.535541	0.242490	0.333298
C72	C	1.868874	0.575824	0.666632
C73	C	1.216094	0.035802	-0.000022
C74	C	1.549428	0.369135	0.333312
C75	C	1.882761	0.702468	0.666645
C76	C	1.156696	0.036669	-0.000026
C77	C	1.490030	0.370002	0.333307
C78	C	1.823363	0.703336	0.666641
C79	C	1.120054	-0.026220	-0.000035
C80	C	1.453387	0.307114	0.333298
C81	C	1.786721	0.640447	0.666632
C82	C	1.142809	-0.089976	-0.000040
C83	C	1.476143	0.243358	0.333294
C84	C	1.809476	0.576691	0.666627
C85	C	1.188316	-0.217497	-0.000040
C86	C	1.521649	0.115836	0.333293
C87	C	1.854983	0.449169	0.666626
C88	C	1.128912	-0.216623	-0.000038
C89	C	1.462245	0.116710	0.333296
C90	C	1.795578	0.450043	0.666629
C91	C	1.106157	-0.152862	-0.000034
C92	C	1.439490	0.180471	0.333299
C93	C	1.772824	0.513805	0.666633
C94	C	1.046769	-0.151997	-0.000053
C95	C	1.380102	0.181336	0.333280
C96	C	1.713436	0.514670	0.666614
N97	N	1.024011	-0.088240	-0.000042
N98	N	1.357344	0.245093	0.333291
N99	N	1.690677	0.578427	0.666625
C100	C	1.060653	-0.025351	-0.000033
C101	C	1.393986	0.307982	0.333300
C102	C	1.727320	0.641316	0.666634
C103	C	1.409109	-0.157292	-0.000044
C104	C	1.742443	0.176041	0.333289
C105	C	2.075776	0.509375	0.666623
C106	C	1.468509	-0.158161	-0.000051
C107	C	1.801842	0.175172	0.333282
C108	C	2.135176	0.508506	0.666615
C109	C	1.482394	-0.031510	-0.000032
C110	C	1.815727	0.301823	0.333301
C111	C	2.149061	0.635157	0.666635
C112	C	1.422993	-0.030641	-0.000030
C113	C	1.756326	0.302692	0.333303
C114	C	2.089660	0.636025	0.666637
C115	C	1.386351	-0.093535	-0.000033
C116	C	1.719684	0.239799	0.333300
C117	C	2.053018	0.573132	0.666634
C118	C	0.935913	-0.023534	-0.000043
C119	C	1.269246	0.309799	0.333290
C120	C	1.602579	0.643132	0.666624
C121	C	0.876509	-0.022672	-0.000050
C122	C	1.209842	0.310661	0.333283
C123	C	1.543175	0.643994	0.666616
C124	C	0.862629	-0.149323	-0.000066
C125	C	1.195962	0.184010	0.333267
C126	C	1.529296	0.517343	0.666601
C127	C	0.922028	-0.150185	-0.000062
C128	C	1.255361	0.183148	0.333271
C129	C	1.588694	0.516481	0.666604
C130	C	0.958669	-0.087285	-0.000048
C131	C	1.292002	0.246048	0.333285
C132	C	1.625335	0.579381	0.666618
O133	O	1.010100	-0.205371	-0.000084
O134	O	1.343434	0.127962	0.333250
O135	O	1.676767	0.461295	0.666583
O136	O	1.035833	0.028950	-0.000015
O137	O	1.369166	0.362283	0.333318
O138	O	1.702499	0.695617	0.666652
C139	C	0.668028	-0.217437	-0.000064
C140	C	1.001361	0.115896	0.333270
C141	C	1.334695	0.449230	0.666603
C142	C	0.668954	-0.294538	-0.000075
C143	C	1.002287	0.038795	0.333258
C144	C	1.335620	0.372129	0.666592
N145	N	0.672493	-0.090408	0.188622
N146	N	1.005826	0.242925	0.521955
N147	N	1.339159	0.576259	0.855289
C148	C	0.727534	0.158560	-0.000021
C149	C	1.060867	0.491893	0.333312
C150	C	1.394201	0.825226	0.666645
C151	C	0.726664	0.231004	-0.000033
C152	C	1.059998	0.564337	0.333300
C153	C	1.393331	0.897671	0.666634
C154	C	0.674327	0.258590	-0.000031
C155	C	1.007660	0.591924	0.333302
C156	C	1.340994	0.925257	0.666635
C157	C	0.622855	0.213725	-0.000037
C158	C	0.956189	0.547059	0.333296
C159	C	1.289522	0.880392	0.666630
C160	C	0.623727	0.141283	-0.000033
C161	C	0.957060	0.474616	0.333301
C162	C	1.290393	0.807949	0.666634
C163	C	0.633179	0.366753	0.042389
C164	C	0.966512	0.700086	0.375722
C165	C	1.299845	1.033419	0.709055
C166	C	0.632310	0.439194	0.042389
C167	C	0.965643	0.772528	0.375722
C168	C	1.298976	1.105861	0.709056
C169	C	0.671638	0.482028	-0.000048
C170	C	1.004971	0.815361	0.333286
C171	C	1.338305	1.148694	0.666619
C172	C	0.711845	0.452412	-0.042475
C173	C	1.045179	0.785745	0.290858
C174	C	1.378512	1.119078	0.624192
C175	C	0.712716	0.379969	-0.042471
C176	C	1.046050	0.713302	0.290863
C177	C	1.379383	1.046636	0.624196
C178	C	0.673377	0.337141	-0.000036
C179	C	1.006710	0.670475	0.333297
C180	C	1.340043	1.003808	0.666630
C181	C	0.722163	0.605436	-0.000059
C182	C	1.055497	0.938769	0.333274
C183	C	1.388830	1.272102	0.666607
C184	C	0.721292	0.677881	-0.000075
C185	C	1.054625	1.011214	0.333258
C186	C	1.387958	1.344548	0.666591
C187	C	0.617481	0.660601	-0.000072
C188	C	0.950814	0.993934	0.333261
C189	C	1.284148	1.327267	0.666594
C190	C	0.618354	0.588157	-0.000064
C191	C	0.951688	0.921490	0.333270
C192	C	1.285021	1.254824	0.666603
C193	C	0.670697	0.560579	-0.000054
C194	C	1.004030	0.893912	0.333280
C195	C	1.337364	1.227246	0.666613
N196	N	0.672535	-0.090420	-0.188714
N197	N	1.005868	0.242914	0.144620
N198	N	1.339202	0.576247	0.477953
C199	C	0.711344	-0.042943	0.226727
C200	C	1.044677	0.290390	0.560061
C201	C	1.378010	0.623724	0.893394
C202	C	0.711347	-0.042940	0.302955
C203	C	1.044681	0.290393	0.636289
C204	C	1.378014	0.623727	0.969622
C205	C	0.672505	-0.090414	0.341075
C206	C	1.005838	0.242920	0.674408
C207	C	1.339172	0.576253	1.007742
C208	C	0.633647	-0.137882	0.302960
C209	C	0.966980	0.195451	0.636294
C210	C	1.300313	0.528784	0.969627
C211	C	0.633640	-0.137880	0.226734
C212	C	0.966974	0.195454	0.560067
C213	C	1.300307	0.528787	0.893401
C214	C	0.664881	-0.153725	0.461826
C215	C	0.998215	0.179608	0.795160
C216	C	1.331548	0.512942	1.128493
C217	C	0.664892	-0.153729	0.538051
C218	C	0.998225	0.179605	0.871385
C219	C	1.331558	0.512938	1.204718
C220	C	0.672521	-0.090422	0.576182
C221	C	1.005855	0.242911	0.909516
C222	C	1.339188	0.576244	1.242849
C223	C	0.680153	-0.027109	0.538079
C224	C	1.013486	0.306224	0.871412
C225	C	1.346819	0.639557	1.204746
C226	C	0.680147	-0.027107	0.461853
C227	C	1.013480	0.306227	0.795186
C228	C	1.346813	0.639560	1.128519
C229	C	0.672507	-0.090422	0.423730
C230	C	1.005841	0.242912	0.757063
C231	C	1.339174	0.576245	1.090396
C232	C	0.711378	-0.042950	0.696943
C233	C	1.044712	0.290383	1.030276
C234	C	1.378045	0.623717	1.363609
C235	C	0.711378	-0.042946	0.773172
C236	C	1.044711	0.290387	1.106505
C237	C	1.378045	0.623721	1.439839
C238	C	0.633680	-0.137895	0.773176
C239	C	0.967014	0.195439	1.106509
C240	C	1.300347	0.528772	1.439842
C241	C	0.633678	-0.137893	0.696948
C242	C	0.967011	0.195441	1.030281
C243	C	1.300345	0.528774	1.363614
C244	C	0.672530	-0.090421	0.658836
C245	C	1.005863	0.242912	0.992169
C246	C	1.339197	0.576246	1.325503
H247	H	0.857985	0.029252	-0.000049
H248	H	1.191319	0.362585	0.333284
H249	H	1.524652	0.695918	0.666617
Cl250	Cl	0.655342	-0.233320	0.413898
Cl251	Cl	0.988675	0.100013	0.747232
Cl252	Cl	1.322009	0.433347	1.080565
H253	H	0.602020	-0.176535	0.334001
H254	H	0.935353	0.156798	0.667335
H255	H	1.268687	0.490131	1.000668
H256	H	1.487030	-0.210082	-0.000065
H257	H	1.820364	0.123251	0.333269
H258	H	2.153697	0.456585	0.666602
Cl259	Cl	0.793336	0.123894	-0.000030
Cl260	Cl	1.126670	0.457227	0.333304
Cl261	Cl	1.460003	0.790561	0.666637
H262	H	0.743870	0.487285	-0.077031
H263	H	1.077203	0.820619	0.256302
H264	H	1.410537	1.153952	0.589635
H265	H	0.764784	0.582981	-0.000055
H266	H	1.098117	0.916314	0.333279
H267	H	1.431451	1.249647	0.666612
H268	H	0.686365	0.024441	0.569124
H269	H	1.019699	0.357774	0.902457
H270	H	1.353032	0.691108	1.235790
Cl271	Cl	0.584796	-0.197555	0.178827
Cl272	Cl	0.918129	0.135778	0.512160
Cl273	Cl	1.251463	0.469111	0.845494
H274	H	0.965739	0.027685	-0.000032
H275	H	1.299073	0.361018	0.333301
H276	H	1.632406	0.694352	0.666635
Cl277	Cl	1.363050	-0.236366	-0.000057
Cl278	Cl	1.696383	0.096967	0.333276
Cl279	Cl	2.029717	0.430301	0.666609
Cl280	Cl	0.760182	0.016737	0.178816
Cl281	Cl	1.093515	0.350071	0.512149
Cl282	Cl	1.426849	0.683404	0.845483
H283	H	0.602044	-0.176546	0.665920
H284	H	0.935377	0.156788	0.999254
H285	H	1.268711	0.490121	1.332587
Cl286	Cl	1.128100	0.116831	-0.000028
Cl287	Cl	1.461433	0.450164	0.333305
Cl288	Cl	1.794766	0.783497	0.666639
Cl289	Cl	0.760218	0.016732	0.649029
Cl290	Cl	1.093551	0.350065	0.982363
Cl291	Cl	1.426884	0.683398	1.315696
Cl292	Cl	0.763256	0.342739	-0.095810
Cl293	Cl	1.096590	0.676072	0.237523
Cl294	Cl	1.429923	1.009405	0.570856
Cl295	Cl	1.262150	0.114873	-0.000010
Cl296	Cl	1.595483	0.448207	0.333324
Cl297	Cl	1.928817	0.781540	0.666657
H298	H	0.576446	0.551635	-0.000061
H299	H	0.909779	0.884968	0.333273
H300	H	1.243113	1.218301	0.666606
Cl301	Cl	0.583733	0.312912	0.095745
Cl302	Cl	0.917067	0.646246	0.429078
Cl303	Cl	1.250400	0.979579	0.762412
Cl304	Cl	1.082851	-0.295695	-0.000039
Cl305	Cl	1.416184	0.037639	0.333295
Cl306	Cl	1.749517	0.370972	0.666628
Cl307	Cl	0.785997	0.734272	-0.000078
Cl308	Cl	1.119330	1.067605	0.333255
Cl309	Cl	1.452663	1.400939	0.666588
H310	H	0.574867	0.683060	-0.000075
H311	H	0.908200	1.016394	0.333259
H312	H	1.241534	1.349727	0.666592
H313	H	0.832784	-0.200525	-0.000077
H314	H	1.166118	0.132808	0.333256
H315	H	1.499451	0.466141	0.666590
H316	H	0.581816	0.104761	-0.000034
H317	H	0.915150	0.438094	0.333299
H318	H	1.248483	0.771428	0.666633
Cl319	Cl	1.394393	0.049518	-0.000022
Cl320	Cl	1.727727	0.382852	0.333312
Cl321	Cl	2.061060	0.716185	0.666645
Cl322	Cl	0.760194	0.016735	0.350867
Cl323	Cl	1.093527	0.350069	0.684200
Cl324	Cl	1.426860	0.683402	1.017534
Cl325	Cl	0.584846	-0.197571	0.821092
Cl326	Cl	0.918179	0.135762	1.154425
Cl327	Cl	1.251513	0.469096	1.487759
H328	H	1.206832	-0.269419	-0.000047
H329	H	1.540165	0.063915	0.333287
H330	H	1.873499	0.397248	0.666620
Cl331	Cl	0.581766	0.476419	0.095729
Cl332	Cl	0.915100	0.809752	0.429062
Cl333	Cl	1.248433	1.143086	0.762395
H334	H	0.768575	0.267532	-0.000034
H335	H	1.101908	0.600865	0.333299
H336	H	1.435241	0.934199	0.666632
Cl337	Cl	1.528470	0.047551	-0.000021
Cl338	Cl	1.861803	0.380884	0.333312
Cl339	Cl	2.195137	0.714218	0.666646
H340	H	0.940555	-0.202105	-0.000066
H341	H	1.273889	0.131228	0.333267
H342	H	1.607222	0.464562	0.666601
Cl343	Cl	0.557060	0.248404	-0.000041
Cl344	Cl	0.890393	0.581737	0.333292
Cl345	Cl	1.223726	0.915071	0.666626
H346	H	0.686359	0.024445	0.430832
H347	H	1.019692	0.357778	0.764165
H348	H	1.353025	0.691112	1.097499
Cl349	Cl	0.655302	-0.233321	0.585945
Cl350	Cl	0.988635	0.100012	0.919278
Cl351	Cl	1.321969	0.433346	1.252612
Cl352	Cl	0.760220	0.016733	0.821079
Cl353	Cl	1.093553	0.350067	1.154412
Cl354	Cl	1.426887	0.683400	1.487745
