data_functionalizedCrystal
_audit_creation_method	'MofGen! by Chris Wilmer'
_symmetry_space_group_name_H-M	'P1'
_symmetry_Int_Tables_number	1
_symmetry_cell_setting	triclinic
loop_
_symmetry_equiv_pos_as_xyz
  x,y,z
_cell_length_a	23.096457
_cell_length_b	12.970454
_cell_length_c	12.970454
_cell_angle_alpha	59.999776
_cell_angle_beta	89.998137
_cell_angle_gamma	59.999719
loop_
_atom_site_label
_atom_site_type_symbol
_atom_site_fract_x
_atom_site_fract_y
_atom_site_fract_z
Zr1	Zr	0.557765	1.128537	-0.135341
O2	O	0.465317	1.343624	-0.299960
O3	O	0.586105	0.913447	-0.084876
O4	O	0.586106	1.128537	-0.299967
O5	O	0.465316	1.128535	0.084797
O6	O	0.681387	1.128540	-0.299973
O7	O	0.465317	1.128534	-0.084869
O8	O	0.681385	0.743784	0.084785
O9	O	0.465317	1.513292	-0.299961
O10	O	0.669299	1.001920	-0.063359
O11	O	0.598192	1.001918	0.063266
O12	O	0.598193	1.255159	-0.189976
O13	O	0.527086	1.255157	-0.063351
Zr14	Zr	0.709725	1.128543	0.135247
Zr15	Zr	0.709727	1.128541	-0.135351
Zr16	Zr	0.557764	1.128538	0.135257
Zr17	Zr	0.557765	1.399137	-0.135343
Zr18	Zr	0.709725	0.857943	0.135249
O19	O	0.681385	1.343633	0.084782
O20	O	0.681387	1.343631	-0.299974
O21	O	0.465316	1.343626	0.084796
O22	O	0.802173	0.913456	0.299866
O23	O	0.802175	0.913454	-0.084890
O24	O	0.586104	0.913449	0.299880
O25	O	0.802175	1.128545	-0.084891
O26	O	0.681384	1.128543	0.299873
O27	O	0.586104	1.128540	0.299879
O28	O	0.802174	1.128545	0.084775
O29	O	0.586106	1.513295	-0.299969
O30	O	0.681384	0.743785	0.299875
O31	O	0.802173	0.743788	0.299867
O32	O	0.802174	0.743787	0.084777
O33	O	0.465317	1.513293	-0.084871
O34	O	0.586106	1.513296	-0.084879
O35	O	0.669298	1.001921	0.189882
O36	O	0.740405	1.001923	0.063257
O37	O	0.669299	1.255162	-0.063360
O38	O	0.598192	1.255160	0.063265
C39	C	0.633745	0.790061	-0.000045
C40	C	0.633745	0.675184	-0.000045
C41	C	0.443665	1.128534	-0.000035
C42	C	0.379154	1.128532	-0.000030
C43	C	0.385964	0.996348	0.066050
C44	C	0.325349	0.996346	0.066056
C45	C	0.257923	1.128536	-0.000044
C46	C	0.251114	1.260737	-0.066128
C47	C	0.311730	1.260736	-0.066121
N48	N	0.135128	1.226931	-0.107618
N49	N	0.077548	1.226924	-0.107622
C50	C	0.075290	1.128549	-0.000067
N51	N	0.132793	1.030159	0.107491
N52	N	0.190379	1.030162	0.107493
C53	C	0.192192	1.128552	-0.000058
C54	C	0.016378	0.996353	0.066026
C55	C	-0.044241	0.996357	0.066035
C56	C	-0.118475	1.260752	-0.066161
C57	C	-0.057857	1.260744	-0.066157
C58	C	0.009567	1.128541	-0.000067
C59	C	0.823826	1.128546	-0.000059
C60	C	0.888337	1.128548	-0.000064
C61	C	0.633747	1.128538	-0.338525
C62	C	0.633747	1.128538	-0.453401
C63	C	0.633745	1.467019	-0.000049
C64	C	0.633745	1.581896	-0.000049
C65	C	0.633744	1.128542	0.338430
C66	C	0.633744	1.128542	0.453307
C67	C	0.823826	0.790066	-0.000058
C68	C	0.888337	0.675192	-0.000061
C69	C	0.633744	0.790062	0.338432
C70	C	0.633744	0.675186	0.453309
C71	C	0.823824	0.790068	0.338420
C72	C	0.888335	0.675194	0.453292
C73	C	0.443666	1.467012	-0.338514
C74	C	0.379155	1.581886	-0.453386
C75	C	0.443665	1.467013	-0.000036
C76	C	0.379154	1.581888	-0.000033
C77	C	0.633747	1.467017	-0.338526
C78	C	0.633747	1.581894	-0.453403
C79	C	0.881516	0.621244	-0.066166
C80	C	0.942125	0.513322	-0.066195
C81	C	1.009556	0.459342	-0.000111
C82	C	1.016376	0.513300	0.065996
C83	C	0.955767	0.621228	0.066017
C84	C	0.955754	0.621249	0.441141
C85	C	1.016375	0.513327	0.549065
C86	C	1.009575	0.459346	0.669140
C87	C	0.942150	0.513302	0.681289
C88	C	0.881530	0.621229	0.573366
C89	C	0.311737	1.635844	-0.441235
C90	C	0.251116	1.743799	-0.549160
C91	C	0.257915	1.797787	-0.669234
C92	C	0.325341	1.743824	-0.681384
C93	C	0.385960	1.635878	-0.573460
C94	C	0.385975	1.635847	0.066061
C95	C	0.325365	1.743799	0.066060
C96	C	0.257935	1.797783	-0.000028
C97	C	0.251115	1.743819	-0.066130
C98	C	0.311724	1.635877	-0.066136
H99	H	0.440860	0.888698	0.119858
H100	H	0.196205	1.787789	-0.119938
H101	H	0.306187	1.591894	-0.343474
H102	H	-0.173373	1.368383	-0.119981
H103	H	0.208589	1.885677	-0.000014
H104	H	0.306160	1.591946	-0.119954
O105	O	0.305241	1.389015	-0.130208
C106	C	0.373200	1.360666	-0.116059
H107	H	0.413376	1.247055	-0.026794
H108	H	0.388643	1.366935	-0.201459
C109	C	0.322956	1.614241	-0.215461
C110	C	0.372300	1.474706	-0.105818
H111	H	0.322402	1.684588	-0.209150
H112	H	0.277171	1.633342	-0.224999
H113	H	0.335831	1.619444	-0.286617
H114	H	0.359420	1.469499	-0.034667
H115	H	0.418084	1.455606	-0.096269
H116	H	1.058941	0.371464	0.757008
O117	O	0.451397	1.583570	-0.585499
C118	C	0.444389	1.654400	-0.714626
H119	H	0.390291	1.698890	-0.772166
H120	H	0.449362	1.748139	-0.746427
C121	C	0.569540	1.490405	-0.664317
C122	C	0.503098	1.545038	-0.734989
H123	H	0.605756	1.422949	-0.676880
H124	H	0.574262	1.442688	-0.577322
H125	H	0.573674	1.568533	-0.690827
H126	H	0.498961	1.466913	-0.708468
H127	H	0.498376	1.592739	-0.821981
O128	O	0.815965	0.673787	-0.130261
C129	C	0.763923	0.780647	-0.116111
H130	H	0.787539	0.762917	-0.026835
H131	H	0.744966	0.893544	-0.201501
C132	C	0.671772	0.790595	-0.215550
C133	C	0.700777	0.768811	-0.105895
H134	H	0.632819	0.783301	-0.209254
H135	H	0.706834	0.718606	-0.225089
H136	H	0.655980	0.884676	-0.286698
H137	H	0.716576	0.674726	-0.034752
H138	H	0.665717	0.840785	-0.096344
O139	O	1.081896	0.460615	0.130359
C140	C	1.119170	0.309363	0.223077
H141	H	1.079828	0.279849	0.247635
H142	H	1.155120	0.247650	0.185217
C143	C	1.212786	0.303627	0.312162
C144	C	1.164466	0.267379	0.342332
H145	H	1.240730	0.277726	0.385722
H146	H	1.187676	0.405527	0.249694
H147	H	1.242738	0.252196	0.280610
H148	H	1.134509	0.318823	0.373867
H149	H	1.189572	0.165486	0.404808
O150	O	0.962525	0.673409	0.130359
C151	C	1.035039	0.602634	0.188653
H152	H	1.067354	0.493246	0.201707
H153	H	1.052899	0.673423	0.126715
C154	C	1.006782	0.711814	0.302333
C155	C	1.046471	0.577457	0.318375
H156	H	1.013835	0.696289	0.382349
H157	H	0.957928	0.759502	0.263056
H158	H	1.021670	0.770791	0.250713
H159	H	1.031577	0.518490	0.369980
H160	H	1.095323	0.529758	0.357664
H161	H	0.071278	0.888705	0.119867
O162	O	1.081879	0.461079	0.537300
C163	C	1.119164	0.487456	0.595770
H164	H	1.079832	0.582038	0.600772
H165	H	1.155152	0.385577	0.695319
C166	C	1.212720	0.409961	0.512261
C167	C	1.164411	0.526136	0.518396
H168	H	1.240633	0.433815	0.464538
H169	H	1.187601	0.392185	0.472873
H170	H	1.242702	0.325072	0.595224
H171	H	1.134424	0.611017	0.435436
H172	H	1.189525	0.543928	0.557769
H173	H	0.196212	1.368367	-0.119946
H174	H	0.330895	0.888702	0.119867
H175	H	0.208549	1.885682	-0.757102
O176	O	0.815988	0.673819	0.584955
C177	C	0.763933	0.780626	0.463962
H178	H	0.787537	0.827865	0.392392
H179	H	0.744979	0.728973	0.436478
C180	C	0.671800	0.845238	0.553504
C181	C	0.700789	0.903267	0.465602
H182	H	0.632848	0.920886	0.554515
H183	H	0.706869	0.773277	0.635020
H184	H	0.656011	0.802195	0.530590
H185	H	0.716585	0.946292	0.488525
H186	H	0.665720	0.975239	0.384090
H187	H	-0.038688	0.888712	0.119855
H188	H	0.936624	0.469334	0.779069
O189	O	0.185678	1.795991	-0.537116
C190	C	0.192683	1.725196	-0.407990
H191	H	0.246776	1.615797	-0.350457
H192	H	0.187723	1.795960	-0.376164
C193	C	0.067528	1.834416	-0.458312
C194	C	0.133963	1.700045	-0.387650
H195	H	0.031305	1.818907	-0.445764
H196	H	0.062807	1.882117	-0.545307
H197	H	0.063404	1.893373	-0.431783
H198	H	0.138089	1.641099	-0.414191
H199	H	0.138683	1.652334	-0.300659
H200	H	-0.063406	1.368383	-0.119976
H201	H	0.936558	0.469402	-0.120027
H202	H	0.961304	0.665185	0.343379
H203	H	1.058902	0.371459	-0.000136
H204	H	0.330869	1.787794	-0.779161
H205	H	0.440875	1.591902	0.119886
H206	H	0.330932	1.787718	0.119893
