data_functionalizedCrystal
_audit_creation_method	'MofGen! by Chris Wilmer'
_symmetry_space_group_name_H-M	'P1'
_symmetry_Int_Tables_number	1
_symmetry_cell_setting	triclinic
loop_
_symmetry_equiv_pos_as_xyz
  x,y,z
_cell_length_a	15.298068
_cell_length_b	12.594516
_cell_length_c	15.298259
_cell_angle_alpha	80.293071
_cell_angle_beta	91.587309
_cell_angle_gamma	99.676660
loop_
_atom_site_label
_atom_site_type_symbol
_atom_site_fract_x
_atom_site_fract_y
_atom_site_fract_z
Zn1	Zn	1.253485	-0.019535	-0.727438
Zn2	Zn	1.278742	-0.222304	-0.580970
Zn3	Zn	1.132345	-0.079378	-0.555592
Zn4	Zn	1.106990	-0.232540	-0.702006
O5	O	1.192891	-0.138439	-0.641501
O6	O	1.379412	-0.017104	-0.729272
O7	O	1.280504	-0.224105	-0.455031
O8	O	1.148456	0.077520	-0.578410
O9	O	1.397968	-0.166078	-0.621663
O10	O	1.237457	0.121486	-0.704664
O11	O	1.172946	-0.119098	-0.436386
O12	O	1.006405	-0.129023	-0.553750
O13	O	1.105241	-0.183524	-0.827952
O14	O	0.987777	-0.241551	-0.661320
O15	O	1.212871	-0.027030	-0.846636
O16	O	1.255918	-0.372621	-0.597003
O17	O	1.129732	-0.380141	-0.685928
C18	C	0.965308	-0.192892	-0.602022
C19	C	0.867944	-0.216210	-0.585154
C20	C	0.554786	0.027947	-0.762066
C21	C	0.646264	0.049853	-0.777920
C22	C	0.701688	-0.016660	-0.729729
C23	C	0.665626	-0.105084	-0.665683
C24	C	0.574138	-0.126997	-0.649832
C25	C	0.721040	-0.171605	-0.617496
C26	C	0.684978	-0.260028	-0.553449
C27	C	0.593499	-0.281937	-0.537601
C28	C	0.538075	-0.215423	-0.585791
C29	C	0.812528	-0.149692	-0.633346
C30	C	0.831880	-0.304636	-0.521113
C31	C	0.740402	-0.326542	-0.505259
C32	C	1.192835	-0.414995	-0.641483
C33	C	1.192886	-0.533283	-0.641518
C34	C	1.124255	-0.606673	-0.689842
C35	C	1.116744	-0.696147	-0.606220
C36	C	1.200473	-0.654587	-0.725168
C37	C	1.185341	-0.621215	-0.557847
C38	C	1.269097	-0.579632	-0.676854
C39	C	1.261627	-0.669075	-0.593182
C40	C	1.421362	-0.083774	-0.681135
C41	C	1.518722	-0.060479	-0.698025
C42	C	1.153410	-0.099743	-0.869964
C43	C	1.136586	-0.083253	-0.967321
C44	C	1.192967	0.139206	-0.641543
C45	C	1.193000	0.257522	-0.641561
C46	C	1.313163	-0.255468	-1.280578
C47	C	1.328966	-0.270969	-1.189105
C48	C	1.280873	-0.224041	-1.133655
C49	C	1.216974	-0.161610	-1.169686
C50	C	1.201165	-0.146115	-1.261167
C51	C	1.168874	-0.114688	-1.114244
C52	C	1.104975	-0.052257	-1.150275
C53	C	1.089169	-0.036764	-1.241747
C54	C	1.137262	-0.083692	-1.297198
C55	C	1.184683	-0.130183	-1.022763
C56	C	1.072684	-0.020830	-1.003352
C57	C	1.056882	-0.005329	-1.094825
C58	C	1.232267	-0.176896	-0.413936
C59	C	1.249261	-0.193045	-0.316609
H60	H	0.841881	-0.077695	-0.685493
F61	F	1.032570	-0.762059	-0.567173
F62	F	0.799047	0.006657	-0.746603
H63	H	1.380984	-0.321812	-1.159774
F64	F	1.252687	-0.196625	-0.984426
F65	F	1.021133	0.029639	-1.280087
H66	H	0.675618	0.121845	-0.830069
F67	F	0.495794	0.098715	-0.813354
H68	H	0.463584	-0.233260	-0.572892
H69	H	0.564140	-0.353944	-0.485456
F70	F	0.988877	0.061112	-1.133183
F71	F	1.021487	0.029104	-0.944340
F72	F	0.702011	-0.420646	-0.437098
H73	H	0.877007	-0.358801	-0.481876
F74	F	1.364332	-0.305416	-1.339595
H75	H	1.066140	-0.579163	-0.730621
H76	H	1.178892	-0.606084	-0.487090
F77	F	1.337567	-0.704814	-0.539720
F78	F	1.353243	-0.513688	-0.715927
H79	H	1.206847	-0.669869	-0.795892
F80	F	1.120449	-0.067194	-1.394556
F81	F	1.297695	-0.240537	-1.036302
