data_functionalizedCrystal
_audit_creation_method	'MofGen! by Chris Wilmer'
_symmetry_space_group_name_H-M	'P1'
_symmetry_Int_Tables_number	1
_symmetry_cell_setting	triclinic
loop_
_symmetry_equiv_pos_as_xyz
  x,y,z
_cell_length_a	17.640112
_cell_length_b	17.640280
_cell_length_c	19.076919
_cell_angle_alpha	81.491119
_cell_angle_beta	102.961715
_cell_angle_gamma	92.184069
loop_
_atom_site_label
_atom_site_type_symbol
_atom_site_fract_x
_atom_site_fract_y
_atom_site_fract_z
Zn1	Zn	1.216229	-0.076018	-0.165696
Zn2	Zn	1.246841	-0.195470	-0.021024
Zn3	Zn	1.092693	-0.096566	-0.066523
Zn4	Zn	1.115229	-0.228173	-0.156454
O5	O	1.167748	-0.149057	-0.102424
O6	O	1.327070	-0.069577	-0.131331
O7	O	1.229773	-0.177264	0.071123
O8	O	1.086838	0.011228	-0.102588
O9	O	1.349560	-0.157338	-0.025041
O10	O	1.177599	0.026325	-0.175449
O11	O	1.116521	-0.104600	0.037695
O12	O	0.988902	-0.136310	-0.093626
O13	O	1.125247	-0.213076	-0.255861
O14	O	1.005459	-0.233001	-0.159698
O15	O	1.199451	-0.101288	-0.262652
O16	O	1.251624	-0.304877	-0.016080
O17	O	1.154930	-0.328904	-0.115579
C18	C	0.969493	-0.190435	-0.130596
C19	C	0.884683	-0.208155	-0.142661
C20	C	1.209064	-0.344130	-0.059902
C21	C	1.226809	-0.427570	-0.041724
C22	C	0.562458	-0.014422	-0.010776
C23	C	0.482768	-0.031089	-0.022119
C24	C	0.500097	-0.131897	-0.090736
C25	C	0.579789	-0.115236	-0.079402
C26	C	0.610963	-0.056499	-0.039421
C27	C	0.628294	-0.157313	-0.108046
C28	C	0.707980	-0.140656	-0.096709
C29	C	0.739161	-0.081922	-0.056728
C30	C	0.690649	-0.039841	-0.028084
C31	C	0.597119	-0.216054	-0.148023
C32	C	0.645624	-0.258130	-0.176667
C33	C	0.725311	-0.241470	-0.165335
C34	C	0.756492	-0.182736	-0.125354
C35	C	0.773822	-0.283550	-0.193979
C36	C	0.853508	-0.266893	-0.182643
C37	C	0.836178	-0.166079	-0.114017
C38	C	1.033250	-0.764707	-0.240729
C39	C	1.049926	-0.843110	-0.223625
C40	C	1.150672	-0.818018	-0.120099
C41	C	1.134007	-0.739610	-0.137195
C42	C	1.075295	-0.712962	-0.197511
C43	C	1.176051	-0.687865	-0.093977
C44	C	1.159385	-0.609466	-0.111071
C45	C	1.100674	-0.582811	-0.171382
C46	C	1.058628	-0.634562	-0.214604
C47	C	1.234760	-0.714516	-0.033659
C48	C	1.276804	-0.662771	0.009559
C49	C	1.260142	-0.584369	-0.007537
C50	C	1.201431	-0.557714	-0.067849
C51	C	1.302187	-0.532618	0.035685
C52	C	1.285521	-0.454218	0.018592
C53	C	1.184764	-0.479315	-0.084942
C54	C	1.366776	-0.107518	-0.074142
C55	C	1.451591	-0.089816	-0.062090
C56	C	1.161448	-0.158538	-0.285426
C57	C	1.158764	-0.162578	-0.363410
C58	C	1.126290	0.046782	-0.145125
C59	C	1.108623	0.130236	-0.163321
C60	C	1.196135	-0.106277	-0.403584
C61	C	1.193602	-0.110072	-0.476861
C62	C	1.153703	-0.170172	-0.509961
C63	C	1.116327	-0.226476	-0.469782
C64	C	1.118855	-0.222677	-0.396509
C65	C	1.141995	-0.187772	-0.728728
C66	C	1.139472	-0.191568	-0.802007
C67	C	1.216746	-0.075163	-0.809080
C68	C	1.219274	-0.071372	-0.735804
C69	C	1.181895	-0.127673	-0.695633
N70	N	1.151116	-0.174054	-0.584861
N71	N	1.184478	-0.123787	-0.620736
C72	C	1.174055	-0.139549	0.079860
C73	C	1.176843	-0.135267	0.157819
H74	H	0.861558	-0.118238	-0.081473
Br75	Br	1.105092	-0.443140	-0.166807
H76	H	1.111572	-0.233625	-0.696026
H77	H	1.106979	-0.240511	-0.828955
Br78	Br	0.603312	-0.337854	-0.230912
Br79	Br	1.062172	-0.308038	-0.514705
Br80	Br	0.953577	-0.728532	-0.322594
Br81	Br	0.978956	-0.598387	-0.296469
H82	H	1.251767	-0.022433	-0.708858
H83	H	1.319758	-0.412086	0.053785
H84	H	0.748429	-0.331379	-0.226526
H85	H	0.893003	-0.301155	-0.205969
Br86	Br	0.604772	0.065301	0.043477
Br87	Br	0.457784	-0.211621	-0.144981
H88	H	1.349985	-0.554328	0.084798
Br89	Br	1.068130	-0.299085	-0.341988
Br90	Br	0.992847	-0.913338	-0.282276
Br91	Br	1.230350	-0.854191	-0.038245
Br92	Br	1.356483	-0.698944	0.091412
H93	H	0.443276	0.003184	0.001204
H94	H	1.247177	-0.029324	-0.841796
H95	H	1.228628	-0.057339	-0.376638
H96	H	0.804047	-0.068362	-0.047497
Br97	Br	0.732963	0.039882	0.026169
Br98	Br	1.244366	-0.033687	-0.531367
H99	H	1.087100	-0.518973	-0.185294
H100	H	1.248329	-0.778355	-0.019745
H101	H	0.532233	-0.229614	-0.157252
