data_functionalizedCrystal
_audit_creation_method	'MofGen! by Chris Wilmer'
_symmetry_space_group_name_H-M	'P1'
_symmetry_Int_Tables_number	1
_symmetry_cell_setting	triclinic
loop_
_symmetry_equiv_pos_as_xyz
  x,y,z
_cell_length_a	10.654554
_cell_length_b	10.540539
_cell_length_c	9.730223
_cell_angle_alpha	90.000775
_cell_angle_beta	90.001137
_cell_angle_gamma	84.506118
loop_
_atom_site_label
_atom_site_type_symbol
_atom_site_fract_x
_atom_site_fract_y
_atom_site_fract_z
O1	O	1.667893	0.178322	-0.114240
O2	O	1.302422	0.195304	-0.114252
O3	O	1.493496	0.002104	-0.114244
O4	O	1.476820	0.371522	-0.114248
O5	O	1.493493	0.002108	0.114336
O6	O	1.302419	0.195309	0.114328
O7	O	1.667891	0.178327	0.114340
Zn8	Zn	1.485155	0.186819	0.150626
Zn9	Zn	1.485158	0.186812	-0.150538
O10	O	1.476817	0.371527	0.114332
C11	C	1.255622	0.194058	0.000037
C12	C	1.116178	0.190324	0.000032
C13	C	0.905708	0.300573	0.000044
C14	C	1.036731	0.304082	0.000033
C15	C	1.064597	0.073049	0.000028
C16	C	0.933576	0.069541	0.000029
C17	C	0.826267	0.414339	0.000058
C18	C	0.877839	0.531615	0.000059
C19	C	1.008862	0.535124	0.000049
C20	C	1.088312	0.421358	0.000037
C21	C	1.492244	-0.045197	0.000044
C22	C	1.488502	-0.186143	0.000036
C23	C	1.345131	-0.369521	-0.000482
C24	C	1.348924	-0.222904	0.000033
C25	C	1.555672	-0.247821	0.130568
C26	C	1.550909	-0.394364	0.130678
C27	C	1.553750	-0.394889	-0.129260
C28	C	1.555036	-0.247907	-0.130986
C29	C	1.714691	0.179573	0.000048
C30	C	1.854135	0.183307	0.000044
N31	N	1.485162	0.186822	0.356162
C32	C	1.478069	0.418827	0.000042
C33	C	1.481811	0.559774	0.000040
N34	N	1.485161	0.186799	-0.356074
C35	C	1.569792	0.101303	0.428092
C36	C	1.569788	0.101287	0.571975
C37	C	1.400522	0.272322	0.571986
C38	C	1.400520	0.272331	0.428106
C39	C	1.654434	0.015794	0.356148
C40	C	1.739071	-0.069732	0.428078
C41	C	1.739068	-0.069747	0.571961
C42	C	1.654427	0.015763	0.643914
H43	H	0.813143	0.624239	0.000059
H44	H	1.129295	-0.019574	0.000020
H45	H	1.194999	0.424225	-0.000000
C46	C	0.876842	-0.059459	0.000031
N47	N	0.834110	-0.156624	0.000029
C48	C	1.686518	-0.459217	0.138704
N49	N	1.788657	-0.508058	0.144758
H50	H	1.050848	0.630615	0.000038
H51	H	1.331606	0.341968	0.369540
C52	C	1.277512	-0.165323	-0.126371
N53	N	1.223714	-0.121958	-0.221579
H54	H	1.289996	-0.398104	-0.094089
H55	H	0.719580	0.411495	0.000072
C56	C	1.692519	-0.215244	-0.141626
N57	N	1.796079	-0.190647	-0.149628
C58	C	1.307426	0.366378	0.651141
N59	N	1.237305	0.437225	0.710760
C60	C	1.832154	-0.163804	0.348927
N61	N	1.902263	-0.234665	0.289312
C62	C	1.270959	-0.410261	0.125293
N63	N	1.215101	-0.440936	0.220039
C64	C	1.694141	-0.217645	0.137152
N65	N	1.798433	-0.194905	0.142114
C66	C	1.654442	0.015801	0.197875
N67	N	1.654448	0.015806	0.078662
H68	H	1.295699	-0.181128	0.093757
H69	H	1.807974	-0.139394	0.630525
H70	H	1.501265	-0.422545	0.228251
C71	C	1.492629	-0.190258	0.261796
N72	N	1.445135	-0.146904	0.360634
C73	C	1.492718	-0.437491	-0.262918
N74	N	1.446734	-0.469576	-0.363582
H75	H	1.654423	0.015735	0.761074
H76	H	1.505888	-0.207034	-0.227550
H77	H	1.654567	-0.442149	-0.130134
