data_functionalizedCrystal
_audit_creation_method	'MofGen! by Chris Wilmer'
_symmetry_space_group_name_H-M	'P1'
_symmetry_Int_Tables_number	1
_symmetry_cell_setting	triclinic
loop_
_symmetry_equiv_pos_as_xyz
  x,y,z
_cell_length_a	15.297475
_cell_length_b	15.296720
_cell_length_c	14.908520
_cell_angle_alpha	77.692278
_cell_angle_beta	95.852479
_cell_angle_gamma	91.617114
loop_
_atom_site_label
_atom_site_type_symbol
_atom_site_fract_x
_atom_site_fract_y
_atom_site_fract_z
Zn1	Zn	1.207407	-0.758998	0.699757
Zn2	Zn	1.224160	-0.618508	0.829223
Zn3	Zn	1.089605	-0.584900	0.649246
Zn4	Zn	1.052967	-0.739228	0.820385
O5	O	1.143535	-0.675409	0.749653
O6	O	1.330575	-0.762701	0.741768
O7	O	1.228655	-0.490668	0.787909
O8	O	1.113553	-0.602204	0.530142
O9	O	1.342883	-0.659484	0.836887
O10	O	1.200102	-0.730113	0.567252
O11	O	1.129798	-0.465976	0.655681
O12	O	0.963799	-0.583033	0.647111
O13	O	1.051110	-0.865232	0.821824
O14	O	0.936882	-0.696417	0.772846
O15	O	1.164576	-0.879758	0.733198
O16	O	1.193129	-0.640313	0.953856
O17	O	1.067354	-0.729005	0.947362
C18	C	0.918981	-0.633933	0.703539
C19	C	0.822910	-0.616211	0.683836
C20	C	0.496181	-0.802070	0.890481
C21	C	0.586444	-0.818718	0.908999
C22	C	0.645565	-0.768093	0.852710
C23	C	0.614414	-0.700817	0.777899
C24	C	0.524143	-0.684162	0.759383
C25	C	0.673527	-0.650185	0.721612
C26	C	0.642376	-0.582909	0.646802
C27	C	0.552113	-0.566258	0.628289
C28	C	0.492992	-0.616883	0.684578
C29	C	0.763798	-0.666840	0.740128
C30	C	0.791759	-0.548932	0.609031
C31	C	0.701496	-0.532284	0.590513
C32	C	1.101887	-0.905381	0.782160
C33	C	1.084140	-1.003382	0.796012
C34	C	1.270422	-1.309881	0.650497
C35	C	1.287102	-1.217806	0.637485
C36	C	1.236363	-1.164195	0.677115
C37	C	1.168941	-1.202669	0.729761
C38	C	1.152264	-1.294755	0.742780
C39	C	1.118204	-1.149069	0.769398
C40	C	1.050782	-1.187542	0.822044
C41	C	1.034108	-1.279619	0.835060
C42	C	1.084847	-1.333230	0.795430
C43	C	1.134882	-1.056983	0.756379
C44	C	1.016723	-1.041857	0.848662
C45	C	1.000043	-1.133932	0.861674
C46	C	1.368966	-0.717047	0.795948
C47	C	1.465031	-0.734790	0.815676
C48	C	1.128104	-0.686184	0.983236
C49	C	1.121576	-0.690838	1.083185
C50	C	1.185074	-0.446337	0.717218
C51	C	1.203006	-0.348356	0.703147
C52	C	1.159046	-0.664615	0.515165
C53	C	1.165656	-0.660015	0.415241
C54	C	1.240377	-0.607340	1.277735
C55	C	1.234247	-0.611711	1.371645
C56	C	1.103191	-0.703954	1.364919
C57	C	1.109321	-0.699584	1.271009
C58	C	1.177915	-0.651274	1.227420
C59	C	1.184041	-0.646899	1.133506
C60	C	1.052989	-0.739147	1.126783
C61	C	1.046860	-0.743518	1.220694
H62	H	0.789152	-0.721617	0.801040
C63	C	0.667218	-0.458279	0.508225
N64	N	0.641399	-0.402537	0.446247
H65	H	1.189777	-1.025667	0.713513
H66	H	1.071270	-1.408206	0.806022
H67	H	1.311732	-1.353540	0.618242
H68	H	0.975408	-0.998207	0.880934
C69	C	1.254707	-1.062908	0.662791
N70	N	1.268523	-0.986614	0.651994
H71	H	1.296224	-0.567997	1.242242
H72	H	0.979215	-1.310943	0.877937
C73	C	1.302957	-0.563376	1.426987
N74	N	1.354712	-0.526967	1.468671
H75	H	0.448039	-0.843276	0.936308
C76	C	1.259495	-0.593758	1.085559
N77	N	1.316332	-0.553732	1.049449
H78	H	0.991014	-0.782853	1.256198
C79	C	0.925879	-1.176265	0.919581
N80	N	0.870017	-1.208151	0.963195
H81	H	1.047350	-0.743292	1.400428
C82	C	1.361257	-1.175490	0.579568
N83	N	1.417112	-1.143616	0.535937
H84	H	0.419491	-0.603333	0.669503
H85	H	0.526755	-0.511469	0.567381
H86	H	0.839896	-0.507708	0.563197
H87	H	1.002127	-0.774918	1.085805
H88	H	0.719061	-0.781652	0.867792
H89	H	0.611801	-0.873492	0.969912
