data_functionalizedCrystal
_audit_creation_method	'MofGen! by Chris Wilmer'
_symmetry_space_group_name_H-M	'P1'
_symmetry_Int_Tables_number	1
_symmetry_cell_setting	triclinic
loop_
_symmetry_equiv_pos_as_xyz
  x,y,z
_cell_length_a	16.109301
_cell_length_b	27.732048
_cell_length_c	15.186229
_cell_angle_alpha	89.991324
_cell_angle_beta	89.999362
_cell_angle_gamma	83.052068
loop_
_atom_site_label
_atom_site_type_symbol
_atom_site_fract_x
_atom_site_fract_y
_atom_site_fract_z
O1	O	1.102361	0.062130	-0.073183
O2	O	1.602361	0.562130	0.426817
O3	O	0.860204	0.069862	-0.073198
O4	O	1.360204	0.569862	0.426802
O5	O	0.988803	-0.004369	-0.073173
O6	O	1.488803	0.495631	0.426827
O7	O	0.973762	0.136361	-0.073208
O8	O	1.473762	0.636361	0.426792
O9	O	0.988795	-0.004370	0.073284
O10	O	1.488795	0.495630	0.573284
O11	O	0.860195	0.069861	0.073259
O12	O	1.360195	0.569861	0.573259
O13	O	1.102353	0.062129	0.073275
O14	O	1.602353	0.562129	0.573275
Zn15	Zn	0.981273	0.065995	0.096520
Zn16	Zn	1.481273	0.565995	0.596520
Zn17	Zn	0.981284	0.065996	-0.096444
Zn18	Zn	1.481284	0.565996	0.403556
O19	O	0.973753	0.136360	0.073250
O20	O	1.473753	0.636360	0.573250
C21	C	0.829228	0.069548	0.000029
C22	C	1.329228	0.569548	0.500029
C23	C	0.736945	0.068609	0.000024
C24	C	1.236945	0.568609	0.500024
C25	C	0.988483	-0.022378	0.000058
C26	C	1.488483	0.477622	0.500058
C27	C	0.987533	-0.076037	0.000065
C28	C	1.487533	0.423963	0.500065
C29	C	0.514154	0.110473	0.000024
C30	C	1.014154	0.610473	0.500024
C31	C	0.427445	0.109587	0.000030
C32	C	0.927445	0.609587	0.500030
C33	C	0.448409	0.021514	0.000048
C34	C	0.948409	0.521514	0.500048
C35	C	0.535117	0.022401	0.000048
C36	C	1.035117	0.522401	0.500048
C37	C	0.567987	0.066882	0.000032
C38	C	1.067987	0.566882	0.500032
C39	C	0.394570	0.065109	0.000037
C40	C	0.894570	0.565109	0.500037
C41	C	0.300556	0.064148	0.000044
C42	C	0.800556	0.564148	0.500044
C43	C	0.662007	0.067843	0.000027
C44	C	1.162007	0.567843	0.500027
C45	C	1.057541	-0.414559	0.000024
C46	C	1.557541	0.085441	0.500024
C47	C	1.054013	-0.616233	0.000012
C48	C	1.554013	-0.116233	0.500012
O49	O	1.118031	-0.647221	-0.000023
O50	O	1.618031	-0.147221	0.499977
N51	N	0.977759	-0.635676	0.000008
N52	N	1.477759	-0.135676	0.500008
C53	C	0.902381	-0.604697	0.000001
C54	C	1.402381	-0.104697	0.500001
O55	O	0.837441	-0.625862	-0.000011
O56	O	1.337441	-0.125862	0.499989
C57	C	0.905910	-0.403024	0.000008
C58	C	1.405910	0.096976	0.500008
C59	C	0.982169	-0.383584	0.000020
C60	C	1.482169	0.116416	0.500020
C61	C	1.133794	-0.395119	0.000036
C62	C	1.633794	0.104881	0.500036
C63	C	1.134675	-0.344703	0.000044
C64	C	1.634675	0.155297	0.500044
C65	C	1.059303	-0.313728	0.000040
C66	C	1.559303	0.186272	0.500040
C67	C	0.983050	-0.333168	0.000028
C68	C	1.483050	0.166832	0.500028
C69	C	0.830533	-0.372045	-0.000005
C70	C	1.330533	0.127955	0.499995
C71	C	0.831422	-0.321624	-0.000006
C72	C	1.331422	0.178376	0.499994
C73	C	0.907681	-0.302184	0.000007
C74	C	1.407681	0.197816	0.500007
C75	C	0.908559	-0.251777	0.000032
C76	C	1.408559	0.248223	0.500032
N77	N	0.984814	-0.232334	0.000036
N78	N	1.484814	0.267666	0.500036
C79	C	1.060186	-0.263310	0.000040
C80	C	1.560186	0.236690	0.500040
C81	C	0.900534	-0.710579	-0.000000
C82	C	1.400534	-0.210579	0.500000
C83	C	0.899652	-0.760997	-0.000000
C84	C	1.399652	-0.260997	0.500000
C85	C	1.051284	-0.772530	0.000009
C86	C	1.551284	-0.272530	0.500009
C87	C	1.052166	-0.722111	0.000015
C88	C	1.552166	-0.222111	0.500015
C89	C	0.976789	-0.691136	0.000004
C90	C	1.476789	-0.191136	0.500004
C91	C	1.062030	-0.157433	0.000058
C92	C	1.562030	0.342567	0.500058
C93	C	1.062905	-0.107012	0.000069
C94	C	1.562905	0.392988	0.500069
C95	C	0.911273	-0.095484	0.000056
C96	C	1.411273	0.404516	0.500056
C97	C	0.910398	-0.145900	0.000049
C98	C	1.410398	0.354100	0.500049
C99	C	0.985783	-0.176874	0.000047
C100	C	1.485783	0.323126	0.500047
O101	O	0.844576	-0.220761	0.000057
O102	O	1.344576	0.279239	0.500057
O103	O	1.125116	-0.242135	0.000033
O104	O	1.625116	0.257865	0.500033
C105	C	1.056660	-0.464975	0.000016
C106	C	1.556660	0.035025	0.500016
C107	C	0.980407	-0.484415	0.000005
C108	C	1.480407	0.015585	0.500005
C109	C	0.905035	-0.453440	0.000001
C110	C	1.405035	0.046560	0.500001
C111	C	0.979525	-0.534833	0.000005
C112	C	1.479525	-0.034833	0.500005
C113	C	1.054897	-0.565808	0.000009
C114	C	1.554897	-0.065808	0.500009
C115	C	1.131151	-0.546365	0.000013
C116	C	1.631151	-0.046365	0.500013
C117	C	1.132032	-0.495950	0.000020
C118	C	1.632032	0.004050	0.500020
C119	C	0.828781	-0.472883	-0.000003
C120	C	1.328781	0.027117	0.499997
C121	C	0.827906	-0.523299	-0.000010
C122	C	1.327906	-0.023299	0.499990
C123	C	0.903278	-0.554274	-0.000006
C124	C	1.403278	-0.054274	0.499994
C125	C	1.133328	0.062443	0.000046
C126	C	1.633328	0.562443	0.500046
C127	C	1.225612	0.063382	0.000045
C128	C	1.725612	0.563382	0.500045
C129	C	0.974073	0.154369	0.000017
C130	C	1.474073	0.654369	0.500017
C131	C	0.975024	0.208028	0.000004
C132	C	1.475024	0.708028	0.500004
N133	N	0.981271	0.065994	0.228213
N134	N	1.481271	0.565994	0.728213
N135	N	0.981292	0.065994	-0.228136
N136	N	1.481292	0.565994	0.271864
C137	C	1.038234	0.033135	0.453947
C138	C	1.538234	0.533135	0.953947
C139	C	1.038237	0.033134	0.546136
C140	C	1.538237	0.533134	1.046136
C141	C	0.924323	0.098854	0.546124
C142	C	1.424323	0.598854	1.046124
C143	C	0.924317	0.098852	0.453936
C144	C	1.424317	0.598852	0.953936
C145	C	0.981277	0.065993	0.407850
C146	C	1.481277	0.565993	0.907850
C147	C	0.981286	0.065994	0.592227
C148	C	1.481286	0.565994	1.092227
C149	C	0.981288	0.065993	0.692183
C150	C	1.481288	0.565993	1.192183
C151	C	0.981274	0.065994	0.307887
C152	C	1.481274	0.565994	0.807887
H153	H	0.540913	0.146692	0.000017
H154	H	1.040913	0.646692	0.500017
O155	O	0.375270	0.151977	-0.000020
O156	O	0.875270	0.651977	0.499980
C157	C	0.422879	0.191424	-0.000010
C158	C	0.922879	0.691424	0.499990
H159	H	0.487759	0.179145	-0.027737
H160	H	0.987759	0.679145	0.472263
H161	H	0.390495	0.221967	-0.042538
H162	H	0.890495	0.721967	0.457462
H163	H	0.428880	0.205058	0.070249
H164	H	0.928880	0.705058	0.570249
H165	H	0.421636	-0.014700	0.000066
H166	H	0.921636	0.485300	0.500066
O167	O	1.093533	0.001150	0.590818
O168	O	1.593533	0.501150	1.090818
C169	C	1.080623	-0.046702	0.568321
C170	C	1.580623	0.453298	1.068321
H171	H	1.048573	-0.046648	0.501388
H172	H	1.548573	0.453352	1.001388
H173	H	1.143422	-0.070495	0.565168
H174	H	1.643422	0.429505	1.065168
H175	H	1.039437	-0.061658	0.620212
H176	H	1.539437	0.438342	1.120212
O177	O	0.587299	-0.019991	0.000016
O178	O	1.087299	0.480009	0.500016
C179	C	0.539696	-0.059441	0.000044
C180	C	1.039696	0.440559	0.500044
H181	H	0.474815	-0.047166	-0.027688
H182	H	0.974815	0.452834	0.472312
H183	H	0.572084	-0.089982	-0.042469
H184	H	1.072084	0.410018	0.457531
H185	H	0.533697	-0.073077	0.070310
H186	H	1.033697	0.426923	0.570310
O187	O	1.137060	-0.088209	0.000039
O188	O	1.637060	0.411791	0.500039
C189	C	1.203393	-0.126364	0.000059
C190	C	1.703393	0.373636	0.500059
H191	H	1.180536	-0.160609	-0.027674
H192	H	1.680536	0.339391	0.472326
H193	H	1.256676	-0.115828	-0.042456
H194	H	1.756676	0.384172	0.457544
H195	H	1.226608	-0.133509	0.070323
H196	H	1.726608	0.366491	0.570323
H197	H	1.123416	-0.182646	0.000053
H198	H	1.623416	0.317354	0.500053
O199	O	1.206132	-0.477093	-0.000130
O200	O	1.706132	0.022907	0.499870
C201	C	1.252046	-0.492929	-0.075969
C202	C	1.752046	0.007071	0.424031
H203	H	1.207441	-0.503404	-0.128987
H204	H	1.707441	-0.003404	0.371013
H205	H	1.287027	-0.462391	-0.101427
H206	H	1.787027	0.037609	0.398573
H207	H	1.298797	-0.525797	-0.058819
H208	H	1.798797	-0.025797	0.441181
H209	H	0.877948	0.125607	0.583656
H210	H	1.377948	0.625607	1.083656
H211	H	0.877932	0.125610	0.416401
H212	H	1.377932	0.625610	0.916401
H213	H	1.196773	-0.328880	0.000051
H214	H	1.696773	0.171120	0.500051
H215	H	1.114263	-0.706287	0.000025
H216	H	1.614263	-0.206287	0.500025
O217	O	1.207093	-0.425135	0.000082
O218	O	1.707093	0.074865	0.500082
C219	C	1.274574	-0.397154	0.000069
C220	C	1.774574	0.102846	0.500069
H221	H	1.252958	-0.359526	0.027789
H222	H	1.752958	0.140474	0.527789
H223	H	1.327343	-0.415751	0.042600
H224	H	1.827343	0.084249	0.542600
H225	H	1.297988	-0.393559	-0.070190
H226	H	1.797988	0.106441	0.429810
O227	O	1.124426	-0.802693	-0.000034
O228	O	1.624426	-0.302693	0.499966
C229	C	1.107285	-0.851360	-0.000016
C230	C	1.607285	-0.351360	0.499984
H231	H	1.042002	-0.853279	-0.027736
H232	H	1.542002	-0.353279	0.472264
H233	H	1.155358	-0.874203	-0.042546
H234	H	1.655358	-0.374203	0.457454
H235	H	1.110633	-0.865950	0.070245
H236	H	1.610633	-0.365950	0.570245
H237	H	0.839149	-0.685363	-0.000009
H238	H	1.339149	-0.185363	0.499991
O239	O	0.825500	-0.779798	-0.000042
O240	O	1.325500	-0.279798	0.499958
C241	C	0.759170	-0.741641	-0.000025
C242	C	1.259170	-0.241641	0.499975
H243	H	0.782035	-0.707391	-0.027749
H244	H	1.282035	-0.207391	0.472251
H245	H	0.705892	-0.752166	-0.042552
H246	H	1.205892	-0.252166	0.457448
H247	H	0.735948	-0.734510	0.070236
H248	H	1.235948	-0.234510	0.570236
O249	O	0.758251	-0.291487	0.000102
O250	O	1.258251	0.208513	0.500102
C251	C	0.754201	-0.261995	0.075968
C252	C	1.254201	0.238005	0.575968
H253	H	0.820154	-0.259449	0.101266
H254	H	1.320154	0.240551	0.601266
H255	H	0.722731	-0.224099	0.058908
H256	H	1.222731	0.275901	0.558908
H257	H	0.716445	-0.278588	0.129074
H258	H	1.216445	0.221412	0.629074
O259	O	1.093606	0.001271	0.409119
O260	O	1.593606	0.501271	0.909119
C261	C	1.144552	0.027145	0.355735
C262	C	1.644552	0.527145	0.855735
H263	H	1.145524	0.065262	0.383502
H264	H	1.645524	0.565262	0.883502
H265	H	1.210868	0.007410	0.354655
H266	H	1.710868	0.507410	0.854655
H267	H	1.118463	0.029684	0.285883
H268	H	1.618463	0.529684	0.785883
O269	O	0.756380	-0.390841	-0.000061
O270	O	1.256380	0.109159	0.499939
C271	C	0.690056	-0.352681	-0.000048
C272	C	1.190056	0.147319	0.499952
H273	H	0.712928	-0.318433	-0.027766
H274	H	1.212928	0.181567	0.472234
H275	H	0.636778	-0.363203	-0.042581
H276	H	1.136778	0.136797	0.457419
H277	H	0.666828	-0.345550	0.070211
H278	H	1.166828	0.154450	0.570211
H279	H	0.848301	-0.161728	0.000063
H280	H	1.348301	0.338272	0.500063
H281	H	0.849907	-0.070255	0.000055
H282	H	1.349907	0.429745	0.500055
H283	H	0.765802	-0.539121	-0.000013
H284	H	1.265802	-0.039121	0.499987
O285	O	1.204346	-0.576480	-0.000142
O286	O	1.704346	-0.076480	0.499858
C287	C	1.208355	-0.605987	-0.075987
C288	C	1.708355	-0.105987	0.424013
H289	H	1.165602	-0.587509	-0.129000
H290	H	1.665602	-0.087509	0.371000
H291	H	1.275398	-0.611663	-0.101448
H292	H	1.775398	-0.111663	0.398552
H293	H	1.187307	-0.642648	-0.058844
H294	H	1.687307	-0.142648	0.441156
H295	H	0.767402	-0.447667	-0.000009
H296	H	1.267402	0.052333	0.499991
