data_functionalizedCrystal
_audit_creation_method	'MofGen! by Chris Wilmer'
_symmetry_space_group_name_H-M	'P1'
_symmetry_Int_Tables_number	1
_symmetry_cell_setting	triclinic
loop_
_symmetry_equiv_pos_as_xyz
  x,y,z
_cell_length_a	10.723023
_cell_length_b	15.944551
_cell_length_c	9.798715
_cell_angle_alpha	89.995900
_cell_angle_beta	90.004178
_cell_angle_gamma	96.016857
loop_
_atom_site_label
_atom_site_type_symbol
_atom_site_fract_x
_atom_site_fract_y
_atom_site_fract_z
O1	O	-1.655700	0.117805	-0.113510
O2	O	-1.292405	0.129082	-0.113510
O3	O	-1.483973	0.001226	-0.113498
O4	O	-1.464131	0.245662	-0.113522
O5	O	-1.483959	0.001225	0.113484
O6	O	-1.292390	0.129082	0.113472
O7	O	-1.655685	0.117805	0.113472
Zn8	Zn	-1.474036	0.123443	0.149510
Zn9	Zn	-1.474054	0.123444	-0.149548
O10	O	-1.464117	0.245661	0.113460
C11	C	-1.245908	0.128262	-0.000019
C12	C	-1.107385	0.125807	-0.000018
C13	C	-1.045634	0.124712	-0.117601
C14	C	-0.902463	0.122175	-0.117603
C15	C	-1.483142	-0.030073	-0.000006
C16	C	-1.480673	-0.123333	-0.000006
C17	C	-0.702182	0.118625	-0.000019
C18	C	-0.840705	0.121080	-0.000020
C19	C	-1.356027	-0.338903	-0.000024
C20	C	-1.413901	-0.399590	0.111892
C21	C	-1.476205	-0.294085	-0.000016
C22	C	-1.413944	-0.399573	-0.111895
C23	C	-1.471881	-0.459022	-0.000032
C24	C	-1.534112	-0.353543	0.111992
C25	C	-1.534138	-0.353519	-0.111895
C26	C	-1.592100	-0.414188	0.000048
C27	C	-1.478693	-0.199068	-0.000006
C28	C	-1.469403	-0.554038	-0.000033
N29	N	-1.474032	0.123442	0.353610
C30	C	-1.464948	0.276960	-0.000035
C31	C	-1.467417	0.370220	-0.000044
N32	N	-1.474068	0.123438	-0.353648
C33	C	-1.554469	0.069522	0.421392
C34	C	-1.554489	0.069519	0.578555
H35	H	-1.256274	-0.306167	0.000088
O36	O	-1.391767	0.178545	0.422963
C37	C	-1.316994	0.228695	0.329425
H38	H	-1.315341	0.194325	0.227534
H39	H	-1.217410	0.241054	0.370836
H40	H	-1.357765	0.291259	0.314268
O41	O	-1.392076	0.178552	0.576683
C42	C	-1.459200	0.230611	0.494039
H43	H	-1.556745	0.197571	0.472753
H44	H	-1.407235	0.243619	0.393513
H45	H	-1.467898	0.292740	0.549020
H46	H	-1.584931	-0.333098	-0.206516
O47	O	-1.353126	-0.423770	-0.224732
C48	C	-1.228705	-0.385087	-0.224284
H49	H	-1.222720	-0.325723	-0.158765
H50	H	-1.198801	-0.367548	-0.333123
H51	H	-1.163985	-0.430709	-0.180605
H52	H	-1.098760	0.125658	-0.218267
O53	O	-1.636466	0.014447	0.351648
C54	C	-1.569367	-0.037613	0.269000
H55	H	-1.471792	-0.004603	0.247782
H56	H	-1.621309	-0.050562	0.168440
H57	H	-1.560745	-0.099769	0.323942
H58	H	-0.849360	0.121232	-0.218271
H59	H	-1.623359	0.023359	0.636844
O60	O	-1.594813	-0.329265	0.224855
C61	C	-1.699596	-0.288628	0.184921
H62	H	-1.684594	-0.262958	0.076917
H63	H	-1.711626	-0.234402	0.257940
H64	H	-1.787299	-0.335664	0.187616
O65	O	-0.904198	0.122092	0.120001
C66	C	-0.993593	0.050794	0.127323
H67	H	-1.017684	0.026927	0.019870
H68	H	-1.082000	0.068748	0.179562
H69	H	-0.953387	-0.000944	0.188458
O70	O	-1.044203	0.124723	0.120205
C71	C	-1.129420	0.126210	0.229534
H72	H	-1.217082	0.154401	0.193392
H73	H	-1.083789	0.166249	0.316016
H74	H	-1.156298	0.059185	0.267603
H75	H	-1.363065	-0.419989	0.206508
H76	H	-1.691940	-0.446775	0.000111
