data_functionalizedCrystal
_audit_creation_method	'MofGen! by Chris Wilmer'
_symmetry_space_group_name_H-M	'P1'
_symmetry_Int_Tables_number	1
_symmetry_cell_setting	triclinic
loop_
_symmetry_equiv_pos_as_xyz
  x,y,z
_cell_length_a	19.188905
_cell_length_b	23.532357
_cell_length_c	17.666332
_cell_angle_alpha	89.987974
_cell_angle_beta	89.983521
_cell_angle_gamma	82.981423
loop_
_atom_site_label
_atom_site_type_symbol
_atom_site_fract_x
_atom_site_fract_y
_atom_site_fract_z
O1	O	0.925918	0.071036	-0.063082
O2	O	1.425918	0.571036	0.436918
O3	O	0.722572	0.080622	-0.063057
O4	O	1.222572	0.580622	0.436943
O5	O	0.830395	-0.007092	-0.063055
O6	O	1.330395	0.492908	0.436945
O7	O	0.818095	0.158750	-0.063085
O8	O	1.318095	0.658750	0.436915
O9	O	0.830376	-0.007097	0.062842
O10	O	1.330376	0.492903	0.562842
O11	O	0.722553	0.080618	0.062839
O12	O	1.222553	0.580618	0.562839
O13	O	0.925900	0.071031	0.062815
O14	O	1.425900	0.571031	0.562815
Cu15	Cu	0.824225	0.075824	0.074322
Cu16	Cu	1.324225	0.575824	0.574322
Cu17	Cu	0.824247	0.075830	-0.074565
Cu18	Cu	1.324247	0.575830	0.425435
O19	O	0.818076	0.158746	0.062812
O20	O	1.318076	0.658746	0.562812
C21	C	0.696552	0.080312	-0.000106
C22	C	1.196552	0.580312	0.499894
C23	C	0.619050	0.079387	-0.000096
C24	C	1.119050	0.579387	0.499904
C25	C	0.582670	0.078946	-0.068724
C26	C	1.082670	0.578946	0.431276
C27	C	0.509849	0.078070	-0.068733
C28	C	1.009849	0.578070	0.431267
C29	C	0.473413	0.077625	-0.000110
C30	C	0.973413	0.577625	0.499890
C31	C	0.509802	0.078070	0.068527
C32	C	1.009802	0.578070	0.568527
C33	C	0.582620	0.078951	0.068534
C34	C	1.082620	0.578951	0.568534
N35	N	0.364501	0.043830	0.050965
N36	N	0.864501	0.543830	0.550965
N37	N	0.295327	0.042992	0.050954
N38	N	0.795327	0.542992	0.550954
C39	C	0.254016	0.074972	-0.000128
C40	C	0.754016	0.574972	0.499872
N41	N	0.284493	0.107815	-0.051209
N42	N	0.784493	0.607815	0.448791
N43	N	0.353674	0.108651	-0.051200
N44	N	0.853674	0.608651	0.448800
C45	C	0.394454	0.076670	-0.000110
C46	C	0.894454	0.576670	0.499890
C47	C	0.138675	0.073582	-0.068771
C48	C	0.638675	0.573582	0.431229
C49	C	0.065853	0.072710	-0.068777
C50	C	0.565853	0.572710	0.431223
C51	C	0.065807	0.072705	0.068485
C52	C	0.565807	0.572705	0.568485
C53	C	0.138628	0.073582	0.068489
C54	C	0.638628	0.573582	0.568489
C55	C	0.175058	0.074018	-0.000141
C56	C	0.675058	0.574018	0.499859
C57	C	0.830078	-0.028311	-0.000104
C58	C	1.330078	0.471689	0.499896
C59	C	0.829153	-0.091532	-0.000097
C60	C	1.329153	0.408468	0.499903
C61	C	0.823356	-0.483553	-0.068763
C62	C	1.323356	0.016447	0.431237
C63	C	0.822477	-0.542954	-0.068768
C64	C	1.322477	-0.042954	0.431232
O65	O	0.822007	-0.573669	-0.127132
O66	O	1.322007	-0.073669	0.372868
N67	N	0.822031	-0.572669	-0.000142
N68	N	1.322031	-0.072669	0.499858
C69	C	0.822457	-0.542978	0.068492
C70	C	1.322457	-0.042978	0.568492
O71	O	0.821996	-0.573707	0.126863
O72	O	1.321996	-0.073707	0.626863
C73	C	0.823331	-0.483577	0.068495
C74	C	1.323331	0.016423	0.568495
C75	C	0.823784	-0.453867	-0.000135
C76	C	1.323784	0.046133	0.499865
C77	C	0.823809	-0.453842	-0.137388
C78	C	1.323809	0.046158	0.362612
C79	C	0.824689	-0.394445	-0.137383
C80	C	1.324689	0.105555	0.362617
C81	C	0.825117	-0.364759	-0.068754
C82	C	1.325117	0.135241	0.431246
C83	C	0.824665	-0.394470	-0.000130
C84	C	1.324665	0.105530	0.499870
C85	C	0.823752	-0.453887	0.137129
C86	C	1.323752	0.046113	0.637129
C87	C	0.824626	-0.394483	0.137126
C88	C	1.324626	0.105517	0.637126
C89	C	0.825079	-0.364772	0.068496
C90	C	1.325079	0.135228	0.568496
C91	C	0.825973	-0.305386	0.068503
C92	C	1.325973	0.194614	0.568503
N93	N	0.826420	-0.275672	-0.000122
N94	N	1.326420	0.224328	0.499878
C95	C	0.825992	-0.305358	-0.068751
C96	C	1.325992	0.194642	0.431249
C97	C	0.820619	-0.667723	0.068479
C98	C	1.320619	-0.167723	0.568479
C99	C	0.819750	-0.727124	0.068477
C100	C	1.319750	-0.227124	0.568477
C101	C	0.819769	-0.727095	-0.068783
C102	C	1.319769	-0.227095	0.431217
C103	C	0.820643	-0.667694	-0.068780
C104	C	1.320643	-0.167694	0.431220
C105	C	0.821066	-0.638009	-0.000146
C106	C	1.321066	-0.138009	0.499854
C107	C	0.827842	-0.180620	-0.068736
C108	C	1.327842	0.319380	0.431264
C109	C	0.828725	-0.121218	-0.068726
C110	C	1.328725	0.378782	0.431274
C111	C	0.828702	-0.121251	0.068534
C112	C	1.328702	0.378749	0.568534
C113	C	0.827823	-0.180648	0.068523
C114	C	1.327823	0.319352	0.568523
C115	C	0.827390	-0.210331	-0.000118
C116	C	1.327390	0.289669	0.499882
O117	O	0.826441	-0.274633	0.126837
O118	O	1.326441	0.225367	0.626837
O119	O	0.826444	-0.274621	-0.127112
O120	O	1.326444	0.225379	0.372888
C121	C	0.951919	0.071342	-0.000139
C122	C	1.451919	0.571342	0.499861
C123	C	1.029422	0.072266	-0.000154
C124	C	1.529422	0.572266	0.499846
C125	C	0.818393	0.179965	-0.000140
C126	C	1.318393	0.679965	0.499860
C127	C	0.819318	0.243186	-0.000153
C128	C	1.319318	0.743186	0.499847
N129	N	0.824214	0.075820	0.179042
N130	N	1.324214	0.575820	0.679042
N131	N	0.824263	0.075829	-0.179285
N132	N	1.324263	0.575829	0.320715
C133	C	0.871974	0.036999	0.218653
C134	C	1.371974	0.536999	0.718653
C135	C	0.871978	0.036996	0.297900
C136	C	1.371978	0.536996	0.797900
C137	C	0.824229	0.075824	0.337534
C138	C	1.324229	0.575824	0.837534
C139	C	0.776461	0.114648	0.297914
C140	C	1.276461	0.614648	0.797914
C141	C	0.776453	0.114646	0.218667
C142	C	1.276453	0.614646	0.718667
N143	N	0.814981	0.126241	0.461944
N144	N	1.314981	0.626241	0.961944
N145	N	0.814992	0.126241	0.537225
N146	N	1.314992	0.626241	1.037225
C147	C	0.824247	0.075832	0.576298
C148	C	1.324247	0.575832	1.076298
N149	N	0.833505	0.025421	0.537247
N150	N	1.333505	0.525421	1.037247
N151	N	0.833497	0.025421	0.461959
N152	N	1.333497	0.525421	0.961959
C153	C	0.824231	0.075831	0.423463
C154	C	1.324231	0.575831	0.923463
C155	C	0.872014	0.037005	0.701838
C156	C	1.372014	0.537005	1.201838
C157	C	0.872013	0.037001	0.781087
C158	C	1.372013	0.537001	1.281087
C159	C	0.776499	0.114658	0.781099
C160	C	1.276499	0.614658	1.281099
C161	C	0.776497	0.114657	0.701851
C162	C	1.276497	0.614657	1.201851
C163	C	0.824258	0.075831	0.662226
C164	C	1.324258	0.575831	1.162226
H165	H	0.829096	-0.097030	-0.124615
H166	H	1.329096	0.402970	0.375385
H167	H	0.825056	-0.370259	-0.193269
H168	H	1.325056	0.129741	0.306731
H169	H	0.480131	0.077709	0.124400
H170	H	0.980131	0.577709	0.624400
O171	O	0.918427	-0.000768	0.663458
O172	O	1.418427	0.499232	1.163458
C173	C	0.960590	-0.035029	0.715417
C174	C	1.460590	0.464971	1.215417
H175	H	0.931974	-0.035612	0.771918
H176	H	1.431974	0.464388	1.271918
H177	H	0.971567	-0.080535	0.692529
H178	H	1.471567	0.419465	1.192529
H179	H	1.012323	-0.016646	0.723820
H180	H	1.512323	0.483354	1.223820
O181	O	0.730050	0.152288	0.336495
O182	O	1.230050	0.652288	0.836495
C183	C	0.687194	0.121877	0.382350
C184	C	1.187194	0.621877	0.882350
H185	H	0.715326	0.077253	0.394225
H186	H	1.215326	0.577253	0.894225
H187	H	0.675983	0.145673	0.438073
H188	H	1.175983	0.645673	0.938073
H189	H	0.635618	0.118113	0.351835
H190	H	1.135618	0.618113	0.851835
H191	H	0.823458	-0.478006	-0.193277
H192	H	1.323458	0.021994	0.306723
O193	O	0.829130	-0.092498	0.135264
O194	O	1.329130	0.407502	0.635264
C195	C	0.828514	-0.131451	0.195842
C196	C	1.328514	0.368549	0.695842
H197	H	0.850018	-0.176207	0.175735
H198	H	1.350018	0.323793	0.675735
H199	H	0.862640	-0.117989	0.243850
H200	H	1.362640	0.382011	0.743850
H201	H	0.772388	-0.131655	0.216925
H202	H	1.272388	0.368345	0.716925
O203	O	0.730034	0.152416	0.180303
O204	O	1.230034	0.652416	0.680303
C205	C	0.687874	0.186676	0.232273
C206	C	1.187874	0.686676	0.732273
H207	H	0.716496	0.187261	0.288753
H208	H	1.216496	0.687261	0.788753
H209	H	0.676893	0.232182	0.209367
H210	H	1.176893	0.732182	0.709367
H211	H	0.636143	0.168291	0.240725
H212	H	1.136143	0.668291	0.740725
O213	O	0.030463	0.072383	-0.135428
O214	O	0.530463	0.572383	0.364572
C215	C	-0.019936	0.121182	-0.139547
C216	C	0.480064	0.621182	0.360453
H217	H	-0.003786	0.155916	-0.100609
H218	H	0.496214	0.655916	0.399391
H219	H	-0.023515	0.137723	-0.200250
H220	H	0.476485	0.637723	0.299750
H221	H	-0.073262	0.109369	-0.121113
H222	H	0.426738	0.609369	0.378887
O223	O	0.730086	0.152298	0.819672
O224	O	1.230086	0.652298	1.319672
C225	C	0.687225	0.121887	0.865523
C226	C	1.187225	0.621887	1.365523
H227	H	0.715355	0.077263	0.877399
H228	H	1.215355	0.577263	1.377399
H229	H	0.676010	0.145683	0.921245
H230	H	1.176010	0.645683	1.421245
H231	H	0.635651	0.118123	0.835002
H232	H	1.135651	0.618123	1.335002
O233	O	0.617860	0.079350	0.135271
O234	O	1.117860	0.579350	0.635271
C235	C	0.570087	0.078787	0.195840
C236	C	1.070087	0.578787	0.695840
H237	H	0.521208	0.060136	0.175721
H238	H	1.021208	0.560136	0.675721
H239	H	0.595746	0.051395	0.243845
H240	H	1.095746	0.551395	0.743845
H241	H	0.554677	0.124374	0.216934
H242	H	1.054677	0.624374	0.716934
O243	O	0.173954	0.074041	-0.135502
O244	O	0.673954	0.574041	0.364498
C245	C	0.126226	0.073457	-0.196080
C246	C	0.626226	0.573457	0.303920
H247	H	0.071288	0.090853	-0.175966
H248	H	0.571288	0.590853	0.324034
H249	H	0.142644	0.101362	-0.244076
H250	H	0.642644	0.601362	0.255924
H251	H	0.126151	0.027686	-0.217183
H252	H	0.626151	0.527686	0.282817
H253	H	0.168249	0.073938	0.124374
H254	H	0.668249	0.573938	0.624374
O255	O	0.030411	0.072168	0.135128
O256	O	0.530411	0.572168	0.635128
C257	C	-0.003453	0.022351	0.139230
C258	C	0.496547	0.522351	0.639230
H259	H	0.024284	-0.011848	0.100288
H260	H	0.524284	0.488152	0.600288
H261	H	-0.001519	0.005783	0.199929
H262	H	0.498481	0.505783	0.699929
H263	H	-0.060506	0.032834	0.120790
H264	H	0.439494	0.532834	0.620790
H265	H	0.820965	-0.643557	0.124373
H266	H	1.320965	-0.143557	0.624373
O267	O	0.827514	-0.209516	-0.135369
O268	O	1.327514	0.290484	0.364631
C269	C	0.887493	-0.250477	-0.139508
C270	C	1.387493	0.249523	0.360492
H271	H	0.907514	-0.261605	-0.079928
H272	H	1.407514	0.238395	0.420072
H273	H	0.873276	-0.290747	-0.168573
H274	H	1.373276	0.209253	0.331427
H275	H	0.930187	-0.232200	-0.173368
H276	H	1.430187	0.267800	0.326632
O277	O	0.824937	-0.365696	0.203845
O278	O	1.324937	0.134304	0.703845
C279	C	0.764223	-0.373597	0.245582
C280	C	1.264223	0.126403	0.745582
H281	H	0.743431	-0.414520	0.226065
H282	H	1.243431	0.085480	0.726065
H283	H	0.777776	-0.377126	0.308366
H284	H	1.277776	0.122874	0.808366
H285	H	0.722369	-0.335537	0.236067
H286	H	1.222369	0.164463	0.736067
O287	O	0.823192	-0.482781	0.203755
O288	O	1.323192	0.017219	0.703755
C289	C	0.762184	-0.510503	0.207861
C290	C	1.262184	-0.010503	0.707861
H291	H	0.741925	-0.517207	0.148271
H292	H	1.241925	-0.017207	0.648271
H293	H	0.775136	-0.553755	0.236937
H294	H	1.275136	-0.053755	0.736937
H295	H	0.720159	-0.482966	0.241696
H296	H	1.220159	0.017034	0.741696
O297	O	0.821046	-0.638920	-0.135514
O298	O	1.321046	-0.138920	0.364486
C299	C	0.820502	-0.677869	-0.196082
C300	C	1.320502	-0.177869	0.303918
H301	H	0.797770	-0.717799	-0.175957
H302	H	1.297770	-0.217799	0.324043
H303	H	0.786858	-0.656999	-0.244079
H304	H	1.286858	-0.156999	0.255921
H305	H	0.876435	-0.690304	-0.217189
H306	H	1.376435	-0.190304	0.282811
H307	H	0.910902	0.005386	0.813339
H308	H	1.410902	0.505386	1.313339
O309	O	0.730081	0.152428	0.663486
O310	O	1.230081	0.652428	1.163486
C311	C	0.687925	0.186689	0.715458
C312	C	1.187925	0.686689	1.215458
H313	H	0.716549	0.187274	0.771936
H314	H	1.216549	0.687274	1.271936
H315	H	0.676943	0.232195	0.692550
H316	H	1.176943	0.732195	1.192550
H317	H	0.636194	0.168305	0.723913
H318	H	1.136194	0.668305	1.223913
H319	H	0.612327	0.079301	-0.124608
H320	H	1.112327	0.579301	0.375392
H321	H	0.819418	-0.751276	-0.124664
H322	H	1.319418	-0.251276	0.375336
O323	O	0.474438	0.077561	-0.135355
O324	O	0.974438	0.577561	0.364645
C325	C	0.440607	0.027729	-0.139457
C326	C	0.940607	0.527729	0.360543
H327	H	0.432437	0.011159	-0.079867
H328	H	0.932437	0.511159	0.420133
H329	H	0.387551	0.038197	-0.168510
H330	H	0.887551	0.538197	0.331490
H331	H	0.474476	-0.006464	-0.173311
H332	H	0.974476	0.493536	0.326689
H333	H	0.819392	-0.751310	0.124362
H334	H	1.319392	-0.251310	0.624362
H335	H	0.827460	-0.204841	0.124407
H336	H	1.327460	0.295159	0.624407
H337	H	0.910862	0.005383	0.186392
H338	H	1.410862	0.505383	0.686392
O339	O	0.918342	-0.000794	0.336309
O340	O	1.418342	0.499206	0.836309
C341	C	0.907391	-0.057152	0.316989
C342	C	1.407391	0.442848	0.816989
H343	H	0.880480	-0.057032	0.259459
H344	H	1.380480	0.442968	0.759459
H345	H	0.960074	-0.085309	0.314275
H346	H	1.460074	0.414691	0.814275
H347	H	0.872764	-0.074688	0.361608
H348	H	1.372764	0.425312	0.861608
