data_functionalizedCrystal
_audit_creation_method	'MofGen! by Chris Wilmer'
_symmetry_space_group_name_H-M	'P1'
_symmetry_Int_Tables_number	1
_symmetry_cell_setting	triclinic
loop_
_symmetry_equiv_pos_as_xyz
  x,y,z
_cell_length_a	17.038272
_cell_length_b	23.532407
_cell_length_c	15.500227
_cell_angle_alpha	92.805592
_cell_angle_beta	86.956295
_cell_angle_gamma	86.980117
loop_
_atom_site_label
_atom_site_type_symbol
_atom_site_fract_x
_atom_site_fract_y
_atom_site_fract_z
O1	O	1.040103	0.121159	-0.071851
O2	O	1.540103	0.621159	0.428149
O3	O	0.812488	0.119196	-0.071876
O4	O	1.312488	0.619196	0.428124
O5	O	0.933158	0.037607	-0.071847
O6	O	1.433158	0.537607	0.428153
O7	O	0.919432	0.202748	-0.071880
O8	O	1.419432	0.702748	0.428120
O9	O	0.925836	0.042537	0.072040
O10	O	1.425836	0.542537	0.572040
O11	O	0.805165	0.124126	0.072011
O12	O	1.305165	0.624126	0.572011
O13	O	1.032780	0.126090	0.072036
O14	O	1.532780	0.626090	0.572036
Cu15	Cu	0.918304	0.125558	0.085162
Cu16	Cu	1.418304	0.625558	0.585162
Cu17	Cu	0.926964	0.119727	-0.085001
Cu18	Cu	1.426964	0.619727	0.414999
O19	O	0.912110	0.207678	0.072007
O20	O	1.412110	0.707678	0.572007
C21	C	0.779712	0.119875	0.000065
C22	C	1.279712	0.619875	0.500065
C23	C	0.692959	0.114548	0.000056
C24	C	1.192959	0.614548	0.500056
C25	C	0.929147	0.018838	0.000099
C26	C	1.429147	0.518838	0.500099
C27	C	0.928096	-0.044434	0.000105
C28	C	1.428096	0.455566	0.500105
C29	C	0.642483	0.163453	0.000046
C30	C	1.142483	0.663453	0.500046
C31	C	0.560969	0.158445	0.000059
C32	C	1.060969	0.658445	0.500059
C33	C	0.529932	0.104532	0.000075
C34	C	1.029932	0.604532	0.500075
C35	C	0.580414	0.055624	0.000087
C36	C	1.080414	0.555624	0.500087
C37	C	0.661927	0.060632	0.000080
C38	C	1.161927	0.560632	0.500080
C39	C	0.284304	0.086837	0.000102
C40	C	0.784304	0.586837	0.500102
C41	C	0.202786	0.081832	0.000106
C42	C	0.702786	0.581832	0.500106
C43	C	0.183345	0.184654	0.000080
C44	C	0.683345	0.684654	0.500080
C45	C	0.264860	0.189658	0.000068
C46	C	0.764860	0.689658	0.500068
C47	C	0.315335	0.140750	0.000084
C48	C	0.815335	0.640750	0.500084
C49	C	0.446612	0.099412	0.000086
C50	C	0.946612	0.599412	0.500086
C51	C	0.398653	0.145871	0.000080
C52	C	0.898653	0.645871	0.500080
C53	C	0.992917	-0.440131	0.000065
C54	C	1.492917	0.059869	0.500065
C55	C	0.991941	-0.499583	0.000058
C56	C	1.491941	0.000417	0.500058
O57	O	1.052030	-0.533169	0.000033
O58	O	1.552030	-0.033169	0.500033
N59	N	0.920202	-0.525981	0.000051
N60	N	1.420202	-0.025981	0.500051
C61	C	0.849435	-0.492924	0.000042
C62	C	1.349435	0.007076	0.500042
O63	O	0.788325	-0.520836	0.000034
O64	O	1.288325	-0.020836	0.500034
C65	C	0.850412	-0.433473	0.000042
C66	C	1.350412	0.066527	0.500042
C67	C	0.922155	-0.407078	0.000058
C68	C	1.422155	0.092922	0.500058
C69	C	1.064654	-0.413736	0.000080
C70	C	1.564654	0.086264	0.500080
C71	C	1.065630	-0.354288	0.000089
C72	C	1.565630	0.145712	0.500089
C73	C	0.994868	-0.321235	0.000082
C74	C	1.494868	0.178765	0.500082
C75	C	0.923131	-0.347631	0.000067
C76	C	1.423131	0.152369	0.500067
C77	C	0.779646	-0.400418	0.000027
C78	C	1.279646	0.099582	0.500027
C79	C	0.780629	-0.340963	0.000026
C80	C	1.280629	0.159037	0.500026
C81	C	0.852372	-0.314569	0.000043
C82	C	1.352372	0.185431	0.500043
C83	C	0.853344	-0.255130	0.000068
C84	C	1.353344	0.244870	0.500068
N85	N	0.925083	-0.228732	0.000075
N86	N	1.425083	0.271268	0.500075
C87	C	0.995845	-0.261785	0.000082
C88	C	1.495845	0.238215	0.500082
C89	C	0.847388	-0.617774	0.000039
C90	C	1.347388	-0.117774	0.500039
C91	C	0.846410	-0.677223	0.000045
C92	C	1.346410	-0.177223	0.500045
C93	C	0.988916	-0.683878	0.000060
C94	C	1.488916	-0.183878	0.500060
C95	C	0.989894	-0.624428	0.000061
C96	C	1.489894	-0.124428	0.500061
C97	C	0.919127	-0.591376	0.000047
C98	C	1.419127	-0.091376	0.500047
C99	C	0.997889	-0.136940	0.000100
C100	C	1.497889	0.363060	0.500100
C101	C	0.998858	-0.077487	0.000112
C102	C	1.498858	0.422513	0.500112
C103	C	0.856352	-0.070837	0.000093
C104	C	1.356352	0.429163	0.500093
C105	C	0.855382	-0.130285	0.000085
C106	C	1.355382	0.369715	0.500085
C107	C	0.926157	-0.163336	0.000086
C108	C	1.426157	0.336664	0.500086
O109	O	0.793287	-0.221508	0.000090
O110	O	1.293287	0.278492	0.500090
O111	O	1.056945	-0.233865	0.000078
O112	O	1.556945	0.266135	0.500078
C113	C	1.065556	0.125410	0.000094
C114	C	1.565556	0.625410	0.500094
C115	C	1.152310	0.130737	0.000097
C116	C	1.652310	0.630737	0.500097
C117	C	0.916121	0.226447	0.000059
C118	C	1.416121	0.726447	0.500059
C119	C	0.917172	0.289719	0.000047
C120	C	1.417172	0.789719	0.500047
N121	N	0.912219	0.129659	0.204845
N122	N	1.412219	0.629659	0.704845
N123	N	0.933055	0.115622	-0.204685
N124	N	1.433055	0.615622	0.295315
C125	C	0.963369	0.095101	0.250134
C126	C	1.463369	0.595101	0.750134
C127	C	0.958774	0.098208	0.340706
C128	C	1.458774	0.598208	0.840706
C129	C	0.903033	0.135876	0.385987
C130	C	1.403033	0.635876	0.885987
C131	C	0.851877	0.170435	0.340691
C132	C	1.351877	0.670435	0.840691
C133	C	0.856469	0.167324	0.250121
C134	C	1.356469	0.667324	0.750121
C135	C	0.886491	0.147071	0.659450
C136	C	1.386491	0.647071	1.159450
C137	C	0.881905	0.150180	0.750026
C138	C	1.381905	0.650180	1.250026
C139	C	0.988801	0.077952	0.750034
C140	C	1.488801	0.577952	1.250034
C141	C	0.993391	0.074848	0.659462
C142	C	1.493391	0.574848	1.159462
C143	C	0.942233	0.109404	0.614175
C144	C	1.442233	0.609404	1.114175
C145	C	0.898336	0.139054	0.478566
C146	C	1.398336	0.639054	0.978566
C147	C	0.946927	0.106223	0.521598
C148	C	1.446927	0.606223	1.021598
H149	H	0.667745	0.207354	0.000033
H150	H	1.167745	0.707354	0.500033
H151	H	0.290124	0.233559	0.000045
H152	H	0.790124	0.733559	0.500045
N153	N	0.169320	0.023677	0.000137
N154	N	0.669320	0.523677	0.500137
H155	H	0.133226	0.021141	0.053479
H156	H	0.633226	0.521141	0.553479
H157	H	0.138683	0.017507	-0.053234
H158	H	0.638683	0.517507	0.446766
H159	H	0.421332	0.055516	0.000123
H160	H	0.921332	0.555516	0.500123
N161	N	1.043973	0.040683	0.798883
N162	N	1.543973	0.540683	1.298883
H163	H	1.012402	0.015306	0.836475
H164	H	1.512402	0.515306	1.336475
H165	H	1.079970	0.016385	0.756400
H166	H	1.579970	0.516385	1.256400
H167	H	0.519874	0.198268	0.000051
H168	H	1.019874	0.698268	0.500051
N169	N	0.128902	0.237401	0.000093
N170	N	0.628902	0.737401	0.500093
H171	H	0.160932	0.272315	0.000088
H172	H	0.660932	0.772315	0.500088
H173	H	0.097356	0.235744	-0.053240
H174	H	0.597356	0.735744	0.446760
N175	N	0.338738	0.034089	0.000125
N176	N	0.838738	0.534089	0.500125
H177	H	0.306705	-0.000823	0.000135
H178	H	0.806705	0.499177	0.500135
H179	H	0.375693	0.032095	-0.053214
H180	H	0.875693	0.532095	0.446786
H181	H	0.555138	0.011727	0.000112
H182	H	1.055138	0.511727	0.500112
H183	H	0.703024	0.020809	0.000087
H184	H	1.203024	0.520809	0.500087
H185	H	0.423926	0.189767	0.000072
H186	H	0.923926	0.689767	0.500072
N187	N	1.076240	-0.049018	0.000134
N188	N	1.576240	0.450982	0.500134
H189	H	1.120918	-0.078981	0.000135
H190	H	1.620918	0.421019	0.500135
H191	H	1.082467	-0.026316	-0.053202
H192	H	1.582467	0.473684	0.446798
H193	H	1.008763	0.064431	0.213272
H194	H	1.508763	0.564431	0.713272
H195	H	0.836511	0.180855	0.786890
H196	H	1.336511	0.680855	1.286890
N197	N	0.801304	0.204601	0.201273
N198	N	1.301304	0.704601	0.701273
H199	H	0.812669	0.196914	0.137026
H200	H	1.312669	0.696914	0.637026
H201	H	0.745112	0.195857	0.217116
H202	H	1.245112	0.695857	0.717116
H203	H	1.055521	-0.163843	0.000098
H204	H	1.555521	0.336157	0.500098
H205	H	1.124051	-0.332803	0.000098
H206	H	1.624051	0.167197	0.500098
N207	N	1.065240	-0.719536	0.000055
N208	N	1.565240	-0.219536	0.500055
H209	H	1.110840	-0.693797	0.000062
H210	H	1.610840	-0.193797	0.500062
H211	H	1.065222	-0.742527	0.053394
H212	H	1.565222	-0.242527	0.553394
H213	H	1.122281	-0.440642	0.000083
H214	H	1.622281	0.059358	0.500083
N215	N	1.067272	-0.595961	0.000078
N216	N	1.567272	-0.095961	0.500078
H217	H	1.111947	-0.625926	0.000085
H218	H	1.611947	-0.125926	0.500085
H219	H	1.073502	-0.573264	-0.053262
H220	H	1.573502	-0.073264	0.446738
H221	H	0.992309	0.075552	0.484727
H222	H	1.492309	0.575552	0.984727
N223	N	0.769029	-0.705688	0.000051
N224	N	1.269029	-0.205688	0.500051
H225	H	0.724354	-0.675723	0.000051
H226	H	1.224354	-0.175723	0.500051
H227	H	0.768225	-0.732031	-0.053290
H228	H	1.268225	-0.232031	0.446710
N229	N	0.704301	-0.305315	0.000007
N230	N	1.204301	0.194685	0.500007
H231	H	0.658709	-0.331062	-0.000004
H232	H	1.158709	0.168938	0.499996
H233	H	0.698881	-0.278683	0.053350
H234	H	1.198881	0.221317	0.553350
N235	N	0.831313	0.184338	0.610611
N236	N	1.331313	0.684338	1.110611
H237	H	0.795306	0.208671	0.653042
H238	H	1.295306	0.708671	1.153042
H239	H	0.862932	0.209679	0.573013
H240	H	1.362932	0.709679	1.073013
N241	N	1.013969	0.060957	0.389554
N242	N	1.513969	0.560957	0.889554
H243	H	1.049990	0.036633	0.347126
H244	H	1.549990	0.536633	0.847126
H245	H	1.046428	0.085753	0.427102
H246	H	1.546428	0.585753	0.927102
H247	H	0.852952	0.169725	0.515441
H248	H	1.352952	0.669725	1.015441
N249	N	1.053513	0.034221	0.610625
N250	N	1.553513	0.534221	1.110625
H251	H	1.085220	0.012800	0.653060
H252	H	1.585220	0.512800	1.153060
H253	H	1.025696	0.006302	0.573060
H254	H	1.525696	0.506302	1.073060
H255	H	0.789757	-0.590866	0.000035
H256	H	1.289757	-0.090866	0.500035
N257	N	0.702264	-0.428876	0.000020
N258	N	1.202264	0.071124	0.500020
H259	H	0.657593	-0.398909	0.000014
H260	H	1.157593	0.101091	0.500014
H261	H	0.701462	-0.455220	-0.053321
H262	H	1.201462	0.044780	0.446679
H263	H	0.796962	-0.151776	0.000096
H264	H	1.296962	0.348224	0.500096
H265	H	0.798739	-0.043915	0.000090
H266	H	1.298739	0.456085	0.500090
H267	H	0.806487	0.201102	0.377565
H268	H	1.306487	0.701102	0.877565
