data_functionalizedCrystal
_audit_creation_method	'MofGen! by Chris Wilmer'
_symmetry_space_group_name_H-M	'P1'
_symmetry_Int_Tables_number	1
_symmetry_cell_setting	triclinic
loop_
_symmetry_equiv_pos_as_xyz
  x,y,z
_cell_length_a	8.559649
_cell_length_b	8.597304
_cell_length_c	7.681481
_cell_angle_alpha	76.508647
_cell_angle_beta	94.912730
_cell_angle_gamma	77.624625
loop_
_atom_site_label
_atom_site_type_symbol
_atom_site_fract_x
_atom_site_fract_y
_atom_site_fract_z
O1	O	2.105022	-0.037136	-0.140789
O2	O	2.605022	0.462864	0.359211
O3	O	1.639815	0.045185	-0.153280
O4	O	2.139815	0.545185	0.346720
O5	O	1.885142	-0.229573	-0.111592
O6	O	2.385142	0.270427	0.388408
O7	O	1.859695	0.237622	-0.182477
O8	O	2.359695	0.737622	0.317523
O9	O	1.915337	-0.263459	0.186408
O10	O	2.415337	0.236541	0.686408
O11	O	1.670011	0.011299	0.144719
O12	O	2.170011	0.511299	0.644719
O13	O	2.135217	-0.071022	0.157210
O14	O	2.635217	0.428978	0.657210
Zn15	Zn	1.907408	-0.035242	0.198279
Zn16	Zn	2.407408	0.464758	0.698279
Zn17	Zn	1.867624	0.009405	-0.194348
Zn18	Zn	2.367624	0.509405	0.305652
O19	O	1.889891	0.203736	0.115522
O20	O	2.389891	0.703736	0.615522
C21	C	1.595383	0.034480	-0.005227
C22	C	2.095383	0.534480	0.494773
C23	C	1.418002	0.053050	-0.008046
C24	C	1.918002	0.553050	0.491954
C25	C	1.899189	-0.305773	0.046395
C26	C	2.399189	0.194227	0.546395
C27	C	1.896041	-0.482338	0.073173
C28	C	2.396041	0.017662	0.573173
C29	C	2.179649	-0.060317	0.009154
C30	C	2.679649	0.439683	0.509154
C31	C	2.357029	-0.078885	0.011960
C32	C	2.857029	0.421115	0.511960
C33	C	1.875843	0.279937	-0.042469
C34	C	2.375843	0.779937	0.457531
C35	C	1.878990	0.456503	-0.069259
C36	C	2.378990	0.956503	0.430741
N37	N	1.934572	-0.065714	0.466236
N38	N	2.434572	0.434286	0.966236
N39	N	1.840474	0.039863	-0.462304
N40	N	2.340474	0.539863	0.037696
H41	H	1.440538	-0.206056	0.031255
H42	H	1.940538	0.293944	0.531255
O43	O	1.307406	0.221499	-0.033598
O44	O	1.807406	0.721499	0.466402
H45	H	1.218260	0.250223	-0.157322
H46	H	1.718260	0.750223	0.342678
H47	H	1.866796	-0.460779	-0.211698
H48	H	2.366796	0.039221	0.288302
O49	O	1.912202	-0.591900	0.261873
O50	O	2.412202	-0.091900	0.761873
H51	H	1.907125	-0.718046	0.254021
H52	H	2.407125	-0.218046	0.754021
H53	H	1.744419	0.147627	0.446148
H54	H	2.244419	0.647627	0.946148
O55	O	2.061826	-0.208471	0.587493
O56	O	2.561826	0.291529	1.087493
H57	H	2.058301	-0.204513	0.730530
H58	H	2.558301	0.295487	1.230530
