data_functionalizedCrystal
_audit_creation_method	'MofGen! by Chris Wilmer'
_symmetry_space_group_name_H-M	'P1'
_symmetry_Int_Tables_number	1
_symmetry_cell_setting	triclinic
loop_
_symmetry_equiv_pos_as_xyz
  x,y,z
_cell_length_a	18.215405
_cell_length_b	12.759401
_cell_length_c	12.759393
_cell_angle_alpha	89.978838
_cell_angle_beta	89.962431
_cell_angle_gamma	90.026618
loop_
_atom_site_label
_atom_site_type_symbol
_atom_site_fract_x
_atom_site_fract_y
_atom_site_fract_z
Zn1	Zn	-0.292907	1.606181	-0.594012
Zn2	Zn	-0.415993	1.606044	-0.418314
Zn3	Zn	-0.292949	1.430483	-0.418343
Zn4	Zn	-0.415940	1.430440	-0.593947
O5	O	-0.354447	1.518287	-0.506154
O6	O	-0.309239	1.753184	-0.570720
O7	O	-0.399711	1.582716	-0.271297
O8	O	-0.189959	1.453865	-0.441686
O9	O	-0.399670	1.753083	-0.441636
O10	O	-0.189928	1.582949	-0.570749
O11	O	-0.309311	1.453732	-0.271318
O12	O	-0.309259	1.283456	-0.441623
O13	O	-0.399579	1.453792	-0.740977
O14	O	-0.399620	1.283425	-0.570638
O15	O	-0.309188	1.582908	-0.741025
O16	O	-0.518970	1.582675	-0.441573
O17	O	-0.518931	1.453660	-0.570610
C18	C	-0.354439	1.245320	-0.506127
C19	C	-0.354453	1.128543	-0.506141
C20	C	-0.401575	0.963968	-0.573249
C21	C	-0.401574	1.073692	-0.573220
C22	C	-0.307336	1.073665	-0.439078
C23	C	-0.307341	0.963943	-0.439102
C24	C	-0.455981	0.963984	-0.650698
C25	C	-0.455979	1.073708	-0.650670
C26	C	-0.545653	1.518176	-0.506104
C27	C	-0.627452	1.518225	-0.506117
C28	C	-0.815642	1.585561	-0.439051
C29	C	-0.892501	1.585608	-0.439077
C30	C	-0.892500	1.451148	-0.573333
C31	C	-0.815643	1.451107	-0.573312
C32	C	-0.777216	1.518312	-0.506165
C33	C	-0.930932	1.518400	-0.506211
C34	C	-1.014265	1.518450	-0.506240
C35	C	-0.693877	1.518263	-0.506138
C36	C	-0.162494	1.518427	-0.506228
C37	C	-0.080695	1.518487	-0.506259
C38	C	-0.354373	1.518361	-0.780188
C39	C	-0.354341	1.518392	-0.896964
C40	C	-0.354456	1.792320	-0.506182
C41	C	-0.354460	1.909097	-0.506194
C42	C	-0.307270	1.585632	-0.951853
C43	C	-0.307243	1.585657	-1.061577
C44	C	-0.401366	1.451199	-1.061514
C45	C	-0.401388	1.451170	-0.951792
C46	C	-0.252931	1.663263	-0.951890
C47	C	-0.252904	1.663288	-1.061614
C48	C	-0.354468	1.518274	-0.233187
C49	C	-0.354292	1.518447	-0.116411
H50	H	-0.435628	0.930008	-0.728052
Cl51	Cl	-0.248104	1.142622	-0.354740
H52	H	-0.439716	1.396413	-0.907106
Cl53	Cl	-0.543954	0.917934	-0.616843
H54	H	-0.923784	1.640370	-0.384427
H55	H	-0.784354	1.396345	-0.627969
H56	H	-0.510099	1.107689	-0.621377
Cl57	Cl	-0.460508	1.366696	-1.130448
H58	H	-0.440774	1.103544	-0.732071
H59	H	-0.268984	0.919272	-0.384487
H60	H	-0.195938	1.641509	-0.922142
H61	H	-0.273361	1.740530	-0.917855
Cl62	Cl	-0.940813	1.366663	-0.657737
Cl63	Cl	-0.169341	1.618210	-1.114201
Cl64	Cl	-0.767337	1.670050	-0.354641
Cl65	Cl	-0.276459	1.788911	-1.107600
