data_functionalizedCrystal
_audit_creation_method	'MofGen! by Chris Wilmer'
_symmetry_space_group_name_H-M	'P1'
_symmetry_Int_Tables_number	1
_symmetry_cell_setting	triclinic
loop_
_symmetry_equiv_pos_as_xyz
  x,y,z
_cell_length_a	10.654546
_cell_length_b	10.654550
_cell_length_c	9.730223
_cell_angle_alpha	90.004253
_cell_angle_beta	89.995791
_cell_angle_gamma	95.515793
loop_
_atom_site_label
_atom_site_type_symbol
_atom_site_fract_x
_atom_site_fract_y
_atom_site_fract_z
O1	O	1.667842	-0.176377	-0.114320
O2	O	1.302363	-0.193188	-0.114316
O3	O	1.493505	-0.002043	-0.114309
O4	O	1.476699	-0.367522	-0.114326
O5	O	1.493493	-0.002038	0.114271
O6	O	1.302350	-0.193183	0.114264
O7	O	1.667829	-0.176372	0.114260
Zn8	Zn	1.485088	-0.184777	0.150554
Zn9	Zn	1.485104	-0.184784	-0.150610
O10	O	1.476687	-0.367517	0.114254
C11	C	1.255558	-0.191952	-0.000025
C12	C	1.116115	-0.188262	-0.000024
C13	C	1.050627	-0.186519	-0.124629
C14	C	0.919606	-0.183041	-0.124640
C15	C	0.919574	-0.183046	0.124571
C16	C	1.050591	-0.186532	0.124580
C17	C	1.050645	-0.186511	-0.268509
C18	C	0.919625	-0.183033	-0.268520
C19	C	1.492265	0.044757	-0.000020
C20	C	1.488573	0.184200	-0.000022
C21	C	1.714633	-0.177608	-0.000033
C22	C	1.854077	-0.181298	-0.000044
C23	C	1.477927	-0.414317	-0.000039
C24	C	1.481619	-0.553761	-0.000046
N25	N	1.485086	-0.184771	0.356091
C26	C	1.601115	0.263687	-0.000024
C27	C	1.597638	0.394708	-0.000040
C28	C	1.369068	0.366742	-0.000048
C29	C	1.372546	0.235724	-0.000041
N30	N	1.485116	-0.184779	-0.356146
C31	C	1.569753	-0.100168	0.428019
C32	C	1.569765	-0.100169	0.571902
C33	C	1.400440	-0.269386	0.571915
C34	C	1.400422	-0.269379	0.428035
H35	H	1.075467	-0.275190	-0.323755
H36	H	1.274603	0.408709	-0.000061
H37	H	0.867915	-0.272475	-0.313182
H38	H	1.695591	0.221742	-0.000011
F39	F	1.252757	0.151122	-0.000049
F40	F	1.659856	-0.010118	0.351457
F41	F	0.887187	-0.067120	-0.340710
H42	H	1.638707	-0.031276	0.630463
H43	H	1.331510	-0.338273	0.630506
F44	F	1.120281	-0.188412	0.257201
F45	F	0.849827	-0.181206	0.257175
H46	H	1.102370	-0.097070	-0.313139
F47	F	1.717421	0.479299	-0.000045
F48	F	1.310299	-0.359424	0.351477
