data_functionalizedCrystal
_audit_creation_method	'MofGen! by Chris Wilmer'
_symmetry_space_group_name_H-M	'P1'
_symmetry_Int_Tables_number	1
_symmetry_cell_setting	triclinic
loop_
_symmetry_equiv_pos_as_xyz
  x,y,z
_cell_length_a	14.472310
_cell_length_b	16.109301
_cell_length_c	16.109301
_cell_angle_alpha	83.461481
_cell_angle_beta	89.997506
_cell_angle_gamma	89.989694
loop_
_atom_site_label
_atom_site_type_symbol
_atom_site_fract_x
_atom_site_fract_y
_atom_site_fract_z
O1	O	0.076785	-1.103143	-0.106861
O2	O	0.576785	-0.603143	0.393139
O3	O	0.076801	-0.861081	-0.120161
O4	O	0.576801	-0.361081	0.379839
O5	O	0.076783	-0.988761	0.007520
O6	O	0.576783	-0.488761	0.507520
O7	O	0.076803	-0.975462	-0.234542
O8	O	0.576803	-0.475462	0.265458
O9	O	-0.076899	-0.988729	0.007512
O10	O	0.423101	-0.488729	0.507512
O11	O	-0.076881	-0.861048	-0.120168
O12	O	0.423119	-0.361048	0.379832
O13	O	-0.076897	-1.103110	-0.106869
O14	O	0.423103	-0.603110	0.393131
Cu15	Cu	-0.090921	-0.982076	-0.113519
Cu16	Cu	0.409079	-0.482076	0.386481
Cu17	Cu	0.090825	-0.982115	-0.113510
Cu18	Cu	0.590825	-0.482115	0.386490
O19	O	-0.076879	-0.975429	-0.234550
O20	O	0.423121	-0.475429	0.265450
C21	C	-0.000039	-0.830090	-0.119626
C22	C	0.499961	-0.330090	0.380374
C23	C	-0.000033	-0.737794	-0.118011
C24	C	0.499967	-0.237794	0.381989
N25	N	-0.218752	-0.982055	-0.113525
N26	N	0.281248	-0.482055	0.386475
C27	C	-0.000058	-0.988206	0.038491
C28	C	0.499942	-0.488206	0.538491
C29	C	-0.000059	-0.986591	0.130786
C30	C	0.499941	-0.486591	0.630786
C31	C	-0.592844	-0.982114	-0.113507
C32	C	-0.092844	-0.482114	0.386493
C33	C	-0.553668	-0.913565	-0.181597
C34	C	-0.053668	-0.413565	0.318403
C35	C	-0.446580	-0.913723	-0.181846
C36	C	0.053420	-0.413723	0.318154
C37	C	-0.407252	-0.982084	-0.113516
C38	C	0.092748	-0.482084	0.386484
C39	C	-0.446093	-1.068828	-0.132440
C40	C	0.053907	-0.568828	0.367560
C41	C	-0.553215	-1.068443	-0.132924
C42	C	-0.053215	-0.568443	0.367076
C43	C	-0.553379	-0.964692	-0.026291
C44	C	-0.053379	-0.464692	0.473709
C45	C	-0.446251	-0.962702	-0.026873
C46	C	0.053749	-0.462702	0.473127
C47	C	-0.302364	-0.982072	-0.113519
C48	C	0.197636	-0.482072	0.386481
C49	C	-0.697732	-0.982131	-0.113506
C50	C	-0.197732	-0.482131	0.386494
N51	N	0.218656	-0.982143	-0.113498
N52	N	0.718656	-0.482143	0.386502
C53	C	-0.000055	-1.134101	-0.107404
C54	C	0.499945	-0.634101	0.392596
C55	C	-0.000055	-1.226397	-0.109019
C56	C	0.499945	-0.726397	0.390981
C57	C	-0.000038	-0.515522	-0.190018
C58	C	0.499962	-0.015522	0.309982
C59	C	-0.000044	-0.428801	-0.188494
C60	C	0.499956	0.071199	0.311506
C61	C	-0.000053	-0.448676	-0.037006
C62	C	0.499947	0.051324	0.462994
C63	C	-0.000053	-0.535394	-0.038530
C64	C	0.499947	-0.035394	0.461470
C65	C	-0.000041	-0.568815	-0.115039
C66	C	0.499959	-0.068815	0.384961
C67	C	-0.000047	-0.395376	-0.111990
C68	C	0.499953	0.104624	0.388010
C69	C	-0.000053	-0.301350	-0.110337
C70	C	0.499947	0.198650	0.389663
C71	C	-0.000036	-0.662847	-0.116693
C72	C	0.499964	-0.162847	0.383307
C73	C	-0.000036	-0.975984	-0.265521
C74	C	0.499964	-0.475984	0.234479
C75	C	-0.000028	-0.977600	-0.357816
C76	C	0.499972	-0.477600	0.142184
C77	C	-0.000049	-1.058599	0.353059
C78	C	0.499951	-0.558599	0.853059
C79	C	-0.000042	-1.057075	0.439779
C80	C	0.499958	-0.557075	0.939779
C81	C	-0.000036	-0.905586	0.419905
C82	C	0.499964	-0.405586	0.919905
C83	C	-0.000037	-0.907111	0.333186
C84	C	0.499963	-0.407111	0.833186
C85	C	-0.000048	-0.983620	0.299766
C86	C	0.499952	-0.483620	0.799766
C87	C	-0.000040	-0.980571	0.473205
C88	C	0.499960	-0.480571	0.973205
C89	C	-0.000031	-0.978918	0.567231
C90	C	0.499969	-0.478918	1.067231
C91	C	-0.000055	-0.985273	0.205734
C92	C	0.499945	-0.485273	0.705734
H93	H	-0.579453	-0.848877	-0.170512
H94	H	-0.079453	-0.348877	0.329488
O95	O	-0.410548	-1.089662	-0.215732
O96	O	0.089452	-0.589662	0.284268
H97	H	-0.469794	-1.097095	-0.258007
H98	H	0.030206	-0.597095	0.241993
O99	O	-0.000057	-0.592879	0.042347
O100	O	0.499943	-0.092879	0.542347
H101	H	-0.062703	-0.632845	0.045272
H102	H	0.437297	-0.132845	0.545272
H103	H	-0.000043	-0.385413	-0.249550
H104	H	0.499957	0.114587	0.250450
H105	H	-0.000035	-0.542730	-0.252317
H106	H	0.499965	-0.042730	0.247683
O107	O	-0.000045	-1.137946	0.497261
O108	O	0.499955	-0.637946	0.997261
H109	H	-0.062678	-1.140857	0.537253
H110	H	0.437322	-0.640857	1.037253
O111	O	-0.586302	-1.088786	-0.217173
O112	O	-0.086302	-0.588786	0.282827
H113	H	-0.559798	-1.041142	-0.266638
H114	H	-0.059798	-0.541142	0.233362
H115	H	-0.000068	-0.421454	0.025285
H116	H	0.499932	0.078546	0.525285
O117	O	-0.000044	-0.823071	0.455956
O118	O	0.499956	-0.323071	0.955956
H119	H	0.062587	-0.818762	0.494998
H120	H	0.562587	-0.318762	0.994998
O121	O	-0.000043	-1.141114	0.317007
O122	O	0.499957	-0.641114	0.817007
H123	H	-0.000030	-1.192995	0.368638
H124	H	0.499970	-0.692995	0.868638
O125	O	-0.000047	-0.826234	0.275700
O126	O	0.499953	-0.326234	0.775700
H127	H	0.062586	-0.789626	0.287580
H128	H	0.562586	-0.289626	0.787580
O129	O	-0.411785	-0.828312	-0.166933
O130	O	0.088215	-0.328312	0.333067
H131	H	-0.471471	-0.786520	-0.159482
H132	H	0.028529	-0.286520	0.340518
H133	H	-0.580573	-0.924534	-0.245955
H134	H	-0.080573	-0.424534	0.254045
H135	H	-0.420942	-0.924846	-0.246568
H136	H	0.079058	-0.424846	0.253432
O137	O	-0.586943	-1.030873	0.040858
O138	O	-0.086943	-0.530873	0.540858
H139	H	-0.563088	-1.093174	0.026563
H140	H	-0.063088	-0.593174	0.526563
H141	H	-0.579127	-1.121043	-0.085284
H142	H	-0.079127	-0.621043	0.414716
H143	H	-0.420617	-1.121055	-0.084164
H144	H	0.079383	-0.621055	0.415836
H145	H	-0.580444	-0.902813	-0.008088
H146	H	-0.080444	-0.402813	0.491912
H147	H	-0.420866	-0.898892	-0.012511
H148	H	0.079134	-0.398892	0.487489
O149	O	-0.410822	-1.024553	0.043393
O150	O	0.089178	-0.524553	0.543393
H151	H	-0.364661	-1.070279	0.017543
H152	H	0.135339	-0.570279	0.517543
