data_functionalizedCrystal
_audit_creation_method	'MofGen! by Chris Wilmer'
_symmetry_space_group_name_H-M	'P1'
_symmetry_Int_Tables_number	1
_symmetry_cell_setting	triclinic
loop_
_symmetry_equiv_pos_as_xyz
  x,y,z
_cell_length_a	33.510554
_cell_length_b	33.509711
_cell_length_c	33.506470
_cell_angle_alpha	60.004186
_cell_angle_beta	60.008358
_cell_angle_gamma	59.994760
loop_
_atom_site_label
_atom_site_type_symbol
_atom_site_fract_x
_atom_site_fract_y
_atom_site_fract_z
O1	O	0.055430	-0.583081	0.487524
O2	O	0.020931	-0.453975	0.392819
O3	O	0.102693	-0.535652	0.392731
O4	O	-0.026332	-0.501404	0.487613
O5	O	0.129823	-0.508526	0.419767
O6	O	0.048062	-0.426850	0.419856
O7	O	0.082561	-0.555956	0.514561
Cu8	Cu	0.067789	-0.488926	0.469677
Cu9	Cu	0.035703	-0.521005	0.437703
O10	O	0.000799	-0.474279	0.514649
N11	N	0.090357	-0.466366	0.492168
N12	N	0.013139	-0.543569	0.415212
C13	C	0.143028	-0.279707	0.544737
C14	C	0.143165	-0.413746	0.678712
C15	C	0.143043	-0.413725	0.544739
C16	C	0.277090	-0.413694	0.544637
C17	C	0.157791	-0.323929	0.559462
C18	C	0.157869	-0.398994	0.634489
C19	C	0.232865	-0.398963	0.559407
C20	C	0.157801	-0.398982	0.559463
C21	C	0.124237	-0.223419	0.525994
C22	C	0.124262	-0.432490	0.525997
C23	C	0.176583	-0.380217	0.578205
C24	C	0.358938	-0.399566	0.501510
C25	C	0.410104	-0.416609	0.484423
C26	C	0.410135	-0.499402	0.515995
C27	C	0.358969	-0.482358	0.533084
C28	C	0.136554	-0.197822	0.475693
C29	C	0.119469	-0.146653	0.458657
C30	C	0.077755	-0.146680	0.542223
C31	C	0.094840	-0.197850	0.559260
C32	C	0.073954	-0.420144	0.538396
C33	C	0.056884	-0.437203	0.521352
C34	C	0.140427	-0.478952	0.479524
C35	C	0.157498	-0.461894	0.496561
C36	C	0.074158	-0.420182	0.760618
C37	C	0.057149	-0.437256	0.811786
C38	C	0.140732	-0.479014	0.811717
C39	C	0.157740	-0.461942	0.760547
C40	C	0.124452	-0.432525	0.734999
C41	C	0.333372	-0.432439	0.525839
C42	C	-0.020612	-0.577650	0.170305
C43	C	-0.020943	-0.788098	0.380897
C44	C	-0.020912	-0.577638	0.380991
C45	C	-0.231336	-0.577418	0.380585
C46	C	-0.129735	-0.611383	0.346870
C47	C	-0.054722	-0.611464	0.347017
C48	C	-0.073450	-0.630202	0.328195
C49	C	-0.087616	-0.712029	0.371239
C50	C	-0.070599	-0.763199	0.388315
C51	C	0.012191	-0.763282	0.356872
C52	C	-0.004828	-0.712113	0.339795
C53	C	-0.155381	-0.623711	0.397158
C54	C	-0.206547	-0.606601	0.414133
C55	C	-0.206417	-0.564839	0.330529
C56	C	-0.155251	-0.581949	0.313554
C57	C	-0.067051	-0.561160	0.334643
C58	C	-0.050026	-0.544131	0.351759
C59	C	-0.008343	-0.627704	0.393612
C60	C	-0.025368	-0.644736	0.376502
C61	C	-0.066922	-0.561168	0.246303
C62	C	-0.049794	-0.544141	0.195134
C63	C	-0.008048	-0.627719	0.195183
C64	C	-0.025175	-0.644745	0.246352
C65	C	-0.054614	-0.611468	0.271911
C66	C	-0.054732	-0.686488	0.346980
C67	C	-0.002117	-0.558258	0.114025
C68	C	-0.002879	-0.844379	0.399940
C69	C	-0.002504	-0.558243	0.399473
C70	C	-0.287615	-0.558285	0.398601
N71	N	0.434975	-0.466279	0.491900
O72	O	0.591199	-0.470749	0.375150
O73	O	0.591395	-0.565767	0.504116
O74	O	0.591311	-0.565550	0.422329
O75	O	0.591283	-0.470966	0.456937
O76	O	0.510024	-0.538522	0.449509
O77	O	0.510108	-0.538739	0.531297
O78	O	0.509913	-0.443721	0.402330
Cu79	Cu	0.502588	-0.488762	0.469295
Cu80	Cu	0.598719	-0.520726	0.437151
O81	O	0.509997	-0.443938	0.484117
N82	N	0.666332	-0.543209	0.414541
N83	N	0.090323	-0.121809	0.492157
O84	O	-0.026342	0.034503	0.487582
O85	O	0.102626	0.034543	0.392540
O86	O	0.020797	0.034507	0.392812
O87	O	0.055487	0.034539	0.487310
O88	O	0.047933	-0.046785	0.419900
O89	O	0.129763	-0.046749	0.419628
O90	O	0.000794	-0.046789	0.514670
Cu91	Cu	0.067756	-0.054192	0.469623
Cu92	Cu	0.035664	0.041946	0.437588
O93	O	0.082623	-0.046753	0.514399
N94	N	0.013091	0.109564	0.415054
N95	N	0.090671	-0.466416	0.836606
O96	O	0.086120	-0.583065	0.992910
O97	O	-0.008880	-0.454051	0.992954
O98	O	-0.008658	-0.535864	0.992931
O99	O	0.085897	-0.501252	0.992933
O100	O	0.018407	-0.508749	0.911642
O101	O	0.018185	-0.426936	0.911665
O102	O	0.113185	-0.555949	0.911621
Cu103	Cu	0.068156	-0.488967	0.904221
Cu104	Cu	0.036148	-0.521034	1.000355
O105	O	0.112963	-0.474136	0.911644
N106	N	0.013633	-0.543590	1.067970
C107	C	0.031262	-0.424144	0.393290
C108	C	0.132513	-0.525291	0.393180
C109	C	0.072229	-0.585787	0.514090
C110	C	-0.029022	-0.484640	0.514200
C111	C	0.550775	-0.565338	0.533954
C112	C	0.550672	-0.565070	0.432670
C113	C	0.550530	-0.444149	0.372492
C114	C	0.550635	-0.444418	0.473776
C115	C	0.132408	-0.005998	0.392963
C116	C	0.031106	-0.006142	0.393333
C117	C	-0.029021	-0.006147	0.514213
C118	C	0.072314	-0.006104	0.513878
C119	C	-0.008430	-0.424240	0.952316
C120	C	-0.008150	-0.525550	0.952271
C121	C	0.112735	-0.585760	0.952260
C122	C	0.112461	-0.484444	0.952286
H123	H	0.016194	-0.427197	0.832639
H124	H	0.079744	-0.006095	0.543566
H125	H	0.550685	-0.594783	0.425263
H126	H	-0.037843	-0.532946	0.952238
O127	O	-0.044060	-0.380058	0.952308
C128	C	-0.086134	-0.380075	0.952325
H129	H	-0.075299	-0.409019	0.936927
H130	H	-0.112691	-0.388616	0.991325
C131	C	-0.124164	-0.293909	0.939371
C132	C	-0.110855	-0.329456	0.920455
H133	H	-0.139415	-0.262685	0.919714
H134	H	-0.095819	-0.293898	0.939361
H135	H	-0.146292	-0.301033	0.971871
H136	H	-0.088722	-0.322336	0.887957
H137	H	-0.139197	-0.329465	0.920457
O138	O	0.176684	-0.533999	0.357588
C139	C	0.170244	-0.528511	0.316415
H140	H	0.134439	-0.533891	0.328197
H141	H	0.169154	-0.490301	0.288782
C142	C	0.257026	-0.560259	0.278377
C143	C	0.213052	-0.566870	0.292850
H144	H	0.283432	-0.583919	0.263839
H145	H	0.261365	-0.563954	0.306115
H146	H	0.256110	-0.528416	0.255352
H147	H	0.213965	-0.598710	0.315878
H148	H	0.208714	-0.563181	0.265114
H149	H	0.079602	-0.622875	0.543835
H150	H	0.142562	-0.622811	0.952240
H151	H	0.550467	-0.414317	0.335455
H152	H	0.142166	-0.477036	0.952281
O153	O	-0.130570	-0.652372	0.429499
C154	C	-0.100975	-0.697878	0.422161
H155	H	-0.116363	-0.704896	0.403548
H156	H	-0.062179	-0.697466	0.398066
C157	C	-0.081369	-0.730046	0.494696
C158	C	-0.100271	-0.738667	0.471840
H159	H	-0.080932	-0.755207	0.525340
H160	H	-0.101306	-0.699387	0.499639
H161	H	-0.049040	-0.729701	0.474612
H162	H	-0.132601	-0.739006	0.491921
H163	H	-0.080339	-0.769328	0.466901
H164	H	0.550629	-0.414708	0.481180
H165	H	0.047048	-0.396226	0.739820
O166	O	-0.073210	-0.476027	0.549793
C167	C	-0.073234	-0.518061	0.591908
H168	H	-0.044310	-0.551603	0.581128
H169	H	-0.064694	-0.514133	0.618456
C170	C	-0.159391	-0.482777	0.629852
C171	C	-0.123869	-0.523975	0.616611
H172	H	-0.190625	-0.486424	0.645092
H173	H	-0.159375	-0.454457	0.601479
H174	H	-0.152268	-0.479508	0.651973
H175	H	-0.130988	-0.527239	0.594486
H176	H	-0.123887	-0.552296	0.644981
O177	O	-0.073208	-0.006091	0.549828
C178	C	-0.094838	0.036020	0.562934
H179	H	-0.065197	0.050069	0.553001
H180	H	-0.121532	0.065492	0.542435
C181	C	-0.158854	0.005976	0.630556
C182	C	-0.122447	0.023228	0.618361
H183	H	-0.175886	-0.001913	0.664746
H184	H	-0.144282	-0.022395	0.621726
H185	H	-0.181093	0.030539	0.613470
H186	H	-0.100205	-0.001337	0.635442
H187	H	-0.137016	0.051595	0.627196
O188	O	0.176544	-0.005780	0.357339
C189	C	0.213582	-0.047785	0.373836
H190	H	0.200284	-0.061983	0.415496
H191	H	0.222840	-0.077221	0.359848
C192	C	0.275830	-0.017290	0.303308
C193	C	0.259499	-0.034725	0.354476
H194	H	0.304155	-0.009235	0.291365
H195	H	0.250877	0.011009	0.292193
H196	H	0.283542	-0.041823	0.291658
H197	H	0.251782	-0.010191	0.366126
H198	H	0.284452	-0.063020	0.365593
O199	O	0.173134	-0.507600	0.836459
C200	C	0.221173	-0.514823	0.802875
H201	H	0.221047	-0.509093	0.766410
H202	H	0.235830	-0.487587	0.797428
C203	C	0.254174	-0.574282	0.867597
C204	C	0.254020	-0.567248	0.822810
H205	H	0.274437	-0.606619	0.879894
H206	H	0.221810	-0.569414	0.890223
H207	H	0.266387	-0.551581	0.863051
H208	H	0.241801	-0.589944	0.827358
H209	H	0.286383	-0.572121	0.800185
O210	O	0.206594	-0.473990	0.735642
C211	C	0.218938	-0.499733	0.706033
H212	H	0.190101	-0.517057	0.721472
H213	H	0.220602	-0.473414	0.667263
C214	C	0.304548	-0.518723	0.686248
C215	C	0.269131	-0.540005	0.705212
H216	H	0.335510	-0.543564	0.685739
H217	H	0.296232	-0.501379	0.706194
H218	H	0.305929	-0.496791	0.653941
H219	H	0.267747	-0.561932	0.737520
H220	H	0.277448	-0.557355	0.685271
H221	H	0.015920	-0.427139	0.531437
O222	O	0.041601	-0.391566	0.566963
C223	C	-0.006462	-0.384335	0.574255
H224	H	-0.006396	-0.390047	0.543415
H225	H	-0.021092	-0.411579	0.610708
C226	C	-0.039369	-0.324903	0.612520
C227	C	-0.039289	-0.331914	0.574638
H228	H	-0.059619	-0.292568	0.612758
H229	H	-0.006988	-0.329776	0.607608
H230	H	-0.051559	-0.347609	0.642893
H231	H	-0.027093	-0.309212	0.544266
H232	H	-0.071669	-0.327037	0.579545
O233	O	0.022262	-0.006249	0.357956
C234	C	0.010764	-0.048361	0.374819
H235	H	0.026559	-0.077772	0.405163
H236	H	-0.030626	-0.038857	0.389576
C237	C	0.013381	-0.031346	0.295045
C238	C	0.032784	-0.067470	0.332312
H239	H	0.026962	-0.043133	0.268825
H240	H	0.021125	-0.002973	0.283684
H241	H	-0.021110	-0.023430	0.307349
H242	H	0.067273	-0.075381	0.320010
H243	H	0.025046	-0.095844	0.343670
H244	H	0.198463	-0.471942	0.486461
O245	O	0.172739	-0.507444	0.450861
C246	C	0.202295	-0.481593	0.407944
H247	H	0.182519	-0.440658	0.400848
H248	H	0.238255	-0.492479	0.412567
C249	C	0.237006	-0.544224	0.373121
C250	C	0.212715	-0.493947	0.364403
H251	H	0.243436	-0.551846	0.346263
H252	H	0.217095	-0.561642	0.402036
H253	H	0.266970	-0.553289	0.376975
H254	H	0.182749	-0.484883	0.360556
H255	H	0.232622	-0.476528	0.335487
O256	O	0.334163	-0.514305	0.556636
C257	C	0.346659	-0.538269	0.525322
H258	H	0.360688	-0.514960	0.485711
H259	H	0.376381	-0.575189	0.533548
C260	C	0.283977	-0.574688	0.582165
C261	C	0.301204	-0.546058	0.533513
H262	H	0.255940	-0.579495	0.587218
H263	H	0.275559	-0.558545	0.603263
H264	H	0.308750	-0.605452	0.589014
H265	H	0.276434	-0.515293	0.526667
H266	H	0.309617	-0.562196	0.512415
O267	O	0.435075	-0.547874	0.522970
C268	C	0.485718	-0.555869	0.502681
H269	H	0.492679	-0.520649	0.473352
H270	H	0.500269	-0.567660	0.532613
C271	C	0.503428	-0.639507	0.515729
C272	C	0.511978	-0.596251	0.479703
H273	H	0.519628	-0.664418	0.501557
H274	H	0.469310	-0.634122	0.529400
H275	H	0.515554	-0.649327	0.540669
H276	H	0.499847	-0.586428	0.454766
H277	H	0.546096	-0.601635	0.466027
H278	H	0.430920	-0.389838	0.464614
O279	O	0.020245	-0.660007	0.422179
C280	C	0.065745	-0.652686	0.399002
H281	H	0.072837	-0.634130	0.357972
H282	H	0.065271	-0.628546	0.414115
C283	C	0.097800	-0.725158	0.459089
C284	C	0.106511	-0.702370	0.408694
H285	H	0.122946	-0.755804	0.465069
H286	H	0.067145	-0.730089	0.474705
H287	H	0.097404	-0.705036	0.471677
H288	H	0.106901	-0.722489	0.396109
H289	H	0.137167	-0.697443	0.393076
O290	O	-0.231156	-0.536308	0.298123
C291	C	-0.218637	-0.562158	0.268544
H292	H	-0.181507	-0.591974	0.268097
H293	H	-0.247450	-0.579487	0.283890
C294	C	-0.261798	-0.490091	0.216655
C295	C	-0.216194	-0.526709	0.216103
H296	H	-0.260293	-0.468224	0.184308
H297	H	-0.270235	-0.472675	0.236584
H298	H	-0.285804	-0.504537	0.229446
H299	H	-0.192190	-0.512262	0.203318
H300	H	-0.207753	-0.544121	0.196170
O301	O	0.334147	-0.351061	0.494452
C302	C	0.367687	-0.325701	0.469304
H303	H	0.404176	-0.351958	0.475184
H304	H	0.373097	-0.309794	0.428600
C305	C	0.302913	-0.251769	0.481654
C306	C	0.347727	-0.284017	0.488880
H307	H	0.290600	-0.226055	0.493728
H308	H	0.280316	-0.268853	0.498596
H309	H	0.307427	-0.238519	0.447733
H310	H	0.343212	-0.297272	0.522801
H311	H	0.370323	-0.266934	0.471945
H312	H	0.550826	-0.595166	0.570996
H313	H	0.160490	-0.218637	0.448603
H314	H	0.129496	-0.125810	0.417697
H315	H	0.084809	-0.218687	0.600218
O316	O	0.049261	-0.121895	0.574585
C317	C	0.075142	-0.134387	0.604126
H318	H	0.104939	-0.171531	0.604602
H319	H	0.092493	-0.105577	0.588722
C320	C	0.003124	-0.091155	0.655974
C321	C	0.039719	-0.136777	0.656562
H322	H	-0.018726	-0.092627	0.688318
H323	H	-0.014312	-0.082737	0.636071
H324	H	0.017590	-0.067151	0.643135
H325	H	0.025254	-0.160778	0.669394
H326	H	0.057152	-0.145200	0.676468
O327	O	-0.061845	-0.495270	0.170286
C328	C	-0.113088	-0.473980	0.182722
H329	H	-0.129591	-0.503091	0.196754
H330	H	-0.128278	-0.457817	0.212424
C331	C	-0.105981	-0.397476	0.119992
C332	C	-0.126250	-0.433230	0.137223
H333	H	-0.114101	-0.372338	0.091927
H334	H	-0.071458	-0.411819	0.111615
H335	H	-0.118641	-0.384013	0.144748
H336	H	-0.113585	-0.446697	0.112468
H337	H	-0.160772	-0.418889	0.145594
O338	O	-0.095442	-0.528826	0.271113
C339	C	-0.069596	-0.499274	0.258652
H340	H	-0.028662	-0.519068	0.244638
H341	H	-0.080443	-0.463322	0.228927
C342	C	-0.132284	-0.464508	0.321334
C343	C	-0.082008	-0.488821	0.304126
H344	H	-0.139941	-0.458058	0.349384
H345	H	-0.149698	-0.484416	0.329729
H346	H	-0.141317	-0.434551	0.296559
H347	H	-0.072977	-0.518780	0.328899
H348	H	-0.064593	-0.468918	0.295737
O349	O	0.022507	-0.379942	0.357741
C350	C	0.027924	-0.386320	0.316563
H351	H	0.052411	-0.425284	0.317007
H352	H	-0.009456	-0.379379	0.317535
C353	C	0.021183	-0.302171	0.269124
C354	C	0.051262	-0.350027	0.269668
H355	H	0.035577	-0.279783	0.240197
H356	H	0.017532	-0.297874	0.296867
H357	H	-0.009965	-0.296395	0.269936
H358	H	0.082408	-0.355805	0.268862
H359	H	0.054920	-0.354325	0.241923
O360	O	0.020483	-0.660092	0.170413
C361	C	-0.005374	-0.689626	0.182858
H362	H	-0.035199	-0.690089	0.219979
H363	H	-0.022687	-0.674225	0.154010
C364	C	0.066691	-0.741500	0.139686
C365	C	0.030061	-0.742071	0.185280
H366	H	0.088548	-0.773850	0.141179
H367	H	0.084111	-0.721601	0.131300
H368	H	0.052257	-0.728663	0.115651
H369	H	0.044495	-0.754902	0.209314
H370	H	0.012645	-0.761973	0.193671
O371	O	-0.061907	-0.495279	0.339721
C372	C	-0.018890	-0.482976	0.314028
H373	H	0.013222	-0.516726	0.323317
H374	H	-0.011638	-0.468944	0.273062
C375	C	-0.064513	-0.401452	0.317343
C376	C	-0.025074	-0.442903	0.328755
H377	H	-0.068328	-0.376731	0.326425
H378	H	-0.093495	-0.409739	0.334651
H379	H	-0.058465	-0.389764	0.283205
H380	H	-0.031125	-0.454594	0.362893
H381	H	0.003908	-0.434617	0.311453
O382	O	-0.013329	-0.693616	0.388545
C383	C	0.016220	-0.719333	0.418248
H384	H	0.034825	-0.694957	0.411764
H385	H	-0.007435	-0.730337	0.458307
C386	C	0.032472	-0.795425	0.413302
C387	C	0.055325	-0.765488	0.405335
H388	H	0.056592	-0.823897	0.405339
H389	H	0.012562	-0.778100	0.393292
H390	H	0.012760	-0.804591	0.446684
H391	H	0.075031	-0.756319	0.371952
H392	H	0.075239	-0.782813	0.425339
H393	H	-0.015148	-0.685706	0.267200
H394	H	0.021953	-0.691318	0.320042
O395	O	0.060685	-0.788156	0.349809
C396	C	0.087144	-0.775676	0.299304
H397	H	0.062043	-0.761587	0.278109
H398	H	0.101851	-0.746002	0.287902
C399	C	0.160918	-0.838466	0.314201
C400	C	0.130090	-0.821166	0.288169
H401	H	0.187411	-0.866525	0.307332
H402	H	0.143093	-0.846873	0.348227
H403	H	0.173169	-0.813733	0.304696
H404	H	0.117835	-0.845897	0.297678
H405	H	0.147914	-0.812764	0.254144
H406	H	-0.097376	-0.783993	0.408060
O407	O	-0.136083	-0.687155	0.378139
C408	C	-0.151662	-0.699653	0.355109
H409	H	-0.118956	-0.713760	0.324918
H410	H	-0.168833	-0.729319	0.383135
C411	C	-0.229835	-0.636847	0.369960
C412	C	-0.189665	-0.654170	0.332875
H413	H	-0.253279	-0.608792	0.356247
H414	H	-0.219341	-0.628428	0.385477
H415	H	-0.244139	-0.661573	0.393312
H416	H	-0.175359	-0.629445	0.309528
H417	H	-0.200159	-0.662584	0.317353
O418	O	-0.231444	-0.618660	0.462990
C419	C	-0.218977	-0.669908	0.484254
H420	H	-0.204872	-0.686410	0.455114
H421	H	-0.189320	-0.685090	0.500475
C422	C	-0.281797	-0.662822	0.560727
C423	C	-0.264477	-0.683089	0.524936
H424	H	-0.309862	-0.670954	0.585823
H425	H	-0.290195	-0.628296	0.546401
H426	H	-0.257078	-0.675476	0.574238
H427	H	-0.289192	-0.670431	0.511422
H428	H	-0.256084	-0.717614	0.539260
H429	H	-0.134369	-0.571905	0.272603
H430	H	-0.090949	-0.534065	0.310634
