data_functionalizedCrystal
_audit_creation_method	'MofGen! by Chris Wilmer'
_symmetry_space_group_name_H-M	'P1'
_symmetry_Int_Tables_number	1
_symmetry_cell_setting	triclinic
loop_
_symmetry_equiv_pos_as_xyz
  x,y,z
_cell_length_a	14.519709
_cell_length_b	14.519709
_cell_length_c	7.540329
_cell_angle_alpha	89.995460
_cell_angle_beta	90.002655
_cell_angle_gamma	83.680145
loop_
_atom_site_label
_atom_site_type_symbol
_atom_site_fract_x
_atom_site_fract_y
_atom_site_fract_z
O1	O	1.223866	0.120890	-0.147255
O2	O	1.723866	0.620890	0.352745
O3	O	0.955389	0.135126	-0.147310
O4	O	1.455389	0.635126	0.352690
O5	O	1.096745	-0.006230	-0.147265
O6	O	1.596745	0.493770	0.352735
O7	O	1.082509	0.262247	-0.147300
O8	O	1.582509	0.762247	0.352700
O9	O	1.096737	-0.006232	0.147700
O10	O	1.596737	0.493768	0.647700
O11	O	0.955380	0.135125	0.147655
O12	O	1.455380	0.635125	0.647655
O13	O	1.223857	0.120888	0.147710
O14	O	1.723857	0.620888	0.647710
Cu15	Cu	1.089618	0.128006	0.174615
Cu16	Cu	1.589618	0.628006	0.674615
Cu17	Cu	1.089628	0.128008	-0.174215
Cu18	Cu	1.589628	0.628008	0.325785
O19	O	1.082500	0.262245	0.147665
O20	O	1.582500	0.762245	0.647665
C21	C	0.921025	0.134462	0.000166
C22	C	1.421025	0.634462	0.500166
C23	C	0.818643	0.132474	0.000145
C24	C	1.318643	0.632474	0.500145
C25	C	0.443748	0.125154	0.000227
C26	C	0.943748	0.625154	0.500227
C27	C	0.548056	0.127187	0.000204
C28	C	1.048056	0.627187	0.500204
C29	C	0.631192	0.128814	0.000184
C30	C	1.131192	0.628814	0.500184
C31	C	0.735507	0.130847	0.000164
C32	C	1.235507	0.630847	0.500164
C33	C	1.096078	-0.040591	0.000217
C34	C	1.596078	0.459409	0.500217
C35	C	1.094090	-0.142972	0.000218
C36	C	1.594090	0.357028	0.500218
C37	C	1.086770	-0.517868	0.000170
C38	C	1.586770	-0.017868	0.500170
C39	C	1.088803	-0.413560	0.000184
C40	C	1.588803	0.086440	0.500184
C41	C	1.090430	-0.330423	0.000196
C42	C	1.590430	0.169577	0.500196
C43	C	1.092463	-0.226109	0.000206
C44	C	1.592463	0.273891	0.500206
C45	C	1.258221	0.121553	0.000230
C46	C	1.758221	0.621553	0.500230
C47	C	1.360602	0.123541	0.000239
C48	C	1.860602	0.623541	0.500239
C49	C	1.083168	0.296606	0.000178
C50	C	1.583168	0.796606	0.500178
C51	C	1.085156	0.398987	0.000166
C52	C	1.585156	0.898987	0.500166
N53	N	1.089618	0.128004	0.419963
N54	N	1.589618	0.628004	0.919963
N55	N	1.089635	0.128003	-0.419564
N56	N	1.589635	0.628003	0.080436
