data_functionalizedCrystal
_audit_creation_method	'MofGen! by Chris Wilmer'
_symmetry_space_group_name_H-M	'P1'
_symmetry_Int_Tables_number	1
_symmetry_cell_setting	triclinic
loop_
_symmetry_equiv_pos_as_xyz
  x,y,z
_cell_length_a	14.044220
_cell_length_b	27.732048
_cell_length_c	12.503572
_cell_angle_alpha	93.489054
_cell_angle_beta	86.164750
_cell_angle_gamma	87.915767
loop_
_atom_site_label
_atom_site_type_symbol
_atom_site_fract_x
_atom_site_fract_y
_atom_site_fract_z
O1	O	1.261499	0.113903	-0.089228
O2	O	0.985593	0.109700	-0.089254
O3	O	1.132113	0.041807	-0.089220
O4	O	1.114978	0.181795	-0.089262
O5	O	1.121094	0.046922	0.089419
O6	O	0.974573	0.114815	0.089385
O7	O	1.250479	0.119018	0.089411
Cu8	Cu	1.111520	0.117384	0.105709
Cu9	Cu	1.124552	0.111334	-0.105552
O10	O	1.103958	0.186910	0.089377
C11	C	0.944796	0.110418	0.000062
C12	C	0.839651	0.104930	0.000053
C13	C	0.647135	0.094899	0.000077
C14	C	0.588932	0.133816	0.000070
C15	C	0.481809	0.128235	0.000084
C16	C	0.754267	0.100480	0.000064
C17	C	1.126244	0.026341	0.000103
C18	C	1.125160	-0.027364	0.000111
C19	C	1.204929	-0.362437	0.000064
C20	C	1.200910	-0.564286	0.000049
O21	O	1.273853	-0.592120	0.000008
N22	N	1.114029	-0.587487	0.000041
C23	C	1.028146	-0.560223	0.000031
O24	O	0.954156	-0.584589	0.000013
C25	C	1.032166	-0.358376	0.000038
C26	C	1.119052	-0.335177	0.000057
C27	C	1.291808	-0.339238	0.000081
C28	C	1.292811	-0.288779	0.000091
C29	C	1.206935	-0.261519	0.000083
C30	C	1.120056	-0.284718	0.000066
C31	C	0.946285	-0.331113	0.000020
C32	C	0.947297	-0.280648	0.000019
C33	C	1.034184	-0.257449	0.000038
C34	C	1.035183	-0.206998	0.000069
N35	N	1.122064	-0.183797	0.000076
C36	C	1.207940	-0.211057	0.000083
C37	C	1.026041	-0.666196	0.000029
C38	C	1.025036	-0.716658	0.000029
C39	C	1.197801	-0.720717	0.000045
C40	C	1.198805	-0.670254	0.000052
C41	C	1.112923	-0.642995	0.000036
C42	C	1.210041	-0.105089	0.000105
C43	C	1.211036	-0.054625	0.000119
C44	C	1.038272	-0.050570	0.000097
C45	C	1.037276	-0.101029	0.000089
C46	C	1.123168	-0.128288	0.000089
O47	O	0.962280	-0.179134	0.000097
O48	O	1.281921	-0.186683	0.000077
C49	C	1.203925	-0.412897	0.000054
C50	C	1.117046	-0.436096	0.000037
C51	C	1.031169	-0.408835	0.000030
C52	C	1.116040	-0.486557	0.000037
C53	C	1.201917	-0.513818	0.000044
C54	C	1.288798	-0.490616	0.000052
C55	C	1.289801	-0.440157	0.000061
C56	C	0.944288	-0.432037	0.000023
C57	C	0.943291	-0.482496	0.000014
C58	C	1.029168	-0.509756	0.000021
C59	C	1.291276	0.118300	0.000092
C60	C	1.396422	0.123787	0.000094
C61	C	1.109828	0.202377	0.000052
C62	C	1.110912	0.256082	0.000036
N63	N	1.102361	0.121638	0.254299
N64	N	1.133718	0.107076	-0.254143
C65	C	1.088888	0.127901	0.473411
C66	C	1.147188	0.100815	0.526752
C67	C	1.139692	0.104299	0.648674
C68	C	1.096383	0.124417	0.351479
H69	H	1.281792	-0.035739	0.000136
H70	H	0.956102	-0.644006	0.000016
O71	O	1.283293	-0.647800	0.000011
C72	C	1.358865	-0.682686	0.000048
H73	H	1.334901	-0.719027	-0.033769
H74	H	1.422771	-0.671015	-0.051814
H75	H	1.380033	-0.686228	0.085753
O76	O	1.213354	0.069920	0.472163
C77	C	1.196740	0.022252	0.499736
H78	H	1.118979	0.019713	0.530665
H79	H	1.212421	-0.003665	0.425823
H80	H	1.245383	0.012162	0.565016
H81	H	1.033350	0.153706	0.519306
O82	O	0.610577	0.050158	-0.000103
C83	C	0.559797	0.041980	-0.092603
H84	H	0.586864	0.066360	-0.157272
H85	H	0.571017	0.002537	-0.123657
H86	H	0.480450	0.050428	-0.071681
O87	O	1.293559	-0.131489	0.000156
C88	C	1.370448	-0.100184	0.000147
H89	H	1.343739	-0.062654	0.033967
H90	H	1.427375	-0.114698	0.052020
H91	H	1.402404	-0.097886	-0.085550
H92	H	0.619555	0.171325	0.000054
H93	H	0.966524	-0.119918	0.000104
H94	H	1.361743	-0.361429	0.000083
O95	O	1.377251	-0.266277	-0.000093
C96	C	1.435262	-0.282501	-0.092597
H97	H	1.388422	-0.297027	-0.157264
H98	H	1.477033	-0.251129	-0.123651
H99	H	1.487237	-0.312467	-0.071678
O100	O	1.281140	-0.747277	-0.000005
C101	C	1.261608	-0.796788	0.000016
H102	H	1.189311	-0.802893	-0.033796
H103	H	1.319578	-0.818748	-0.051857
H104	H	1.260141	-0.808759	0.085716
H105	H	0.954283	-0.735541	0.000033
O106	O	0.861801	-0.353565	-0.000050
C107	C	0.786232	-0.318673	-0.000037
H108	H	0.814376	-0.284266	-0.033845
H109	H	0.728727	-0.333307	-0.051918
H110	H	0.754485	-0.310233	0.085660
H111	H	1.360553	-0.421273	0.000076
O112	O	0.863906	-0.254153	-0.000184
C113	C	0.865034	-0.227474	-0.092685
H114	H	0.917744	-0.245678	-0.157345
H115	H	0.790564	-0.225994	-0.123752
H116	H	0.887706	-0.189178	-0.071757
H117	H	0.968354	-0.028365	0.000095
H118	H	1.358721	-0.512821	0.000062
H119	H	0.872532	-0.501380	0.000009
H120	H	0.874355	-0.409846	0.000014
