data_functionalizedCrystal
_audit_creation_method	'MofGen! by Chris Wilmer'
_symmetry_space_group_name_H-M	'P1'
_symmetry_Int_Tables_number	1
_symmetry_cell_setting	triclinic
loop_
_symmetry_equiv_pos_as_xyz
  x,y,z
_cell_length_a	16.109302
_cell_length_b	10.654550
_cell_length_c	14.586319
_cell_angle_alpha	89.996358
_cell_angle_beta	89.994552
_cell_angle_gamma	83.973356
loop_
_atom_site_label
_atom_site_type_symbol
_atom_site_fract_x
_atom_site_fract_y
_atom_site_fract_z
O1	O	1.104090	0.161423	-0.076281
O2	O	1.604090	0.661423	0.423719
O3	O	0.862148	0.181511	-0.076274
O4	O	1.362148	0.681511	0.423726
O5	O	0.988682	-0.011348	-0.076272
O6	O	1.488682	0.488652	0.423728
O7	O	0.977556	0.354282	-0.076283
O8	O	1.477556	0.854282	0.423717
O9	O	0.988673	-0.011350	0.076209
O10	O	1.488673	0.488650	0.576209
O11	O	0.862139	0.181508	0.076207
O12	O	1.362139	0.681508	0.576207
O13	O	1.104081	0.161420	0.076200
O14	O	1.604081	0.661420	0.576200
Cu15	Cu	0.983109	0.171464	0.090126
Cu16	Cu	1.483109	0.671464	0.590126
Cu17	Cu	0.983120	0.171467	-0.090200
Cu18	Cu	1.483120	0.671467	0.409800
O19	O	0.977547	0.354279	0.076198
O20	O	1.477547	0.854279	0.576198
C21	C	0.831164	0.180695	-0.000033
C22	C	1.331164	0.680695	0.499967
C23	C	0.738854	0.178255	-0.000030
C24	C	1.238854	0.678255	0.499970
C25	C	0.526474	0.172612	0.083079
C26	C	1.026474	0.672612	0.583079
C27	C	0.439741	0.170306	0.083075
C28	C	0.939741	0.670306	0.583075
C29	C	0.439761	0.170316	-0.083168
C30	C	0.939761	0.670316	0.416832
C31	C	0.526494	0.172613	-0.083163
C32	C	1.026494	0.672613	0.416837
C33	C	0.569848	0.173767	-0.000038
C34	C	1.069848	0.673767	0.499962
C35	C	0.396381	0.169164	-0.000045
C36	C	0.896381	0.669164	0.499955
C37	C	0.302341	0.166664	-0.000049
C38	C	0.802341	0.666664	0.499951
C39	C	0.663895	0.176265	-0.000033
C40	C	1.163895	0.676265	0.499967
C41	C	0.987860	-0.058136	-0.000032
C42	C	1.487860	0.441864	0.499968
C43	C	0.985416	-0.197546	-0.000033
C44	C	1.485416	0.302454	0.499967
C45	C	1.059917	-0.278042	-0.000036
C46	C	1.559917	0.221958	0.499964
C47	C	1.057616	-0.409032	-0.000047
C48	C	1.557616	0.090968	0.499953
C49	C	0.906306	-0.379016	-0.000049
C50	C	1.406306	0.120984	0.499951
C51	C	0.908608	-0.248029	-0.000045
C52	C	1.408608	0.251971	0.499955
C53	C	1.145364	-0.606066	-0.053476
C54	C	1.645364	-0.106066	0.446524
C55	C	1.219869	-0.686567	-0.053463
C56	C	1.719869	-0.186567	0.446537
C57	C	1.287407	-0.657312	-0.000029
C58	C	1.787407	-0.157312	0.499971
C59	C	1.280443	-0.547558	0.053413
C60	C	1.780443	-0.047558	0.553413
C61	C	1.205936	-0.467063	0.053408
C62	C	1.705936	0.032937	0.553408
C63	C	1.138401	-0.496317	-0.000047
C64	C	1.638401	0.003683	0.499953
C65	C	0.820866	-0.050994	0.053391
C66	C	1.320866	0.449006	0.553391
C67	C	0.746358	0.029503	0.053393
C68	C	1.246358	0.529503	0.553393
C69	C	0.678813	0.000252	-0.000035
C70	C	1.178813	0.500252	0.499965
C71	C	0.685769	-0.109504	-0.053463
C72	C	1.185769	0.390496	0.446537
C73	C	0.760277	-0.190001	-0.053465
C74	C	1.260277	0.309999	0.446535
C75	C	0.827822	-0.160741	-0.000039
C76	C	1.327822	0.339259	0.499961
C77	C	1.135065	0.162236	-0.000044
C78	C	1.635065	0.662236	0.499956
C79	C	1.227375	0.164676	-0.000053
C80	C	1.727375	0.664676	0.499947
C81	C	0.978369	0.401067	-0.000044
C82	C	1.478369	0.901067	0.499956
C83	C	0.980813	0.540477	-0.000049
C84	C	1.480813	1.040477	0.499951
N85	N	0.983108	0.171461	0.216958
N86	N	1.483108	0.671461	0.716958
N87	N	0.983128	0.171460	-0.217032
N88	N	1.483128	0.671460	0.282968
C89	C	1.039156	0.086092	0.451965
C90	C	1.539156	0.586092	0.951965
C91	C	1.039158	0.086089	0.547946
C92	C	1.539158	0.586089	1.047946
C93	C	0.927074	0.256834	0.547954
C94	C	1.427074	0.756834	1.047954
C95	C	0.927068	0.256830	0.451974
C96	C	1.427068	0.756830	0.951974
C97	C	0.983114	0.171460	0.403982
C98	C	1.483114	0.671460	0.903982
C99	C	0.983122	0.171461	0.595943
C100	C	1.483122	0.671461	1.095943
C101	C	0.983124	0.171458	0.700010
C102	C	1.483124	0.671458	1.200010
C103	C	0.983111	0.171461	0.299909
C104	C	1.483111	0.671461	0.799909
H105	H	0.561810	0.173550	-0.150851
H106	H	1.061810	0.673550	0.349149
Cl107	Cl	0.737606	0.167465	0.120584
Cl108	Cl	1.237606	0.667465	0.620584
Cl109	Cl	0.856622	0.364155	0.608291
Cl110	Cl	1.356622	0.864155	1.108291
H111	H	1.225534	-0.775927	-0.096982
H112	H	1.725534	-0.275927	0.403018
Cl113	Cl	1.197176	-0.329098	0.120588
Cl114	Cl	1.697176	0.170902	0.620588
H115	H	0.561771	0.173552	0.150765
H116	H	1.061771	0.673552	0.650765
Cl117	Cl	1.156476	-0.214582	-0.000024
Cl118	Cl	1.656476	0.285418	0.499976
Cl119	Cl	0.385218	0.168856	0.187569
Cl120	Cl	0.885218	0.668856	0.687569
Cl121	Cl	0.385255	0.168834	-0.187663
Cl122	Cl	0.885255	0.668834	0.312337
H123	H	0.630761	-0.133338	-0.096950
H124	H	1.130761	0.366662	0.403050
Cl125	Cl	1.365351	-0.510795	0.120597
Cl126	Cl	1.865351	-0.010795	0.620597
H127	H	1.348070	-0.722865	-0.000020
H128	H	1.848070	-0.222865	0.499980
H129	H	1.084792	0.016573	0.587011
H130	H	1.584792	0.516573	1.087011
Cl131	Cl	0.905783	-0.014209	0.120558
Cl132	Cl	1.405783	0.485791	0.620558
Cl133	Cl	0.856605	0.364152	0.391647
Cl134	Cl	1.356605	0.864152	0.891647
H135	H	1.090377	-0.629888	-0.096999
H136	H	1.590377	-0.129888	0.403001
H137	H	0.843771	-0.420136	-0.000057
H138	H	1.343771	0.079864	0.499943
Cl139	Cl	0.769021	-0.327983	-0.120634
Cl140	Cl	1.269021	0.172017	0.379366
H141	H	0.618142	0.065796	-0.000017
H142	H	1.118142	0.565796	0.499983
H143	H	1.084791	0.016577	0.412892
H144	H	1.584791	0.516577	0.912892
