data_functionalizedCrystal
_audit_creation_method	'MofGen! by Chris Wilmer'
_symmetry_space_group_name_H-M	'P1'
_symmetry_Int_Tables_number	1
_symmetry_cell_setting	triclinic
loop_
_symmetry_equiv_pos_as_xyz
  x,y,z
_cell_length_a	6.817900
_cell_length_b	11.102183
_cell_length_c	12.200875
_cell_angle_alpha	92.492789
_cell_angle_beta	107.143593
_cell_angle_gamma	108.603876
loop_
_atom_site_label
_atom_site_type_symbol
_atom_site_fract_x
_atom_site_fract_y
_atom_site_fract_z
V1	V	-4.094459	-0.176127	-0.357659
O2	O	-4.053827	0.008167	-0.350853
O3	O	-4.071342	-0.348945	-0.355211
O4	O	-4.063799	-0.173548	-0.513647
O5	O	-4.061422	-0.168444	-0.191319
V6	V	-4.572512	-0.154068	-0.337764
O7	O	-4.367716	-0.224516	-0.401301
O8	O	-4.749452	-0.105680	-0.294122
O9	O	-4.372422	0.018750	-0.340212
O10	O	-4.730540	-0.338362	-0.344570
O11	O	-4.722945	-0.161751	-0.504103
O12	O	-4.379965	-0.156647	-0.181775
C13	C	-3.921919	-0.391070	-0.349568
C14	C	-3.984423	-0.532352	-0.348606
C15	C	-3.874090	-0.495905	-0.138500
C16	C	-3.848285	-0.544055	-0.032999
C17	C	-3.907021	-0.676802	-0.032102
C18	C	-3.991575	-0.761404	-0.136716
C19	C	-4.017381	-0.713254	-0.242217
C20	C	-3.958631	-0.580502	-0.243103
C21	C	-4.127728	-0.749702	-0.452321
C22	C	-4.068978	-0.616954	-0.453221
C23	C	-4.212282	-0.834304	-0.556936
C24	C	-4.238075	-0.786154	-0.662439
C25	C	-4.179330	-0.653398	-0.663332
C26	C	-4.094784	-0.568804	-0.558722
C27	C	-3.912296	-0.167333	-0.551668
C28	C	-3.968679	-0.166368	-0.679189
C29	C	-4.071869	-0.164603	-0.912664
C30	C	-4.014439	-0.165584	-0.782742
C31	C	-4.185187	0.060868	-0.345851
C32	C	-4.101922	0.202148	-0.346821
C33	C	-4.194809	-0.162867	-0.143749
C34	C	-4.117664	-0.163825	-0.016226
H35	H	-3.886012	-0.716004	0.053806
H36	H	-4.039422	-0.869494	-0.135977
H37	H	-3.779441	-0.475158	0.052176
C38	C	-4.276263	-0.978476	-0.556211
C39	C	-4.355871	-1.042257	-0.670405
C40	C	-4.414842	-1.175070	-0.669786
H41	H	-4.151763	-0.997798	-0.513635
H42	H	-4.386806	-1.005986	-0.520919
H43	H	-4.245336	-1.014757	-0.705681
H44	H	-4.480388	-1.022973	-0.713001
H45	H	-4.525386	-1.202580	-0.634494
H46	H	-4.290333	-1.194378	-0.627206
H47	H	-4.468881	-1.218362	-0.747265
C48	C	-4.329944	-0.877800	-0.776136
C49	C	-4.340013	-0.807227	-0.868725
C50	C	-4.424662	-0.891614	-0.973481
H51	H	-4.237747	-0.926248	-0.776663
H52	H	-4.472766	-0.934458	-0.783871
H53	H	-4.197214	-0.750592	-0.860992
H54	H	-4.432220	-0.758783	-0.868235
H55	H	-4.567484	-0.948272	-0.981216
H56	H	-4.332456	-0.940057	-0.973997
H57	H	-4.431524	-0.843744	-1.036316
H58	H	-4.200376	-0.614205	-0.749245
C59	C	-4.031035	-0.424715	-0.559929
C60	C	-4.071684	-0.400646	-0.674708
C61	C	-4.012963	-0.267925	-0.675859
H62	H	-4.114848	-0.391952	-0.525061
H63	H	-3.879789	-0.383775	-0.517730
H64	H	-4.222904	-0.441570	-0.716890
H65	H	-3.987875	-0.433379	-0.709597
H66	H	-3.861717	-0.226985	-0.633661
H67	H	-4.096782	-0.235173	-0.640987
H68	H	-4.040516	-0.251576	-0.753734
H69	H	-3.826199	-0.387811	-0.139219
