data_functionalizedCrystal
_audit_creation_method	'MofGen! by Chris Wilmer'
_symmetry_space_group_name_H-M	'P1'
_symmetry_Int_Tables_number	1
_symmetry_cell_setting	triclinic
loop_
_symmetry_equiv_pos_as_xyz
  x,y,z
_cell_length_a	10.540491
_cell_length_b	9.016244
_cell_length_c	19.288857
_cell_angle_alpha	90.004397
_cell_angle_beta	96.180612
_cell_angle_gamma	89.993079
loop_
_atom_site_label
_atom_site_type_symbol
_atom_site_fract_x
_atom_site_fract_y
_atom_site_fract_z
O1	O	-1.683746	0.123334	0.097720
O2	O	-1.314118	0.123341	0.106977
O3	O	-1.509618	0.123319	0.001288
O4	O	-1.488247	0.123355	0.203409
O5	O	-1.509589	-0.123361	0.001290
O6	O	-1.314090	-0.123340	0.106980
O7	O	-1.683717	-0.123347	0.097722
Cu8	Cu	-1.498901	-0.145867	0.102351
Cu9	Cu	-1.498935	0.145861	0.102348
O10	O	-1.488218	-0.123325	0.203411
C11	C	-1.266815	0.000001	0.106291
C12	C	-1.125910	0.000003	0.104236
C13	C	-0.906813	0.000586	0.177661
C14	C	-1.053361	0.000019	0.179854
C15	C	-1.081998	-0.140866	0.065531
C16	C	-0.935273	-0.140974	0.063873
C17	C	-0.935535	0.139548	0.062296
C18	C	-1.081797	0.141400	0.065877
N19	N	-1.498887	-0.351053	0.102353
C20	C	-1.393995	-0.586075	0.158700
C21	C	-1.394219	-0.414183	0.158911
C22	C	-1.631245	-0.413391	0.118827
C23	C	-1.630670	-0.585336	0.119226
C24	C	-1.472743	-0.585609	0.029346
C25	C	-1.469687	-0.413655	0.029820
C26	C	-0.731018	-0.000000	0.098417
C27	C	-0.871917	0.000018	0.100501
C28	C	-1.508917	-0.000022	-0.024592
C29	C	-1.506858	-0.000027	-0.101709
N30	N	-1.498959	0.351047	0.102341
C31	C	-1.505913	0.134439	-0.137927
C32	C	-1.503960	0.134450	-0.210386
C33	C	-1.502978	-0.000012	-0.246626
C34	C	-1.503916	-0.134496	-0.210398
C35	C	-1.505856	-0.134503	-0.137940
C36	C	-1.574240	-0.103020	-0.366387
C37	C	-1.572308	-0.103007	-0.438845
C38	C	-1.496988	0.000005	-0.470111
C39	C	-1.423616	0.103029	-0.428912
C40	C	-1.425556	0.103021	-0.356453
C41	C	-1.500873	-0.000019	-0.325195
C42	C	-1.493923	0.134492	-0.584897
C43	C	-1.491962	0.134497	-0.657357
C44	C	-1.491931	-0.134453	-0.657369
C45	C	-1.493879	-0.134454	-0.584909
C46	C	-1.494881	0.000022	-0.548679
C47	C	-1.488918	0.000020	0.229291
C48	C	-1.490978	0.000034	0.306409
H49	H	-1.109799	0.245614	0.094038
Cl50	Cl	-1.754685	-0.350260	0.057181
H51	H	-1.491185	0.244000	-0.686844
H52	H	-0.862640	-0.099857	0.206952
H53	H	-1.654967	-0.370304	0.171480
Cl54	Cl	-1.159448	0.154514	-0.019363
H55	H	-1.653835	-0.625415	0.172481
H56	H	-1.494731	0.243991	-0.555396
Cl57	Cl	-1.490689	-0.303494	-0.702920
H58	H	-1.506621	-0.244005	-0.108451
Cl59	Cl	-0.903296	0.141001	-0.025355
Cl60	Cl	-0.841041	0.156564	0.223149
Cl61	Cl	-1.326987	-0.652639	0.005147
Cl62	Cl	-1.096157	-0.156143	0.226885
H63	H	-1.506724	0.243941	-0.108432
H64	H	-1.082042	0.101004	0.210133
H65	H	-1.503182	0.243952	-0.239880
H66	H	-1.632056	-0.186890	-0.472385
Cl67	Cl	-1.333317	0.232524	-0.304662
H68	H	-1.112241	-0.245693	0.092412
H69	H	-0.894454	-0.246266	0.090329
H70	H	-1.372326	-0.372914	0.017332
H71	H	-1.130632	-0.146116	0.009863
H72	H	-1.711194	-0.626926	0.079831
Cl73	Cl	-0.901712	-0.150956	-0.023438
Cl74	Cl	-0.869059	0.304399	0.099121
H75	H	-1.295822	-0.372040	0.149000
H76	H	-1.295285	-0.627468	0.148941
H77	H	-1.541197	-0.370688	-0.014133
H78	H	-1.362283	0.186911	-0.454366
Cl79	Cl	-1.419427	-0.652712	0.241843
H80	H	-1.549293	-0.626270	-0.012601
Cl81	Cl	-1.419937	-0.350631	0.242531
H82	H	-1.494660	-0.243951	-0.555421
H83	H	-1.635574	-0.186916	-0.340937
Cl84	Cl	-1.502672	-0.303535	-0.255955
