data_functionalizedCrystal
_audit_creation_method	'MofGen! by Chris Wilmer'
_symmetry_space_group_name_H-M	'P1'
_symmetry_Int_Tables_number	1
_symmetry_cell_setting	triclinic
loop_
_symmetry_equiv_pos_as_xyz
  x,y,z
_cell_length_a	14.185569
_cell_length_b	9.065215
_cell_length_c	9.065218
_cell_angle_alpha	94.984675
_cell_angle_beta	76.648261
_cell_angle_gamma	76.646438
loop_
_atom_site_label
_atom_site_type_symbol
_atom_site_fract_x
_atom_site_fract_y
_atom_site_fract_z
O1	O	-0.083397	-1.927388	0.249337
O2	O	-0.083402	-1.498100	0.267090
O3	O	-0.083397	-1.721618	0.043570
O4	O	-0.083402	-1.703870	0.472857
O5	O	0.083439	-1.787647	-0.022453
O6	O	0.083434	-1.564129	0.201067
O7	O	0.083439	-1.993417	0.183314
Cu8	Cu	0.098670	-1.784802	0.186162
Cu9	Cu	-0.098633	-1.706715	0.264242
O10	O	0.083434	-1.769899	0.406834
C11	C	0.000015	-1.476128	0.232374
C12	C	0.000013	-1.312284	0.227276
N13	N	0.237442	-1.839735	0.131245
N14	N	-0.237405	-1.651794	0.319148
C15	C	0.605085	-1.490399	0.480431
C16	C	0.710107	-1.532020	0.438842
C17	C	0.710072	-1.729987	0.240990
C18	C	0.605048	-1.688377	0.282558
C19	C	0.552562	-1.568584	0.402280
C20	C	0.552525	-1.766562	0.204407
C21	C	0.447510	-1.724960	0.245978
C22	C	0.395017	-1.605174	0.365698
C23	C	0.447547	-1.526982	0.443851
C24	C	0.605013	-1.886362	0.084692
C25	C	0.552490	-1.964547	0.006542
C26	C	0.447473	-1.922938	0.048105
C27	C	0.394980	-1.803152	0.167825
C28	C	0.394943	-2.001131	-0.030048
C29	C	0.289928	-1.959529	0.011522
C30	C	0.289965	-1.761551	0.209395
C31	C	0.000019	-1.752927	-0.044427
C32	C	0.000014	-1.747825	-0.208268
C33	C	0.000019	-1.015388	0.218031
C34	C	0.000013	-1.179229	0.223131
C35	C	0.000016	-1.738590	0.494832
C36	C	0.000014	-1.743689	0.658676
H37	H	0.247229	-1.663992	0.306875
H38	H	0.404811	-1.429423	0.541330
Cl39	Cl	0.539099	-1.339781	0.630928
H40	H	0.309507	-1.571308	0.399548
Cl41	Cl	0.776128	-1.433716	0.537111
H42	H	0.752818	-1.827529	0.143514
H43	H	0.690523	-1.920234	0.050856
Cl44	Cl	0.618479	-2.115144	-0.143959
Cl45	Cl	0.460935	-2.151739	-0.180536
H46	H	0.247163	-2.023197	-0.052115
