data_functionalizedCrystal
_audit_creation_method	'MofGen! by Chris Wilmer'
_symmetry_space_group_name_H-M	'P1'
_symmetry_Int_Tables_number	1
_symmetry_cell_setting	triclinic
loop_
_symmetry_equiv_pos_as_xyz
  x,y,z
_cell_length_a	9.065215
_cell_length_b	9.065218
_cell_length_c	7.540329
_cell_angle_alpha	89.996962
_cell_angle_beta	90.000176
_cell_angle_gamma	94.984675
loop_
_atom_site_label
_atom_site_type_symbol
_atom_site_fract_x
_atom_site_fract_y
_atom_site_fract_z
O1	O	-0.216355	1.960396	-0.147472
O2	O	0.283645	2.460396	0.352528
O3	O	-0.234101	1.531111	-0.147473
O4	O	0.265899	2.031111	0.352527
O5	O	-0.010585	1.754629	-0.147476
O6	O	0.489415	2.254629	0.352524
O7	O	-0.439871	1.736878	-0.147469
O8	O	0.060129	2.236878	0.352531
O9	O	-0.010583	1.754616	0.147489
O10	O	0.489417	2.254616	0.647489
O11	O	-0.234098	1.531098	0.147492
O12	O	0.265902	2.031098	0.647492
O13	O	-0.216352	1.960383	0.147493
O14	O	0.283648	2.460383	0.647493
Cu15	Cu	-0.225225	1.745739	0.174425
Cu16	Cu	0.274775	2.245739	0.674425
Cu17	Cu	-0.225228	1.745755	-0.174405
Cu18	Cu	0.274772	2.245755	0.325595
O19	O	-0.439868	1.736865	0.147496
O20	O	0.060132	2.236865	0.647496
C21	C	-0.232394	1.476118	0.000009
C22	C	0.267606	1.976118	0.500009
C23	C	-0.227295	1.312275	0.000008
C24	C	0.272705	1.812275	0.500008
C25	C	0.044403	1.752917	0.000002
C26	C	0.544403	2.252917	0.500002
C27	C	0.208246	1.747819	-0.000012
C28	C	0.708246	2.247819	0.499988
C29	C	0.505144	1.738577	0.000001
C30	C	1.005144	2.238577	0.500001
C31	C	0.341301	1.743674	-0.000035
C32	C	0.841301	2.243674	0.499965
C33	C	-0.218059	2.015376	0.000007
C34	C	0.281941	2.515376	0.500007
C35	C	-0.223159	2.179219	-0.000003
C36	C	0.276841	2.679219	0.499997
N37	N	-0.225222	1.745739	0.419774
N38	N	0.274778	2.245739	0.919774
N39	N	-0.225220	1.745767	-0.419754
N40	N	0.274780	2.245767	0.080246
