data_functionalizedCrystal
_audit_creation_method	'MofGen! by Chris Wilmer'
_symmetry_space_group_name_H-M	'P1'
_symmetry_Int_Tables_number	1
_symmetry_cell_setting	triclinic
loop_
_symmetry_equiv_pos_as_xyz
  x,y,z
_cell_length_a	13.262522
_cell_length_b	23.532407
_cell_length_c	12.376457
_cell_angle_alpha	101.196071
_cell_angle_beta	63.170097
_cell_angle_gamma	83.668652
loop_
_atom_site_label
_atom_site_type_symbol
_atom_site_fract_x
_atom_site_fract_y
_atom_site_fract_z
O1	O	1.512232	0.012083	-0.558919
O2	O	1.184892	0.032058	-0.458292
O3	O	1.358425	-0.061158	-0.511606
O4	O	1.338698	0.105299	-0.505605
O5	O	1.315058	-0.037884	-0.310270
O6	O	1.141524	0.055332	-0.256956
O7	O	1.468864	0.035357	-0.357583
Zn8	Zn	1.298309	0.049039	-0.275303
Zn9	Zn	1.355447	0.018375	-0.540572
O10	O	1.295331	0.128573	-0.304269
C11	C	1.121337	0.044716	-0.344752
C12	C	0.996574	0.047751	-0.306397
C13	C	1.336237	-0.070721	-0.410777
C14	C	1.334722	-0.133890	-0.410295
C15	C	0.914327	0.061865	-0.178624
C16	C	0.797105	0.064713	-0.142578
C17	C	0.762119	0.053451	-0.234303
C18	C	0.844366	0.039340	-0.362079
C19	C	0.961600	0.036488	-0.398128
C20	C	0.809392	0.028073	-0.453807
C21	C	0.891639	0.013963	-0.581583
C22	C	1.008861	0.011112	-0.617627
C23	C	1.043848	0.022374	-0.525902
C24	C	0.692158	0.030925	-0.417758
C25	C	0.739432	0.005548	-0.637262
C26	C	0.856653	0.002701	-0.673308
C27	C	1.225807	-0.396748	-0.376884
C28	C	1.227209	-0.337389	-0.377306
O29	O	1.140804	-0.298016	-0.350780
N30	N	1.330376	-0.317904	-0.409007
C31	C	1.432151	-0.357783	-0.440301
O32	O	1.520031	-0.335759	-0.467305
C33	C	1.430749	-0.417141	-0.439887
C34	C	1.327573	-0.436621	-0.408171
C35	C	1.122639	-0.416228	-0.345172
C36	C	1.121237	-0.475582	-0.344747
C37	C	1.223003	-0.515456	-0.376035
C38	C	1.326171	-0.495975	-0.407747
C39	C	1.532524	-0.457020	-0.471189
C40	C	1.531114	-0.516382	-0.470773
C41	C	1.427938	-0.535861	-0.439057
C42	C	1.426534	-0.595203	-0.438610
N43	N	1.323367	-0.614688	-0.406908
C44	C	1.221602	-0.574814	-0.375621
C45	C	1.435086	-0.233126	-0.441170
C46	C	1.436487	-0.173768	-0.441576
C47	C	1.231545	-0.153378	-0.378583
C48	C	1.230144	-0.212737	-0.378169
C49	C	1.331919	-0.252611	-0.409469
C50	C	1.218665	-0.699463	-0.374731
C51	C	1.217271	-0.758823	-0.374304
C52	C	1.422213	-0.779208	-0.437303
C53	C	1.423606	-0.719853	-0.437724
C54	C	1.321824	-0.679981	-0.406439
O55	O	1.512896	-0.634610	-0.465127
O56	O	1.133739	-0.596849	-0.348637
C57	C	1.532420	0.022698	-0.471126
C58	C	1.657184	0.019662	-0.509489
C59	C	1.317519	0.138136	-0.405101
C60	C	1.319036	0.201304	-0.405592
N61	N	1.259321	0.069966	-0.094267
N62	N	1.394444	-0.002556	-0.721611
C63	C	1.484947	-0.051145	0.191400
C64	C	1.512228	-0.065792	0.064679
C65	C	1.449003	-0.031854	0.024936
C66	C	1.358493	0.016734	0.111927
C67	C	1.331215	0.031385	0.238659
C68	C	1.295272	0.050676	0.072195
C69	C	1.204762	0.099264	0.159186
C70	C	1.177488	0.113912	0.285905
C71	C	1.240713	0.079974	0.325648
C72	C	1.322550	0.036025	-0.054537
C73	C	1.168818	0.118556	-0.007278
C74	C	1.141537	0.133202	0.119443
H75	H	0.625202	0.042419	-0.313721
O76	O	1.053552	0.180403	0.203797
C77	C	1.003609	0.207229	0.141554
H78	H	1.022046	0.173474	0.051535
H79	H	0.905870	0.223115	0.205809
H80	H	1.042523	0.246789	0.116987
O81	O	1.107479	0.151450	-0.046070
C82	C	1.150980	0.128109	-0.176579
H83	H	1.197216	0.079426	-0.206941
H84	H	1.076161	0.131695	-0.198544
H85	H	1.214738	0.154332	-0.229785
O86	O	1.475589	-0.045996	-0.098187
C87	C	1.506904	0.002439	-0.147381
H88	H	1.537546	0.031606	-0.088624
H89	H	1.579887	-0.014840	-0.248994
H90	H	1.428603	0.029714	-0.144308
H91	H	1.613995	-0.548847	-0.496268
O92	O	1.632677	-0.438054	-0.501786
C93	C	1.617181	-0.392280	-0.399666
H94	H	1.542915	-0.395959	-0.308772
H95	H	1.700296	-0.396593	-0.392548
H96	H	1.595804	-0.347276	-0.415101
H97	H	1.585921	-0.105351	-0.006146
O98	O	0.648203	0.056339	-0.199197
C99	C	0.582829	0.113983	-0.122860
H100	H	0.641543	0.146865	-0.142754
H101	H	0.510115	0.127131	-0.144637
H102	H	0.543966	0.114565	-0.019463
O103	O	1.546208	-0.084060	0.230227
C104	C	1.502745	-0.060698	0.360724
H105	H	1.409420	-0.034454	0.405579
H106	H	1.505369	-0.098684	0.404918
H107	H	1.558298	-0.030066	0.377199
H108	H	0.923635	-0.008788	-0.777345
O109	O	1.410328	-0.011252	-0.138899
C110	C	1.385978	-0.063438	-0.102385
H111	H	1.288486	-0.056695	-0.039893
H112	H	1.417169	-0.102113	-0.189750
H113	H	1.432588	-0.073707	-0.047988
O114	O	1.021030	-0.494497	-0.314157
C115	C	0.981497	-0.485808	-0.399362
H116	H	1.057549	-0.483877	-0.490785
H117	H	0.941622	-0.524253	-0.419804
H118	H	0.913354	-0.442268	-0.356397
O119	O	0.717359	0.078455	-0.018410
C120	C	0.773375	0.087771	0.054818
H121	H	0.859014	0.100198	-0.001568
H122	H	0.715532	0.125347	0.144267
H123	H	0.790874	0.045302	0.080971
O124	O	1.534046	-0.271773	-0.471537
C125	C	1.625400	-0.241843	-0.499633
H126	H	1.588134	-0.192141	-0.452577
H127	H	1.684071	-0.259370	-0.463084
H128	H	1.677865	-0.249815	-0.605952
H129	H	1.520499	-0.157912	-0.467383
H130	H	1.218498	0.091897	0.428835
O131	O	1.089432	0.161055	0.370399
C132	C	0.984943	0.151898	0.373608
H133	H	0.992401	0.102277	0.338807
H134	H	0.910524	0.169951	0.474318
H135	H	0.967410	0.176061	0.310297
O136	O	1.523901	-0.700977	-0.468750
C137	C	1.608358	-0.733741	-0.592070
H138	H	1.563709	-0.752513	-0.646394
H139	H	1.663298	-0.703375	-0.641652
H140	H	1.666361	-0.771828	-0.587886
O141	O	1.157774	0.019503	-0.561066
C142	C	1.223163	-0.038149	-0.637327
H143	H	1.173840	-0.060491	-0.682005
H144	H	1.310236	-0.035119	-0.714473
H145	H	1.238289	-0.065457	-0.577171
O146	O	0.948477	0.072713	-0.089658
C147	C	1.028125	0.022083	-0.107992
H148	H	1.070621	-0.005940	-0.210034
H149	H	1.097580	0.036629	-0.085989
H150	H	0.980581	-0.005380	-0.042780
H151	H	0.710948	-0.003621	-0.711952
O152	O	1.116953	-0.777653	-0.343522
C153	C	1.027432	-0.729724	-0.315973
H154	H	1.066689	-0.694804	-0.363627
H155	H	0.967951	-0.746490	-0.352276
H156	H	0.975266	-0.709121	-0.209742
O157	O	1.088842	-0.002515	-0.741702
C158	C	1.144769	0.044814	-0.765067
H159	H	1.137387	0.071982	-0.673826
H160	H	1.240192	0.026253	-0.837780
H161	H	1.101956	0.074476	-0.802490
H162	H	1.505066	-0.811683	-0.462771
H163	H	1.135784	-0.667006	-0.349256
H164	H	1.039765	-0.383768	-0.319696
H165	H	1.148682	-0.120902	-0.353106
O166	O	1.129835	-0.231566	-0.347395
C167	C	1.040315	-0.183634	-0.319836
H168	H	1.079574	-0.148712	-0.367480
H169	H	0.980834	-0.200395	-0.356144
H170	H	0.988150	-0.163036	-0.213604
