data_functionalizedCrystal
_audit_creation_method	'MofGen! by Chris Wilmer'
_symmetry_space_group_name_H-M	'P1'
_symmetry_Int_Tables_number	1
_symmetry_cell_setting	triclinic
loop_
_symmetry_equiv_pos_as_xyz
  x,y,z
_cell_length_a	18.101398
_cell_length_b	12.759400
_cell_length_c	12.759393
_cell_angle_alpha	90.030452
_cell_angle_beta	89.981883
_cell_angle_gamma	89.986852
loop_
_atom_site_label
_atom_site_type_symbol
_atom_site_fract_x
_atom_site_fract_y
_atom_site_fract_z
Zn1	Zn	-1.132233	-0.418255	0.593941
Zn2	Zn	-1.132157	-0.593971	0.418262
Zn3	Zn	-1.008384	-0.418302	0.418285
Zn4	Zn	-1.008379	-0.593889	0.593907
O5	O	-1.070288	-0.506104	0.506099
O6	O	-1.235856	-0.441579	0.570641
O7	O	-1.115708	-0.570722	0.271244
O8	O	-1.024847	-0.271275	0.441610
O9	O	-1.235800	-0.570677	0.441570
O10	O	-1.115839	-0.271241	0.570664
O11	O	-1.024773	-0.441659	0.271261
O12	O	-0.904751	-0.441579	0.441577
O13	O	-1.024838	-0.570536	0.740933
O14	O	-0.904747	-0.570582	0.570606
O15	O	-1.115834	-0.441499	0.740958
O16	O	-1.115703	-0.740981	0.441537
O17	O	-1.024764	-0.740921	0.570584
C18	C	-0.877878	-0.506077	0.506091
C19	C	-0.795564	-0.506091	0.506113
C20	C	-1.070245	-0.779072	0.506077
C21	C	-1.070294	-0.895848	0.506103
C22	C	-0.644855	-0.506112	0.506111
C23	C	-0.613524	-0.587403	0.587167
C24	C	-0.527906	-0.587733	0.586927
C25	C	-0.496473	-0.506133	0.506111
C26	C	-0.527526	-0.535690	0.395256
C27	C	-0.613171	-0.536268	0.395724
C28	C	-0.613313	-0.395064	0.534944
C29	C	-0.527663	-0.395673	0.537385
C30	C	-0.412613	-0.506143	0.506105
C31	C	-0.728715	-0.506105	0.506111
C32	C	-0.263450	-0.506135	0.506107
C33	C	-0.345764	-0.506154	0.506110
C34	C	-1.117744	-1.060438	0.439016
C35	C	-1.117699	-0.950714	0.438983
C36	C	-1.022924	-0.950712	0.573252
C37	C	-1.022966	-1.060434	0.573279
C38	C	-1.070344	-0.506003	0.780132
C39	C	-1.070367	-0.505960	0.896909
C40	C	-1.070352	-0.232071	0.506144
C41	C	-1.070379	-0.115294	0.506163
C42	C	-1.070276	-0.506129	0.233131
C43	C	-1.070396	-0.505876	0.116355
C44	C	-1.117752	-0.438760	0.951786
C45	C	-1.117765	-0.438715	1.061510
C46	C	-1.023006	-0.573079	1.061471
C47	C	-1.022990	-0.573118	0.951749
H48	H	-0.506911	-0.569293	0.669111
H49	H	-0.984434	-0.627759	1.106135
N50	N	-1.168866	-1.119617	0.366616
H51	H	-1.203189	-1.165073	0.409359
H52	H	-1.198814	-1.068151	0.324083
N53	N	-0.499333	-0.311205	0.464944
H54	H	-0.465730	-0.343489	0.410582
H55	H	-0.542427	-0.276097	0.428979
H56	H	-1.156267	-0.906053	0.384306
H57	H	-0.984322	-0.906034	0.627899
N58	N	-0.971871	-1.119611	0.645696
H59	H	-0.941831	-1.068210	0.688213
H60	H	-1.002013	-1.165069	0.694363
H61	H	-1.156328	-0.384073	0.907138
N62	N	-0.640812	-0.563248	0.696380
H63	H	-0.673754	-0.499381	0.694378
H64	H	-0.669670	-0.625055	0.724072
N65	N	-1.168864	-0.366223	1.120699
H66	H	-1.198870	-0.323684	1.069306
H67	H	-1.203132	-0.408968	1.166231
N68	N	-0.639609	-0.643772	0.363444
H69	H	-0.620350	-0.697715	0.414497
H70	H	-0.695395	-0.645131	0.363413
H71	H	-0.984398	-0.627840	0.907067
N72	N	-0.642002	-0.695786	0.562146
H73	H	-0.675111	-0.692458	0.498534
H74	H	-0.598945	-0.743933	0.547360
N75	N	-0.500737	-0.696733	0.561576
H76	H	-0.444942	-0.697401	0.561315
H77	H	-0.519536	-0.747431	0.616175
N78	N	-0.640631	-0.461229	0.312957
H79	H	-0.621869	-0.484073	0.241973
H80	H	-0.696425	-0.461057	0.312709
N81	N	-0.500559	-0.459665	0.313063
H82	H	-0.444809	-0.461350	0.310258
H83	H	-0.521247	-0.480208	0.242480
N84	N	-0.499090	-0.642016	0.362409
H85	H	-0.466101	-0.671191	0.419167
H86	H	-0.542173	-0.690947	0.350819
N87	N	-0.641952	-0.359289	0.640214
H88	H	-0.675668	-0.414712	0.670282
H89	H	-0.599006	-0.347493	0.689333
H90	H	-0.633575	-0.334504	0.475912
H91	H	-0.507370	-0.373377	0.618969
