data_functionalizedCrystal
_audit_creation_method	'MofGen! by Chris Wilmer'
_symmetry_space_group_name_H-M	'P1'
_symmetry_Int_Tables_number	1
_symmetry_cell_setting	triclinic
loop_
_symmetry_equiv_pos_as_xyz
  x,y,z
_cell_length_a	10.654562
_cell_length_b	19.188924
_cell_length_c	9.130313
_cell_angle_alpha	89.996698
_cell_angle_beta	89.996930
_cell_angle_gamma	83.816034
loop_
_atom_site_label
_atom_site_type_symbol
_atom_site_fract_x
_atom_site_fract_y
_atom_site_fract_z
O1	O	1.665745	0.098101	-0.121903
O2	O	1.300070	0.107435	-0.121886
O3	O	1.493464	0.001181	-0.121878
O4	O	1.472350	0.204355	-0.121911
O5	O	1.493462	0.001184	0.121721
O6	O	1.300068	0.107438	0.121713
O7	O	1.665742	0.098104	0.121696
Cu8	Cu	1.482905	0.102771	0.143947
Cu9	Cu	1.482908	0.102768	-0.144137
O10	O	1.472348	0.204357	0.121688
C11	C	1.253286	0.106749	-0.000084
C12	C	1.113887	0.104693	-0.000076
C13	C	1.048375	0.103736	0.132698
C14	C	0.917394	0.101809	0.132674
C15	C	0.917447	0.101801	-0.132911
C16	C	1.048427	0.103722	-0.132885
C17	C	1.048343	0.103744	0.286032
C18	C	0.917362	0.101817	0.286007
C19	C	1.492781	-0.024833	-0.000077
C20	C	1.490733	-0.102351	-0.000073
C21	C	1.489778	-0.138758	-0.132859
C22	C	1.487836	-0.211593	-0.132870
C23	C	1.486873	-0.248021	-0.000087
C24	C	1.487821	-0.211605	0.132716
C25	C	1.489751	-0.138770	0.132724
N26	N	1.555305	-0.367234	0.098736
N27	N	1.553474	-0.436424	0.098720
C28	C	1.481057	-0.467468	-0.000101
N29	N	1.410554	-0.426709	-0.098928
N30	N	1.412391	-0.357513	-0.098917
C31	C	1.484780	-0.326998	-0.000080
C32	C	1.477994	-0.582851	-0.132908
C33	C	1.476044	-0.655688	-0.132914
C34	C	1.476042	-0.655699	0.132676
C35	C	1.477979	-0.582863	0.132678
C36	C	1.478961	-0.546444	-0.000118
C37	C	1.712527	0.098790	-0.000109
C38	C	1.851925	0.100846	-0.000126
C39	C	1.473031	0.230372	-0.000116
C40	C	1.475080	0.307890	-0.000130
N41	N	1.482912	0.102773	0.346570
N42	N	1.482910	0.102760	-0.346759
C43	C	1.568568	0.055740	0.423225
C44	C	1.568565	0.055732	0.576562
C45	C	1.397245	0.149795	0.576574
C46	C	1.397243	0.149800	0.423240
C47	C	1.667483	0.001435	0.423219
C48	C	1.667480	0.001427	0.576556
H49	H	1.076837	0.154663	0.333600
C50	C	1.477786	-0.590152	-0.395431
C51	C	1.479053	-0.542813	-0.278873
H52	H	1.478430	-0.565433	-0.485541
H53	H	1.550240	-0.623529	-0.389919
H54	H	1.403812	-0.613591	-0.389891
H55	H	1.553032	-0.519378	-0.284407
H56	H	1.406591	-0.509423	-0.284388
H57	H	0.864133	0.101011	-0.241039
C58	C	1.492707	-0.027126	0.250656
C59	C	1.490806	-0.098747	0.278692
H60	H	1.493353	-0.002417	0.340773
H61	H	1.566236	-0.020163	0.196105
H62	H	1.419808	-0.010223	0.196094
H63	H	1.563711	-0.115650	0.333244
H64	H	1.417270	-0.105714	0.333265
H65	H	1.475260	-0.685328	-0.241049
H66	H	0.888853	0.050900	0.333595
C67	C	0.945745	0.208395	0.413632
C68	C	0.853482	0.166957	0.365439
H69	H	0.906305	0.248610	0.462657
H70	H	1.001626	0.182028	0.479034
H71	H	0.991861	0.222658	0.331880
H72	H	0.807371	0.152689	0.447193
H73	H	0.797579	0.193329	0.300034
C74	C	1.082968	-0.021939	0.293214
C75	C	1.112189	0.038609	0.365516
H76	H	1.122391	-0.062148	0.342278
H77	H	0.994104	-0.023240	0.293205
H78	H	1.112613	-0.021496	0.195128
H79	H	1.082535	0.038168	0.463599
H80	H	1.201071	0.039910	0.365541
C81	C	1.377729	-0.286200	0.286775
C82	C	1.486761	-0.251643	0.278674
H83	H	1.377076	-0.310919	0.376884
H84	H	1.305281	-0.252818	0.281262
H85	H	1.376898	-0.318308	0.207682
H86	H	1.487588	-0.219531	0.357762
H87	H	1.559228	-0.285029	0.284202
H88	H	1.490574	-0.109110	-0.240992
H89	H	1.475249	-0.685357	0.240790
H90	H	1.487051	-0.241241	-0.241004
H91	H	1.478767	-0.553221	0.240807
H92	H	1.638042	-0.049286	0.624113
C93	C	1.870613	0.039458	0.473203
C94	C	1.790090	0.024387	0.358992
H95	H	1.946306	0.053624	0.433547
H96	H	1.830176	0.076165	0.531749
H97	H	1.889983	-0.001202	0.531754
H98	H	1.770712	0.065049	0.300446
H99	H	1.830535	-0.012323	0.300420
H100	H	1.101764	0.104491	-0.241003
C101	C	1.227894	0.242771	0.438661
C102	C	1.303079	0.201495	0.338979
H103	H	1.169764	0.274689	0.386638
H104	H	1.182900	0.213468	0.498466
H105	H	1.280030	0.268158	0.498465
H106	H	1.250944	0.176104	0.279181
H107	H	1.348076	0.230802	0.279148
H108	H	1.327495	0.188083	0.639016
H109	H	1.647178	-0.052229	0.381609
H110	H	1.763737	0.013392	0.618166
