data_functionalizedCrystal
_audit_creation_method	'MofGen! by Chris Wilmer'
_symmetry_space_group_name_H-M	'P1'
_symmetry_Int_Tables_number	1
_symmetry_cell_setting	triclinic
loop_
_symmetry_equiv_pos_as_xyz
  x,y,z
_cell_length_a	19.077068
_cell_length_b	19.077267
_cell_length_c	19.076919
_cell_angle_alpha	85.333063
_cell_angle_beta	94.470751
_cell_angle_gamma	90.063967
loop_
_atom_site_label
_atom_site_type_symbol
_atom_site_fract_x
_atom_site_fract_y
_atom_site_fract_z
Zn1	Zn	-0.337166	-1.047524	-0.369401
Zn2	Zn	0.162834	-0.547524	0.130599
Zn3	Zn	-0.450316	-1.047437	-0.256249
Zn4	Zn	0.049684	-0.547437	0.243751
Zn5	Zn	-0.328092	-0.934761	-0.255885
Zn6	Zn	0.171908	-0.434761	0.244115
Zn7	Zn	-0.450276	-0.924869	-0.378825
Zn8	Zn	0.049724	-0.424869	0.121175
O9	O	-0.391462	-0.988648	-0.315090
O10	O	0.108538	-0.488648	0.184910
O11	O	-0.355990	-1.145999	-0.350599
O12	O	0.144010	-0.645999	0.149401
O13	O	-0.430322	-1.036593	-0.157395
O14	O	0.069678	-0.536593	0.342605
O15	O	-0.230808	-0.953896	-0.266847
O16	O	0.269192	-0.453896	0.233153
O17	O	-0.439120	-1.145935	-0.267467
O18	O	0.060880	-0.645935	0.232533
O19	O	-0.237474	-1.036742	-0.350246
O20	O	0.262526	-0.536742	0.149754
O21	O	-0.340525	-0.953811	-0.157128
O22	O	0.159475	-0.453811	0.342872
O23	O	-0.340486	-0.834963	-0.275985
O24	O	0.159514	-0.334963	0.224015
O25	O	-0.439052	-0.937037	-0.476380
O26	O	0.060948	-0.437037	0.023620
O27	O	-0.430254	-0.827695	-0.366309
O28	O	0.069746	-0.327695	0.133691
O29	O	-0.355951	-1.027150	-0.469456
O30	O	0.144049	-0.527150	0.030544
O31	O	-0.548798	-1.027002	-0.276605
O32	O	-0.048798	-0.527002	0.223395
O33	O	-0.548769	-0.936952	-0.366662
O34	O	-0.048769	-0.436952	0.133338
C35	C	-0.384381	-0.805793	-0.322130
C36	C	0.115619	-0.305793	0.177870
C37	C	-0.381370	-0.727565	-0.325160
C38	C	0.118630	-0.227565	0.174840
C39	C	-0.423161	-0.690783	-0.283230
C40	C	0.076839	-0.190783	0.216770
C41	C	-0.420332	-0.617280	-0.286086
C42	C	0.079668	-0.117280	0.213914
C43	C	-0.375707	-0.580559	-0.330868
C44	C	0.124293	-0.080559	0.169132
C45	C	-0.333914	-0.617346	-0.372803
C46	C	0.166086	-0.117346	0.127197
C47	C	-0.336748	-0.690848	-0.369950
C48	C	0.163252	-0.190848	0.130050
C49	C	-0.362603	-0.360735	-0.344052
C50	C	0.137397	0.139265	0.155948
C51	C	-0.359772	-0.287228	-0.346900
C52	C	0.140228	0.212772	0.153100
C53	C	-0.446190	-0.287166	-0.260184
C54	C	0.053810	0.212834	0.239816
C55	C	-0.449016	-0.360670	-0.257332
C56	C	0.050984	0.139330	0.242668
C57	C	-0.407226	-0.397450	-0.299269
C58	C	0.092774	0.102550	0.200731
N59	N	-0.372813	-0.505427	-0.333787
N60	N	0.127187	-0.005427	0.166213
N61	N	-0.410125	-0.472581	-0.296354
N62	N	0.089875	0.027419	0.203646
C63	C	-0.574322	-0.980913	-0.322710
C64	C	-0.074322	-0.480913	0.177290
C65	C	-0.652553	-0.977667	-0.325991
C66	C	-0.152553	-0.477667	0.174009
C67	C	-0.689301	-1.023059	-0.280681
C68	C	-0.189301	-0.523059	0.219319
C69	C	-0.762808	-1.020010	-0.283771
C70	C	-0.262808	-0.520010	0.216229
C71	C	-0.799566	-0.971565	-0.332168
C72	C	-0.299566	-0.471565	0.167832
C73	C	-0.762813	-0.926171	-0.377483
C74	C	-0.262813	-0.426171	0.122517
C75	C	-0.689307	-0.929223	-0.374396
C76	C	-0.189307	-0.429223	0.125604
C77	C	-1.019404	-0.957407	-0.346429
C78	C	-0.519404	-0.457407	0.153571
C79	C	-1.092915	-0.954356	-0.349511
C80	C	-0.592915	-0.454356	0.150489
C81	C	-1.092905	-1.048197	-0.255799
C82	C	-0.592905	-0.548197	0.244201
C83	C	-1.019398	-1.051243	-0.252714
C84	C	-0.519398	-0.551243	0.247286
C85	C	-0.982652	-1.005851	-0.298031
C86	C	-0.482652	-0.505851	0.201969
N87	N	-0.874702	-0.968446	-0.335327
N88	N	-0.374702	-0.468446	0.164673
N89	N	-0.907518	-1.008974	-0.294876
N90	N	-0.407518	-0.508974	0.205124
C91	C	-0.207890	-0.996432	-0.307455
C92	C	0.292110	-0.496432	0.192545
C93	C	-0.129663	-0.999749	-0.304201
C94	C	0.370337	-0.499749	0.195799
C95	C	-0.398509	-0.981000	-0.499254
C96	C	0.101491	-0.481000	0.000746
C97	C	-0.401512	-0.977740	-0.577734
C98	C	0.098488	-0.477740	-0.077734
C99	C	-0.398562	-0.172218	-0.308012
C100	C	0.101438	0.327782	0.191988
C101	C	-0.401563	-0.250446	-0.304970
C102	C	0.098437	0.249554	0.195030
C103	C	-0.359658	-1.023124	-0.611000
C104	C	0.140342	-0.523124	-0.111000
C105	C	-0.362477	-1.020053	-0.684740
C106	C	0.137523	-0.520053	-0.184740
C107	C	-0.407153	-0.971602	-0.725213
C108	C	0.092847	-0.471602	-0.225213
C109	C	-0.449008	-0.926213	-0.691942
C110	C	0.050992	-0.426213	-0.191942
C111	C	-0.446186	-0.929281	-0.618203
C112	C	0.053814	-0.429281	-0.118203
C113	C	-0.420231	-0.957392	-0.946136
C114	C	0.079769	-0.457392	-0.446136
C115	C	-0.423052	-0.954329	-1.019879
C116	C	0.076948	-0.454329	-0.519879
C117	C	-0.336519	-1.048169	-1.012673
C118	C	0.163481	-0.548169	-0.512673
C119	C	-0.333703	-1.051235	-0.938933
C120	C	0.166297	-0.551235	-0.438933
C121	C	-0.375556	-1.005844	-0.905668
C122	C	0.124444	-0.505844	-0.405668
N123	N	-0.410037	-0.968463	-0.800587
N124	N	0.089963	-0.468463	-0.300587
N125	N	-0.372668	-1.008980	-0.830295
N126	N	0.127332	-0.508980	-0.330295
C127	C	-0.384394	-0.996309	-0.131639
C128	C	0.115606	-0.496309	0.368361
C129	C	-0.381198	-0.999713	-0.053146
C130	C	0.118802	-0.499713	0.446854
H131	H	-0.454362	-0.587335	-0.251943
H132	H	0.045638	-0.087335	0.248057
H133	H	-0.989491	-0.920446	-0.383326
H134	H	-0.489491	-0.420446	0.116674
H135	H	-0.297584	-0.587443	-0.409268
H136	H	0.202416	-0.087443	0.090732
C137	C	-0.803244	-0.872881	-0.430717
C138	C	-0.303244	-0.372881	0.069283
H139	H	-0.852284	-0.877557	-0.426062
H140	H	-0.352284	-0.377557	0.073938
H141	H	-0.793382	-0.881670	-0.477265
H142	H	-0.293382	-0.381670	0.022735
H143	H	-0.789013	-0.826530	-0.421655
H144	H	-0.289013	-0.326530	0.078345
H145	H	-0.302716	-0.720795	-0.404093
H146	H	0.197284	-0.220795	0.095907
H147	H	-0.485382	-0.886760	-0.724901
H148	H	0.014618	-0.386760	-0.224901
H149	H	-0.792725	-1.056973	-0.246875
H150	H	-0.292725	-0.556973	0.253125
H151	H	-0.989472	-1.090691	-0.213305
H152	H	-0.489472	-0.590691	0.286695
H153	H	-0.659388	-0.892261	-0.411293
H154	H	-0.159388	-0.392261	0.088707
H155	H	-0.459496	-0.720676	-0.246761
H156	H	0.040504	-0.220676	0.253239
C157	C	-0.290480	-1.098089	-1.049266
C158	C	0.209520	-0.598089	-0.549266
H159	H	-0.298553	-1.089321	-1.098978
H160	H	0.201447	-0.589321	-0.598978
H161	H	-0.302146	-1.145442	-1.035792
H162	H	0.197854	-0.645442	-0.535792
H163	H	-0.242329	-1.090290	-1.035609
H164	H	0.257671	-0.590290	-0.535609
C165	C	-1.133328	-1.098129	-0.205960
C166	C	-0.633328	-0.598129	0.294040
H167	H	-1.182370	-1.089378	-0.214732
H168	H	-0.682370	-0.589378	0.285268
H169	H	-1.119098	-1.090340	-0.158402
H170	H	-0.619098	-0.590340	0.341598
H171	H	-1.123462	-1.145481	-0.214011
H172	H	-0.623462	-0.645481	0.285989
H173	H	-1.122841	-0.914914	-0.388934
H174	H	-0.622841	-0.414914	0.111066
C175	C	-0.498102	-0.401057	-0.208070
C176	C	0.001898	0.098943	0.291930
H177	H	-0.522589	-0.368623	-0.183510
H178	H	-0.022589	0.131377	0.316490
H179	H	-0.471057	-0.432135	-0.175116
H180	H	0.028943	0.067865	0.324884
H181	H	-0.530950	-0.427323	-0.235197
H182	H	-0.030950	0.072677	0.264803
H183	H	-0.480214	-0.257212	-0.226043
H184	H	0.019786	0.242788	0.273957
C185	C	-0.310510	-1.076418	-0.566486
C186	C	0.189490	-0.576418	-0.066486
H187	H	-0.285982	-1.103001	-0.596863
H188	H	0.214018	-0.603001	-0.096863
H189	H	-0.337514	-1.107141	-0.537659
H190	H	0.162486	-0.607141	-0.037659
H191	H	-0.277699	-1.051985	-0.537484
H192	H	0.222301	-0.551985	-0.037484
C193	C	-0.472196	-0.901028	-1.064399
C194	C	0.027804	-0.401028	-0.564399
H195	H	-0.496714	-0.874430	-1.034027
H196	H	0.003286	-0.374430	-0.534027
H197	H	-0.505006	-0.925453	-1.093403
H198	H	-0.005006	-0.425453	-0.593403
H199	H	-0.445180	-0.870310	-1.093224
H200	H	0.054820	-0.370310	-0.593224
C201	C	-0.316441	-1.069979	-0.721330
C202	C	0.183559	-0.569979	-0.221330
H203	H	-0.289437	-1.099280	-0.686665
H204	H	0.210563	-0.599280	-0.186665
H205	H	-0.285831	-1.043165	-0.749855
H206	H	0.214169	-0.543165	-0.249855
H207	H	-0.345659	-1.098305	-0.750037
H208	H	0.154341	-0.598305	-0.250037
C209	C	-0.492243	-0.879376	-0.581610
C210	C	0.007757	-0.379376	-0.081610
H211	H	-0.519264	-0.850089	-0.616274
H212	H	-0.019264	-0.350089	-0.116274
H213	H	-0.463045	-0.851044	-0.552896
H214	H	0.036955	-0.351044	-0.052896
H215	H	-0.522848	-0.906213	-0.553093
H216	H	-0.022848	-0.406213	-0.053093
H217	H	-0.323427	-0.257333	-0.383365
H218	H	0.176573	0.242667	0.116635
H219	H	-0.297325	-1.090692	-0.905985
H220	H	0.202675	-0.590692	-0.405985
H221	H	-0.659378	-1.062506	-0.241268
H222	H	-0.159378	-0.562506	0.258732
H223	H	-0.454321	-0.920441	-0.919061
H224	H	0.045679	-0.420441	-0.419061
H225	H	-0.328576	-0.390673	-0.378201
H226	H	0.171424	0.109327	0.121799
