data_functionalizedCrystal
_audit_creation_method	'MofGen! by Chris Wilmer'
_symmetry_space_group_name_H-M	'P1'
_symmetry_Int_Tables_number	1
_symmetry_cell_setting	triclinic
loop_
_symmetry_equiv_pos_as_xyz
  x,y,z
_cell_length_a	12.759401
_cell_length_b	19.120786
_cell_length_c	12.759393
_cell_angle_alpha	92.477371
_cell_angle_beta	90.017451
_cell_angle_gamma	92.464298
loop_
_atom_site_label
_atom_site_type_symbol
_atom_site_fract_x
_atom_site_fract_y
_atom_site_fract_z
Zn1	Zn	1.588323	-0.279607	0.576098
Zn2	Zn	1.580691	-0.397084	0.392904
Zn3	Zn	1.412626	-0.279642	0.400435
Zn4	Zn	1.405087	-0.397027	0.568549
O5	O	1.496682	-0.338340	0.484496
O6	O	1.734331	-0.295199	0.551805
O7	O	1.558358	-0.381543	0.246879
O8	O	1.442281	-0.181346	0.430049
O9	O	1.728724	-0.381509	0.417213
O10	O	1.571365	-0.181320	0.559107
O11	O	1.434881	-0.295259	0.252413
O12	O	1.264605	-0.295204	0.422728
O13	O	1.429433	-0.381413	0.716574
O14	O	1.259067	-0.381446	0.546240
O15	O	1.564055	-0.295144	0.722120
O16	O	1.551048	-0.495367	0.409892
O17	O	1.422033	-0.495325	0.538938
C18	C	1.223715	-0.338323	0.484483
C19	C	1.106938	-0.338333	0.484501
C20	C	1.054983	-0.293476	0.554682
C21	C	0.945258	-0.293490	0.554688
C22	C	0.939452	-0.383223	0.414328
C23	C	1.049175	-0.383205	0.414318
C24	C	1.112746	-0.248604	0.624864
C25	C	1.060791	-0.203744	0.695052
C26	C	0.951066	-0.203758	0.695057
C27	C	0.893296	-0.248631	0.624876
C28	C	1.484923	-0.520832	0.472801
C29	C	1.479988	-0.598903	0.467833
C30	C	1.544827	-0.635507	0.532748
C31	C	1.540186	-0.708863	0.528082
C32	C	1.470711	-0.745613	0.458495
C33	C	1.405865	-0.709004	0.393578
C34	C	1.410502	-0.635649	0.398250
C35	C	1.453348	-0.967100	0.441028
C36	C	1.448719	-1.040460	0.436359
C37	C	1.583039	-1.040314	0.570865
C38	C	1.587674	-0.966958	0.575526
C39	C	1.522824	-0.930355	0.510613
C40	C	1.465968	-0.820595	0.453721
C41	C	1.527562	-0.855375	0.515393
C42	C	1.770714	-0.338357	0.484511
C43	C	1.887490	-0.338364	0.484517
C44	C	1.496754	-0.338268	0.758535
C45	C	1.496785	-0.338238	0.875313
C46	C	1.508515	-0.155135	0.496260
C47	C	1.513558	-0.077064	0.501273
C48	C	1.496673	-0.338360	0.211528
C49	C	1.496858	-0.338193	0.094762
C50	C	1.432520	-0.293301	0.933063
C51	C	1.432553	-0.293280	1.042788
C52	C	1.561126	-0.383134	1.037005
C53	C	1.561086	-0.383158	0.927281
C54	C	1.368219	-0.248381	0.881095
C55	C	1.303949	-0.203440	0.938845
C56	C	1.303983	-0.203419	1.048571
C57	C	1.368285	-0.248339	1.100546
H58	H	1.202090	-0.248588	0.624867
H59	H	1.251591	-0.166872	0.896519
H60	H	1.368304	-0.248320	1.189892
Br61	Br	1.648389	-0.444092	1.107542
H62	H	0.908768	-0.167226	0.752200
H63	H	1.613432	-0.419740	0.880260
H64	H	1.107835	-0.167206	0.752185
H65	H	0.803952	-0.248623	0.624865
H66	H	1.251644	-0.166831	1.095588
Br67	Br	0.861051	-0.444119	0.319090
Br68	Br	1.119692	-0.444089	0.319079
H69	H	1.592993	-0.738663	0.580934
Br70	Br	1.639127	-0.585638	0.627184
Br71	Br	1.365324	-0.917434	0.352944
Br72	Br	1.311563	-0.758879	0.299151
H73	H	1.644245	-0.937037	0.632189
H74	H	1.392140	-1.070380	0.379692
Br75	Br	1.322498	-0.585971	0.310152
Br76	Br	1.621838	-0.805498	0.609837
Br77	Br	1.671042	-1.089992	0.658959
Br78	Br	1.368178	-0.248401	0.732183
H79	H	1.409405	-0.850525	0.397060
