data_functionalizedCrystal
_audit_creation_method	'MofGen! by Chris Wilmer'
_symmetry_space_group_name_H-M	'P1'
_symmetry_Int_Tables_number	1
_symmetry_cell_setting	triclinic
loop_
_symmetry_equiv_pos_as_xyz
  x,y,z
_cell_length_a	13.033293
_cell_length_b	13.032721
_cell_length_c	13.033109
_cell_angle_alpha	105.143326
_cell_angle_beta	74.800007
_cell_angle_gamma	105.184121
loop_
_atom_site_label
_atom_site_type_symbol
_atom_site_fract_x
_atom_site_fract_y
_atom_site_fract_z
Zn1	Zn	1.665132	-0.311713	-0.842278
Zn2	Zn	2.165132	0.188287	-0.342278
Zn3	Zn	1.624457	-0.471371	-0.682627
Zn4	Zn	2.124457	0.028629	-0.182627
Zn5	Zn	1.464934	-0.311733	-0.642082
Zn6	Zn	1.964934	0.188267	-0.142082
Zn7	Zn	1.464897	-0.511805	-0.842154
Zn8	Zn	1.964897	-0.011805	-0.342154
O9	O	1.554855	-0.401656	-0.752285
O10	O	2.054855	0.098344	-0.252285
O11	O	1.810297	-0.315962	-0.838120
O12	O	2.310297	0.184038	-0.338120
O13	O	1.586289	-0.433282	-0.526704
O14	O	2.086289	0.066718	-0.026704
O15	O	1.508529	-0.161182	-0.651722
O16	O	2.008529	0.338818	-0.151722
O17	O	1.780413	-0.433262	-0.720825
O18	O	2.280413	0.066738	-0.220825
O19	O	1.655613	-0.161168	-0.798805
O20	O	2.155613	0.338832	-0.298805
O21	O	1.469088	-0.315996	-0.496916
O22	O	1.969088	0.184004	0.003084
O23	O	1.314369	-0.355203	-0.651602
O24	O	1.814369	0.144797	-0.151602
O25	O	1.508466	-0.502176	-0.992715
O26	O	2.008466	-0.002176	-0.492715
O27	O	1.314342	-0.502195	-0.798594
O28	O	1.814342	-0.002195	-0.298594
O29	O	1.655578	-0.355169	-0.992806
O30	O	2.155578	0.144831	-0.492806
O31	O	1.586253	-0.627283	-0.720705
O32	O	2.086253	-0.127283	-0.220705
O33	O	1.469025	-0.656990	-0.837909
O34	O	1.969025	-0.156990	-0.337909
C35	C	1.275317	-0.433090	-0.720685
C36	C	1.775317	0.066910	-0.220685
C37	C	1.155729	-0.446566	-0.707195
C38	C	1.655729	0.053434	-0.207195
C39	C	1.117199	-0.394649	-0.759329
C40	C	1.617199	0.105351	-0.259329
C41	C	0.993599	-0.408577	-0.745387
C42	C	1.493599	0.091423	-0.245387
C43	C	1.523253	-0.681171	-0.783720
C44	C	2.023253	-0.181171	-0.283720
C45	C	1.509836	-0.800742	-0.797215
C46	C	2.009836	-0.300742	-0.297215
C47	C	1.561920	-0.839317	-0.745297
C48	C	2.061920	-0.339317	-0.245297
C49	C	1.548054	-0.962899	-0.759243
C50	C	2.048054	-0.462899	-0.259243
C51	C	1.835485	-0.370100	-0.784009
C52	C	2.335485	0.129900	-0.284009
C53	C	1.955073	-0.356653	-0.797528
C54	C	2.455073	0.143347	-0.297528
C55	C	1.586555	-0.433181	-1.032886
C56	C	2.086555	0.066819	-0.532886
C57	C	1.600063	-0.446615	-1.152462
C58	C	2.100063	0.053385	-0.652462
C59	C	1.586612	-0.121048	-0.720755
C60	C	2.086612	0.378952	-0.220755
C61	C	1.600145	-0.001470	-0.707318
C62	C	2.100145	0.498530	-0.207318
C63	C	1.548097	-0.394573	-1.191034
C64	C	2.048097	0.105427	-0.691034
C65	C	1.562057	-0.408457	-1.314621
C66	C	2.062057	0.091543	-0.814621
C67	C	1.523350	-0.370169	-0.472774
C68	C	2.023350	0.129831	0.027226
C69	C	1.510084	-0.356408	-0.353188
C70	C	2.010084	0.143592	0.146812
H71	H	0.935084	-0.463336	-0.690427
H72	H	1.435084	0.036664	-0.190427
O73	O	1.634613	-0.761886	-0.672764
O74	O	2.134613	-0.261886	-0.172764
H75	H	1.634104	-0.676970	-0.673200
H76	H	2.134104	-0.176970	-0.173200
O77	O	1.194697	-0.322109	-0.832125
O78	O	1.694697	0.177891	-0.332125
H79	H	1.279616	-0.322558	-0.831656
H80	H	1.779616	0.177442	-0.331656
O81	O	1.672693	-0.519248	-1.229901
O82	O	2.172693	-0.019248	-0.729901
H83	H	1.672267	-0.518748	-1.314819
H84	H	2.172267	-0.018748	-0.814819
O85	O	1.032566	-0.284113	-0.870333
O86	O	1.532566	0.215887	-0.370333
H87	H	1.117486	-0.284561	-0.869867
H88	H	1.617486	0.215439	-0.369867
H89	H	1.493199	-1.021363	-0.814026
H90	H	1.993199	-0.521363	-0.314026
H91	H	1.655010	-0.943007	-0.652545
H92	H	2.155010	-0.443007	-0.152545
O93	O	1.437158	-0.878173	-0.869763
O94	O	1.937158	-0.378173	-0.369763
H95	H	1.437662	-0.963089	-0.869322
H96	H	1.937662	-0.463089	-0.369322
O97	O	1.475476	-0.321931	-1.113595
O98	O	1.975476	0.178069	-0.613595
H99	H	1.475916	-0.322417	-1.028677
H100	H	1.975916	0.177583	-0.528677
O101	O	1.634691	-0.481094	-1.392057
O102	O	2.134691	0.018906	-0.892057
H103	H	1.634265	-0.480594	-1.476975
H104	H	2.134265	0.019406	-0.976975
O105	O	1.437457	-0.283763	-1.275755
O106	O	1.937457	0.216237	-0.775755
H107	H	1.437895	-0.284248	-1.190835
H108	H	1.937895	0.215752	-0.690835
O109	O	1.078231	-0.519103	-0.634397
O110	O	1.578231	-0.019103	-0.134397
H111	H	0.993312	-0.518664	-0.634875
H112	H	1.493312	-0.018664	-0.134875
