data_functionalizedCrystal
_audit_creation_method	'MofGen! by Chris Wilmer'
_symmetry_space_group_name_H-M	'P1'
_symmetry_Int_Tables_number	1
_symmetry_cell_setting	triclinic
loop_
_symmetry_equiv_pos_as_xyz
  x,y,z
_cell_length_a	14.560438
_cell_length_b	14.628931
_cell_length_c	14.628931
_cell_angle_alpha	119.999864
_cell_angle_beta	90.001529
_cell_angle_gamma	119.998552
loop_
_atom_site_label
_atom_site_type_symbol
_atom_site_fract_x
_atom_site_fract_y
_atom_site_fract_z
Zr1	Zr	0.884754	-1.000591	-0.119945
O2	O	0.738108	-1.191294	-0.265907
O3	O	0.929709	-0.809887	-0.075199
O4	O	0.929709	-1.000592	-0.265905
O5	O	0.738109	-1.000589	0.075230
O6	O	1.080847	-1.000595	-0.265902
O7	O	0.738108	-1.000589	-0.075202
O8	O	1.080847	-0.659458	0.075235
O9	O	0.738109	-1.341726	-0.265907
O10	O	1.061675	-0.888329	-0.056114
O11	O	0.948882	-0.888327	0.056150
O12	O	0.948882	-1.112858	-0.168381
O13	O	0.836090	-1.112856	-0.056117
Zr14	Zr	1.125803	-1.000596	0.119981
Zr15	Zr	1.125802	-1.000596	-0.119941
Zr16	Zr	0.884755	-1.000591	0.119977
Zr17	Zr	0.884755	-1.240512	-0.119944
Zr18	Zr	1.125802	-0.760675	0.119980
O19	O	1.080848	-1.191300	0.075236
O20	O	1.080848	-1.191300	-0.265902
O21	O	0.738109	-1.191294	0.075230
O22	O	1.272449	-0.809893	0.265944
O23	O	1.272448	-0.809893	-0.075194
O24	O	0.929710	-0.809887	0.265938
O25	O	1.272449	-1.000598	-0.075194
O26	O	1.080848	-1.000595	0.265941
O27	O	0.929710	-1.000592	0.265938
O28	O	1.272449	-1.000598	0.075238
O29	O	0.929710	-1.341729	-0.265904
O30	O	1.080848	-0.659458	0.265940
O31	O	1.272449	-0.659461	0.265943
O32	O	1.272448	-0.659461	0.075238
O33	O	0.738109	-1.341726	-0.075201
O34	O	0.929710	-1.341729	-0.075198
O35	O	1.061675	-0.888329	0.168417
O36	O	1.174468	-0.888331	0.056153
O37	O	1.061675	-1.112860	-0.056114
O38	O	0.948883	-1.112858	0.056150
C39	C	1.005278	-0.700489	0.000018
C40	C	1.005278	-0.598636	0.000017
C41	C	1.084407	-0.474469	0.078778
C42	C	1.084409	-0.369197	0.078779
C43	C	0.703764	-1.000588	0.000013
C44	C	0.601433	-1.000587	0.000012
C45	C	0.612231	-0.883387	0.058614
C46	C	0.516076	-0.883393	0.058624
C47	C	0.398328	-1.117809	-0.058579
C48	C	0.494482	-1.117801	-0.058582
C49	C	0.719182	-0.766172	0.117207
C50	C	0.729985	-0.648963	0.175813
C51	C	0.633830	-0.648969	0.175823
C52	C	0.526872	-0.766185	0.117227
C53	C	1.306793	-1.000599	0.000023
C54	C	1.409124	-1.000600	0.000025
C55	C	1.005279	-0.300698	0.000019
C56	C	1.005280	-0.402551	0.000019
C57	C	1.005278	-1.000594	-0.300087
C58	C	1.005278	-1.000594	-0.401940
C59	C	1.084407	-1.000595	-0.447348
C60	C	1.084409	-1.000595	-0.552618
C61	C	1.005279	-1.000594	0.300123
C62	C	1.005280	-1.000594	0.401976
C63	C	1.306792	-0.700494	0.000022
C64	C	1.409123	-0.598643	0.000024
C65	C	1.005279	-0.700489	0.300123
C66	C	1.005279	-0.598636	0.401976
C67	C	1.306793	-0.700494	0.300128
C68	C	1.409124	-0.598643	0.401982
C69	C	0.703764	-1.300693	-0.300091
C70	C	0.601433	-1.402544	-0.401946
C71	C	0.703765	-1.300693	0.000014
C72	C	0.601434	-1.402544	0.000013
C73	C	1.005279	-1.300698	-0.300086
C74	C	1.005279	-1.402551	-0.401939
C75	C	1.398793	-0.553234	-0.055668
C76	C	1.504556	-0.447965	-0.055668
C77	C	1.061232	-0.553228	0.503077
C78	C	1.061233	-0.447958	0.608348
C79	C	1.510699	-0.553236	0.391701
C80	C	1.616465	-0.447967	0.496972
H81	H	0.937534	-0.509027	-0.067418
H82	H	0.311239	-1.213240	-0.106287
O83	O	1.124697	-0.604948	0.514509
H84	H	1.065220	-0.710522	0.473660
O85	O	1.493067	-0.396247	-0.118833
H86	H	1.446421	-0.352586	-0.084982
O87	O	0.941952	-0.454138	0.483180
H88	H	0.901020	-0.404805	0.491664
O89	O	0.423163	-0.766188	0.117237
H90	H	0.372405	-0.816776	0.153916
O91	O	0.915547	-0.636224	-0.089312
H92	H	0.867600	-0.596519	-0.049408
O93	O	1.174150	-0.228154	0.168097
H94	H	1.258122	-0.206710	0.164034
H95	H	1.518996	-0.441599	0.606702
O96	O	0.941820	-0.546908	0.390547
H97	H	0.900826	-0.596190	0.300474
O98	O	0.822889	-0.766170	0.117193
H99	H	0.899073	-0.664977	0.167785
O100	O	0.845336	-0.522541	0.239007
H101	H	0.910386	-0.542223	0.229146
H102	H	1.400464	-0.559589	0.488718
H103	H	1.152148	-0.446101	0.146210
O104	O	1.283367	-0.604969	-0.118841
H105	H	1.236774	-0.586606	-0.059644
H106	H	0.485686	-1.213236	-0.106279
H107	H	1.614803	-0.441600	0.047716
H108	H	0.642631	-0.553532	0.223551
H109	H	1.496267	-0.559591	0.047699
H110	H	1.152156	-1.000589	-0.408287
O111	O	1.522191	-0.604958	0.276817
H112	H	1.437315	-0.679518	0.212162
O113	O	1.731900	-0.396240	0.485568
H114	H	1.741783	-0.352565	0.439149
H115	H	1.152151	-1.000603	-0.591671
H116	H	0.937527	-1.000599	-0.558984
O117	O	1.124698	-0.396241	0.723226
H118	H	1.065221	-0.414608	0.769597
O119	O	0.915521	-1.000612	-0.453669
H120	H	0.955600	-0.912987	-0.453470
