data_functionalizedCrystal
_audit_creation_method	'MofGen! by Chris Wilmer'
_symmetry_space_group_name_H-M	'P1'
_symmetry_Int_Tables_number	1
_symmetry_cell_setting	triclinic
loop_
_symmetry_equiv_pos_as_xyz
  x,y,z
_cell_length_a	19.805405
_cell_length_b	12.759401
_cell_length_c	12.759393
_cell_angle_alpha	89.977503
_cell_angle_beta	90.033867
_cell_angle_gamma	89.972452
loop_
_atom_site_label
_atom_site_type_symbol
_atom_site_fract_x
_atom_site_fract_y
_atom_site_fract_z
Zn1	Zn	-0.269416	-1.606179	0.594039
Zn2	Zn	0.230584	-1.106179	1.094039
Zn3	Zn	-0.382618	-1.606033	0.418349
Zn4	Zn	0.117382	-1.106033	0.918349
Zn5	Zn	-0.269450	-1.430477	0.418370
Zn6	Zn	0.230550	-0.930477	0.918370
Zn7	Zn	-0.382570	-1.430432	0.593981
Zn8	Zn	0.117430	-0.930432	1.093981
O9	O	-0.326013	-1.518280	0.506185
O10	O	0.173987	-1.018280	1.006185
O11	O	-0.284438	-1.753180	0.570749
O12	O	0.215562	-1.253180	1.070749
O13	O	-0.367641	-1.582703	0.271331
O14	O	0.132359	-1.082703	0.771331
O15	O	-0.174729	-1.453864	0.441705
O16	O	0.325271	-0.953864	0.941705
O17	O	-0.367608	-1.753073	0.441670
O18	O	0.132392	-1.253073	0.941670
O19	O	-0.174704	-1.582951	0.570769
O20	O	0.325296	-1.082951	1.070769
O21	O	-0.284497	-1.453723	0.271346
O22	O	0.215503	-0.953723	0.771346
O23	O	-0.284450	-1.283450	0.441649
O24	O	0.215550	-0.783450	0.941649
O25	O	-0.367525	-1.453788	0.741010
O26	O	0.132475	-0.953788	1.241010
O27	O	-0.367558	-1.283417	0.570671
O28	O	0.132442	-0.783417	1.070671
O29	O	-0.284391	-1.582908	0.741053
O30	O	0.215609	-1.082908	1.241053
O31	O	-0.477328	-1.582659	0.441614
O32	O	0.022672	-1.082659	0.941614
O33	O	-0.477293	-1.453646	0.570651
O34	O	0.022707	-0.953646	1.070651
C35	C	-0.326003	-1.245313	0.506156
C36	C	0.173997	-0.745313	1.006156
C37	C	-0.326015	-1.128536	0.506169
C38	C	0.173985	-0.628536	1.006169
C39	C	-0.369355	-1.073685	0.573243
C40	C	0.130645	-0.573685	1.073243
C41	C	-0.369356	-0.963961	0.573261
C42	C	0.130644	-0.463961	1.073261
C43	C	-0.282676	-0.963949	0.439122
C44	C	0.217324	-0.463949	0.939122
C45	C	-0.282672	-1.073672	0.439110
C46	C	0.217328	-0.573672	0.939110
C47	C	-0.501869	-1.518161	0.506147
C48	C	-0.001869	-1.018161	1.006147
C49	C	-0.577101	-1.518205	0.506166
C50	C	-0.077101	-1.018205	1.006166
C51	C	-0.612374	-1.585381	0.573422
C52	C	-0.112374	-1.085381	1.073422
C53	C	-0.683063	-1.585419	0.573441
C54	C	-0.183063	-1.085419	1.073441
C55	C	-0.718477	-1.518286	0.506199
C56	C	-0.218477	-1.018286	1.006199
C57	C	-0.683199	-1.451103	0.438939
C58	C	-0.183199	-0.951103	0.938939
C59	C	-0.612512	-1.451060	0.438926
C60	C	-0.112512	-0.951060	0.938926
C61	C	-0.968273	-1.451271	0.438993
C62	C	-0.468273	-0.951271	0.938993
C63	C	-1.038965	-1.451321	0.439010
C64	C	-0.538965	-0.951321	0.939010
C65	C	-1.038823	-1.585630	0.573509
C66	C	-0.538823	-1.085630	1.073509
C67	C	-0.968136	-1.585588	0.573495
C68	C	-0.468136	-1.085588	1.073495
C69	C	-0.932864	-1.518401	0.506240
C70	C	-0.432864	-1.018401	1.006240
C71	C	-0.856216	-1.518360	0.506221
C72	C	-0.356216	-1.018360	1.006221
C73	C	-0.795124	-1.518332	0.506212
C74	C	-0.295124	-1.018332	1.006212
C75	C	-0.149471	-1.518429	0.506246
C76	C	0.350529	-1.018429	1.006246
C77	C	-0.074239	-1.518492	0.506272
C78	C	0.425761	-1.018492	1.006272
C79	C	-0.325948	-1.518359	0.780218
C80	C	0.174052	-1.018359	1.280218
C81	C	-0.325921	-1.518392	0.896995
C82	C	0.174079	-1.018392	1.396995
C83	C	-0.326022	-0.792314	0.506207
C84	C	0.173978	-0.292314	1.006207
C85	C	-0.326021	-0.909090	0.506199
C86	C	0.173979	-0.409090	1.006199
C87	C	-0.326029	-1.518262	0.233217
C88	C	0.173971	-1.018262	0.733217
C89	C	-0.325866	-1.518432	0.116441
C90	C	0.174134	-1.018432	0.616441
C91	C	-0.282626	-1.585630	0.951881
C92	C	0.217374	-1.085630	1.451881
C93	C	-0.282597	-1.585648	1.061605
C94	C	0.217403	-1.085648	1.561605
C95	C	-0.369163	-1.451187	1.061548
C96	C	0.130837	-0.951187	1.561548
C97	C	-0.369188	-1.451165	0.951826
C98	C	0.130812	-0.951165	1.451826
H99	H	-0.404647	-0.919305	0.627881
H100	H	0.095353	-0.419305	1.127881
C101	C	-0.573713	-1.377162	0.364938
C102	C	-0.073713	-0.877162	0.864938
N103	N	-0.544490	-1.321498	0.309210
N104	N	-0.044490	-0.821498	0.809210
C105	C	-0.416816	-1.377191	0.891448
C106	C	0.083184	-0.877191	1.391448
N107	N	-0.452686	-1.321473	0.845971
N108	N	0.047314	-0.821473	1.345971
H109	H	-0.247389	-0.919265	0.384523
H110	H	0.252611	-0.419265	0.884523
C111	C	-0.234992	-1.134012	0.365319
C112	C	0.265008	-0.634012	0.865319
N113	N	-0.199081	-1.179460	0.309744
N114	N	0.300919	-0.679460	0.809744
C115	C	-0.235025	-1.659573	0.891571
C116	C	0.264975	-1.159573	1.391571
N117	N	-0.199168	-1.715265	0.846148
N118	N	0.300832	-1.215265	1.346148
C119	C	-0.573425	-1.659236	0.647394
C120	C	-0.073425	-1.159236	1.147394
N121	N	-0.544090	-1.714864	0.703114
N122	N	-0.044090	-1.214864	1.203114
C123	C	-0.721859	-1.659332	0.647415
C124	C	-0.221859	-1.159332	1.147415
N125	N	-0.751081	-1.715011	0.703130
N126	N	-0.251081	-1.215011	1.203130
H127	H	-0.939303	-1.640258	0.628247
H128	H	-0.439303	-1.140258	1.128247
C129	C	-1.077628	-1.659530	0.647499
C130	C	-0.577628	-1.159530	1.147499
N131	N	-1.106855	-1.715190	0.703226
N132	N	-0.606855	-1.215190	1.203226
H133	H	-0.404646	-1.118352	0.627850
H134	H	0.095354	-0.618352	1.127850
C135	C	-1.077919	-1.377459	0.365041
C136	C	-0.577919	-0.877459	0.865041
N137	N	-1.107260	-1.321828	0.309331
N138	N	-0.607260	-0.821828	0.809331
H139	H	-0.939560	-1.396568	0.384230
H140	H	-0.439560	-0.896568	0.884230
C141	C	-0.234971	-1.659617	1.121974
C142	C	0.265029	-1.159617	1.621974
N143	N	-0.199097	-1.715335	1.167444
N144	N	0.300903	-1.215335	1.667444
C145	C	-0.722158	-1.377319	0.364908
C146	C	-0.222158	-0.877319	0.864908
N147	N	-0.751501	-1.321770	0.309120
N148	N	-0.251501	-0.821770	0.809120
C149	C	-0.416753	-1.377239	1.121872
C150	C	0.083247	-0.877239	1.621872
N151	N	-0.452599	-1.321539	1.167307
N152	N	0.047401	-0.821539	1.667307
