data_functionalizedCrystal
_audit_creation_method	'MofGen! by Chris Wilmer'
_symmetry_space_group_name_H-M	'P1'
_symmetry_Int_Tables_number	1
_symmetry_cell_setting	triclinic
loop_
_symmetry_equiv_pos_as_xyz
  x,y,z
_cell_length_a	10.489741
_cell_length_b	15.455313
_cell_length_c	16.992695
_cell_angle_alpha	92.847427
_cell_angle_beta	87.603698
_cell_angle_gamma	87.294147
loop_
_atom_site_label
_atom_site_type_symbol
_atom_site_fract_x
_atom_site_fract_y
_atom_site_fract_z
O1	O	1.708924	-0.072078	0.107291
O2	O	1.338633	-0.072091	0.117680
O3	O	1.522293	-0.072078	-0.001665
O4	O	1.525263	-0.072091	0.226636
O5	O	1.511788	0.072184	0.005131
O6	O	1.328127	0.072170	0.124476
O7	O	1.698418	0.072184	0.114087
Cu8	Cu	1.512313	0.085349	0.119902
Cu9	Cu	1.524737	-0.085257	0.111865
O10	O	1.514758	0.072170	0.233432
C11	C	1.285780	0.000038	0.120293
C12	C	1.143947	0.000033	0.117945
N13	N	1.503584	0.205344	0.125555
N14	N	1.533476	-0.205252	0.106206
C15	C	1.069200	0.000045	0.042010
C16	C	0.985373	-0.071083	0.074530
C17	C	0.975051	0.071147	0.081249
C18	C	1.061993	-0.071155	0.150494
C19	C	1.051675	0.071139	0.157206
C20	C	0.967882	-0.000007	0.189781
C21	C	1.751271	0.000053	0.111474
C22	C	1.893105	0.000052	0.113821
C23	C	1.513221	0.000053	-0.027501
C24	C	1.501826	0.000052	-0.114610
C25	C	1.581641	0.250744	0.074872
C26	C	1.575052	0.341551	0.079154
C27	C	1.490412	0.386957	0.134124
C28	C	1.412347	0.341551	0.184809
C29	C	1.418931	0.250745	0.180522
C30	C	1.461994	0.658536	0.152605
C31	C	1.455420	0.749348	0.156889
C32	C	1.618123	0.749343	0.051233
C33	C	1.624704	0.658535	0.046954
C34	C	1.546635	0.613137	0.097637
N35	N	1.483678	0.479777	0.138504
N36	N	1.553363	0.520319	0.093252
C37	C	1.611775	0.000057	-0.164229
C38	C	1.601061	0.000048	-0.246077
C39	C	1.480396	0.000041	-0.278303
C40	C	1.370439	0.000033	-0.228677
C41	C	1.381155	0.000036	-0.146832
C42	C	1.435984	0.000027	-0.522152
C43	C	1.425276	0.000028	-0.604004
C44	C	1.655899	0.000041	-0.621398
C45	C	1.666604	0.000049	-0.539550
C46	C	1.556647	0.000036	-0.489931
N47	N	1.469442	0.000035	-0.361964
N48	N	1.567604	0.000036	-0.406272
C49	C	1.523830	0.000038	0.259268
C50	C	1.535225	0.000033	0.346377
H51	H	1.113465	-0.000040	-0.020419
O52	O	1.728890	0.000102	-0.132797
C53	C	1.714779	0.000082	-0.049918
H54	H	1.615157	0.027392	-0.029976
H55	H	1.728324	-0.069127	-0.030360
C56	C	1.937999	0.023115	-0.037236
C57	C	1.815645	0.056665	-0.012743
H58	H	2.000221	0.058015	-0.014303
H59	H	1.947508	0.023126	-0.093073
H60	H	1.949268	-0.034558	-0.020936
H61	H	1.804372	0.114333	-0.029051
H62	H	1.806136	0.056666	0.043093
H63	H	0.955943	-0.131215	0.039567
O64	O	1.651021	0.385518	0.029894
C65	C	1.727127	0.325970	-0.019548
H66	H	1.736519	0.261233	0.009571
H67	H	1.680475	0.316332	-0.078542
C68	C	1.849058	0.440902	-0.068963
C69	C	1.860603	0.361393	-0.033195
H70	H	1.931390	0.462753	-0.077385
H71	H	1.797781	0.481021	-0.035656
H72	H	1.810176	0.432860	-0.118121
H73	H	1.899469	0.369438	0.015966
H74	H	1.911889	0.321275	-0.066495
H75	H	1.099998	-0.131357	0.179764
O76	O	1.707992	0.000098	-0.294162
C77	C	1.816791	0.000091	-0.248169
H78	H	1.788629	0.027401	-0.185991
H79	H	1.858437	-0.069114	-0.245394
C80	C	1.952011	0.023132	-0.362034
C81	C	1.917424	0.056683	-0.285669
H82	H	2.014090	0.058037	-0.385167
H83	H	1.878713	0.023134	-0.393022
H84	H	1.986709	-0.034538	-0.359711
H85	H	1.882713	0.114347	-0.287993
H86	H	1.990720	0.056692	-0.254682
H87	H	1.681682	0.786314	0.009969
H88	H	0.923898	-0.000049	0.252269
O89	O	1.086784	0.142965	0.198774
C90	C	1.042536	0.217818	0.162073
H91	H	1.026981	0.200781	0.097250
H92	H	0.948497	0.243772	0.192436
C93	C	1.161351	0.308465	0.248149
C94	C	1.142257	0.287540	0.168531
H95	H	1.222859	0.351475	0.252135
H96	H	1.191158	0.258035	0.272878
H97	H	1.082978	0.330088	0.273443
H98	H	1.220625	0.265907	0.143241
H99	H	1.112465	0.337968	0.143798
O100	O	1.373071	0.793323	0.210304
C101	C	1.305591	0.733783	0.254129
H102	H	1.305574	0.669057	0.218902
H103	H	1.353644	0.724113	0.312212
C104	C	1.167014	0.848738	0.314391
C105	C	1.166983	0.769242	0.271122
H106	H	1.081515	0.870611	0.324877
H107	H	1.212478	0.888852	0.284868
H108	H	1.207064	0.840669	0.362789
H109	H	1.126948	0.777314	0.222722
H110	H	1.121508	0.729130	0.300638
O111	O	1.706950	0.614565	-0.006516
C112	C	1.774456	0.674109	-0.050320
H113	H	1.717351	0.738846	-0.048467
H114	H	1.871156	0.683750	-0.023820
C115	C	1.864848	0.559170	-0.138746
C116	C	1.794705	0.638679	-0.136476
H117	H	1.877344	0.537314	-0.191891
H118	H	1.819372	0.519053	-0.109233
H119	H	1.945423	0.567215	-0.116659
H120	H	1.714126	0.630631	-0.158554
H121	H	1.840169	0.678794	-0.165995
H122	H	1.398429	0.621580	0.193874
H123	H	0.936898	0.131281	0.051938
O124	O	1.330238	0.385790	0.238184
C125	C	1.341143	0.475673	0.231090
H126	H	1.438722	0.488068	0.202962
H127	H	1.263032	0.501461	0.192523
C128	C	1.206910	0.507054	0.347981
C129	C	1.326762	0.522279	0.313439
H130	H	1.198034	0.535804	0.398776
H131	H	1.199558	0.446498	0.352759
H132	H	1.141831	0.528544	0.315834
H133	H	1.391838	0.500779	0.345580
H134	H	1.334125	0.582832	0.308668
H135	H	1.764862	0.000055	-0.513318
H136	H	1.650569	0.213780	0.030113
H137	H	1.355367	0.213781	0.221793
O138	O	1.307961	-0.000027	-0.635182
C139	C	1.213205	-0.000020	-0.573837
H140	H	1.256635	-0.027325	-0.519328
H141	H	1.173832	0.069185	-0.559202
C142	C	1.050878	-0.023073	-0.667179
C143	C	1.104217	-0.056618	-0.600232
H144	H	0.983646	-0.057982	-0.683461
H145	H	1.114715	-0.023075	-0.708509
H146	H	1.018077	0.034596	-0.654975
H147	H	1.137031	-0.114282	-0.612440
H148	H	1.040382	-0.056627	-0.558905
H149	H	1.745420	0.000049	-0.661806
H150	H	1.346449	0.000018	-0.481762
H151	H	1.272192	0.000022	-0.254922
H152	H	1.291622	0.000032	-0.106432
