data_functionalizedCrystal
_audit_creation_method	'MofGen! by Chris Wilmer'
_symmetry_space_group_name_H-M	'P1'
_symmetry_Int_Tables_number	1
_symmetry_cell_setting	triclinic
loop_
_symmetry_equiv_pos_as_xyz
  x,y,z
_cell_length_a	16.959455
_cell_length_b	12.645330
_cell_length_c	16.959455
_cell_angle_alpha	90.009915
_cell_angle_beta	90.001568
_cell_angle_gamma	90.014639
loop_
_atom_site_label
_atom_site_type_symbol
_atom_site_fract_x
_atom_site_fract_y
_atom_site_fract_z
Zn1	Zn	1.208297	-0.422274	0.446932
Zn2	Zn	1.708297	0.077726	0.946932
Zn3	Zn	1.208255	-0.599516	0.314763
Zn4	Zn	1.708255	-0.099516	0.814763
Zn5	Zn	1.076155	-0.422257	0.314769
Zn6	Zn	1.576155	0.077743	0.814769
Zn7	Zn	1.076096	-0.599486	0.446902
Zn8	Zn	1.576096	-0.099486	0.946902
O9	O	1.142201	-0.510883	0.380841
O10	O	1.642201	-0.010883	0.880841
O11	O	1.318903	-0.445805	0.429409
O12	O	1.818903	0.054195	0.929409
O13	O	1.190738	-0.576007	0.204153
O14	O	1.690738	-0.076007	0.704153
O15	O	1.093727	-0.273912	0.332316
O16	O	1.593727	0.226088	0.832316
O17	O	1.318871	-0.576023	0.332306
O18	O	1.818871	-0.076023	0.832306
O19	O	1.190811	-0.273924	0.429415
O20	O	1.690811	0.226076	0.929415
O21	O	1.093685	-0.445776	0.204158
O22	O	1.593685	0.054224	0.704158
O23	O	0.965536	-0.445748	0.332287
O24	O	1.465536	0.054252	0.832287
O25	O	1.093626	-0.575973	0.557516
O26	O	1.593626	-0.075973	1.057516
O27	O	0.965493	-0.575957	0.429364
O28	O	1.465493	-0.075957	0.929364
O29	O	1.190754	-0.445776	0.557539
O30	O	1.690754	0.054224	1.057539
O31	O	1.190681	-0.747859	0.332276
O32	O	1.690681	-0.247859	0.832276
O33	O	1.093585	-0.747837	0.429358
O34	O	1.593585	-0.247837	0.929358
C35	C	0.936835	-0.510848	0.380823
C36	C	1.436835	-0.010848	0.880823
C37	C	0.848978	-0.510859	0.380834
C38	C	1.348978	-0.010859	0.880834
C39	C	0.477501	-0.443028	0.330399
C40	C	0.977501	0.056972	0.830399
C41	C	0.477504	-0.578826	0.431329
C42	C	0.977504	-0.078826	0.931329
C43	C	0.560050	-0.578811	0.431324
C44	C	1.060050	-0.078811	0.931324
C45	C	0.601325	-0.510904	0.380855
C46	C	1.101325	-0.010904	0.880855
C47	C	0.560054	-0.443013	0.330391
C48	C	1.060054	0.056987	0.830391
C49	C	0.601327	-0.646709	0.481782
C50	C	1.101327	-0.146709	0.981782
C51	C	0.683878	-0.646697	0.481779
C52	C	1.183878	-0.146697	0.981779
C53	C	0.725155	-0.578784	0.431313
C54	C	1.225155	-0.078784	0.931313
C55	C	0.683879	-0.510889	0.380847
C56	C	1.183879	-0.010889	0.880847
C57	C	0.725154	-0.442982	0.330378
C58	C	1.225154	0.057018	0.830378
C59	C	0.683879	-0.375081	0.279916
C60	C	1.183879	0.124919	0.779916
C61	C	0.601331	-0.375100	0.279925
C62	C	1.101331	0.124900	0.779925
C63	C	0.807703	-0.578766	0.431303
C64	C	1.307703	-0.078766	0.931303
C65	C	0.807707	-0.442967	0.330370
C66	C	1.307707	0.057033	0.830370
C67	C	1.142143	-0.786313	0.380830
C68	C	1.642143	-0.286313	0.880830
C69	C	1.142191	-0.904143	0.380852
C70	C	1.642191	-0.404143	0.880852
C71	C	1.081359	-1.071738	0.442114
C72	C	1.581359	-0.571738	0.942114
C73	C	1.081048	-0.949178	0.441918
C74	C	1.581048	-0.449178	0.941918
C75	C	1.119668	-0.948706	0.297550
C76	C	1.619668	-0.448706	0.797550
C77	C	1.119297	-1.071305	0.297922
C78	C	1.619297	-0.571305	0.797922
C79	C	1.225917	-1.071246	0.402216
C80	C	1.725917	-0.571246	0.902216
C81	C	1.225404	-0.948639	0.404037
C82	C	1.725404	-0.448639	0.904037
C83	C	1.348369	-0.510919	0.380860
C84	C	1.848369	-0.010919	0.880860
C85	C	1.436226	-0.510934	0.380868
C86	C	1.936226	-0.010934	0.880868
C87	C	1.142188	-0.510873	0.587010
C88	C	1.642188	-0.010873	1.087010
C89	C	1.142182	-0.510869	0.674866
C90	C	1.642182	-0.010869	1.174866
C91	C	1.142280	-0.234378	0.380870
C92	C	1.642280	0.265622	0.880870
C93	C	1.142314	-0.116548	0.380882
C94	C	1.642314	0.383452	0.880882
C95	C	1.091624	-0.578686	1.046333
C96	C	1.591624	-0.078686	1.546333
C97	C	1.192764	-0.443110	1.046351
C98	C	1.692764	0.056890	1.546351
C99	C	1.192761	-0.443102	0.963805
C100	C	1.692761	0.056898	1.463805
C101	C	1.142190	-0.510887	0.922519
C102	C	1.642190	-0.010887	1.422519
C103	C	1.091621	-0.578681	0.963779
C104	C	1.591621	-0.078681	1.463779
C105	C	1.243335	-0.375316	0.922539
C106	C	1.743335	0.124684	1.422539
C107	C	1.243335	-0.375306	0.839988
C108	C	1.743335	0.124694	1.339988
C109	C	1.192759	-0.443086	0.798701
C110	C	1.692759	0.056914	1.298701
C111	C	1.142187	-0.510882	0.839966
C112	C	1.642187	-0.010882	1.339966
C113	C	1.091616	-0.578668	0.798680
C114	C	1.591616	-0.078668	1.298680
C115	C	1.041040	-0.646459	0.839943
C116	C	1.541040	-0.146459	1.339943
C117	C	1.041045	-0.646462	0.922492
C118	C	1.541045	-0.146462	1.422492
C119	C	1.192754	-0.443084	0.716152
C120	C	1.692754	0.056916	1.216152
C121	C	1.091614	-0.578663	0.716126
C122	C	1.591614	-0.078663	1.216126
C123	C	1.142203	-0.510911	1.175475
C124	C	1.642203	-0.010911	1.675475
C125	C	1.142195	-0.510900	1.087619
C126	C	1.642195	-0.010900	1.587619
H127	H	0.567718	-0.319819	0.238841
H128	H	1.067718	0.180181	0.738841
F129	F	1.252780	-1.111589	0.480263
F130	F	1.752780	-0.611589	0.980263
H131	H	1.162658	-0.919534	0.250681
H132	H	1.662658	-0.419534	0.750681
F133	F	0.557396	-0.719002	0.535470
F134	F	1.057396	-0.219002	1.035470
F135	F	0.727816	-0.302818	0.226200
F136	F	1.227816	0.197182	0.726200
F137	F	1.297159	-0.303154	0.796079
F138	F	1.797159	0.196846	1.296079
F139	F	1.174803	-1.110055	0.236252
F140	F	1.674803	-0.610055	0.736252
H141	H	1.059191	-0.918084	0.279151
H142	H	1.559191	-0.418084	0.779151
H143	H	0.841307	-0.387662	0.289276
H144	H	1.341307	0.112338	0.789276
F145	F	0.433574	-0.370761	0.276700
F146	F	0.933574	0.129239	0.776700
H147	H	1.242389	-0.919512	0.465343
H148	H	1.742389	-0.419512	0.965343
F149	F	1.037798	-0.650828	1.090248
F150	F	1.537798	-0.150828	1.590248
H151	H	0.717477	-0.701986	0.522869
H152	H	1.217477	-0.201986	1.022869
F153	F	1.287890	-0.908556	0.349994
F154	F	1.787890	-0.408556	0.849994
H155	H	0.999872	-0.701658	0.956096
H156	H	1.499872	-0.201658	1.456096
H157	H	1.050425	-0.633854	0.682517
H158	H	1.550425	-0.133854	1.182517
H159	H	1.284512	-0.320136	0.956160
H160	H	1.784512	0.179864	1.456160
F161	F	0.433574	-0.651111	0.485025
F162	F	0.933574	-0.151111	0.985025
H163	H	0.841305	-0.634053	0.472387
H164	H	1.341305	-0.134053	0.972387
F165	F	1.099461	-0.909791	0.522653
F166	F	1.599461	-0.409791	1.022653
F167	F	1.099600	-1.110213	0.523116
F168	F	1.599600	-0.610213	1.023116
F169	F	1.246588	-0.370980	1.090292
F170	F	1.746588	0.129020	1.590292
F171	F	0.987224	-0.718604	0.795995
F172	F	1.487224	-0.218604	1.295995
F173	F	1.000854	-1.112133	0.423890
F174	F	1.500854	-0.612133	0.923890
F175	F	1.000035	-0.910949	0.423447
F176	F	1.500035	-0.410949	0.923447
F177	F	1.039417	-1.108796	0.274300
F178	F	1.539417	-0.608796	0.774300
H179	H	1.271330	-1.100221	0.357618
H180	H	1.771330	-0.600221	0.857618
F181	F	1.246581	-0.370947	0.672240
F182	F	1.746581	0.129053	1.172240
