data_functionalizedCrystal
_audit_creation_method	'MofGen! by Chris Wilmer'
_symmetry_space_group_name_H-M	'P1'
_symmetry_Int_Tables_number	1
_symmetry_cell_setting	triclinic
loop_
_symmetry_equiv_pos_as_xyz
  x,y,z
_cell_length_a	14.908783
_cell_length_b	12.827892
_cell_length_c	12.827885
_cell_angle_alpha	89.970214
_cell_angle_beta	86.678907
_cell_angle_gamma	93.306471
loop_
_atom_site_label
_atom_site_type_symbol
_atom_site_fract_x
_atom_site_fract_y
_atom_site_fract_z
Zn1	Zn	1.379294	-0.323906	-0.683226
Zn2	Zn	1.712627	0.009428	-0.349892
Zn3	Zn	2.045961	0.342761	-0.016559
Zn4	Zn	1.379203	-0.498689	-0.508480
Zn5	Zn	1.712536	-0.165356	-0.175147
Zn6	Zn	2.045869	0.167978	0.158187
Zn7	Zn	1.228422	-0.334028	-0.498395
Zn8	Zn	1.561755	-0.000695	-0.165061
Zn9	Zn	1.895089	0.332638	0.168272
Zn10	Zn	1.228409	-0.508678	-0.673081
Zn11	Zn	1.561743	-0.175344	-0.339747
Zn12	Zn	1.895076	0.157989	-0.006414
O13	O	1.303832	-0.416325	-0.590795
O14	O	1.637165	-0.082992	-0.257462
O15	O	1.970499	0.250342	0.075871
O16	O	1.505530	-0.338674	-0.668512
O17	O	1.838863	-0.005341	-0.335178
O18	O	2.172196	0.327992	-0.001845
O19	O	1.359168	-0.476902	-0.360904
O20	O	1.692502	-0.143569	-0.027570
O21	O	2.025835	0.189764	0.305763
O22	O	1.248479	-0.186446	-0.522938
O23	O	1.581812	0.146887	-0.189605
O24	O	1.915146	0.480220	0.143729
O25	O	1.505463	-0.467087	-0.540127
O26	O	1.838796	-0.133754	-0.206793
O27	O	2.172129	0.199580	0.126540
O28	O	1.359324	-0.179009	-0.658733
O29	O	1.692657	0.154324	-0.325399
O30	O	2.025991	0.487657	0.007934
O31	O	1.248390	-0.355927	-0.353494
O32	O	1.581724	-0.022594	-0.020161
O33	O	1.915057	0.310740	0.313172
O34	O	1.102172	-0.365613	-0.513101
O35	O	1.435506	-0.032279	-0.179768
O36	O	1.768839	0.301054	0.153566
O37	O	1.248457	-0.484111	-0.820665
O38	O	1.581791	-0.150778	-0.487331
O39	O	1.915124	0.182555	-0.153998
O40	O	1.102163	-0.493927	-0.641442
O41	O	1.435496	-0.160593	-0.308108
O42	O	1.768830	0.172740	0.025225
O43	O	1.359312	-0.348360	-0.828118
O44	O	1.692645	-0.015027	-0.494785
O45	O	2.025978	0.318307	-0.161452
O46	O	1.359156	-0.646253	-0.530289
O47	O	1.692489	-0.312920	-0.196956
O48	O	2.025823	0.020414	0.136377
O49	O	1.248369	-0.653592	-0.651221
O50	O	1.581702	-0.320258	-0.317887
O51	O	1.915035	0.013075	0.015446
C52	C	1.303776	-0.687839	-0.590773
C53	C	1.637109	-0.354506	-0.257440
C54	C	1.970442	-0.021172	0.075894
C55	C	1.303834	-0.803988	-0.590804
C56	C	1.637167	-0.470655	-0.257471
C57	C	1.970501	-0.137321	0.075863
C58	C	1.069433	-0.431953	-0.575077
C59	C	1.402766	-0.098619	-0.241743
C60	C	1.736100	0.234714	0.091590
C61	C	0.969156	-0.438664	-0.568377
C62	C	1.302490	-0.105330	-0.235044
C63	C	1.635823	0.228003	0.098290
C64	C	1.358720	-0.852102	-0.531038
C65	C	1.692053	-0.518769	-0.197705
C66	C	2.025387	-0.185436	0.135629
C67	C	1.358782	-0.972149	-0.531069
C68	C	1.692115	-0.638815	-0.197735
C69	C	2.025448	-0.305482	0.135598
C70	C	0.780793	-0.317740	-0.689679
C71	C	1.114127	0.015593	-0.356346
C72	C	1.447460	0.348926	-0.023013
C73	C	0.686574	-0.324042	-0.683388
C74	C	1.019908	0.009291	-0.350054
C75	C	1.353241	0.342625	-0.016721
C76	C	0.686497	-0.457563	-0.549498
C77	C	1.019831	-0.124229	-0.216165
C78	C	1.353164	0.209104	0.117169
C79	C	0.780716	-0.451261	-0.555789
C80	C	1.114050	-0.117928	-0.222456
C81	C	1.447383	0.215406	0.110877
C82	C	0.827861	-0.381349	-0.625884
C83	C	1.161194	-0.048015	-0.292550
C84	C	1.494528	0.285318	0.040783
C85	C	0.922082	-0.375053	-0.632180
C86	C	1.255415	-0.041720	-0.298846
C87	C	1.588749	0.291614	0.034487
C88	C	0.922003	-0.508567	-0.498285
C89	C	1.255337	-0.175234	-0.164952
C90	C	1.588670	0.158099	0.168381
C91	C	0.827784	-0.514869	-0.491994
C92	C	1.161117	-0.181536	-0.158660
C93	C	1.494451	0.151798	0.174673
C94	C	1.539146	-0.400637	-0.606576
C95	C	1.872479	-0.067304	-0.273242
C96	C	2.205813	0.266029	0.060091
C97	C	1.639423	-0.393952	-0.613301
C98	C	1.972756	-0.060619	-0.279967
C99	C	2.306090	0.272715	0.053366
C100	C	1.303893	-0.416221	-0.863370
C101	C	1.637227	-0.082887	-0.530036
C102	C	1.970560	0.250446	-0.196703
C103	C	1.303920	-0.416176	-0.979525
C104	C	1.637253	-0.082843	-0.646191
C105	C	1.970586	0.250490	-0.312858
C106	C	1.303913	-0.143750	-0.590842
C107	C	1.637247	0.189584	-0.257509
C108	C	1.970580	0.522917	0.075825
C109	C	1.303948	-0.027594	-0.590862
C110	C	1.637281	0.305739	-0.257529
C111	C	1.970614	0.639073	0.075805
C112	C	1.358780	-0.348989	-1.034998
C113	C	1.692113	-0.015656	-0.701665
C114	C	2.025446	0.317677	-0.368331
C115	C	1.358808	-0.348942	-1.155050
C116	C	1.692141	-0.015608	-0.821717
C117	C	2.025475	0.317725	-0.488384
C118	C	1.303823	-0.416350	-0.319285
C119	C	1.637156	-0.083017	0.014049
C120	C	1.970489	0.250316	0.347382
C121	C	1.303971	-0.416089	-0.203142
C122	C	1.637305	-0.082755	0.130191
C123	C	1.970638	0.250578	0.463525
H124	H	1.405669	-0.804423	-0.479851
H125	H	1.739002	-0.471090	-0.146518
H126	H	2.072335	-0.137757	0.186816
H127	H	1.257004	-0.473617	-1.155457
H128	H	1.590338	-0.140283	-0.822124
H129	H	1.923671	0.193050	-0.488791
H130	H	1.256967	-0.473656	-1.020910
H131	H	1.590300	-0.140322	-0.687576
H132	H	1.923634	0.193011	-0.354243
Cl133	Cl	1.431330	-1.036048	-0.452059
Cl134	Cl	1.764663	-0.702714	-0.118726
Cl135	Cl	2.097996	-0.369381	0.214607
Cl136	Cl	1.231387	-0.963703	-0.669862
Cl137	Cl	1.564721	-0.630369	-0.336528
Cl138	Cl	1.898054	-0.297036	-0.003195
H139	H	1.256893	-0.851669	-0.641999
H140	H	1.590227	-0.518336	-0.308665
H141	H	1.923560	-0.185002	0.024668
H142	H	0.960466	-0.318128	-0.689255
H143	H	1.293799	0.015206	-0.355921
H144	H	1.627132	0.348539	-0.022588
H145	H	0.819179	-0.260820	-0.746757
H146	H	1.152513	0.072514	-0.413424
H147	H	1.485846	0.405847	-0.080090
Cl148	Cl	1.431243	-0.260206	-0.971110
Cl149	Cl	1.764577	0.073127	-0.637777
Cl150	Cl	2.097910	0.406461	-0.304443
H151	H	0.648096	-0.514470	-0.492419
H152	H	0.981429	-0.181137	-0.159086
H153	H	1.314762	0.152197	0.174247
Cl154	Cl	0.627406	-0.244072	-0.763589
Cl155	Cl	0.960739	0.089262	-0.430256
Cl156	Cl	1.294073	0.422595	-0.096923
H157	H	0.789386	-0.571786	-0.434922
H158	H	1.122719	-0.238453	-0.101589
H159	H	1.456053	0.094880	0.231745
Cl160	Cl	0.981179	-0.588544	-0.418087
Cl161	Cl	1.314513	-0.255211	-0.084754
Cl162	Cl	1.647846	0.078123	0.248579
H163	H	1.405779	-0.291424	-1.202742
H164	H	1.739112	0.041910	-0.869409
H165	H	2.072445	0.375243	-0.536076
