data_functionalizedCrystal
_audit_creation_method	'MofGen! by Chris Wilmer'
_symmetry_space_group_name_H-M	'P1'
_symmetry_Int_Tables_number	1
_symmetry_cell_setting	triclinic
loop_
_symmetry_equiv_pos_as_xyz
  x,y,z
_cell_length_a	14.628931
_cell_length_b	21.606444
_cell_length_c	14.628931
_cell_angle_alpha	90.002058
_cell_angle_beta	120.000193
_cell_angle_gamma	120.000138
loop_
_atom_site_label
_atom_site_type_symbol
_atom_site_fract_x
_atom_site_fract_y
_atom_site_fract_z
Zr1	Zr	-1.000541	0.596248	-0.119912
O2	O	-1.191253	0.497421	-0.265881
O3	O	-0.809833	0.626543	-0.075164
O4	O	-1.000539	0.626543	-0.265870
O5	O	-1.000547	0.497421	0.075257
O6	O	-1.000533	0.728397	-0.265862
O7	O	-1.000547	0.497421	-0.075175
O8	O	-0.659395	0.728397	0.075277
O9	O	-1.341685	0.497421	-0.265882
O10	O	-0.888268	0.715477	-0.056074
O11	O	-0.888272	0.639464	0.056186
O12	O	-1.112804	0.639464	-0.168346
O13	O	-1.112809	0.563452	-0.056087
Zr14	Zr	-1.000530	0.758693	0.120024
Zr15	Zr	-1.000531	0.758693	-0.119898
Zr16	Zr	-1.000540	0.596248	0.120010
Zr17	Zr	-1.240462	0.596248	-0.119912
Zr18	Zr	-0.760608	0.758693	0.120024
O19	O	-1.191238	0.728398	0.075276
O20	O	-1.191239	0.728398	-0.265862
O21	O	-1.191252	0.497421	0.075256
O22	O	-0.809818	0.857520	0.265993
O23	O	-0.809819	0.857520	-0.075145
O24	O	-0.809832	0.626544	0.265974
O25	O	-1.000524	0.857520	-0.075145
O26	O	-1.000531	0.728398	0.265982
O27	O	-1.000538	0.626544	0.265974
O28	O	-1.000524	0.857520	0.075287
O29	O	-1.341677	0.626544	-0.265871
O30	O	-0.659394	0.728398	0.265983
O31	O	-0.659386	0.857520	0.265994
O32	O	-0.659386	0.857520	0.075288
O33	O	-1.341685	0.497421	-0.075176
O34	O	-1.341676	0.626544	-0.075165
O35	O	-0.888267	0.715477	0.168458
O36	O	-0.888262	0.791489	0.056199
O37	O	-1.112799	0.715477	-0.056074
O38	O	-1.112803	0.639464	0.056185
C39	C	-0.700430	0.677470	0.000056
C40	C	-0.598577	0.677470	0.000057
C41	C	-0.553166	0.715177	-0.055632
C42	C	-0.447895	0.715178	-0.055633
C43	C	-1.000548	0.474276	0.000039
C44	C	-1.000553	0.405314	0.000033
C45	C	-0.300641	0.677471	0.000056
C46	C	-0.402494	0.677471	0.000055
C47	C	-0.883313	0.021704	0.058684
C48	C	-0.883317	0.086499	0.058674
C49	C	-1.000527	0.079216	0.000064
C50	C	-1.117741	0.007132	-0.058548
C51	C	-1.117736	-0.057662	-0.058544
C52	C	-1.117763	0.268435	-0.058569
C53	C	-1.117759	0.333235	-0.058567
C54	C	-0.883344	0.412595	0.058649
C55	C	-0.883339	0.347802	0.058653
C56	C	-1.000552	0.275724	0.000036
C57	C	-1.000547	0.205466	0.000046
C58	C	-1.000533	0.149471	0.000060
C59	C	-1.000536	0.677470	-0.300050
C60	C	-1.000537	0.677470	-0.401903
C61	C	-1.000523	0.880665	0.000073
C62	C	-1.000518	0.949628	0.000079
C63	C	-1.111919	0.639764	-0.608271
C64	C	-1.111922	0.639763	-0.503001
C65	C	-1.000535	0.677471	0.300162
C66	C	-1.000534	0.677471	0.402015
C67	C	-0.700417	0.880665	0.000074
C68	C	-0.598560	0.949627	0.000080
C69	C	-0.700429	0.677471	0.300162
C70	C	-0.598576	0.677471	0.402015
C71	C	-0.700416	0.880665	0.300179
C72	C	-0.598559	0.949628	0.402038
C73	C	-1.300654	0.474276	-0.300067
C74	C	-1.402512	0.405314	-0.401926
C75	C	-1.300654	0.474276	0.000038
C76	C	-1.402511	0.405314	0.000032
C77	C	-1.300642	0.677471	-0.300050
C78	C	-1.402495	0.677471	-0.401903
C79	C	-0.550729	0.942335	-0.058533
C80	C	-0.455037	1.007126	-0.058549
C81	C	-0.407170	1.079209	0.000053
C82	C	-0.455010	1.086500	0.058667
C83	C	-0.550708	1.021709	0.058677
C84	C	-0.550723	1.021698	0.391274
C85	C	-0.455030	1.086501	0.486973
C86	C	-0.407169	1.079233	0.593434
C87	C	-0.455014	1.007156	0.604196
C88	C	-0.550711	0.942354	0.508499
C89	C	-1.450360	0.333244	-0.391162
C90	C	-1.546082	0.268440	-0.486861
C91	C	-1.593949	0.275708	-0.593322
C92	C	-1.546097	0.347785	-0.604084
C93	C	-1.450383	0.412587	-0.508387
C94	C	-1.450352	0.412606	0.058635
C95	C	-1.546071	0.347815	0.058625
C96	C	-1.593941	0.275732	0.000019
C97	C	-1.546096	0.268441	-0.058591
C98	C	-1.450385	0.333232	-0.058587
C99	C	-0.553164	0.715178	0.503119
C100	C	-0.447893	0.715179	0.608391
H101	H	-0.592215	0.747463	-0.103303
Cl102	Cl	-0.610828	0.851754	0.522050
H103	H	-0.441533	0.645191	0.511371
Cl104	Cl	-1.390203	0.324087	-0.257337
Cl105	Cl	-1.714274	0.194234	-0.713618
Cl106	Cl	-0.394815	1.177124	0.132340
H107	H	-1.585009	0.353766	0.106356
Cl108	Cl	-1.390235	0.503187	-0.521939
Cl109	Cl	-0.387597	0.765028	0.742300
H110	H	-1.207283	0.607483	-0.511633
Cl111	Cl	-1.606282	0.356909	-0.737930
H112	H	-0.416031	1.001249	0.690889
H113	H	-0.589639	1.027657	0.106412
Cl114	Cl	-0.394896	1.177103	0.473418
H115	H	-1.411383	0.471294	0.106366
H116	H	-0.559525	0.645185	0.393392
H117	H	-0.589678	1.027630	0.304597
Cl118	Cl	-0.853294	0.727321	-0.388559
Cl119	Cl	-0.394909	0.997943	-0.132236
Cl120	Cl	-0.610890	0.851724	-0.132219
Cl121	Cl	-0.286859	1.160707	0.713730
H122	H	-1.585026	0.209758	-0.478076
H123	H	-0.559518	0.645190	0.047735
Cl124	Cl	-0.387613	0.765018	-0.129253
H125	H	-1.213175	0.001206	-0.106275
H126	H	-0.787867	0.027643	0.106417
H127	H	-1.671874	0.222982	0.000025
Cl128	Cl	-0.735967	0.177109	0.132352
Cl129	Cl	-0.286860	1.160653	0.000033
H130	H	-0.592225	0.747457	0.511742
H131	H	-1.585087	0.209743	-0.106306
H132	H	-0.441546	0.645183	0.047729
Cl133	Cl	-0.735984	0.356963	0.132344
Cl134	Cl	-1.390246	0.324051	-0.132257
Cl135	Cl	-1.265085	-0.148274	-0.132229
H136	H	-1.213211	0.327297	-0.106291
Cl137	Cl	-0.735988	0.503212	0.132340
H138	H	-1.213205	0.209754	-0.106295
H139	H	-1.207279	0.607479	-0.695010
Cl140	Cl	-0.853299	0.727310	-0.464070
