data_functionalizedCrystal
_audit_creation_method	'MofGen! by Chris Wilmer'
_symmetry_space_group_name_H-M	'P1'
_symmetry_Int_Tables_number	1
_symmetry_cell_setting	triclinic
loop_
_symmetry_equiv_pos_as_xyz
  x,y,z
_cell_length_a	14.908783
_cell_length_b	16.120444
_cell_length_c	16.120297
_cell_angle_alpha	95.615117
_cell_angle_beta	89.410993
_cell_angle_gamma	96.376156
loop_
_atom_site_label
_atom_site_type_symbol
_atom_site_fract_x
_atom_site_fract_y
_atom_site_fract_z
Zn1	Zn	1.332777	-0.289213	-0.557211
Zn2	Zn	1.666110	0.044120	-0.223877
Zn3	Zn	1.999444	0.377453	0.109456
Zn4	Zn	1.332661	-0.421910	-0.424517
Zn5	Zn	1.665994	-0.088576	-0.091184
Zn6	Zn	1.999327	0.244757	0.242150
Zn7	Zn	1.189966	-0.289386	-0.410197
Zn8	Zn	1.523299	0.043947	-0.076863
Zn9	Zn	1.856632	0.377281	0.256470
Zn10	Zn	1.173810	-0.437000	-0.556164
Zn11	Zn	1.507143	-0.103667	-0.222831
Zn12	Zn	1.840476	0.229666	0.110502
O13	O	1.257303	-0.359377	-0.487022
O14	O	1.590636	-0.026044	-0.153689
O15	O	1.923970	0.307289	0.179645
O16	O	1.459008	-0.300428	-0.546039
O17	O	1.792342	0.032905	-0.212706
O18	O	2.125675	0.366239	0.120627
O19	O	1.320444	-0.398087	-0.305997
O20	O	1.653778	-0.064754	0.027337
O21	O	1.987111	0.268580	0.360670
O22	O	1.215720	-0.172052	-0.424143
O23	O	1.549053	0.161281	-0.090810
O24	O	1.882386	0.494614	0.242523
O25	O	1.458923	-0.397919	-0.448550
O26	O	1.792256	-0.064586	-0.115217
O27	O	2.125589	0.268747	0.218117
O28	O	1.320643	-0.171925	-0.532154
O29	O	1.653976	0.161408	-0.198820
O30	O	1.987309	0.494741	0.134513
O31	O	1.215607	-0.300722	-0.295476
O32	O	1.548940	0.032611	0.037858
O33	O	1.882274	0.365944	0.371191
O34	O	1.061576	-0.315355	-0.423129
O35	O	1.394909	0.017978	-0.089795
O36	O	1.728242	0.351311	0.243538
O37	O	1.188184	-0.423639	-0.672924
O38	O	1.521518	-0.090306	-0.339590
O39	O	1.854851	0.243027	-0.006257
O40	O	1.049706	-0.423807	-0.530370
O41	O	1.383039	-0.090473	-0.197037
O42	O	1.716373	0.242860	0.136296
O43	O	1.304977	-0.315061	-0.673692
O44	O	1.638310	0.018272	-0.340359
O45	O	1.971644	0.351606	-0.007026
O46	O	1.304779	-0.541222	-0.447535
O47	O	1.638112	-0.207889	-0.114202
O48	O	1.971445	0.125444	0.219131
O49	O	1.188071	-0.552309	-0.544256
O50	O	1.521405	-0.218976	-0.210923
O51	O	1.854738	0.114357	0.122411
C52	C	1.022906	-0.371238	-0.475083
C53	C	1.356240	-0.037905	-0.141749
C54	C	1.689573	0.295429	0.191584
C55	C	0.922628	-0.376333	-0.469995
C56	C	1.255961	-0.043000	-0.136662
C57	C	1.589295	0.290334	0.196671
C58	C	0.734264	-0.284545	-0.562122
C59	C	1.067597	0.048788	-0.228789
C60	C	1.400930	0.382121	0.104545
C61	C	0.640043	-0.289330	-0.557345
C62	C	0.973377	0.044003	-0.224012
C63	C	1.306710	0.377337	0.109322
C64	C	0.639966	-0.390682	-0.455660
C65	C	0.973299	-0.057349	-0.122327
C66	C	1.306632	0.275985	0.211006
C67	C	0.734186	-0.385897	-0.460437
C68	C	1.067519	-0.052564	-0.127104
C69	C	1.400853	0.280769	0.206229
C70	C	0.781332	-0.332828	-0.513671
C71	C	1.114665	0.000505	-0.180338
C72	C	1.447998	0.333838	0.152996
C73	C	0.875553	-0.328049	-0.518452
C74	C	1.208887	0.005285	-0.185119
C75	C	1.542220	0.338618	0.148215
C76	C	0.875474	-0.429396	-0.416763
C77	C	1.208808	-0.096062	-0.083430
C78	C	1.542141	0.237271	0.249903
C79	C	0.781254	-0.434180	-0.411986
C80	C	1.114587	-0.100847	-0.078653
C81	C	1.447921	0.232486	0.254680
C82	C	1.244683	-0.577183	-0.497355
C83	C	1.578016	-0.243850	-0.164022
C84	C	1.911349	0.089484	0.169311
C85	C	1.239364	-0.670358	-0.501808
C86	C	1.572698	-0.337025	-0.168475
C87	C	1.906031	-0.003692	0.164858
C88	C	1.285102	-0.876951	-0.464114
C89	C	1.618435	-0.543617	-0.130780
C90	C	1.951769	-0.210284	0.202553
C91	C	1.229671	-0.840945	-0.509947
C92	C	1.563004	-0.507611	-0.176614
C93	C	1.896338	-0.174278	0.156719
C94	C	1.235066	-0.746022	-0.505417
C95	C	1.568399	-0.412688	-0.172084
C96	C	1.901733	-0.079355	0.161249
C97	C	1.279708	-0.971882	-0.468643
C98	C	1.613041	-0.638549	-0.135309
C99	C	1.946375	-0.305216	0.198024
C100	C	1.492615	-0.347471	-0.499009
C101	C	1.825948	-0.014138	-0.165675
C102	C	2.159282	0.319196	0.167658
C103	C	1.592891	-0.342397	-0.504117
C104	C	1.926224	-0.009064	-0.170783
C105	C	2.259558	0.324269	0.162550
C106	C	1.244791	-0.371014	-0.704392
C107	C	1.578125	-0.037681	-0.371059
C108	C	1.911458	0.295653	-0.037725
C109	C	1.239460	-0.375973	-0.797022
C110	C	1.572793	-0.042640	-0.463689
C111	C	1.906126	0.290694	-0.130355
C112	C	1.269996	-0.140721	-0.476668
C113	C	1.603330	0.192612	-0.143334
C114	C	1.936663	0.525946	0.189999
C115	C	1.275406	-0.047543	-0.472255
C116	C	1.608739	0.285791	-0.138922
C117	C	1.942072	0.619124	0.194411
C118	C	1.229693	-0.385010	-0.966616
C119	C	1.563027	-0.051677	-0.633283
C120	C	1.896360	0.281657	-0.299949
C121	C	1.285105	-0.333485	-1.008277
C122	C	1.618439	-0.000151	-0.674944
C123	C	1.951772	0.333182	-0.341610
C124	C	1.279671	-0.338513	-1.102645
C125	C	1.613004	-0.005179	-0.769312
C126	C	1.946338	0.328154	-0.435978
C127	C	1.235126	-0.379983	-0.872240
C128	C	1.568459	-0.046650	-0.538906
C129	C	1.901793	0.286684	-0.205573
C130	C	1.269822	-0.347723	-0.270498
C131	C	1.603155	-0.014389	0.062836
C132	C	1.936488	0.318944	0.396169
C133	C	1.275342	-0.342519	-0.177866
C134	C	1.608675	-0.009185	0.155468
C135	C	1.942008	0.324148	0.488801
H136	H	0.913806	-0.468718	-0.377318
H137	H	1.247140	-0.135385	-0.043984
H138	H	1.580473	0.197949	0.289349
H139	H	1.178177	-0.432895	-1.001819
H140	H	1.511511	-0.099562	-0.668486
H141	H	1.844844	0.233772	-0.335152
Cl142	Cl	1.364619	-0.814481	-0.398280
Cl143	Cl	1.697952	-0.481148	-0.064946
Cl144	Cl	2.031286	-0.147814	0.268387
Cl145	Cl	0.934821	-0.261336	-0.585375
Cl146	Cl	1.268154	0.071998	-0.252042
Cl147	Cl	1.601488	0.405331	0.081292
Cl148	Cl	1.364670	-0.259566	-0.953929
Cl149	Cl	1.698003	0.073767	-0.620595
Cl150	Cl	2.031336	0.407101	-0.287262
H151	H	0.601725	-0.250011	-0.596797
H152	H	0.935058	0.083322	-0.263463
H153	H	1.268391	0.416656	0.069870
Cl154	Cl	0.793535	-0.217840	-0.629050
Cl155	Cl	1.126868	0.115493	-0.295717
Cl156	Cl	1.460202	0.448826	0.037616
H157	H	0.601565	-0.433878	-0.412310
H158	H	0.934898	-0.100545	-0.078977
H159	H	1.268231	0.232788	0.254356
Cl160	Cl	0.721977	-0.500889	-0.345066
Cl161	Cl	1.055310	-0.167556	-0.011732
Cl162	Cl	1.388644	0.165777	0.321601
H163	H	1.178163	-0.881409	-0.552589
H164	H	1.511496	-0.548075	-0.219256
H165	H	1.844830	-0.214742	0.114078
