data_functionalizedCrystal
_audit_creation_method	'MofGen! by Chris Wilmer'
_symmetry_space_group_name_H-M	'P1'
_symmetry_Int_Tables_number	1
_symmetry_cell_setting	triclinic
loop_
_symmetry_equiv_pos_as_xyz
  x,y,z
_cell_length_a	10.723024
_cell_length_b	10.723023
_cell_length_c	9.798715
_cell_angle_alpha	89.997946
_cell_angle_beta	90.003781
_cell_angle_gamma	95.532291
loop_
_atom_site_label
_atom_site_type_symbol
_atom_site_fract_x
_atom_site_fract_y
_atom_site_fract_z
O1	O	-1.657186	0.175025	-0.113498
O2	O	-1.157186	0.675025	0.386502
O3	O	-1.294034	0.191778	-0.113498
O4	O	-0.794034	0.691778	0.386502
O5	O	-1.483987	0.001825	-0.113493
O6	O	-0.983987	0.501825	0.386507
O7	O	-1.467233	0.364978	-0.113502
O8	O	-0.967233	0.864978	0.386498
O9	O	-1.483974	0.001824	0.113489
O10	O	-0.983974	0.501824	0.613489
O11	O	-1.294021	0.191777	0.113485
O12	O	-0.794021	0.691777	0.613485
O13	O	-1.657173	0.175024	0.113484
O14	O	-1.157173	0.675024	0.613484
Zn15	Zn	-1.475595	0.183400	0.149523
Zn16	Zn	-0.975595	0.683400	0.649523
Zn17	Zn	-1.475612	0.183402	-0.149536
Zn18	Zn	-0.975612	0.683402	0.350464
O19	O	-1.467220	0.364976	0.113480
O20	O	-0.967220	0.864976	0.613480
C21	C	-1.247528	0.190558	-0.000007
C22	C	-0.747528	0.690558	0.499993
C23	C	-1.108973	0.186911	-0.000007
C24	C	-0.608973	0.686911	0.499993
C25	C	-1.033991	0.293198	-0.000009
C26	C	-0.533991	0.793198	0.499991
C27	C	-0.890787	0.289431	-0.000009
C28	C	-0.390787	0.789431	0.499991
C29	C	-1.482762	-0.044675	-0.000004
C30	C	-0.982762	0.455325	0.499996
C31	C	-1.479114	-0.183229	-0.000009
C32	C	-0.979114	0.316771	0.499991
C33	C	-1.477481	-0.245008	0.117572
C34	C	-0.977481	0.254992	0.617572
C35	C	-1.473712	-0.388211	0.117569
C36	C	-0.973712	0.111789	0.617569
C37	C	-0.703679	0.176243	-0.000007
C38	C	-0.203679	0.676243	0.499993
C39	C	-0.842234	0.179891	-0.000007
C40	C	-0.342234	0.679891	0.499993
C41	C	-1.468445	0.411477	-0.000012
C42	C	-0.968445	0.911477	0.499988
C43	C	-1.472093	0.550031	-0.000016
C44	C	-0.972093	1.050031	0.499984
N45	N	-1.475592	0.183398	0.353623
N46	N	-0.975592	0.683398	0.853623
N47	N	-1.475625	0.183394	-0.353636
N48	N	-0.975625	0.683394	0.146364
C49	C	-1.555546	0.103469	0.578556
C50	C	-1.055546	0.603469	1.078556
C51	C	-1.555529	0.103471	0.421393
C52	C	-1.055529	0.603471	0.921393
H53	H	-0.826354	0.380421	-0.000017
H54	H	-0.326354	0.880421	0.499983
H55	H	-1.623987	0.035045	0.636852
H56	H	-1.123987	0.535045	1.136852
C57	C	-0.929269	0.056957	-0.000000
C58	C	-0.429269	0.556957	0.500000
N59	N	-0.994833	-0.035637	0.000008
N60	N	-0.494833	0.464363	0.500008
C61	C	-1.647961	0.011018	0.342619
C62	C	-1.147961	0.511018	0.842619
N63	N	-1.717582	-0.058622	0.283282
N64	N	-1.217582	0.441378	0.783282
C65	C	-1.479356	-0.173242	0.253575
C66	C	-0.979356	0.326758	0.753575
N67	N	-1.480764	-0.119189	0.356016
N68	N	-0.980764	0.380811	0.856016
C69	C	-1.471811	-0.459981	0.253570
C70	C	-0.971811	0.040019	0.753570
N71	N	-1.470380	-0.514041	0.356009
N72	N	-0.970380	-0.014041	0.856009
C73	C	-1.383144	0.275842	0.432388
C74	C	-0.883144	0.775842	0.932388
N75	N	-1.313512	0.345472	0.491725
N76	N	-0.813512	0.845472	0.991725
H77	H	-1.407193	0.251827	0.588067
H78	H	-0.907193	0.751827	1.088067
H79	H	-1.075812	0.386984	-0.000004
H80	H	-0.575812	0.886984	0.499996
C81	C	-1.473993	-0.378207	-0.136021
C82	C	-0.973993	0.121793	0.363979
N83	N	-1.475427	-0.324148	-0.238461
N84	N	-0.975427	0.175852	0.261539
H85	H	-1.477728	-0.236356	-0.100676
H86	H	-0.977728	0.263644	0.399324
H87	H	-1.067152	0.093125	-0.000039
H88	H	-0.567152	0.593125	0.499961
