data_functionalizedCrystal
_audit_creation_method	'MofGen! by Chris Wilmer'
_symmetry_space_group_name_H-M	'P1'
_symmetry_Int_Tables_number	1
_symmetry_cell_setting	triclinic
loop_
_symmetry_equiv_pos_as_xyz
  x,y,z
_cell_length_a	21.295420
_cell_length_b	21.295418
_cell_length_c	19.805399
_cell_angle_alpha	90.029354
_cell_angle_beta	89.983906
_cell_angle_gamma	89.968030
loop_
_atom_site_label
_atom_site_type_symbol
_atom_site_fract_x
_atom_site_fract_y
_atom_site_fract_z
Zn1	Zn	0.962288	0.250644	-0.382704
Zn2	Zn	1.462288	0.750644	0.117296
Zn3	Zn	0.962200	0.355916	-0.269515
Zn4	Zn	1.462200	0.855916	0.230485
Zn5	Zn	0.857027	0.250661	-0.269530
Zn6	Zn	1.357027	0.750661	0.230470
Zn7	Zn	0.856975	0.355877	-0.382663
Zn8	Zn	1.356975	0.855877	0.117337
O9	O	0.909622	0.303274	-0.326103
O10	O	1.409622	0.803274	0.173897
O11	O	1.050366	0.264618	-0.367700
O12	O	1.550366	0.764618	0.132300
O13	O	0.948234	0.341977	-0.174800
O14	O	1.448234	0.841977	0.325200
O15	O	0.871049	0.162570	-0.284566
O16	O	1.371049	0.662570	0.215434
O17	O	1.050301	0.341961	-0.284540
O18	O	1.550301	0.841961	0.215460
O19	O	0.948383	0.162557	-0.367714
O20	O	1.448383	0.662557	0.132286
O21	O	0.870964	0.264647	-0.174811
O22	O	1.370964	0.764647	0.325189
O23	O	0.768931	0.264609	-0.284526
O24	O	1.268931	0.764609	0.215474
O25	O	0.870959	0.341894	-0.477385
O26	O	1.370959	0.841894	0.022615
O27	O	0.768892	0.341910	-0.367645
O28	O	1.268892	0.841910	0.132355
O29	O	0.948333	0.264580	-0.477415
O30	O	1.448333	0.764580	0.022585
O31	O	0.948183	0.444000	-0.284501
O32	O	1.448183	0.944000	0.215499
O33	O	0.870874	0.443971	-0.367630
O34	O	1.370874	0.943971	0.132370
C35	C	0.746071	0.303257	-0.326083
C36	C	1.246071	0.803257	0.173917
C37	C	0.676103	0.303265	-0.326091
C38	C	1.176103	0.803265	0.173909
C39	C	0.909531	0.466826	-0.326074
C40	C	1.409531	0.966826	0.173926
C41	C	0.909549	0.536794	-0.326085
C42	C	1.409549	1.036794	0.173915
C43	C	0.176641	0.343599	-0.369340
C44	C	0.676641	0.843599	0.130660
C45	C	0.242384	0.343600	-0.369333
C46	C	0.742384	0.843600	0.130667
C47	C	0.275263	0.303289	-0.326124
C48	C	0.775263	0.803289	0.173876
C49	C	0.242395	0.262986	-0.282906
C50	C	0.742395	0.762986	0.217094
C51	C	0.176654	0.262991	-0.282910
C52	C	0.676654	0.762991	0.217090
N53	N	0.378508	0.248172	-0.321032
N54	N	0.878508	0.748172	0.178968
N55	N	0.440959	0.248169	-0.321033
N56	N	0.940959	0.748169	0.178967
C57	C	0.473338	0.303271	-0.326110
C58	C	0.973338	0.803271	0.173890
N59	N	0.440906	0.358378	-0.331199
N60	N	0.940906	0.858378	0.168801
N61	N	0.378449	0.358381	-0.331202
N62	N	0.878449	0.858381	0.168798
C63	C	0.346549	0.303279	-0.326115
C64	C	0.846549	0.803279	0.173885
C65	C	0.577484	0.343574	-0.369314
C66	C	1.077484	0.843574	0.130686
C67	C	0.643228	0.343576	-0.369302
C68	C	1.143228	0.843576	0.130698
C69	C	0.643238	0.262957	-0.282878
C70	C	1.143238	0.762957	0.217122
C71	C	0.577495	0.262961	-0.282886
C72	C	1.077495	0.762961	0.217114
C73	C	0.544622	0.303269	-0.326108
C74	C	1.044622	0.803269	0.173892
C75	C	0.949901	1.036192	-0.369467
C76	C	1.449901	1.536192	0.130533
C77	C	0.949888	0.970450	-0.369458
C78	C	1.449888	1.470450	0.130542
C79	C	0.909649	0.937634	-0.326130
C80	C	1.409649	1.437634	0.173870
C81	C	0.869431	0.970565	-0.282795
C82	C	1.369431	1.470565	0.217205
C83	C	0.869449	1.036306	-0.282801
C84	C	1.369449	1.536306	0.217199
N85	N	0.854522	0.834462	-0.320874
N86	N	1.354522	1.334462	0.179126
N87	N	0.854507	0.772011	-0.320872
N88	N	1.354507	1.272011	0.179128
C89	C	0.909594	0.739559	-0.326109
C90	C	1.409594	1.239559	0.173891
N91	N	0.964697	0.771918	-0.331361
N92	N	1.464697	1.271918	0.168639
N93	N	0.964712	0.834375	-0.331366
N94	N	1.464712	1.334375	0.168634
C95	C	0.909625	0.866348	-0.326119
C96	C	1.409625	1.366348	0.173881
C97	C	0.949799	0.635350	-0.369428
C98	C	1.449799	1.135350	0.130572
C99	C	0.949788	0.569606	-0.369414
C100	C	1.449788	1.069606	0.130586
C101	C	0.869325	0.569722	-0.282755
C102	C	1.369325	1.069722	0.217245
C103	C	0.869341	0.635465	-0.282765
C104	C	1.369341	1.135465	0.217235
C105	C	0.909578	0.668275	-0.326105
C106	C	1.409578	1.168275	0.173895
C107	C	1.073813	0.303292	-0.326123
C108	C	1.573813	0.803292	0.173877
C109	C	1.143781	0.303300	-0.326131
C110	C	1.643781	0.803300	0.173869
C111	C	0.909708	1.139084	-0.326140
C112	C	1.409708	1.639084	0.173860
C113	C	0.909685	1.069116	-0.326141
C114	C	1.409685	1.569116	0.173859
C115	C	0.909650	0.303231	-0.502646
C116	C	1.409650	0.803231	-0.002646
C117	C	0.909662	0.303212	-0.577878
C118	C	1.409662	0.803212	-0.077878
C119	C	0.869439	0.262943	-0.613227
C120	C	1.369439	0.762943	-0.113227
C121	C	0.869447	0.262930	-0.683915
C122	C	1.369447	0.762930	-0.183915
C123	C	0.909683	0.303185	-0.719253
C124	C	1.409683	0.803185	-0.219253
C125	C	0.949908	0.343459	-0.683899
C126	C	1.449908	0.843459	-0.183899
C127	C	0.949895	0.343474	-0.613212
C128	C	1.449895	0.843474	-0.113212
C129	C	0.949958	0.343400	-0.968972
C130	C	1.449958	0.843400	-0.468972
C131	C	0.949968	0.343381	-1.039664
C132	C	1.449968	0.843381	-0.539664
C133	C	0.869509	0.262857	-1.039676
C134	C	1.369509	0.762857	-0.539676
C135	C	0.869497	0.262871	-0.968989
C136	C	1.369497	0.762871	-0.468989
C137	C	0.909719	0.303148	-0.933641
C138	C	1.409719	0.803148	-0.433641
C139	C	0.909709	0.303161	-0.856992
C140	C	1.409709	0.803161	-0.356992
C141	C	0.909697	0.303169	-0.795900
C142	C	1.409697	0.803169	-0.295900
C143	C	0.909631	0.303273	-0.150247
C144	C	1.409631	0.803273	0.349753
C145	C	0.909741	0.303114	-0.075015
C146	C	1.409741	0.803114	0.424985
H147	H	0.269144	0.376416	-0.404522
H148	H	0.769144	0.876416	0.095478
C149	C	0.994226	0.387666	-1.078535
C150	C	1.494226	0.887666	-0.578535
H151	H	1.018176	0.411659	-1.047359
H152	H	1.518176	0.911659	-0.547359
H153	H	1.021676	0.363584	-1.106119
H154	H	1.521676	0.863584	-0.606119
H155	H	0.970125	0.415083	-1.106100
H156	H	1.470125	0.915083	-0.606100
H157	H	0.982540	0.542799	-0.404694
H158	H	1.482540	1.042799	0.095306
H159	H	0.550740	0.230142	-0.247703
H160	H	1.050740	0.730142	0.252297
C161	C	0.994060	0.671446	-0.417093
C162	C	1.494060	1.171446	0.082907
H163	H	0.988305	0.715315	-0.410899
H164	H	1.488305	1.215315	0.089101
H165	H	1.036359	0.660645	-0.407231
H166	H	1.536359	1.160645	0.092769
H167	H	0.984811	0.660652	-0.462562
H168	H	1.484811	1.160652	0.037438
C169	C	0.825060	0.533632	-0.235096
C170	C	1.325060	1.033632	0.264904
H171	H	0.830806	0.489763	-0.241300
H172	H	1.330806	0.989763	0.258700
H173	H	0.834301	0.544424	-0.189629
H174	H	1.334301	1.044424	0.310371
H175	H	0.782760	0.544436	-0.244966
H176	H	1.282760	1.044436	0.255034
C177	C	0.278559	0.218643	-0.235380
C178	C	0.778559	0.718643	0.264620
H179	H	0.322419	0.224407	-0.241571
H180	H	0.822419	0.724407	0.258429
H181	H	0.267769	0.227803	-0.189885
H182	H	0.767769	0.727803	0.310115
H183	H	0.267807	0.176359	-0.245371
H184	H	0.767807	0.676359	0.254629
C185	C	0.140506	0.218655	-0.235382
C186	C	0.640506	0.718655	0.264618
H187	H	0.169501	0.194644	-0.209649
H188	H	0.669501	0.694644	0.290351
H189	H	0.114835	0.242701	-0.205849
H190	H	0.614835	0.742701	0.294151
H191	H	0.114885	0.191256	-0.261335
H192	H	0.614885	0.691256	0.238665
C193	C	0.825255	0.218562	-1.078561
C194	C	1.325255	0.718562	-0.578561
H195	H	0.831017	0.224323	-1.125721
H196	H	1.331017	0.724323	-0.625721
H197	H	0.834492	0.176270	-1.066993
H198	H	1.334492	0.676270	-0.566993
H199	H	0.782951	0.227780	-1.066964
H200	H	1.282951	0.727780	-0.566964
C201	C	0.825166	0.934473	-0.235135
C202	C	1.325166	1.434473	0.264865
H203	H	0.801219	0.963500	-0.209328
H204	H	1.301219	1.463500	0.290672
H205	H	0.797714	0.908837	-0.260996
H206	H	1.297714	1.408837	0.239004
H207	H	0.849262	0.908823	-0.205665
H208	H	1.349262	1.408823	0.294335
C209	C	0.825096	0.671683	-0.235113
C210	C	1.325096	1.171683	0.264887
H211	H	0.801125	0.642725	-0.209310
H212	H	1.301125	1.142725	0.290690
H213	H	0.849200	0.697327	-0.205649
H214	H	1.349200	1.197327	0.294351
H215	H	0.797657	0.697335	-0.260985
H216	H	1.297657	1.197335	0.239015
C217	C	0.541321	0.387874	-0.416893
C218	C	1.041321	0.887874	0.083107
H219	H	0.570310	0.411870	-0.442633
H220	H	1.070310	0.911870	0.057367
H221	H	0.515720	0.363791	-0.446417
H222	H	1.015720	0.863791	0.053583
H223	H	0.515632	0.415289	-0.390989
H224	H	1.015632	0.915289	0.109011
C225	C	0.825174	0.218667	-0.574362
C226	C	1.325174	0.718667	-0.074362
H227	H	0.801214	0.194688	-0.605541
H228	H	1.301214	0.694688	-0.105541
H229	H	0.849260	0.191245	-0.546794
H230	H	1.349260	0.691245	-0.046794
H231	H	0.797724	0.242759	-0.546781
H232	H	1.297724	0.742759	-0.046781
H233	H	0.982702	0.376202	-0.940200
H234	H	1.482702	0.876202	-0.440200
H235	H	0.982665	0.376238	-0.712676
H236	H	1.482665	0.876238	-0.212676
C237	C	0.825205	0.218630	-0.722797
C238	C	1.325205	0.718630	-0.222797
H239	H	0.801248	0.194652	-0.691627
H240	H	1.301248	0.694652	-0.191627
H241	H	0.797763	0.242697	-0.750362
H242	H	1.297763	0.742697	-0.250362
H243	H	0.849315	0.191199	-0.750382
H244	H	1.349315	0.691199	-0.250382
H245	H	0.669982	0.376397	-0.404486
H246	H	1.169982	0.876397	0.095514
H247	H	0.836735	0.230090	-0.940220
H248	H	1.336735	0.730090	-0.440220
C249	C	0.994141	0.387771	-0.574327
C250	C	1.494141	0.887771	-0.074327
H251	H	1.018109	0.411739	-0.605496
H252	H	1.518109	0.911739	-0.105496
H253	H	0.970036	0.415200	-0.546742
H254	H	1.470036	0.915200	-0.046742
H255	H	1.021583	0.363698	-0.546762
H256	H	1.521583	0.863698	-0.046762
H257	H	0.149880	0.376424	-0.404532
H258	H	0.649880	0.876424	0.095468
H259	H	0.982670	1.062902	-0.404753
H260	H	1.482670	1.562902	0.095247
H261	H	0.670007	0.230137	-0.247694
H262	H	1.170007	0.730137	0.252306
H263	H	0.982638	0.943639	-0.404741
H264	H	1.482638	1.443639	0.095259
C265	C	0.825204	1.072524	-0.235145
C266	C	1.325204	1.572524	0.264855
H267	H	0.801234	1.043566	-0.209340
H268	H	1.301234	1.543566	0.290660
H269	H	0.849308	1.098170	-0.205683
H270	H	1.349308	1.598170	0.294317
H271	H	0.797764	1.098174	-0.261018
H272	H	1.297764	1.598174	0.238982
