data_functionalizedCrystal
_audit_creation_method	'MofGen! by Chris Wilmer'
_symmetry_space_group_name_H-M	'P1'
_symmetry_Int_Tables_number	1
_symmetry_cell_setting	triclinic
loop_
_symmetry_equiv_pos_as_xyz
  x,y,z
_cell_length_a	19.288840
_cell_length_b	14.519731
_cell_length_c	17.766277
_cell_angle_alpha	89.992662
_cell_angle_beta	89.983415
_cell_angle_gamma	83.407434
loop_
_atom_site_label
_atom_site_type_symbol
_atom_site_fract_x
_atom_site_fract_y
_atom_site_fract_z
O1	O	0.921784	0.114934	-0.062722
O2	O	1.421784	0.614934	0.437278
O3	O	0.719578	0.130477	-0.062696
O4	O	1.219578	0.630477	0.437304
O5	O	0.826035	-0.011566	-0.062703
O6	O	1.326035	0.488434	0.437297
O7	O	0.815328	0.256977	-0.062715
O8	O	1.315328	0.756977	0.437285
O9	O	0.826016	-0.011573	0.062486
O10	O	1.326016	0.488427	0.562486
O11	O	0.719559	0.130470	0.062493
O12	O	1.219559	0.630470	0.562493
O13	O	0.921766	0.114927	0.062467
O14	O	1.421766	0.614927	0.562467
Cu15	Cu	0.820661	0.122698	0.073911
Cu16	Cu	1.320661	0.622698	0.573911
Cu17	Cu	0.820683	0.122706	-0.074139
Cu18	Cu	1.320683	0.622706	0.425861
O19	O	0.815309	0.256970	0.062474
O20	O	1.315309	0.756970	0.562474
C21	C	0.693690	0.129977	-0.000098
C22	C	1.193690	0.629977	0.499902
C23	C	0.616580	0.128487	-0.000088
C24	C	1.116580	0.628487	0.499912
C25	C	0.580384	0.127776	-0.068330
C26	C	1.080384	0.627776	0.431670
C27	C	0.507932	0.126366	-0.068339
C28	C	1.007932	0.626366	0.431661
C29	C	0.471681	0.125649	-0.000102
C30	C	0.971681	0.625649	0.499898
C31	C	0.507885	0.126366	0.068149
C32	C	1.007885	0.626366	0.568149
C33	C	0.580335	0.127785	0.068156
C34	C	1.080335	0.627785	0.568156
C35	C	0.362139	0.069381	0.052169
C36	C	0.862139	0.569381	0.552169
C37	C	0.289692	0.067956	0.052159
C38	C	0.789692	0.567956	0.552159
C39	C	0.248221	0.121275	-0.000122
C40	C	0.748221	0.621275	0.499878
C41	C	0.279208	0.176008	-0.052405
C42	C	0.779208	0.676008	0.447595
C43	C	0.351658	0.177427	-0.052398
C44	C	0.851658	0.677427	0.447602
C45	C	0.393121	0.124110	-0.000103
C46	C	0.893121	0.624110	0.499897
C47	C	0.133464	0.119036	-0.068379
C48	C	0.633464	0.619036	0.431621
C49	C	0.061010	0.117631	-0.068385
C50	C	0.561010	0.617631	0.431615
C51	C	0.060965	0.117622	0.068105
C52	C	0.560965	0.617622	0.568105
C53	C	0.133417	0.119036	0.068109
C54	C	0.633417	0.619036	0.568109
C55	C	0.169662	0.119738	-0.000135
C56	C	0.669662	0.619738	0.499865
C57	C	0.825524	-0.045926	-0.000108
C58	C	1.325524	0.454074	0.499892
C59	C	0.824020	-0.148297	-0.000107
C60	C	1.324020	0.351703	0.499893
C61	C	0.822799	-0.231433	-0.000109
C62	C	1.322799	0.268567	0.499891
C63	C	0.821272	-0.335732	-0.000115
C64	C	1.321272	0.164268	0.499885
C65	C	0.820061	-0.418863	-0.000119
C66	C	1.320061	0.081137	0.499881
C67	C	0.818535	-0.523168	-0.000123
C68	C	1.318535	-0.023168	0.499877
C69	C	0.947654	0.115426	-0.000132
C70	C	1.447654	0.615426	0.499868
C71	C	1.024764	0.116916	-0.000147
C72	C	1.524764	0.616916	0.499853
C73	C	0.815820	0.291330	-0.000122
C74	C	1.315820	0.791330	0.499878
C75	C	0.817323	0.393700	-0.000128
C76	C	1.317323	0.893700	0.499872
N77	N	0.820650	0.122691	0.178041
N78	N	1.320650	0.622691	0.678041
N79	N	0.820699	0.122705	-0.178270
N80	N	1.320699	0.622705	0.321730
C81	C	0.867805	0.059825	0.217425
C82	C	1.367805	0.559825	0.717425
C83	C	0.867809	0.059821	0.296227
C84	C	1.367809	0.559821	0.796227
C85	C	0.820665	0.122698	0.335641
C86	C	1.320665	0.622698	0.835641
C87	C	0.773502	0.185569	0.296248
C88	C	1.273502	0.685569	0.796248
C89	C	0.773494	0.185566	0.217448
C90	C	1.273494	0.685566	0.717448
C91	C	0.811673	0.206727	0.460476
C92	C	1.311673	0.706727	0.960476
C93	C	0.811685	0.206732	0.539275
C94	C	1.311685	0.706732	1.039275
C95	C	0.820683	0.122709	0.578688
C96	C	1.320683	0.622709	1.078688
C97	C	0.829684	0.038679	0.539292
C98	C	1.329684	0.538679	1.039292
C99	C	0.829677	0.038675	0.460492
C100	C	1.329677	0.538675	0.960492
C101	C	0.820667	0.122709	0.421087
C102	C	1.320667	0.622709	0.921087
C103	C	0.867845	0.059834	0.703518
C104	C	1.367845	0.559834	1.203518
C105	C	0.867844	0.059828	0.782321
C106	C	1.367844	0.559828	1.282321
C107	C	0.773540	0.185585	0.782341
C108	C	1.273540	0.685585	1.282341
C109	C	0.773538	0.185582	0.703539
C110	C	1.273538	0.685582	1.203539
C111	C	0.820694	0.122708	0.664132
C112	C	1.320694	0.622708	1.164132
H113	H	0.031540	0.117058	-0.123958
H114	H	0.531540	0.617058	0.376042
H115	H	0.837011	-0.029740	0.571380
H116	H	1.337011	0.470260	1.071380
H117	H	0.906240	0.008634	0.671431
H118	H	1.406240	0.508634	1.171431
C119	C	0.173340	0.119817	-0.143440
C120	C	0.673340	0.619817	0.356560
H121	H	0.221674	0.120751	-0.133663
H122	H	0.721674	0.620751	0.366337
H123	H	0.156245	0.173354	-0.171484
H124	H	0.656245	0.673354	0.328516
H125	H	0.166708	0.065812	-0.171477
H126	H	0.666708	0.565812	0.328523
H127	H	0.735152	0.236777	0.814432
H128	H	1.235152	0.736777	1.314432
H129	H	0.609805	0.128366	0.123729
H130	H	1.109805	0.628366	0.623729
H131	H	0.735115	0.236764	0.328343
H132	H	1.235115	0.736764	0.828343
C133	C	0.919712	-0.009330	0.825647
C134	C	1.419712	0.490670	1.325647
H135	H	0.912958	-0.000333	0.878222
H136	H	1.412958	0.499667	1.378222
H137	H	0.966078	0.000525	0.812716
H138	H	1.466078	0.500525	1.312716
H139	H	0.912089	-0.070857	0.812741
H140	H	1.412089	0.429143	1.312741
H141	H	0.804361	0.275154	0.571345
H142	H	1.304361	0.775154	1.071345
H143	H	0.735143	0.236777	0.671470
H144	H	1.235143	0.736777	1.171470
C145	C	0.721627	0.254728	0.174124
C146	C	1.221627	0.754728	0.674124
H147	H	0.693552	0.292180	0.208881
H148	H	1.193552	0.792180	0.708881
H149	H	0.692672	0.221655	0.143396
H150	H	1.192672	0.721655	0.643396
H151	H	0.746665	0.293033	0.143372
H152	H	1.246665	0.793033	0.643372
H153	H	0.804334	0.275152	0.428393
H154	H	1.304334	0.775152	0.928393
H155	H	0.376885	0.221995	-0.094967
H156	H	0.876885	0.721995	0.405033
C157	C	0.919666	-0.009344	0.174081
C158	C	1.419666	0.490656	0.674081
H159	H	0.947746	-0.046791	0.208828
H160	H	1.447746	0.453209	0.708828
H161	H	0.948618	0.023724	0.143321
H162	H	1.448618	0.523724	0.643321
H163	H	0.894625	-0.047653	0.143362
H164	H	1.394625	0.452347	0.643362
H165	H	0.609891	0.128348	-0.123900
H166	H	1.109891	0.628348	0.376100
H167	H	0.906209	0.008626	0.328299
H168	H	1.406209	0.508626	0.828299
H169	H	0.031449	0.117044	0.123665
H170	H	0.531449	0.617044	0.623665
H171	H	0.478456	0.125787	-0.123912
H172	H	0.978456	0.625787	0.376088
H173	H	0.162888	0.119610	0.123680
H174	H	0.662888	0.619610	0.623680
H175	H	0.395900	0.025959	0.094745
H176	H	0.895900	0.525959	0.594745
C177	C	0.233600	0.234666	-0.109914
C178	C	0.733600	0.734666	0.390086
H179	H	0.186013	0.225994	-0.102427
H180	H	0.686013	0.725994	0.397573
H181	H	0.247337	0.215912	-0.159454
H182	H	0.747337	0.715912	0.340546
H183	H	0.239304	0.298288	-0.103329
H184	H	0.739304	0.798288	0.396671
C185	C	0.255611	0.007755	0.109668
C186	C	0.755611	0.507755	0.609668
H187	H	0.290683	-0.023783	0.140814
H188	H	0.790683	0.476217	0.640814
H189	H	0.231587	-0.036237	0.083785
H190	H	0.731587	0.463763	0.583785
H191	H	0.223547	0.046154	0.139896
H192	H	0.723547	0.546154	0.639896
H193	H	0.837004	-0.029745	0.428419
H194	H	1.337004	0.470255	0.928419
C195	C	0.468005	0.125647	0.143207
C196	C	0.968005	0.625647	0.643207
H197	H	0.419670	0.124712	0.133430
H198	H	0.919670	0.624712	0.633430
H199	H	0.474650	0.179668	0.171209
H200	H	0.974650	0.679668	0.671209
H201	H	0.485083	0.072126	0.171287
H202	H	0.985083	0.572126	0.671287
