data_functionalizedCrystal
_audit_creation_method	'MofGen! by Chris Wilmer'
_symmetry_space_group_name_H-M	'P1'
_symmetry_Int_Tables_number	1
_symmetry_cell_setting	triclinic
loop_
_symmetry_equiv_pos_as_xyz
  x,y,z
_cell_length_a	25.639243
_cell_length_b	12.594516
_cell_length_c	12.594517
_cell_angle_alpha	90.003002
_cell_angle_beta	90.004326
_cell_angle_gamma	90.014540
loop_
_atom_site_label
_atom_site_type_symbol
_atom_site_fract_x
_atom_site_fract_y
_atom_site_fract_z
Zn1	Zn	0.799263	-0.423894	0.601926
Zn2	Zn	1.299263	0.076106	1.101926
Zn3	Zn	0.799245	-0.601827	0.423949
Zn4	Zn	1.299245	-0.101827	0.923949
Zn5	Zn	0.711857	-0.423871	0.423948
Zn6	Zn	1.211857	0.076129	0.923948
Zn7	Zn	0.711825	-0.601839	0.601872
Zn8	Zn	1.211825	-0.101839	1.101872
O9	O	0.755547	-0.512858	0.512924
O10	O	1.255547	-0.012858	1.012924
O11	O	0.872425	-0.447501	0.578340
O12	O	1.372425	0.052499	1.078340
O13	O	0.787658	-0.578206	0.275003
O14	O	1.287658	-0.078206	0.775003
O15	O	0.723472	-0.274929	0.447580
O16	O	1.223472	0.225071	0.947580
O17	O	0.872412	-0.578228	0.447581
O18	O	1.372412	-0.078228	0.947581
O19	O	0.787689	-0.274945	0.578339
O20	O	1.287689	0.225055	1.078339
O21	O	0.723455	-0.447463	0.275002
O22	O	1.223455	0.052537	0.775002
O23	O	0.638687	-0.447475	0.447527
O24	O	1.138687	0.052525	0.947527
O25	O	0.723418	-0.578249	0.750825
O26	O	1.223418	-0.078249	1.250825
O27	O	0.638664	-0.578227	0.578247
O28	O	1.138664	-0.078227	1.078247
O29	O	0.787658	-0.447513	0.750865
O30	O	1.287658	0.052487	1.250865
O31	O	0.787628	-0.750774	0.447528
O32	O	1.287628	-0.250774	0.947528
O33	O	0.723401	-0.750783	0.578247
O34	O	1.223401	-0.250783	1.078247
C35	C	0.619705	-0.512851	0.512881
C36	C	1.119705	-0.012851	1.012881
C37	C	0.561591	-0.512873	0.512889
C38	C	1.061591	-0.012873	1.012889
C39	C	0.201229	-0.444896	0.581124
C40	C	0.701229	0.055104	1.081124
C41	C	0.146625	-0.444895	0.581130
C42	C	0.646625	0.055105	1.081130
O43	O	0.118389	-0.387078	0.639093
O44	O	0.618389	0.112922	1.139093
N45	N	0.119308	-0.512855	0.512953
N46	N	0.619308	-0.012855	1.012953
C47	C	0.146599	-0.580813	0.444757
C48	C	0.646599	-0.080813	0.944757
O49	O	0.118350	-0.638617	0.386767
O50	O	0.618350	-0.138617	0.886767
C51	C	0.201202	-0.580807	0.444746
C52	C	0.701202	-0.080807	0.944746
C53	C	0.228516	-0.512850	0.512935
C54	C	0.728516	-0.012850	1.012935
C55	C	0.228542	-0.376943	0.649306
C56	C	0.728542	0.123057	1.149306
C57	C	0.283143	-0.376946	0.649301
C58	C	0.783143	0.123054	1.149301
C59	C	0.310430	-0.444901	0.581113
C60	C	0.810430	0.055099	1.081113
C61	C	0.283116	-0.512853	0.512930
C62	C	0.783116	-0.012853	1.012930
C63	C	0.228492	-0.648759	0.376546
C64	C	0.728492	-0.148759	0.876546
C65	C	0.283099	-0.648747	0.376540
C66	C	0.783099	-0.148747	0.876540
C67	C	0.310413	-0.580790	0.444729
C68	C	0.810413	-0.080790	0.944729
C69	C	0.365004	-0.580810	0.444736
C70	C	0.865004	-0.080810	0.944736
N71	N	0.392320	-0.512850	0.512913
N72	N	0.892320	-0.012850	1.012913
C73	C	0.365033	-0.444895	0.581101
C74	C	0.865033	0.055105	1.081101
C75	C	0.031928	-0.580817	0.444784
C76	C	0.531928	-0.080817	0.944784
C77	C	-0.022674	-0.580829	0.444800
C78	C	0.477326	-0.080829	0.944800
C79	C	-0.022645	-0.444909	0.581172
C80	C	0.477355	0.055091	1.081172
C81	C	0.031959	-0.444904	0.581161
C82	C	0.531959	0.055096	1.081161
C83	C	0.059245	-0.512857	0.512962
C84	C	0.559245	-0.012857	1.012962
C85	C	0.479698	-0.444907	0.581085
C86	C	0.979698	0.055093	1.081085
C87	C	0.534304	-0.444918	0.581077
C88	C	1.034304	0.055082	1.081077
C89	C	0.534270	-0.580834	0.444702
C90	C	1.034270	-0.080834	0.944702
C91	C	0.479669	-0.580826	0.444714
C92	C	0.979669	-0.080826	0.944714
C93	C	0.452385	-0.512854	0.512909
C94	C	0.952385	-0.012854	1.012909
O95	O	0.393274	-0.638595	0.386799
O96	O	0.893274	-0.138595	0.886799
O97	O	0.393289	-0.387091	0.639072
O98	O	0.893289	0.112909	1.139072
C99	C	0.755523	-0.789399	0.512905
C100	C	1.255523	-0.289399	1.012905
C101	C	0.755561	-0.907704	0.512933
C102	C	1.255561	-0.407704	1.012933
C103	C	0.790534	-0.976914	0.441911
C104	C	1.290534	-0.476914	0.941911
C105	C	0.803295	-1.047651	0.539061
C106	C	1.303295	-0.547651	1.039061
C107	C	0.742865	-1.047766	0.415844
C108	C	1.242865	-0.547766	0.915844
C109	C	0.768346	-0.976883	0.610134
C110	C	1.268346	-0.476883	1.110134
C111	C	0.707894	-0.976992	0.486852
C112	C	1.207894	-0.476992	0.986852
C113	C	0.720636	-1.047697	0.584069
C114	C	1.220636	-0.547697	1.084069
C115	C	0.891920	-0.512866	0.512967
C116	C	1.391920	-0.012866	1.012967
C117	C	0.950034	-0.512869	0.512985
C118	C	1.450034	-0.012869	1.012985
C119	C	0.755536	-0.512885	0.790545
C120	C	1.255536	-0.012885	1.290545
C121	C	0.755532	-0.512897	0.908850
C122	C	1.255532	-0.012897	1.408850
C123	C	0.755586	-0.235237	0.512966
C124	C	1.255586	0.264763	1.012966
C125	C	0.755602	-0.116932	0.512983
C126	C	1.255602	0.383068	1.012983
C127	C	0.720591	-0.583994	0.978081
C128	C	1.220591	-0.083994	1.478081
C129	C	0.768288	-0.610026	1.048876
C130	C	1.268288	-0.110026	1.548876
C131	C	0.707837	-0.486892	1.048855
C132	C	1.207837	0.013108	1.548855
C133	C	0.803254	-0.538979	0.978086
C134	C	1.303254	-0.038979	1.478086
C135	C	0.742771	-0.415800	0.978059
C136	C	1.242771	0.084200	1.478059
C137	C	0.790501	-0.441796	1.048821
C138	C	1.290501	0.058204	1.548821
C139	C	0.755547	-0.512863	1.236383
C140	C	1.255547	-0.012863	1.736383
C141	C	0.755529	-0.512877	1.118077
C142	C	1.255529	-0.012877	1.618077
H143	H	0.457429	-0.636175	0.389201
H144	H	0.957429	-0.136175	0.889201
H145	H	0.820082	-0.381663	1.079685
H146	H	1.320082	0.118337	1.579685
H147	H	-0.044872	-0.389574	0.636692
H148	H	0.455128	0.110426	1.136692
Cl149	Cl	0.675001	-1.095386	0.676935
Cl150	Cl	1.175001	-0.595386	1.176935
H151	H	0.556497	-0.636163	0.389187
H152	H	1.056497	-0.136163	0.889187
H153	H	0.667504	-0.464905	1.079941
H154	H	1.167504	0.035095	1.579941
Cl155	Cl	0.194249	-0.291504	0.735042
Cl156	Cl	0.694249	0.208496	1.235042
Cl157	Cl	0.317398	-0.734183	0.290800
Cl158	Cl	0.817398	-0.234183	0.790800
Cl159	Cl	0.865543	-0.573082	0.930300
Cl160	Cl	1.365543	-0.073082	1.430300
H161	H	0.054141	-0.636163	0.389251
H162	H	0.554141	-0.136163	0.889251
Cl163	Cl	0.568637	-0.359483	0.666810
Cl164	Cl	1.068637	0.140517	1.166810
H165	H	0.731962	-0.333720	0.946929
H166	H	1.231962	0.166280	1.446929
Cl167	Cl	0.066290	-0.359466	0.666885
Cl168	Cl	0.566290	0.140534	1.166885
H169	H	0.667577	-0.945928	0.464735
H170	H	1.167577	-0.445928	0.964735
H171	H	0.779061	-0.945880	0.692332
H172	H	1.279061	-0.445880	1.192332
H173	H	0.820115	-0.945834	0.381904
H174	H	1.320115	-0.445834	0.881904
Cl175	Cl	0.726259	-1.095838	0.289048
Cl176	Cl	1.226259	-0.595838	0.789048
H177	H	0.691081	-0.644172	0.947022
H178	H	1.191081	-0.144172	1.447022
Cl179	Cl	0.865561	-1.095552	0.573183
Cl180	Cl	1.365561	-0.595552	1.073183
H181	H	-0.044908	-0.636178	0.389285
H182	H	0.455092	-0.136178	0.889285
Cl183	Cl	0.784957	-0.736786	1.096904
Cl184	Cl	1.284957	-0.236786	1.596904
H185	H	0.457490	-0.389554	0.636613
H186	H	0.957490	0.110446	1.136613
H187	H	0.305377	-0.321607	0.704826
H188	H	0.805377	0.178393	1.204826
Cl189	Cl	0.194169	-0.734175	0.290795
Cl190	Cl	0.694169	-0.234175	0.790795
