data_functionalizedCrystal
_audit_creation_method	'MofGen! by Chris Wilmer'
_symmetry_space_group_name_H-M	'P1'
_symmetry_Int_Tables_number	1
_symmetry_cell_setting	triclinic
loop_
_symmetry_equiv_pos_as_xyz
  x,y,z
_cell_length_a	12.594517
_cell_length_b	12.594516
_cell_length_c	12.594509
_cell_angle_alpha	89.975348
_cell_angle_beta	89.988228
_cell_angle_gamma	90.011939
loop_
_atom_site_label
_atom_site_type_symbol
_atom_site_fract_x
_atom_site_fract_y
_atom_site_fract_z
Zn1	Zn	1.627270	-0.423843	-0.601595
Zn2	Zn	1.627160	-0.601849	-0.423623
Zn3	Zn	1.449273	-0.423872	-0.423655
Zn4	Zn	1.449256	-0.601767	-0.601584
O5	O	1.538240	-0.512833	-0.512614
O6	O	1.776201	-0.447478	-0.577979
O7	O	1.603524	-0.578286	-0.274681
O8	O	1.472938	-0.274922	-0.447277
O9	O	1.776120	-0.578258	-0.447223
O10	O	1.603711	-0.274901	-0.578009
O11	O	1.472831	-0.447527	-0.274705
O12	O	1.300325	-0.447448	-0.447266
O13	O	1.472909	-0.578119	-0.750531
O14	O	1.300313	-0.578147	-0.577989
O15	O	1.603695	-0.447399	-0.750540
O16	O	1.603507	-0.750784	-0.447212
O17	O	1.472802	-0.750724	-0.577959
C18	C	1.261699	-0.512793	-0.512630
C19	C	1.143393	-0.512801	-0.512663
C20	C	1.074164	-0.584027	-0.583626
C21	C	1.003356	-0.486982	-0.609800
C22	C	1.003403	-0.609926	-0.486464
C23	C	1.074143	-0.415704	-0.538888
C24	C	1.074196	-0.538714	-0.415507
C25	C	1.003420	-0.441601	-0.441645
C26	C	1.538170	-0.789374	-0.512604
C27	C	1.538238	-0.907679	-0.512635
C28	C	1.467140	-0.976938	-0.583698
C29	C	1.441206	-1.047799	-0.486580
C30	C	1.564268	-1.047617	-0.609770
C31	C	1.512252	-0.976982	-0.415465
C32	C	1.635360	-0.976793	-0.538721
C33	C	1.609463	-1.047622	-0.441535
C34	C	1.815861	-0.512874	-0.512599
C35	C	1.934166	-0.512891	-0.512592
C36	C	1.538312	-0.512747	-0.790235
C37	C	1.538343	-0.512711	-0.908541
C38	C	1.538339	-0.235212	-0.512648
C39	C	1.538381	-0.116906	-0.512662
C40	C	1.467254	-0.583720	-1.048553
C41	C	1.441231	-0.486653	-0.977752
C42	C	1.564318	-0.609767	-0.977770
C43	C	1.512331	-0.415459	-1.048526
C44	C	1.635464	-0.538639	-1.048550
C45	C	1.609478	-0.441505	-0.977781
C46	C	1.538229	-0.512841	-0.236073
C47	C	1.538404	-0.512578	-0.117768
H48	H	0.972239	-0.465097	-0.691933
O49	O	1.483045	-0.936058	-0.306635
H50	H	1.468634	-1.004175	-0.252569
H51	H	1.105087	-0.333580	-0.561110
H52	H	0.972553	-0.381337	-0.381603
O53	O	1.593366	-1.088714	-0.718565
H54	H	1.534161	-1.060404	-0.777381
H55	H	1.669622	-0.381329	-0.946904
O56	O	1.115475	-0.567742	-0.306754
H57	H	1.087203	-0.648403	-0.285217
O58	O	0.962267	-0.718677	-0.457119
H59	H	0.990623	-0.777612	-0.516165
H60	H	1.105230	-0.644145	-0.643714
H61	H	1.406908	-0.945901	-0.643707
H62	H	1.490294	-0.333299	-1.079476
O63	O	1.332498	-1.089116	-0.457348
H64	H	1.273560	-1.060814	-0.516437
O65	O	1.689192	-1.088485	-0.361867
H66	H	1.667394	-1.060042	-0.281361
H67	H	1.717409	-0.945584	-0.560809
H68	H	1.407064	-0.643750	-1.079628
H69	H	1.359123	-0.464661	-0.946654
H70	H	1.717548	-0.560660	-1.079671
O71	O	1.593400	-0.718562	-0.936598
H72	H	1.534246	-0.777407	-0.964956
