data_functionalizedCrystal
_audit_creation_method	'MofGen! by Chris Wilmer'
_symmetry_space_group_name_H-M	'P1'
_symmetry_Int_Tables_number	1
_symmetry_cell_setting	triclinic
loop_
_symmetry_equiv_pos_as_xyz
  x,y,z
_cell_length_a	15.995350
_cell_length_b	13.262390
_cell_length_c	12.376897
_cell_angle_alpha	92.995385
_cell_angle_beta	77.330371
_cell_angle_gamma	83.981602
loop_
_atom_site_label
_atom_site_type_symbol
_atom_site_fract_x
_atom_site_fract_y
_atom_site_fract_z
O1	O	0.037248	1.298527	0.493213
O2	O	0.063100	1.009881	0.404473
O3	O	-0.072056	1.162094	0.451268
O4	O	0.172404	1.146313	0.446418
O5	O	-0.044864	1.195988	0.273690
O6	O	0.090292	1.043774	0.226895
O7	O	0.064439	1.332420	0.315635
Zn8	Zn	0.081683	1.193478	0.243070
Zn9	Zn	0.045856	1.148823	0.477038
O10	O	0.199595	1.180206	0.268840
C11	C	0.077748	0.989891	0.304329
C12	C	0.080871	0.879831	0.270493
C13	C	0.030374	0.495697	0.562323
C14	C	0.027435	0.599103	0.594115
C15	C	0.040794	0.669290	0.513213
C16	C	0.057093	0.636061	0.400512
C17	C	0.060025	0.532645	0.368716
C18	C	0.070445	0.706238	0.319606
C19	C	0.086744	0.673009	0.206905
C20	C	0.089677	0.569603	0.175115
C21	C	0.076318	0.499416	0.256018
C22	C	0.067512	0.809654	0.351401
C23	C	0.097164	0.846602	0.157794
C24	C	0.100103	0.743196	0.126002
C25	C	-0.089627	1.178388	0.362280
C26	C	-0.182493	1.176431	0.361685
C27	C	-0.519936	1.169408	0.359522
C28	C	-0.467859	1.060928	0.326593
C29	C	-0.371192	1.062961	0.326794
C30	C	-0.352527	1.172891	0.360595
C31	C	-0.380397	1.245714	0.275629
C32	C	-0.476901	1.243007	0.274707
C33	C	-0.508279	1.206704	0.477336
C34	C	-0.411537	1.206422	0.478668
C35	C	-0.257915	1.174867	0.361200
C36	C	-0.614547	1.167437	0.358911
C37	C	0.217166	1.163912	0.357830
C38	C	0.310031	1.165868	0.358432
C39	C	0.049791	1.352410	0.415782
C40	C	0.046666	1.462468	0.449625
N41	N	0.106132	1.223962	0.083396
C42	C	-0.035361	1.047548	-0.325897
C43	C	-0.052475	1.026197	-0.214130
C44	C	-0.012824	1.075636	-0.139743
C45	C	0.043943	1.146431	-0.177134
C46	C	0.061053	1.167790	-0.288910
C47	C	0.083590	1.195878	-0.102756
C48	C	0.140356	1.266673	-0.140147
C49	C	0.157464	1.288028	-0.251912
C50	C	0.117814	1.238589	-0.326299
C51	C	0.066479	1.174519	0.009020
C52	C	0.162893	1.294761	0.046007
C53	C	0.180007	1.316112	-0.065760
N54	N	0.021400	1.118347	0.636714
H55	H	0.078713	0.415212	0.230138
F56	F	0.006066	1.099177	0.048802
H57	H	0.226227	1.373754	-0.096220
H58	H	-0.400592	1.285419	0.509440
H59	H	0.054244	0.836698	0.443163
H60	H	-0.026761	1.058247	-0.048738
H61	H	0.195179	1.335019	0.106574
H62	H	0.102933	0.542554	0.083348
F63	F	0.117448	0.707817	0.006060
F64	F	0.111376	0.921297	0.071685
F65	F	-0.317793	1.025817	0.214619
H66	H	-0.543612	1.286498	0.502592
H67	H	-0.098696	0.968559	-0.183694
H68	H	-0.352077	1.007057	0.386563
H69	H	0.131749	1.255965	-0.417312
H70	H	0.038401	0.753487	0.539105
H71	H	0.014160	0.626152	0.685877
F72	F	-0.504176	0.986150	0.404231
H73	H	-0.067644	1.007309	-0.386468
H74	H	0.203679	1.345683	-0.282348
F75	F	0.016123	0.421001	0.648414
F76	F	-0.476864	1.022392	0.214955
H77	H	-0.369198	1.327197	0.296691
F78	F	-0.483442	1.210952	0.159960
F79	F	-0.522646	1.348181	0.300667
H80	H	-0.338848	1.222981	0.188748
F81	F	-0.388349	1.137001	0.561146
F82	F	-0.548489	1.141197	0.563552
