data_functionalizedCrystal
_audit_creation_method	'MofGen! by Chris Wilmer'
_symmetry_space_group_name_H-M	'P1'
_symmetry_Int_Tables_number	1
_symmetry_cell_setting	triclinic
loop_
_symmetry_equiv_pos_as_xyz
  x,y,z
_cell_length_a	13.897449
_cell_length_b	13.897448
_cell_length_c	13.897449
_cell_angle_alpha	90.009266
_cell_angle_beta	90.006536
_cell_angle_gamma	90.018519
loop_
_atom_site_label
_atom_site_type_symbol
_atom_site_fract_x
_atom_site_fract_y
_atom_site_fract_z
Zn1	Zn	1.474542	-0.384166	0.545449
Zn2	Zn	1.474484	-0.545428	0.384151
Zn3	Zn	1.313279	-0.384151	0.384160
Zn4	Zn	1.313213	-0.545423	0.545396
O5	O	1.393879	-0.464792	0.464789
O6	O	1.609516	-0.405566	0.524071
O7	O	1.453102	-0.524029	0.249170
O8	O	1.334723	-0.249171	0.405582
O9	O	1.609473	-0.524044	0.405566
O10	O	1.453202	-0.249182	0.524080
O11	O	1.334666	-0.405540	0.249177
O12	O	1.178288	-0.405535	0.405530
O13	O	1.334611	-0.524036	0.680384
O14	O	1.178240	-0.524021	0.523989
O15	O	1.453138	-0.405562	0.680424
O16	O	1.453039	-0.680409	0.405514
O17	O	1.334554	-0.680405	0.523980
C18	C	1.143265	-0.464777	0.464755
C19	C	1.036051	-0.464794	0.464764
C20	C	1.393809	-0.715406	0.464761
C21	C	1.393867	-0.822620	0.464781
C22	C	0.948981	-0.464797	0.464780
C23	C	0.839749	-0.464804	0.464809
C24	C	1.393968	-1.018915	0.464842
C25	C	1.393909	-0.909683	0.464811
C26	C	1.645472	-0.464807	0.464823
C27	C	1.752686	-0.464814	0.464838
C28	C	1.393874	-0.464800	0.716382
C29	C	1.393871	-0.464804	0.823596
C30	C	1.393976	-0.213199	0.464838
C31	C	1.394018	-0.105985	0.464859
C32	C	1.393869	-0.464807	0.910666
C33	C	1.393868	-0.464803	1.019898
C34	C	1.393876	-0.464803	1.214175
C35	C	1.393873	-0.464794	1.106961
