data_functionalizedCrystal
_audit_creation_method	'MofGen! by Chris Wilmer'
_symmetry_space_group_name_H-M	'P1'
_symmetry_Int_Tables_number	1
_symmetry_cell_setting	triclinic
loop_
_symmetry_equiv_pos_as_xyz
  x,y,z
_cell_length_a	17.699083
_cell_length_b	27.732064
_cell_length_c	16.776229
_cell_angle_alpha	89.997427
_cell_angle_beta	89.998886
_cell_angle_gamma	82.966219
loop_
_atom_site_label
_atom_site_type_symbol
_atom_site_fract_x
_atom_site_fract_y
_atom_site_fract_z
O1	O	1.003545	0.061126	-0.066169
O2	O	0.783098	0.069079	-0.066194
O3	O	0.900161	-0.005269	-0.066184
O4	O	0.886481	0.135474	-0.066180
O5	O	0.900146	-0.005273	0.066392
O6	O	0.783082	0.069075	0.066382
O7	O	1.003530	0.061122	0.066407
Zn8	Zn	0.893304	0.065097	0.087444
Zn9	Zn	0.893324	0.065103	-0.087231
O10	O	0.886466	0.135470	0.066397
C11	C	0.754895	0.068792	0.000090
C12	C	0.670885	0.067937	0.000081
C13	C	0.899865	-0.023279	0.000102
C14	C	0.898994	-0.076936	0.000094
C15	C	0.621883	0.111578	0.000082
C16	C	0.542947	0.110771	0.000092
C17	C	0.513014	0.066324	0.000095
C18	C	0.562022	0.022680	0.000096
C19	C	0.640956	0.023487	0.000092
C20	C	0.243687	0.019426	0.000116
C21	C	0.164746	0.018623	0.000118
C22	C	0.145677	0.106711	0.000117
C23	C	0.224612	0.107517	0.000112
C24	C	0.273613	0.063874	0.000117
C25	C	0.359205	0.064748	0.000107
C26	C	0.427424	0.065449	0.000099
C27	C	0.823889	-0.454279	0.000082
C28	C	0.827093	-0.252607	0.000082
O29	O	0.768814	-0.221564	0.000043
N30	N	0.896510	-0.233230	0.000089
C31	C	0.965131	-0.264275	0.000092
O32	O	1.024247	-0.243166	0.000091
C33	C	0.961926	-0.465946	0.000087
C34	C	0.892505	-0.485320	0.000087
C35	C	0.754474	-0.473654	0.000082
C36	C	0.753673	-0.524069	0.000086
C37	C	0.822289	-0.555109	0.000091
C38	C	0.891704	-0.535735	0.000092
C39	C	1.030546	-0.496989	0.000084
C40	C	1.029738	-0.547409	0.000081
C41	C	0.960317	-0.566783	0.000081
C42	C	0.959520	-0.617190	0.000102
N43	N	0.890103	-0.636567	0.000094
C44	C	0.821487	-0.605527	0.000089
C45	C	0.966808	-0.158394	0.000096
C46	C	0.967610	-0.107977	0.000099
C47	C	0.829572	-0.096313	0.000087
C48	C	0.828771	-0.146731	0.000090
C49	C	0.897391	-0.177771	0.000089
C50	C	0.819812	-0.711402	0.000099
C51	C	0.819018	-0.761822	0.000107
C52	C	0.957055	-0.773482	0.000115
C53	C	0.957850	-0.723066	0.000111
C54	C	0.889222	-0.692027	0.000100
O55	O	1.017767	-0.648262	0.000131
O56	O	0.762379	-0.626645	0.000073
C57	C	0.824689	-0.403864	0.000078
C58	C	0.894105	-0.384490	0.000078
C59	C	0.962720	-0.415530	0.000084
C60	C	0.894906	-0.334072	0.000081
C61	C	0.826291	-0.303032	0.000076
C62	C	0.756874	-0.322409	0.000068
C63	C	0.756074	-0.372824	0.000073
C64	C	1.032137	-0.396153	0.000091
C65	C	1.032932	-0.345737	0.000088
C66	C	0.964316	-0.314697	0.000083
C67	C	1.031732	0.061409	0.000121
C68	C	1.115743	0.062264	0.000125
C69	C	0.886763	0.153480	0.000109
C70	C	0.887633	0.207137	0.000112
N71	N	0.893295	0.065093	0.206655
N72	N	0.893338	0.065104	-0.206442
C73	C	0.945147	0.032185	0.248377
C74	C	0.945151	0.032185	0.331829
C75	C	0.893307	0.065095	0.373558
C76	C	0.841450	0.098004	0.331831
C77	C	0.841443	0.098002	0.248380
C78	C	0.841477	0.098014	0.668378
C79	C	0.841490	0.098014	0.751834
C80	C	0.945185	0.032197	0.751827
C81	C	0.945178	0.032194	0.668376
C82	C	0.893319	0.065102	0.626656
C83	C	0.893314	0.065101	0.536168
C84	C	0.893315	0.065098	0.464045
H85	H	0.646248	0.147772	0.000079
H86	H	0.283575	-0.016111	0.000120
H87	H	0.105771	0.142248	0.000117
C88	C	0.696824	-0.239940	0.000051
C89	C	0.681450	-0.288282	0.000057
H90	H	0.650263	-0.218871	0.000036
H91	H	0.725302	-0.234079	0.046285
H92	H	0.725324	-0.234084	-0.046181
H93	H	0.652955	-0.294139	0.046292
H94	H	0.652960	-0.294146	-0.046181
C95	C	1.047644	-0.032878	0.256761
C96	C	1.002135	-0.003992	0.202512
H97	H	1.082822	-0.055215	0.228445
H98	H	1.074635	-0.012778	0.289300
H99	H	1.016337	-0.050237	0.289318
H100	H	1.033442	0.013369	0.169958
H101	H	0.975142	-0.024094	0.169959
H102	H	1.014378	-0.707291	0.000122
H103	H	1.012920	-0.798764	0.000123
C104	C	0.740794	-0.026706	-0.068065
C105	C	0.694825	-0.024483	0.000087
H106	H	0.774053	-0.056320	-0.068061
H107	H	0.709604	-0.025192	-0.114288
H108	H	0.769911	-0.000116	-0.068058
H109	H	0.665704	-0.051071	0.000077
H110	H	0.726019	-0.026002	0.046322
H111	H	1.087076	-0.481224	0.000084
C112	C	1.047675	-0.032870	0.676753
C113	C	1.002164	-0.003983	0.622509
H114	H	1.082852	-0.055207	0.648435
H115	H	1.074669	-0.012771	0.709292
H116	H	1.016369	-0.050229	0.709312
H117	H	1.033470	0.013379	0.589954
H118	H	0.975169	-0.024084	0.589956
C119	C	0.502388	0.185605	-0.068070
C120	C	0.489086	0.158743	0.000089
H121	H	0.469133	0.215221	-0.068073
H122	H	0.553677	0.192442	-0.068070
H123	H	0.493362	0.167370	-0.114293
H124	H	0.498117	0.176977	0.046312
H125	H	0.437784	0.151907	0.000095
H126	H	0.987372	0.005389	0.365798
C127	C	1.166265	-0.553870	0.000085
C128	C	1.105170	-0.581528	0.000083
H129	H	1.212832	-0.574934	0.000093
H130	H	1.163706	-0.533964	-0.046146
H131	H	1.163697	-0.533961	0.046319
H132	H	1.107736	-0.601434	-0.046154
H133	H	1.107731	-0.601442	0.046319
H134	H	0.699544	-0.388593	0.000073
C135	C	0.738341	0.108577	0.425698
C136	C	0.784462	0.134179	0.377701
H137	H	0.703163	0.130911	0.454019
H138	H	0.711349	0.088482	0.393150
H139	H	0.769233	0.088979	0.462485
H140	H	0.753570	0.153774	0.340910
H141	H	0.811455	0.154282	0.410252
H142	H	0.248979	0.143711	0.000106
H143	H	0.987410	0.005400	0.785804
H144	H	0.799219	0.124798	0.214411
C145	C	0.710134	0.126494	0.777555
C146	C	0.784493	0.134187	0.797707
H147	H	0.674950	0.148823	0.805880
H148	H	0.702708	0.131206	0.721892
H149	H	0.702312	0.094237	0.791240
H150	H	0.792316	0.166443	0.784017
H151	H	0.791921	0.129479	0.853383
C152	C	0.796061	0.181729	0.642696
C153	C	0.784481	0.134191	0.622530
H154	H	0.760875	0.204065	0.614386
H155	H	0.788651	0.186433	0.698363
H156	H	0.846511	0.186930	0.629003
H157	H	0.734033	0.128989	0.636228
H158	H	0.791885	0.129485	0.566851
C159	C	0.672666	-0.573995	0.068224
C160	C	0.677363	-0.545361	0.000074
H161	H	0.625551	-0.587135	0.068213
H162	H	0.713406	-0.599699	0.068224
H163	H	0.675843	-0.554567	0.114453
H164	H	0.674191	-0.564791	-0.046156
H165	H	0.636612	-0.519654	0.000067
C166	C	0.191520	-0.068375	0.000138
C167	C	0.131842	-0.030237	0.000129
H168	H	0.171205	-0.098537	0.000149
H169	H	0.221910	-0.066232	-0.046093
H170	H	0.221912	-0.066225	0.046372
H171	H	0.101454	-0.032386	-0.046108
H172	H	0.101440	-0.032381	0.046365
C173	C	0.738017	-0.811747	0.068259
C174	C	0.742704	-0.783117	0.000103
H175	H	0.690903	-0.824889	0.068256
H176	H	0.778759	-0.837449	0.068258
H177	H	0.741196	-0.792316	0.114484
H178	H	0.739531	-0.802549	-0.046122
H179	H	0.701951	-0.757411	0.000096
C180	C	0.712174	-0.070841	-0.068086
C181	C	0.754146	-0.062189	0.000075
H182	H	0.665610	-0.049774	-0.068093
H183	H	0.740675	-0.064975	-0.114302
H184	H	0.701762	-0.103641	-0.068078
H185	H	0.764563	-0.029390	0.000065
H186	H	0.725639	-0.068051	0.046304
H187	H	0.698595	-0.448385	0.000075
H188	H	0.537644	-0.013510	0.000110
H189	H	0.763929	-0.686136	0.000090
H190	H	1.022690	-0.183663	0.000097
C191	C	1.085514	-0.102402	-0.068047
C192	C	1.043919	-0.086683	0.000106
H193	H	1.132624	-0.089254	-0.068047
H194	H	1.094850	-0.136867	-0.068040
H195	H	1.057282	-0.091736	-0.114274
H196	H	1.072148	-0.097352	0.046333
H197	H	1.034586	-0.052211	0.000106
C198	C	1.169299	-0.362344	0.000085
C199	C	1.109248	-0.324446	0.000085
H200	H	1.216410	-0.349199	0.000073
H201	H	1.166114	-0.381762	0.046319
H202	H	1.166103	-0.381768	-0.046146
H203	H	1.112440	-0.305023	0.046319
H204	H	1.112433	-0.305019	-0.046154
H205	H	1.088014	-0.421422	0.000095
H206	H	0.772242	-0.162502	0.000094
