data_functionalizedCrystal
_audit_creation_method	'MofGen! by Chris Wilmer'
_symmetry_space_group_name_H-M	'P1'
_symmetry_Int_Tables_number	1
_symmetry_cell_setting	triclinic
loop_
_symmetry_equiv_pos_as_xyz
  x,y,z
_cell_length_a	14.971486
_cell_length_b	14.971486
_cell_length_c	9.130313
_cell_angle_alpha	89.995272
_cell_angle_beta	90.001434
_cell_angle_gamma	83.614129
loop_
_atom_site_label
_atom_site_type_symbol
_atom_site_fract_x
_atom_site_fract_y
_atom_site_fract_z
O1	O	1.186943	0.116563	-0.121632
O2	O	1.686943	0.616563	0.378368
O3	O	0.926543	0.130521	-0.121672
O4	O	1.426543	0.630521	0.378328
O5	O	1.063723	-0.006658	-0.121640
O6	O	1.563723	0.493342	0.378360
O7	O	1.049764	0.253742	-0.121663
O8	O	1.549764	0.753742	0.378337
O9	O	1.063713	-0.006662	0.121959
O10	O	1.563713	0.493338	0.621959
O11	O	0.926534	0.130517	0.121927
O12	O	1.426534	0.630517	0.621927
O13	O	1.186934	0.116559	0.121967
O14	O	1.686934	0.616559	0.621967
Cu15	Cu	1.056733	0.123538	0.144190
Cu16	Cu	1.556733	0.623538	0.644190
Cu17	Cu	1.056744	0.123542	-0.143894
Cu18	Cu	1.556744	0.623542	0.356106
O19	O	1.049755	0.253738	0.121936
O20	O	1.549755	0.753738	0.621936
C21	C	0.893214	0.129895	0.000123
C22	C	1.393214	0.629895	0.500123
C23	C	0.793917	0.128024	0.000108
C24	C	1.293917	0.628024	0.500108
C25	C	0.736692	0.208614	0.000103
C26	C	1.236692	0.708614	0.500103
C27	C	0.643392	0.206850	0.000125
C28	C	1.143392	0.706850	0.500125
C29	C	0.607320	0.124497	0.000141
C30	C	1.107320	0.624497	0.500141
C31	C	0.664552	0.043902	0.000151
C32	C	1.164552	0.543902	0.500151
C33	C	0.757850	0.045666	0.000139
C34	C	1.257850	0.545666	0.500139
C35	C	0.470090	0.040231	0.000171
C36	C	0.970090	0.540231	0.500171
C37	C	0.376786	0.038466	0.000180
C38	C	0.876786	0.538466	0.500180
C39	C	0.355632	0.201415	0.000157
C40	C	0.855632	0.701415	0.500157
C41	C	0.448930	0.203179	0.000145
C42	C	0.948930	0.703179	0.500145
C43	C	0.506156	0.122584	0.000152
C44	C	1.006156	0.622584	0.500152
C45	C	1.063094	-0.039985	0.000159
C46	C	1.563094	0.460015	0.500159
C47	C	1.061223	-0.139282	0.000157
C48	C	1.561223	0.360718	0.500157
C49	C	1.141812	-0.196507	0.000171
C50	C	1.641812	0.303493	0.500171
C51	C	1.140049	-0.289807	0.000156
C52	C	1.640049	0.210193	0.500156
C53	C	1.057696	-0.325879	0.000138
C54	C	1.557696	0.174121	0.500138
C55	C	0.977101	-0.268646	0.000120
C56	C	1.477101	0.231354	0.500120
C57	C	0.978865	-0.175349	0.000124
C58	C	1.478865	0.324651	0.500124
C59	C	0.973430	-0.463109	0.000114
C60	C	1.473430	0.036891	0.500114
C61	C	0.971665	-0.556413	0.000112
C62	C	1.471665	-0.056413	0.500112
C63	C	1.134614	-0.577567	0.000145
C64	C	1.634614	-0.077567	0.500145
C65	C	1.136378	-0.484269	0.000150
C66	C	1.636378	0.015731	0.500150
C67	C	1.055782	-0.427043	0.000135
C68	C	1.555782	0.072957	0.500135
C69	C	1.220263	0.117185	0.000170
C70	C	1.720263	0.617185	0.500170
C71	C	1.319561	0.119056	0.000175
C72	C	1.819561	0.619056	0.500175
C73	C	1.050384	0.287065	0.000134
C74	C	1.550384	0.787065	0.500134
C75	C	1.052254	0.386362	0.000126
C76	C	1.552254	0.886362	0.500126
N77	N	1.056732	0.123534	0.346812
N78	N	1.556732	0.623534	0.846812
N79	N	1.056753	0.123539	-0.346517
N80	N	1.556753	0.623539	0.153483
C81	C	1.117495	0.062816	0.423478
C82	C	1.617495	0.562816	0.923478
C83	C	1.117504	0.062816	0.576815
C84	C	1.617504	0.562816	1.076815
C85	C	0.995983	0.184260	0.576807
C86	C	1.495983	0.684260	1.076807
C87	C	0.995971	0.184254	0.423473
C88	C	1.495971	0.684254	0.923473
H89	H	0.596802	0.272474	0.000119
H90	H	1.096802	0.772474	0.500119
H91	H	0.946485	0.233698	0.361047
H92	H	1.446485	0.733698	0.861047
H93	H	0.907800	-0.416517	0.000098
H94	H	1.407800	0.083483	0.500098
H95	H	0.766054	0.275675	0.000088
H96	H	1.266054	0.775675	0.500088
H97	H	0.516682	-0.025399	0.000179
H98	H	1.016682	0.474601	0.500179
O99	O	0.487843	0.292000	0.000146
O100	O	0.987843	0.792000	0.500146
H101	H	0.432377	0.347747	0.000165
H102	H	0.932377	0.847747	0.500165
H103	H	0.904606	-0.585780	0.000121
H104	H	1.404606	-0.085780	0.500121
H105	H	0.309033	0.267039	0.000158
H106	H	0.809033	0.767039	0.500158
O107	O	1.183052	-0.002660	0.659511
O108	O	1.683052	0.497340	1.159511
H109	H	1.225305	-0.044874	0.580438
H110	H	1.725305	0.455126	1.080438
O111	O	0.337881	-0.050359	0.000225
O112	O	0.837881	0.449641	0.500225
H113	H	0.263391	-0.038041	0.000220
H114	H	0.763391	0.461959	0.500220
O115	O	0.625652	-0.044925	0.000181
O116	O	1.125652	0.455075	0.500181
H117	H	0.583653	-0.049634	-0.099106
H118	H	1.083653	0.450366	0.400894
H119	H	0.804443	-0.019958	0.000143
H120	H	1.304443	0.480042	0.500143
O121	O	0.930462	0.249763	0.659488
O122	O	1.430462	0.749763	1.159488
H123	H	0.886961	0.212048	0.729382
H124	H	1.386961	0.712048	1.229382
O125	O	1.230637	-0.157601	0.000176
O126	O	1.730637	0.342399	0.500176
H127	H	1.286378	-0.213072	0.000164
H128	H	1.786378	0.286928	0.500164
O129	O	1.226969	-0.351532	0.000194
O130	O	1.726969	0.148468	0.500194
H131	H	1.284531	-0.310774	0.000234
H132	H	1.784531	0.189226	0.500234
H133	H	1.166970	0.013372	0.361065
H134	H	1.666970	0.513372	0.861065
H135	H	1.203437	-0.454903	0.000175
H136	H	1.703437	0.045097	0.500175
O137	O	1.221549	-0.639279	0.000158
O138	O	1.721549	-0.139279	0.500158
H139	H	1.224659	-0.682278	-0.099139
H140	H	1.724659	-0.182278	0.400861
H141	H	0.910047	-0.298024	0.000096
H142	H	1.410047	0.201976	0.500096
O143	O	0.891945	-0.113620	0.000126
O144	O	1.391945	0.386380	0.500126
H145	H	0.834382	-0.154375	0.000130
H146	H	1.334382	0.345625	0.500130
