data_functionalizedCrystal
_audit_creation_method	'MofGen! by Chris Wilmer'
_symmetry_space_group_name_H-M	'P1'
_symmetry_Int_Tables_number	1
_symmetry_cell_setting	triclinic
loop_
_symmetry_equiv_pos_as_xyz
  x,y,z
_cell_length_a	27.440280
_cell_length_b	27.440280
_cell_length_c	27.440280
_cell_angle_alpha	60.003398
_cell_angle_beta	90.005633
_cell_angle_gamma	60.004534
loop_
_atom_site_label
_atom_site_type_symbol
_atom_site_fract_x
_atom_site_fract_y
_atom_site_fract_z
Zr1	Zr	0.469572	0.533327	-0.063884
O2	O	0.391768	0.634989	-0.141703
O3	O	0.493414	0.431666	-0.040030
O4	O	0.493430	0.533315	-0.141691
O5	O	0.391750	0.533349	0.040152
O6	O	0.573633	0.533306	-0.141681
O7	O	0.391752	0.533339	-0.040041
O8	O	0.573604	0.351473	0.040173
O9	O	0.391779	0.715181	-0.141702
O10	O	0.563448	0.473473	-0.029848
O11	O	0.503592	0.473488	0.029992
O12	O	0.503610	0.593167	-0.089701
O13	O	0.443754	0.593181	-0.029861
Zr14	Zr	0.597483	0.533327	0.064031
Zr15	Zr	0.597486	0.533312	-0.063868
Zr16	Zr	0.469568	0.533342	0.064015
Zr17	Zr	0.469588	0.661225	-0.063883
Zr18	Zr	0.597466	0.405430	0.064029
O19	O	0.573641	0.634989	0.040176
O20	O	0.573646	0.634967	-0.141680
O21	O	0.391763	0.635010	0.040153
O22	O	0.675286	0.431666	0.141849
O23	O	0.675291	0.431644	-0.040007
O24	O	0.493409	0.431687	0.141826
O25	O	0.675304	0.533306	-0.040006
O26	O	0.573625	0.533339	0.141838
O27	O	0.493422	0.533349	0.141828
O28	O	0.675302	0.533315	0.040188
O29	O	0.493453	0.715169	-0.141689
O30	O	0.573601	0.351485	0.141835
O31	O	0.675276	0.351473	0.141848
O32	O	0.675279	0.351461	0.040185
O33	O	0.391776	0.715193	-0.040039
O34	O	0.493450	0.715181	-0.040026
O35	O	0.563444	0.473488	0.089847
O36	O	0.623300	0.473474	0.030007
O37	O	0.563463	0.593167	-0.029846
O38	O	0.503607	0.593181	0.029994
C39	C	0.533507	0.373347	0.000071
C40	C	0.533500	0.319051	0.000071
C41	C	0.564788	-0.017699	-0.031157
C42	C	0.564794	-0.068722	-0.031156
O43	O	0.591384	-0.095135	-0.057702
N44	N	0.533549	-0.094231	0.000079
C45	C	0.502301	-0.068718	0.031319
O46	O	0.475726	-0.095101	0.057887
C47	C	0.502300	-0.017699	0.031320
C48	C	0.533542	0.007812	0.000079
C49	C	0.596028	0.007812	-0.062396
C50	C	0.596022	0.058833	-0.062398
C51	C	0.564775	0.084344	-0.031162
C52	C	0.533535	0.058833	0.000076
C53	C	0.471056	0.007809	0.062563
C54	C	0.471058	0.058832	0.062563
C55	C	0.502300	0.084343	0.031321
C56	C	0.502283	0.135365	0.031310
N57	N	0.533527	0.160874	0.000075
C58	C	0.564774	0.135364	-0.031161
C59	C	0.502308	-0.175864	0.031314
C60	C	0.502306	-0.226879	0.031309
C61	C	0.564799	-0.226880	-0.031164
C62	C	0.564797	-0.175861	-0.031163
C63	C	0.533553	-0.150355	0.000079
C64	C	0.564757	0.242512	-0.031164
C65	C	0.564746	0.293540	-0.031166
C66	C	0.502256	0.293534	0.031311
C67	C	0.502264	0.242514	0.031310
C68	C	0.533519	0.217002	0.000072
O69	O	0.475708	0.161808	0.057845
O70	O	0.591351	0.161746	-0.057718
C71	C	0.373526	0.533346	0.000053
C72	C	0.319223	0.533352	0.000046
C73	C	0.013760	0.470837	0.031332
C74	C	-0.037258	0.470833	0.031338
O75	O	-0.037083	0.417698	0.057927
N76	N	-0.094010	0.533311	0.000094
C77	C	-0.099742	0.595797	-0.031152
O78	O	-0.152698	0.648939	-0.057726
C79	C	-0.048724	0.595800	-0.031153
C80	C	0.008027	0.533318	0.000088
C81	C	0.070508	0.408360	0.062571
C82	C	0.121523	0.408364	0.062565
C83	C	0.115790	0.470845	0.031320
C84	C	0.059042	0.533322	0.000081
C85	C	-0.054457	0.658286	-0.062395
C86	C	-0.003432	0.658283	-0.062393
C87	C	0.053318	0.595801	-0.031153
C88	C	0.104323	0.595807	-0.031170
N89	N	0.161074	0.533329	0.000073
C90	C	0.166808	0.470848	0.031318
C91	C	-0.206880	0.595786	-0.031145
C92	C	-0.257898	0.595784	-0.031148
C93	C	-0.195411	0.470819	0.031343
C94	C	-0.144393	0.470823	0.031341
C95	C	-0.150129	0.533308	0.000098
C96	C	0.273940	0.470862	0.031302
C97	C	0.324956	0.470871	0.031291
C98	C	0.262465	0.595835	-0.031196
C99	C	0.211453	0.595826	-0.031188
C100	C	0.217194	0.533334	0.000066
O101	O	0.104193	0.648916	-0.057744
O102	O	0.219765	0.417715	0.057894
C103	C	0.693528	0.533308	0.000093
C104	C	0.747831	0.533302	0.000100
C105	C	0.533532	0.533308	-0.159909
C106	C	0.533533	0.533302	-0.214206
C107	C	0.533548	0.693308	0.000075
C108	C	0.533555	0.747604	0.000076
C109	C	0.564775	0.470837	-0.417671
C110	C	0.564776	0.470833	-0.366649
O111	O	0.591357	0.417698	-0.313690
N112	N	0.533539	0.533311	-0.372374
C113	C	0.502303	0.595797	-0.429127
O114	O	0.475734	0.648939	-0.429311
C115	C	0.502305	0.595800	-0.480147
C116	C	0.533540	0.533318	-0.474417
C117	C	0.596007	0.408360	-0.411943
C118	C	0.596005	0.408364	-0.462962
C119	C	0.564770	0.470845	-0.519709
C120	C	0.533537	0.533322	-0.525436
C121	C	0.471073	0.658286	-0.536899
C122	C	0.471079	0.658283	-0.587920
C123	C	0.502313	0.595801	-0.582190
C124	C	0.502300	0.595808	-0.633202
N125	N	0.533537	0.533330	-0.627476
C126	C	0.564772	0.470848	-0.570730
C127	C	0.502301	0.595786	-0.321977
C128	C	0.502295	0.595784	-0.270957
C129	C	0.564770	0.470819	-0.208482
C130	C	0.564772	0.470822	-0.259503
C131	C	0.533539	0.533308	-0.316251
C132	C	0.564764	0.470862	-0.677875
C133	C	0.564757	0.470871	-0.728902
C134	C	0.502285	0.595835	-0.791371
C135	C	0.502289	0.595826	-0.740350
C136	C	0.533533	0.533334	-0.683600
O137	O	0.475735	0.648916	-0.686179
O138	O	0.591343	0.417715	-0.570555
C139	C	0.533523	0.533346	0.160055
C140	C	0.533521	0.533352	0.214352
C141	C	0.693508	0.373328	0.000091
C142	C	0.747804	0.319026	0.000097
C143	C	0.533502	0.373366	0.160054
C144	C	0.533494	0.319076	0.214349
C145	C	0.693503	0.373347	0.160074
C146	C	0.747798	0.319051	0.214376
C147	C	0.373551	0.693308	-0.159927
C148	C	0.319257	0.747603	-0.214230
C149	C	0.373547	0.693326	0.000055
C150	C	0.319251	0.747629	0.000049
C151	C	0.533552	0.693289	-0.159907
C152	C	0.533561	0.747578	-0.214203
C153	C	0.742059	0.293525	-0.031149
C154	C	0.793071	0.242509	-0.031155
C155	C	0.849827	0.216992	0.000089
C156	C	0.855570	0.242498	0.031336
C157	C	0.804559	0.293516	0.031338
C158	C	0.564732	0.293581	0.271096
C159	C	0.564722	0.242578	0.322118
C160	C	0.533476	0.217066	0.316391
C161	C	0.502234	0.242566	0.259639
C162	C	0.502241	0.293572	0.208618
C163	C	0.804545	0.293546	0.208642
C164	C	0.855565	0.242536	0.259660
C165	C	0.849837	0.217029	0.316412
C166	C	0.793084	0.242539	0.322146
C167	C	0.742065	0.293552	0.271128
C168	C	0.262510	0.773115	-0.208495
C169	C	0.211490	0.824140	-0.259514
C170	C	0.217217	0.849650	-0.316266
C171	C	0.273970	0.824136	-0.322000
C172	C	0.324989	0.773115	-0.270982
C173	C	0.324995	0.773135	0.031290
C174	C	0.273984	0.824165	0.031282
C175	C	0.217228	0.849684	0.000036
C176	C	0.211484	0.824175	-0.031209
C177	C	0.262496	0.773150	-0.031204
C178	C	0.564813	0.773073	-0.208458
C179	C	0.564832	0.824077	-0.259469
C180	C	0.533596	0.849589	-0.316226
C181	C	0.502344	0.824089	-0.321971
C182	C	0.502328	0.773082	-0.270960
H183	H	0.621475	-0.012956	-0.087832
N184	N	0.904873	0.162000	0.371431
H185	H	0.904894	0.119666	0.395983
H186	H	0.904879	0.179805	0.395948
H187	H	0.476858	-0.247638	0.056742
N188	N	0.533618	0.904607	-0.371238
H189	H	0.491312	0.946949	-0.395799
H190	H	0.551427	0.886795	-0.395748
N191	N	0.810762	0.321017	0.065041
H192	H	0.769838	0.357212	0.060304
H193	H	0.833329	0.342137	0.048634
N194	N	0.810726	0.321059	0.147432
H195	H	0.790953	0.312179	0.124869
H196	H	0.854430	0.297149	0.151595
N197	N	0.680849	0.321038	-0.064850
H198	H	0.649399	0.357227	-0.060110
H199	H	0.676124	0.282073	-0.048447
H200	H	0.533475	0.175534	0.357940
N201	N	0.468539	0.215044	0.253467
H202	H	0.473282	0.178860	0.294402
H203	H	0.484948	0.193903	0.230915
N204	N	0.598538	0.851575	-0.253258
H205	H	0.569893	0.902788	-0.273036
H206	H	0.629988	0.842638	-0.273009
H207	H	0.165284	0.844905	-0.254834
N208	N	0.680859	0.321049	0.277314
H209	H	0.658292	0.372261	0.257541
H210	H	0.685025	0.297096	0.321019
H211	H	0.175696	0.891232	0.000037
H212	H	0.590249	0.752310	-0.162248
H213	H	0.590206	0.419975	-0.631673
H214	H	0.590176	0.314347	0.275771
N215	N	0.598454	0.403476	-0.722717
H216	H	0.593715	0.412955	-0.763648
H217	H	0.582047	0.376193	-0.700161
H218	H	0.278672	0.844925	0.056727
H219	H	0.476912	0.844868	-0.368189
H220	H	0.445613	0.079597	0.088003
H221	H	0.165267	0.844961	-0.056648
N222	N	0.598423	0.215078	0.383325
H223	H	0.618222	0.238976	0.379206
H224	H	0.629825	0.163864	0.405859
H225	H	0.445645	0.709168	-0.634126
N226	N	-0.213069	0.663184	-0.064855
H227	H	-0.235608	0.690506	-0.048473
H228	H	-0.235591	0.690433	-0.108549
N229	N	0.437390	0.725680	-0.543091
H230	H	0.466049	0.728457	-0.523310
H231	H	0.405944	0.728441	-0.523334
H232	H	0.901771	0.221771	0.254981
N233	N	0.468514	0.321075	0.147424
H234	H	0.484882	0.282151	0.142645
H235	H	0.473244	0.357280	0.115988
N236	N	0.786911	0.215025	0.383359
H237	H	0.827845	0.178837	0.414803
H238	H	0.764352	0.193892	0.388085
H239	H	-0.100657	0.709165	-0.087834
H240	H	0.891359	0.175449	0.000083
H241	H	-0.008110	0.709168	-0.087828
N242	N	0.256323	0.745605	-0.147288
H243	H	0.212629	0.769516	-0.151406
H244	H	0.276136	0.754478	-0.124755
N245	N	0.468564	0.215003	0.065005
H246	H	0.497218	0.163795	0.096449
H247	H	0.437129	0.223917	0.036315
H248	H	0.476814	0.314316	0.056740
H249	H	0.621442	0.357485	-0.458289
H250	H	0.175670	0.891194	-0.357803
H251	H	0.257807	0.646705	-0.056637
N252	N	0.280144	0.851653	-0.383213
H253	H	0.239209	0.887842	-0.414657
H254	H	0.302694	0.812691	-0.387941
H255	H	0.621446	0.357478	-0.365741
N256	N	0.256295	0.745642	-0.064901
H257	H	0.212599	0.769554	-0.084692
H258	H	0.276090	0.694432	-0.036215
N259	N	0.150241	0.663215	-0.064892
H260	H	0.154353	0.702796	-0.084688
H261	H	0.127717	0.665941	-0.036205
H262	H	0.476876	0.752330	-0.275646
H263	H	0.590186	0.314311	-0.056608
N264	N	0.386194	0.745599	-0.277171
H265	H	0.382075	0.769503	-0.320866
H266	H	0.408714	0.694388	-0.257370
H267	H	0.590209	0.221746	-0.056600
H268	H	0.371204	0.752361	0.056737
H269	H	-0.190750	0.419944	0.056782
H270	H	0.278624	0.419974	0.056753
N271	N	0.629724	0.086337	-0.096093
H272	H	0.673426	0.047408	-0.079696
H273	H	0.624941	0.122541	-0.091351
N274	N	0.598497	-0.148353	-0.064857
H275	H	0.629936	-0.157227	-0.036204
H276	H	0.569806	-0.097151	-0.096298
N277	N	0.598502	-0.254400	-0.064856
H278	H	0.593761	-0.290592	-0.060113
H279	H	0.642191	-0.275527	-0.048447
H280	H	0.445617	-0.012954	0.088004
N281	N	0.468604	-0.148353	0.065011
H282	H	0.448813	-0.172258	0.084795
H283	H	0.437195	-0.097141	0.036325
H284	H	0.590206	0.419944	-0.254832
H285	H	0.371165	0.419989	0.056733
N286	N	0.598466	0.403424	-0.147273
H287	H	0.569811	0.400640	-0.124715
H288	H	0.629904	0.400680	-0.124758
N289	N	0.182729	0.340973	0.096258
H290	H	0.178610	0.301396	0.116050
H291	H	0.205263	0.338249	0.127666
H292	H	0.075187	0.357478	0.088018
N293	N	-0.083186	0.403432	0.065034
H294	H	-0.087302	0.363854	0.084825
H295	H	-0.060653	0.400709	0.096444
H296	H	0.476853	0.646663	-0.275630
N297	N	-0.319104	0.663175	-0.064851
H298	H	-0.314988	0.702753	-0.084643
H299	H	-0.341630	0.665902	-0.036165
H300	H	0.476846	0.646704	-0.745017
N301	N	0.468619	0.663185	-0.383184
H302	H	0.448836	0.702759	-0.379063
H303	H	0.437207	0.665925	-0.405731
N304	N	0.468595	0.663223	-0.852580
H305	H	0.473338	0.653739	-0.884029
H306	H	0.485007	0.690501	-0.857298
H307	H	0.788383	0.221748	-0.056600
H308	H	0.901788	0.221714	0.056773
