data_functionalizedCrystal
_audit_creation_method	'MofGen! by Chris Wilmer'
_symmetry_space_group_name_H-M	'P1'
_symmetry_Int_Tables_number	1
_symmetry_cell_setting	triclinic
loop_
_symmetry_equiv_pos_as_xyz
  x,y,z
_cell_length_a	21.395362
_cell_length_b	19.076808
_cell_length_c	21.395356
_cell_angle_alpha	87.675140
_cell_angle_beta	89.964230
_cell_angle_gamma	92.338508
loop_
_atom_site_label
_atom_site_type_symbol
_atom_site_fract_x
_atom_site_fract_y
_atom_site_fract_z
Zn1	Zn	0.947820	-0.279953	-0.344565
Zn2	Zn	1.197820	-0.029953	-0.094565
Zn3	Zn	1.447820	0.220047	0.155435
Zn4	Zn	1.697820	0.470047	0.405435
Zn5	Zn	0.943538	-0.397655	-0.235575
Zn6	Zn	1.193538	-0.147655	0.014425
Zn7	Zn	1.443538	0.102345	0.264425
Zn8	Zn	1.693538	0.352345	0.514425
Zn9	Zn	0.843048	-0.280000	-0.239765
Zn10	Zn	1.093048	-0.030000	0.010235
Zn11	Zn	1.343048	0.220000	0.260235
Zn12	Zn	1.593048	0.470000	0.510235
Zn13	Zn	0.838805	-0.397655	-0.340279
Zn14	Zn	1.088805	-0.147655	-0.090279
Zn15	Zn	1.338805	0.102345	0.159721
Zn16	Zn	1.588805	0.352345	0.409721
O17	O	0.893303	-0.338816	-0.290046
O18	O	1.143303	-0.088816	-0.040046
O19	O	1.393303	0.161184	0.209954
O20	O	1.643303	0.411184	0.459954
O21	O	1.034931	-0.295547	-0.330147
O22	O	1.284931	-0.045547	-0.080147
O23	O	1.534931	0.204453	0.169853
O24	O	1.784931	0.454453	0.419853
O25	O	0.930192	-0.382067	-0.148452
O26	O	1.180192	-0.132067	0.101548
O27	O	1.430192	0.117933	0.351548
O28	O	1.680192	0.367933	0.601548
O29	O	0.860515	-0.181497	-0.257214
O30	O	1.110515	0.068503	-0.007214
O31	O	1.360515	0.318503	0.242786
O32	O	1.610515	0.568503	0.492786
O33	O	1.031785	-0.382022	-0.250072
O34	O	1.281785	-0.132022	-0.000072
O35	O	1.531785	0.117978	0.249928
O36	O	1.781785	0.367978	0.499928
O37	O	0.937490	-0.181462	-0.334210
O38	O	1.187490	0.068538	-0.084210
O39	O	1.437490	0.318538	0.165790
O40	O	1.687490	0.568538	0.415790
O41	O	0.856362	-0.295627	-0.151530
O42	O	1.106362	-0.045627	0.098470
O43	O	1.356362	0.204373	0.348470
O44	O	1.606362	0.454373	0.598470
O45	O	0.754807	-0.295627	-0.253058
O46	O	1.004807	-0.045627	-0.003058
O47	O	1.254807	0.204373	0.246942
O48	O	1.504807	0.454373	0.496942
O49	O	0.853282	-0.382021	-0.428526
O50	O	1.103282	-0.132021	-0.178526
O51	O	1.353282	0.117979	0.071474
O52	O	1.603282	0.367979	0.321474
O53	O	0.751689	-0.382067	-0.326906
O54	O	1.001689	-0.132067	-0.076906
O55	O	1.251689	0.117933	0.173094
O56	O	1.501689	0.367933	0.423094
O57	O	0.933375	-0.295547	-0.431675
O58	O	1.183375	-0.045547	-0.181675
O59	O	1.433375	0.204453	0.068325
O60	O	1.683375	0.454453	0.318325
O61	O	0.926077	-0.496152	-0.245917
O62	O	1.176077	-0.246152	0.004083
O63	O	1.426077	0.003848	0.254083
O64	O	1.676077	0.253848	0.504083
O65	O	0.849130	-0.496152	-0.322843
O66	O	1.099130	-0.246152	-0.072843
O67	O	1.349130	0.003848	0.177157
O68	O	1.599130	0.253848	0.427157
C69	C	0.730514	-0.338853	-0.289972
C70	C	0.980514	-0.088853	-0.039972
C71	C	1.230514	0.161147	0.210028
C72	C	1.480514	0.411147	0.460028
C73	C	0.660871	-0.338886	-0.289954
C74	C	0.910871	-0.088886	-0.039954
C75	C	1.160871	0.161114	0.210046
C76	C	1.410871	0.411114	0.460046
C77	C	0.626549	-0.383955	-0.328345
C78	C	0.876549	-0.133955	-0.078345
C79	C	1.126549	0.116045	0.171655
C80	C	1.376549	0.366045	0.421655
C81	C	0.561114	-0.383938	-0.328373
C82	C	0.811114	-0.133938	-0.078373
C83	C	1.061114	0.116062	0.171627
C84	C	1.311114	0.366062	0.421627
C85	C	0.530004	-0.338859	-0.290000
C86	C	0.780004	-0.088859	-0.040000
C87	C	1.030004	0.161141	0.210000
C88	C	1.280004	0.411141	0.460000
C89	C	0.564335	-0.293781	-0.251607
C90	C	0.814335	-0.043781	-0.001607
C91	C	1.064335	0.206219	0.248393
C92	C	1.314335	0.456219	0.498393
C93	C	0.629768	-0.293794	-0.251584
C94	C	0.879768	-0.043794	-0.001584
C95	C	1.129768	0.206206	0.248416
C96	C	1.379768	0.456206	0.498416
C97	C	0.426489	-0.333196	-0.233798
C98	C	0.676489	-0.083196	0.016202
C99	C	0.926489	0.166804	0.266202
C100	C	1.176489	0.416804	0.516202
C101	C	0.361057	-0.333188	-0.233819
C102	C	0.611057	-0.083188	0.016181
C103	C	0.861057	0.166812	0.266181
C104	C	1.111057	0.416812	0.516181
C105	C	0.328185	-0.338813	-0.290071
C106	C	0.578185	-0.088813	-0.040071
C107	C	0.828185	0.161187	0.209929
C108	C	1.078185	0.411187	0.459929
C109	C	0.360753	-0.344461	-0.346302
C110	C	0.610753	-0.094461	-0.096302
C111	C	0.860753	0.155539	0.153698
C112	C	1.110753	0.405539	0.403698
C113	C	0.426187	-0.344475	-0.346280
C114	C	0.676187	-0.094475	-0.096280
C115	C	0.926187	0.155525	0.153720
C116	C	1.176187	0.405525	0.403720
C117	C	0.459052	-0.338839	-0.290021
C118	C	0.709052	-0.088839	-0.040021
C119	C	0.959052	0.161161	0.209979
C120	C	1.209052	0.411161	0.459979
C121	C	0.222911	-0.383865	-0.328495
C122	C	0.472911	-0.133865	-0.078495
C123	C	0.722911	0.116135	0.171505
C124	C	0.972911	0.366135	0.421505
C125	C	0.157475	-0.383843	-0.328525
C126	C	0.407475	-0.133843	-0.078525
C127	C	0.657475	0.116157	0.171475
C128	C	0.907475	0.366157	0.421475
C129	C	0.160696	-0.293690	-0.251753
C130	C	0.410696	-0.043690	-0.001753
C131	C	0.660696	0.206310	0.248247
C132	C	0.910696	0.456310	0.498247
C133	C	0.226131	-0.293709	-0.251729
C134	C	0.476131	-0.043709	-0.001729
C135	C	0.726131	0.206291	0.248271
C136	C	0.976131	0.456291	0.498271
C137	C	0.257234	-0.338800	-0.290099
C138	C	0.507234	-0.088800	-0.040099
C139	C	0.757234	0.161200	0.209901
C140	C	1.007234	0.411200	0.459901
C141	C	0.886695	-0.521691	-0.283474
C142	C	1.136695	-0.271691	-0.033474
C143	C	1.386695	-0.021691	0.216526
C144	C	1.636695	0.228309	0.466526
C145	C	0.883926	-0.599926	-0.280683
C146	C	1.133926	-0.349926	-0.030683
C147	C	1.383926	-0.099926	0.219317
C148	C	1.633926	0.150074	0.469317
C149	C	0.922671	-0.636603	-0.319492
C150	C	1.172671	-0.386603	-0.069492
C151	C	1.422671	-0.136603	0.180508
C152	C	1.672671	0.113397	0.430508
C153	C	0.920067	-0.710113	-0.316871
C154	C	1.170067	-0.460113	-0.066871
C155	C	1.420067	-0.210113	0.183129
C156	C	1.670067	0.039887	0.433129
C157	C	0.878719	-0.746945	-0.275437
C158	C	1.128719	-0.496945	-0.025437
C159	C	1.378719	-0.246945	0.224563
C160	C	1.628719	0.003055	0.474563
C161	C	0.839969	-0.710263	-0.236627
C162	C	1.089969	-0.460263	0.013373
C163	C	1.339969	-0.210263	0.263373
C164	C	1.589969	0.039737	0.513373
C165	C	0.842571	-0.636755	-0.239251
C166	C	1.092571	-0.386755	0.010749
C167	C	1.342571	-0.136755	0.260749
C168	C	1.592571	0.113245	0.510749
C169	C	0.866639	-0.966801	-0.263289
C170	C	1.116639	-0.716801	-0.013289
C171	C	1.366639	-0.466801	0.236711
C172	C	1.616639	-0.216801	0.486711
C173	C	0.864042	-1.040315	-0.260666
C174	C	1.114042	-0.790315	-0.010666
C175	C	1.364042	-0.540315	0.239334
C176	C	1.614042	-0.290315	0.489334
C177	C	0.944139	-1.040159	-0.340912
C178	C	1.194139	-0.790159	-0.090912
C179	C	1.444139	-0.540159	0.159088
C180	C	1.694139	-0.290159	0.409088
C181	C	0.946740	-0.966649	-0.343530
C182	C	1.196740	-0.716649	-0.093530
C183	C	1.446740	-0.466649	0.156470
C184	C	1.696740	-0.216649	0.406470
C185	C	0.907988	-0.929974	-0.304721
C186	C	1.157988	-0.679974	-0.054721
C187	C	1.407988	-0.429974	0.195279
C188	C	1.657988	-0.179974	0.445279
N189	N	0.876057	-0.822084	-0.272756
N190	N	1.126057	-0.572084	-0.022756
N191	N	1.376057	-0.322084	0.227244
N192	N	1.626057	-0.072084	0.477244
N193	N	0.910647	-0.854836	-0.307406
N194	N	1.160647	-0.604836	-0.057406
N195	N	1.410647	-0.354836	0.192594
N196	N	1.660647	-0.104836	0.442594
C197	C	1.056727	-0.338779	-0.290121
C198	C	1.306727	-0.088779	-0.040121
C199	C	1.556727	0.161221	0.209879
C200	C	1.806727	0.411221	0.459879
C201	C	1.126369	-0.338763	-0.290152
C202	C	1.376369	-0.088763	-0.040152
C203	C	1.626369	0.161237	0.209848
C204	C	1.876369	0.411237	0.459848
C205	C	0.893333	-0.338779	-0.453471
C206	C	1.143333	-0.088779	-0.203471
C207	C	1.393333	0.161221	0.046529
C208	C	1.643333	0.411221	0.296529
C209	C	0.893346	-0.338763	-0.523112
C210	C	1.143346	-0.088763	-0.273112
C211	C	1.393346	0.161237	-0.023112
C212	C	1.643346	0.411237	0.226888
C213	C	0.899953	-0.155226	-0.296657
C214	C	1.149953	0.094774	-0.046657
C215	C	1.399953	0.344774	0.203343
C216	C	1.649953	0.594774	0.453343
C217	C	0.902788	-0.076991	-0.299475
C218	C	1.152788	0.173009	-0.049475
C219	C	1.402788	0.423009	0.200525
C220	C	1.652788	0.673009	0.450525
C221	C	0.931864	-0.383625	-1.023312
C222	C	1.181864	-0.133625	-0.773312
C223	C	1.431864	0.116375	-0.523312
C224	C	1.681864	0.366375	-0.273312
C225	C	0.931852	-0.383647	-0.957875
C226	C	1.181852	-0.133647	-0.707875
C227	C	1.431852	0.116353	-0.457875
C228	C	1.681852	0.366353	-0.207875
C229	C	0.893409	-0.338651	-0.926755
C230	C	1.143409	-0.088651	-0.676755
C231	C	1.393409	0.161349	-0.426755
C232	C	1.643409	0.411349	-0.176755
C233	C	0.854964	-0.293643	-0.961076
C234	C	1.104964	-0.043643	-0.711076
C235	C	1.354964	0.206357	-0.461076
C236	C	1.604964	0.456357	-0.211076
C237	C	0.854973	-0.293627	-1.026510
C238	C	1.104973	-0.043627	-0.776510
C239	C	1.354973	0.206373	-0.526510
C240	C	1.604973	0.456373	-0.276510
C241	C	0.890746	-0.275263	-0.825367
C242	C	1.140746	-0.025263	-0.575367
C243	C	1.390746	0.224737	-0.325367
C244	C	1.640746	0.474737	-0.075367
C245	C	0.890741	-0.275278	-0.759933
C246	C	1.140741	-0.025278	-0.509933
C247	C	1.390741	0.224722	-0.259933
C248	C	1.640741	0.474722	-0.009933
C249	C	0.893379	-0.338701	-0.724932
C250	C	1.143379	-0.088701	-0.474932
C251	C	1.393379	0.161299	-0.224932
C252	C	1.643379	0.411299	0.025068
C253	C	0.896035	-0.402112	-0.755373
C254	C	1.146035	-0.152112	-0.505373
C255	C	1.396035	0.097888	-0.255373
C256	C	1.646035	0.347888	-0.005373
C257	C	0.896043	-0.402096	-0.820807
C258	C	1.146043	-0.152096	-0.570807
C259	C	1.396043	0.097904	-0.320807
C260	C	1.646043	0.347904	-0.070807
C261	C	0.893396	-0.338664	-0.855802
C262	C	1.143396	-0.088664	-0.605802
C263	C	1.393396	0.161336	-0.355802
C264	C	1.643396	0.411336	-0.105802
C265	C	0.931806	-0.383735	-0.619666
C266	C	1.181806	-0.133735	-0.369666
C267	C	1.431806	0.116265	-0.119666
C268	C	1.681806	0.366265	0.130334
C269	C	0.931790	-0.383758	-0.554228
C270	C	1.181790	-0.133758	-0.304228
C271	C	1.431790	0.116242	-0.054228
C272	C	1.681790	0.366242	0.195772
C273	C	0.854905	-0.293748	-0.557430
C274	C	1.104905	-0.043748	-0.307430
C275	C	1.354905	0.206252	-0.057430
C276	C	1.604905	0.456252	0.192570
C277	C	0.854918	-0.293730	-0.622866
C278	C	1.104918	-0.043730	-0.372866
C279	C	1.354918	0.206270	-0.122866
C280	C	1.604918	0.456270	0.127134
C281	C	0.893372	-0.338723	-0.653980
C282	C	1.143372	-0.088723	-0.403980
C283	C	1.393372	0.161277	-0.153980
C284	C	1.643372	0.411277	0.096020
C285	C	0.893311	-0.338802	-0.127259
C286	C	1.143311	-0.088802	0.122741
C287	C	1.393311	0.161198	0.372741
C288	C	1.643311	0.411198	0.622741
C289	C	0.893426	-0.338619	-0.057624
C290	C	1.143426	-0.088619	0.192376
C291	C	1.393426	0.161381	0.442376
C292	C	1.643426	0.411381	0.692376
H293	H	0.254077	-0.257012	-0.220464
H294	H	0.504077	-0.007012	0.029536
H295	H	0.754077	0.242988	0.279536
H296	H	1.004077	0.492988	0.529536
H297	H	0.888583	-0.223645	-0.735154
H298	H	1.138583	0.026355	-0.485154
H299	H	1.388583	0.276355	-0.235154
H300	H	1.638583	0.526355	0.014846
H301	H	0.823603	-0.257113	-0.532092
H302	H	1.073603	-0.007113	-0.282092
H303	H	1.323603	0.242887	-0.032092
H304	H	1.573603	0.492887	0.217908
H305	H	0.963116	-0.420372	-0.645000
H306	H	1.213116	-0.170372	-0.395000
H307	H	1.463116	0.079628	-0.145000
H308	H	1.713116	0.329628	0.105000
H309	H	0.823663	-0.257008	-0.935733
H310	H	1.073663	-0.007008	-0.685733
H311	H	1.323663	0.242992	-0.435733
H312	H	1.573663	0.492992	-0.185733
H313	H	0.657713	-0.257092	-0.220322
H314	H	0.907713	-0.007092	0.029678
H315	H	1.157713	0.242908	0.279678
H316	H	1.407713	0.492908	0.529678
H317	H	0.452702	-0.349072	-0.392065
H318	H	0.702702	-0.099072	-0.142065
H319	H	0.952702	0.150928	0.107935
H320	H	1.202702	0.400928	0.357935
H321	H	0.129531	-0.420543	-0.359791
H322	H	0.379531	-0.170543	-0.109791
H323	H	0.629531	0.079457	0.140209
H324	H	0.879531	0.329457	0.390209
H325	H	0.975688	-1.070027	-0.372508
H326	H	1.225688	-0.820027	-0.122508
H327	H	1.475688	-0.570027	0.127492
H328	H	1.725688	-0.320027	0.377492
H329	H	0.963162	-0.420288	-0.929933
H330	H	1.213162	-0.170288	-0.679933
H331	H	1.463162	0.079712	-0.429933
H332	H	1.713162	0.329712	-0.179933
H333	H	0.135367	-0.256983	-0.220512
H334	H	0.385367	-0.006983	0.029488
H335	H	0.635367	0.243017	0.279488
H336	H	0.885367	0.493017	0.529488
H337	H	0.823620	-0.257079	-0.650804
H338	H	1.073620	-0.007079	-0.400804
H339	H	1.323620	0.242921	-0.150804
H340	H	1.573620	0.492921	0.099196
H341	H	0.898203	-0.453727	-0.845589
H342	H	1.148203	-0.203727	-0.595589
H343	H	1.398203	0.046273	-0.345589
H344	H	1.648203	0.296273	-0.095589
H345	H	0.334544	-0.328593	-0.188032
H346	H	0.584544	-0.078593	0.061968
H347	H	0.834544	0.171407	0.311968
H348	H	1.084544	0.421407	0.561968
H349	H	0.539000	-0.257076	-0.220365
H350	H	0.789000	-0.007076	0.029635
H351	H	1.039000	0.242924	0.279635
H352	H	1.289000	0.492924	0.529635
H353	H	0.888639	-0.223608	-0.853860
H354	H	1.138639	0.026392	-0.603860
H355	H	1.388639	0.276392	-0.353860
H356	H	1.638639	0.526392	-0.103860
H357	H	0.898184	-0.453758	-0.726876
H358	H	1.148184	-0.203758	-0.476876
H359	H	1.398184	0.046242	-0.226876
H360	H	1.648184	0.296242	0.023124
H361	H	0.453248	-0.328613	-0.187988
H362	H	0.703248	-0.078613	0.062012
H363	H	0.953248	0.171387	0.312012
H364	H	1.203248	0.421387	0.562012
H365	H	0.956344	-0.606618	-0.353229
H366	H	1.206344	-0.356618	-0.103229
H367	H	1.456344	-0.106618	0.146771
H368	H	1.706344	0.143382	0.396771
H369	H	0.823671	-0.256976	-1.054448
H370	H	1.073671	-0.006976	-0.804448
H371	H	1.323671	0.243024	-0.554448
H372	H	1.573671	0.493024	-0.304448
H373	H	0.951622	-0.739971	-0.348469
H374	H	1.201622	-0.489971	-0.098469
H375	H	1.451622	-0.239971	0.151531
H376	H	1.701622	0.010029	0.401531
H377	H	0.248236	-0.420578	-0.359742
H378	H	0.498236	-0.170578	-0.109742
H379	H	0.748236	0.079422	0.140258
H380	H	0.998236	0.329422	0.390258
H381	H	0.980409	-0.936661	-0.377268
H382	H	1.230409	-0.686661	-0.127268
H383	H	1.480409	-0.436661	0.122732
H384	H	1.730409	-0.186661	0.372732
H385	H	0.830368	-1.070302	-0.226925
H386	H	1.080368	-0.820302	0.023075
H387	H	1.330368	-0.570302	0.273075
H388	H	1.580368	-0.320302	0.523075
H389	H	0.835087	-0.936946	-0.231688
H390	H	1.085087	-0.686946	0.018312
H391	H	1.335087	-0.436946	0.268312
H392	H	1.585087	-0.186946	0.518312
H393	H	0.651869	-0.420671	-0.359590
H394	H	0.901869	-0.170671	-0.109590
H395	H	1.151869	0.079329	0.140410
H396	H	1.401869	0.329329	0.390410
H397	H	0.533164	-0.420638	-0.359638
H398	H	0.783164	-0.170638	-0.109638
H399	H	1.033164	0.079362	0.140362
H400	H	1.283164	0.329362	0.390362
H401	H	0.333991	-0.349041	-0.392108
H402	H	0.583991	-0.099041	-0.142108
H403	H	0.833991	0.150959	0.107892
H404	H	1.083991	0.400959	0.357892
H405	H	0.806300	-0.740258	-0.202893
H406	H	1.056300	-0.490258	0.047107
H407	H	1.306300	-0.240258	0.297107
H408	H	1.556300	0.009742	0.547107
H409	H	0.811019	-0.606894	-0.207649
H410	H	1.061019	-0.356894	0.042351
H411	H	1.311019	-0.106894	0.292351
H412	H	1.561019	0.143106	0.542351
H413	H	0.963087	-0.420414	-0.526292
H414	H	1.213087	-0.170414	-0.276292
H415	H	1.463087	0.079586	-0.026292
H416	H	1.713087	0.329586	0.223708
H417	H	0.963175	-0.420263	-1.048641
H418	H	1.213175	-0.170263	-0.798641
H419	H	1.463175	0.079737	-0.548641
H420	H	1.713175	0.329737	-0.298641
