data_functionalizedCrystal
_audit_creation_method	'MofGen! by Chris Wilmer'
_symmetry_space_group_name_H-M	'P1'
_symmetry_Int_Tables_number	1
_symmetry_cell_setting	triclinic
loop_
_symmetry_equiv_pos_as_xyz
  x,y,z
_cell_length_a	21.395362
_cell_length_b	16.120484
_cell_length_c	21.395355
_cell_angle_alpha	92.880721
_cell_angle_beta	89.956060
_cell_angle_gamma	92.942400
loop_
_atom_site_label
_atom_site_type_symbol
_atom_site_fract_x
_atom_site_fract_y
_atom_site_fract_z
Zn1	Zn	0.945244	-0.331659	-0.367215
Zn2	Zn	1.445244	0.168341	0.132785
Zn3	Zn	0.939845	-0.471058	-0.267746
Zn4	Zn	1.439845	0.028942	0.232254
Zn5	Zn	0.840458	-0.331698	-0.262418
Zn6	Zn	1.340458	0.168302	0.237582
Zn7	Zn	0.835126	-0.471075	-0.372451
Zn8	Zn	1.335126	0.028925	0.127549
O9	O	0.890168	-0.401372	-0.317458
O10	O	1.390168	0.098628	0.182542
O11	O	1.032207	-0.350127	-0.354059
O12	O	1.532207	0.149873	0.145941
O13	O	0.926633	-0.452580	-0.179362
O14	O	1.426633	0.047420	0.320638
O15	O	0.858849	-0.215024	-0.271898
O16	O	1.358849	0.284976	0.228102
O17	O	1.028240	-0.452543	-0.280979
O18	O	1.528240	0.047457	0.219021
O19	O	0.935836	-0.214995	-0.348892
O20	O	1.435836	0.285005	0.151108
O21	O	0.853614	-0.350193	-0.175447
O22	O	1.353614	0.149807	0.324553
O23	O	0.752072	-0.350210	-0.276976
O24	O	1.252072	0.149790	0.223024
O25	O	0.849761	-0.452572	-0.459434
O26	O	1.349761	0.047428	0.040566
O27	O	0.748154	-0.452609	-0.357817
O28	O	1.248154	0.047391	0.142183
O29	O	0.930665	-0.350144	-0.455587
O30	O	1.430665	0.149856	0.044413
O31	O	0.921462	-0.587728	-0.286057
O32	O	1.421462	-0.087728	0.213943
O33	O	0.844526	-0.587741	-0.362983
O34	O	1.344526	-0.087741	0.137017
C35	C	0.727379	-0.401416	-0.317387
C36	C	1.227379	0.098584	0.182613
C37	C	0.657736	-0.401455	-0.317372
C38	C	1.157736	0.098545	0.182628
C39	C	0.622997	-0.454845	-0.359409
C40	C	1.122997	0.045155	0.140591
C41	C	0.557562	-0.454825	-0.359436
C42	C	1.057562	0.045175	0.140564
C43	C	0.526869	-0.401423	-0.317415
C44	C	1.026869	0.098577	0.182585
C45	C	0.561617	-0.348022	-0.275375
C46	C	1.061617	0.151978	0.224625
C47	C	0.627050	-0.348039	-0.275354
C48	C	1.127050	0.151961	0.224646
C49	C	0.423400	-0.394707	-0.260754
C50	C	0.923400	0.105293	0.239246
C51	C	0.357967	-0.394696	-0.260775
C52	C	0.857967	0.105304	0.239225
C53	C	0.325050	-0.401369	-0.317482
C54	C	0.825050	0.098631	0.182518
C55	C	0.357574	-0.408069	-0.374171
C56	C	0.857574	0.091931	0.125829
C57	C	0.423007	-0.408085	-0.374149
C58	C	0.923007	0.091915	0.125851
C59	C	0.455918	-0.401399	-0.317434
C60	C	0.955918	0.098601	0.182566
C61	C	0.219359	-0.454740	-0.359552
C62	C	0.719359	0.045260	0.140448
C63	C	0.153924	-0.454713	-0.359580
C64	C	0.653924	0.045287	0.140420
C65	C	0.157979	-0.347915	-0.275514
C66	C	0.657979	0.152085	0.224486
C67	C	0.223414	-0.347937	-0.275492
C68	C	0.723414	0.152063	0.224508
C69	C	0.254100	-0.401354	-0.317510
C70	C	0.754100	0.098646	0.182490
C71	C	0.881846	-0.617986	-0.325680
C72	C	1.381846	-0.117986	0.174320
C73	C	0.878344	-0.710654	-0.329218
C74	C	1.378344	-0.210654	0.170782
C75	C	0.871952	-0.880320	-0.335692
C76	C	1.371952	-0.380320	0.164308
C77	C	0.908497	-0.921584	-0.299234
C78	C	1.408497	-0.421584	0.200766
C79	C	0.904940	-1.015992	-0.302836
C80	C	1.404940	-0.515992	0.197164
C81	C	0.875507	-0.785903	-0.332091
C82	C	1.375507	-0.285903	0.167909
C83	C	1.053593	-0.401328	-0.317529
C84	C	1.553593	0.098672	0.182471
C85	C	1.123235	-0.401310	-0.317560
C86	C	1.623235	0.098690	0.182440
C87	C	0.890221	-0.401355	-0.480880
C88	C	1.390221	0.098645	0.019120
C89	C	0.890243	-0.401348	-0.550521
C90	C	1.390243	0.098652	-0.050521
C91	C	0.898540	-0.183913	-0.309217
C92	C	1.398540	0.316087	0.190783
C93	C	0.902107	-0.091245	-0.305705
C94	C	1.402107	0.408755	0.194295
C95	C	0.932368	-0.348011	-0.581232
C96	C	1.432368	0.151989	-0.081232
C97	C	0.932369	-0.347976	-0.646666
C98	C	1.432369	0.152024	-0.146666
C99	C	0.890250	-0.401291	-0.681388
C100	C	1.390250	0.098709	-0.181388
C101	C	0.848117	-0.454632	-0.650669
C102	C	1.348117	0.045368	-0.150669
C103	C	0.848114	-0.454660	-0.585236
C104	C	1.348114	0.045340	-0.085236
C105	C	0.882419	-0.476362	-0.787910
C106	C	1.382419	0.023638	-0.287910
C107	C	0.882427	-0.476335	-0.853342
C108	C	1.382427	0.023665	-0.353342
C109	C	0.890258	-0.401203	-0.883205
C110	C	1.390258	0.098797	-0.383205
C111	C	0.898094	-0.326096	-0.847628
C112	C	1.398094	0.173904	-0.347628
C113	C	0.898090	-0.326124	-0.782195
C114	C	1.398090	0.173876	-0.282195
C115	C	0.890249	-0.401266	-0.752339
C116	C	1.390249	0.098734	-0.252339
C117	C	0.932385	-0.347823	-0.984867
C118	C	1.432385	0.152177	-0.484867
C119	C	0.932382	-0.347786	-1.050302
C120	C	1.432382	0.152214	-0.550302
C121	C	0.848133	-0.454449	-1.054304
C122	C	1.348133	0.045551	-0.554304
C123	C	0.848134	-0.454479	-0.988870
C124	C	1.348134	0.045521	-0.488870
C125	C	0.890263	-0.401167	-0.954155
C126	C	1.390263	0.098833	-0.454155
C127	C	0.890154	-0.401329	-0.154668
C128	C	1.390154	0.098671	0.345332
C129	C	0.890262	-0.401101	-0.085019
C130	C	1.390262	0.098899	0.414981
H131	H	0.132990	-0.304430	-0.241303
H132	H	0.632990	0.195570	0.258697
H133	H	0.813835	-0.497917	-0.963865
H134	H	1.313835	0.002083	-0.463865
Br135	Br	0.965095	-0.862295	-0.242700
Br136	Br	1.465095	-0.362295	0.257300
H137	H	0.966671	-0.304538	-0.671676
H138	H	1.466671	0.195462	-0.171676
Br139	Br	0.790952	-0.526984	-0.697788
Br140	Br	1.290952	-0.026984	-0.197788
Br141	Br	0.989541	-0.275657	-0.534122
Br142	Br	1.489541	0.224343	-0.034122
Br143	Br	0.106776	-0.527171	-0.416640
Br144	Br	0.606776	-0.027171	0.083360
H145	H	0.837996	-0.915892	-0.369606
H146	H	1.337996	-0.415892	0.130394
Br147	Br	0.908721	-0.224199	-0.733913
Br148	Br	1.408721	0.275801	-0.233913
H149	H	0.904471	-0.264916	-0.871941
H150	H	1.404471	0.235084	-0.371941
Br151	Br	0.989557	-0.275471	-0.937751
Br152	Br	1.489557	0.224529	-0.437751
Br153	Br	0.989565	-0.275406	-1.091983
Br154	Br	1.489565	0.224594	-0.591983
Br155	Br	0.790964	-0.526797	-1.101418
Br156	Br	1.290964	-0.026797	-0.601418
Br157	Br	0.790939	-0.527050	-0.543554
Br158	Br	1.290939	-0.027050	-0.043554
Br159	Br	0.871801	-0.578265	-0.901619
Br160	Br	1.371801	-0.078265	-0.401619
H161	H	0.647977	-0.498340	-0.393624
H162	H	1.147977	0.001660	0.106376
H163	H	0.529272	-0.498301	-0.393669
H164	H	1.029272	0.001699	0.106331
Br165	Br	0.467144	-0.417174	-0.451080
Br166	Br	0.967144	0.082826	0.048920
H167	H	0.450195	-0.389270	-0.214573
H168	H	0.950195	0.110730	0.285427
H169	H	0.330774	-0.413500	-0.420348
H170	H	0.830774	0.086500	0.079652
Br171	Br	0.261009	-0.527228	-0.416577
Br172	Br	0.761009	-0.027228	0.083423
Br173	Br	0.270563	-0.275475	-0.218439
Br174	Br	0.770563	0.224525	0.281561
Br175	Br	0.871809	-0.578339	-0.747389
Br176	Br	1.371809	-0.078339	-0.247389
Br177	Br	0.519964	-0.275541	-0.218352
Br178	Br	1.019964	0.224459	0.281648
Br179	Br	0.313835	-0.385606	-0.183842
Br180	Br	0.813835	0.114394	0.316158
H181	H	0.655335	-0.304559	-0.241122
H182	H	1.155335	0.195441	0.258878
