data_functionalizedCrystal
_audit_creation_method	'MofGen! by Chris Wilmer'
_symmetry_space_group_name_H-M	'P1'
_symmetry_Int_Tables_number	1
_symmetry_cell_setting	triclinic
loop_
_symmetry_equiv_pos_as_xyz
  x,y,z
_cell_length_a	9.065218
_cell_length_b	10.654553
_cell_length_c	8.140239
_cell_angle_alpha	90.003187
_cell_angle_beta	90.001686
_cell_angle_gamma	84.751032
loop_
_atom_site_label
_atom_site_type_symbol
_atom_site_fract_x
_atom_site_fract_y
_atom_site_fract_z
O1	O	0.207254	1.668657	0.136625
O2	O	0.707254	2.168657	0.636625
O3	O	0.226994	1.303257	0.136623
O4	O	0.726994	1.803257	0.636623
O5	O	0.002440	1.493510	0.136621
O6	O	0.502440	1.993510	0.636621
O7	O	0.431808	1.478404	0.136627
O8	O	0.931808	1.978404	0.636627
O9	O	0.002438	1.493499	-0.136606
O10	O	0.502438	1.993499	0.363394
O11	O	0.226991	1.303246	-0.136604
O12	O	0.726991	1.803246	0.363396
O13	O	0.207252	1.668646	-0.136602
O14	O	0.707252	2.168646	0.363398
Zn15	Zn	0.217121	1.485945	-0.179984
Zn16	Zn	0.717121	1.985945	0.320016
Zn17	Zn	0.217124	1.485959	0.180005
Zn18	Zn	0.717124	1.985959	0.680005
O19	O	0.431805	1.478393	-0.136600
O20	O	0.931805	1.978393	0.363400
C21	C	0.225542	1.256448	0.000010
C22	C	0.725542	1.756448	0.500010
C23	C	0.221203	1.116988	0.000009
C24	C	0.721203	1.616988	0.500009
C25	C	0.215076	0.920418	-0.148915
C26	C	0.715076	1.420418	0.351085
C27	C	0.219162	1.051454	-0.148925
C28	C	0.719162	1.551454	0.351075
C29	C	0.219173	1.051476	0.148962
C30	C	0.719173	1.551476	0.648962
C31	C	0.215098	0.920440	0.148970
C32	C	0.715098	1.420440	0.648970
C33	C	0.215063	0.920407	-0.320899
C34	C	0.715063	1.420407	0.179101
C35	C	0.219149	1.051444	-0.320908
C36	C	0.719149	1.551444	0.179092
C37	C	-0.052540	1.492053	0.000010
C38	C	0.447460	1.992053	0.500010
C39	C	-0.216359	1.487712	0.000018
C40	C	0.283641	1.987712	0.500018
C41	C	0.486785	1.479851	0.000015
C42	C	0.986785	1.979851	0.500015
C43	C	0.650604	1.484191	0.000018
C44	C	1.150604	1.984191	0.500018
C45	C	0.208703	1.715455	0.000015
C46	C	0.708703	2.215455	0.500015
C47	C	0.213042	1.854915	0.000026
C48	C	0.713042	2.354915	0.500026
N49	N	0.217118	1.485944	-0.425666
N50	N	0.717118	1.985944	0.074334
N51	N	0.217116	1.485969	0.425687
N52	N	0.717116	1.985969	0.925687
H53	H	0.326763	1.081433	-0.374274
H54	H	0.826763	1.581433	0.125726
H55	H	0.107453	0.890405	-0.374258
H56	H	0.607453	1.390405	0.125742
H57	H	0.317024	0.874524	-0.386933
H58	H	0.817024	1.374524	0.113067
H59	H	0.220849	1.104842	0.270227
H60	H	0.720849	1.604842	0.770227
H61	H	0.213461	0.867112	0.270253
H62	H	0.713461	1.367112	0.770253
H63	H	0.117178	1.097322	-0.386935
H64	H	0.617178	1.597322	0.113065
