data_functionalizedCrystal
_audit_creation_method	'MofGen! by Chris Wilmer'
_symmetry_space_group_name_H-M	'P1'
_symmetry_Int_Tables_number	1
_symmetry_cell_setting	triclinic
loop_
_symmetry_equiv_pos_as_xyz
  x,y,z
_cell_length_a	16.994730
_cell_length_b	11.169417
_cell_length_c	11.169409
_cell_angle_alpha	90.019513
_cell_angle_beta	90.044102
_cell_angle_gamma	90.046077
loop_
_atom_site_label
_atom_site_type_symbol
_atom_site_fract_x
_atom_site_fract_y
_atom_site_fract_z
Zn1	Zn	0.313938	1.835443	0.679170
Zn2	Zn	0.445871	1.835535	0.478755
Zn3	Zn	0.313987	1.634729	0.478506
Zn4	Zn	0.445807	1.634939	0.679401
O5	O	0.379901	1.735161	0.578958
O6	O	0.331445	2.003405	0.652592
O7	O	0.428423	1.808848	0.310772
O8	O	0.203599	1.661228	0.504924
O9	O	0.428376	2.003472	0.505348
O10	O	0.203563	1.808692	0.652351
O11	O	0.331529	1.661317	0.310589
O12	O	0.331467	1.466807	0.505147
O13	O	0.428268	1.661585	0.847320
O14	O	0.428315	1.466961	0.652744
O15	O	0.331384	1.808895	0.847151
O16	O	0.556244	1.809051	0.505572
O17	O	0.556197	1.661674	0.652986
C18	C	0.379890	1.423337	0.578944
C19	C	0.379905	1.289937	0.578967
C20	C	0.674161	1.735186	0.579091
C21	C	0.584839	1.735305	0.579237
C22	C	0.174160	1.734918	0.578580
C23	C	0.084838	1.734817	0.578418
Zn24	Zn	0.944804	1.634465	0.478317
Zn25	Zn	0.945272	1.835336	0.678825
Zn26	Zn	0.813200	1.634819	0.679230
Zn27	Zn	0.813125	1.835258	0.478428
O28	O	0.879100	1.734970	0.578700
O29	O	1.055247	1.660996	0.504698
O30	O	0.927980	1.808917	0.846828
O31	O	0.830493	1.466822	0.652702
O32	O	1.055591	1.808574	0.652011
O33	O	0.927182	1.466563	0.505091
O34	O	0.830947	1.661598	0.847126
O35	O	0.702809	1.661523	0.652809
O36	O	0.830365	1.808443	0.310464
O37	O	0.702754	1.808785	0.505281
O38	O	0.927110	1.660921	0.310382
O39	O	0.927907	2.003275	0.652119
O40	O	0.830819	2.003218	0.504888
C41	C	0.379813	1.735254	0.892000
C42	C	0.379776	1.735293	1.025400
C43	C	0.379912	2.048204	0.578972
C44	C	0.379917	2.181604	0.578979
C45	C	0.379931	1.735139	0.267133
C46	C	0.379746	1.735332	0.133733
C47	C	0.879408	2.046794	0.578475
C48	C	0.879562	2.180194	0.578413
C49	C	0.878677	1.734634	0.265658
C50	C	0.878497	1.734491	0.132258
C51	C	0.878794	1.421927	0.578929
C52	C	0.878663	1.288527	0.579027
C53	C	0.879567	1.735218	0.890524
C54	C	0.879898	1.735026	1.023924
