data_functionalizedCrystal
_audit_creation_method	'MofGen! by Chris Wilmer'
_symmetry_space_group_name_H-M	'P1'
_symmetry_Int_Tables_number	1
_symmetry_cell_setting	triclinic
loop_
_symmetry_equiv_pos_as_xyz
  x,y,z
_cell_length_a	19.077312
_cell_length_b	12.645330
_cell_length_c	19.076919
_cell_angle_alpha	87.725680
_cell_angle_beta	85.331053
_cell_angle_gamma	87.718625
loop_
_atom_site_label
_atom_site_type_symbol
_atom_site_fract_x
_atom_site_fract_y
_atom_site_fract_z
Zn1	Zn	1.061720	-0.507702	0.355281
Zn2	Zn	1.561720	-0.007702	0.855281
Zn3	Zn	1.066398	-0.678130	0.237404
Zn4	Zn	1.566398	-0.178130	0.737404
Zn5	Zn	0.948575	-0.494051	0.242148
Zn6	Zn	1.448575	0.005949	0.742148
Zn7	Zn	0.943829	-0.678087	0.359987
Zn8	Zn	1.443829	-0.178087	0.859987
O9	O	1.005130	-0.589493	0.298705
O10	O	1.505130	-0.089493	0.798705
O11	O	1.160987	-0.536041	0.335690
O12	O	1.660987	-0.036041	0.835690
O13	O	1.054712	-0.648017	0.139386
O14	O	1.554712	-0.148017	0.639386
O15	O	0.963613	-0.347517	0.257172
O16	O	1.463613	0.152483	0.757172
O17	O	1.164424	-0.661254	0.249086
O18	O	1.664424	-0.161254	0.749086
O19	O	1.046739	-0.357547	0.340290
O20	O	1.546739	0.142453	0.840290
O21	O	0.968149	-0.512774	0.142871
O22	O	1.468149	-0.012774	0.642871
O23	O	0.849299	-0.512732	0.261735
O24	O	1.349299	-0.012732	0.761735
O25	O	0.955523	-0.661180	0.458011
O26	O	1.455523	-0.161180	0.958011
O27	O	0.845812	-0.647942	0.348310
O28	O	1.345812	-0.147942	0.848310
O29	O	1.042137	-0.535999	0.454553
O30	O	1.542137	-0.035999	0.954553
O31	O	1.050110	-0.826469	0.253649
O32	O	1.550110	-0.326469	0.753649
O33	O	0.960059	-0.826437	0.343710
O34	O	1.460059	-0.326437	0.843710
C35	C	0.821978	-0.578852	0.306049
C36	C	1.321978	-0.078852	0.806049
C37	C	0.743623	-0.574326	0.309207
C38	C	1.243623	-0.074326	0.809207
C39	C	1.005096	-0.864919	0.298690
C40	C	1.505096	-0.364919	0.798690
C41	C	1.005145	-0.982753	0.298704
C42	C	1.505145	-0.482753	0.798704
C43	C	0.302379	-0.541783	0.331866
C44	C	0.802379	-0.041783	0.831866
C45	C	0.376001	-0.546055	0.328894
C46	C	0.876001	-0.046055	0.828894
C47	C	0.414595	-0.613267	0.282245
C48	C	0.914595	-0.113267	0.782245
C49	C	0.379564	-0.676219	0.238570
C50	C	0.879564	-0.176219	0.738570
C51	C	0.305943	-0.671952	0.241546
C52	C	0.805943	-0.171952	0.741546
C53	C	0.634970	-0.633011	0.268507
C54	C	1.134970	-0.133011	0.768507
C55	C	0.708597	-0.637271	0.265534
C56	C	1.208597	-0.137271	0.765534
C57	C	0.705029	-0.507108	0.355859
C58	C	1.205029	-0.007108	0.855859
C59	C	0.631407	-0.502843	0.358827
C60	C	1.131407	-0.002843	0.858827
C61	C	0.596381	-0.565799	0.315155
C62	C	1.096381	-0.065799	0.815155
N63	N	0.489849	-0.617632	0.279205
N64	N	0.989849	-0.117632	0.779205
N65	N	0.521128	-0.561438	0.318199
N66	N	1.021128	-0.061438	0.818199
C67	C	1.061712	-1.150282	0.241940
C68	C	1.561712	-0.650282	0.741940
C69	C	1.061884	-1.027739	0.242066
C70	C	1.561884	-0.527739	0.742066
C71	C	1.022301	-1.032625	0.372203
C72	C	1.522301	-0.532625	0.872203
C73	C	1.022744	-1.155231	0.371896
C74	C	1.522744	-0.655231	0.871896
C75	C	0.931369	-1.144654	0.282703
C76	C	1.431369	-0.644654	0.782703
C77	C	0.931793	-1.021973	0.281023
C78	C	1.431793	-0.521973	0.781023
C79	C	1.188998	-0.600176	0.291334
C80	C	1.688998	-0.100176	0.791334
C81	C	1.267352	-0.604728	0.288192
C82	C	1.767352	-0.104728	0.788192
C83	C	0.997779	-0.600107	0.482575
C84	C	1.497779	-0.100107	0.982575
C85	C	0.994646	-0.604631	0.560930
C86	C	1.494646	-0.104631	1.060930
C87	C	1.005184	-0.312992	0.298735
C88	C	1.505184	0.187008	0.798735
C89	C	1.005207	-0.195164	0.298748
C90	C	1.505207	0.304836	0.798748
C91	C	1.012494	-0.578845	0.115549
C92	C	1.512494	-0.078845	0.615549
C93	C	1.015763	-0.574031	0.037189
C94	C	1.515763	-0.074031	0.537189
C95	C	1.038267	-0.541584	0.595942
C96	C	1.538267	-0.041584	1.095942
C97	C	1.035315	-0.545830	0.669565
C98	C	1.535315	-0.045830	1.169565
C99	C	0.988745	-0.613128	0.708174
C100	C	1.488745	-0.113128	1.208174
C101	C	0.945119	-0.676178	0.673156
C102	C	1.445119	-0.176178	1.173156
C103	C	0.948068	-0.671926	0.599535
C104	C	1.448068	-0.171926	1.099535
C105	C	0.975086	-0.632828	0.928551
C106	C	1.475086	-0.132828	1.428551
C107	C	0.972142	-0.637078	1.002177
C108	C	1.472142	-0.137078	1.502177
C109	C	1.062337	-0.506728	0.998580
C110	C	1.562337	-0.006728	1.498580
C111	C	1.065285	-0.502486	0.924958
C112	C	1.565285	-0.002486	1.424958
C113	C	1.021657	-0.565531	0.889947
C114	C	1.521657	-0.065531	1.389947
N115	N	0.985728	-0.617472	0.783428
N116	N	1.485728	-0.117472	1.283428
N117	N	1.024671	-0.561181	0.814694
N118	N	1.524671	-0.061181	1.314694
H119	H	0.270960	-0.487045	0.369848
H120	H	0.770960	0.012955	0.869848
H121	H	1.075557	-1.005917	0.386436
H122	H	1.575557	-0.505917	0.886436
H123	H	0.915190	-1.171504	0.230198
H124	H	1.415190	-0.671504	0.730198
H125	H	0.606462	-0.684272	0.232944
H126	H	1.106462	-0.184272	0.732944
Cl127	Cl	1.123833	-0.417879	0.876426
Cl128	Cl	1.623833	0.082121	1.376426
Cl129	Cl	0.893226	-0.751185	0.555520
Cl130	Cl	1.393226	-0.251185	1.055520
H131	H	0.918803	-0.988915	0.226948
H132	H	1.418803	-0.488915	0.726948
H133	H	0.887663	-0.991030	0.319606
H134	H	1.387663	-0.491030	0.819606
Cl135	Cl	0.582893	-0.418349	0.417476
Cl136	Cl	1.082893	0.081651	0.917476
Cl137	Cl	1.096819	-0.456980	0.547412
Cl138	Cl	1.596819	0.043020	1.047412
H139	H	0.404516	-0.494802	0.364460
H140	H	0.904516	0.005198	0.864460
Cl141	Cl	0.866423	-1.189392	0.346637
Cl142	Cl	1.366423	-0.689392	0.846637
Cl143	Cl	0.749065	-0.427975	0.410761
Cl144	Cl	1.249065	0.072025	0.910761
H145	H	1.070838	-0.494493	0.698068
H146	H	1.570838	0.005507	1.198068
Cl147	Cl	1.045934	-1.189839	0.157392
Cl148	Cl	1.545934	-0.689839	0.657392
Cl149	Cl	1.117178	-0.427472	1.042598
Cl150	Cl	1.617178	0.072528	1.542598
Cl151	Cl	0.920239	-0.712086	0.884547
Cl152	Cl	1.420239	-0.212086	1.384547
H153	H	0.934217	-0.691883	1.033611
H154	H	1.434217	-0.191883	1.533611
Cl155	Cl	0.886571	-0.760779	0.721694
Cl156	Cl	1.386571	-0.260779	1.221694
H157	H	0.740018	-0.692007	0.227545
H158	H	1.240018	-0.192007	0.727545
Cl159	Cl	1.146412	-0.988405	0.258089
Cl160	Cl	1.646412	-0.488405	0.758089
Cl161	Cl	0.428082	-0.760719	0.179929
Cl162	Cl	0.928082	-0.260719	0.679929
Cl163	Cl	0.261909	-0.751095	0.186646
Cl164	Cl	0.761909	-0.251095	0.686646
H165	H	1.116171	-1.184923	0.252186
H166	H	1.616171	-0.684923	0.752186
Cl167	Cl	1.045800	-0.975334	0.157793
Cl168	Cl	1.545800	-0.475334	0.657793
H169	H	1.076627	-1.187844	0.385835
H170	H	1.576627	-0.687844	0.885835
H171	H	0.983228	-1.185155	0.415518
H172	H	1.483228	-0.685155	0.915518
H173	H	0.982269	-1.003686	0.415535
H174	H	1.482269	-0.503686	0.915535
