data_functionalizedCrystal
_audit_creation_method	'MofGen! by Chris Wilmer'
_symmetry_space_group_name_H-M	'P1'
_symmetry_Int_Tables_number	1
_symmetry_cell_setting	triclinic
loop_
_symmetry_equiv_pos_as_xyz
  x,y,z
_cell_length_a	17.077404
_cell_length_b	18.101395
_cell_length_c	17.077396
_cell_angle_alpha	89.971698
_cell_angle_beta	89.980813
_cell_angle_gamma	90.029351
loop_
_atom_site_label
_atom_site_type_symbol
_atom_site_fract_x
_atom_site_fract_y
_atom_site_fract_z
Zn1	Zn	1.199992	-0.294858	-0.443889
Zn2	Zn	1.199886	-0.418709	-0.312625
Zn3	Zn	1.068729	-0.294882	-0.312632
Zn4	Zn	1.068673	-0.418659	-0.443844
O5	O	1.134320	-0.356777	-0.378248
O6	O	1.309825	-0.311298	-0.426492
O7	O	1.182466	-0.402313	-0.202779
O8	O	1.086210	-0.191246	-0.330066
O9	O	1.309747	-0.402291	-0.330053
O10	O	1.182648	-0.191228	-0.426499
O11	O	1.086106	-0.311338	-0.202784
O12	O	0.958875	-0.311290	-0.330022
O13	O	1.086114	-0.402205	-0.553697
O14	O	0.958834	-0.402228	-0.426423
O15	O	1.182594	-0.311250	-0.553730
O16	O	1.182412	-0.522335	-0.330010
O17	O	1.086011	-0.522298	-0.426416
C18	C	0.930372	-0.356757	-0.378219
C19	C	0.843123	-0.356766	-0.378226
C20	C	1.134215	-0.549187	-0.378225
C21	C	1.134242	-0.631501	-0.378241
C22	C	0.467346	-0.309503	-0.428572
C23	C	0.549326	-0.309497	-0.428564
C24	C	0.590274	-0.356792	-0.378267
C25	C	0.549236	-0.404101	-0.327982
C26	C	0.467257	-0.404110	-0.327995
C27	C	0.720106	-0.404079	-0.327957
C28	C	0.802091	-0.404070	-0.327943
C29	C	0.802175	-0.309466	-0.428525
C30	C	0.720196	-0.309475	-0.428538
C31	C	0.679165	-0.356783	-0.378252
C32	C	1.134414	-0.930592	-0.378283
C33	C	1.073902	-0.899275	-0.439090
C34	C	1.073614	-0.813657	-0.438900
C35	C	1.134329	-0.782210	-0.378263
C36	C	1.111935	-0.813362	-0.295533
C37	C	1.111545	-0.899007	-0.295897
C38	C	1.217453	-0.898938	-0.399479
C39	C	1.216965	-0.813287	-0.401293
C40	C	1.134282	-0.698350	-0.378246
C41	C	1.134459	-1.014452	-0.378294
C42	C	1.339064	-0.356797	-0.378277
C43	C	1.426314	-0.356806	-0.378289
C44	C	1.134360	-0.356719	-0.582992
C45	C	1.134376	-0.356695	-0.670242
C46	C	1.134447	-0.163615	-0.378288
C47	C	1.134501	-0.081301	-0.378305
C48	C	1.084217	-0.309319	-0.711234
C49	C	1.084230	-0.309302	-0.793215
C50	C	1.134407	-0.356658	-0.834201
C51	C	1.184568	-0.404040	-0.793203
C52	C	1.184551	-0.404060	-0.711224
C53	C	1.184602	-0.403993	-0.964074
C54	C	1.184621	-0.403973	-1.046058
C55	C	1.084281	-0.309235	-1.046064
C56	C	1.084264	-0.309255	-0.964085
C57	C	1.134427	-0.356636	-0.923093
C58	C	1.134326	-0.356780	-0.174300
C59	C	1.134461	-0.356596	-0.087051
H60	H	0.582731	-0.270980	-0.469512
C61	C	1.029055	-0.257183	-0.838303
C62	C	0.967408	-0.289245	-0.894640
C63	C	0.912229	-0.237124	-0.939725
C64	C	0.918696	-0.152939	-0.928474
C65	C	0.980346	-0.120872	-0.872134
C66	C	1.035525	-0.172994	-0.827049
H67	H	0.962618	-0.351568	-0.902971
H68	H	0.866592	-0.260863	-0.981432
H69	H	0.877849	-0.114356	-0.961849
H70	H	0.985136	-0.058550	-0.863803
H71	H	1.081162	-0.149255	-0.785342
H72	H	1.225457	-0.442570	-0.930700
C73	C	0.990466	-0.786059	-0.419928
C74	C	0.951503	-0.807213	-0.341729
C75	C	0.868350	-0.779618	-0.322753
C76	C	0.824160	-0.730868	-0.381976
C77	C	0.863123	-0.709711	-0.460180
C78	C	0.946276	-0.737307	-0.479156
H79	H	0.984215	-0.843303	-0.297883
H80	H	0.839508	-0.795279	-0.264861
H81	H	0.762606	-0.710440	-0.367929
H82	H	0.830411	-0.673621	-0.504026
H83	H	0.975118	-0.721645	-0.537048
C84	C	1.029020	-0.257225	-0.666153
C85	C	0.967359	-0.289323	-0.609778
C86	C	0.912158	-0.237229	-0.564700
C87	C	0.918618	-0.153039	-0.575997
C88	C	0.980281	-0.120937	-0.632374
C89	C	1.035482	-0.173030	-0.677452
H90	H	0.962575	-0.351649	-0.601414
H91	H	0.866511	-0.260994	-0.522966
H92	H	0.877755	-0.114476	-0.542627
H93	H	0.985065	-0.058610	-0.640738
H94	H	1.081129	-0.149265	-0.719186
H95	H	1.043409	-0.270690	-0.930716
C96	C	1.092639	-0.927025	-0.522235
C97	C	1.163113	-0.978464	-0.535938
C98	C	1.181854	-1.006216	-0.619086
C99	C	1.130120	-0.982529	-0.688530
C100	C	1.059642	-0.931086	-0.674829
C101	C	1.040901	-0.903334	-0.591681
H102	H	1.201413	-0.996002	-0.484529
H103	H	1.234027	-1.044297	-0.629228
H104	H	1.143994	-1.003072	-0.750081
H105	H	1.021342	-0.913549	-0.726238
H106	H	0.988727	-0.865253	-0.581539
C107	C	0.675157	-0.257454	-0.483870
C108	C	0.618818	-0.289634	-0.545444
C109	C	0.573780	-0.237616	-0.600782
C110	C	0.585081	-0.153417	-0.594546
C111	C	0.641422	-0.121232	-0.532969
C112	C	0.686460	-0.173251	-0.477632
H113	H	0.610451	-0.351967	-0.550063
H114	H	0.532073	-0.261442	-0.646365
H115	H	0.551741	-0.114910	-0.635510
H116	H	0.649789	-0.058899	-0.528351
H117	H	0.728167	-0.149425	-0.432049
C118	C	0.991255	-0.928429	-0.420362
C119	C	0.924739	-0.873877	-0.401409
C120	C	0.842093	-0.903033	-0.382677
C121	C	0.825964	-0.986741	-0.382896
C122	C	0.892482	-1.041298	-0.401849
C123	C	0.975128	-1.012142	-0.420582
H124	H	0.936676	-0.811907	-0.401246
H125	H	0.792852	-0.862646	-0.368646
H126	H	0.764785	-1.008324	-0.369029
H127	H	0.880545	-1.103269	-0.402013
H128	H	1.024369	-1.052530	-0.434612
H129	H	1.225419	-0.442602	-0.826581
H130	H	1.225402	-0.442633	-0.677849
C131	C	1.092534	-0.785193	-0.521771
C132	C	1.095971	-0.701534	-0.537831
C133	C	1.114887	-0.673075	-0.620707
C134	C	1.130365	-0.728275	-0.687522
C135	C	1.126928	-0.811939	-0.671463
C136	C	1.108012	-0.840398	-0.588588
H137	H	1.084513	-0.660668	-0.488369
H138	H	1.117431	-0.611141	-0.632594
H139	H	1.144367	-0.707208	-0.748871
H140	H	1.138386	-0.852806	-0.720926
H141	H	1.105468	-0.902332	-0.576700
C142	C	1.030797	-0.784481	-0.270841
C143	C	0.995663	-0.807411	-0.191400
C144	C	0.914523	-0.778532	-0.166713
C145	C	0.868519	-0.726724	-0.221466
C146	C	0.903653	-0.703791	-0.300912
C147	C	0.984793	-0.732670	-0.325599
H148	H	1.029718	-0.845765	-0.150864
H149	H	0.888514	-0.795509	-0.107902
H150	H	0.808454	-0.705346	-0.203191
H151	H	0.869598	-0.665437	-0.341448
H152	H	1.010801	-0.715694	-0.384410
C153	C	1.281087	-0.784424	-0.345780
C154	C	1.259440	-0.731892	-0.278265
C155	C	1.323555	-0.703056	-0.222723
C156	C	1.409318	-0.726752	-0.234695
C157	C	1.430970	-0.779287	-0.302212
C158	C	1.366854	-0.808123	-0.357755
H159	H	1.195950	-0.714348	-0.269400
H160	H	1.307527	-0.664166	-0.172741
H161	H	1.456780	-0.705407	-0.193579
H162	H	1.494460	-0.796831	-0.311077
H163	H	1.382883	-0.847013	-0.407736
C164	C	1.168483	-0.927004	-0.232591
C165	C	1.214160	-0.871429	-0.181865
C166	C	1.271088	-0.899423	-0.118552
C167	C	1.282339	-0.982991	-0.105964
C168	C	1.236661	-1.038571	-0.156692
C169	C	1.179733	-1.010578	-0.220005
H170	H	1.205833	-0.809563	-0.191181
H171	H	1.304902	-0.858278	-0.081000
H172	H	1.324480	-1.003713	-0.059096
H173	H	1.244988	-1.100438	-0.147375
H174	H	1.145919	-1.051722	-0.257556
H175	H	1.050844	-0.919049	-0.277942
C176	C	1.278364	-0.926298	-0.339656
C177	C	1.324703	-0.870270	-0.290103
C178	C	1.385607	-0.897634	-0.230279
C179	C	1.400172	-0.981026	-0.220008
C180	C	1.353832	-1.037058	-0.269563
C181	C	1.292928	-1.009695	-0.329387
H182	H	1.313923	-0.808534	-0.297705
H183	H	1.419911	-0.856154	-0.193596
H184	H	1.445257	-1.001282	-0.175723
H185	H	1.364612	-1.098795	-0.261961
H186	H	1.258624	-1.051174	-0.366070
H187	H	1.154623	-0.792994	-0.248992
H188	H	1.237870	-0.920486	-0.458777
C189	C	1.239781	-0.785775	-0.483543
C190	C	1.255591	-0.841698	-0.549600
C191	C	1.278401	-0.814182	-0.631852
C192	C	1.285402	-0.730743	-0.648047
C193	C	1.269591	-0.674814	-0.581989
C194	C	1.246781	-0.702330	-0.499737
H195	H	1.250410	-0.903470	-0.537613
H196	H	1.290105	-0.855585	-0.680752
H197	H	1.302287	-0.710374	-0.708935
H198	H	1.274773	-0.613042	-0.593976
H199	H	1.235077	-0.660928	-0.450836
H200	H	1.043438	-0.270655	-1.079444
H201	H	1.225479	-0.442534	-1.079427
C202	C	0.422309	-0.257475	-0.483899
C203	C	0.365962	-0.199293	-0.450006
C204	C	0.320928	-0.147265	-0.505336
C205	C	0.332241	-0.153418	-0.594559
C206	C	0.388590	-0.211601	-0.628457
C207	C	0.433624	-0.263630	-0.573127
H208	H	0.357585	-0.194736	-0.383953
H209	H	0.279214	-0.104193	-0.480242
H210	H	0.298904	-0.114903	-0.635518
H211	H	0.396967	-0.216158	-0.694510
H212	H	0.475338	-0.306701	-0.598221
C213	C	0.847135	-0.456095	-0.272618
C214	C	0.802006	-0.508136	-0.217310
C215	C	0.847050	-0.560160	-0.161983
C216	C	0.937224	-0.560142	-0.161965
C217	C	0.982358	-0.508099	-0.217276
C218	C	0.937314	-0.456075	-0.272602
H219	H	0.735249	-0.508151	-0.217321
H220	H	0.813638	-0.598686	-0.121039
H221	H	0.970568	-0.598654	-0.121009
H222	H	1.049115	-0.508084	-0.217265
H223	H	0.970726	-0.417549	-0.313547
H224	H	0.835587	-0.270945	-0.469469
H225	H	0.686701	-0.442605	-0.287012
H226	H	0.582582	-0.442613	-0.287033
H227	H	0.433850	-0.442631	-0.287051
