data_functionalizedCrystal
_audit_creation_method	'MofGen! by Chris Wilmer'
_symmetry_space_group_name_H-M	'P1'
_symmetry_Int_Tables_number	1
_symmetry_cell_setting	triclinic
loop_
_symmetry_equiv_pos_as_xyz
  x,y,z
_cell_length_a	10.654541
_cell_length_b	17.699083
_cell_length_c	16.776229
_cell_angle_alpha	90.007545
_cell_angle_beta	90.005775
_cell_angle_gamma	83.883471
loop_
_atom_site_label
_atom_site_type_symbol
_atom_site_fract_x
_atom_site_fract_y
_atom_site_fract_z
O1	O	-1.665988	-0.106296	-0.066266
O2	O	-1.300331	-0.116425	-0.066273
O3	O	-1.493490	-0.001237	-0.066262
O4	O	-1.472829	-0.221484	-0.066276
O5	O	-1.493465	-0.001230	0.066315
O6	O	-1.300306	-0.116418	0.066304
O7	O	-1.665962	-0.106288	0.066311
Zn8	Zn	-1.483130	-0.111352	0.087357
Zn9	Zn	-1.483164	-0.111362	-0.087318
O10	O	-1.472803	-0.221477	0.066300
C11	C	-1.253534	-0.115678	0.000015
C12	C	-1.114129	-0.113454	0.000012
C13	C	-1.492737	0.026968	0.000026
C14	C	-1.490516	0.111001	0.000027
C15	C	-1.712760	-0.107035	0.000022
C16	C	-1.852165	-0.109260	0.000019
C17	C	-1.083747	-0.251193	-0.000007
C18	C	-1.003066	-0.319015	-0.000019
C19	C	-0.872084	-0.316920	-0.000020
C20	C	-0.821783	-0.246997	-0.000006
C21	C	-0.902464	-0.179175	0.000007
C22	C	-1.033447	-0.181277	0.000005
C23	C	-0.932846	-0.041438	0.000032
C24	C	-1.063828	-0.043531	0.000027
C25	C	-0.882545	0.028485	0.000046
C26	C	-0.963227	0.096308	0.000053
C27	C	-1.094215	0.094211	0.000053
C28	C	-1.144509	0.024291	0.000039
C29	C	-1.473556	-0.249682	0.000010
C30	C	-1.475777	-0.333714	0.000005
N31	N	-1.483116	-0.111345	0.206568
C32	C	-1.603896	0.158901	0.000030
C33	C	-1.601802	0.237858	0.000023
C34	C	-1.486326	0.268912	0.000018
C35	C	-1.372937	0.221005	0.000013
C36	C	-1.375033	0.142050	0.000014
C37	C	-1.364483	0.539422	0.000006
C38	C	-1.362396	0.618383	0.000007
C39	C	-1.591252	0.635230	0.000015
C40	C	-1.593348	0.556275	0.000016
C41	C	-1.479960	0.508375	0.000006
C42	C	-1.482232	0.422761	0.000013
C43	C	-1.484052	0.354524	0.000018
N44	N	-1.483187	-0.111363	-0.206530
C45	C	-1.568673	-0.060361	0.248290
C46	C	-1.568680	-0.060360	0.331742
C47	C	-1.483135	-0.111348	0.373471
C48	C	-1.397569	-0.162335	0.331743
C49	C	-1.397557	-0.162331	0.248293
C50	C	-1.397615	-0.162350	0.668290
C51	C	-1.397636	-0.162351	0.751747
C52	C	-1.568737	-0.060379	0.751740
C53	C	-1.568725	-0.060376	0.668289
C54	C	-1.483156	-0.111359	0.626569
C55	C	-1.483147	-0.111358	0.536080
C56	C	-1.483148	-0.111353	0.463958
H57	H	-1.044036	-0.375945	-0.000029
C58	C	-1.642883	0.070246	0.357437
C59	C	-1.662745	-0.004323	0.377596
H60	H	-1.700968	0.104840	0.385741
H61	H	-1.559122	0.078941	0.371136
H62	H	-1.655112	0.077530	0.301763
H63	H	-1.650507	-0.011609	0.433270
H64	H	-1.746527	-0.013021	0.363903
C65	C	-1.739465	-0.044730	0.574251
C66	C	-1.662537	-0.004259	0.622343
H67	H	-1.797317	-0.010062	0.545868
H68	H	-1.688496	-0.075157	0.537526
H69	H	-1.784768	-0.076410	0.606747
H70	H	-1.617226	0.027417	0.589846
H71	H	-1.713512	0.026181	0.659073
H72	H	-0.775892	0.030186	0.000050
H73	H	-0.806392	-0.372147	-0.000025
C74	C	-1.234061	0.440866	-0.068157
C75	C	-1.239844	0.486781	-0.000001
H76	H	-1.157105	0.408370	-0.068162
H77	H	-1.303116	0.411068	-0.068150
H78	H	-1.238020	0.472023	-0.114382
H79	H	-1.235894	0.455625	0.046224
H80	H	-1.170770	0.516582	-0.000001
H81	H	-1.638338	-0.018844	0.214320
H82	H	-1.697930	0.133623	0.000039
C83	C	-1.166702	0.628335	-0.068170
C84	C	-1.235457	0.652521	-0.000008
H85	H	-1.088344	0.649416	-0.068179
H86	H	-1.151717	0.574464	-0.068166
H87	H	-1.213411	0.644735	-0.114391
H88	H	-1.188751	0.636116	0.046213
H89	H	-1.250438	0.706404	-0.000005
H90	H	-1.683578	0.674240	0.000019
C91	C	-1.728477	0.477246	-0.068132
C92	C	-1.720280	0.522139	0.000019
H93	H	-1.806839	0.456170	-0.068129
H94	H	-1.722916	0.507693	-0.114355
H95	H	-1.661244	0.437421	-0.068123
H96	H	-1.787509	0.561968	0.000007
H97	H	-1.725854	0.491690	0.046254
C98	C	-1.700213	0.366371	0.000008
C99	C	-1.726432	0.290512	0.000021
H100	H	-1.777160	0.398876	-0.000002
H101	H	-1.652857	0.375857	0.046236
H102	H	-1.652858	0.375830	-0.046229
H103	H	-1.773780	0.281051	0.046261
H104	H	-1.773809	0.281022	-0.046212
C105	C	-0.625887	-0.281489	-0.068157
C106	C	-0.677807	-0.244693	-0.000001
H107	H	-0.537003	-0.280061	-0.068154
H108	H	-0.644296	-0.332830	-0.068158
H109	H	-0.661140	-0.256521	-0.114382
H110	H	-0.642561	-0.269665	0.046225
H111	H	-0.659387	-0.193343	0.000008
C112	C	-1.177198	0.230952	0.068152
C113	C	-1.245999	0.255134	0.000004
H114	H	-1.098827	0.252017	0.068143
H115	H	-1.223858	0.247364	0.114378
H116	H	-1.162234	0.177072	0.068142
H117	H	-1.260971	0.309013	0.000017
H118	H	-1.199329	0.238726	-0.046233
H119	H	-1.327943	-0.203864	0.634328
H120	H	-1.282707	0.103050	0.000011
H121	H	-0.922260	0.153235	0.000064
H122	H	-1.638409	-0.018863	0.785718
C123	C	-1.228468	-0.263140	0.743376
C124	C	-1.303586	-0.218394	0.797617
H125	H	-1.170405	-0.297732	0.771697
H126	H	-1.280636	-0.290662	0.710817
H127	H	-1.183402	-0.231369	0.710838
H128	H	-1.348659	-0.250165	0.830152
H129	H	-1.251411	-0.190870	0.830190
C130	C	-1.226642	-0.177803	0.425618
C131	C	-1.303537	-0.218380	0.377614
H132	H	-1.168598	-0.212407	0.453939
H133	H	-1.181566	-0.146052	0.393075
H134	H	-1.277616	-0.147441	0.462405
H135	H	-1.252564	-0.248738	0.340822
H136	H	-1.348617	-0.250145	0.410159
C137	C	-1.340426	0.058782	-0.068107
C138	C	-1.288485	0.021982	0.000037
H139	H	-1.429309	0.057350	-0.068108
H140	H	-1.322024	0.110124	-0.068090
H141	H	-1.305182	0.033818	-0.114340
H142	H	-1.323722	0.046949	0.046270
H143	H	-1.306897	-0.029369	0.000028
C144	C	-1.323406	-0.292943	0.222576
C145	C	-1.303517	-0.218377	0.202427
H146	H	-1.265350	-0.327542	0.194256
H147	H	-1.311166	-0.300239	0.278240
H148	H	-1.407190	-0.301622	0.208883
H149	H	-1.219736	-0.209697	0.216125
H150	H	-1.315747	-0.211078	0.146750
H151	H	-1.190398	-0.252906	-0.000024
H152	H	-1.159900	0.149440	0.000066
