data_functionalizedCrystal
_audit_creation_method	'MofGen! by Chris Wilmer'
_symmetry_space_group_name_H-M	'P1'
_symmetry_Int_Tables_number	1
_symmetry_cell_setting	triclinic
loop_
_symmetry_equiv_pos_as_xyz
  x,y,z
_cell_length_a	11.295501
_cell_length_b	12.837939
_cell_length_c	12.837942
_cell_angle_alpha	85.171210
_cell_angle_beta	85.830212
_cell_angle_gamma	94.169798
loop_
_atom_site_label
_atom_site_type_symbol
_atom_site_fract_x
_atom_site_fract_y
_atom_site_fract_z
O1	O	-0.099013	-1.409247	0.279047
O2	O	-0.099018	-1.106113	0.265605
O3	O	-0.099008	-1.250958	0.120758
O4	O	-0.099023	-1.264402	0.423893
O5	O	0.099043	-1.237120	0.106930
O6	O	0.099033	-1.092276	0.251776
O7	O	0.099038	-1.395409	0.265219
Cu8	Cu	0.117119	-1.242579	0.257235
Cu9	Cu	-0.117099	-1.258943	0.273588
O10	O	0.099028	-1.250565	0.410065
C11	C	0.000007	-1.060126	0.254149
C12	C	0.000005	-0.943711	0.240605
N13	N	0.281856	-1.231077	0.245733
N14	N	-0.281836	-1.270453	0.285083
C15	C	0.000016	-0.718836	0.403434
C16	C	0.000015	-0.609453	0.390713
C17	C	0.000012	-0.615561	0.202443
C18	C	0.000012	-0.724943	0.215164
C19	C	0.000013	-0.776577	0.315663
C20	C	0.000005	-0.885962	0.328383
C21	C	0.000010	-0.892067	0.140113
C22	C	0.000009	-0.782684	0.127392
C23	C	0.531143	-1.353246	0.367929
C24	C	0.655806	-1.344561	0.359229
C25	C	0.655850	-1.205027	0.219629
C26	C	0.531186	-1.213713	0.228329
C27	C	0.468837	-1.287823	0.302482
C28	C	0.344170	-1.296503	0.311187
C29	C	0.344216	-1.156975	0.171582
C30	C	0.468880	-1.148290	0.162882
C31	C	0.000017	-1.239498	0.074775
C32	C	0.000014	-1.225953	-0.041640
C33	C	0.000012	-0.441397	0.276675
C34	C	0.000011	-0.557812	0.290221
C35	C	-0.000008	-1.388784	-0.266513
C36	C	-0.000010	-1.376063	-0.375895
C37	C	-0.000001	-1.187791	-0.369788
C38	C	0.000001	-1.200513	-0.260406
C39	C	-0.000000	-1.301012	-0.208772
C40	C	0.000010	-1.313732	-0.099388
C41	C	0.000011	-1.125462	-0.093283
C42	C	0.000009	-1.112740	-0.202665
C43	C	0.000001	-1.262025	0.456048
C44	C	-0.000005	-1.275570	0.572463
H45	H	0.000007	-0.928000	0.410215
N46	N	0.000003	-0.726979	0.019008
H47	H	-0.073418	-0.752475	-0.014801
H48	H	0.073466	-0.742235	-0.024986
H49	H	0.706531	-1.397836	0.412522
N50	N	0.000017	-0.559845	0.094062
H51	H	-0.073401	-0.585331	0.060243
H52	H	0.073483	-0.575099	0.050072
N53	N	-0.000006	-0.954344	0.045437
H54	H	-0.000010	-1.031474	0.068742
H55	H	0.073411	-0.931434	-0.003028
H56	H	0.293408	-1.356843	0.371570
N57	N	-0.000002	-0.774536	0.511823
H58	H	-0.000007	-0.721359	0.565499
H59	H	0.073416	-0.814659	0.516079
H60	H	0.000002	-1.470614	-0.224473
N61	N	0.000065	-0.547170	0.485377
H62	H	0.000080	-0.596480	0.550968
H63	H	-0.073341	-0.506766	0.489354
H64	H	-0.000020	-1.447537	-0.422903
H65	H	0.000013	-1.395563	-0.057350
N66	N	0.463885	-1.433163	0.447914
H67	H	0.522274	-1.473288	0.488059
H68	H	0.412151	-1.483438	0.410967
N69	N	0.536135	-1.068352	0.082916
H70	H	0.477744	-1.028223	0.042778
H71	H	0.587852	-1.105333	0.032659
N72	N	-0.000012	-1.079404	-0.425486
H73	H	-0.000019	-1.084670	-0.503540
H74	H	0.073411	-1.035391	-0.410171
H75	H	0.706636	-1.144700	0.159246
H76	H	0.000006	-1.030916	-0.244720
H77	H	0.000027	-1.053990	-0.046259
H78	H	0.293473	-1.103698	0.118295
