data_functionalizedCrystal
_audit_creation_method	'MofGen! by Chris Wilmer'
_symmetry_space_group_name_H-M	'P1'
_symmetry_Int_Tables_number	1
_symmetry_cell_setting	triclinic
loop_
_symmetry_equiv_pos_as_xyz
  x,y,z
_cell_length_a	12.759401
_cell_length_b	12.759400
_cell_length_c	12.759393
_cell_angle_alpha	89.970209
_cell_angle_beta	89.981504
_cell_angle_gamma	90.015381
loop_
_atom_site_label
_atom_site_type_symbol
_atom_site_fract_x
_atom_site_fract_y
_atom_site_fract_z
Zn1	Zn	1.606252	-0.418200	-0.593994
Zn2	Zn	1.606144	-0.593919	-0.418320
Zn3	Zn	1.430554	-0.418255	-0.418334
Zn4	Zn	1.430541	-0.593838	-0.593961
O5	O	1.518373	-0.506053	-0.506152
O6	O	1.753258	-0.441520	-0.570699
O7	O	1.582812	-0.570673	-0.271301
O8	O	1.453911	-0.271226	-0.441655
O9	O	1.753180	-0.570620	-0.441631
O10	O	1.582995	-0.271186	-0.570712
O11	O	1.453807	-0.441614	-0.271311
O12	O	1.283531	-0.441535	-0.441623
O13	O	1.453889	-0.570482	-0.740987
O14	O	1.283521	-0.570536	-0.570656
O15	O	1.582983	-0.441442	-0.741011
O16	O	1.582800	-0.740929	-0.441599
O17	O	1.453785	-0.740870	-0.570643
C18	C	1.245405	-0.506033	-0.506138
C19	C	1.128629	-0.506050	-0.506157
C20	C	1.518308	-0.779020	-0.506139
C21	C	1.518376	-0.895797	-0.506168
C22	C	1.073789	-0.573328	-0.573233
C23	C	0.964065	-0.573342	-0.573245
C24	C	0.964030	-0.438796	-0.439094
C25	C	1.073752	-0.438778	-0.439089
C26	C	1.073809	-0.651010	-0.650681
C27	C	0.964085	-0.651024	-0.650692
C28	C	1.451248	-1.060397	-0.573325
C29	C	1.451185	-0.950673	-0.573310
C30	C	1.585642	-0.950650	-0.439045
C31	C	1.585709	-1.060372	-0.439066
C32	C	1.413489	-0.800668	-0.697155
C33	C	1.346214	-0.745818	-0.764266
C34	C	1.243713	-0.781508	-0.780315
C35	C	1.208466	-0.872046	-0.729238
C36	C	1.275735	-0.926890	-0.662119
C37	C	1.378251	-0.891201	-0.646089
C38	C	1.623394	-1.210379	-0.315220
C39	C	1.690659	-1.265225	-0.248094
C40	C	1.793162	-1.229537	-0.232034
C41	C	1.828405	-1.138996	-0.283093
C42	C	1.761141	-1.084151	-0.350218
C43	C	1.658639	-1.119846	-0.366280
C44	C	1.792406	-0.506073	-0.506167
C45	C	1.909182	-0.506082	-0.506174
C46	C	1.518446	-0.505947	-0.780186
C47	C	1.518477	-0.505902	-0.896962
C48	C	1.518466	-0.232019	-0.506189
C49	C	1.518506	-0.115243	-0.506204
C50	C	1.585706	-0.438704	-0.951839
C51	C	1.585731	-0.438666	-1.061563
C52	C	1.451296	-0.573033	-1.061525
C53	C	1.451266	-0.573064	-0.951803
C54	C	1.663324	-0.361131	-0.951862
C55	C	1.663349	-0.361093	-1.061586
C56	C	1.518360	-0.506083	-0.233185
C57	C	1.518532	-0.505832	-0.116409
H58	H	1.118398	-0.383987	-0.384476
H59	H	0.919335	-0.384025	-0.384491
H60	H	1.641556	-0.279767	-0.922103
O61	O	1.755423	-0.396086	-0.911200
C62	C	1.841104	-0.524945	-0.802927
C63	C	1.736735	-0.485481	-0.848925
H64	H	1.826027	-0.597212	-0.752550
H65	H	1.896934	-0.546052	-0.869418
H66	H	1.877613	-0.460726	-0.752699
H67	H	1.700135	-0.549652	-0.899141
H68	H	1.680977	-0.464342	-0.782385
O69	O	1.656594	-1.353269	-0.198539
C70	C	1.680968	-1.538655	-0.171961
C71	C	1.719664	-1.439023	-0.228129
H72	H	1.731928	-1.608016	-0.195880
H73	H	1.686129	-1.527011	-0.083532
H74	H	1.596138	-1.554706	-0.194945
H75	H	1.804502	-1.422915	-0.205230
H76	H	1.714425	-1.450716	-0.316546
H77	H	1.640355	-0.905964	-0.384380
H78	H	1.103617	-0.629311	-0.732087
H79	H	1.539930	-1.239450	-0.328298
H80	H	1.107822	-0.728262	-0.621398
O81	O	1.513128	-0.766145	-0.681659
C82	C	1.697406	-0.805020	-0.695578
C83	C	1.584623	-0.844246	-0.713220
H84	H	1.755240	-0.868153	-0.721066
H85	H	1.711124	-0.730916	-0.743624
H86	H	1.709343	-0.786970	-0.608904
H87	H	1.572607	-0.862355	-0.799867
H88	H	1.570958	-0.918314	-0.665107
H89	H	0.930087	-0.621980	-0.728043
H90	H	1.911870	-1.109935	-0.270012
O91	O	0.928705	-0.748115	-0.624465
C92	C	0.974479	-0.925040	-0.576807
C93	C	1.014688	-0.815134	-0.606469
H94	H	1.043976	-0.979262	-0.562271
H95	H	0.924849	-0.919717	-0.502688
H96	H	0.924831	-0.957526	-0.643585
H97	H	1.064380	-0.782585	-0.539760
H98	H	1.064261	-0.820523	-0.680620
H99	H	1.188937	-0.736841	-0.834959
O100	O	1.628652	-0.268781	-1.102039
C101	C	1.563279	-0.095409	-1.065656
C102	C	1.602578	-0.199884	-1.019702
H103	H	1.542166	-0.039685	-0.999110
H104	H	1.627498	-0.058833	-1.115920
H105	H	1.491001	-0.110399	-1.115973
H106	H	1.674836	-0.184984	-0.969338
H107	H	1.538294	-0.236429	-0.969498
H108	H	1.396573	-0.627712	-1.106189
O109	O	1.386090	-1.113653	-0.638699
C110	C	1.334983	-1.147090	-0.817375
C111	C	1.408853	-1.086736	-0.743454
H112	H	1.353346	-1.125334	-0.902083
H113	H	1.346585	-1.234946	-0.805953
H114	H	1.250270	-1.125616	-0.798798
H115	H	1.493595	-1.108122	-0.761985
H116	H	1.397161	-0.998895	-0.754889
O117	O	1.241499	-1.014736	-0.612342
C118	C	1.209198	-1.099756	-0.446770
C119	C	1.247975	-1.000190	-0.502999
H120	H	1.214441	-1.088037	-0.358357
H121	H	1.124355	-1.115857	-0.469676
H122	H	1.260166	-1.169122	-0.470661
H123	H	1.197084	-0.930762	-0.479137
H124	H	1.332834	-0.984181	-0.480091
O125	O	1.108872	-0.906591	-0.744974
C126	C	0.944174	-0.878001	-0.832803
C127	C	1.056945	-0.838773	-0.815091
H128	H	0.902150	-0.823177	-0.889475
H129	H	0.946305	-0.960439	-0.867149
H130	H	0.900554	-0.879393	-0.754824
H131	H	1.100630	-0.837313	-0.893028
H132	H	1.054737	-0.756358	-0.780696
O133	O	1.380344	-0.657776	-0.813780
C134	C	1.355923	-0.472415	-0.840496
C135	C	1.317189	-0.572035	-0.784333
H136	H	1.304867	-0.403073	-0.816726
H137	H	1.440729	-0.456240	-0.817504
H138	H	1.350809	-0.484205	-0.928907
H139	H	1.322234	-0.560321	-0.695912
H140	H	1.232402	-0.588180	-0.807411
H141	H	1.744720	-0.382886	-1.091365
O142	O	1.858482	-1.282677	-0.166692
C143	C	1.964467	-1.276534	-0.010537
C144	C	1.890487	-1.216241	-0.084429
H145	H	1.990382	-1.222840	0.055978
H146	H	1.921699	-1.347350	0.023290
H147	H	2.036152	-1.304034	-0.056228
H148	H	1.818787	-1.188670	-0.038812
H149	H	1.933333	-1.145475	-0.118260
H150	H	1.396519	-0.627780	-0.907126
H151	H	1.789843	-1.010424	-0.391790
