data_functionalizedCrystal
_audit_creation_method	'MofGen! by Chris Wilmer'
_symmetry_space_group_name_H-M	'P1'
_symmetry_Int_Tables_number	1
_symmetry_cell_setting	triclinic
loop_
_symmetry_equiv_pos_as_xyz
  x,y,z
_cell_length_a	19.188931
_cell_length_b	10.654550
_cell_length_c	9.730223
_cell_angle_alpha	90.000193
_cell_angle_beta	90.001336
_cell_angle_gamma	96.185158
loop_
_atom_site_label
_atom_site_type_symbol
_atom_site_fract_x
_atom_site_fract_y
_atom_site_fract_z
O1	O	0.927166	-0.156774	-0.114237
O2	O	1.427166	0.343226	0.385763
O3	O	0.723993	-0.177880	-0.114250
O4	O	1.223993	0.322120	0.385750
O5	O	0.830251	0.015511	-0.114238
O6	O	1.330251	0.515511	0.385762
O7	O	0.820908	-0.350165	-0.114249
O8	O	1.320908	0.149835	0.385751
O9	O	0.830250	0.015506	0.114342
O10	O	1.330250	0.515506	0.614342
O11	O	0.723992	-0.177885	0.114330
O12	O	1.223992	0.322115	0.614330
O13	O	0.927165	-0.156779	0.114343
O14	O	1.427165	0.343221	0.614343
Zn15	Zn	0.825578	-0.167333	0.150628
Zn16	Zn	1.325578	0.332667	0.650628
Zn17	Zn	0.825580	-0.167326	-0.150536
Zn18	Zn	1.325580	0.332674	0.349464
O19	O	0.820907	-0.350170	0.114331
O20	O	1.320907	0.149830	0.614331
C21	C	0.697977	-0.177199	0.000038
C22	C	1.197977	0.322801	0.500038
C23	C	0.620459	-0.175147	0.000033
C24	C	1.120459	0.324853	0.500033
C25	C	0.829564	0.062292	0.000050
C26	C	1.329564	0.562292	0.500050
C27	C	0.827512	0.201692	0.000045
C28	C	1.327512	0.701692	0.500045
C29	C	0.953181	-0.157460	0.000052
C30	C	1.453181	0.342540	0.500052
C31	C	1.030699	-0.159512	0.000048
C32	C	1.530699	0.340488	0.500048
C33	C	1.074881	-0.046037	0.000039
C34	C	1.574881	0.453963	0.500039
C35	C	1.147717	-0.047964	0.000047
C36	C	1.647717	0.452036	0.500047
C37	C	1.176368	-0.163374	0.000036
C38	C	1.676368	0.336626	0.500036
C39	C	1.132177	-0.276864	0.000053
C40	C	1.632177	0.223136	0.500053
C41	C	1.059342	-0.274933	0.000058
C42	C	1.559342	0.225067	0.500058
N43	N	1.284941	-0.251588	-0.077779
N44	N	1.784941	0.248412	0.422221
N45	N	1.354131	-0.253415	-0.077787
N46	N	1.854131	0.246585	0.422213
C47	C	1.395815	-0.169198	0.000023
C48	C	1.895815	0.330802	0.500023
N49	N	1.365696	-0.083066	0.077824
N50	N	1.865696	0.416934	0.577824
N51	N	1.296500	-0.081236	0.077826
N52	N	1.796500	0.418764	0.577826
C53	C	1.255345	-0.165480	0.000031
C54	C	1.755345	0.334520	0.500031
C55	C	1.518975	-0.057804	0.000025
C56	C	2.018975	0.442196	0.500025
C57	C	1.591813	-0.059737	0.000042
C58	C	2.091813	0.440263	0.500042
C59	C	1.576271	-0.288640	0.000033
C60	C	2.076271	0.211360	0.500033
C61	C	1.503435	-0.286704	0.000030
C62	C	2.003435	0.213296	0.500030
C63	C	1.474792	-0.171283	0.000020
C64	C	1.974792	0.328717	0.500020
C65	C	0.821593	-0.396951	0.000040
C66	C	1.321593	0.103049	0.500040
C67	C	0.823646	-0.536351	0.000036
C68	C	1.323646	-0.036351	0.500036
N69	N	0.825582	-0.167336	0.356165
N70	N	1.325582	0.332664	0.856165
C71	C	0.890075	0.282501	0.000053
C72	C	1.390075	0.782501	0.500053
C73	C	0.888142	0.413481	0.000044
C74	C	1.388142	0.913481	0.500044
C75	C	0.761078	0.382829	0.000023
C76	C	1.261078	0.882829	0.500023
C77	C	0.763011	0.251852	0.000023
C78	C	1.263011	0.751852	0.500023
C79	C	0.963434	0.300199	0.000071
C80	C	1.463434	0.800199	0.500071
C81	C	0.961502	0.431179	0.000061
C82	C	1.461502	0.931179	0.500061
N83	N	0.825581	-0.167313	-0.356072
N84	N	1.325581	0.332687	0.143928
C85	C	0.872645	-0.081732	0.428096
C86	C	1.372645	0.418268	0.928096
C87	C	0.872643	-0.081716	0.571979
C88	C	1.372643	0.418284	1.071979
C89	C	0.778513	-0.252922	0.571987
C90	C	1.278513	0.247078	1.071987
C91	C	0.778512	-0.252930	0.428106
C92	C	1.278512	0.247070	0.928106
C93	C	0.926993	0.017109	0.428093
C94	C	1.426993	0.517109	0.928093
C95	C	0.926991	0.017124	0.571976
C96	C	1.426991	0.517124	1.071976
H97	H	1.051564	0.047948	0.000035
H98	H	1.551564	0.547948	0.500035
H99	H	1.599598	-0.382608	0.000033
H100	H	2.099598	0.117392	0.500033
Br101	Br	0.907127	0.177577	0.362989
Br102	Br	1.407127	0.677577	0.862989
H103	H	1.183697	0.044444	0.000036
H104	H	1.683697	0.544444	0.500036
H105	H	0.977683	-0.012407	0.383469
H106	H	1.477683	0.487593	0.883469
Br107	Br	1.011259	0.252270	-0.159347
Br108	Br	1.511259	0.752270	0.340653
H109	H	0.910029	0.107988	0.616593
H110	H	1.410029	0.607988	1.116593
Br111	Br	0.673546	0.450912	-0.000015
Br112	Br	1.173546	0.950912	0.499985
H113	H	1.155509	-0.370831	0.000047
H114	H	1.655509	0.129169	0.500047
H115	H	1.023369	-0.367341	0.000066
H116	H	1.523369	0.132659	0.500066
Br117	Br	1.480098	0.098834	0.000038
Br118	Br	1.980098	0.598834	0.500038
Br119	Br	1.016413	-0.016832	0.637081
Br120	Br	1.516413	0.483168	1.137081
H121	H	0.986794	0.265065	0.098769
H122	H	1.486794	0.765065	0.598769
Br123	Br	1.651776	0.094280	0.000051
Br124	Br	2.151776	0.594280	0.500051
H125	H	1.467461	-0.379108	0.000029
H126	H	1.967461	0.120892	0.500029
H127	H	0.983672	0.477293	-0.098632
H128	H	1.483672	0.977293	0.401368
Br129	Br	1.007568	0.501765	0.159494
Br130	Br	1.507568	1.001765	0.659494
Br131	Br	0.714633	-0.369076	0.669629
Br132	Br	1.214633	0.130924	1.169629
Br133	Br	0.714627	-0.369089	0.330482
Br134	Br	1.214627	0.130911	0.830482
H135	H	0.712066	0.186060	-0.000003
H136	H	1.212066	0.686060	0.499997
