data_functionalizedCrystal
_audit_creation_method	'MofGen! by Chris Wilmer'
_symmetry_space_group_name_H-M	'P1'
_symmetry_Int_Tables_number	1
_symmetry_cell_setting	triclinic
loop_
_symmetry_equiv_pos_as_xyz
  x,y,z
_cell_length_a	6.817900
_cell_length_b	15.185311
_cell_length_c	19.453114
_cell_angle_alpha	95.653796
_cell_angle_beta	101.709288
_cell_angle_gamma	104.261569
loop_
_atom_site_label
_atom_site_type_symbol
_atom_site_fract_x
_atom_site_fract_y
_atom_site_fract_z
V1	V	-4.010750	-0.126703	-0.219207
O2	O	-3.994583	0.005115	-0.214822
O3	O	-3.966209	-0.250294	-0.217911
O4	O	-3.953618	-0.125181	-0.314717
O5	O	-4.007262	-0.120864	-0.117346
V6	V	-4.495009	-0.110885	-0.206998
O7	O	-4.270393	-0.161399	-0.245986
O8	O	-4.685564	-0.076189	-0.180219
O9	O	-4.316344	0.012706	-0.208294
O10	O	-4.628573	-0.242703	-0.211383
O11	O	-4.615895	-0.116724	-0.308859
O12	O	-4.328935	-0.112407	-0.111488
C13	C	-3.812432	-0.280409	-0.214506
C14	C	-3.857243	-0.381449	-0.214083
C15	C	-4.012022	-0.795423	-0.147973
C16	C	-4.081629	-0.821924	-0.276667
C17	C	-4.039499	-0.726990	-0.277060
C18	C	-3.983631	-0.666268	-0.212908
C19	C	-3.969893	-0.700480	-0.148364
C20	C	-4.053254	-0.692771	-0.341603
C21	C	-4.011125	-0.597832	-0.341999
C22	C	-3.955241	-0.537108	-0.277846
C23	C	-3.941502	-0.571326	-0.213299
C24	C	-3.885634	-0.510604	-0.149148
C25	C	-3.871880	-0.544819	-0.084600
C26	C	-3.914010	-0.639757	-0.084211
C27	C	-3.913111	-0.442171	-0.278235
C28	C	-3.843505	-0.415661	-0.149539
C29	C	-3.796369	-0.120814	-0.337990
C30	C	-3.830966	-0.120388	-0.416072
C31	C	-4.029144	-0.124750	-0.456336
C32	C	-4.061652	-0.124350	-0.529702
C33	C	-3.895979	-0.119605	-0.562803
C34	C	-3.697771	-0.115238	-0.522529
C35	C	-3.665264	-0.115629	-0.449164
N36	N	-3.837735	-0.167606	-0.681671
N37	N	-3.868628	-0.167236	-0.751366
C38	C	-3.993909	-0.118424	-0.783850
N39	N	-4.087165	-0.070007	-0.744008
N40	N	-4.056276	-0.070381	-0.674307
C41	C	-3.931207	-0.119180	-0.642356
C42	C	-4.227348	-0.122351	-0.903666
C43	C	-4.259846	-0.121944	-0.977033
C44	C	-3.895963	-0.112841	-0.969859
C45	C	-3.863466	-0.113239	-0.896493
C46	C	-4.029168	-0.117998	-0.863402
C47	C	-4.133464	0.042816	-0.211697
C48	C	-4.067890	0.143855	-0.212124
C49	C	-4.149527	-0.116777	-0.088211
C50	C	-4.094168	-0.117198	-0.010129
H51	H	-4.022323	-0.569983	-0.394558
H52	H	-3.503877	-0.112070	-0.416379
O53	O	-4.388306	-0.127123	-0.871501
C54	C	-4.602479	-0.211970	-0.802453
C55	C	-4.420195	-0.206690	-0.838861
H56	H	-4.628291	-0.276284	-0.776043
H57	H	-4.749807	-0.215070	-0.843812
H58	H	-4.564186	-0.148414	-0.760507
H59	H	-4.458287	-0.270230	-0.880803
H60	H	-4.272922	-0.203544	-0.797461
H61	H	-4.421226	-0.125490	-1.009814
O62	O	-3.926134	-0.408818	-0.340879
C63	C	-3.746038	-0.312657	-0.412695
C64	C	-3.731013	-0.350341	-0.341710
H65	H	-3.588293	-0.265387	-0.413397
H66	H	-3.867611	-0.272366	-0.418798
H67	H	-3.793316	-0.372382	-0.458468
H68	H	-3.683672	-0.290671	-0.295896
H69	H	-3.609491	-0.390659	-0.335669
H70	H	-3.902821	-0.667624	-0.031660
H71	H	-3.761065	-0.108970	-0.996808
H72	H	-4.223040	-0.127907	-0.562493
O73	O	-3.998845	-0.828810	-0.085338
C74	C	-4.032741	-0.963310	-0.027689
C75	C	-4.047790	-0.925625	-0.098674
H76	H	-4.072260	-1.041588	-0.038446
H77	H	-4.147032	-0.941737	0.001278
H78	H	-3.867623	-0.934490	0.006659
H79	H	-4.212831	-0.954427	-0.133078
H80	H	-3.933379	-0.947190	-0.127586
O81	O	-4.189870	-0.129242	-0.424095
C82	C	-4.324633	-0.055797	-0.335796
C83	C	-4.142449	-0.050604	-0.372242
H84	H	-4.286376	0.007782	-0.293875
H85	H	-4.350617	-0.120103	-0.309377
H86	H	-4.471864	-0.058890	-0.377197
H87	H	-3.995109	-0.047475	-0.330885
H88	H	-4.116647	0.013692	-0.398676
O89	O	-3.789605	-0.356724	-0.087209
C90	C	-3.890089	-0.309470	0.019347
C91	C	-3.951408	-0.376259	-0.051226
H92	H	-4.020854	-0.325253	0.048467
H93	H	-3.862454	-0.235722	0.008021
H94	H	-3.741473	-0.318031	0.053824
H95	H	-4.100053	-0.367782	-0.085738
H96	H	-3.978906	-0.449981	-0.039848
H97	H	-3.702094	-0.109696	-0.863710
H98	H	-3.826399	-0.495368	-0.032368
H99	H	-3.562879	-0.111372	-0.549484
O100	O	-4.107248	-0.751652	-0.403958
C101	C	-4.006706	-0.798984	-0.510483
C102	C	-3.945310	-0.732226	-0.439891
H103	H	-3.875795	-0.783315	-0.539548
H104	H	-4.155196	-0.790401	-0.545030
H105	H	-4.034534	-0.872710	-0.499103
H106	H	-3.917370	-0.658473	-0.451206
H107	H	-3.796876	-0.740889	-0.405366
H108	H	-4.127136	-0.871369	-0.328896
