data_functionalizedCrystal
_audit_creation_method	'MofGen! by Chris Wilmer'
_symmetry_space_group_name_H-M	'P1'
_symmetry_Int_Tables_number	1
_symmetry_cell_setting	triclinic
loop_
_symmetry_equiv_pos_as_xyz
  x,y,z
_cell_length_a	21.395362
_cell_length_b	19.805405
_cell_length_c	21.395355
_cell_angle_alpha	89.980090
_cell_angle_beta	89.956060
_cell_angle_gamma	90.042288
loop_
_atom_site_label
_atom_site_type_symbol
_atom_site_fract_x
_atom_site_fract_y
_atom_site_fract_z
Zn1	Zn	0.957878	-0.269255	-0.354580
Zn2	Zn	1.291212	0.064079	-0.021246
Zn3	Zn	1.624545	0.397412	0.312087
Zn4	Zn	0.957789	-0.382425	-0.249800
Zn5	Zn	1.291122	-0.049091	0.083534
Zn6	Zn	1.624455	0.284242	0.416867
Zn7	Zn	0.853093	-0.269286	-0.249781
Zn8	Zn	1.186426	0.064047	0.083553
Zn9	Zn	1.519760	0.397380	0.416886
Zn10	Zn	0.853070	-0.382438	-0.354504
Zn11	Zn	1.186403	-0.049105	-0.021171
Zn12	Zn	1.519737	0.284228	0.312162
O13	O	0.905458	-0.325851	-0.302166
O14	O	1.238791	0.007482	0.031167
O15	O	1.572124	0.340816	0.364501
O16	O	1.045544	-0.284248	-0.340720
O17	O	1.378878	0.049085	-0.007386
O18	O	1.712211	0.382419	0.325947
O19	O	0.943873	-0.367424	-0.162119
O20	O	1.277206	-0.034091	0.171214
O21	O	1.610539	0.299243	0.504548
O22	O	0.867040	-0.174565	-0.263706
O23	O	1.200374	0.158768	0.069627
O24	O	1.533707	0.492101	0.402960
O25	O	1.045478	-0.367393	-0.263738
O26	O	1.378812	-0.034060	0.069595
O27	O	1.712145	0.299273	0.402929
O28	O	0.944025	-0.174542	-0.340701
O29	O	1.277359	0.158791	-0.007368
O30	O	1.610692	0.492124	0.325965
O31	O	0.866953	-0.284302	-0.162105
O32	O	1.200287	0.049032	0.171228
O33	O	1.533620	0.382365	0.504561
O34	O	0.765412	-0.284315	-0.263633
O35	O	1.098746	0.049018	0.069700
O36	O	1.432079	0.382352	0.403033
O37	O	0.867001	-0.367417	-0.442192
O38	O	1.200334	-0.034084	-0.108859
O39	O	1.533668	0.299250	0.224475
O40	O	0.765395	-0.367448	-0.340573
O41	O	1.098729	-0.034114	-0.007240
O42	O	1.432062	0.299219	0.326094
O43	O	0.944003	-0.284261	-0.442247
O44	O	1.277336	0.049072	-0.108914
O45	O	1.610670	0.382405	0.224419
O46	O	0.943850	-0.477143	-0.263665
O47	O	1.277184	-0.143810	0.069668
O48	O	1.610517	0.189524	0.403002
O49	O	0.866914	-0.477153	-0.340591
O50	O	1.200247	-0.143820	-0.007258
O51	O	1.533581	0.189513	0.326075
C52	C	0.742670	-0.325887	-0.302093
C53	C	1.076003	0.007447	0.031240
C54	C	1.409336	0.340780	0.364573
C55	C	0.673029	-0.325918	-0.302077
C56	C	1.006362	0.007415	0.031256
C57	C	1.339695	0.340748	0.364590
C58	C	0.640323	-0.369263	-0.342080
C59	C	0.973656	-0.035930	-0.008746
C60	C	1.306990	0.297404	0.324587
C61	C	0.574888	-0.369246	-0.342108
C62	C	0.908221	-0.035913	-0.008774
C63	C	1.241554	0.297420	0.324559
C64	C	0.542160	-0.325892	-0.302122
C65	C	0.875494	0.007441	0.031212
C66	C	1.208827	0.340774	0.364545
C67	C	0.574874	-0.282539	-0.262116
C68	C	0.908207	0.050794	0.071217
C69	C	1.241540	0.384127	0.404550
C70	C	0.640308	-0.282553	-0.262094
C71	C	0.973641	0.050781	0.071239
C72	C	1.306974	0.384114	0.404573
C73	C	0.438435	-0.320440	-0.245717
C74	C	0.771768	0.012894	0.087617
C75	C	1.105102	0.346227	0.420950
C76	C	0.373002	-0.320431	-0.245738
C77	C	0.706336	0.012902	0.087595
C78	C	1.039669	0.346235	0.420929
C79	C	0.340340	-0.325848	-0.302191
C80	C	0.673673	0.007485	0.031142
C81	C	1.007006	0.340818	0.364476
C82	C	0.373118	-0.331287	-0.358624
C83	C	0.706451	0.002046	-0.025291
C84	C	1.039785	0.335379	0.308042
C85	C	0.438552	-0.331301	-0.358602
C86	C	0.771885	0.002033	-0.025269
C87	C	1.105219	0.335366	0.308065
C88	C	0.471208	-0.325873	-0.302142
C89	C	0.804541	0.007460	0.031192
C90	C	1.137875	0.340794	0.364525
C91	C	0.236682	-0.369177	-0.342227
C92	C	0.570015	-0.035844	-0.008894
C93	C	0.903348	0.297490	0.324440
C94	C	0.171245	-0.369156	-0.342256
C95	C	0.504578	-0.035822	-0.008923
C96	C	0.837912	0.297511	0.324411
C97	C	0.171232	-0.282452	-0.262259
C98	C	0.504566	0.050881	0.071074
C99	C	0.837899	0.384214	0.404407
C100	C	0.236668	-0.282470	-0.262236
C101	C	0.570001	0.050863	0.071097
C102	C	0.903334	0.384196	0.404431
C103	C	0.269388	-0.325836	-0.302219
C104	C	0.602722	0.007497	0.031114
C105	C	0.936055	0.340831	0.364448
C106	C	0.905387	-0.501707	-0.302136
C107	C	1.238720	-0.168374	0.031198
C108	C	1.572054	0.164960	0.364531
C109	C	0.905414	-0.576939	-0.302144
C110	C	1.238748	-0.243606	0.031190
C111	C	1.572081	0.089728	0.364523
C112	C	0.945514	-0.612255	-0.262130
C113	C	1.278847	-0.278922	0.071203
C114	C	1.612180	0.054411	0.404536
C115	C	0.945540	-0.682944	-0.262144
C116	C	1.278874	-0.349610	0.071189
C117	C	1.612207	-0.016277	0.404523
C118	C	0.905464	-0.718315	-0.302169
C119	C	1.238797	-0.384981	0.031165
C120	C	1.572130	-0.051648	0.364498
C121	C	0.865362	-0.682993	-0.342187
C122	C	1.198696	-0.349660	-0.008853
C123	C	1.532029	-0.016327	0.324480
C124	C	0.865339	-0.612306	-0.342175
C125	C	1.198673	-0.278973	-0.008842
C126	C	1.532006	0.054361	0.324491
C127	C	0.865455	-0.968067	-0.342233
C128	C	1.198788	-0.634733	-0.008900
C129	C	1.532122	-0.301400	0.324434
C130	C	0.865480	-1.038759	-0.342240
C131	C	1.198813	-0.705425	-0.008906
C132	C	1.532146	-0.372092	0.324427
C133	C	0.945656	-1.038704	-0.262202
C134	C	1.278989	-0.705371	0.071132
C135	C	1.612322	-0.372037	0.404465
C136	C	0.945633	-0.968017	-0.262191
C137	C	1.278966	-0.634684	0.071143
C138	C	1.612299	-0.301350	0.404476
C139	C	0.905534	-0.932702	-0.302210
C140	C	1.238867	-0.599369	0.031123
C141	C	1.572201	-0.266035	0.364456
C142	C	0.905507	-0.856053	-0.302196
C143	C	1.238840	-0.522720	0.031138
C144	C	1.572173	-0.189387	0.364471
C145	C	0.905488	-0.794962	-0.302181
C146	C	1.238821	-0.461628	0.031153
C147	C	1.572154	-0.128295	0.364486
C148	C	1.068881	-0.325816	-0.302239
C149	C	1.402214	0.007518	0.031094
C150	C	1.735548	0.340851	0.364427
C151	C	1.138522	-0.325800	-0.302271
C152	C	1.471855	0.007533	0.031063
C153	C	1.805189	0.340866	0.364396
C154	C	0.905510	-0.325837	-0.465589
C155	C	1.238843	0.007496	-0.132256
C156	C	1.572176	0.340829	0.201077
C157	C	0.905532	-0.325831	-0.535231
C158	C	1.238865	0.007502	-0.201897
C159	C	1.572198	0.340835	0.131436
C160	C	0.905545	-0.149308	-0.302210
C161	C	1.238879	0.184025	0.031123
C162	C	1.572212	0.517358	0.364456
C163	C	0.905583	-0.074076	-0.302229
C164	C	1.238916	0.259257	0.031104
C165	C	1.572249	0.592590	0.364438
C166	C	0.945625	-0.282530	-0.567974
C167	C	1.278958	0.050803	-0.234640
C168	C	1.612292	0.384136	0.098693
C169	C	0.945624	-0.282501	-0.633409
C170	C	1.278957	0.050832	-0.300076
C171	C	1.612291	0.384165	0.033258
C172	C	0.905537	-0.325785	-0.666099
C173	C	1.238870	0.007548	-0.332766
C174	C	1.572203	0.340881	0.000568
C175	C	0.865436	-0.369089	-0.633348
C176	C	1.198769	-0.035756	-0.300015
C177	C	1.532102	0.297577	0.033318
C178	C	0.865433	-0.369112	-0.567914
C179	C	1.198766	-0.035779	-0.234581
C180	C	1.532100	0.297554	0.098753
C181	C	0.900565	-0.386731	-0.769762
C182	C	1.233898	-0.053398	-0.436428
C183	C	1.567232	0.279936	-0.103095
C184	C	0.900572	-0.386709	-0.835195
C185	C	1.233905	-0.053376	-0.501861
C186	C	1.567238	0.279958	-0.168528
C187	C	0.905540	-0.325714	-0.867920
C188	C	1.238874	0.007620	-0.534587
C189	C	1.572207	0.340953	-0.201253
C190	C	0.910516	-0.264738	-0.835204
C191	C	1.243849	0.068595	-0.501871
C192	C	1.577182	0.401928	-0.168538
C193	C	0.910513	-0.264762	-0.769770
C194	C	1.243846	0.068572	-0.436437
C195	C	1.577180	0.401905	-0.103103
C196	C	0.905534	-0.325765	-0.737051
C197	C	1.238868	0.007569	-0.403718
C198	C	1.572201	0.340902	-0.070385
C199	C	0.945635	-0.282378	-0.971615
C200	C	1.278968	0.050956	-0.638282
C201	C	1.612302	0.384289	-0.304949
C202	C	0.945630	-0.282347	-1.037052
C203	C	1.278963	0.050986	-0.703719
C204	C	1.612296	0.384319	-0.370385
C205	C	0.865444	-0.368941	-1.036990
C206	C	1.198778	-0.035608	-0.703657
C207	C	1.532111	0.297725	-0.370323
C208	C	0.865446	-0.368966	-0.971555
C209	C	1.198780	-0.035632	-0.638221
C210	C	1.532113	0.297701	-0.304888
C211	C	0.905545	-0.325685	-0.938871
C212	C	1.238878	0.007649	-0.605538
C213	C	1.572212	0.340982	-0.272205
C214	C	0.905442	-0.325816	-0.139378
C215	C	1.238775	0.007518	0.193955
C216	C	1.572108	0.340851	0.527288
C217	C	0.905541	-0.325631	-0.069738
C218	C	1.238874	0.007702	0.263596
C219	C	1.572208	0.341036	0.596929
H220	H	0.144586	-0.247150	-0.229705
H221	H	0.477920	0.086184	0.103628
H222	H	0.811253	0.419517	0.436962
H223	H	0.263324	-0.404485	-0.374787
H224	H	0.596658	-0.071151	-0.041454
H225	H	0.929991	0.262182	0.291880
H226	H	0.666936	-0.247254	-0.229519
H227	H	1.000270	0.086079	0.103814
H228	H	1.333603	0.419412	0.437148
H229	H	0.978146	-0.583461	-0.229535
H230	H	1.311479	-0.250128	0.103798
H231	H	1.644813	0.083206	0.437132
C232	C	0.337194	-0.337244	-0.420728
C233	C	0.670527	-0.003910	-0.087395
C234	C	1.003861	0.329423	0.245938
N235	N	0.310133	-0.341730	-0.467503
N236	N	0.643467	-0.008397	-0.134170
N237	N	0.976800	0.324936	0.199164
C238	C	0.821343	-0.416604	-0.935536
C239	C	1.154676	-0.083270	-0.602203
C240	C	1.488009	0.250063	-0.268869
N241	N	0.788120	-0.452485	-0.908407
N242	N	1.121453	-0.119152	-0.575074
N243	N	1.454787	0.214182	-0.241740
H244	H	0.978282	-0.247132	-0.945003
H245	H	1.311615	0.086201	-0.611670
H246	H	1.644949	0.419535	-0.278337
H247	H	0.144617	-0.404451	-0.374835
H248	H	0.477951	-0.071117	-0.041502
H249	H	0.811284	0.262216	0.291832
C250	C	0.676312	-0.416965	-0.386065
C251	C	1.009645	-0.083631	-0.052731
C252	C	1.342979	0.249702	0.280602
N253	N	0.703420	-0.452893	-0.419195
N254	N	1.036753	-0.119560	-0.085861
N255	N	1.370087	0.213773	0.247472
H256	H	0.896524	-0.436359	-0.861827
H257	H	1.229858	-0.103026	-0.528493
H258	H	1.563191	0.230308	-0.195160
H259	H	0.914563	-0.215070	-0.861848
H260	H	1.247896	0.118263	-0.528514
H261	H	1.581229	0.451596	-0.195181
C262	C	0.989737	-0.234709	-1.073069
C263	C	1.323070	0.098624	-0.739736
C264	C	1.656403	0.431958	-0.406403
N265	N	1.022960	-0.198827	-1.100198
N266	N	1.356293	0.134506	-0.766864
N267	N	1.689626	0.467839	-0.433531
H268	H	0.978265	-0.939220	-0.229597
H269	H	1.311598	-0.605887	0.103737
H270	H	1.644931	-0.272554	0.437070
H271	H	0.978308	-1.067466	-0.229618
H272	H	1.311642	-0.734133	0.103715
H273	H	1.644975	-0.400800	0.437049
C274	C	0.474606	-0.337283	-0.420677
C275	C	0.807939	-0.003950	-0.087344
C276	C	1.141272	0.329384	0.245989
N277	N	0.501761	-0.341788	-0.467434
N278	N	0.835095	-0.008455	-0.134100
N279	N	1.168428	0.324879	0.199233
H280	H	0.832804	-0.939318	-0.374817
H281	H	1.166137	-0.605985	-0.041484
H282	H	1.499471	-0.272652	0.291849
C283	C	0.989649	-0.721789	-0.218122
C284	C	1.322982	-0.388455	0.115211
C285	C	1.656316	-0.055122	0.448545
N286	N	1.022873	-0.751046	-0.184962
N287	N	1.356206	-0.417713	0.148372
N288	N	1.689540	-0.084379	0.481705
H289	H	0.978271	-0.247237	-0.660074
H290	H	1.311605	0.086096	-0.326740
H291	H	1.644938	0.419430	0.006593
H292	H	0.832734	-0.711798	-0.374778
H293	H	1.166067	-0.378464	-0.041445
H294	H	1.499401	-0.045131	0.291889
C295	C	0.538904	-0.416933	-0.386113
C296	C	0.872238	-0.083599	-0.052780
C297	C	1.205571	0.249734	0.280553
N298	N	0.511804	-0.452851	-0.419257
N299	N	0.845137	-0.119518	-0.085924
N300	N	1.178470	0.213816	0.247409
H301	H	0.263297	-0.247178	-0.229658
H302	H	0.596630	0.086156	0.103675
H303	H	0.929963	0.419489	0.437008
H304	H	0.832845	-1.067556	-0.374837
H305	H	1.166179	-0.734222	-0.041504
H306	H	1.499512	-0.400889	0.291829
C307	C	0.336952	-0.314443	-0.183661
C308	C	0.670286	0.018890	0.149673
C309	C	1.003619	0.352223	0.483006
N310	N	0.309801	-0.309929	-0.136903
N311	N	0.643134	0.023404	0.196431
N312	N	0.976468	0.356737	0.529764
C313	C	0.474357	-0.314483	-0.183609
C314	C	0.807691	0.018850	0.149724
C315	C	1.141024	0.352183	0.483057
N316	N	0.501413	-0.309998	-0.136832
N317	N	0.834747	0.023335	0.196502
N318	N	1.168080	0.356669	0.529835
H319	H	0.832687	-0.583552	-0.374759
H320	H	1.166020	-0.250219	-0.041426
H321	H	1.499354	0.083114	0.291907
C322	C	0.989726	-0.234911	-0.532026
C323	C	1.323060	0.098422	-0.198692
C324	C	1.656393	0.431756	0.134641
N325	N	1.022941	-0.199041	-0.504949
N326	N	1.356275	0.134293	-0.171615
N327	N	1.689608	0.467626	0.161718
C328	C	0.915977	-0.197690	-0.733785
C329	C	1.249310	0.135644	-0.400452
C330	C	1.582643	0.468977	-0.067119
N331	N	0.920088	-0.147169	-0.706682
N332	N	1.253422	0.186164	-0.373348
N333	N	1.586755	0.519497	-0.040015
C334	C	0.821348	-0.416555	-1.072945
C335	C	1.154681	-0.083222	-0.739612
C336	C	1.488015	0.250112	-0.406279
N337	N	0.788133	-0.452419	-1.100030
N338	N	1.121466	-0.119085	-0.766697
N339	N	1.454800	0.214248	-0.433363
H340	H	0.896351	-0.436388	-0.743122
H341	H	1.229684	-0.103055	-0.409789
H342	H	1.563018	0.230278	-0.076455
H343	H	0.832794	-0.404329	-0.659969
H344	H	1.166127	-0.070996	-0.326635
H345	H	1.499461	0.262337	0.006698
C346	C	0.538872	-0.234850	-0.218132
C347	C	0.872206	0.098483	0.115202
C348	C	1.205539	0.431817	0.448535
N349	N	0.511756	-0.198927	-0.185003
N350	N	0.845089	0.134406	0.148331
N351	N	1.178423	0.467739	0.481664
H352	H	0.832782	-0.404372	-0.541255
H353	H	1.166115	-0.071039	-0.207922
H354	H	1.499448	0.262294	0.125412
