data_functionalizedCrystal
_audit_creation_method	'MofGen! by Chris Wilmer'
_symmetry_space_group_name_H-M	'P1'
_symmetry_Int_Tables_number	1
_symmetry_cell_setting	triclinic
loop_
_symmetry_equiv_pos_as_xyz
  x,y,z
_cell_length_a	16.959455
_cell_length_b	16.959454
_cell_length_c	16.959447
_cell_angle_alpha	89.978286
_cell_angle_beta	89.987476
_cell_angle_gamma	90.001874
loop_
_atom_site_label
_atom_site_type_symbol
_atom_site_fract_x
_atom_site_fract_y
_atom_site_fract_z
Zn1	Zn	1.208489	-0.314647	-0.446918
Zn2	Zn	1.208455	-0.446840	-0.314759
Zn3	Zn	1.076317	-0.314681	-0.314760
Zn4	Zn	1.076326	-0.446790	-0.446902
O5	O	1.142397	-0.380739	-0.380835
O6	O	1.319095	-0.332190	-0.429393
O7	O	1.190909	-0.429344	-0.204149
O8	O	1.093860	-0.204066	-0.332298
O9	O	1.319070	-0.429311	-0.332297
O10	O	1.190966	-0.204041	-0.429394
O11	O	1.093828	-0.332247	-0.204149
O12	O	0.965707	-0.332199	-0.332282
O13	O	1.093875	-0.429226	-0.557515
O14	O	0.965714	-0.429258	-0.429367
O15	O	1.190975	-0.332141	-0.557527
O16	O	1.190918	-0.557444	-0.332282
O17	O	1.093843	-0.557407	-0.429366
C18	C	0.937030	-0.380727	-0.380823
C19	C	0.849174	-0.380741	-0.380837
C20	C	1.142399	-0.586106	-0.380839
C21	C	1.142472	-0.673962	-0.380868
C22	C	1.142430	-0.380674	-0.587003
C23	C	1.142444	-0.380646	-0.674860
C24	C	1.348565	-0.380752	-0.380847
C25	C	1.436421	-0.380757	-0.380852
C26	C	1.807887	-0.431310	-0.330284
C27	C	1.807907	-0.330176	-0.431391
C28	C	1.725361	-0.330180	-0.431396
C29	C	1.684074	-0.380748	-0.380844
C30	C	1.725333	-0.431313	-0.330286
C31	C	1.684097	-0.279610	-0.481948
C32	C	1.601546	-0.279611	-0.481954
C33	C	1.560257	-0.330183	-0.431405
C34	C	1.601521	-0.380751	-0.380845
C35	C	1.560234	-0.431319	-0.330293
C36	C	1.601496	-0.481891	-0.279737
C37	C	1.684045	-0.481886	-0.279737
C38	C	1.477709	-0.330189	-0.431405
C39	C	1.477680	-0.431322	-0.330294
C40	C	1.142416	-0.174571	-0.380848
C41	C	1.142424	-0.086715	-0.380853
C42	C	1.193026	0.284776	-0.431420
C43	C	1.091909	0.284746	-0.330313
C44	C	1.091898	0.202200	-0.330310
C45	C	1.142452	0.160938	-0.380862
C46	C	1.193018	0.202223	-0.431417
C47	C	1.041339	0.160909	-0.279750
C48	C	1.041326	0.078358	-0.279745
C49	C	1.091877	0.037095	-0.330301
C50	C	1.142444	0.078385	-0.380859
C51	C	1.192998	0.037123	-0.431411
C52	C	1.243562	0.078412	-0.481973
C53	C	1.243569	0.160960	-0.481974
C54	C	1.091870	-0.045453	-0.330301
C55	C	1.192990	-0.045430	-0.431408
C56	C	1.091983	-0.431110	-1.046332
C57	C	1.193093	-0.330015	-1.046339
C58	C	1.193072	-0.330032	-0.963793
C59	C	1.142506	-0.380589	-0.922513
C60	C	1.091962	-0.431130	-0.963778
C61	C	1.243622	-0.279498	-0.922522
C62	C	1.243603	-0.279513	-0.839971
C63	C	1.193033	-0.330067	-0.798689
C64	C	1.142485	-0.380609	-0.839959
C65	C	1.091920	-0.431167	-0.798679
C66	C	1.041368	-0.481705	-0.839948
C67	C	1.041391	-0.481684	-0.922496
C68	C	1.193009	-0.330089	-0.716140
C69	C	1.091899	-0.431187	-0.716125
C70	C	1.142409	-0.380748	-0.175469
C71	C	1.142548	-0.380553	-0.087612
H72	H	1.444070	-0.472505	-0.289131
N73	N	1.728614	-0.225076	-0.536482
H74	H	1.714245	-0.237344	-0.592952
H75	H	1.714228	-0.168625	-0.524146
N76	N	1.037342	-0.089983	-0.275771
H77	H	1.045006	-0.148539	-0.283439
H78	H	1.049647	-0.075573	-0.219322
N79	N	1.037346	-0.485705	-0.671603
H80	H	1.005325	-0.517711	-0.710274
H81	H	1.069499	-0.522300	-0.637344
N82	N	1.298124	-0.225003	-0.795468
H83	H	1.285855	-0.168524	-0.809847
H84	H	1.290415	-0.232748	-0.736924
N85	N	1.728550	-0.536415	-0.225204
H86	H	1.689871	-0.568452	-0.193178
H87	H	1.762813	-0.572982	-0.257372
H88	H	1.841486	-0.472486	-0.289125
H89	H	1.841528	-0.289002	-0.472545
N90	N	1.433209	-0.275644	-0.485923
H91	H	1.447590	-0.287896	-0.542399
H92	H	1.374664	-0.283342	-0.478189
H93	H	1.000201	-0.522873	-0.806327
H94	H	1.284794	-0.238342	-0.956138
H95	H	1.234193	0.318395	-0.472589
H96	H	1.567957	-0.238433	-0.523121
N97	N	1.037394	0.329244	-0.275783
H98	H	1.045075	0.387803	-0.283453
H99	H	0.980941	0.314828	-0.288079
N100	N	1.247501	-0.089932	-0.485950
H101	H	1.279526	-0.051248	-0.517982
H102	H	1.284079	-0.124200	-0.453789
H103	H	1.000183	0.194507	-0.238588
N104	N	1.298092	0.033913	-0.536499
H105	H	1.334715	-0.000347	-0.504376
H106	H	1.265915	-0.000279	-0.573112
N107	N	1.037459	-0.485623	-1.090827
H108	H	0.980983	-0.473343	-1.076455
H109	H	1.045200	-0.477922	-1.149373
H110	H	1.284737	0.194582	-0.523139
H111	H	1.000153	0.044748	-0.238574
N112	N	1.247533	-0.275599	-0.671623
H113	H	1.235278	-0.219114	-0.685989
H114	H	1.239816	-0.283357	-0.613081
H115	H	1.000237	-0.522832	-0.956105
N116	N	1.247635	-0.275493	-1.090858
H117	H	1.239980	-0.283151	-1.149415
H118	H	1.235332	-0.219043	-1.076441
H119	H	1.567869	-0.523061	-0.238574
