data_functionalizedCrystal
_audit_creation_method	'MofGen! by Chris Wilmer'
_symmetry_space_group_name_H-M	'P1'
_symmetry_Int_Tables_number	1
_symmetry_cell_setting	triclinic
loop_
_symmetry_equiv_pos_as_xyz
  x,y,z
_cell_length_a	25.639243
_cell_length_b	25.639240
_cell_length_c	17.077396
_cell_angle_alpha	89.961743
_cell_angle_beta	89.977841
_cell_angle_gamma	90.035481
loop_
_atom_site_label
_atom_site_type_symbol
_atom_site_fract_x
_atom_site_fract_y
_atom_site_fract_z
Zn1	Zn	0.799279	-0.208113	-0.443845
Zn2	Zn	0.799202	-0.295550	-0.312557
Zn3	Zn	0.711845	-0.208135	-0.312587
Zn4	Zn	0.711809	-0.295523	-0.443774
O5	O	0.755534	-0.251830	-0.378191
O6	O	0.872434	-0.219714	-0.426446
O7	O	0.787597	-0.283975	-0.202714
O8	O	0.723491	-0.134967	-0.330041
O9	O	0.872377	-0.283954	-0.329989
O10	O	0.787728	-0.134950	-0.426476
O11	O	0.723416	-0.219751	-0.202736
O12	O	0.638675	-0.219725	-0.329972
O13	O	0.723429	-0.283907	-0.553631
O14	O	0.638649	-0.283929	-0.426355
O15	O	0.787693	-0.219687	-0.553683
O16	O	0.787561	-0.368712	-0.329921
O17	O	0.723354	-0.368692	-0.426326
C18	C	0.619691	-0.251827	-0.378160
C19	C	0.561577	-0.251838	-0.378165
C20	C	0.201238	-0.218433	-0.428500
C21	C	0.146634	-0.218433	-0.428504
O22	O	0.118417	-0.190021	-0.471262
N23	N	0.119295	-0.251829	-0.378212
C24	C	0.146563	-0.285224	-0.327906
O25	O	0.118295	-0.313629	-0.285129
C26	C	0.201166	-0.285221	-0.327898
C27	C	0.228502	-0.251827	-0.378199
C28	C	0.228574	-0.185041	-0.478796
C29	C	0.283175	-0.185042	-0.478792
C30	C	0.310439	-0.218436	-0.428492
C31	C	0.283103	-0.251828	-0.378195
C32	C	0.228433	-0.318613	-0.277589
C33	C	0.283040	-0.318607	-0.277584
C34	C	0.310376	-0.285213	-0.327886
C35	C	0.364968	-0.285223	-0.327891
N36	N	0.392307	-0.251827	-0.378183
C37	C	0.365042	-0.218433	-0.428483
C38	C	0.031892	-0.285226	-0.327926
C39	C	-0.022710	-0.285232	-0.327938
C40	C	-0.022636	-0.218440	-0.428535
C41	C	0.031968	-0.218437	-0.428527
C42	C	0.059231	-0.251830	-0.378219
C43	C	0.479707	-0.218439	-0.428472
C44	C	0.534313	-0.218444	-0.428465
C45	C	0.534233	-0.285234	-0.327865
C46	C	0.479633	-0.285231	-0.327874
C47	C	0.452371	-0.251829	-0.378180
O48	O	0.393219	-0.313618	-0.285153
O49	O	0.393317	-0.190027	-0.471246
C50	C	0.755460	-0.387673	-0.378129
C51	C	0.755476	-0.445787	-0.378129
C52	C	0.788998	-0.806103	-0.428495
C53	C	0.789014	-0.860707	-0.428511
O54	O	0.817428	-0.888904	-0.471270
N55	N	0.755606	-0.888069	-0.378267
C56	C	0.722177	-0.860824	-0.328009
O57	O	0.693763	-0.889112	-0.285274
C58	C	0.722160	-0.806221	-0.327997
C59	C	0.755573	-0.778862	-0.378239
C60	C	0.822409	-0.778744	-0.478733
C61	C	0.822394	-0.724143	-0.478716
C62	C	0.788969	-0.696902	-0.428461
C63	C	0.755558	-0.724261	-0.378222
C64	C	0.688729	-0.778977	-0.277744
C65	C	0.688713	-0.724370	-0.277737
C66	C	0.722127	-0.697011	-0.327979
C67	C	0.722118	-0.642419	-0.327949
N68	N	0.755526	-0.615057	-0.378193
C69	C	0.788951	-0.642299	-0.428449
C70	C	0.722216	-0.975495	-0.328037
C71	C	0.722236	-1.030097	-0.328044
C72	C	0.789072	-1.029976	-0.428548
C73	C	0.789055	-0.975373	-0.428536
C74	C	0.755624	-0.948133	-0.378282
C75	C	0.788918	-0.527634	-0.428409
C76	C	0.788901	-0.473028	-0.428385
C77	C	0.722064	-0.473154	-0.327885
C78	C	0.722082	-0.527754	-0.327905
C79	C	0.755510	-0.554993	-0.378174
O80	O	0.693717	-0.614188	-0.285214
O81	O	0.817356	-0.614004	-0.471184
C82	C	0.891907	-0.251834	-0.378222
C83	C	0.950021	-0.251836	-0.378236
C84	C	0.755565	-0.251792	-0.582935
C85	C	0.755579	-0.251775	-0.670185
C86	C	0.755622	-0.115457	-0.378270
C87	C	0.755660	-0.057343	-0.378303
C88	C	0.789042	-0.218333	-0.711204
C89	C	0.789048	-0.218316	-0.793184
C90	C	0.755594	-0.251744	-0.834144
C91	C	0.722127	-0.285187	-0.793120
C92	C	0.722118	-0.285202	-0.711141
C93	C	0.722148	-0.285156	-0.963990
C94	C	0.722157	-0.285142	-1.045975
C95	C	0.789078	-0.218270	-1.046033
C96	C	0.789069	-0.218284	-0.964054
C97	C	0.755603	-0.251729	-0.923036
C98	C	0.755532	-0.251831	-0.174243
C99	C	0.755620	-0.251700	-0.086994
H100	H	0.305427	-0.157848	-0.519751
N101	N	0.825132	-0.182282	-0.667032
H102	H	0.849344	-0.203541	-0.633021
H103	H	0.846295	-0.161104	-0.705513
N104	N	0.450145	-0.321255	-0.273634
H105	H	0.475705	-0.342411	-0.241771
H106	H	0.427495	-0.299941	-0.237367
N107	N	0.563645	-0.321249	-0.273613
H108	H	0.602383	-0.316177	-0.281244
H109	H	0.554089	-0.313059	-0.217578
N110	N	0.825152	-0.182227	-0.919881
H111	H	0.803914	-0.158004	-0.885877
H112	H	0.849358	-0.203517	-0.885908
H113	H	0.054221	-0.191243	-0.469485
N114	N	0.858461	-0.808129	-0.532935
H115	H	0.837207	-0.830784	-0.569287
H116	H	0.879617	-0.782478	-0.564708
N117	N	0.652654	-0.694989	-0.223535
H118	H	0.631492	-0.720610	-0.191713
H119	H	0.673942	-0.672336	-0.187229
N120	N	0.825092	-0.945866	-0.482726
H121	H	0.846268	-0.971414	-0.514560
H122	H	0.803789	-0.923213	-0.519021
N123	N	0.686025	-0.321275	-0.666905
H124	H	0.707251	-0.345512	-0.632882
H125	H	0.661811	-0.299995	-0.632944
H126	H	0.556567	-0.191250	-0.469429
N127	N	0.686163	-0.946120	-0.273816
H128	H	0.707419	-0.923467	-0.237464
H129	H	0.661916	-0.923500	-0.305722
H130	H	0.457517	-0.191238	-0.469433
H131	H	0.816299	-0.191085	-0.826578
N132	N	0.825125	-1.059363	-0.482755
H133	H	0.820062	-1.098105	-0.475136
H134	H	0.816962	-1.049797	-0.538803
N135	N	0.824936	-0.443518	-0.482582
H136	H	0.849173	-0.420859	-0.450714
H137	H	0.846076	-0.469095	-0.514413
H138	H	0.206381	-0.157845	-0.519757
N139	N	0.686201	-1.059605	-0.273852
H140	H	0.707468	-1.082261	-0.237510
H141	H	0.665033	-1.034025	-0.242067
H142	H	0.694888	-0.312382	-0.930595
N143	N	0.824974	-0.557012	-0.482617
H144	H	0.803721	-0.579665	-0.518973
H145	H	0.846130	-0.531359	-0.514385
H146	H	0.694885	-0.312403	-0.826477
H147	H	0.661520	-0.801243	-0.236831
N148	N	0.686050	-0.557267	-0.273709
H149	H	0.664875	-0.531722	-0.241867
H150	H	0.661846	-0.579923	-0.305634
H151	H	0.694851	-0.450965	-0.286965
H152	H	0.816327	-0.191037	-1.079434
H153	H	0.694914	-0.312361	-1.079323
H154	H	-0.044844	-0.191247	-0.469491
H155	H	0.054087	-0.312423	-0.286961
N156	N	-0.052194	-0.321253	-0.273693
H157	H	-0.042709	-0.358620	-0.285775
H158	H	-0.042689	-0.313040	-0.217653
N159	N	0.198957	-0.354628	-0.223330
H160	H	0.208443	-0.391995	-0.235403
H161	H	0.208465	-0.346407	-0.167293
N162	N	0.312446	-0.354623	-0.223319
H163	H	0.286839	-0.375775	-0.191458
H164	H	0.335096	-0.378848	-0.255194
H165	H	0.849600	-0.701870	-0.519630
