data_functionalizedCrystal
_audit_creation_method	'MofGen! by Chris Wilmer'
_symmetry_space_group_name_H-M	'P1'
_symmetry_Int_Tables_number	1
_symmetry_cell_setting	triclinic
loop_
_symmetry_equiv_pos_as_xyz
  x,y,z
_cell_length_a	16.109318
_cell_length_b	16.974813
_cell_length_c	14.586319
_cell_angle_alpha	86.341649
_cell_angle_beta	90.000075
_cell_angle_gamma	83.432062
loop_
_atom_site_label
_atom_site_type_symbol
_atom_site_fract_x
_atom_site_fract_y
_atom_site_fract_z
O1	O	1.103035	0.101699	-0.083708
O2	O	0.860964	0.114333	-0.084664
O3	O	0.988747	-0.007089	-0.075641
O4	O	0.975251	0.223121	-0.092731
O5	O	0.988739	-0.007091	0.076840
O6	O	0.860955	0.114331	0.067817
O7	O	1.103026	0.101697	0.068773
Cu8	Cu	0.981989	0.108014	0.082218
Cu9	Cu	0.982000	0.108016	-0.098109
O10	O	0.975242	0.223119	0.059750
C11	C	0.829985	0.113818	-0.008387
C12	C	0.737692	0.112276	-0.008280
C13	C	0.438627	0.107299	-0.091012
C14	C	0.525347	0.108742	-0.091124
C15	C	0.525356	0.108729	0.075120
C16	C	0.438639	0.107280	0.075232
C17	C	0.395276	0.106569	-0.007837
C18	C	0.568714	0.109461	-0.008062
C19	C	0.662739	0.111026	-0.008183
C20	C	0.301244	0.105003	-0.007715
C21	C	0.988230	-0.036548	0.002784
C22	C	0.986690	-0.124324	0.009294
C23	C	0.985973	-0.165557	-0.070764
C24	C	0.984521	-0.248031	-0.064645
C25	C	0.983791	-0.289273	0.021534
C26	C	0.984506	-0.248035	0.101598
C27	C	0.985952	-0.165561	0.095478
C28	C	0.979460	-0.535933	0.048751
C29	C	0.978016	-0.618413	0.054866
C30	C	0.978030	-0.618404	-0.111378
C31	C	0.979481	-0.535929	-0.117491
C32	C	0.980191	-0.494697	-0.037427
N33	N	0.982310	-0.373576	0.027791
N34	N	0.981667	-0.410395	-0.043685
C35	C	1.134004	0.102212	-0.007505
C36	C	1.226298	0.103754	-0.007619
C37	C	0.975760	0.252578	-0.018677
C38	C	0.977300	0.340355	-0.025193
N39	N	0.981988	0.108012	0.209050
N40	N	0.982008	0.108012	-0.224940
C41	C	1.038589	0.054265	0.448050
C42	C	1.038592	0.054263	0.544032
C43	C	0.925400	0.161762	0.536053
C44	C	0.925395	0.161759	0.440073
C45	C	0.981994	0.108012	0.396075
C46	C	0.982002	0.108012	0.588035
C47	C	0.982004	0.108011	0.692103
C48	C	0.981991	0.108012	0.292001
H49	H	0.560673	0.109310	0.142751
H50	H	0.403341	0.106685	0.142967
H51	H	0.980076	-0.502356	-0.187667
H52	H	0.980055	-0.502375	0.113946
H53	H	0.977451	-0.651983	-0.176562
H54	H	0.983907	-0.281620	0.171767
H55	H	0.977418	-0.651990	0.125046
H56	H	0.560640	0.109335	-0.158854
H57	H	0.986524	-0.131989	0.160670
H58	H	1.084675	0.010499	0.412229
H59	H	1.084676	0.010496	0.586348
H60	H	0.986572	-0.131984	-0.140941
H61	H	0.879320	0.205523	0.571886
H62	H	0.403324	0.106719	-0.158651
H63	H	0.879304	0.205527	0.397752
H64	H	0.983941	-0.281599	-0.129837
