data_functionalizedCrystal
_audit_creation_method	'MofGen! by Chris Wilmer'
_symmetry_space_group_name_H-M	'P1'
_symmetry_Int_Tables_number	1
_symmetry_cell_setting	triclinic
loop_
_symmetry_equiv_pos_as_xyz
  x,y,z
_cell_length_a	25.639239
_cell_length_b	25.639242
_cell_length_c	25.639233
_cell_angle_alpha	89.978417
_cell_angle_beta	89.981253
_cell_angle_gamma	90.033587
loop_
_atom_site_label
_atom_site_type_symbol
_atom_site_fract_x
_atom_site_fract_y
_atom_site_fract_z
Zn1	Zn	-0.208286	0.799225	-0.295734
Zn2	Zn	0.291714	1.299225	0.204266
Zn3	Zn	-0.295704	0.799149	-0.208298
Zn4	Zn	0.204296	1.299149	0.291702
Zn5	Zn	-0.208277	0.711801	-0.208299
Zn6	Zn	0.291723	1.211801	0.291701
Zn7	Zn	-0.295684	0.711746	-0.295689
Zn8	Zn	0.204316	1.211746	0.204311
O9	O	-0.251988	0.755480	-0.252005
O10	O	0.248012	1.255480	0.247995
O11	O	-0.219894	0.872380	-0.284154
O12	O	0.280106	1.372380	0.215846
O13	O	-0.284112	0.787553	-0.135133
O14	O	0.215888	1.287553	0.364867
O15	O	-0.135113	0.723453	-0.219917
O16	O	0.364887	1.223453	0.280083
O17	O	-0.284120	0.872324	-0.219915
O18	O	0.215880	1.372324	0.280085
O19	O	-0.135119	0.787683	-0.284155
O20	O	0.364881	1.287683	0.215845
O21	O	-0.219879	0.723379	-0.135134
O22	O	0.280121	1.223379	0.364866
O23	O	-0.219860	0.638629	-0.219873
O24	O	0.280140	1.138629	0.280127
O25	O	-0.284085	0.723360	-0.368860
O26	O	0.215915	1.223360	0.131140
O27	O	-0.284077	0.638589	-0.284078
O28	O	0.215923	1.138589	0.215922
O29	O	-0.219874	0.787630	-0.368893
O30	O	0.280126	1.287630	0.131107
O31	O	-0.368867	0.787499	-0.219872
O32	O	0.131133	1.287499	0.280128
O33	O	-0.368852	0.723286	-0.284078
O34	O	0.131148	1.223286	0.215922
C35	C	-0.251966	0.619638	-0.251971
C36	C	0.248034	1.119638	0.248029
C37	C	-0.251969	0.561524	-0.251969
C38	C	0.248031	1.061524	0.248031
C39	C	-0.218494	0.310343	-0.218631
C40	C	0.281506	0.810343	0.281369
C41	C	-0.218489	0.364947	-0.218625
C42	C	0.281511	0.864947	0.281375
O43	O	-0.189997	0.393194	-0.190250
O44	O	0.310003	0.893194	0.309750
N45	N	-0.251975	0.392250	-0.251995
N46	N	0.248025	0.892250	0.248005
C47	C	-0.285465	0.364946	-0.285378
C48	C	0.214535	0.864946	0.214622
O49	O	-0.313947	0.393183	-0.313762
O50	O	0.186053	0.893183	0.186238
C51	C	-0.285467	0.310342	-0.285387
C52	C	0.214533	0.810342	0.214613
C53	C	-0.251982	0.283042	-0.252011
C54	C	0.248018	0.783042	0.247989
C55	C	-0.185011	0.283042	-0.185258
C56	C	0.314989	0.783042	0.314742
C57	C	-0.185017	0.228442	-0.185264
C58	C	0.314983	0.728442	0.314736
C59	C	-0.218505	0.201141	-0.218644
C60	C	0.281495	0.701141	0.281356
C61	C	-0.251987	0.228442	-0.252017
C62	C	0.248013	0.728442	0.247983
C63	C	-0.318953	0.283039	-0.318773
C64	C	0.181047	0.783039	0.181227
C65	C	-0.318952	0.228432	-0.318779
C66	C	0.181048	0.728432	0.181221
C67	C	-0.285467	0.201132	-0.285403
C68	C	0.214533	0.701132	0.214597
C69	C	-0.285481	0.146541	-0.285402
C70	C	0.214519	0.646541	0.214598
N71	N	-0.251995	0.119238	-0.252032
N72	N	0.248005	0.619238	0.247968
C73	C	-0.218507	0.146538	-0.218652
C74	C	0.281493	0.646538	0.281348
C75	C	-0.285458	0.479616	-0.285358
C76	C	0.214542	0.979616	0.214642
C77	C	-0.285459	0.534219	-0.285347
C78	C	0.214541	1.034219	0.214653
C79	C	-0.218482	0.534216	-0.218594
C80	C	0.281518	1.034216	0.281406
C81	C	-0.218484	0.479613	-0.218602
C82	C	0.281516	0.979613	0.281398
C83	C	-0.251971	0.452313	-0.251987
C84	C	0.248029	0.952313	0.248013
C85	C	-0.218522	0.031873	-0.218667
C86	C	0.281478	0.531873	0.281333
C87	C	-0.218532	-0.022732	-0.218675
C88	C	0.281468	0.477268	0.281325
C89	C	-0.285506	-0.022725	-0.285430
C90	C	0.214494	0.477275	0.214570
C91	C	-0.285498	0.031876	-0.285421
C92	C	0.214502	0.531876	0.214579
C93	C	-0.252002	0.059173	-0.252038
C94	C	0.247998	0.559173	0.247962
O95	O	-0.313958	0.118259	-0.313764
O96	O	0.186042	0.618259	0.186236
O97	O	-0.190025	0.118294	-0.190278
O98	O	0.309975	0.618294	0.309722
C99	C	-0.387830	0.755392	-0.251981
C100	C	0.112170	1.255392	0.248019
C101	C	-0.445944	0.755403	-0.251988
C102	C	0.054056	1.255403	0.248012
C103	C	-0.806303	0.789004	-0.218630
C104	C	-0.306303	1.289004	0.281370
C105	C	-0.860907	0.789024	-0.218637
C106	C	-0.360907	1.289024	0.281363
O107	O	-0.889139	0.817502	-0.190249
O108	O	-0.389139	1.317502	0.309751
N109	N	-0.888227	0.755572	-0.252040
N110	N	-0.388227	1.255572	0.247960
C111	C	-0.860939	0.722102	-0.285441
C112	C	-0.360939	1.222102	0.214559
O113	O	-0.889191	0.693651	-0.313854
O114	O	-0.389191	1.193651	0.186146
C115	C	-0.806336	0.722085	-0.285437
C116	C	-0.306336	1.222085	0.214563
C117	C	-0.779019	0.755535	-0.252028
C118	C	-0.279019	1.255535	0.247972
C119	C	-0.778985	0.822452	-0.185225
C120	C	-0.278985	1.322452	0.314775
C121	C	-0.724385	0.822431	-0.185217
C122	C	-0.224385	1.322431	0.314783
C123	C	-0.697101	0.788962	-0.218615
C124	C	-0.197101	1.288962	0.281385
C125	C	-0.724419	0.755514	-0.252021
C126	C	-0.224419	1.255514	0.247979
C127	C	-0.779050	0.688617	-0.318840
C128	C	-0.279050	1.188617	0.181160
C129	C	-0.724443	0.688603	-0.318833
C130	C	-0.224443	1.188603	0.181167
C131	C	-0.697126	0.722053	-0.285425
C132	C	-0.197126	1.222053	0.214575
C133	C	-0.642535	0.722024	-0.285411
C134	C	-0.142535	1.222024	0.214589
N135	N	-0.615215	0.755475	-0.252008
N136	N	-0.115215	1.255475	0.247992
C137	C	-0.642498	0.788944	-0.218610
C138	C	-0.142498	1.288944	0.281390
C139	C	-0.975610	0.722141	-0.285449
C140	C	-0.475610	1.222141	0.214551
C141	C	-1.030212	0.722155	-0.285452
C142	C	-0.530212	1.222155	0.214548
C143	C	-1.030176	0.789078	-0.218648
C144	C	-0.530176	1.289078	0.281352
C145	C	-0.975573	0.789061	-0.218644
C146	C	-0.475573	1.289061	0.281356
C147	C	-0.948290	0.755593	-0.252047
C148	C	-0.448290	1.255593	0.247953
C149	C	-0.527833	0.788897	-0.218597
C150	C	-0.027833	1.288897	0.281403
C151	C	-0.473228	0.788872	-0.218591
C152	C	0.026772	1.288872	0.281409
C153	C	-0.473269	0.721951	-0.285396
C154	C	0.026731	1.221951	0.214604
C155	C	-0.527869	0.721974	-0.285400
C156	C	-0.027869	1.221974	0.214600
C157	C	-0.555150	0.755452	-0.251999
C158	C	-0.055150	1.255452	0.248001
O159	O	-0.614267	0.693562	-0.313786
O160	O	-0.114267	1.193562	0.186214
O161	O	-0.614240	0.817396	-0.190208
O162	O	-0.114240	1.317396	0.309792
C163	C	-0.115615	0.755583	-0.252041
C164	C	0.384385	1.255583	0.247959
C165	C	-0.057501	0.755627	-0.252056
C166	C	0.442499	1.255627	0.247944
C167	C	-0.251979	0.755497	-0.388378
C168	C	0.248021	1.255497	0.111622
C169	C	-0.251975	0.755504	-0.446492
C170	C	0.248025	1.255504	0.053508
C171	C	-0.252010	0.891853	-0.252040
C172	C	0.247990	1.391853	0.247960
C173	C	-0.252020	0.949967	-0.252054
C174	C	0.247980	1.449967	0.247946
C175	C	-0.218440	0.789012	-0.806878
C176	C	0.281560	1.289012	-0.306878
C177	C	-0.218426	0.789019	-0.861483
C178	C	0.281574	1.289019	-0.361483
O179	O	-0.189976	0.817466	-0.889739
O180	O	0.310024	1.317466	-0.389739
N181	N	-0.251852	0.755562	-0.888775
N182	N	0.248148	1.255562	-0.388775
C183	C	-0.285291	0.722093	-0.861460
C184	C	0.214709	1.222093	-0.361460
O185	O	-0.313721	0.693636	-0.889688
O186	O	0.186279	1.193636	-0.389688
C187	C	-0.285302	0.722084	-0.806857
C188	C	0.214698	1.222084	-0.306857
C189	C	-0.251878	0.755547	-0.779567
C190	C	0.248122	1.255547	-0.279567
C191	C	-0.185018	0.822472	-0.779589
C192	C	0.314982	1.322472	-0.279589
C193	C	-0.185034	0.822466	-0.724988
C194	C	0.314966	1.322466	-0.224988
C195	C	-0.218471	0.789000	-0.697677
C196	C	0.281529	1.289000	-0.197677
C197	C	-0.251893	0.755541	-0.724967
C198	C	0.248107	1.255541	-0.224967
C199	C	-0.318738	0.688613	-0.779543
C200	C	0.181262	1.188613	-0.279543
C201	C	-0.318747	0.688607	-0.724936
C202	C	0.181253	1.188607	-0.224936
C203	C	-0.285322	0.722069	-0.697646
C204	C	0.214678	1.222069	-0.197646
C205	C	-0.285346	0.722070	-0.643055
C206	C	0.214654	1.222070	-0.143055
N207	N	-0.251920	0.755526	-0.615763
N208	N	0.248080	1.255526	-0.115763
C209	C	-0.218482	0.788992	-0.643074
C210	C	0.281518	1.288992	-0.143074
C211	C	-0.285264	0.722113	-0.976131
C212	C	0.214736	1.222113	-0.476131
C213	C	-0.285255	0.722124	-1.030733
C214	C	0.214745	1.222124	-0.530733
C215	C	-0.218390	0.789049	-1.030752
C216	C	0.281610	1.289049	-0.530752
C217	C	-0.218401	0.789041	-0.976149
C218	C	0.281599	1.289041	-0.476149
C219	C	-0.251838	0.755570	-0.948839
C220	C	0.248162	1.255570	-0.448839
C221	C	-0.218517	0.788977	-0.528409
C222	C	0.281483	1.288977	-0.028409
C223	C	-0.218537	0.788970	-0.473803
C224	C	0.281463	1.288970	0.026197
C225	C	-0.285401	0.722043	-0.473789
C226	C	0.214599	1.222043	0.026211
C227	C	-0.285383	0.722052	-0.528390
C228	C	0.214617	1.222052	-0.028390
C229	C	-0.251937	0.755521	-0.555698
C230	C	0.248063	1.255521	-0.055698
O231	O	-0.313780	0.693635	-0.614764
O232	O	0.186220	1.193635	-0.114764
O233	O	-0.190053	0.817439	-0.614839
O234	O	0.309947	1.317439	-0.114839
C235	C	-0.251959	0.755494	-0.116163
C236	C	0.248041	1.255494	0.383837
C237	C	-0.251816	0.755588	-0.058049
C238	C	0.248184	1.255588	0.441951
H239	H	-0.191264	-0.044958	-0.191494
H240	H	0.308736	0.455042	0.308506
O241	O	-0.185971	0.058304	-0.186187
O242	O	0.314029	0.558304	0.313813
C243	C	-0.156416	0.022490	-0.156743
C244	C	0.343584	0.522490	0.343257
H245	H	-0.177835	-0.016443	-0.154909
H246	H	0.322165	0.483557	0.345091
H247	H	-0.150780	0.038242	-0.115554
H248	H	0.349220	0.538242	0.384446
H249	H	-0.116734	0.016713	-0.175958
H250	H	0.383266	0.516713	0.324042
H251	H	-0.157750	0.206219	-0.158086
H252	H	0.342250	0.706219	0.341914
O253	O	-0.318021	0.453043	-0.317713
O254	O	0.181979	0.953043	0.182287
C255	C	-0.351758	0.421435	-0.287890
C256	C	0.148242	0.921435	0.212110
H257	H	-0.333258	0.413237	-0.248304
H258	H	0.166742	0.913237	0.251696
H259	H	-0.358805	0.383048	-0.309183
H260	H	0.141195	0.883048	0.190817
H261	H	-0.390492	0.442459	-0.282067
H262	H	0.109508	0.942459	0.217933
O263	O	-0.446735	0.689518	-0.317894
O264	O	0.053265	1.189518	0.182106
C265	C	-0.415099	0.719261	-0.351675
C266	C	0.084901	1.219261	0.148325
H267	H	-0.431521	0.760441	-0.354946
H268	H	0.068479	1.260441	0.145054
H269	H	-0.414471	0.700329	-0.391894
H270	H	0.085529	1.200329	0.108106
H271	H	-0.373724	0.721064	-0.335501
H272	H	0.126276	1.221064	0.164499
H273	H	-0.550039	0.816159	-0.191399
H274	H	-0.050039	1.316159	0.308601
H275	H	-0.157787	0.849723	-0.801820
H276	H	0.342213	1.349723	-0.301820
H277	H	-0.953399	0.694883	-0.312649
H278	H	-0.453399	1.194883	0.187351
O279	O	-0.805552	0.656181	-0.351372
O280	O	-0.305552	1.156181	0.148628
C281	C	-0.792156	0.667568	-0.403487
C282	C	-0.292156	1.167568	0.096513
H283	H	-0.777111	0.709333	-0.406160
H284	H	-0.277111	1.209333	0.093840
H285	H	-0.828052	0.663058	-0.429326
H286	H	-0.328052	1.163058	0.070674
H287	H	-0.760474	0.639523	-0.417118
H288	H	-0.260474	1.139523	0.082882
H289	H	-0.191281	0.816229	-0.550637
H290	H	0.308719	1.316229	-0.050637
H291	H	-0.191216	0.457388	-0.191426
H292	H	0.308784	0.957388	0.308574
O293	O	-0.318078	-0.049169	-0.317876
O294	O	0.181922	0.450831	0.182124
C295	C	-0.347621	-0.013369	-0.347348
C296	C	0.152379	0.486631	0.152652
H297	H	-0.349411	0.025542	-0.325925
H298	H	0.150589	0.525542	0.174075
H299	H	-0.388820	-0.029172	-0.352865
H300	H	0.111180	0.470828	0.147135
H301	H	-0.328522	-0.007528	-0.387085
H302	H	0.171478	0.492472	0.112915
O303	O	-0.697917	0.656165	-0.351337
O304	O	-0.197917	1.156165	0.148663
C305	C	-0.666279	0.685898	-0.385124
C306	C	-0.166279	1.185898	0.114876
H307	H	-0.682692	0.727082	-0.388397
H308	H	-0.182692	1.227082	0.111603
H309	H	-0.665660	0.666962	-0.425342
H310	H	-0.165660	1.166962	0.074658
H311	H	-0.624901	0.687693	-0.368956
H312	H	-0.124901	1.187693	0.131044
H313	H	-0.191213	0.556454	-0.191415
H314	H	0.308787	1.056454	0.308585
H315	H	-0.191183	0.816288	-0.953933
H316	H	0.308817	1.316288	-0.453933
O317	O	-0.152511	0.854984	-0.698564
O318	O	0.347489	1.354984	-0.198564
C319	C	-0.123007	0.884527	-0.734388
C320	C	0.376993	1.384527	-0.234388
H321	H	-0.121192	0.863114	-0.773304
H322	H	0.378808	1.363114	-0.273304
H323	H	-0.081815	0.890131	-0.718623
H324	H	0.418185	1.390131	-0.218623
H325	H	-0.142157	0.924223	-0.740203
H326	H	0.357843	1.424223	-0.240203
O327	O	-0.318007	0.560654	-0.317814
O328	O	0.181993	1.060654	0.182186
C329	C	-0.347573	0.524842	-0.347264
C330	C	0.152427	1.024842	0.152736
H331	H	-0.326160	0.485932	-0.349114
H332	H	0.173840	0.985932	0.150886
H333	H	-0.353212	0.540632	-0.388448
H334	H	0.146788	1.040632	0.111552
H335	H	-0.387253	0.519005	-0.328045
H336	H	0.112747	1.019005	0.171955
H337	H	-0.157738	0.305264	-0.158076
H338	H	0.342262	0.805264	0.341924
H339	H	-0.346220	0.305258	-0.345951
H340	H	0.153780	0.805258	0.154049
H341	H	-0.346220	0.206208	-0.345967
H342	H	0.153780	0.706208	0.154033
H343	H	-0.191318	0.816221	-0.451587
H344	H	0.308682	1.316221	0.048413
H345	H	-0.702147	0.849670	-0.158015
H346	H	-0.202147	1.349670	0.341985
H347	H	-0.312768	0.054105	-0.312594
H348	H	0.187232	0.554105	0.187406
H349	H	-0.450988	0.816111	-0.191384
H350	H	0.049012	1.316111	0.308616
H351	H	-0.801194	0.849709	-0.158028
H352	H	-0.301194	1.349709	0.341972
O353	O	-0.949120	0.821605	-0.186176
O354	O	-0.449120	1.321605	0.313824
C355	C	-0.984917	0.851136	-0.156691
C356	C	-0.484917	1.351136	0.343309
H357	H	-1.023828	0.852940	-0.178114
H358	H	-0.523828	1.352940	0.321886
H359	H	-0.969110	0.892330	-0.151153
H360	H	-0.469110	1.392330	0.348847
H361	H	-0.990758	0.832016	-0.116963
H362	H	-0.490758	1.332016	0.383037
H363	H	-0.191162	0.816298	-1.052998
H364	H	0.308838	1.316298	-0.552998
O365	O	-1.056765	0.821613	-0.186292
O366	O	-0.556765	1.321613	0.313708
C367	C	-1.110816	0.814462	-0.193475
C368	C	-0.610816	1.314462	0.306525
H369	H	-1.118254	0.797263	-0.233789
H370	H	-0.618254	1.297263	0.266211
H371	H	-1.131518	0.853649	-0.190038
H372	H	-0.631518	1.353649	0.309962
H373	H	-1.126383	0.786695	-0.162407
H374	H	-0.626383	1.286695	0.337593
H375	H	-1.052449	0.694912	-0.312652
H376	H	-0.552449	1.194912	0.187348
O377	O	-0.554328	0.689463	-0.317900
O378	O	-0.054328	1.189463	0.182100
C379	C	-0.518535	0.659907	-0.347365
C380	C	-0.018535	1.159907	0.152635
H381	H	-0.479588	0.681304	-0.349186
H382	H	0.020412	1.181304	0.150814
H383	H	-0.534293	0.654312	-0.388557
H384	H	-0.034293	1.154312	0.111443
H385	H	-0.512779	0.620208	-0.328177
H386	H	-0.012779	1.120208	0.171823
O387	O	-0.317745	0.689573	-1.057158
O388	O	0.182255	1.189573	-0.557158
C389	C	-0.347268	0.660048	-1.021337
C390	C	0.152732	1.160048	-0.521337
H391	H	-0.325860	0.658252	-0.982416
H392	H	0.174140	1.158252	-0.482416
H393	H	-0.352837	0.618850	-1.037098
H394	H	0.147163	1.118850	-0.537098
H395	H	-0.386981	0.679165	-1.015531
H396	H	0.113019	1.179165	-0.515531
H397	H	-0.312495	0.694857	-0.953898
H398	H	0.187505	1.194857	-0.453898
H399	H	-0.345956	0.661364	-0.801753
H400	H	0.154044	1.161364	-0.301753
H401	H	-0.345970	0.661345	-0.702703
H402	H	0.154030	1.161345	-0.202703
H403	H	-0.312605	0.694809	-0.550610
H404	H	0.187395	1.194809	-0.050610
O405	O	-0.317905	0.689612	-0.447192
O406	O	0.182095	1.189612	0.052808
C407	C	-0.351691	0.719356	-0.415621
C408	C	0.148309	1.219356	0.084379
H409	H	-0.333259	0.758994	-0.407465
H410	H	0.166741	1.258994	0.092535
H411	H	-0.358694	0.698057	-0.377211
H412	H	0.141306	1.198057	0.122789
H413	H	-0.390437	0.725067	-0.436656
H414	H	0.109563	1.225067	0.063344
