data_functionalizedCrystal
_audit_creation_method	'MofGen! by Chris Wilmer'
_symmetry_space_group_name_H-M	'P1'
_symmetry_Int_Tables_number	1
_symmetry_cell_setting	triclinic
loop_
_symmetry_equiv_pos_as_xyz
  x,y,z
_cell_length_a	19.077236
_cell_length_b	29.839131
_cell_length_c	19.076919
_cell_angle_alpha	92.267459
_cell_angle_beta	89.887323
_cell_angle_gamma	92.334053
loop_
_atom_site_label
_atom_site_type_symbol
_atom_site_fract_x
_atom_site_fract_y
_atom_site_fract_z
Zn1	Zn	1.058216	-0.163081	-0.440523
Zn2	Zn	1.558216	0.336919	0.059477
Zn3	Zn	1.062823	-0.235077	-0.323009
Zn4	Zn	1.562823	0.264923	0.176991
Zn5	Zn	0.945432	-0.162845	-0.318303
Zn6	Zn	1.445432	0.337155	0.181697
Zn7	Zn	0.940640	-0.241071	-0.435746
Zn8	Zn	1.440640	0.258929	0.064254
O9	O	1.001778	-0.200519	-0.379395
O10	O	1.501778	0.299481	0.120605
O11	O	1.157162	-0.170222	-0.428903
O12	O	1.657162	0.329778	0.071097
O13	O	1.051185	-0.222889	-0.224054
O14	O	1.551185	0.277111	0.275946
O15	O	0.960471	-0.100008	-0.334546
O16	O	1.460471	0.399992	0.165454
O17	O	1.160547	-0.223117	-0.342566
O18	O	1.660547	0.276883	0.157434
O19	O	1.043333	-0.100181	-0.424341
O20	O	1.543333	0.399819	0.075659
O21	O	0.964938	-0.169820	-0.220597
O22	O	1.464938	0.330180	0.279403
O23	O	0.846462	-0.175632	-0.329914
O24	O	1.346462	0.324368	0.170086
O25	O	0.952303	-0.233332	-0.534710
O26	O	1.452303	0.266668	-0.034710
O27	O	0.842941	-0.233104	-0.416199
O28	O	1.342941	0.266896	0.083801
O29	O	1.038686	-0.176033	-0.538220
O30	O	1.538686	0.323967	-0.038220
O31	O	1.046538	-0.298741	-0.337933
O32	O	1.546538	0.201259	0.162067
O33	O	0.956770	-0.303144	-0.420761
O34	O	1.456770	0.196856	0.079239
C35	C	0.819204	-0.204993	-0.372028
C36	C	1.319204	0.295007	0.127972
C37	C	0.741097	-0.206918	-0.368893
C38	C	1.241097	0.293082	0.131107
C39	C	0.702638	-0.180331	-0.412440
C40	C	1.202638	0.319669	0.087560
C41	C	0.629249	-0.182137	-0.409488
C42	C	1.129249	0.317863	0.090512
C43	C	0.594320	-0.210535	-0.362992
C44	C	1.094320	0.289465	0.137008
C45	C	0.632785	-0.237124	-0.319440
C46	C	1.132785	0.262876	0.180560
C47	C	0.706173	-0.235314	-0.322389
C48	C	1.206173	0.264686	0.177611
C49	C	0.375023	-0.218892	-0.349341
C50	C	0.875023	0.281108	0.150659
C51	C	0.301630	-0.220701	-0.346397
C52	C	0.801630	0.279299	0.153603
C53	C	0.298099	-0.165714	-0.436444
C54	C	0.798099	0.334286	0.063556
C55	C	0.371489	-0.163909	-0.439392
C56	C	0.871489	0.336091	0.060608
C57	C	0.409947	-0.190496	-0.395838
C58	C	0.909947	0.309504	0.104162
N59	N	0.519305	-0.212383	-0.359975
N60	N	1.019305	0.287617	0.140025
N61	N	0.484961	-0.188645	-0.398852
N62	N	0.984961	0.311355	0.101148
C63	C	1.001652	-0.317243	-0.379355
C64	C	1.501652	0.182757	0.120645
C65	C	1.001662	-0.367178	-0.379364
C66	C	1.501662	0.132822	0.120636
C67	C	1.048599	-0.674513	-0.336336
C68	C	1.548599	-0.174513	0.163664
C69	C	1.048685	-0.862185	-0.336367
C70	C	1.548685	-0.362185	0.163633
O71	O	1.088493	-0.884489	-0.299751
O72	O	1.588493	-0.384489	0.200249
N73	N	1.001922	-0.887958	-0.379454
N74	N	1.501922	-0.387958	0.120546
C75	C	0.955137	-0.866811	-0.422541
C76	C	1.455137	-0.366811	0.077459
O77	O	0.915369	-0.893040	-0.459195
O78	O	1.415369	-0.393040	0.040805
C79	C	0.955055	-0.679141	-0.422513
C80	C	1.455055	-0.179141	0.077487
C81	C	1.001816	-0.653369	-0.379417
C82	C	1.501816	-0.153369	0.120583
C83	C	1.095357	-0.648742	-0.293244
C84	C	1.595357	-0.148742	0.206756
C85	C	1.095333	-0.601827	-0.293234
C86	C	1.595333	-0.101827	0.206766
C87	C	1.048550	-0.580683	-0.336316
C88	C	1.548550	-0.080683	0.163684
C89	C	1.001792	-0.606454	-0.379407
C90	C	1.501792	-0.106454	0.120593
C91	C	0.908274	-0.657995	-0.465603
C92	C	1.408274	-0.157995	0.034397
C93	C	0.908259	-0.611074	-0.465593
C94	C	1.408259	-0.111074	0.034407
C95	C	0.955021	-0.585302	-0.422497
C96	C	1.455021	-0.085302	0.077503
C97	C	0.954985	-0.538395	-0.422479
C98	C	1.454985	-0.038395	0.077521
N99	N	1.001748	-0.512622	-0.379391
N100	N	1.501748	-0.012622	0.120609
C101	C	1.048531	-0.533766	-0.336310
C102	C	1.548531	-0.033766	0.163690
C103	C	0.955182	-0.965341	-0.422551
C104	C	1.455182	-0.465341	0.077449
C105	C	0.955201	-1.012259	-0.422557
C106	C	1.455201	-0.512259	0.077443
C107	C	1.048750	-1.007629	-0.336384
C108	C	1.548750	-0.507629	0.163616
C109	C	1.048727	-0.960710	-0.336375
C110	C	1.548727	-0.460710	0.163625
C111	C	1.001945	-0.939568	-0.379463
C112	C	1.501945	-0.439568	0.120537
C113	C	1.048475	-0.435241	-0.336291
C114	C	1.548475	0.064759	0.163709
C115	C	1.048445	-0.388322	-0.336283
C116	C	1.548445	0.111678	0.163717
C117	C	0.954899	-0.392956	-0.422458
C118	C	1.454899	0.107044	0.077542
C119	C	0.954926	-0.439871	-0.422464
C120	C	1.454926	0.060129	0.077536
C121	C	1.001721	-0.461012	-0.379379
C122	C	1.501721	0.038988	0.120621
O123	O	0.915203	-0.516061	-0.459081
O124	O	1.415203	-0.016061	0.040919
O125	O	1.088303	-0.507529	-0.299672
O126	O	1.588303	-0.007529	0.200328
C127	C	1.048624	-0.721428	-0.336346
C128	C	1.548624	-0.221428	0.163654
C129	C	1.001865	-0.747199	-0.379438
C130	C	1.501865	-0.247199	0.120562
C131	C	0.955083	-0.726056	-0.422519
C132	C	1.455083	-0.226056	0.077481
C133	C	1.001885	-0.794117	-0.379444
C134	C	1.501885	-0.294117	0.120556
C135	C	1.048667	-0.815261	-0.336362
C136	C	1.548667	-0.315261	0.163638
C137	C	1.095431	-0.789487	-0.293275
C138	C	1.595431	-0.289487	0.206725
C139	C	1.095406	-0.742572	-0.293265
C140	C	1.595406	-0.242572	0.206735
C141	C	0.908320	-0.751829	-0.465607
C142	C	1.408320	-0.251829	0.034393
C143	C	0.908347	-0.798744	-0.465612
C144	C	1.408347	-0.298744	0.034388
C145	C	0.955130	-0.819888	-0.422531
C146	C	1.455130	-0.319888	0.077469
C147	C	1.185065	-0.196027	-0.386792
C148	C	1.685065	0.303973	0.113208
C149	C	1.263171	-0.194113	-0.389944
C150	C	1.763171	0.305887	0.110056
C151	C	0.994446	-0.205378	-0.562674
C152	C	1.494446	0.294622	-0.062674
C153	C	0.991322	-0.207448	-0.640777
C154	C	1.491322	0.292552	-0.140777
C155	C	1.001922	-0.083338	-0.379452
C156	C	1.501922	0.416662	0.120548
C157	C	1.001984	-0.033403	-0.379476
C158	C	1.501984	0.466597	0.120524
C159	C	1.034827	-0.178590	-0.679298
C160	C	1.534827	0.321410	-0.179298
C161	C	1.031882	-0.180534	-0.752683
C162	C	1.531882	0.319466	-0.252683
C163	C	0.985436	-0.211339	-0.787546
C164	C	1.485436	0.288661	-0.287546
C165	C	0.941927	-0.240198	-0.749019
C166	C	1.441927	0.259802	-0.249019
C167	C	0.944868	-0.238252	-0.675635
C168	C	1.444868	0.261748	-0.175635
C169	C	0.971814	-0.220357	-1.006824
C170	C	1.471814	0.279643	-0.506824
C171	C	0.968877	-0.222303	-1.080214
C172	C	1.468877	0.277697	-0.580214
C173	C	1.058833	-0.162638	-1.083872
C174	C	1.558833	0.337362	-0.583872
C175	C	1.061773	-0.160696	-1.010487
C176	C	1.561773	0.339304	-0.510487
C177	C	1.018260	-0.189553	-0.971966
C178	C	1.518260	0.310447	-0.471966
N179	N	0.982427	-0.213328	-0.862557
N180	N	1.482427	0.286672	-0.362557
N181	N	1.021266	-0.187562	-0.896956
N182	N	1.521266	0.312438	-0.396956
C183	C	1.009122	-0.195645	-0.196831
C184	C	1.509122	0.304355	0.303169
C185	C	1.012382	-0.193445	-0.118735
C186	C	1.512382	0.306555	0.381265
H187	H	0.731072	-0.157208	-0.450304
H188	H	1.231072	0.342792	0.049696
Br189	Br	1.097869	-0.136785	-0.631991
Br190	Br	1.597869	0.363215	-0.131991
Br191	Br	0.885819	-0.277416	-0.623355
Br192	Br	1.385819	0.222584	-0.123355
H193	H	0.273193	-0.243828	-0.308534
H194	H	0.773193	0.256172	0.191466
Br195	Br	0.585382	-0.275659	-0.256332
Br196	Br	1.085382	0.224341	0.243668
Br197	Br	0.912760	-0.259521	-0.954556
Br198	Br	1.412760	0.240479	-0.454556
Br199	Br	1.124811	-0.118889	-0.963178
Br200	Br	1.624811	0.381111	-0.463178
Br201	Br	1.117880	-0.123475	-1.136153
Br202	Br	1.617880	0.376525	-0.636153
Br203	Br	0.891727	-1.047228	-0.481035
Br204	Br	1.391727	-0.547228	0.018965
H205	H	0.597939	-0.160488	-0.444950
H206	H	1.097939	0.339512	0.055050
H207	H	0.266779	-0.144068	-0.471903
H208	H	0.766779	0.355932	0.028097
H209	H	0.399923	-0.140787	-0.477257
H210	H	0.899923	0.359213	0.022743
H211	H	0.904107	-0.265279	-0.777410
H212	H	1.404107	0.234721	-0.277410
Br213	Br	0.844824	-0.723142	-0.524082
Br214	Br	1.344824	-0.223142	-0.024082
Br215	Br	0.427208	-0.254963	-0.290213
Br216	Br	0.927208	0.245037	0.209787
H217	H	0.737485	-0.256964	-0.286928
H218	H	1.237485	0.243036	0.213072
H219	H	1.133412	-0.580846	-0.258144
H220	H	1.633412	-0.080846	0.241856
H221	H	0.870164	-0.593862	-0.500683
H222	H	1.370164	-0.093862	-0.000683
H223	H	0.931053	-0.247389	-1.108597
H224	H	1.431053	0.252611	-0.608597
H225	H	0.917085	-0.948130	-0.457640
H226	H	1.417085	-0.448130	0.042360
H227	H	1.086523	-0.367340	-0.301187
H228	H	1.586523	0.132660	0.198813
Br229	Br	1.111982	-0.463925	-0.277818
Br230	Br	1.611982	0.036075	0.222182
Br231	Br	1.158858	-0.677428	-0.234770
Br232	Br	1.658858	-0.177428	0.265230
H233	H	1.086843	-1.024852	-0.301306
H234	H	1.586843	-0.524852	0.198694
Br235	Br	0.891448	-0.474847	-0.480934
Br236	Br	1.391448	0.025153	0.019066
Br237	Br	0.891414	-0.364251	-0.480926
Br238	Br	1.391414	0.135749	0.019074
Br239	Br	1.112190	-0.925740	-0.277885
Br240	Br	1.612190	-0.425740	0.222115
Br241	Br	0.844877	-0.833714	-0.524103
Br242	Br	1.344877	-0.333714	-0.024103
Br243	Br	1.158918	-0.818192	-0.234804
Br244	Br	1.658918	-0.318192	0.265196
Br245	Br	1.090960	-0.141387	-0.804961
Br246	Br	1.590960	0.358613	-0.304961
H247	H	1.133484	-0.721592	-0.258172
H248	H	1.633484	-0.221592	0.241828
H249	H	0.870193	-0.678970	-0.500692
H250	H	1.370193	-0.178970	-0.000692
