data_functionalizedCrystal
_audit_creation_method	'MofGen! by Chris Wilmer'
_symmetry_space_group_name_H-M	'P1'
_symmetry_Int_Tables_number	1
_symmetry_cell_setting	triclinic
loop_
_symmetry_equiv_pos_as_xyz
  x,y,z
_cell_length_a	21.395362
_cell_length_b	12.645330
_cell_length_c	21.395355
_cell_angle_alpha	90.012330
_cell_angle_beta	90.043940
_cell_angle_gamma	90.033572
loop_
_atom_site_label
_atom_site_type_symbol
_atom_site_fract_x
_atom_site_fract_y
_atom_site_fract_z
Zn1	Zn	0.957916	-0.421713	0.354613
Zn2	Zn	1.457916	0.078287	0.854613
Zn3	Zn	0.957842	-0.598962	0.249846
Zn4	Zn	1.457842	-0.098962	0.749846
Zn5	Zn	0.853131	-0.421762	0.249814
Zn6	Zn	1.353131	0.078238	0.749814
Zn7	Zn	0.853124	-0.598984	0.354551
Zn8	Zn	1.353124	-0.098984	0.854551
O9	O	0.905503	-0.510355	0.302206
O10	O	1.405503	-0.010355	0.802206
O11	O	1.045584	-0.445196	0.340754
O12	O	1.545584	0.054804	0.840754
O13	O	0.943924	-0.575468	0.162164
O14	O	1.443924	-0.075468	0.662164
O15	O	0.867065	-0.273408	0.263728
O16	O	1.367065	0.226592	0.763728
O17	O	1.045530	-0.575420	0.263783
O18	O	1.545530	-0.075420	0.763783
O19	O	0.944050	-0.273372	0.340723
O20	O	1.444050	0.226628	0.840723
O21	O	0.866993	-0.445280	0.162140
O22	O	1.366993	0.054720	0.662140
O23	O	0.765452	-0.445301	0.263668
O24	O	1.265452	0.054699	0.763668
O25	O	0.867053	-0.575457	0.442237
O26	O	1.367053	-0.075457	0.942237
O27	O	0.765447	-0.575505	0.340618
O28	O	1.265447	-0.075505	0.840618
O29	O	0.944043	-0.445217	0.442282
O30	O	1.444043	0.054783	0.942282
O31	O	0.943918	-0.747312	0.263724
O32	O	1.443918	-0.247312	0.763724
O33	O	0.866981	-0.747328	0.340650
O34	O	1.366981	-0.247328	0.840650
C35	C	0.742716	-0.510411	0.302133
C36	C	1.242716	-0.010411	0.802133
C37	C	0.673074	-0.510461	0.302117
C38	C	1.173074	-0.010461	0.802117
C39	C	0.905458	-0.785785	0.302197
C40	C	1.405458	-0.285785	0.802197
C41	C	0.905495	-0.903615	0.302214
C42	C	1.405495	-0.403615	0.802214
C43	C	0.640375	-0.578348	0.342125
C44	C	1.140375	-0.078348	0.842125
C45	C	0.574940	-0.578322	0.342153
C46	C	1.074940	-0.078322	0.842153
C47	C	0.542206	-0.510420	0.302162
C48	C	1.042206	-0.010420	0.802162
C49	C	0.574913	-0.442520	0.262151
C50	C	1.074913	0.057480	0.762151
C51	C	0.640348	-0.442540	0.262129
C52	C	1.140348	0.057460	0.762129
C53	C	0.438480	-0.501880	0.245756
C54	C	0.938480	-0.001880	0.745756
C55	C	0.373047	-0.501867	0.245777
C56	C	0.873047	-0.001867	0.745777
C57	C	0.340386	-0.510351	0.302231
C58	C	0.840386	-0.010351	0.802231
C59	C	0.373165	-0.518870	0.358665
C60	C	0.873165	-0.018870	0.858665
C61	C	0.438599	-0.518890	0.358643
C62	C	0.938599	-0.018890	0.858643
C63	C	0.471254	-0.510390	0.302182
C64	C	0.971254	-0.010390	0.802182
C65	C	0.236734	-0.578213	0.342272
C66	C	0.736734	-0.078213	0.842272
C67	C	0.171297	-0.578180	0.342301
C68	C	0.671297	-0.078180	0.842301
C69	C	0.171272	-0.442383	0.262294
C70	C	0.671272	0.057617	0.762294
C71	C	0.236707	-0.442411	0.262271
C72	C	0.736707	0.057589	0.762271
C73	C	0.269434	-0.510332	0.302259
C74	C	0.769434	-0.010332	0.802259
C75	C	0.857295	-1.071233	0.350758
C76	C	1.357295	-0.571233	0.850758
C77	C	0.857048	-0.948674	0.350602
C78	C	1.357048	-0.448674	0.850602
C79	C	0.887617	-0.948193	0.236177
C80	C	1.387617	-0.448193	0.736177
C81	C	0.887323	-1.070792	0.236472
C82	C	1.387323	-0.570792	0.736472
C83	C	0.971870	-1.070679	0.319173
C84	C	1.471870	-0.570679	0.819173
C85	C	0.971463	-0.948073	0.320616
C86	C	1.471463	-0.448073	0.820616
C87	C	1.068927	-0.510300	0.302279
C88	C	1.568927	-0.010300	0.802279
C89	C	1.138568	-0.510276	0.302311
C90	C	1.638568	-0.010276	0.802311
C91	C	0.905555	-0.510334	0.465629
C92	C	1.405555	-0.010334	0.965629
C93	C	0.905578	-0.510325	0.535271
C94	C	1.405578	-0.010325	1.035271
C95	C	0.905566	-0.233850	0.302228
C96	C	1.405566	0.266150	0.802228
C97	C	0.905593	-0.116020	0.302238
C98	C	1.405593	0.383980	0.802238
C99	C	0.905488	-0.510300	0.139418
C100	C	1.405488	-0.010300	0.639418
C101	C	0.905587	-0.510011	0.069778
C102	C	1.405587	-0.010011	0.569778
C103	C	0.945665	-0.442506	0.568008
C104	C	1.445665	0.057494	1.068008
C105	C	0.945664	-0.442460	0.633444
C106	C	1.445664	0.057540	1.133444
C107	C	0.905582	-0.510252	0.666139
C108	C	1.405582	-0.010252	1.166139
C109	C	0.865488	-0.578076	0.633393
C110	C	1.365488	-0.078076	1.133393
C111	C	0.865485	-0.578112	0.567959
C112	C	1.365485	-0.078112	1.067959
C113	C	0.900619	-0.605707	0.769809
C114	C	1.400619	-0.105707	1.269809
C115	C	0.900626	-0.605673	0.835242
C116	C	1.400626	-0.105673	1.335242
C117	C	0.905586	-0.510140	0.867960
C118	C	1.405586	-0.010140	1.367960
C119	C	0.910553	-0.414639	0.835237
C120	C	1.410553	0.085361	1.335237
C121	C	0.910550	-0.414676	0.769803
C122	C	1.410550	0.085324	1.269803
C123	C	0.905580	-0.510220	0.737091
C124	C	1.405580	-0.010220	1.237091
C125	C	0.945675	-0.442266	0.971650
C126	C	1.445675	0.057734	1.471650
C127	C	0.945669	-0.442219	1.037087
C128	C	1.445669	0.057781	1.537087
C129	C	0.865496	-0.577844	1.037035
C130	C	1.365496	-0.077844	1.537035
C131	C	0.865498	-0.577882	0.971600
C132	C	1.365498	-0.077882	1.471600
C133	C	0.905591	-0.510095	0.938911
C134	C	1.405591	-0.010095	1.438911
H135	H	0.548311	-0.633603	0.374734
H136	H	1.048311	-0.133603	0.874734
H137	H	0.920975	-1.100419	0.199087
H138	H	1.420975	-0.600419	0.699087
N139	N	0.796033	-1.109986	0.336865
N140	N	1.296033	-0.609986	0.836865
N141	N	0.750739	-1.083379	0.370204
N142	N	1.250739	-0.583379	0.870204
H143	H	0.707472	-1.110745	0.360391
H144	H	1.207472	-0.610745	0.860391
N145	N	1.017005	-1.107005	0.274835
N146	N	1.517005	-0.607005	0.774835
N147	N	1.000518	-1.166027	0.230938
N148	N	1.500518	-0.666027	0.730938
H149	H	1.032390	-1.191686	0.199621
H150	H	1.532390	-0.691686	0.699621
N151	N	0.541490	-0.373161	0.221292
N152	N	1.041490	0.126839	0.721292
N153	N	0.570697	-0.312553	0.185570
N154	N	1.070697	0.187447	0.685570
H155	H	0.547093	-0.263563	0.156712
H156	H	1.047093	0.236437	0.656712
H157	H	0.832838	-0.633337	0.541305
H158	H	1.332838	-0.133337	1.041305
H159	H	1.009343	-0.917393	0.287852
H160	H	1.509343	-0.417393	0.787852
H161	H	0.839674	-0.917599	0.221575
H162	H	1.339674	-0.417599	0.721575
H163	H	0.896413	-0.683481	0.743176
H164	H	1.396413	-0.183481	1.243176
H165	H	0.978310	-0.387306	0.541397
H166	H	1.478310	0.112694	1.041397
H167	H	0.832855	-0.633031	1.063655
H168	H	1.332855	-0.133031	1.563655
N169	N	0.871238	-1.108132	0.412381
N170	N	1.371238	-0.608132	0.912381
N171	N	0.871427	-1.205094	0.423728
N172	N	1.371427	-0.705094	0.923728
H173	H	0.881291	-1.231150	0.467250
H174	H	1.381291	-0.731150	0.967250
H175	H	0.988178	-1.101533	0.366510
H176	H	1.488178	-0.601533	0.866510
H177	H	0.465285	-0.525824	0.404593
H178	H	0.965285	-0.025824	0.904593
N179	N	0.339817	-0.527574	0.416338
N180	N	0.839817	-0.027574	0.916338
N181	N	0.303285	-0.603317	0.425047
N182	N	0.803285	-0.103317	0.925047
H183	H	0.279733	-0.609476	0.465778
H184	H	0.779733	-0.109476	0.965778
N185	N	0.871090	-0.910860	0.412026
N186	N	1.371090	-0.410860	0.912026
N187	N	0.921888	-0.934430	0.437320
N188	N	1.421888	-0.434430	0.937320
H189	H	0.931805	-0.907731	0.480704
H190	H	1.431805	-0.407731	0.980704
H191	H	0.838874	-1.099500	0.222129
H192	H	1.338874	-0.599500	0.722129
N193	N	0.986613	-0.373167	0.666884
N194	N	1.486613	0.126833	1.166884
N195	N	1.022402	-0.312644	0.637690
N196	N	1.522402	0.187356	1.137690
H197	H	1.051322	-0.263704	0.661305
H198	H	1.551322	0.236296	1.161305
H199	H	0.666971	-0.387255	0.229549
H200	H	1.166971	0.112745	0.729549
H201	H	0.914593	-0.336915	0.743162
H202	H	1.414593	0.163085	1.243162
H203	H	0.263381	-0.633513	0.374837
H204	H	0.763381	-0.133513	0.874837
N205	N	0.915619	-0.317056	0.868658
N206	N	1.415619	0.182944	1.368658
N207	N	0.915614	-0.317031	0.927080
N208	N	1.415614	0.182969	1.427080
H209	H	0.919192	-0.248116	0.950687
H210	H	1.419192	0.251884	1.450687
N211	N	0.795407	-0.912030	0.336527
N212	N	1.295407	-0.412030	0.836527
N213	N	0.752437	-0.977001	0.326784
N214	N	1.252437	-0.477001	0.826784
H215	H	0.708900	-0.951124	0.316842
H216	H	1.208900	-0.451124	0.816842
N217	N	0.137903	-0.647526	0.383181
N218	N	0.637903	-0.147526	0.883181
N219	N	0.167134	-0.708156	0.418880
N220	N	0.667134	-0.208156	0.918880
H221	H	0.143549	-0.757133	0.447753
H222	H	0.643549	-0.257133	0.947753
N223	N	0.137854	-0.373023	0.221435
N224	N	0.637854	0.126977	0.721435
N225	N	0.167061	-0.312420	0.185710
N226	N	0.667061	0.187580	0.685710
H227	H	0.143458	-0.263430	0.156852
H228	H	0.643458	0.236570	0.656852
N229	N	0.471837	-0.493237	0.188082
N230	N	0.971837	0.006763	0.688082
N231	N	0.508295	-0.565206	0.171582
N232	N	1.008295	-0.065206	0.671582
H233	H	0.531852	-0.559103	0.130851
H234	H	1.031852	-0.059103	0.630851
H235	H	0.263332	-0.387135	0.229689
H236	H	0.763332	0.112865	0.729689
N237	N	0.988372	-0.911515	0.381585
N238	N	1.488372	-0.411515	0.881585
N239	N	0.952008	-0.852932	0.411408
N240	N	1.452008	-0.352932	0.911408
H241	H	0.963948	-0.827108	0.454468
H242	H	1.463948	-0.327108	0.954468
N243	N	0.824547	-0.647167	0.938165
N244	N	1.324547	-0.147167	1.438165
N245	N	0.788760	-0.707689	0.967362
N246	N	1.288760	-0.207689	1.467362
H247	H	0.759834	-0.756623	0.943749
H248	H	1.259834	-0.256623	1.443749
H249	H	0.978317	-0.387064	0.945034
H250	H	1.478317	0.112936	1.445034
H251	H	0.921680	-0.919005	0.199037
H252	H	1.421680	-0.419005	0.699037
H253	H	0.832851	-0.633270	0.660018
H254	H	1.332851	-0.133270	1.160018
H255	H	0.978312	-0.386986	1.063741
H256	H	1.478312	0.113014	1.563741
N257	N	0.895530	-0.703233	0.868647
N258	N	1.395530	-0.203233	1.368647
N259	N	0.935829	-0.773688	0.861372
N260	N	1.435829	-0.273688	1.361372
H261	H	0.932217	-0.842597	0.884956
H262	H	1.432217	-0.342597	1.384956
N263	N	0.673794	-0.647730	0.382975
N264	N	1.173794	-0.147730	0.882975
N265	N	0.644585	-0.708339	0.418695
N266	N	1.144585	-0.208339	0.918695
H267	H	0.668187	-0.757340	0.447547
H268	H	1.168187	-0.257340	0.947547
H269	H	0.346364	-0.494937	0.199825
H270	H	0.846364	0.005063	0.699825
