data_functionalizedCrystal
_audit_creation_method	'MofGen! by Chris Wilmer'
_symmetry_space_group_name_H-M	'P1'
_symmetry_Int_Tables_number	1
_symmetry_cell_setting	triclinic
loop_
_symmetry_equiv_pos_as_xyz
  x,y,z
_cell_length_a	10.489741
_cell_length_b	10.723024
_cell_length_c	9.798715
_cell_angle_alpha	90.003391
_cell_angle_beta	89.997135
_cell_angle_gamma	95.496478
loop_
_atom_site_label
_atom_site_type_symbol
_atom_site_fract_x
_atom_site_fract_y
_atom_site_fract_z
O1	O	0.178906	-1.657297	-0.113481
O2	O	0.196031	-1.294155	-0.113486
O3	O	0.001865	-1.483989	-0.113475
O4	O	0.373072	-1.467463	-0.113492
O5	O	0.001865	-1.483975	0.113507
O6	O	0.196030	-1.294141	0.113496
O7	O	0.178906	-1.657283	0.113501
Zn8	Zn	0.187468	-1.475709	0.149537
Zn9	Zn	0.187469	-1.475728	-0.149522
O10	O	0.373071	-1.467448	0.113490
C11	C	0.194785	-1.247647	0.000005
C12	C	0.191056	-1.109091	0.000003
C13	C	-0.045666	-1.482734	0.000015
C14	C	-0.187293	-1.478999	0.000012
C15	C	0.180152	-1.703790	0.000007
C16	C	0.183881	-1.842347	-0.000000
C17	C	-0.255356	-1.358213	0.000001
C18	C	-0.347515	-1.415265	0.111915
C19	C	-0.347489	-1.415307	-0.111871
C20	C	-0.277587	-1.536100	0.112019
C21	C	-0.277551	-1.536126	-0.111868
C22	C	-0.369683	-1.593265	0.000074
C23	C	0.420602	-1.468704	-0.000003
C24	C	0.562229	-1.472438	-0.000009
N25	N	0.187467	-1.475706	0.353637
C26	C	0.299701	-1.034175	-0.000003
C27	C	0.295850	-0.890969	-0.000004
N28	N	0.187460	-1.475742	-0.353622
C29	C	0.105583	-1.555412	0.421418
C30	C	0.105578	-1.555432	0.578581
H31	H	-0.205641	-1.258904	0.000112
C32	C	-0.389378	-1.346226	0.239729
H33	H	-0.446106	-1.401339	0.292421
H34	H	-0.431687	-1.275719	0.212829
H35	H	-0.316156	-1.319041	0.292802
C36	C	0.010867	-1.647617	0.657315
H37	H	0.023282	-1.635531	0.752617
H38	H	0.025230	-1.731104	0.633947
H39	H	-0.074353	-1.633072	0.633971
C40	C	-0.436551	-1.727535	0.000158
H41	H	-0.412625	-1.770227	0.079730
H42	H	-0.411539	-1.770770	-0.078586
H43	H	-0.526755	-1.724437	-0.000587
H44	H	0.388858	-0.826593	-0.000015
H45	H	0.090867	-0.906715	-0.000004
H46	H	-0.246539	-1.587196	-0.206487
C47	C	-0.235989	-1.605063	0.239987
H48	H	-0.145632	-1.606975	0.239239
H49	H	-0.276157	-1.688311	0.240317
H50	H	-0.260495	-1.562421	0.319359
H51	H	0.257572	-1.407503	0.588098
C52	C	0.061541	-1.052532	0.000009
H53	H	-0.006122	-1.118105	0.000022
H54	H	0.055416	-1.002309	-0.079142
H55	H	0.055418	-1.002307	0.079175
H56	H	-0.378420	-1.364191	-0.206495
H57	H	0.035476	-1.623632	0.363099
C58	C	0.282155	-1.383517	0.432405
H59	H	0.333518	-1.333496	0.369499
H60	H	0.335484	-1.429075	0.488149
H61	H	0.235866	-1.331077	0.488145
H62	H	0.395567	-1.076055	0.000001
