data_functionalizedCrystal
_audit_creation_method	'MofGen! by Chris Wilmer'
_symmetry_space_group_name_H-M	'P1'
_symmetry_Int_Tables_number	1
_symmetry_cell_setting	triclinic
loop_
_symmetry_equiv_pos_as_xyz
  x,y,z
_cell_length_a	19.077105
_cell_length_b	18.050589
_cell_length_c	19.076919
_cell_angle_alpha	92.275255
_cell_angle_beta	90.076224
_cell_angle_gamma	87.724731
loop_
_atom_site_label
_atom_site_type_symbol
_atom_site_fract_x
_atom_site_fract_y
_atom_site_fract_z
Zn1	Zn	1.058247	-0.359281	-0.440438
Zn2	Zn	1.391580	-0.025948	-0.107105
Zn3	Zn	1.724914	0.307386	0.226228
Zn4	Zn	1.062879	-0.478689	-0.322938
Zn5	Zn	1.396213	-0.145356	0.010395
Zn6	Zn	1.729546	0.187977	0.343728
Zn7	Zn	0.945466	-0.349333	-0.318231
Zn8	Zn	1.278799	-0.015999	0.015102
Zn9	Zn	1.612132	0.317334	0.348435
Zn10	Zn	0.940701	-0.478241	-0.435691
Zn11	Zn	1.274034	-0.144908	-0.102358
Zn12	Zn	1.607368	0.188425	0.230976
O13	O	1.001823	-0.416386	-0.379325
O14	O	1.335157	-0.083053	-0.045991
O15	O	1.668490	0.250281	0.287342
O16	O	1.157193	-0.379472	-0.428809
O17	O	1.490526	-0.046139	-0.095475
O18	O	1.823860	0.287195	0.237858
O19	O	1.051237	-0.457554	-0.223983
O20	O	1.384570	-0.124220	0.109351
O21	O	1.717903	0.209113	0.442684
O22	O	0.960482	-0.246731	-0.334459
O23	O	1.293815	0.086603	-0.001126
O24	O	1.627148	0.419936	0.332208
O25	O	1.160596	-0.467201	-0.342482
O26	O	1.493930	-0.133867	-0.009149
O27	O	1.827263	0.199466	0.324185
O28	O	1.043342	-0.254040	-0.424244
O29	O	1.376675	0.079293	-0.090911
O30	O	1.710008	0.412627	0.242422
O31	O	0.964973	-0.362516	-0.220524
O32	O	1.298307	-0.029183	0.112809
O33	O	1.631640	0.304151	0.446143
O34	O	0.846502	-0.362082	-0.329856
O35	O	1.179835	-0.028748	0.003478
O36	O	1.513169	0.304585	0.336811
O37	O	0.952361	-0.466437	-0.534652
O38	O	1.285695	-0.133104	-0.201319
O39	O	1.619028	0.200229	0.132014
O40	O	0.843002	-0.456790	-0.416153
O41	O	1.176335	-0.123457	-0.082820
O42	O	1.509668	0.209876	0.250514
O43	O	1.038722	-0.379038	-0.538140
O44	O	1.372055	-0.045704	-0.204807
O45	O	1.705388	0.287629	0.128526
O46	O	1.046617	-0.582551	-0.337879
O47	O	1.379950	-0.249218	-0.004545
O48	O	1.713283	0.084115	0.328788
O49	O	0.956853	-0.582222	-0.420717
O50	O	1.290186	-0.248889	-0.087384
O51	O	1.623520	0.084444	0.245949
C52	C	0.819256	-0.408308	-0.371979
C53	C	1.152589	-0.074975	-0.038645
C54	C	1.485922	0.258358	0.294688
C55	C	0.741152	-0.404871	-0.368853
C56	C	1.074485	-0.071538	-0.035519
C57	C	1.407818	0.261795	0.297814
C58	C	0.702657	-0.452635	-0.412244
C59	C	1.035990	-0.119302	-0.078911
C60	C	1.369324	0.214032	0.254423
C61	C	0.629270	-0.449396	-0.409310
C62	C	0.962603	-0.116063	-0.075977
C63	C	1.295937	0.217271	0.257357
C64	C	0.594379	-0.398396	-0.362981
C65	C	0.927712	-0.065063	-0.029648
C66	C	1.261046	0.268271	0.303685
C67	C	0.632879	-0.350627	-0.319588
C68	C	0.966212	-0.017294	0.013745
C69	C	1.299545	0.316040	0.347078
C70	C	0.706264	-0.353863	-0.322526
C71	C	1.039598	-0.020530	0.010807
C72	C	1.372931	0.312803	0.344141
C73	C	0.375093	-0.383419	-0.349388
C74	C	0.708426	-0.050086	-0.016054
C75	C	1.041759	0.283248	0.317279
C76	C	0.301702	-0.380188	-0.346452
C77	C	0.635035	-0.046855	-0.013118
C78	C	0.968368	0.286479	0.320215
C79	C	0.298098	-0.478956	-0.436175
C80	C	0.631431	-0.145623	-0.102841
C81	C	0.964765	0.187710	0.230492
C82	C	0.371485	-0.482191	-0.439105
C83	C	0.704818	-0.148858	-0.105772
C84	C	1.038152	0.184476	0.227561
C85	C	0.409979	-0.434419	-0.395715
C86	C	0.743312	-0.101086	-0.062382
C87	C	1.076645	0.232247	0.270951
N88	N	0.519366	-0.395085	-0.359980
N89	N	0.852699	-0.061752	-0.026646
N90	N	1.186032	0.271581	0.306687
N91	N	0.484990	-0.437727	-0.398721
N92	N	0.818324	-0.104394	-0.065387
N93	N	1.151657	0.228940	0.267946
C94	C	1.001739	-0.609334	-0.379310
C95	C	1.335072	-0.276001	-0.045976
C96	C	1.668406	0.057333	0.287357
C97	C	1.001766	-0.691882	-0.379329
C98	C	1.335100	-0.358548	-0.045996
C99	C	1.668433	-0.025215	0.287337
C100	C	0.952999	-0.891182	-0.424363
C101	C	1.286333	-0.557848	-0.091029
C102	C	1.619666	-0.224515	0.242304
C103	C	0.938449	-0.937256	-0.359556
C104	C	1.271783	-0.603922	-0.026222
C105	C	1.605116	-0.270589	0.307111
C106	C	1.001835	-0.843016	-0.379341
C107	C	1.335168	-0.509682	-0.046008
C108	C	1.668502	-0.176349	0.287325
C109	C	1.016419	-0.944025	-0.444157
C110	C	1.349752	-0.610692	-0.110824
C111	C	1.683086	-0.277358	0.222510
C112	C	1.001900	-0.989004	-0.379358
C113	C	1.335233	-0.655671	-0.046025
C114	C	1.668566	-0.322337	0.287308
C115	C	0.987253	-0.887999	-0.314499
C116	C	1.320586	-0.554666	0.018834
C117	C	1.653919	-0.221333	0.352168
C118	C	1.065250	-0.894768	-0.399145
C119	C	1.398584	-0.561434	-0.065811
C120	C	1.731917	-0.228101	0.267522
C121	C	1.050726	-0.940818	-0.334295
C122	C	1.384060	-0.607485	-0.000961
C123	C	1.717393	-0.274152	0.332372
C124	C	1.001796	-0.758915	-0.379332
C125	C	1.335129	-0.425582	-0.045999
C126	C	1.668462	-0.092249	0.287334
C127	C	1.001939	-1.073102	-0.379360
C128	C	1.335272	-0.739769	-0.046027
C129	C	1.668606	-0.406436	0.287306
C130	C	1.185104	-0.424496	-0.386700
C131	C	1.518437	-0.091163	-0.053367
C132	C	1.851771	0.242171	0.279967
C133	C	1.263207	-0.427952	-0.389843
C134	C	1.596540	-0.094618	-0.056509
C135	C	1.929874	0.238715	0.276824
C136	C	0.994493	-0.423797	-0.562605
C137	C	1.327827	-0.090464	-0.229272
C138	C	1.661160	0.242869	0.104061
C139	C	0.991370	-0.426955	-0.640709
C140	C	1.324703	-0.093622	-0.307375
C141	C	1.658036	0.239711	0.025958
C142	C	1.001926	-0.222686	-0.379356
C143	C	1.335260	0.110647	-0.046023
C144	C	1.668593	0.443980	0.287311
C145	C	1.001970	-0.140143	-0.379369
C146	C	1.335304	0.193191	-0.046036
C147	C	1.668637	0.526524	0.287297
C148	C	1.034863	-0.382937	-0.679219
C149	C	1.368197	-0.049603	-0.345885
C150	C	1.701530	0.283730	-0.012552
C151	C	1.031920	-0.385901	-0.752605
C152	C	1.365253	-0.052568	-0.419271
C153	C	1.698587	0.280766	-0.085938
C154	C	0.985486	-0.432888	-0.787479
C155	C	1.318819	-0.099555	-0.454146
C156	C	1.652153	0.233778	-0.120813
C157	C	0.941988	-0.476908	-0.748964
C158	C	1.275321	-0.143575	-0.415631
C159	C	1.608654	0.189758	-0.082297
C160	C	0.944928	-0.473940	-0.675579
C161	C	1.278261	-0.140606	-0.342246
C162	C	1.611595	0.192727	-0.008913
C163	C	0.971867	-0.446642	-1.006761
C164	C	1.305200	-0.113309	-0.673428
C165	C	1.638534	0.220024	-0.340095
C166	C	0.968931	-0.449609	-1.080151
C167	C	1.302265	-0.116276	-0.746818
C168	C	1.635598	0.217057	-0.413485
C169	C	1.058863	-0.358601	-1.083787
C170	C	1.392196	-0.025267	-0.750454
C171	C	1.725530	0.308066	-0.417120
C172	C	1.061802	-0.355639	-1.010401
C173	C	1.395136	-0.022306	-0.677067
C174	C	1.728469	0.311027	-0.343734
C175	C	1.018301	-0.399657	-0.971892
C176	C	1.351635	-0.066323	-0.638558
C177	C	1.684968	0.267010	-0.305225
N178	N	0.982478	-0.435921	-0.862492
N179	N	1.315811	-0.102588	-0.529158
N180	N	1.649144	0.230746	-0.195825
N181	N	1.021307	-0.396619	-0.896881
N182	N	1.354640	-0.063286	-0.563547
N183	N	1.687973	0.270047	-0.230214
C184	C	1.009165	-0.408952	-0.196759
C185	C	1.342498	-0.075619	0.136574
C186	C	1.675832	0.257715	0.469908
C187	C	1.012425	-0.405591	-0.118661
C188	C	1.345758	-0.072257	0.214672
C189	C	1.679092	0.261076	0.548005
H190	H	0.597931	-0.488291	-0.444643
H191	H	0.931264	-0.154958	-0.111310
H192	H	1.264597	0.178376	0.222024
H193	H	0.266749	-0.517848	-0.471502
H194	H	0.600082	-0.184515	-0.138168
H195	H	0.933415	0.148819	0.195165
C196	C	0.594504	-0.294526	-0.268628
C197	C	0.927837	0.038808	0.064706
C198	C	1.261171	0.372141	0.398039
H199	H	0.627942	-0.266538	-0.243211
H200	H	0.961276	0.066796	0.090122
H201	H	1.294609	0.400129	0.423455
H202	H	0.567084	-0.320379	-0.236818
H203	H	0.900418	0.012954	0.096516
H204	H	1.233751	0.346288	0.429849
H205	H	0.564819	-0.262037	-0.294420
H206	H	0.898152	0.071296	0.038914
H207	H	1.231485	0.404629	0.372247
C208	C	0.970537	-0.855031	-0.240435
C209	C	1.303870	-0.521698	0.092898
C210	C	1.637204	-0.188365	0.426232
H211	H	0.963608	-0.894081	-0.209527
H212	H	1.296941	-0.560747	0.123806
H213	H	1.630274	-0.227414	0.457139
H214	H	0.929155	-0.824084	-0.241978
H215	H	1.262489	-0.490751	0.091355
H216	H	1.595822	-0.157417	0.424689
H217	H	1.008545	-0.826598	-0.224103
H218	H	1.341879	-0.493264	0.109231
H219	H	1.675212	-0.159931	0.442564
H220	H	0.273296	-0.338649	-0.308729
H221	H	0.606629	-0.005316	0.024604
H222	H	0.939962	0.328017	0.357937
H223	H	0.737606	-0.314965	-0.287196
H224	H	1.070939	0.018368	0.046137
H225	H	1.404273	0.351702	0.379471
C226	C	0.897087	-0.522359	-0.633215
C227	C	1.230420	-0.189026	-0.299882
C228	C	1.563754	0.144308	0.033452
H229	H	0.905483	-0.513856	-0.584515
H230	H	1.238816	-0.180523	-0.251182
H231	H	1.572149	0.152811	0.082152
H232	H	0.906859	-0.573198	-0.645645
H233	H	1.240192	-0.239865	-0.312312
H234	H	1.573525	0.093469	0.021022
H235	H	0.849396	-0.509880	-0.643342
H236	H	1.182730	-0.176547	-0.310008
H237	H	1.516063	0.156787	0.023325
C238	C	0.917850	-0.501295	-1.118512
C239	C	1.251183	-0.167962	-0.785179
C240	C	1.584516	0.165372	-0.451846
H241	H	0.892359	-0.527081	-1.085068
H242	H	1.225692	-0.193747	-0.751735
H243	H	1.559025	0.139586	-0.418401
H244	H	0.943565	-0.536001	-1.148216
H245	H	1.276899	-0.202667	-0.814883
H246	H	1.610232	0.130666	-0.481549
H247	H	0.886103	-0.472683	-1.145912
H248	H	1.219436	-0.139350	-0.812579
H249	H	1.552770	0.193984	-0.479245
H250	H	1.028729	-0.968523	-0.498964
H251	H	1.362062	-0.635190	-0.165631
H252	H	1.695396	-0.301856	0.167703
C253	C	0.890912	-0.528594	-0.787324
C254	C	1.224245	-0.195261	-0.453991
C255	C	1.557579	0.138073	-0.120658
H256	H	0.895394	-0.524064	-0.836546
H257	H	1.228728	-0.190731	-0.503212
H258	H	1.562061	0.142602	-0.169879
H259	H	0.844186	-0.515152	-0.773398
H260	H	1.177520	-0.181818	-0.440065
H261	H	1.510853	0.151515	-0.106731
H262	H	0.901656	-0.578461	-0.775701
H263	H	1.234990	-0.245128	-0.442368
H264	H	1.568323	0.088205	-0.109035
H265	H	1.094278	-0.322763	-1.115149
H266	H	1.427611	0.010570	-0.781816
H267	H	1.760945	0.343903	-0.448482
C268	C	0.924004	-0.495044	-0.964410
C269	C	1.257337	-0.161710	-0.631077
C270	C	1.590670	0.171623	-0.297743
H271	H	0.895929	-0.523451	-0.995692
H272	H	1.229263	-0.190117	-0.662359
H273	H	1.562596	0.143216	-0.329026
H274	H	0.894553	-0.464107	-0.934564
H275	H	1.227886	-0.130773	-0.601231
H276	H	1.561220	0.202560	-0.267897
H277	H	0.951998	-0.527442	-0.936850
H278	H	1.285332	-0.194108	-0.603517
H279	H	1.618665	0.139225	-0.270183
H280	H	0.406425	-0.344525	-0.314051
H281	H	0.739759	-0.011192	0.019282
H282	H	1.073092	0.322141	0.352616
H283	H	1.072677	-0.344677	-0.650829
H284	H	1.406010	-0.011344	-0.317496
H285	H	1.739344	0.321990	0.015837
H286	H	1.092055	-0.962470	-0.296183
H287	H	1.425388	-0.629137	0.037150
H288	H	1.758721	-0.295804	0.370483
H289	H	1.067339	-0.350058	-0.783957
H290	H	1.400672	-0.016725	-0.450623
H291	H	1.734005	0.316608	-0.117290
H292	H	0.731060	-0.494167	-0.449968
H293	H	1.064393	-0.160834	-0.116634
H294	H	1.397726	0.172500	0.216699
H295	H	0.399888	-0.523722	-0.476830
H296	H	0.733222	-0.190389	-0.143497
H297	H	1.066555	0.142945	0.189837
H298	H	0.911645	-0.869387	-0.462377
H299	H	1.244978	-0.536054	-0.129044
H300	H	1.578311	-0.202721	0.204290
H301	H	0.884851	-0.956052	-0.342820
H302	H	1.218185	-0.622718	-0.009487
H303	H	1.551518	-0.289385	0.323846
C304	C	1.112880	-0.303954	-0.972044
C305	C	1.446213	0.029379	-0.638710
C306	C	1.779547	0.362713	-0.305377
H307	H	1.138359	-0.278158	-1.005490
H308	H	1.471693	0.055175	-0.672157
H309	H	1.805026	0.388508	-0.338823
H310	H	1.144627	-0.332561	-0.944646
H311	H	1.477960	0.000772	-0.611313
H312	H	1.811293	0.334105	-0.277980
H313	H	1.087162	-0.269245	-0.942338
H314	H	1.420496	0.064088	-0.609005
H315	H	1.753829	0.397421	-0.275671
C316	C	1.137650	-0.869402	-0.421780
C317	C	1.470984	-0.536068	-0.088446
C318	C	1.804317	-0.202735	0.244887
H319	H	1.147924	-0.888645	-0.467857
H320	H	1.481258	-0.555312	-0.134524
H321	H	1.814591	-0.221979	0.198809
H322	H	1.172445	-0.887177	-0.390264
H323	H	1.505778	-0.553843	-0.056930
H324	H	1.839112	-0.220510	0.276403
H325	H	1.137246	-0.816736	-0.421195
H326	H	1.470580	-0.483402	-0.087862
H327	H	1.803913	-0.150069	0.245471
