data_functionalizedCrystal
_audit_creation_method	'MofGen! by Chris Wilmer'
_symmetry_space_group_name_H-M	'P1'
_symmetry_Int_Tables_number	1
_symmetry_cell_setting	triclinic
loop_
_symmetry_equiv_pos_as_xyz
  x,y,z
_cell_length_a	15.995350
_cell_length_b	19.188930
_cell_length_c	15.072220
_cell_angle_alpha	89.993728
_cell_angle_beta	89.991149
_cell_angle_gamma	83.318578
loop_
_atom_site_label
_atom_site_type_symbol
_atom_site_fract_x
_atom_site_fract_y
_atom_site_fract_z
O1	O	1.110666	0.089991	-0.073718
O2	O	0.866850	0.101105	-0.073737
O3	O	0.995794	-0.006090	-0.073709
O4	O	0.981722	0.197186	-0.073745
O5	O	0.995763	-0.006084	0.073856
O6	O	0.866819	0.101111	0.073828
O7	O	1.110634	0.089997	0.073848
Zn8	Zn	0.988721	0.095555	0.097267
Zn9	Zn	0.988763	0.095547	-0.097156
O10	O	0.981690	0.197192	0.073820
C11	C	0.835641	0.100648	0.000043
C12	C	0.742696	0.099271	0.000037
C13	C	0.404967	0.094324	0.000056
C14	C	0.452680	0.017982	0.000398
C15	C	0.549365	0.019360	0.000059
C16	C	0.572518	0.096778	0.000047
C17	C	0.531311	0.134429	-0.084223
C18	C	0.434683	0.132511	-0.084287
C19	C	0.434302	0.134095	0.083522
C20	C	0.531247	0.134077	0.084629
C21	C	0.667211	0.098169	0.000039
C22	C	0.310274	0.092936	0.000058
C23	C	0.995323	-0.032099	0.000076
C24	C	0.993955	-0.109607	0.000083
C25	C	1.069615	-0.154338	0.000093
C26	C	1.068330	-0.227165	0.000079
C27	C	0.991380	-0.255258	0.000072
C28	C	0.915710	-0.210517	0.000057
C29	C	0.916997	-0.137691	0.000062
N30	N	0.932550	-0.363410	0.050287
N31	N	0.931333	-0.432592	0.050284
C32	C	0.987497	-0.474676	0.000054
N33	N	1.044937	-0.444966	-0.050161
N34	N	1.046158	-0.375779	-0.050154
C35	C	0.989976	-0.334224	0.000066
C36	C	1.061769	-0.598375	0.000048
C37	C	1.060480	-0.671204	0.000028
C38	C	0.907859	-0.654553	0.000015
C39	C	0.909149	-0.581727	0.000025
C40	C	0.986106	-0.553643	0.000046
C41	C	1.141843	0.090454	0.000065
C42	C	1.234789	0.091831	0.000066
C43	C	0.982162	0.223201	0.000033
C44	C	0.983530	0.300709	0.000019
N45	N	0.988699	0.095560	0.229956
N46	N	0.988792	0.095537	-0.229845
C47	C	0.988762	0.095544	0.589157
C48	C	0.919536	0.152710	0.551535
C49	C	0.919693	0.152918	0.448710
C50	C	0.988730	0.095552	0.410953
C51	C	1.076036	0.111464	0.448248
C52	C	1.075648	0.111870	0.551106
C53	C	0.971460	0.022298	0.551269
C54	C	0.969454	0.022787	0.448405
C55	C	0.988717	0.095555	0.310240
C56	C	0.988780	0.095543	0.689871
H57	H	0.402230	0.188560	-0.088121
C58	C	1.039650	-0.035175	0.584141
H59	H	1.028861	-0.079312	0.561025
H60	H	1.038835	-0.036766	0.647125
H61	H	1.093325	-0.024906	0.564541
H62	H	1.128769	0.070935	0.423790
C63	C	0.825924	-0.532517	0.000020
H64	H	0.837711	-0.485122	0.000016
H65	H	0.794344	-0.541036	0.051473
H66	H	0.794376	-0.541028	-0.051452
C67	C	0.550116	0.211262	-0.088479
H68	H	0.583348	0.221083	-0.038784
H69	H	0.498718	0.241536	-0.087701
H70	H	0.579901	0.218563	-0.141578
H71	H	1.124432	-0.575508	0.000060
H72	H	0.402334	0.190382	0.084082
H73	H	1.122095	-0.707624	0.000031
H74	H	0.845205	-0.677425	0.000005
H75	H	0.854788	0.143438	0.423496
H76	H	0.558651	0.106592	0.146972
H77	H	0.854420	0.143386	0.576294
H78	H	0.546404	0.190533	0.089710
C79	C	0.426383	-0.023063	-0.080771
H80	H	0.455498	-0.069128	-0.080053
H81	H	0.439965	0.000245	-0.133544
H82	H	0.367458	-0.025636	-0.078783
H83	H	1.132280	-0.131477	0.000107
C84	C	1.151559	-0.276378	0.000097
H85	H	1.197575	-0.249222	0.000115
H86	H	1.154245	-0.305131	-0.051361
H87	H	1.154207	-0.305135	0.051564
H88	H	0.577345	-0.010441	-0.060444
H89	H	0.905232	0.010712	0.424030
H90	H	0.855384	-0.101270	0.000054
C91	C	0.587904	-0.020621	0.081664
H92	H	0.544475	-0.037857	0.115319
H93	H	0.616074	0.010152	0.117306
H94	H	0.626928	-0.058837	0.062708
H95	H	0.434257	-0.012531	0.060832
C96	C	0.410100	0.095408	-0.169367
H97	H	0.459146	0.081644	-0.203564
H98	H	0.372018	0.126599	-0.203062
H99	H	0.383983	0.055078	-0.153961
H100	H	0.930403	0.206759	0.577365
H101	H	0.930714	0.207273	0.424087
H102	H	1.016620	-0.021746	0.422708
C103	C	1.096288	0.184034	0.583497
H104	H	1.104827	0.212827	0.533794
H105	H	1.145937	0.178150	0.618585
H106	H	1.050818	0.205652	0.618082
H107	H	0.853057	-0.233394	0.000050
H108	H	1.128756	0.071875	0.575991
C109	C	1.097192	0.182805	0.413435
H110	H	1.052937	0.202985	0.376184
H111	H	1.148175	0.176225	0.380564
H112	H	1.103496	0.213226	0.462089
C113	C	0.887325	0.001643	0.586338
H114	H	0.861960	0.037502	0.624418
H115	H	0.897262	-0.041150	0.618380
H116	H	0.850834	-0.004147	0.537843
C117	C	0.569782	0.099100	-0.168939
H118	H	0.544440	0.122261	-0.219582
H119	H	0.559989	0.051218	-0.169691
H120	H	0.628656	0.102037	-0.169813
C121	C	0.406667	0.100385	0.169811
H122	H	0.376979	0.061735	0.155738
H123	H	0.371066	0.134077	0.202704
H124	H	0.454915	0.084530	0.204216
