data_functionalizedCrystal
_audit_creation_method	'MofGen! by Chris Wilmer'
_symmetry_space_group_name_H-M	'P1'
_symmetry_Int_Tables_number	1
_symmetry_cell_setting	triclinic
loop_
_symmetry_equiv_pos_as_xyz
  x,y,z
_cell_length_a	6.817900
_cell_length_b	19.551823
_cell_length_c	11.168136
_cell_angle_alpha	94.549227
_cell_angle_beta	108.508683
_cell_angle_gamma	101.663376
loop_
_atom_site_label
_atom_site_type_symbol
_atom_site_fract_x
_atom_site_fract_y
_atom_site_fract_z
V1	V	-4.075381	-0.096685	-0.394290
O2	O	-4.071120	0.004635	-0.386176
O3	O	-4.017763	-0.191700	-0.392177
O4	O	-4.052200	-0.095203	-0.565986
O5	O	-4.036445	-0.092530	-0.211164
V6	V	-4.556935	-0.084566	-0.372315
O7	O	-4.340957	-0.123271	-0.442492
O8	O	-4.741556	-0.057980	-0.324113
O9	O	-4.391346	0.010449	-0.374428
O10	O	-4.678592	-0.185886	-0.380429
O11	O	-4.713268	-0.088721	-0.555441
O12	O	-4.356909	-0.086048	-0.200619
C13	C	-3.859706	-0.214863	-0.386108
C14	C	-3.894052	-0.292539	-0.385525
C15	C	-4.092880	-0.332585	-0.391566
C16	C	-4.125159	-0.405571	-0.391031
C17	C	-3.958584	-0.438506	-0.384430
C18	C	-3.759731	-0.398452	-0.378396
C19	C	-3.727465	-0.325468	-0.378944
C20	C	-3.833594	-0.544992	-0.304360
C21	C	-3.865864	-0.617974	-0.303805
C22	C	-4.058099	-0.663612	-0.382747
C23	C	-4.218087	-0.636259	-0.462229
C24	C	-4.185821	-0.563276	-0.462776
C25	C	-3.993551	-0.517644	-0.383837
C26	C	-4.291941	-0.782798	-0.388210
C27	C	-4.324216	-0.855786	-0.387683
C28	C	-3.958776	-0.848664	-0.375035
C29	C	-3.926513	-0.775679	-0.375575
C30	C	-4.093100	-0.742750	-0.382157
C31	C	-3.903632	-0.091770	-0.607817
C32	C	-3.965902	-0.091186	-0.748184
C33	C	-4.167321	-0.094240	-0.816895
C34	C	-4.231684	-0.093638	-0.961971
C35	C	-4.212745	0.033608	-0.380494
C36	C	-4.157638	0.111284	-0.381084
C37	C	-4.168818	-0.089484	-0.158781
C38	C	-4.085787	-0.090063	-0.018413
H39	H	-4.228536	-0.305780	-0.396934
H40	H	-4.292110	-0.097297	-0.768314
H41	H	-3.624108	-0.425272	-0.373025
C42	C	-3.707774	-0.731625	-0.368910
N43	N	-3.543010	-0.698443	-0.363889
H44	H	-3.913236	-0.087453	-0.959356
H45	H	-4.404235	-0.096255	-1.021038
C46	C	-3.622115	-0.494795	-0.217509
N47	N	-3.462835	-0.456988	-0.152094
C48	C	-4.542954	-0.899837	-0.394332
N49	N	-4.707711	-0.933017	-0.399337
C50	C	-3.797287	-0.087022	-0.813797
N51	N	-3.670274	-0.083877	-0.863212
H52	H	-3.823151	-0.875480	-0.369668
H53	H	-4.287074	-0.438183	-0.395950
H54	H	-4.374467	-0.673428	-0.526685
C55	C	-3.689907	-0.648052	-0.216335
N56	N	-3.557381	-0.670704	-0.150437
C57	C	-4.361786	-0.533191	-0.550224
N58	N	-4.494318	-0.510533	-0.616100
H59	H	-4.427585	-0.755986	-0.393567
C60	C	-3.508723	-0.281415	-0.372287
N61	N	-3.343961	-0.248233	-0.367267
