data_functionalizedCrystal
_audit_creation_method	'MofGen! by Chris Wilmer'
_symmetry_space_group_name_H-M	'P1'
_symmetry_Int_Tables_number	1
_symmetry_cell_setting	triclinic
loop_
_symmetry_equiv_pos_as_xyz
  x,y,z
_cell_length_a	15.995350
_cell_length_b	19.188930
_cell_length_c	15.072220
_cell_angle_alpha	89.993728
_cell_angle_beta	89.991149
_cell_angle_gamma	83.318578
loop_
_atom_site_label
_atom_site_type_symbol
_atom_site_fract_x
_atom_site_fract_y
_atom_site_fract_z
O1	O	1.110666	0.089991	-0.073718
O2	O	1.610666	0.589991	0.426282
O3	O	0.866850	0.101105	-0.073737
O4	O	1.366850	0.601105	0.426263
O5	O	0.995794	-0.006090	-0.073709
O6	O	1.495794	0.493910	0.426291
O7	O	0.981722	0.197186	-0.073745
O8	O	1.481722	0.697186	0.426255
O9	O	0.995763	-0.006084	0.073856
O10	O	1.495763	0.493916	0.573856
O11	O	0.866819	0.101111	0.073828
O12	O	1.366819	0.601111	0.573828
O13	O	1.110634	0.089997	0.073848
O14	O	1.610634	0.589997	0.573848
Zn15	Zn	0.988721	0.095555	0.097267
Zn16	Zn	1.488721	0.595555	0.597267
Zn17	Zn	0.988763	0.095547	-0.097156
Zn18	Zn	1.488763	0.595547	0.402844
O19	O	0.981690	0.197192	0.073820
O20	O	1.481690	0.697192	0.573820
C21	C	0.835641	0.100648	0.000043
C22	C	1.335641	0.600648	0.500043
C23	C	0.742696	0.099271	0.000037
C24	C	1.242696	0.599271	0.500037
C25	C	0.404967	0.094324	0.000056
C26	C	0.904967	0.594324	0.500056
C27	C	0.452680	0.017982	0.000398
C28	C	0.952680	0.517982	0.500398
C29	C	0.549365	0.019360	0.000059
C30	C	1.049365	0.519360	0.500059
C31	C	0.572518	0.096778	0.000047
C32	C	1.072518	0.596778	0.500047
C33	C	0.531311	0.134429	-0.084223
C34	C	1.031311	0.634429	0.415777
C35	C	0.434683	0.132511	-0.084287
C36	C	0.934683	0.632511	0.415713
C37	C	0.434302	0.134095	0.083522
C38	C	0.934302	0.634095	0.583522
C39	C	0.531247	0.134077	0.084629
C40	C	1.031247	0.634077	0.584629
C41	C	0.667211	0.098169	0.000039
C42	C	1.167211	0.598169	0.500039
C43	C	0.310274	0.092936	0.000058
C44	C	0.810274	0.592936	0.500058
C45	C	0.995323	-0.032099	0.000076
C46	C	1.495323	0.467901	0.500076
C47	C	0.993955	-0.109607	0.000083
C48	C	1.493955	0.390393	0.500083
C49	C	1.069615	-0.154338	0.000093
C50	C	1.569615	0.345662	0.500093
C51	C	1.068330	-0.227165	0.000079
C52	C	1.568330	0.272835	0.500079
C53	C	0.991380	-0.255258	0.000072
C54	C	1.491380	0.244742	0.500072
C55	C	0.915710	-0.210517	0.000057
C56	C	1.415710	0.289483	0.500057
C57	C	0.916997	-0.137691	0.000062
C58	C	1.416997	0.362309	0.500062
N59	N	0.932550	-0.363410	0.050287
N60	N	1.432550	0.136590	0.550287
N61	N	0.931333	-0.432592	0.050284
N62	N	1.431333	0.067408	0.550284
C63	C	0.987497	-0.474676	0.000054
C64	C	1.487497	0.025324	0.500054
N65	N	1.044937	-0.444966	-0.050161
N66	N	1.544937	0.055034	0.449839
N67	N	1.046158	-0.375779	-0.050154
N68	N	1.546158	0.124221	0.449846
C69	C	0.989976	-0.334224	0.000066
C70	C	1.489976	0.165776	0.500066
C71	C	1.061769	-0.598375	0.000048
C72	C	1.561769	-0.098375	0.500048
C73	C	1.060480	-0.671204	0.000028
C74	C	1.560480	-0.171204	0.500028
C75	C	0.907859	-0.654553	0.000015
C76	C	1.407859	-0.154553	0.500015
C77	C	0.909149	-0.581727	0.000025
C78	C	1.409149	-0.081727	0.500025
C79	C	0.986106	-0.553643	0.000046
C80	C	1.486106	-0.053643	0.500046
C81	C	1.141843	0.090454	0.000065
C82	C	1.641843	0.590454	0.500065
C83	C	1.234789	0.091831	0.000066
C84	C	1.734789	0.591831	0.500066
C85	C	0.982162	0.223201	0.000033
C86	C	1.482162	0.723201	0.500033
C87	C	0.983530	0.300709	0.000019
C88	C	1.483530	0.800709	0.500019
N89	N	0.988699	0.095560	0.229956
N90	N	1.488699	0.595560	0.729956
N91	N	0.988792	0.095537	-0.229845
N92	N	1.488792	0.595537	0.270155
C93	C	0.988762	0.095544	0.589157
C94	C	1.488762	0.595544	1.089157
C95	C	0.919536	0.152710	0.551535
C96	C	1.419536	0.652710	1.051535
C97	C	0.919693	0.152918	0.448710
C98	C	1.419693	0.652918	0.948710
C99	C	0.988730	0.095552	0.410953
C100	C	1.488730	0.595552	0.910953
C101	C	1.076036	0.111464	0.448248
C102	C	1.576036	0.611464	0.948248
C103	C	1.075648	0.111870	0.551106
C104	C	1.575648	0.611870	1.051106
C105	C	0.971460	0.022298	0.551269
C106	C	1.471460	0.522298	1.051269
C107	C	0.969454	0.022787	0.448405
C108	C	1.469454	0.522787	0.948405
C109	C	0.988717	0.095555	0.310240
C110	C	1.488717	0.595555	0.810240
C111	C	0.988780	0.095543	0.689871
C112	C	1.488780	0.595543	1.189871
H113	H	0.402230	0.188560	-0.088121
H114	H	0.902230	0.688560	0.411879
C115	C	1.039650	-0.035175	0.584141
C116	C	1.539650	0.464825	1.084141
H117	H	1.028861	-0.079312	0.561025
H118	H	1.528861	0.420688	1.061025
H119	H	1.038835	-0.036766	0.647125
H120	H	1.538835	0.463234	1.147125
H121	H	1.093325	-0.024906	0.564541
H122	H	1.593325	0.475094	1.064541
H123	H	1.128769	0.070935	0.423790
H124	H	1.628769	0.570935	0.923790
C125	C	0.825924	-0.532517	0.000020
C126	C	1.325924	-0.032517	0.500020
H127	H	0.837711	-0.485122	0.000016
H128	H	1.337711	0.014878	0.500016
H129	H	0.794344	-0.541036	0.051473
H130	H	1.294344	-0.041036	0.551473
H131	H	0.794376	-0.541028	-0.051452
H132	H	1.294376	-0.041028	0.448548
C133	C	0.550116	0.211262	-0.088479
C134	C	1.050116	0.711262	0.411521
H135	H	0.583348	0.221083	-0.038784
H136	H	1.083348	0.721083	0.461216
H137	H	0.498718	0.241536	-0.087701
H138	H	0.998718	0.741536	0.412299
H139	H	0.579901	0.218563	-0.141578
H140	H	1.079901	0.718563	0.358422
H141	H	1.124432	-0.575508	0.000060
H142	H	1.624432	-0.075508	0.500060
H143	H	0.402334	0.190382	0.084082
H144	H	0.902334	0.690382	0.584082
H145	H	1.122095	-0.707624	0.000031
H146	H	1.622095	-0.207624	0.500031
H147	H	0.845205	-0.677425	0.000005
H148	H	1.345205	-0.177425	0.500005
H149	H	0.854788	0.143438	0.423496
H150	H	1.354788	0.643438	0.923496
H151	H	0.558651	0.106592	0.146972
H152	H	1.058651	0.606592	0.646972
H153	H	0.854420	0.143386	0.576294
H154	H	1.354420	0.643386	1.076294
H155	H	0.546404	0.190533	0.089710
H156	H	1.046404	0.690533	0.589710
C157	C	0.426383	-0.023063	-0.080771
C158	C	0.926383	0.476937	0.419229
H159	H	0.455498	-0.069128	-0.080053
H160	H	0.955498	0.430872	0.419947
H161	H	0.439965	0.000245	-0.133544
H162	H	0.939965	0.500245	0.366456
H163	H	0.367458	-0.025636	-0.078783
H164	H	0.867458	0.474364	0.421217
H165	H	1.132280	-0.131477	0.000107
H166	H	1.632280	0.368523	0.500107
C167	C	1.151559	-0.276378	0.000097
C168	C	1.651559	0.223622	0.500097
H169	H	1.197575	-0.249222	0.000115
H170	H	1.697575	0.250778	0.500115
H171	H	1.154245	-0.305131	-0.051361
H172	H	1.654245	0.194869	0.448639
H173	H	1.154207	-0.305135	0.051564
H174	H	1.654207	0.194865	0.551564
H175	H	0.577345	-0.010441	-0.060444
H176	H	1.077345	0.489559	0.439556
H177	H	0.905232	0.010712	0.424030
H178	H	1.405232	0.510712	0.924030
H179	H	0.855384	-0.101270	0.000054
H180	H	1.355384	0.398730	0.500054
C181	C	0.587904	-0.020621	0.081664
C182	C	1.087904	0.479379	0.581664
H183	H	0.544475	-0.037857	0.115319
H184	H	1.044475	0.462143	0.615319
H185	H	0.616074	0.010152	0.117306
H186	H	1.116074	0.510152	0.617306
H187	H	0.626928	-0.058837	0.062708
H188	H	1.126928	0.441163	0.562708
H189	H	0.434257	-0.012531	0.060832
H190	H	0.934257	0.487469	0.560832
C191	C	0.410100	0.095408	-0.169367
C192	C	0.910100	0.595408	0.330633
H193	H	0.459146	0.081644	-0.203564
H194	H	0.959146	0.581644	0.296436
H195	H	0.372018	0.126599	-0.203062
H196	H	0.872018	0.626599	0.296938
H197	H	0.383983	0.055078	-0.153961
H198	H	0.883983	0.555078	0.346039
H199	H	0.930403	0.206759	0.577365
H200	H	1.430403	0.706759	1.077365
H201	H	0.930714	0.207273	0.424087
H202	H	1.430714	0.707273	0.924087
H203	H	1.016620	-0.021746	0.422708
H204	H	1.516620	0.478254	0.922708
C205	C	1.096288	0.184034	0.583497
C206	C	1.596288	0.684034	1.083497
H207	H	1.104827	0.212827	0.533794
H208	H	1.604827	0.712827	1.033794
H209	H	1.145937	0.178150	0.618585
H210	H	1.645937	0.678150	1.118585
H211	H	1.050818	0.205652	0.618082
H212	H	1.550818	0.705652	1.118082
H213	H	0.853057	-0.233394	0.000050
H214	H	1.353057	0.266606	0.500050
H215	H	1.128756	0.071875	0.575991
H216	H	1.628756	0.571875	1.075991
C217	C	1.097192	0.182805	0.413435
C218	C	1.597192	0.682805	0.913435
H219	H	1.052937	0.202985	0.376184
H220	H	1.552937	0.702985	0.876184
H221	H	1.148175	0.176225	0.380564
H222	H	1.648175	0.676225	0.880564
H223	H	1.103496	0.213226	0.462089
H224	H	1.603496	0.713226	0.962089
C225	C	0.887325	0.001643	0.586338
C226	C	1.387325	0.501643	1.086338
H227	H	0.861960	0.037502	0.624418
H228	H	1.361960	0.537502	1.124418
H229	H	0.897262	-0.041150	0.618380
H230	H	1.397262	0.458850	1.118380
H231	H	0.850834	-0.004147	0.537843
H232	H	1.350834	0.495853	1.037843
C233	C	0.569782	0.099100	-0.168939
C234	C	1.069782	0.599100	0.331061
H235	H	0.544440	0.122261	-0.219582
H236	H	1.044440	0.622261	0.280418
H237	H	0.559989	0.051218	-0.169691
H238	H	1.059989	0.551218	0.330309
H239	H	0.628656	0.102037	-0.169813
H240	H	1.128656	0.602037	0.330187
C241	C	0.406667	0.100385	0.169811
C242	C	0.906667	0.600385	0.669811
H243	H	0.376979	0.061735	0.155738
H244	H	0.876979	0.561735	0.655738
H245	H	0.371066	0.134077	0.202704
H246	H	0.871066	0.634077	0.702704
H247	H	0.454915	0.084530	0.204216
H248	H	0.954915	0.584530	0.704216
