data_functionalizedCrystal
_audit_creation_method	'MofGen! by Chris Wilmer'
_symmetry_space_group_name_H-M	'P1'
_symmetry_Int_Tables_number	1
_symmetry_cell_setting	triclinic
loop_
_symmetry_equiv_pos_as_xyz
  x,y,z
_cell_length_a	13.635800
_cell_length_b	27.923497
_cell_length_c	10.943624
_cell_angle_alpha	84.533156
_cell_angle_beta	108.838799
_cell_angle_gamma	81.035752
loop_
_atom_site_label
_atom_site_type_symbol
_atom_site_fract_x
_atom_site_fract_y
_atom_site_fract_z
V1	V	2.033107	-0.067115	0.403401
O2	O	2.037791	0.003238	0.394847
O3	O	1.997860	-0.133090	0.401484
O4	O	2.022470	-0.066077	0.578955
O5	O	2.013011	-0.064239	0.216148
V6	V	2.274595	-0.058700	0.380902
O7	O	2.164336	-0.085572	0.452755
O8	O	2.368465	-0.040243	0.331548
O9	O	2.198239	0.007275	0.382819
O10	O	2.328610	-0.129053	0.389456
O11	O	2.353389	-0.061576	0.568156
O12	O	2.173629	-0.059738	0.205349
V13	V	2.533107	-0.067115	0.403401
O14	O	2.537791	0.003238	0.394847
O15	O	2.497860	-0.133090	0.401484
O16	O	2.522470	-0.066077	0.578955
O17	O	2.513011	-0.064239	0.216148
V18	V	2.774595	-0.058700	0.380902
O19	O	2.664336	-0.085572	0.452755
O20	O	2.868465	-0.040243	0.331548
O21	O	2.698239	0.007275	0.382819
O22	O	2.828610	-0.129053	0.389456
O23	O	2.853389	-0.061576	0.568156
O24	O	2.673629	-0.059738	0.205349
C25	C	1.917235	-0.149173	0.395337
C26	C	1.929150	-0.203109	0.394940
C27	C	1.975098	-0.530635	0.274014
C28	C	2.019908	-0.733343	0.272450
O29	O	2.001925	-0.753666	0.171624
N30	N	2.053517	-0.765613	0.390579
C31	C	2.075932	-0.747204	0.509107
O32	O	2.105557	-0.779303	0.609547
C33	C	2.031128	-0.544497	0.510670
C34	C	1.997508	-0.512229	0.392533
C35	C	1.941481	-0.498367	0.155887
C36	C	1.930273	-0.447694	0.156278
C37	C	1.952683	-0.429287	0.274797
C38	C	1.986301	-0.461555	0.392924
C39	C	2.053550	-0.526089	0.629197
C40	C	2.042348	-0.475409	0.629577
C41	C	2.008728	-0.443141	0.511440
C42	C	1.997503	-0.392475	0.511835
N43	N	1.963894	-0.360205	0.393707
C44	C	1.941484	-0.378611	0.275188
C45	C	2.099450	-0.853627	0.508278
C46	C	2.110649	-0.904303	0.507887
C47	C	2.054627	-0.890439	0.271230
C48	C	2.043420	-0.839761	0.271622
C49	C	2.065841	-0.821357	0.390149
C50	C	1.917950	-0.272193	0.276019
C51	C	1.906740	-0.221515	0.276421
C52	C	1.962768	-0.235384	0.513078
C53	C	1.973972	-0.286057	0.512676
C54	C	1.951563	-0.304460	0.394137
O55	O	2.015478	-0.372118	0.612609
O56	O	1.911883	-0.346505	0.174764
C57	C	1.986305	-0.581309	0.273622
C58	C	2.019922	-0.613577	0.391749
C59	C	2.042332	-0.595171	0.510268
C60	C	2.031121	-0.664253	0.391359
C61	C	2.008711	-0.682659	0.272840
C62	C	1.975102	-0.650389	0.154712
C63	C	1.963895	-0.599715	0.155103
C64	C	2.075941	-0.627441	0.628397
C65	C	2.087145	-0.678114	0.627995
C66	C	2.064735	-0.696520	0.509476
C67	C	1.948626	-0.063691	0.621717
C68	C	1.980497	-0.063278	0.765238
C69	C	2.110535	0.023356	0.388963
C70	C	2.088239	0.077291	0.389368
C71	C	2.079144	-0.062126	0.162580
C72	C	2.036892	-0.062536	0.019057
C73	C	2.417235	-0.149173	0.395337
C74	C	2.429150	-0.203109	0.394940
C75	C	2.448626	-0.063691	0.621717
C76	C	2.480497	-0.063278	0.765238
C77	C	1.903931	-0.060503	0.842351
C78	C	1.983483	-0.101706	0.948863
C79	C	1.957746	-0.021345	0.914458
C80	C	2.059640	-0.104520	0.869874
C81	C	2.033876	-0.024124	0.835446
C82	C	2.113492	-0.065339	0.941928
C83	C	2.610535	0.023356	0.388963
C84	C	2.588239	0.077291	0.389368
C85	C	2.579144	-0.062126	0.162580
C86	C	2.536892	-0.062536	0.019057
C87	C	2.525899	-0.230911	0.401235
C88	C	2.537114	-0.281591	0.400882
C89	C	2.451575	-0.304466	0.394223
C90	C	2.354819	-0.276661	0.387931
C91	C	2.343608	-0.225982	0.388294
C92	C	2.663984	0.105093	0.383077
C93	C	2.643042	0.155772	0.383436
C94	C	2.546357	0.178647	0.390098
C95	C	2.470606	0.150842	0.396386
C96	C	2.491546	0.100164	0.396017
C97	C	2.403931	-0.060503	0.842351
C98	C	2.483483	-0.101706	0.948863
C99	C	2.457746	-0.021345	0.914458
C100	C	2.559640	-0.104520	0.869874
C101	C	2.533876	-0.024124	0.835446
C102	C	2.613492	-0.065339	0.941928
H103	H	1.879359	-0.195243	0.180215
H104	H	2.462510	-0.134505	0.998227
H105	H	2.554807	0.008677	0.786046
H106	H	2.742716	0.086474	0.377653
H107	H	2.602411	-0.139711	0.849776
H108	H	2.595558	-0.212292	0.406649
H109	H	2.615903	-0.304223	0.406002
H110	H	1.902904	-0.421425	0.060079
H111	H	2.460718	-0.345732	0.393929
H112	H	1.899701	-0.287170	0.179493
H113	H	1.962510	-0.134505	0.998227
H114	H	1.956850	-0.665384	0.058209
H115	H	2.202395	-0.067393	0.985199
H116	H	2.414974	0.013798	0.934775
H117	H	2.094192	-0.612461	0.724911
H118	H	2.054807	0.008677	0.786046
H119	H	1.914974	0.013798	0.934775
H120	H	2.391884	0.169475	0.401808
H121	H	2.529320	0.219913	0.390397
H122	H	2.285179	-0.295294	0.382510
H123	H	2.429864	0.077531	0.401152
H124	H	2.138009	-0.930572	0.604085
H125	H	2.264821	-0.203349	0.383161
H126	H	2.315061	-0.058513	0.798877
H127	H	1.923232	-0.513347	0.059369
H128	H	2.704735	0.178404	0.378317
H129	H	2.702395	-0.067393	0.985199
H130	H	2.036377	-0.905433	0.174727
H131	H	2.016043	-0.813491	0.175424
H132	H	2.102411	-0.139711	0.849776
H133	H	2.080926	-0.552354	0.725397
H134	H	2.117707	-0.838648	0.604803
H135	H	2.001332	-0.312331	0.608872
H136	H	1.981007	-0.220388	0.609572
H137	H	2.060618	-0.460428	0.726100
H138	H	2.114515	-0.704384	0.724203
H139	H	1.815061	-0.058513	0.798877
H140	H	1.936519	-0.573446	0.058904
