data_functionalizedCrystal
_audit_creation_method	'MofGen! by Chris Wilmer'
_symmetry_space_group_name_H-M	'P1'
_symmetry_Int_Tables_number	1
_symmetry_cell_setting	triclinic
loop_
_symmetry_equiv_pos_as_xyz
  x,y,z
_cell_length_a	17.019372
_cell_length_b	17.038272
_cell_length_c	16.776229
_cell_angle_alpha	89.993292
_cell_angle_beta	93.869277
_cell_angle_gamma	87.242864
loop_
_atom_site_label
_atom_site_type_symbol
_atom_site_fract_x
_atom_site_fract_y
_atom_site_fract_z
O1	O	1.053348	0.099573	0.005954
O2	O	1.386681	0.432906	0.339288
O3	O	1.720015	0.766240	0.672621
O4	O	0.824539	0.112280	-0.009740
O5	O	1.157873	0.445614	0.323593
O6	O	1.491206	0.778947	0.656927
O7	O	0.937584	-0.007887	-0.001980
O8	O	1.270917	0.325446	0.331354
O9	O	1.604251	0.658779	0.664687
O10	O	0.940304	0.219741	-0.001806
O11	O	1.273637	0.553074	0.331528
O12	O	1.606970	0.886408	0.664861
O13	O	0.937567	-0.007895	0.130596
O14	O	1.270901	0.325439	0.463929
O15	O	1.604234	0.658772	0.797262
O16	O	0.824523	0.112273	0.122835
O17	O	1.157856	0.445606	0.456169
O18	O	1.491189	0.778940	0.789502
O19	O	1.053332	0.099566	0.138530
O20	O	1.386665	0.432899	0.471863
O21	O	1.719998	0.766232	0.805197
Zn22	Zn	0.938925	0.105918	0.151732
Zn23	Zn	1.272258	0.439251	0.485065
Zn24	Zn	1.605591	0.772585	0.818398
Zn25	Zn	0.938946	0.105928	-0.022942
Zn26	Zn	1.272280	0.439261	0.310391
Zn27	Zn	1.605613	0.772595	0.643725
O28	O	0.940287	0.219733	0.130770
O29	O	1.273620	0.553067	0.464103
O30	O	1.606954	0.886400	0.797436
C31	C	0.795110	0.111796	0.054530
C32	C	1.128443	0.445129	0.387863
C33	C	1.461777	0.778463	0.721196
C34	C	0.707445	0.110354	0.048517
C35	C	1.040778	0.443687	0.381850
C36	C	1.374111	0.777021	0.715183
C37	C	0.211627	0.102173	0.010830
C38	C	0.544961	0.435507	0.344163
C39	C	0.878294	0.768840	0.677496
C40	C	0.293999	0.103528	0.016490
C41	C	0.627332	0.436861	0.349824
C42	C	0.960665	0.770195	0.683157
C43	C	0.335167	0.104207	0.091588
C44	C	0.668500	0.437541	0.424921
C45	C	1.001834	0.770874	0.758255
C46	C	0.293960	0.103524	0.161030
C47	C	0.627293	0.436857	0.494363
C48	C	0.960627	0.770190	0.827696
C49	C	0.211591	0.102163	0.155368
C50	C	0.544924	0.435496	0.488702
C51	C	0.878258	0.768830	0.822035
C52	C	0.583868	0.108310	0.112297
C53	C	0.917202	0.441643	0.445630
C54	C	1.250535	0.774977	0.778964
C55	C	0.666243	0.109673	0.117953
C56	C	0.999577	0.443006	0.451287
C57	C	1.332910	0.776339	0.784620
C58	C	0.666276	0.109676	-0.026587
C59	C	0.999610	0.443009	0.306746
C60	C	1.332943	0.776342	0.640080
C61	C	0.583905	0.108320	-0.032242
C62	C	0.917238	0.441653	0.301092
C63	C	1.250572	0.774987	0.634425
C64	C	0.542706	0.107632	0.037200
C65	C	0.876039	0.440966	0.370533
C66	C	1.209373	0.774299	0.703867
C67	C	0.419363	0.105595	0.097376
C68	C	0.752697	0.438928	0.430709
C69	C	1.086030	0.772261	0.764043
C70	C	0.458511	0.106239	0.031411
C71	C	0.791845	0.439573	0.364745
C72	C	1.125178	0.772906	0.698078
C73	C	0.935102	-0.037017	0.064138
C74	C	1.268435	0.296316	0.397472
C75	C	1.601769	0.629649	0.730805
C76	C	0.927722	-0.123804	0.063632
C77	C	1.261055	0.209530	0.396965
C78	C	1.594388	0.542863	0.730298
C79	C	0.995481	-0.173978	0.068280
C80	C	1.328814	0.159356	0.401614
C81	C	1.662147	0.492689	0.734947
C82	C	0.988541	-0.255522	0.067797
C83	C	1.321875	0.077811	0.401130
C84	C	1.655208	0.411144	0.734463
C85	C	0.913843	-0.286891	0.062670
C86	C	1.247176	0.046443	0.396004
C87	C	1.580509	0.379776	0.729337
C88	C	0.846079	-0.236710	0.058019
C89	C	1.179412	0.096623	0.391352
C90	C	1.512745	0.429957	0.724686
C91	C	0.853019	-0.155167	0.058497
C92	C	1.186352	0.178166	0.391830
C93	C	1.519685	0.511499	0.725164
C94	C	0.889325	-0.532627	0.060978
C95	C	1.222658	-0.199294	0.394311
C96	C	1.555992	0.134040	0.727644
C97	C	0.882390	-0.614176	0.060503
C98	C	1.215724	-0.280843	0.393836
C99	C	1.549057	0.052491	0.727169
C100	C	1.024854	-0.632983	0.070279
C101	C	1.358187	-0.299649	0.403612
C102	C	1.691521	0.033684	0.736946
C103	C	1.031787	-0.551437	0.070761
C104	C	1.365121	-0.218104	0.404094
C105	C	1.698454	0.115229	0.737428
C106	C	0.964023	-0.501264	0.066106
C107	C	1.297357	-0.167931	0.399439
C108	C	1.630690	0.165403	0.732772
C109	C	0.906748	-0.370242	0.062178
C110	C	1.240081	-0.036909	0.395512
C111	C	1.573415	0.296425	0.728845
C112	C	0.971119	-0.417914	0.066592
C113	C	1.304452	-0.084581	0.399925
C114	C	1.637785	0.248752	0.733258
C115	C	1.082761	0.100050	0.074258
C116	C	1.416094	0.433383	0.407592
C117	C	1.749427	0.766717	0.740925
C118	C	1.170426	0.101492	0.080266
C119	C	1.503760	0.434825	0.413599
C120	C	1.837093	0.768159	0.746933
C121	C	0.942769	0.248863	0.064650
C122	C	1.276102	0.582197	0.397983
C123	C	1.609436	0.915530	0.731317
C124	C	0.950149	0.335650	0.065151
C125	C	1.283483	0.668983	0.398484
C126	C	1.616816	1.002316	0.731818
N127	N	0.938915	0.105911	0.270942
N128	N	1.272249	0.439244	0.604276
N129	N	1.605582	0.772578	0.937609
N130	N	0.938961	0.105929	-0.142152
N131	N	1.272295	0.439262	0.191181
N132	N	1.605628	0.772595	0.524514
C133	C	0.988989	0.052723	0.316097
C134	C	1.322323	0.386056	0.649430
C135	C	1.655656	0.719389	0.982764
C136	C	0.988994	0.052722	0.399549
C137	C	1.322327	0.386055	0.732883
C138	C	1.655660	0.719389	1.066216
C139	C	0.938927	0.105914	0.437846
C140	C	1.272261	0.439247	0.771179
C141	C	1.605594	0.772581	1.104513
C142	C	0.888848	0.159105	0.392685
C143	C	1.222181	0.492438	0.726019
C144	C	1.555515	0.825772	1.059352
C145	C	0.888840	0.159101	0.309234
C146	C	1.222174	0.492435	0.642567
C147	C	1.555507	0.825768	0.975901
C148	C	0.888878	0.159120	0.729235
C149	C	1.222211	0.492454	1.062568
C150	C	1.555544	0.825787	1.395901
C151	C	0.888891	0.159122	0.812692
C152	C	1.222224	0.492455	1.146025
C153	C	1.555558	0.825788	1.479359
C154	C	0.989031	0.052741	0.819550
C155	C	1.322364	0.386074	1.152883
C156	C	1.655698	0.719408	1.486217
C157	C	0.989023	0.052737	0.736099
C158	C	1.322357	0.386071	1.069432
C159	C	1.655690	0.719404	1.402765
C160	C	0.938941	0.105925	0.690945
C161	C	1.272274	0.439258	1.024278
C162	C	1.605608	0.772592	1.357612
C163	C	0.938936	0.105924	0.600456
C164	C	1.272269	0.439258	0.933790
C165	C	1.605603	0.772591	1.267123
C166	C	0.938936	0.105919	0.528334
C167	C	1.272269	0.439253	0.861667
C168	C	1.605603	0.772586	1.195000
H169	H	0.452892	0.106149	0.158521
H170	H	0.786225	0.439482	0.491854
H171	H	1.119558	0.772816	0.825188
H172	H	1.056308	-0.148444	0.072460
H173	H	1.389642	0.184889	0.405793
H174	H	1.722975	0.518222	0.739126
F175	F	0.835580	0.215728	0.681185
F176	F	1.168913	0.549062	1.014519
F177	F	1.502246	0.882395	1.347852
H178	H	1.043718	-0.296371	0.071584
H179	H	1.377052	0.036962	0.404917
H180	H	1.710385	0.370295	0.738251
H181	H	0.699760	0.110231	0.179110
H182	H	1.033093	0.443565	0.512443
H183	H	1.366427	0.776898	0.845777
F184	F	1.042331	-0.003870	0.867612
F185	F	1.375664	0.329464	1.200945
F186	F	1.708998	0.662797	1.534278
H187	H	1.029762	0.009411	0.284922
H188	H	1.363096	0.342744	0.618255
H189	H	1.696429	0.676077	0.951589
H190	H	0.848064	0.202412	0.272470
H191	H	1.181397	0.535745	0.605803
H192	H	1.514731	0.869079	0.939136
F193	F	0.540097	0.107598	-0.112171
F194	F	0.873430	0.440931	0.221162
F195	F	1.206763	0.774264	0.554495
H196	H	0.821559	-0.639713	0.056341
H197	H	1.154892	-0.306379	0.389674
H198	H	1.488225	0.026954	0.723007
F199	F	0.167820	0.101456	-0.069101
F200	F	0.501153	0.434789	0.264233
F201	F	0.834487	0.768123	0.597566
F202	F	0.337845	0.104250	-0.057414
F203	F	0.671178	0.437583	0.275919
F204	F	1.004511	0.770916	0.609253
F205	F	1.111292	-0.518059	0.076197
F206	F	1.444625	-0.184726	0.409530
F207	F	1.777959	0.148607	0.742864
F208	F	0.817204	-0.479239	0.056021
F209	F	1.150537	-0.145905	0.389354
F210	F	1.483870	0.187428	0.722687
F211	F	0.540031	0.107594	0.186204
F212	F	0.873364	0.440928	0.519537
F213	F	1.206697	0.774261	0.852871
H214	H	1.031938	-0.392371	0.070748
H215	H	1.365271	-0.059037	0.404081
H216	H	1.698605	0.274296	0.737415
H217	H	1.029767	0.009411	0.436314
H218	H	1.363100	0.342745	0.769647
H219	H	1.696434	0.676078	1.102981
F220	F	0.337777	0.104244	0.240955
F221	F	0.671110	0.437577	0.574288
F222	F	1.004443	0.770911	0.907622
H223	H	0.848079	0.202413	0.423871
H224	H	1.181412	0.535746	0.757204
H225	H	1.514746	0.869079	1.090538
H226	H	1.080023	-0.673842	0.074068
H227	H	1.413357	-0.340509	0.407401
H228	H	1.746690	-0.007176	0.740734
F229	F	0.780900	-0.101768	0.053547
F230	F	1.114233	0.231565	0.386880
F231	F	1.447567	0.564899	0.720213
F232	F	0.710130	0.110403	-0.100486
F233	F	1.043463	0.443736	0.232847
F234	F	1.376796	0.777070	0.566180
H235	H	1.029794	0.009426	0.704921
H236	H	1.363128	0.342759	1.038254
H237	H	1.696461	0.676093	1.371587
F238	F	0.835600	0.215738	0.853448
F239	F	1.168934	0.549072	1.186782
F240	F	1.502267	0.882405	1.520115
H241	H	0.178045	0.101617	0.211911
H242	H	0.511379	0.434950	0.545245
H243	H	0.844712	0.768283	0.878578
H244	H	0.785257	-0.262257	0.053840
H245	H	1.118590	0.071077	0.387173
H246	H	1.451924	0.404410	0.720507
H247	H	0.845928	-0.395791	0.058006
H248	H	1.179261	-0.062458	0.391340
H249	H	1.512594	0.270875	0.724673
F250	F	0.414696	0.105506	-0.048511
F251	F	0.748030	0.438839	0.284823
F252	F	1.081363	0.772172	0.618156
