data_functionalizedCrystal
_audit_creation_method	'MofGen! by Chris Wilmer'
_symmetry_space_group_name_H-M	'P1'
_symmetry_Int_Tables_number	1
_symmetry_cell_setting	triclinic
loop_
_symmetry_equiv_pos_as_xyz
  x,y,z
_cell_length_a	27.440280
_cell_length_b	14.446369
_cell_length_c	27.440280
_cell_angle_alpha	60.003865
_cell_angle_beta	90.008003
_cell_angle_gamma	59.999534
loop_
_atom_site_label
_atom_site_type_symbol
_atom_site_fract_x
_atom_site_fract_y
_atom_site_fract_z
Zr1	Zr	0.469505	1.013123	-0.063915
O2	O	0.391686	1.206242	-0.141740
O3	O	0.493360	0.820004	-0.040055
O4	O	0.493360	1.013100	-0.141722
O5	O	0.391688	1.013163	0.040121
O6	O	0.573563	1.013083	-0.141712
O7	O	0.391687	1.013146	-0.040072
O8	O	0.573564	0.667668	0.040152
O9	O	0.391687	1.358578	-0.141743
O10	O	0.563390	0.899423	-0.029875
O11	O	0.503536	0.899450	0.029965
O12	O	0.503535	1.126796	-0.089735
O13	O	0.443682	1.126823	-0.029895
Zr14	Zr	0.597421	1.013123	0.064000
Zr15	Zr	0.597419	1.013095	-0.063899
Zr16	Zr	0.469507	1.013151	0.063984
Zr17	Zr	0.469506	1.256081	-0.063921
Zr18	Zr	0.597420	0.770165	0.064006
O19	O	0.573566	1.206242	0.040139
O20	O	0.573564	1.206202	-0.141717
O21	O	0.391689	1.206283	0.040117
O22	O	0.675241	0.820004	0.141824
O23	O	0.675238	0.819963	-0.040032
O24	O	0.493363	0.820044	0.141801
O25	O	0.675239	1.013083	-0.040037
O26	O	0.573567	1.013146	0.141807
O27	O	0.493364	1.013163	0.141797
O28	O	0.675240	1.013100	0.040157
O29	O	0.493361	1.358555	-0.141731
O30	O	0.573565	0.667691	0.141815
O31	O	0.675240	0.667668	0.141828
O32	O	0.675238	0.667645	0.040165
O33	O	0.391688	1.358601	-0.040080
O34	O	0.493363	1.358578	-0.040068
O35	O	0.563391	0.899450	0.089820
O36	O	0.623245	0.899423	0.029980
O37	O	0.563391	1.126796	-0.029880
O38	O	0.503537	1.126823	0.029960
C39	C	0.533462	0.709220	0.000050
C40	C	0.533461	0.606078	0.000052
C41	C	0.495893	0.459085	0.037966
C42	C	0.495688	0.566705	0.037813
C43	C	0.505922	0.655065	-0.064986
C44	C	0.505640	0.547833	-0.064789
C45	C	0.598596	0.372611	0.026617
C46	C	0.598500	0.478762	0.027944
C47	C	0.373462	1.013159	0.000022
C48	C	0.319159	1.013171	0.000016
C49	C	0.013705	0.894415	0.031305
C50	C	-0.037314	0.894408	0.031311
O51	O	-0.037130	0.793470	0.057903
N52	N	-0.094074	1.013093	0.000063
C53	C	-0.099815	1.131793	-0.031186
O54	O	-0.152778	1.232743	-0.057763
C55	C	-0.048797	1.131799	-0.031187
C56	C	0.007963	1.013106	0.000057
C57	C	0.070462	0.775732	0.062548
C58	C	0.121476	0.775740	0.062541
C59	C	0.115734	0.894431	0.031293
C60	C	0.058978	1.013114	0.000050
C61	C	-0.054538	1.250497	-0.062433
C62	C	-0.003514	1.250493	-0.062431
C63	C	0.053245	1.131800	-0.031187
C64	C	0.104250	1.131812	-0.031204
N65	N	0.161010	1.013127	0.000043
C66	C	0.166752	0.894436	0.031291
C67	C	-0.206953	1.131771	-0.031180
C68	C	-0.257970	1.131767	-0.031182
C69	C	-0.195466	0.894381	0.031316
C70	C	-0.144448	0.894387	0.031314
C71	C	-0.150193	1.013086	0.000067
C72	C	0.273885	0.894462	0.031275
C73	C	0.324901	0.894480	0.031264
C74	C	0.262393	1.131864	-0.031231
C75	C	0.211380	1.131847	-0.031222
C76	C	0.217130	1.013135	0.000035
O77	O	0.104113	1.232699	-0.057781
O78	O	0.219718	0.793503	0.057870
C79	C	0.693464	1.013087	0.000062
C80	C	0.747767	1.013075	0.000069
C81	C	0.533461	1.013087	-0.159940
C82	C	0.533460	1.013075	-0.214237
C83	C	0.533465	1.317026	0.000035
C84	C	0.533465	1.420168	0.000033
C85	C	0.502225	1.131831	-0.582217
C86	C	0.502227	1.131838	-0.633240
O87	O	0.475674	1.232776	-0.686201
N88	N	0.533469	1.013153	-0.627510
C89	C	0.564717	0.894453	-0.570754
O90	O	0.591291	0.793503	-0.570566
C91	C	0.564718	0.894447	-0.519733
C92	C	0.533469	1.013140	-0.525467
C93	C	0.470979	1.250514	-0.587949
C94	C	0.470977	1.250506	-0.536930
C95	C	0.502220	1.131815	-0.480180
C96	C	0.533466	1.013132	-0.474448
C97	C	0.595969	0.775749	-0.462979
C98	C	0.595968	0.775753	-0.411957
C99	C	0.564718	0.894446	-0.417691
C100	C	0.564707	0.894434	-0.366679
N101	N	0.533465	1.013119	-0.372408
C102	C	0.502222	1.131810	-0.429159
C103	C	0.564712	0.894475	-0.677904
C104	C	0.564708	0.894479	-0.728924
C105	C	0.502219	1.131864	-0.791406
C106	C	0.502220	1.131859	-0.740385
C107	C	0.533470	1.013160	-0.683633
C108	C	0.502218	1.131784	-0.322013
C109	C	0.502217	1.131766	-0.270987
C110	C	0.564708	0.894381	-0.208510
C111	C	0.564707	0.894399	-0.259531
C112	C	0.533461	1.013111	-0.316284
O113	O	0.591249	0.793547	-0.313699
O114	O	0.475658	1.232743	-0.429336
C115	C	0.533466	1.013159	0.160025
C116	C	0.533466	1.013171	0.214321
C117	C	0.693463	0.709184	0.000070
C118	C	0.747765	0.606030	0.000079
C119	C	0.533464	0.709255	0.160032
C120	C	0.533464	0.606125	0.214331
C121	C	0.693465	0.709220	0.160052
C122	C	0.747769	0.606078	0.214358
C123	C	0.373461	1.317026	-0.159967
C124	C	0.319158	1.420168	-0.214273
C125	C	0.373464	1.317062	0.000015
C126	C	0.319161	1.420216	0.000006
C127	C	0.533462	1.316991	-0.159947
C128	C	0.533462	1.420121	-0.214246
C129	C	0.742023	0.557588	-0.031166
C130	C	0.793041	0.460677	-0.031169
C131	C	0.849801	0.412203	0.000076
C132	C	0.855543	0.460655	0.031322
C133	C	0.804525	0.557571	0.031321
C134	C	0.564708	0.557694	0.271080
C135	C	0.564706	0.460807	0.322104
C136	C	0.533464	0.412345	0.316379
C137	C	0.502216	0.460785	0.259625
C138	C	0.502215	0.557678	0.208601
C139	C	0.804518	0.557627	0.208625
C140	C	0.855547	0.460728	0.259646
C141	C	0.849824	0.412274	0.316400
C142	C	0.793069	0.460734	0.322132
C143	C	0.742041	0.557638	0.271111
C144	C	0.262408	1.468631	-0.208540
C145	C	0.211380	1.565560	-0.259561
C146	C	0.217102	1.614019	-0.316315
C147	C	0.273858	1.565553	-0.322047
C148	C	0.324885	1.468632	-0.271027
C149	C	0.324904	1.468668	0.031245
C150	C	0.273886	1.565606	0.031234
C151	C	0.217126	1.614083	-0.000013
C152	C	0.211384	1.565626	-0.031256
C153	C	0.262401	1.468697	-0.031248
C154	C	0.564711	1.468552	-0.208502
C155	C	0.564722	1.565440	-0.259517
C156	C	0.533481	1.613903	-0.316276
C157	C	0.502231	1.565462	-0.322019
C158	C	0.502224	1.468569	-0.271004
H159	H	0.514268	0.370223	0.085977
H160	H	-0.304183	1.228419	-0.056632
H161	H	0.590169	1.604871	-0.254829
H162	H	0.476795	1.604935	-0.368238
O163	O	0.256199	1.416437	-0.064940
H164	H	0.277941	1.435023	-0.099474
H165	H	0.621416	0.679092	-0.365748
H166	H	0.448134	0.494854	0.019690
O167	O	0.162060	1.718554	-0.371340
H168	H	0.175568	1.744123	-0.411771
O169	O	0.533483	1.718426	-0.371297
H170	H	0.560456	1.743967	-0.357761
O171	O	0.904866	0.307744	0.371426
H172	H	0.904833	0.219442	0.398366
O173	O	0.468575	0.609702	0.147415
H174	H	0.420551	0.653816	0.142184
H175	H	0.788418	0.421269	0.368348
O176	O	0.629677	0.647741	-0.456798
H177	H	0.664202	0.642095	-0.478550
O178	O	0.598450	0.766367	-0.147297
H179	H	0.593217	0.786314	-0.112786
H180	H	0.590151	1.429109	-0.162291
O181	O	0.680832	0.609866	0.277298
H182	H	0.685432	0.559871	0.325335
H183	H	0.901755	0.421281	0.254968
H184	H	0.590150	0.597141	0.275753
H185	H	0.257738	1.429181	-0.162333
H186	H	0.165172	1.605005	-0.254882
O187	O	0.598408	0.766386	-0.253353
H188	H	0.620135	0.683853	-0.205318
H189	H	0.257727	1.228500	-0.056675
O190	O	0.598422	0.408549	0.383314
H191	H	0.620156	0.458509	0.378717
O192	O	0.280027	1.617814	-0.383262
H193	H	0.235007	1.693337	-0.417771
H194	H	0.788354	0.421239	-0.056613
H195	H	0.476779	0.421313	0.254972
O196	O	0.162104	1.718625	-0.000014
H197	H	0.121667	1.744208	-0.026993
H198	H	0.901764	0.421174	0.056761
H199	H	0.628853	0.500252	0.003190
H200	H	0.445533	1.347158	-0.541606
O201	O	0.386121	1.416412	0.064939
H202	H	0.381534	1.466418	0.086648
H203	H	0.533469	0.333448	0.357930
H204	H	0.621605	0.278870	0.073772
O205	O	0.468524	1.259883	-0.852623
H206	H	0.446792	1.342421	-0.848043
H207	H	0.476774	1.429147	-0.275690
O208	O	0.432054	0.684367	0.013383
H209	H	0.401307	0.664537	0.001627
H210	H	-0.098235	0.797737	0.056761
O211	O	0.520148	0.518110	0.101249
H212	H	0.532227	0.417355	0.132313
H213	H	0.619074	0.439167	0.075858
H214	H	-0.190798	0.797737	0.056758
O215	O	0.386099	1.416346	-0.277202
H216	H	0.391286	1.372186	-0.301971
H217	H	0.457712	0.588537	-0.086071
H218	H	0.809209	0.597000	0.056768
H219	H	0.809189	0.597064	0.162417
H220	H	0.165163	1.605111	-0.056697
O221	O	0.539537	0.518720	-0.104268
H222	H	0.556055	0.581231	-0.123419
O223	O	0.540417	0.693211	-0.104054
H224	H	0.577643	0.677624	-0.077466
O225	O	0.386121	0.766454	0.064962
H226	H	0.410871	0.760783	0.099486
O227	O	0.280086	1.617838	0.064944
H228	H	0.304876	1.661948	0.046905
O229	O	0.442924	0.776921	-0.093254
H230	H	0.431130	0.802858	-0.061117
H231	H	0.626722	0.346624	-0.000881
H232	H	0.278576	0.797795	0.056728
O233	O	0.182693	0.647721	0.096244
H234	H	0.178105	0.565199	0.117975
H235	H	0.695810	0.597054	-0.056617
O236	O	0.076661	0.647705	0.096246
H237	H	0.124703	0.565192	0.117962
H238	H	-0.100746	1.347150	-0.087875
O239	O	-0.213152	1.259804	-0.064894
H240	H	-0.261193	1.342322	-0.086625
H241	H	-0.008199	1.347154	-0.087869
O242	O	0.150156	1.259856	-0.064925
H243	H	0.144967	1.316775	-0.046873
O244	O	0.468512	1.259789	-0.277171
H245	H	0.446792	1.342319	-0.325207
O246	O	0.437275	1.378541	-0.649157
H247	H	0.415548	1.461054	-0.644559
O248	O	0.468514	1.259819	-0.383221
H249	H	0.446784	1.342335	-0.378625
H250	H	0.476774	1.228509	-0.745059
O251	O	0.598424	0.766462	-0.722739
H252	H	0.620157	0.683935	-0.674702
O253	O	0.598408	0.766442	-0.616692
H254	H	0.620125	0.683924	-0.621286
O255	O	0.904826	0.307662	0.000080
H256	H	0.891291	0.282118	-0.026892
