data_functionalizedCrystal
_audit_creation_method	'MofGen! by Chris Wilmer'
_symmetry_space_group_name_H-M	'P1'
_symmetry_Int_Tables_number	1
_symmetry_cell_setting	triclinic
loop_
_symmetry_equiv_pos_as_xyz
  x,y,z
_cell_length_a	9.730223
_cell_length_b	8.559649
_cell_length_c	8.559649
_cell_angle_alpha	110.221336
_cell_angle_beta	89.998610
_cell_angle_gamma	90.005189
loop_
_atom_site_label
_atom_site_type_symbol
_atom_site_fract_x
_atom_site_fract_y
_atom_site_fract_z
O1	O	-0.114268	-2.126885	-0.055040
O2	O	-0.114274	-1.651400	0.028741
O3	O	-0.114269	-1.931033	-0.250892
O4	O	-0.114273	-1.847252	0.224593
O5	O	0.114311	-1.931005	-0.250887
O6	O	0.114306	-1.651372	0.028746
O7	O	0.114312	-2.126857	-0.055035
Zn8	Zn	0.150601	-1.889110	-0.013143
Zn9	Zn	-0.150563	-1.889147	-0.013150
O10	O	0.114307	-1.847224	0.224598
C11	C	0.000016	-1.591077	0.035093
C12	C	0.000013	-1.411378	0.053992
N13	N	0.356137	-1.889097	-0.013141
N14	N	-0.356099	-1.889175	-0.013167
C15	C	0.571940	-1.975458	0.073214
C16	C	0.428057	-1.975415	0.073232
C17	C	0.428108	-1.802803	-0.099524
C18	C	0.571989	-1.802838	-0.099532
C19	C	0.643851	-2.061796	0.159578
C20	C	0.571890	-2.148088	0.245965
C21	C	0.428007	-2.148044	0.245983
C22	C	0.356086	-2.061708	0.159615
C23	C	0.000018	-1.937369	-0.311198
C24	C	0.000011	-1.956268	-0.490898
C25	C	0.000019	-2.187180	-0.061387
C26	C	0.000013	-2.366879	-0.080286
C27	C	0.000017	-1.840889	0.284904
C28	C	0.000015	-1.821990	0.464604
H29	H	0.761008	-2.061846	0.159569
H30	H	0.630458	-2.218366	0.316295
F31	F	0.351425	-2.239854	0.337948
H32	H	0.000018	-1.692570	-0.436018
F33	F	-0.000000	-1.281477	0.223166
H34	H	0.000007	-1.466258	-0.209705
H35	H	0.000023	-2.085696	-0.590286
H36	H	0.369538	-1.732514	-0.169842
F37	F	0.202951	-2.061647	0.159659
H38	H	0.630581	-1.732574	-0.169866
