data_functionalizedCrystal
_audit_creation_method	'MofGen! by Chris Wilmer'
_symmetry_space_group_name_H-M	'P1'
_symmetry_Int_Tables_number	1
_symmetry_cell_setting	triclinic
loop_
_symmetry_equiv_pos_as_xyz
  x,y,z
_cell_length_a	12.811445
_cell_length_b	11.792254
_cell_length_c	11.295483
_cell_angle_alpha	94.123239
_cell_angle_beta	80.460739
_cell_angle_gamma	84.121730
loop_
_atom_site_label
_atom_site_type_symbol
_atom_site_fract_x
_atom_site_fract_y
_atom_site_fract_z
O1	O	1.411391	0.133589	-0.251431
O2	O	1.744724	0.466922	0.081903
O3	O	2.078058	0.800255	0.415236
O4	O	1.103543	0.152758	-0.218191
O5	O	1.436877	0.486091	0.115142
O6	O	1.770210	0.819425	0.448476
O7	O	1.264930	-0.022072	-0.235608
O8	O	1.598264	0.311262	0.097725
O9	O	1.931597	0.644595	0.431058
O10	O	1.250004	0.308418	-0.234014
O11	O	1.583337	0.641752	0.099320
O12	O	1.916671	0.975085	0.432653
O13	O	1.250755	-0.006740	-0.036028
O14	O	1.584088	0.326594	0.297306
O15	O	1.917422	0.659927	0.630639
O16	O	1.089368	0.168090	-0.018611
O17	O	1.422702	0.501424	0.314723
O18	O	1.756035	0.834757	0.648056
O19	O	1.397216	0.148921	-0.051850
O20	O	1.730549	0.482254	0.281483
O21	O	2.063882	0.815587	0.614816
Cu22	Cu	1.241998	0.159905	-0.017007
Cu23	Cu	1.575331	0.493239	0.316326
Cu24	Cu	1.908664	0.826572	0.649660
Cu25	Cu	1.258761	0.141773	-0.253034
Cu26	Cu	1.592095	0.475107	0.080299
Cu27	Cu	1.925428	0.808440	0.413632
O28	O	1.235829	0.323750	-0.034433
O29	O	1.569162	0.657084	0.298900
O30	O	1.902496	0.990417	0.632234
C31	C	1.057045	0.159819	-0.114145
C32	C	1.390378	0.493152	0.219188
C33	C	1.723711	0.826485	0.552521
C34	C	0.939611	0.158001	-0.101465
C35	C	1.272944	0.491334	0.231868
C36	C	1.606278	0.824667	0.565201
C37	C	0.734391	0.137890	-0.295243
C38	C	1.067725	0.471223	0.038090
C39	C	1.401058	0.804556	0.371424
C40	C	0.624052	0.136182	-0.283334
C41	C	0.957386	0.469515	0.049999
C42	C	1.290719	0.802848	0.383332
C43	C	0.608591	0.152885	-0.065740
C44	C	0.941925	0.486218	0.267593
C45	C	1.275258	0.819552	0.600927
C46	C	0.718930	0.154593	-0.077649
C47	C	1.052264	0.487926	0.255685
C48	C	1.385597	0.821260	0.589018
C49	C	0.781827	0.147093	-0.192404
C50	C	1.115160	0.480426	0.140929
C51	C	1.448494	0.813760	0.474263
C52	C	0.892169	0.148793	-0.204312
C53	C	1.225502	0.482126	0.129021
C54	C	1.558835	0.815460	0.462355
C55	C	0.876705	0.165504	0.013282
C56	C	1.210038	0.498838	0.346615
C57	C	1.543371	0.832171	0.679948
C58	C	0.766366	0.163796	0.025190
C59	C	1.099699	0.497130	0.358524
C60	C	1.433032	0.830463	0.691857
C61	C	1.256902	-0.056687	-0.135717
C62	C	1.590236	0.276647	0.197616
C63	C	1.923569	0.609980	0.530950
C64	C	1.254088	-0.182671	-0.135414
C65	C	1.587421	0.150662	0.197919
C66	C	1.920755	0.483996	0.531253
C67	C	1.251801	-0.284985	-0.135171
C68	C	1.585135	0.048349	0.198162
C69	C	1.918468	0.381682	0.531495
C70	C	1.248943	-0.413343	-0.134874
C71	C	1.582276	-0.080010	0.198460
C72	C	1.915609	0.253324	0.531793
C73	C	1.443715	0.141860	-0.155899
C74	C	1.777048	0.475193	0.177435
C75	C	2.110382	0.808527	0.510768
C76	C	1.561149	0.143677	-0.168586
C77	C	1.894482	0.477011	0.164747
C78	C	2.227816	0.810344	0.498080
C79	C	1.243857	0.358365	-0.134327
C80	C	1.577190	0.691699	0.199006
C81	C	1.910524	1.025032	0.532340
C82	C	1.246672	0.484349	-0.134638
C83	C	1.580005	0.817682	0.198696
C84	C	1.913339	1.151016	0.532029
N85	N	1.230215	0.172658	0.149001
N86	N	1.563548	0.505991	0.482334
N87	N	1.896882	0.839324	0.815668
N88	N	1.270553	0.129012	-0.419043
N89	N	1.603886	0.462345	-0.085710
N90	N	1.937219	0.795679	0.247624
C91	C	1.355373	0.037150	0.384783
C92	C	1.688706	0.370484	0.718116
C93	C	2.022039	0.703817	1.051450
C94	C	1.346476	0.046795	0.510407
C95	C	1.679809	0.380129	0.843740
C96	C	2.013142	0.713462	1.177074
C97	C	1.203520	0.201587	0.525875
C98	C	1.536853	0.534920	0.859208
C99	C	1.870186	0.868253	1.192542
C100	C	1.212417	0.191942	0.400251
C101	C	1.545750	0.525275	0.733585
C102	C	1.879083	0.858608	1.066918
C103	C	1.288347	0.109722	0.329709
C104	C	1.621680	0.443055	0.663043
C105	C	1.955013	0.776389	0.996376
C106	C	1.297248	0.100083	0.204083
C107	C	1.630581	0.433416	0.537416
C108	C	1.963915	0.766750	0.870749
C109	C	1.154287	0.254868	0.219554
C110	C	1.487621	0.588202	0.552887
C111	C	1.820954	0.921535	0.886220
C112	C	1.145391	0.264513	0.345177
C113	C	1.478724	0.597847	0.678511
C114	C	1.812057	0.931180	1.011844
H115	H	0.585435	0.128690	-0.367077
H116	H	0.918768	0.462023	-0.033743
H117	H	1.252102	0.795357	0.299590
H118	H	1.401054	-0.012301	0.555244
H119	H	1.734387	0.321032	0.888577
H120	H	2.067720	0.654366	1.221911
H121	H	1.083567	0.331453	0.402627
H122	H	1.416900	0.664786	0.735961
H123	H	1.750233	0.998119	1.069294
H124	H	0.785604	0.131777	-0.388682
H125	H	1.118937	0.465111	-0.055348
H126	H	1.452270	0.798444	0.277985
C127	C	1.380769	0.009637	0.126489
C128	C	1.714102	0.342971	0.459822
C129	C	2.047436	0.676304	0.793155
N130	N	1.443676	-0.058493	0.068048
N131	N	1.777009	0.274841	0.401381
N132	N	2.110343	0.608174	0.734715
C133	C	0.961353	0.140545	-0.330544
C134	C	1.294687	0.473879	0.002789
C135	C	1.628020	0.807212	0.336122
N136	N	1.013460	0.134337	-0.425626
N137	N	1.346793	0.467670	-0.092293
N138	N	1.680127	0.801004	0.241041
H139	H	1.417205	-0.029789	0.327346
H140	H	1.750538	0.303544	0.660679
H141	H	2.083872	0.636878	0.994012
C142	C	0.928895	0.175607	0.126412
C143	C	1.262228	0.508940	0.459745
C144	C	1.595561	0.842274	0.793078
N145	N	0.968207	0.183206	0.211619
N146	N	1.301540	0.516539	0.544952
N147	N	1.634873	0.849872	0.878286
H148	H	0.557361	0.159001	0.027689
H149	H	0.890694	0.492334	0.361022
H150	H	1.224028	0.825668	0.694355
H151	H	1.141692	0.268521	0.583327
H152	H	1.475025	0.601854	0.916661
H153	H	1.808359	0.935187	1.249994
H154	H	0.715140	0.169906	0.118621
H155	H	1.048473	0.503240	0.451954
H156	H	1.381807	0.836573	0.785288
H157	H	1.099713	0.313964	0.174699
H158	H	1.433047	0.647298	0.508032
H159	H	1.766380	0.980631	0.841365
