data_functionalizedCrystal
_audit_creation_method	'MofGen! by Chris Wilmer'
_symmetry_space_group_name_H-M	'P1'
_symmetry_Int_Tables_number	1
_symmetry_cell_setting	triclinic
loop_
_symmetry_equiv_pos_as_xyz
  x,y,z
_cell_length_a	16.120490
_cell_length_b	12.594516
_cell_length_c	16.120704
_cell_angle_alpha	92.898296
_cell_angle_beta	89.858135
_cell_angle_gamma	92.880665
loop_
_atom_site_label
_atom_site_type_symbol
_atom_site_fract_x
_atom_site_fract_y
_atom_site_fract_z
Zn1	Zn	1.247318	0.539579	0.534563
Zn2	Zn	1.580651	0.872913	0.867896
Zn3	Zn	1.913984	1.206246	1.201229
Zn4	Zn	1.254287	0.708956	0.395516
Zn5	Zn	1.587621	1.042290	0.728849
Zn6	Zn	1.920954	1.375623	1.062182
Zn7	Zn	1.115336	0.521516	0.388484
Zn8	Zn	1.448670	0.854849	0.721817
Zn9	Zn	1.782003	1.188183	1.055150
Zn10	Zn	1.108217	0.708028	0.527487
Zn11	Zn	1.441551	1.041361	0.860821
Zn12	Zn	1.774884	1.374694	1.194154
O13	O	1.181290	0.619520	0.461512
O14	O	1.514623	0.952853	0.794846
O15	O	1.847956	1.286186	1.128179
O16	O	1.364608	0.569996	0.522021
O17	O	1.697941	0.903329	0.855355
O18	O	2.031274	1.236663	1.188688
O19	O	1.241752	0.676921	0.278217
O20	O	1.575085	1.010254	0.611551
O21	O	1.908418	1.343588	0.944884
O22	O	1.132907	0.374972	0.407879
O23	O	1.466240	0.708305	0.741213
O24	O	1.799573	1.041638	1.074546
O25	O	1.369728	0.694436	0.419864
O26	O	1.703062	1.027770	0.753198
O27	O	2.036395	1.361103	1.086531
O28	O	1.229872	0.388243	0.515203
O29	O	1.563206	0.721576	0.848536
O30	O	1.896539	1.054909	1.181870
O31	O	1.139665	0.539210	0.273051
O32	O	1.472998	0.872543	0.606384
O33	O	1.806332	1.205876	0.939718
O34	O	0.998027	0.538309	0.401019
O35	O	1.331360	0.871642	0.734352
O36	O	1.664693	1.204976	1.067686
O37	O	1.120773	0.692853	0.644791
O38	O	1.454107	1.026187	0.978125
O39	O	1.787440	1.359520	1.311458
O40	O	0.992796	0.675338	0.503144
O41	O	1.326130	1.008671	0.836478
O42	O	1.659463	1.342005	1.169811
O43	O	1.222969	0.569095	0.649989
O44	O	1.556303	0.902429	0.983323
O45	O	1.889636	1.235762	1.316656
O46	O	1.234849	0.857774	0.413004
O47	O	1.568182	1.191107	0.746337
O48	O	1.901515	1.524440	1.079670
O49	O	1.127532	0.857091	0.509963
O50	O	1.460865	1.190425	0.843296
O51	O	1.794198	1.523758	1.176630
C52	C	0.965239	0.604763	0.450551
C53	C	1.298573	0.938097	0.783885
C54	C	1.631906	1.271430	1.117218
C55	C	0.872811	0.598477	0.445882
C56	C	1.206144	0.931811	0.779215
C57	C	1.539478	1.265144	1.112549
C58	C	0.659839	0.652118	0.485735
C59	C	0.993172	0.985451	0.819068
C60	C	1.326505	1.318785	1.152401
C61	C	0.703589	0.587011	0.437356
C62	C	1.036922	0.920344	0.770689
C63	C	1.370255	1.253677	1.104022
C64	C	0.797753	0.593393	0.442101
C65	C	1.131086	0.926726	0.775435
C66	C	1.464419	1.260059	1.108768
C67	C	0.565666	0.645737	0.480990
C68	C	0.898999	0.979071	0.814324
C69	C	1.232333	1.312404	1.147657
C70	C	1.181195	0.896054	0.461498
C71	C	1.514529	1.229387	0.794831
C72	C	1.847862	1.562720	1.128165
C73	C	1.181230	1.014363	0.461524
C74	C	1.514563	1.347696	0.794857
C75	C	1.847896	1.681030	1.128190
C76	C	1.122847	1.083280	0.514220
C77	C	1.456180	1.416614	0.847553
C78	C	1.789513	1.749947	1.180886
C79	C	1.106440	1.148056	0.437316
C80	C	1.439773	1.481389	0.770649
C81	C	1.773106	1.814723	1.103982
C82	C	1.197681	1.160390	0.538442
C83	C	1.531015	1.493724	0.871775
C84	C	1.864348	1.827057	1.205108
C85	C	1.164785	1.077575	0.384578
C86	C	1.498118	1.410909	0.717911
C87	C	1.831452	1.744242	1.051244
C88	C	1.256059	1.089909	0.485756
C89	C	1.589393	1.423242	0.819090
C90	C	1.922726	1.756576	1.152423
C91	C	1.239684	1.154651	0.408802
C92	C	1.573017	1.487985	0.742135
C93	C	1.906350	1.821318	1.075468
C94	C	1.398184	0.634335	0.472516
C95	C	1.731517	0.967668	0.805850
C96	C	2.064850	1.301001	1.139183
C97	C	1.490611	0.640648	0.477206
C98	C	1.823944	0.973981	0.810539
C99	C	2.157278	1.307314	1.143872
C100	C	1.170300	0.632886	0.678406
C101	C	1.503633	0.966219	1.011739
C102	C	1.836966	1.299552	1.345073
C103	C	1.165616	0.638581	0.770833
C104	C	1.498950	0.971915	1.104167
C105	C	1.832283	1.305248	1.437500
C106	C	1.181370	1.341906	0.461543
C107	C	1.514703	1.675239	0.794876
C108	C	1.848036	2.008573	1.128210
C109	C	1.181310	1.223597	0.461548
C110	C	1.514644	1.556931	0.794881
C111	C	1.847977	1.890264	1.128215
C112	C	1.205517	0.590219	0.983811
C113	C	1.538850	0.923553	1.317145
C114	C	1.872183	1.256886	1.650478
C115	C	1.157038	0.648934	0.940052
C116	C	1.490371	0.982268	1.273386
C117	C	1.823705	1.315601	1.606719
C118	C	1.161813	0.643172	0.845890
C119	C	1.495146	0.976506	1.179224
C120	C	1.828479	1.309839	1.512557
C121	C	1.200743	0.595980	1.077982
C122	C	1.534076	0.929313	1.411315
C123	C	1.867410	1.262647	1.744649
C124	C	1.192236	0.606240	1.245462
C125	C	1.525570	0.939573	1.578795
C126	C	1.858903	1.272907	1.912129
C127	C	1.196936	0.600575	1.153036
C128	C	1.530269	0.933909	1.486369
C129	C	1.863602	1.267242	1.819702
H130	H	0.670324	0.526477	0.392373
H131	H	1.003658	0.859811	0.725707
H132	H	1.336991	1.193144	1.059040
F133	F	1.146546	1.030457	0.299538
F134	F	1.479879	1.363790	0.632871
F135	F	1.813212	1.697124	0.966204
H136	H	0.693101	0.712647	0.530713
H137	H	1.026434	1.045981	0.864046
H138	H	1.359768	1.379314	1.197379
F139	F	1.058227	1.042320	0.572375
F140	F	1.391561	1.375654	0.905708
F141	F	1.724894	1.708987	1.239041
F142	F	1.023773	1.181714	0.410531
F143	F	1.357106	1.515047	0.743865
F144	F	1.690439	1.848381	1.077198
F145	F	1.264439	0.518852	0.940347
F146	F	1.597773	0.852186	1.273680
F147	F	1.931106	1.185519	1.607014
F148	F	1.098103	0.720296	0.983517
F149	F	1.431436	1.053629	1.316850
F150	F	1.764770	1.386963	1.650183
H151	H	1.289094	1.185781	0.364195
H152	H	1.622427	1.519114	0.697528
H153	H	1.955760	1.852447	1.030862
F154	F	1.338702	1.056219	0.512567
F155	F	1.672035	1.389552	0.845900
F156	F	2.005369	1.722885	1.179234
F157	F	1.215827	1.207677	0.623451
F158	F	1.549160	1.541010	0.956784
F159	F	1.882493	1.874344	1.290117
