data_functionalizedCrystal
_audit_creation_method	'MofGen! by Chris Wilmer'
_symmetry_space_group_name_H-M	'P1'
_symmetry_Int_Tables_number	1
_symmetry_cell_setting	triclinic
loop_
_symmetry_equiv_pos_as_xyz
  x,y,z
_cell_length_a	16.109301
_cell_length_b	16.109304
_cell_length_c	17.766277
_cell_angle_alpha	89.996447
_cell_angle_beta	89.993359
_cell_angle_gamma	83.462059
loop_
_atom_site_label
_atom_site_type_symbol
_atom_site_fract_x
_atom_site_fract_y
_atom_site_fract_z
O1	O	1.103139	0.106868	-0.062542
O2	O	1.436472	0.440202	0.270791
O3	O	1.769805	0.773535	0.604125
O4	O	0.861077	0.120168	-0.062553
O5	O	1.194410	0.453501	0.270780
O6	O	1.527743	0.786834	0.604113
O7	O	0.988756	-0.007513	-0.062548
O8	O	1.322090	0.325820	0.270786
O9	O	1.655423	0.659154	0.604119
O10	O	0.975459	0.234549	-0.062547
O11	O	1.308793	0.567882	0.270786
O12	O	1.642126	0.901215	0.604119
O13	O	0.988734	-0.007519	0.062641
O14	O	1.322067	0.325814	0.395974
O15	O	1.655400	0.659147	0.729308
O16	O	0.861054	0.120161	0.062635
O17	O	1.194388	0.453494	0.395969
O18	O	1.527721	0.786828	0.729302
O19	O	1.103116	0.106862	0.062647
O20	O	1.436450	0.440195	0.395980
O21	O	1.769783	0.773528	0.729313
Cu22	Cu	0.982083	0.113511	0.074072
Cu23	Cu	1.315417	0.446844	0.407405
Cu24	Cu	1.648750	0.780177	0.740738
Cu25	Cu	0.982110	0.113519	-0.073978
Cu26	Cu	1.315443	0.446852	0.259355
Cu27	Cu	1.648776	0.780185	0.592688
O28	O	0.975437	0.234542	0.062641
O29	O	1.308770	0.567876	0.395974
O30	O	1.642104	0.901209	0.729308
C31	C	0.988206	-0.038491	0.000045
C32	C	1.321539	0.294842	0.333378
C33	C	1.654873	0.628176	0.666712
C34	C	0.986590	-0.130786	0.000040
C35	C	1.319923	0.202547	0.333373
C36	C	1.653257	0.535880	0.666706
C37	C	0.830091	0.119626	0.000040
C38	C	1.163424	0.452959	0.333373
C39	C	1.496757	0.786292	0.666706
C40	C	0.737795	0.118010	0.000035
C41	C	1.071129	0.451344	0.333368
C42	C	1.404462	0.784677	0.666702
C43	C	0.982869	-0.343120	-0.068198
C44	C	1.316202	-0.009787	0.265135
C45	C	1.649535	0.323547	0.598469
C46	C	0.981342	-0.429840	-0.068197
C47	C	1.314676	-0.096507	0.265136
C48	C	1.648009	0.236827	0.598469
C49	C	0.981322	-0.429844	0.068290
C50	C	1.314655	-0.096511	0.401623
C51	C	1.647989	0.236822	0.734957
C52	C	0.982842	-0.343125	0.068289
C53	C	1.316176	-0.009792	0.401622
C54	C	1.649509	0.323542	0.734955
C55	C	0.983620	-0.299766	0.000042
C56	C	1.316953	0.033568	0.333376
C57	C	1.650286	0.366901	0.666709
C58	C	0.980573	-0.473205	0.000044
C59	C	1.313907	-0.139872	0.333378
C60	C	1.647240	0.193462	0.666711
C61	C	0.978919	-0.567231	0.000046
C62	C	1.312252	-0.233898	0.333379
C63	C	1.645585	0.099436	0.666712
C64	C	0.985273	-0.205734	0.000041
C65	C	1.318606	0.127600	0.333374
C66	C	1.651939	0.460933	0.666708
C67	C	0.515524	0.190018	0.000044
C68	C	0.848857	0.523351	0.333377
C69	C	1.182190	0.856685	0.666710
C70	C	0.428803	0.188494	0.000049
C71	C	0.762137	0.521827	0.333382
C72	C	1.095470	0.855161	0.666715
C73	C	0.448676	0.037005	0.000045
C74	C	0.782009	0.370339	0.333379
C75	C	1.115343	0.703672	0.666712
C76	C	0.535395	0.038530	0.000046
C77	C	0.868728	0.371864	0.333379
C78	C	1.202062	0.705197	0.666713
C79	C	0.568816	0.115039	0.000041
C80	C	0.902149	0.448372	0.333375
C81	C	1.235483	0.781706	0.666708
C82	C	0.395377	0.111990	0.000046
C83	C	0.728710	0.445324	0.333379
C84	C	1.062044	0.778657	0.666712
C85	C	0.301351	0.110337	0.000051
C86	C	0.634684	0.443670	0.333384
C87	C	0.968018	0.777004	0.666717
C88	C	0.662848	0.116693	0.000037
C89	C	0.996181	0.450026	0.333371
C90	C	1.329515	0.783359	0.666704
C91	C	1.134102	0.107404	0.000052
C92	C	1.467436	0.440737	0.333386
C93	C	1.800769	0.774070	0.666719
C94	C	1.226398	0.109019	0.000052
C95	C	1.559731	0.442352	0.333385
C96	C	1.893064	0.775686	0.666719
C97	C	0.975987	0.265520	0.000047
C98	C	1.309320	0.598854	0.333380
C99	C	1.642654	0.932187	0.666714
C100	C	0.977603	0.357816	0.000047
C101	C	1.310937	0.691149	0.333380
C102	C	1.644270	1.024482	0.666714
N103	N	0.982071	0.113505	0.178202
N104	N	1.315404	0.446838	0.511535
N105	N	1.648737	0.780172	0.844869
N106	N	0.982129	0.113518	-0.178109
N107	N	1.315462	0.446851	0.155225
N108	N	1.648796	0.780185	0.488558
C109	C	1.038625	0.056996	0.217591
C110	C	1.371959	0.390329	0.550925
C111	C	1.705292	0.723662	0.884258
C112	C	1.038630	0.056992	0.296393
C113	C	1.371964	0.390325	0.629727
C114	C	1.705297	0.723658	0.963060
C115	C	0.982088	0.113512	0.335803
C116	C	1.315422	0.446845	0.669136
C117	C	1.648755	0.780178	1.002469
C118	C	0.925523	0.170025	0.296404
C119	C	1.258856	0.503358	0.629737
C120	C	1.592190	0.836692	0.963070
C121	C	0.925514	0.170022	0.217603
C122	C	1.258847	0.503355	0.550937
C123	C	1.592181	0.836688	0.884270
C124	C	0.971175	0.189234	0.460640
C125	C	1.304508	0.522567	0.793974
C126	C	1.637842	0.855900	1.127307
C127	C	0.971190	0.189238	0.539439
C128	C	1.304523	0.522571	0.872772
C129	C	1.637856	0.855905	1.206106
C130	C	0.982110	0.113522	0.578849
C131	C	1.315444	0.446855	0.912182
C132	C	1.648777	0.780188	1.245516
C133	C	0.993034	0.037797	0.539450
C134	C	1.326368	0.371131	0.872784
C135	C	1.659701	0.704464	1.206117
C136	C	0.993026	0.037794	0.460650
C137	C	1.326359	0.371127	0.793983
C138	C	1.659692	0.704461	1.127317
C139	C	0.982091	0.113521	0.421248
C140	C	1.315424	0.446854	0.754582
C141	C	1.648758	0.780188	1.087915
C142	C	1.038673	0.057004	0.703684
C143	C	1.372007	0.390337	1.037018
C144	C	1.705340	0.723670	1.370351
C145	C	1.038672	0.056999	0.782487
C146	C	1.372006	0.390332	1.115821
C147	C	1.705339	0.723665	1.449154
C148	C	0.925569	0.170039	0.782496
C149	C	1.258902	0.503372	1.115830
C150	C	1.592236	0.836706	1.449163
C151	C	0.925566	0.170037	0.703695
C152	C	1.258899	0.503370	1.037028
C153	C	1.592233	0.836703	1.370361
C154	C	0.982123	0.113520	0.664293
C155	C	1.315456	0.446853	0.997627
C156	C	1.648789	0.780187	1.330960
H157	H	0.983499	-0.307819	-0.123768
H158	H	1.316832	0.025514	0.209565
H159	H	1.650166	0.358848	0.542898
Cl160	Cl	0.602396	-0.055737	0.000049
Cl161	Cl	0.935730	0.277597	0.333382
Cl162	Cl	1.269063	0.610930	0.666715
Cl163	Cl	0.406654	-0.059172	0.000046
Cl164	Cl	0.739988	0.274162	0.333380
Cl165	Cl	1.073321	0.607495	0.666713
H166	H	1.001918	-0.023863	0.428575
H167	H	1.335251	0.309470	0.761908
H168	H	1.668585	0.642804	1.095241
Cl169	Cl	1.109719	-0.014056	0.168059
Cl170	Cl	1.443052	0.319277	0.501392
Cl171	Cl	1.776386	0.652610	0.834725
H172	H	0.980691	-0.465158	0.123854
H173	H	1.314024	-0.131825	0.457187
H174	H	1.647358	0.201508	0.790520
H175	H	0.962267	0.250895	0.428559
H176	H	1.295601	0.584229	0.761893
H177	H	1.628934	0.917562	1.095226
Cl178	Cl	0.361810	0.282758	0.000053
Cl179	Cl	0.695144	0.616091	0.333386
Cl180	Cl	1.028477	0.949425	0.666719
Cl181	Cl	0.983777	-0.288617	0.154084
Cl182	Cl	1.317110	0.044717	0.487417
Cl183	Cl	1.650444	0.378050	0.820750
H184	H	0.542732	0.252316	0.000046
H185	H	0.876065	0.585650	0.333379
H186	H	1.209399	0.918983	0.666712
H187	H	1.084685	0.010974	0.328470
H188	H	1.418019	0.344307	0.661803
H189	H	1.751352	0.677640	0.995137
H190	H	0.879459	0.216039	0.185532
H191	H	1.212793	0.549372	0.518865
H192	H	1.546126	0.882706	0.852198
H193	H	1.001927	-0.023858	0.571536
H194	H	1.335260	0.309475	0.904869
H195	H	1.668593	0.642808	1.238203
Cl196	Cl	0.980396	-0.484339	-0.153989
Cl197	Cl	1.313730	-0.151006	0.179344
Cl198	Cl	1.647063	0.182328	0.512677
H199	H	1.084723	0.010981	0.671602
H200	H	1.418056	0.344315	1.004936
H201	H	1.751390	0.677648	1.338269
Cl202	Cl	1.109771	-0.014052	0.832009
Cl203	Cl	1.443104	0.319281	1.165342
Cl204	Cl	1.776437	0.652614	1.498675
H205	H	0.879528	0.216055	0.814583
H206	H	1.212862	0.549388	1.147916
H207	H	1.546195	0.882722	1.481250
Cl208	Cl	0.854470	0.241085	0.654172
Cl209	Cl	1.187803	0.574418	0.987505
Cl210	Cl	1.521136	0.907751	1.320838
Cl211	Cl	0.957463	0.284433	0.588961
Cl212	Cl	1.290796	0.617766	0.922294
Cl213	Cl	1.624129	0.951099	1.255628
H214	H	0.879484	0.216043	0.328495
H215	H	1.212817	0.549376	0.661828
H216	H	1.546151	0.882710	0.995161
