data_functionalizedCrystal
_audit_creation_method	'MofGen! by Chris Wilmer'
_symmetry_space_group_name_H-M	'P1'
_symmetry_Int_Tables_number	1
_symmetry_cell_setting	triclinic
loop_
_symmetry_equiv_pos_as_xyz
  x,y,z
_cell_length_a	23.532407
_cell_length_b	23.532407
_cell_length_c	22.010155
_cell_angle_alpha	89.989642
_cell_angle_beta	90.009202
_cell_angle_gamma	97.151322
loop_
_atom_site_label
_atom_site_type_symbol
_atom_site_fract_x
_atom_site_fract_y
_atom_site_fract_z
O1	O	0.069133	-0.755269	0.050455
O2	O	0.079137	-0.589406	0.050474
O3	O	-0.008797	-0.677339	0.050453
O4	O	0.157067	-0.667336	0.050476
O5	O	-0.008797	-0.677312	-0.050597
O6	O	0.079137	-0.589379	-0.050576
O7	O	0.069133	-0.755243	-0.050595
Cu8	Cu	0.074135	-0.672308	-0.059812
Cu9	Cu	0.074135	-0.672340	0.059691
O10	O	0.157067	-0.667309	-0.050574
C11	C	0.078882	-0.568176	-0.000049
C12	C	0.078116	-0.504959	-0.000042
C13	C	-0.030013	-0.677071	-0.000074
C14	C	-0.093230	-0.676305	-0.000078
C15	C	0.069388	-0.776472	-0.000071
C16	C	0.070154	-0.839689	-0.000073
C17	C	-0.492333	-0.723539	-0.000050
C18	C	-0.551733	-0.722827	-0.000046
O19	O	-0.588478	-0.766613	-0.000028
N20	N	-0.574359	-0.670551	-0.000040
C21	C	-0.537582	-0.618983	-0.000033
O22	O	-0.562281	-0.574452	-0.000027
C23	C	-0.478182	-0.619695	-0.000033
C24	C	-0.455560	-0.671974	-0.000045
C25	C	-0.469710	-0.775814	-0.000061
C26	C	-0.410313	-0.776525	-0.000067
C27	C	-0.373540	-0.724961	-0.000062
C28	C	-0.396164	-0.672685	-0.000051
C29	C	-0.441406	-0.568127	-0.000022
C30	C	-0.382004	-0.568844	-0.000022
C31	C	-0.359381	-0.621123	-0.000034
C32	C	-0.299995	-0.621832	-0.000052
N33	N	-0.277368	-0.674109	-0.000057
C34	C	-0.314141	-0.725673	-0.000062
C35	C	-0.662324	-0.617491	-0.000031
C36	C	-0.721722	-0.616778	-0.000035
C37	C	-0.735869	-0.720623	-0.000047
C38	C	-0.676470	-0.721335	-0.000047
C39	C	-0.639698	-0.669767	-0.000037
C40	C	-0.189405	-0.727163	-0.000075
C41	C	-0.130003	-0.727869	-0.000083
C42	C	-0.115860	-0.624025	-0.000069
C43	C	-0.175257	-0.623318	-0.000064
C44	C	-0.212029	-0.674891	-0.000065
O45	O	-0.263215	-0.578070	-0.000067
O46	O	-0.289433	-0.770196	-0.000060
C47	C	0.178283	-0.667577	-0.000046
C48	C	0.241500	-0.668343	-0.000037
N49	N	0.074135	-0.672291	-0.143865
C50	C	0.125350	-0.105856	-0.000063
C51	C	0.124638	-0.046456	-0.000067
O52	O	0.168424	-0.009711	-0.000083
N53	N	0.072362	-0.023830	-0.000073
C54	C	0.020794	-0.060607	-0.000082
O55	O	-0.023737	-0.035908	-0.000088
C56	C	0.021506	-0.120006	-0.000082
C57	C	0.073785	-0.142629	-0.000070
C58	C	0.177625	-0.128479	-0.000051
C59	C	0.178336	-0.187876	-0.000046
C60	C	0.126772	-0.224649	-0.000053
C61	C	0.074497	-0.202025	-0.000065
C62	C	-0.030062	-0.156783	-0.000096
C63	C	-0.029345	-0.216185	-0.000097
C64	C	0.022934	-0.238808	-0.000084
C65	C	0.023643	-0.298194	-0.000067
N66	N	0.075920	-0.320820	-0.000061
C67	C	0.127484	-0.284048	-0.000054
C68	C	0.019302	0.064135	-0.000082
C69	C	0.018589	0.123533	-0.000077
C70	C	0.122434	0.137680	-0.000063
C71	C	0.123146	0.078281	-0.000064
C72	C	0.071578	0.041509	-0.000076
C73	C	0.128974	-0.408784	-0.000043
C74	C	0.129680	-0.468186	-0.000035
C75	C	0.025836	-0.482329	-0.000052
C76	C	0.025129	-0.422932	-0.000057
C77	C	0.076702	-0.386160	-0.000054
O78	O	-0.020119	-0.334974	-0.000054
O79	O	0.172007	-0.308755	-0.000055
C80	C	0.108496	-0.706685	-0.563643
C81	C	0.108494	-0.706692	-0.627251
O82	O	0.137705	-0.735915	-0.660141
N83	N	0.074128	-0.672351	-0.659072
C84	C	0.039758	-0.638005	-0.627282
O85	O	0.010527	-0.608796	-0.660189
C86	C	0.039757	-0.638002	-0.563676
C87	C	0.074129	-0.672341	-0.531858
C88	C	0.142864	-0.741022	-0.531825
C89	C	0.142867	-0.741014	-0.468222
C90	C	0.108500	-0.706670	-0.436437
C91	C	0.074131	-0.672333	-0.468255
C92	C	0.005383	-0.603660	-0.531887
C93	C	0.005384	-0.603660	-0.468276
C94	C	0.039757	-0.637999	-0.436458
C95	C	0.039766	-0.637981	-0.372866
N96	N	0.074132	-0.672322	-0.341045
C97	C	0.108498	-0.706667	-0.372830
C98	C	0.039762	-0.638015	-0.760860
C99	C	0.039766	-0.638015	-0.824465
C100	C	0.108502	-0.706703	-0.824429
C101	C	0.108501	-0.706700	-0.760823
C102	C	0.074128	-0.672356	-0.729039
C103	C	0.108501	-0.706648	-0.239259
C104	C	0.108502	-0.706635	-0.175650
C105	C	0.039764	-0.637950	-0.175691
C106	C	0.039765	-0.637960	-0.239295
C107	C	0.074135	-0.672313	-0.271077
O108	O	0.010568	-0.608775	-0.339935
O109	O	0.137719	-0.735876	-0.339916
N110	N	0.074131	-0.672362	0.143744
H111	H	-0.111587	-0.770443	-0.000094
O112	O	0.141850	-0.740152	-0.855244
C113	C	0.125765	-0.798046	-0.839701
H114	H	0.103668	-0.800614	-0.793520
H115	H	0.165520	-0.821145	-0.837518
H116	H	0.095100	-0.819195	-0.875497
H117	H	0.170850	-0.768992	-0.557698
H118	H	0.136490	-0.734661	-0.734921
O119	O	-0.027924	-0.570241	-0.562813
C120	C	0.006986	-0.531188	-0.599626
H121	H	0.052340	-0.524805	-0.580459
H122	H	-0.011006	-0.488398	-0.600356
H123	H	0.007854	-0.548781	-0.647828
O124	O	-0.743666	-0.565979	0.000077
C125	C	-0.724821	-0.534576	0.052407
H126	H	-0.712629	-0.565164	0.088981
H127	H	-0.760668	-0.510556	0.069981
H128	H	-0.685930	-0.502617	0.040575
O129	O	-0.025619	-0.400887	-0.000145
C130	C	-0.029146	-0.366963	-0.052494
H131	H	0.015827	-0.351917	-0.069936
H132	H	-0.051625	-0.328190	-0.040736
H133	H	-0.054491	-0.393348	-0.089142
O134	O	-0.028020	-0.570243	-0.437496
C135	C	-0.058365	-0.539951	-0.479224
H136	H	-0.034771	-0.536499	-0.524562
H137	H	-0.061673	-0.495187	-0.460864
H138	H	-0.103188	-0.563670	-0.485990
H139	H	-0.459814	-0.525555	-0.000009
O140	O	0.227704	-0.092739	-0.000148
C141	C	0.230407	-0.057933	-0.052471
H142	H	0.201159	-0.079833	-0.089061
H143	H	0.276323	-0.051005	-0.070024
H144	H	0.215926	-0.014815	-0.040639
H145	H	-0.072634	-0.138375	-0.000106
O146	O	0.006327	-0.604585	-0.270111
C147	C	-0.023990	-0.574257	-0.228411
H148	H	-0.027426	-0.597845	-0.183063
H149	H	-0.068760	-0.570983	-0.246791
H150	H	-0.000300	-0.529421	-0.221661
O151	O	-0.771574	-0.770729	-0.000153
C152	C	-0.761371	-0.802489	-0.052482
H153	H	-0.740905	-0.772302	-0.089062
H154	H	-0.803650	-0.825563	-0.070046
H155	H	-0.731307	-0.835285	-0.040654
O156	O	-0.225176	-0.777223	-0.000160
C157	C	-0.259957	-0.779915	-0.052501
H158	H	-0.262724	-0.734724	-0.069939
H159	H	-0.304716	-0.801401	-0.040732
H160	H	-0.240557	-0.805795	-0.089154
H161	H	0.220908	-0.206289	-0.000036
O162	O	-0.505367	-0.825946	0.000013
C163	C	-0.495156	-0.857715	0.052349
H164	H	-0.450017	-0.843464	0.069802
H165	H	-0.499585	-0.905233	0.040568
H166	H	-0.527606	-0.850138	0.088996
H167	H	0.165717	0.059867	-0.000057
O168	O	0.006297	-0.604719	-0.855343
C169	C	-0.051590	-0.620817	-0.839789
H170	H	-0.057328	-0.666773	-0.822294
H171	H	-0.079595	-0.617661	-0.881622
H172	H	-0.064654	-0.591036	-0.802876
H173	H	0.011785	-0.609986	-0.149800
O174	O	-0.654524	-0.772133	0.000055
C175	C	-0.673354	-0.803563	0.052379
H176	H	-0.685537	-0.772994	0.088960
H177	H	-0.637502	-0.827591	0.069946
H178	H	-0.712248	-0.835518	0.040541
H179	H	-0.022693	0.034198	-0.000086
H180	H	0.011774	-0.610043	-0.734985
H181	H	0.170970	-0.378851	-0.000042
O182	O	-0.346365	-0.518696	-0.000039
C183	C	-0.379075	-0.472406	-0.000012
H184	H	-0.423494	-0.487117	-0.019143
H185	H	-0.356972	-0.436287	-0.029343
H186	H	-0.383210	-0.456383	0.048471
O187	O	-0.388276	-0.827275	0.000011
C188	C	-0.354348	-0.830816	0.052354
H189	H	-0.339295	-0.785848	0.069802
H190	H	-0.315580	-0.853299	0.040584
H191	H	-0.380732	-0.856165	0.089000
H192	H	-0.071339	-0.246123	-0.000107
O193	O	-0.024199	-0.518136	-0.000088
C194	C	-0.012354	-0.575412	-0.000070
H195	H	0.032369	-0.577435	-0.019188
H196	H	-0.045236	-0.602504	-0.029417
H197	H	-0.014617	-0.592613	0.048409
H198	H	-0.632386	-0.575496	-0.000028
H199	H	0.172255	-0.486602	-0.000025
H200	H	0.136494	-0.734598	-0.149747
H201	H	0.170854	-0.768979	-0.442322
H202	H	-0.193677	-0.580748	-0.000071
H203	H	0.136488	-0.734622	-0.265129
H204	H	0.164421	0.167632	-0.000060
H205	H	-0.023982	0.141947	-0.000078
H206	H	-0.085909	-0.582043	-0.000067
