data_functionalizedCrystal
_audit_creation_method	'MofGen! by Chris Wilmer'
_symmetry_space_group_name_H-M	'P1'
_symmetry_Int_Tables_number	1
_symmetry_cell_setting	triclinic
loop_
_symmetry_equiv_pos_as_xyz
  x,y,z
_cell_length_a	22.610064
_cell_length_b	9.065218
_cell_length_c	9.065218
_cell_angle_alpha	94.984115
_cell_angle_beta	90.016923
_cell_angle_gamma	89.998859
loop_
_atom_site_label
_atom_site_type_symbol
_atom_site_fract_x
_atom_site_fract_y
_atom_site_fract_z
O1	O	0.049183	-1.960392	0.216388
O2	O	0.049184	-1.531107	0.234134
O3	O	0.049183	-1.754622	0.010619
O4	O	0.049185	-1.736876	0.439903
O5	O	-0.049187	-1.754623	0.010549
O6	O	-0.049185	-1.531107	0.234065
O7	O	-0.049186	-1.960392	0.216319
Zn8	Zn	-0.064804	-1.745750	0.225181
Zn9	Zn	0.064802	-1.745749	0.225272
O10	O	-0.049184	-1.736876	0.439834
C11	C	-0.000000	-1.476120	0.232394
C12	C	-0.000000	-1.312277	0.227294
N13	N	-0.153256	-1.745761	0.225118
N14	N	0.153254	-1.745749	0.225323
C15	C	0.561895	-1.655273	0.134247
C16	C	0.623815	-1.655277	0.134228
O17	O	0.655833	-1.578359	0.056854
N18	N	0.654792	-1.745766	0.225153
C19	C	0.623845	-1.836269	0.316092
O20	O	0.655878	-1.913238	0.393428
C21	C	0.561926	-1.836271	0.316102
C22	C	0.530953	-1.745765	0.225182
C23	C	0.530922	-1.564775	0.043333
C24	C	0.469006	-1.564770	0.043355
C25	C	0.438064	-1.655262	0.134290
C26	C	0.469037	-1.745760	0.225204
C27	C	0.530981	-1.926781	0.407032
C28	C	0.469058	-1.926777	0.407034
C29	C	0.438084	-1.836270	0.316114
C30	C	0.376179	-1.836246	0.316161
N31	N	0.345203	-1.745757	0.225236
C32	C	0.376145	-1.655265	0.134301
C33	C	0.753878	-1.836257	0.316061
C34	C	0.815796	-1.836248	0.316060
C35	C	0.815762	-1.655258	0.134193
C36	C	0.753843	-1.655261	0.134204
C37	C	0.722902	-1.745768	0.225136
C38	C	0.246118	-1.655259	0.134354
C39	C	0.184197	-1.655257	0.134388
C40	C	0.184236	-1.836252	0.316248
C41	C	0.246152	-1.836249	0.316220
C42	C	0.277091	-1.745748	0.225261
O43	O	0.344122	-1.913129	0.393491
O44	O	0.344104	-1.578323	0.056963
C45	C	-0.000001	-1.752917	-0.044403
C46	C	0.000002	-1.747817	-0.208245
C47	C	0.000000	-2.015378	0.218059
C48	C	0.000004	-2.179221	0.223158
C49	C	0.000001	-1.738582	0.494855
C50	C	0.000002	-1.743681	0.658698
H51	H	0.158981	-1.581550	0.060350
Cl52	Cl	0.569903	-2.040536	0.521372
H53	H	0.443868	-2.000483	0.481082
Cl54	Cl	0.430078	-1.450992	-0.070959
Cl55	Cl	0.854673	-1.541499	0.019869
Cl56	Cl	0.854726	-1.950001	0.430395
Cl57	Cl	0.714912	-1.541481	0.019896
Cl58	Cl	0.714987	-1.950036	0.430403
Cl59	Cl	0.285003	-1.541489	0.020000
Cl60	Cl	0.569810	-1.450984	-0.070988
H61	H	0.159032	-1.909925	0.390289
H62	H	0.271372	-1.909926	0.390275
