data_functionalizedCrystal
_audit_creation_method	'MofGen! by Chris Wilmer'
_symmetry_space_group_name_H-M	'P1'
_symmetry_Int_Tables_number	1
_symmetry_cell_setting	triclinic
loop_
_symmetry_equiv_pos_as_xyz
  x,y,z
_cell_length_a	19.121063
_cell_length_b	14.908618
_cell_length_c	14.908308
_cell_angle_alpha	89.826377
_cell_angle_beta	95.554627
_cell_angle_gamma	90.697640
loop_
_atom_site_label
_atom_site_type_symbol
_atom_site_fract_x
_atom_site_fract_y
_atom_site_fract_z
Zn1	Zn	-0.366448	-1.324068	-0.606430
Zn2	Zn	0.133552	-0.824068	-0.106430
Zn3	Zn	-0.477506	-1.326216	-0.461772
Zn4	Zn	0.022494	-0.826216	0.038228
Zn5	Zn	-0.352958	-1.183165	-0.446731
Zn6	Zn	0.147042	-0.683165	0.053269
Zn7	Zn	-0.476668	-1.167292	-0.603376
Zn8	Zn	0.023332	-0.667292	-0.103376
O9	O	-0.418395	-1.250185	-0.529577
O10	O	0.081605	-0.750185	-0.029577
O11	O	-0.387176	-1.449832	-0.594813
O12	O	0.112824	-0.949832	-0.094813
O13	O	-0.455690	-1.314781	-0.333680
O14	O	0.044310	-0.814781	0.166320
O15	O	-0.256496	-1.207600	-0.462899
O16	O	0.243504	-0.707600	0.037101
O17	O	-0.468770	-1.451409	-0.488533
O18	O	0.031230	-0.951409	0.011467
O19	O	-0.266407	-1.311121	-0.580229
O20	O	0.233593	-0.811121	-0.080229
O21	O	-0.364185	-1.209683	-0.322630
O22	O	0.135815	-0.709683	0.177370
O23	O	-0.363373	-1.055581	-0.459938
O24	O	0.136627	-0.555581	0.040062
O25	O	-0.467342	-1.180547	-0.729878
O26	O	0.032658	-0.680547	-0.229878
O27	O	-0.454262	-1.043919	-0.575024
O28	O	0.045738	-0.543919	-0.075024
O29	O	-0.386363	-1.295730	-0.732121
O30	O	0.113637	-0.795730	-0.232121
O31	O	-0.575646	-1.299390	-0.485572
O32	O	-0.075646	-0.799390	0.014428
O33	O	-0.575031	-1.182630	-0.589608
O34	O	-0.075031	-0.682630	-0.089608
C35	C	-0.407263	-1.017215	-0.515518
C36	C	0.092737	-0.517215	-0.015518
C37	C	-0.402518	-0.917547	-0.509526
C38	C	0.097482	-0.417547	-0.009526
C39	C	-0.600816	-1.239544	-0.538912
C40	C	-0.100816	-0.739544	-0.038912
C41	C	-0.678861	-1.235072	-0.542941
C42	C	-0.178861	-0.735072	-0.042941
C43	C	-0.488379	-0.718167	-0.617958
C44	C	0.011621	-0.218167	-0.117958
C45	C	-0.483923	-0.624519	-0.612331
C46	C	0.016077	-0.124519	-0.112331
C47	C	-0.389149	-0.636603	-0.492650
C48	C	0.110851	-0.136603	0.007350
C49	C	-0.393604	-0.730250	-0.498277
C50	C	0.106396	-0.230250	0.001723
C51	C	-0.443222	-0.771029	-0.560932
C52	C	0.056778	-0.271029	-0.060932
C53	C	-0.447680	-0.864678	-0.566554
C54	C	0.052320	-0.364678	-0.066554
C55	C	-0.352903	-0.876760	-0.446879
C56	C	0.147097	-0.376760	0.053121
C57	C	-0.348448	-0.783113	-0.441252
C58	C	0.151552	-0.283113	0.058748
C59	C	-0.715829	-1.293803	-0.490718
C60	C	-0.215829	-0.793803	0.009282
C61	C	-0.789161	-1.289602	-0.494512
C62	C	-0.289161	-0.789602	0.005488
C63	C	-0.825525	-1.226665	-0.550525
C64	C	-0.325525	-0.726665	-0.050525
C65	C	-0.788552	-1.167930	-0.602754
C66	C	-0.288552	-0.667930	-0.102754
C67	C	-0.715222	-1.172136	-0.598964
C68	C	-0.215222	-0.672136	-0.098964
C69	C	-1.046921	-1.210926	-0.564681
C70	C	-0.546921	-0.710926	-0.064681
C71	C	-1.120257	-1.206722	-0.568466
C72	C	-0.620257	-0.706722	-0.068466
C73	C	-1.120861	-1.328396	-0.460224
C74	C	-0.620861	-0.828396	0.039776
C75	C	-1.047528	-1.332593	-0.456435
C76	C	-0.547528	-0.832593	0.043565
C77	C	-1.010563	-1.273862	-0.508667
C78	C	-0.510563	-0.773862	-0.008667
C79	C	-0.900482	-1.222367	-0.554403
C80	C	-0.400482	-0.722367	-0.054403
C81	C	-0.935607	-1.278164	-0.504794
C82	C	-0.435607	-0.778164	-0.004794
C83	C	-0.235264	-1.260892	-0.520227
C84	C	0.264736	-0.760892	-0.020227
C85	C	-0.157224	-1.265454	-0.516243
C86	C	0.342776	-0.765454	-0.016243
C87	C	-0.428264	-1.236129	-0.764609
C88	C	0.071736	-0.736129	-0.264609
C89	C	-0.432470	-1.230138	-0.864765
C90	C	0.067530	-0.730138	-0.364765
C91	C	-0.429565	-0.484066	-0.543685
C92	C	0.070435	0.015934	-0.043685
C93	C	-0.434311	-0.583734	-0.549678
C94	C	0.065689	-0.083734	-0.049678
C95	C	-0.356033	-1.338820	-1.055307
C96	C	0.143967	-0.838820	-0.555307
C97	C	-0.359982	-1.333195	-1.149413
C98	C	0.140018	-0.833195	-0.649413
C99	C	-0.444313	-1.213259	-1.147084
C100	C	0.055687	-0.713259	-0.647084
C101	C	-0.440364	-1.218884	-1.052978
C102	C	0.059636	-0.718884	-0.552978
C103	C	-0.396223	-1.281668	-1.007093
C104	C	0.103777	-0.781668	-0.507093
C105	C	-0.392278	-1.287297	-0.912986
C106	C	0.107722	-0.787297	-0.412986
C107	C	-0.476605	-1.167357	-0.910659
C108	C	0.023395	-0.667357	-0.410659
C109	C	-0.480554	-1.161732	-1.004765
C110	C	0.019446	-0.661732	-0.504765
C111	C	-0.408516	-1.264242	-0.295461
C112	C	0.091484	-0.764242	0.204539
C113	C	-0.404121	-1.270417	-0.195305
C114	C	0.095879	-0.770417	0.304695
H115	H	-0.488082	-0.897878	-0.617570
H116	H	0.011918	-0.397878	-0.117570
N117	N	-0.519962	-1.105714	-0.858659
N118	N	-0.019962	-0.605714	-0.358659
H119	H	-0.510765	-1.118805	-0.792080
H120	H	-0.010765	-0.618805	-0.292080
H121	H	-0.506669	-1.041327	-0.870683
H122	H	-0.006669	-0.541327	-0.370683
N123	N	-0.308441	-1.406543	-1.005805
N124	N	0.191559	-0.906543	-0.505805
H125	H	-0.258293	-1.394582	-1.018766
H126	H	0.241707	-0.894582	-0.518766
H127	H	-0.312105	-1.401395	-0.938893
H128	H	0.187895	-0.901395	-0.438893
H129	H	-0.685124	-1.124312	-0.641491
H130	H	-0.185124	-0.624312	-0.141491
H131	H	-1.016830	-1.163103	-0.607209
H132	H	-0.516830	-0.663103	-0.107209
N133	N	-0.491918	-1.145535	-1.196563
N134	N	0.008082	-0.645535	-0.696563
H135	H	-0.477259	-1.083090	-1.175751
H136	H	0.022741	-0.583090	-0.675751
H137	H	-0.488306	-1.150706	-1.263485
H138	H	0.011694	-0.650706	-0.763485
N139	N	-0.528145	-1.094001	-1.054255
N140	N	-0.028145	-0.594001	-0.554255
H141	H	-0.524545	-1.099103	-1.121187
H142	H	-0.024545	-0.599103	-0.621187
H143	H	-0.578269	-1.106000	-1.041220
H144	H	-0.078269	-0.606000	-0.541220
H145	H	-1.150966	-1.376212	-0.417701
H146	H	-0.650966	-0.876212	0.082299
H147	H	-0.316134	-0.919811	-0.400442
H148	H	0.183866	-0.419811	0.099558
H149	H	-0.528782	-0.751369	-0.668969
H150	H	-0.028782	-0.251369	-0.168969
H151	H	-1.149863	-1.155481	-0.614095
H152	H	-0.649863	-0.655481	-0.114095
N153	N	-0.335639	-0.592627	-0.425066
N154	N	0.164361	-0.092627	0.074934
H155	H	-0.344550	-0.612141	-0.362200
H156	H	0.155450	-0.112141	0.137800
H157	H	-0.286880	-0.611022	-0.437647
H158	H	0.213120	-0.111022	0.062353
N159	N	-0.532628	-0.567502	-0.673835
N160	N	-0.032628	-0.067502	-0.173835
H161	H	-0.564735	-0.607548	-0.714377
H162	H	-0.064735	-0.107548	-0.214377
H163	H	-0.561686	-0.528951	-0.636412
H164	H	-0.061686	-0.028951	-0.136412
N165	N	-0.294949	-0.739122	-0.373663
N166	N	0.205051	-0.239122	0.126337
H167	H	-0.262142	-0.699963	-0.406336
H168	H	0.237858	-0.199963	0.093664
H169	H	-0.319901	-0.701156	-0.331001
H170	H	0.180099	-0.201156	0.168999
N171	N	-0.676610	-1.361684	-0.430300
N172	N	-0.176610	-0.861684	0.069700
H173	H	-0.711159	-1.398254	-0.397795
H174	H	-0.211159	-0.898254	0.102205
H175	H	-0.649667	-1.402701	-0.467942
H176	H	-0.149667	-0.902701	0.032058
N177	N	-0.827766	-1.100045	-0.663171
N178	N	-0.327766	-0.600045	-0.163171
H179	H	-0.861648	-1.132206	-0.708725
H180	H	-0.361648	-0.632206	-0.208725
H181	H	-0.854663	-1.058982	-0.625519
H182	H	-0.354663	-0.558982	-0.125519
N183	N	-0.829034	-1.352948	-0.438186
N184	N	-0.329034	-0.852948	0.061814
H185	H	-0.794870	-1.393452	-0.402123
H186	H	-0.294870	-0.893452	0.097877
H187	H	-0.856005	-1.317227	-0.395833
H188	H	-0.356005	-0.817227	0.104167
N189	N	-1.008310	-1.400487	-0.396035
N190	N	-0.508310	-0.900487	0.103965
H191	H	-1.042857	-1.437063	-0.363532
H192	H	-0.542857	-0.937063	0.136468
H193	H	-0.981373	-1.441498	-0.433691
H194	H	-0.481373	-0.941498	0.066309
N195	N	-0.896385	-1.346042	-0.444383
N196	N	-0.396385	-0.846042	0.055617
H197	H	-0.905807	-1.335283	-0.379812
H198	H	-0.405807	-0.835283	0.120188
H199	H	-0.912762	-1.408501	-0.463023
H200	H	-0.412762	-0.908501	0.036977
H201	H	-0.930097	-1.171121	-0.600008
H202	H	-0.430097	-0.671121	-0.100008
N203	N	-0.316640	-1.394846	-1.201414
N204	N	0.183360	-0.894846	-0.701414
H205	H	-0.325839	-1.381758	-1.267993
H206	H	0.174161	-0.881758	-0.767993
H207	H	-0.265139	-1.384802	-1.181561
H208	H	0.234861	-0.884802	-0.681561
N209	N	-0.344677	-1.355015	-0.863490
N210	N	0.155323	-0.855015	-0.363490
H211	H	-0.294532	-1.343041	-0.876457
H212	H	0.205468	-0.843041	-0.376457
H213	H	-0.348338	-1.349874	-0.796577
H214	H	0.151662	-0.849874	-0.296577
