data_functionalizedCrystal
_audit_creation_method	'MofGen! by Chris Wilmer'
_symmetry_space_group_name_H-M	'P1'
_symmetry_Int_Tables_number	1
_symmetry_cell_setting	triclinic
loop_
_symmetry_equiv_pos_as_xyz
  x,y,z
_cell_length_a	29.839131
_cell_length_b	11.169417
_cell_length_c	11.169409
_cell_angle_alpha	90.019824
_cell_angle_beta	90.040119
_cell_angle_gamma	90.042299
loop_
_atom_site_label
_atom_site_type_symbol
_atom_site_fract_x
_atom_site_fract_y
_atom_site_fract_z
Zn1	Zn	-0.178806	1.834703	0.678478
Zn2	Zn	-0.253948	1.834484	0.477767
Zn3	Zn	-0.178834	1.633989	0.477812
Zn4	Zn	-0.253911	1.633888	0.678412
O5	O	-0.216375	1.734266	0.578117
O6	O	-0.188778	2.002624	0.651862
O7	O	-0.244011	1.807838	0.309823
O8	O	-0.115963	1.660748	0.504477
O9	O	-0.243984	2.002462	0.504401
O10	O	-0.115943	1.808212	0.651905
O11	O	-0.188825	1.660536	0.309856
O12	O	-0.188789	1.466026	0.504413
O13	O	-0.243922	1.660576	0.846371
O14	O	-0.243948	1.465951	0.651794
O15	O	-0.188742	1.808114	0.846419
O16	O	-0.316810	1.807740	0.504337
O17	O	-0.316783	1.660363	0.651750
C18	C	-0.216368	1.422441	0.578102
C19	C	-0.216376	1.289041	0.578124
C20	C	-0.333097	1.734049	0.578058
C21	C	-0.383032	1.734066	0.578073
C22	C	-0.692677	1.811145	0.501472
C23	C	-0.880350	1.811293	0.501518
O24	O	-0.904616	1.876656	0.436344
N25	N	-0.903817	1.734515	0.578208
C26	C	-0.880363	1.657700	0.654897
O27	O	-0.904630	1.592407	0.720136
C28	C	-0.692691	1.657559	0.654856
C29	C	-0.669226	1.734333	0.578152
C30	C	-0.669212	1.887914	0.424776
C31	C	-0.622296	1.887871	0.424760
C32	C	-0.598846	1.811060	0.501441
C33	C	-0.622311	1.734291	0.578137
C34	C	-0.669238	1.580751	0.731550
C35	C	-0.622317	1.580724	0.731535
C36	C	-0.598852	1.657499	0.654831
C37	C	-0.551945	1.657437	0.654802
N38	N	-0.528477	1.734215	0.578112
C39	C	-0.551928	1.811026	0.501432
C40	C	-0.978894	1.657778	0.654912
C41	C	-1.025811	1.657811	0.654921
C42	C	-1.025795	1.811406	0.501543
C43	C	-0.978876	1.811366	0.501529
C44	C	-0.955426	1.734556	0.578222
C45	C	-0.453402	1.810931	0.501404
C46	C	-0.406482	1.810878	0.501392
C47	C	-0.406503	1.657288	0.654773
C48	C	-0.453419	1.657336	0.654782
C49	C	-0.476867	1.734167	0.578093
O50	O	-0.527650	1.592118	0.719952
O51	O	-0.527653	1.876328	0.436221
C52	C	-0.739592	1.811187	0.501487
C53	C	-0.763057	1.734418	0.578183
C54	C	-0.739606	1.657606	0.654864
C55	C	-0.809975	1.734451	0.578192
C56	C	-0.833425	1.811263	0.501512
C57	C	-0.809958	1.888041	0.424822
C58	C	-0.763043	1.887999	0.424807
C59	C	-0.763074	1.580828	0.731553
C60	C	-0.809989	1.580876	0.731562
C61	C	-0.833440	1.657688	0.654881
C62	C	-0.099196	1.734516	0.578203
C63	C	-0.049262	1.734623	0.578240
C64	C	-0.216325	1.734358	0.891160
C65	C	-0.216304	1.734397	1.024560
C66	C	-0.216382	2.047308	0.578134
C67	C	-0.216385	2.180708	0.578140
C68	C	-0.216392	1.734243	0.266293
C69	C	-0.216287	1.734436	0.132893
H70	H	-0.387379	1.873397	0.438927
H71	H	-0.829090	1.518346	0.794022
O72	O	-0.832757	1.962814	0.350522
C73	C	-0.859844	2.040285	0.418965
H74	H	-0.845669	2.047592	0.513492
H75	H	-0.860348	2.132689	0.375675
H76	H	-0.895418	2.003222	0.423073
H77	H	-0.472488	1.873496	0.438960
O78	O	-0.691992	1.962730	0.350489
C79	C	-0.719072	2.040224	0.418931
H80	H	-0.704909	2.047472	0.513476
H81	H	-0.719547	2.132644	0.375674
H82	H	-0.754656	2.003220	0.422987
O83	O	-0.599575	1.962577	0.350224
C84	C	-0.630342	2.030355	0.282540
H85	H	-0.663770	2.034489	0.331718
H86	H	-0.616760	2.124920	0.269826
H87	H	-0.635376	1.986466	0.191347
O88	O	-0.956154	1.886061	0.426986
C89	C	-0.986919	1.953831	0.359287
H90	H	-1.020346	1.957978	0.408462
H91	H	-0.973334	2.048392	0.346558
H92	H	-0.991952	1.909927	0.268102
O93	O	-1.048648	1.886056	0.427240
C94	C	-1.095090	1.869628	0.443721
H95	H	-1.101471	1.830169	0.536271
H96	H	-1.112879	1.959571	0.435801
H97	H	-1.108473	1.805863	0.372421
H98	H	-0.959804	1.595227	0.717366
H99	H	-0.472525	1.594823	0.717243
H100	H	-0.688335	1.518227	0.794004
H101	H	-1.044913	1.595283	0.717369
O102	O	-0.599608	1.505998	0.806078
C103	C	-0.630384	1.438277	0.873798
H104	H	-0.663843	1.434171	0.824638
H105	H	-0.616862	1.343698	0.886530
H106	H	-0.635331	1.482197	0.964981
H107	H	-0.387402	1.594745	0.717202
O108	O	-0.740322	1.962697	0.350264
C109	C	-0.771088	2.030471	0.282575
H110	H	-0.804515	2.034615	0.331757
H111	H	-0.757505	2.125033	0.269848
H112	H	-0.776124	1.986572	0.191388
H113	H	-0.743984	1.518280	0.793998
