data_functionalizedCrystal
_audit_creation_method	'MofGen! by Chris Wilmer'
_symmetry_space_group_name_H-M	'P1'
_symmetry_Int_Tables_number	1
_symmetry_cell_setting	triclinic
loop_
_symmetry_equiv_pos_as_xyz
  x,y,z
_cell_length_a	15.538191
_cell_length_b	16.109301
_cell_length_c	15.186229
_cell_angle_alpha	90.000809
_cell_angle_beta	89.999700
_cell_angle_gamma	114.633213
loop_
_atom_site_label
_atom_site_type_symbol
_atom_site_fract_x
_atom_site_fract_y
_atom_site_fract_z
O1	O	0.121093	-1.066617	-0.073166
O2	O	0.136163	-0.820010	-0.073179
O3	O	-0.008516	-0.991317	-0.073174
O4	O	0.265772	-0.895310	-0.073171
O5	O	-0.008518	-0.991309	0.073283
O6	O	0.136162	-0.820002	0.073278
O7	O	0.121092	-1.066608	0.073291
Zn8	Zn	0.128626	-0.943304	0.096538
Zn9	Zn	0.128628	-0.943315	-0.096426
O10	O	0.265771	-0.895301	0.073286
C11	C	0.135552	-0.789215	0.000048
C12	C	0.133722	-0.697472	0.000042
C13	C	-0.043615	-1.001358	0.000052
C14	C	-0.148198	-1.031279	0.000045
C15	C	0.121703	-1.097403	0.000062
C16	C	0.123533	-1.189147	0.000062
C17	C	-0.435898	-0.734025	0.000048
C18	C	-0.534172	-0.762161	0.000051
C19	C	-0.556664	-0.920419	0.000059
C20	C	-0.458389	-0.892297	0.000052
C21	C	-0.398013	-0.799099	0.000047
C22	C	-0.420505	-0.957370	0.000051
C23	C	-0.322239	-0.929249	0.000047
C24	C	-0.261857	-0.836055	0.000045
C25	C	-0.299747	-0.770978	0.000044
C26	C	-0.480882	-1.050568	0.000062
C27	C	-0.442998	-1.115641	0.000061
C28	C	-0.344730	-1.087520	0.000051
C29	C	-0.284349	-0.994326	0.000049
C30	C	-0.306840	-1.152598	0.000053
C31	C	-0.208574	-1.124477	0.000050
C32	C	-0.186083	-0.966206	0.000046
C33	C	0.300870	-0.885260	0.000058
C34	C	0.405453	-0.855340	0.000059
N35	N	0.128625	-0.943302	0.228231
C36	C	0.215316	-0.450596	0.000053
C37	C	0.213589	-0.364396	0.000059
C38	C	0.041932	-0.436032	0.000053
C39	C	0.043660	-0.522229	0.000054
C40	C	0.130355	-0.529508	0.000050
C41	C	0.126900	-0.357111	0.000055
C42	C	0.125027	-0.263649	0.000061
C43	C	0.132228	-0.622975	0.000045
C44	C	0.064583	-1.019169	0.453956
C45	C	0.064582	-1.019171	0.546145
C46	C	0.192672	-0.867447	0.546150
C47	C	0.192668	-0.867443	0.453962
C48	C	0.128625	-0.943308	0.407867
C49	C	0.128627	-0.943315	0.592245
C50	C	0.128625	-0.943318	0.692201
C51	C	0.128625	-0.943305	0.307905
N52	N	0.128627	-0.943321	0.771881
H53	H	-0.181843	-0.813161	0.000048
H54	H	0.285908	-0.456517	0.000056
H55	H	0.244815	-0.805680	0.583690
H56	H	0.282773	-0.300146	0.000064
C57	C	0.044107	-1.138457	0.350227
C58	C	-0.005841	-1.102522	0.403264
H59	H	0.000618	-1.189910	0.318932
H60	H	0.082261	-1.093272	0.309604
H61	H	0.083303	-1.156573	0.386180
H62	H	-0.045033	-1.084399	0.367311
H63	H	-0.044012	-1.147716	0.443892
H64	H	-0.028652	-0.430094	0.000062
H65	H	-0.605834	-0.996301	0.000067
H66	H	-0.250585	-0.695087	0.000033
C67	C	-0.633893	-1.177025	0.000083
C68	C	-0.588899	-1.081483	0.000068
H69	H	-0.700577	-1.196108	0.000093
H70	H	-0.615821	-1.199889	-0.050985
H71	H	-0.615803	-1.199872	0.051162
H72	H	-0.606983	-1.058636	-0.051014
H73	H	-0.606978	-1.058609	0.051141
H74	H	-0.025530	-0.586487	0.000054
C75	C	-0.098493	-1.117217	0.574519
C76	C	-0.005814	-1.102563	0.596804
H77	H	-0.141952	-1.168705	0.605790
H78	H	-0.108739	-1.064833	0.589636
H79	H	-0.107644	-1.128067	0.513016
H80	H	0.003340	-1.091706	0.658306
H81	H	0.004436	-1.154959	0.581692
C82	C	-0.136650	-0.822648	-0.075260
C83	C	-0.119707	-0.863760	0.000032
H84	H	-0.095675	-0.759405	-0.075265
H85	H	-0.125169	-0.850564	-0.126319
H86	H	-0.200596	-0.830083	-0.075249
H87	H	-0.055762	-0.856331	0.000018
H88	H	-0.131180	-0.835835	0.051104
C89	C	-0.423523	-0.580394	0.000029
C90	C	-0.369523	-0.631579	0.000034
H91	H	-0.382544	-0.517152	0.000025
H92	H	-0.462319	-0.594659	-0.051038
H93	H	-0.462317	-0.594649	0.051108
H94	H	-0.330733	-0.617329	-0.051048
H95	H	-0.330710	-0.617308	0.051107
H96	H	0.244819	-0.805663	0.416434
H97	H	-0.565012	-0.709164	0.000065
C98	C	-0.455359	-1.269260	0.000059
C99	C	-0.509367	-1.218082	0.000063
H100	H	-0.496333	-1.332503	0.000063
H101	H	-0.416568	-1.254999	-0.051012
H102	H	-0.416559	-1.254994	0.051134
H103	H	-0.548162	-1.232343	-0.051016
H104	H	-0.548173	-1.232349	0.051139
C105	C	-0.240669	-1.283744	0.000031
C106	C	-0.166924	-1.196004	0.000036
H107	H	-0.214953	-1.327901	0.000017
H108	H	-0.278522	-1.291425	0.051104
H109	H	-0.278534	-1.291414	-0.051042
H110	H	-0.129063	-1.188332	0.051112
H111	H	-0.129055	-1.188320	-0.051043
H112	H	-0.356012	-1.228479	0.000065
