data_functionalizedCrystal
_audit_creation_method	'MofGen! by Chris Wilmer'
_symmetry_space_group_name_H-M	'P1'
_symmetry_Int_Tables_number	1
_symmetry_cell_setting	triclinic
loop_
_symmetry_equiv_pos_as_xyz
  x,y,z
_cell_length_a	13.033293
_cell_length_b	12.759394
_cell_length_c	13.034296
_cell_angle_alpha	82.791097
_cell_angle_beta	76.645775
_cell_angle_gamma	97.183913
loop_
_atom_site_label
_atom_site_type_symbol
_atom_site_fract_x
_atom_site_fract_y
_atom_site_fract_z
Zn1	Zn	1.700376	-0.098226	-0.807233
Zn2	Zn	1.677702	-0.299517	-0.629605
Zn3	Zn	1.500163	-0.149384	-0.607026
Zn4	Zn	1.522718	-0.299418	-0.784588
O5	O	1.600240	-0.211636	-0.707113
O6	O	1.846020	-0.103559	-0.802597
O7	O	1.635222	-0.301054	-0.477961
O8	O	1.526772	0.004434	-0.633612
O9	O	1.829361	-0.251448	-0.672094
O10	O	1.673868	0.042019	-0.780703
O11	O	1.504785	-0.190751	-0.461373
O12	O	1.354503	-0.190654	-0.611653
O13	O	1.565213	-0.251277	-0.936240
O14	O	1.371074	-0.300883	-0.742107
O15	O	1.695738	-0.103462	-0.952877
O16	O	1.657093	-0.446535	-0.650135
O17	O	1.543227	-0.446462	-0.764001
C18	C	1.324245	-0.251310	-0.671973
C19	C	1.206177	-0.268304	-0.656966
C20	C	1.161793	-0.202793	-0.714945
C21	C	1.039763	-0.220356	-0.699436
C22	C	1.600178	-0.484615	-0.707088
C23	C	1.600254	-0.601377	-0.707125
C24	C	1.753336	-0.562081	-0.860380
C25	C	1.829912	-0.597287	-0.937020
C26	C	1.829978	-0.706997	-0.937051
C27	C	1.753458	-0.781504	-0.860436
C28	C	1.676882	-0.746297	-0.783796
C29	C	1.676827	-0.636583	-0.783771
C30	C	1.523797	-0.785593	-0.630547
C31	C	1.523734	-0.675884	-0.630510
C32	C	1.447278	-0.860100	-0.553932
C33	C	1.370705	-0.824893	-0.477285
C34	C	1.370643	-0.715177	-0.477257
C35	C	1.447159	-0.640677	-0.553870
C36	C	1.877312	-0.171808	-0.742390
C37	C	1.995384	-0.154836	-0.757423
C38	C	1.635521	-0.171652	-0.984179
C39	C	1.650555	-0.154613	-1.102249
C40	C	1.600333	0.062416	-0.707165
C41	C	1.600373	0.179201	-0.707187
C42	C	1.592677	-0.220153	-1.146656
C43	C	1.608215	-0.202544	-1.268686
C44	C	1.565157	-0.251380	-0.431132
C45	C	1.550328	-0.268093	-0.313089
H46	H	1.047722	-0.085737	-0.818543
C47	C	1.232495	-0.109460	-0.797516
H48	H	1.305239	-0.109904	-0.797114
H49	H	1.212408	-0.043660	-0.779809
H50	H	1.223468	-0.117247	-0.866580
H51	H	0.987423	-0.289447	-0.638309
C52	C	1.135476	-0.361642	-0.574400
H53	H	1.062734	-0.361207	-0.574814
H54	H	1.144503	-0.353871	-0.505339
H55	H	1.155566	-0.427441	-0.592124
H56	H	1.753299	-0.472748	-0.860354
H57	H	1.892212	-0.536614	-0.999402
C58	C	1.914211	-0.745727	-1.021348
H59	H	1.959778	-0.685646	-1.066969
H60	H	1.879460	-0.787721	-1.062433
H61	H	1.955379	-0.787698	-0.986641
H62	H	1.753511	-0.870833	-0.860476
H63	H	1.669277	-0.133395	-1.321007
C64	C	1.447343	-0.980778	-0.553962
H65	H	1.390801	-1.020106	-0.497363
H66	H	1.513585	-0.998336	-0.544376
H67	H	1.437661	-0.998347	-0.620162
C68	C	1.733040	-0.061200	-1.172920
H69	H	1.767343	-0.022369	-1.129235
H70	H	1.697896	-0.015061	-1.211035
H71	H	1.784787	-0.088547	-1.222077
H72	H	1.308404	-0.885564	-0.414916
H73	H	1.489273	-0.337248	-1.260770
H74	H	1.447119	-0.551344	-0.553850
C75	C	1.286407	-0.676458	-0.392952
H76	H	1.240854	-0.736546	-0.347329
H77	H	1.245241	-0.634480	-0.427643
H78	H	1.321165	-0.634475	-0.351856
C79	C	1.510194	-0.313565	-1.075980
H80	H	1.510566	-0.313141	-1.003232
H81	H	1.528003	-0.379329	-1.096073
H82	H	1.441114	-0.305840	-1.085022
