data_functionalizedCrystal
_audit_creation_method	'MofGen! by Chris Wilmer'
_symmetry_space_group_name_H-M	'P1'
_symmetry_Int_Tables_number	1
_symmetry_cell_setting	triclinic
loop_
_symmetry_equiv_pos_as_xyz
  x,y,z
_cell_length_a	9.065215
_cell_length_b	10.540558
_cell_length_c	8.140239
_cell_angle_alpha	90.000759
_cell_angle_beta	89.999364
_cell_angle_gamma	95.226094
loop_
_atom_site_label
_atom_site_type_symbol
_atom_site_fract_x
_atom_site_fract_y
_atom_site_fract_z
O1	O	1.959479	-0.186130	0.136566
O2	O	2.459479	0.313870	0.636566
O3	O	1.530118	-0.201402	0.136571
O4	O	2.030118	0.298598	0.636571
O5	O	1.754580	-0.009097	0.136586
O6	O	2.254580	0.490903	0.636586
O7	O	1.735017	-0.378435	0.136551
O8	O	2.235017	0.121565	0.636551
O9	O	1.754580	-0.009084	-0.136641
O10	O	2.254580	0.490916	0.363359
O11	O	1.530119	-0.201389	-0.136656
O12	O	2.030119	0.298611	0.363344
O13	O	1.959479	-0.186117	-0.136661
O14	O	2.459479	0.313883	0.363339
Zn15	Zn	1.744799	-0.193751	-0.180039
Zn16	Zn	2.244799	0.306249	0.319961
Zn17	Zn	1.744798	-0.193768	0.179949
Zn18	Zn	2.244798	0.306232	0.679949
O19	O	1.735018	-0.378422	-0.136676
O20	O	2.235018	0.121578	0.363324
C21	C	1.475139	-0.199928	-0.000041
C22	C	1.975139	0.300072	0.499959
C23	C	1.311317	-0.195542	-0.000038
C24	C	1.811317	0.304458	0.499962
C25	C	1.753107	0.038218	-0.000020
C26	C	2.253107	0.538218	0.499980
C27	C	1.748701	0.179181	0.000004
C28	C	2.248701	0.679181	0.500004
C29	C	1.580252	0.363227	0.000639
C30	C	2.080252	0.863227	0.500639
C31	C	1.584719	0.216594	0.000009
C32	C	2.084719	0.716594	0.500009
C33	C	1.827610	0.240554	-0.156017
C34	C	2.327610	0.740554	0.343983
C35	C	1.822002	0.387118	-0.156133
C36	C	2.322002	0.887118	0.343867
C37	C	1.825336	0.387610	0.154578
C38	C	2.325336	0.887610	0.654578
C39	C	1.826858	0.240623	0.156625
C40	C	2.326858	0.740623	0.656625
C41	C	2.014458	-0.187590	-0.000045
C42	C	2.514458	0.312410	0.499955
C43	C	2.178280	-0.191976	-0.000037
C44	C	2.678280	0.308024	0.499963
C45	C	1.736471	0.574262	-0.000040
C46	C	2.236471	1.074262	0.499960
C47	C	1.740819	0.433293	0.000026
C48	C	2.240819	0.933293	0.500026
N49	N	1.744798	-0.193770	0.425632
N50	N	2.244798	0.306230	0.925632
N51	N	1.744802	-0.193749	0.574278
N52	N	2.244802	0.306251	1.074278
H53	H	1.522629	0.174215	0.111851
H54	H	2.022629	0.674215	0.611851
H55	H	1.772262	0.419353	0.272840
H56	H	2.272262	0.919353	0.772840
Br57	Br	1.480497	0.147378	-0.186718
Br58	Br	1.980497	0.647378	0.313282
H59	H	1.946413	0.215961	0.166042
H60	H	2.446413	0.715961	0.666042
Br61	Br	1.736255	0.169905	-0.349553
Br62	Br	2.236255	0.669905	0.150447
H63	H	1.515738	0.393678	-0.110618
H64	H	2.015738	0.893678	0.389382
Br65	Br	1.472274	0.411278	0.187140
Br66	Br	1.972274	0.911278	0.687140
Br67	Br	1.731448	0.172043	0.349034
Br68	Br	2.231448	0.672043	0.849034
H69	H	1.943774	0.434398	0.155630
H70	H	2.443774	0.934398	0.655630
H71	H	1.763679	0.415538	-0.272761
H72	H	2.263679	0.915538	0.227239
H73	H	1.939930	0.434652	-0.163208
H74	H	2.439930	0.934652	0.336792
Br75	Br	2.028326	0.202565	-0.165703
Br76	Br	2.528326	0.702565	0.334297
