data_functionalizedCrystal
_audit_creation_method	'MofGen! by Chris Wilmer'
_symmetry_space_group_name_H-M	'P1'
_symmetry_Int_Tables_number	1
_symmetry_cell_setting	triclinic
loop_
_symmetry_equiv_pos_as_xyz
  x,y,z
_cell_length_a	6.817900
_cell_length_b	11.168129
_cell_length_c	10.943624
_cell_angle_alpha	91.899126
_cell_angle_beta	108.838799
_cell_angle_gamma	108.508637
loop_
_atom_site_label
_atom_site_type_symbol
_atom_site_fract_x
_atom_site_fract_y
_atom_site_fract_z
V1	V	-4.113778	-0.174672	-0.402562
O2	O	-4.073287	0.008428	-0.394888
O3	O	-4.090040	-0.346377	-0.399820
O4	O	-4.091767	-0.171970	-0.578129
O5	O	-4.071548	-0.167187	-0.215345
V6	V	-4.590791	-0.152773	-0.380168
O7	O	-4.389317	-0.222709	-0.451686
O8	O	-4.765449	-0.104735	-0.331045
O9	O	-4.391322	0.018933	-0.382910
O10	O	-4.748678	-0.335872	-0.387843
O11	O	-4.750417	-0.160257	-0.567386
O12	O	-4.389595	-0.155474	-0.204602
C13	C	-3.940186	-0.388236	-0.393473
C14	C	-4.002240	-0.528607	-0.392401
C15	C	-3.972006	-0.574062	-0.279559
C16	C	-4.036141	-0.719143	-0.278449
C17	C	-3.942388	-0.165760	-0.620921
C18	C	-4.005838	-0.164687	-0.764447
C19	C	-3.850739	-0.157463	-0.841594
C20	C	-4.039043	-0.264698	-0.947591
C21	C	-3.930618	-0.055553	-0.914191
C22	C	-4.193352	-0.272023	-0.868568
C23	C	-4.084848	-0.062784	-0.835144
C24	C	-4.273288	-0.170049	-0.941111
C25	C	-4.204518	0.060785	-0.389255
C26	C	-4.121703	0.201155	-0.390335
C27	C	-4.202316	-0.161688	-0.161803
C28	C	-4.118103	-0.162754	-0.018275
H29	H	-4.010348	-0.758299	-0.181838
O30	O	-4.106677	0.039100	-0.776516
C31	C	-3.925658	0.230294	-0.617426
C32	C	-3.900679	0.114937	-0.683702
H33	H	-3.759125	0.291654	-0.542391
H34	H	-4.050758	0.195122	-0.566579
H35	H	-3.985575	0.289554	-0.694324
H36	H	-3.840693	0.055629	-0.606886
H37	H	-3.775644	0.150195	-0.734576
H38	H	-3.671590	-0.152285	-0.798146
H39	H	-4.303834	-0.363609	-0.848029
H40	H	-4.452550	-0.175396	-0.984356
H41	H	-3.820169	0.035911	-0.934948
H42	H	-4.147478	-0.759697	-0.486949
H43	H	-4.075613	-0.597099	-0.488187
O44	O	-4.017151	-0.366633	-1.006098
C45	C	-4.198702	-0.559025	-1.163549
C46	C	-4.223837	-0.443670	-1.097378
H47	H	-4.365773	-0.621327	-1.237382
H48	H	-4.135835	-0.617348	-1.086470
H49	H	-4.075828	-0.523741	-1.215846
H50	H	-4.346739	-0.478843	-1.045085
H51	H	-4.286597	-0.385370	-1.174515
O52	O	-3.884368	-0.492183	-0.165395
C53	C	-3.740750	-0.272937	-0.062418
C54	C	-3.839931	-0.365516	-0.191805
H55	H	-3.704837	-0.170509	-0.083726
H56	H	-3.580737	-0.284867	0.001087
H57	H	-3.863412	-0.294916	-0.008823
H58	H	-3.717436	-0.343596	-0.245508
H59	H	-3.999983	-0.353568	-0.255215
