data_functionalizedCrystal
_audit_creation_method	'MofGen! by Chris Wilmer'
_symmetry_space_group_name_H-M	'P1'
_symmetry_Int_Tables_number	1
_symmetry_cell_setting	triclinic
loop_
_symmetry_equiv_pos_as_xyz
  x,y,z
_cell_length_a	17.699083
_cell_length_b	17.699103
_cell_length_c	16.176319
_cell_angle_alpha	89.991593
_cell_angle_beta	90.000050
_cell_angle_gamma	83.287038
loop_
_atom_site_label
_atom_site_type_symbol
_atom_site_fract_x
_atom_site_fract_y
_atom_site_fract_z
O1	O	-1.004084	-0.095709	0.068640
O2	O	-0.783707	-0.108161	0.068668
O3	O	-0.900114	0.008253	0.068637
O4	O	-0.887677	-0.212123	0.068670
O5	O	-0.900100	0.008254	-0.068856
O6	O	-0.783693	-0.108161	-0.068825
O7	O	-1.004071	-0.095708	-0.068853
Cu8	Cu	-0.893881	-0.101935	-0.081394
Cu9	Cu	-0.893897	-0.101935	0.081208
O10	O	-0.887664	-0.212123	-0.068823
C11	C	-0.755503	-0.107715	-0.000075
C12	C	-0.671485	-0.106376	-0.000065
C13	C	-0.899659	0.036450	-0.000112
C14	C	-0.898315	0.120467	-0.000118
C15	C	-1.032275	-0.096155	-0.000108
C16	C	-1.116293	-0.097493	-0.000113
C17	C	-0.888119	-0.240320	-0.000072
C18	C	-0.889463	-0.324337	-0.000060
C19	C	-0.622869	-0.174709	-0.000055
C20	C	-0.543925	-0.173447	-0.000066
C21	C	-0.513600	-0.103851	-0.000081
C22	C	-0.562222	-0.035513	-0.000094
C23	C	-0.641164	-0.036776	-0.000089
C24	C	-0.243859	-0.030418	-0.000115
C25	C	-0.164910	-0.029160	-0.000117
C26	C	-0.146620	-0.167088	-0.000092
C27	C	-0.225562	-0.168351	-0.000087
C28	C	-0.274177	-0.100014	-0.000104
C29	C	-0.359777	-0.101383	-0.000094
C30	C	-0.428002	-0.102480	-0.000085
C31	C	-0.890098	0.636179	0.074884
C32	C	-0.891360	0.557235	0.074877
C33	C	-0.891982	0.517777	-0.000076
C34	C	-0.891350	0.557267	-0.075026
C35	C	-0.890093	0.636210	-0.075017
C36	C	-0.896420	0.238901	-0.075061
C37	C	-0.897674	0.159953	-0.075063
C38	C	-0.897687	0.159926	0.074833
C39	C	-0.896430	0.238869	0.074842
C40	C	-0.895802	0.278353	-0.000108
C41	C	-0.894434	0.363952	-0.000099
C42	C	-0.893344	0.432178	-0.000086
N43	N	-0.893875	-0.101934	-0.195759
C44	C	-0.939693	-0.147782	-0.239018
C45	C	-0.939701	-0.147779	-0.325565
C46	C	-0.893887	-0.101932	-0.368851
C47	C	-0.848067	-0.056078	-0.325586
C48	C	-0.848063	-0.056077	-0.239040
C49	C	-0.848081	-0.056079	-0.674614
C50	C	-0.848086	-0.056085	-0.761166
C51	C	-0.939719	-0.147781	-0.761139
C52	C	-0.939715	-0.147780	-0.674594
C53	C	-0.893899	-0.101924	-0.631336
C54	C	-0.893891	-0.101926	-0.537491
C55	C	-0.893889	-0.101933	-0.462694
N56	N	-0.893909	-0.101930	0.195573
H57	H	-0.647553	-0.231382	-0.000042
H58	H	-0.889584	0.668299	0.135920
H59	H	-0.891878	0.525091	0.135904
H60	H	-0.537525	0.021153	-0.000118
H61	H	-0.977019	-0.185117	-0.639354
O62	O	-0.895737	0.281427	0.155682
H63	H	-0.896389	0.240707	0.207796
O64	O	-0.693606	0.036925	-0.000097
H65	H	-0.659258	0.085532	-0.000101
O66	O	-0.798677	-0.006630	-0.807864
H67	H	-0.835048	0.034076	-0.847306
H68	H	-0.810774	-0.018740	-0.639404
O69	O	-0.798662	-0.006619	-0.372274
H70	H	-0.766809	0.025271	-0.327650
O71	O	-0.898373	0.117343	0.155677
H72	H	-0.899360	0.055821	0.143085
H73	H	-0.140223	0.027517	-0.000131
O74	O	-0.296290	0.043285	-0.000133
H75	H	-0.261937	0.091889	-0.000137
O76	O	-0.892028	0.514712	-0.155869
H77	H	-0.840223	0.523041	-0.191807
H78	H	-0.898177	0.127827	-0.136103
H79	H	-0.107027	-0.222732	-0.000083
O80	O	-0.491486	-0.247148	-0.000056
H81	H	-0.525836	-0.295754	-0.000034
O82	O	-0.258273	-0.243414	-0.000083
H83	H	-0.211203	-0.290720	-0.000090
H84	H	-0.977027	-0.185117	-0.796370
H85	H	-0.895909	0.271039	-0.136089
H86	H	-0.889576	0.668357	-0.136045
H87	H	-0.976996	-0.185121	-0.203781
O88	O	-0.798641	-0.006632	-0.192375
H89	H	-0.766777	0.025243	-0.237013
H90	H	-0.977012	-0.185112	-0.360783
