data_functionalizedCrystal
_audit_creation_method	'MofGen! by Chris Wilmer'
_symmetry_space_group_name_H-M	'P1'
_symmetry_Int_Tables_number	1
_symmetry_cell_setting	triclinic
loop_
_symmetry_equiv_pos_as_xyz
  x,y,z
_cell_length_a	15.298114
_cell_length_b	16.625545
_cell_length_c	15.296720
_cell_angle_alpha	99.644199
_cell_angle_beta	110.778933
_cell_angle_gamma	80.363393
loop_
_atom_site_label
_atom_site_type_symbol
_atom_site_fract_x
_atom_site_fract_y
_atom_site_fract_z
Zn1	Zn	1.330607	-0.569790	-0.279352
Zn2	Zn	1.357419	-0.684729	-0.123854
Zn3	Zn	1.202023	-0.530073	-0.150813
Zn4	Zn	1.175060	-0.684715	-0.306276
O5	O	1.266277	-0.617327	-0.215074
O6	O	1.464295	-0.601665	-0.236175
O7	O	1.359311	-0.647597	0.002709
O8	O	1.219144	-0.422521	-0.167879
O9	O	1.483994	-0.686110	-0.121931
O10	O	1.313614	-0.451702	-0.262316
O11	O	1.245142	-0.533973	-0.017098
O12	O	1.068316	-0.533959	-0.193985
O13	O	1.173188	-0.686086	-0.432843
O14	O	1.048506	-0.647574	-0.308203
O15	O	1.287468	-0.601651	-0.413062
O16	O	1.333166	-0.797547	-0.148037
O17	O	1.199187	-0.797537	-0.282062
C18	C	1.024669	-0.586456	-0.256942
C19	C	0.921304	-0.573271	-0.274875
C20	C	0.671021	-0.711594	-0.087130
C21	C	0.768139	-0.723980	-0.070274
C22	C	0.806435	-0.686304	-0.121423
C23	C	0.747603	-0.636240	-0.189431
C24	C	0.650477	-0.623848	-0.206283
C25	C	0.785891	-0.598558	-0.240576
C26	C	0.727060	-0.548493	-0.308584
C27	C	0.629943	-0.536104	-0.325434
C28	C	0.591647	-0.573780	-0.274285
C29	C	0.883017	-0.610950	-0.223723
C30	C	0.862474	-0.523203	-0.342876
C31	C	0.765356	-0.510818	-0.359733
C32	C	1.266182	-0.826801	-0.215062
C33	C	1.266220	-0.916430	-0.215073
C34	C	1.266253	-0.989219	-0.215085
C35	C	1.266304	-1.080537	-0.215097
C36	C	1.266350	-1.153321	-0.215100
C37	C	1.266400	-1.244645	-0.215110
C38	C	1.508829	-0.648319	-0.173043
C39	C	1.612191	-0.661526	-0.155132
C40	C	1.224330	-0.648298	-0.457640
C41	C	1.206454	-0.661495	-0.561007
C42	C	1.266396	-0.407040	-0.215101
C43	C	1.266446	-0.317429	-0.215113
C44	C	1.394072	-0.522863	-0.811186
C45	C	1.410873	-0.510465	-0.714066
C46	C	1.359769	-0.548221	-0.675796
C47	C	1.291863	-0.598378	-0.734656
C48	C	1.275065	-0.610782	-0.831784
C49	C	1.240763	-0.636141	-0.696395
C50	C	1.172856	-0.686298	-0.755254
C51	C	1.156061	-0.698699	-0.852373
C52	C	1.207165	-0.660943	-0.890643
C53	C	1.257560	-0.623736	-0.599267
C54	C	1.138554	-0.711656	-0.619865
C55	C	1.121753	-0.724054	-0.716985
C56	C	1.308116	-0.586425	0.026558
C57	C	1.326171	-0.573023	0.129956
H58	H	0.717442	-0.470054	-0.415105
O59	O	1.443850	-0.486290	-0.848294
C60	C	1.596921	-0.471134	-0.850568
C61	C	1.540654	-0.512627	-0.808485
H62	H	1.675199	-0.492398	-0.818385
H63	H	1.573333	-0.488632	-0.930091
H64	H	1.583883	-0.401600	-0.834336
H65	H	1.553665	-0.582168	-0.824647
H66	H	1.564253	-0.495062	-0.728974
O67	O	0.633979	-0.748221	-0.037338
C68	C	0.664582	-0.836600	0.082580
C69	C	0.706657	-0.795152	0.026269
H70	H	0.723320	-0.874567	0.134006
H71	H	0.627548	-0.787547	0.123308
H72	H	0.611706	-0.878418	0.032058
H73	H	0.759570	-0.753338	0.076725
H74	H	0.743631	-0.844248	-0.014471
H75	H	0.512566	-0.563701	-0.288008
O76	O	1.089053	-0.748378	-0.582576
C77	C	1.095444	-0.841659	-0.475108
C78	C	1.151611	-0.800115	-0.517254
H79	H	1.145996	-0.883510	-0.422301
H80	H	1.054730	-0.792661	-0.438004
H81	H	1.044006	-0.879606	-0.533877
H82	H	1.203097	-0.762172	-0.458541
H83	H	1.192260	-0.849153	-0.554382
H84	H	1.466165	-0.469629	-0.666149
O85	O	0.825421	-0.772560	-0.004228
C86	C	0.984136	-0.830582	0.074495
C87	C	0.919373	-0.775523	-0.000314
H88	H	1.060107	-0.833009	0.077670
H89	H	0.978065	-0.804320	0.146173
H90	H	0.962162	-0.895232	0.054977
H91	H	0.941304	-0.710862	0.019115
H92	H	0.925451	-0.801852	-0.071971
H93	H	0.893654	-0.492522	-0.384524
O94	O	0.572923	-0.487470	-0.391552
C95	C	0.562806	-0.401703	-0.507914
C96	C	0.627483	-0.456776	-0.433080
H97	H	0.606894	-0.376858	-0.541497
H98	H	0.508951	-0.439157	-0.564413
H99	H	0.524691	-0.348274	-0.473179
H100	H	0.665662	-0.510214	-0.467731
H101	H	0.681281	-0.419265	-0.376589
H102	H	1.373453	-0.538124	-0.596717
O103	O	1.323409	-0.574889	-0.542160
C104	C	1.373793	-0.439735	-0.504700
C105	C	1.299138	-0.494965	-0.569424
H106	H	1.354207	-0.375110	-0.526731
H107	H	1.377025	-0.437278	-0.428697
H108	H	1.445461	-0.465955	-0.510793
H109	H	1.227432	-0.468788	-0.563412
H110	H	1.295988	-0.497421	-0.645399
O111	O	1.090235	-0.747543	-0.909561
C112	C	1.058710	-0.868784	-1.021387
C113	C	1.133352	-0.813545	-0.956652
H114	H	1.093538	-0.922150	-1.059492
H115	H	1.025087	-0.893705	-0.977386
H116	H	1.002225	-0.831350	-1.075258
H117	H	1.189893	-0.850924	-0.902770
H118	H	1.166901	-0.788620	-1.000714
O119	O	0.940297	-0.659530	-0.157676
C120	C	1.099008	-0.717555	-0.078945
C121	C	1.034251	-0.662497	-0.153758
H122	H	1.174981	-0.719986	-0.075768
H123	H	1.092936	-0.691290	-0.007269
H124	H	1.077031	-0.782204	-0.098462
H125	H	1.056185	-0.597837	-0.134330
H126	H	1.040331	-0.688830	-0.225414
H127	H	1.193489	-0.671035	-0.969725
O128	O	1.055670	-0.772672	-0.774146
C129	C	0.892336	-0.795416	-0.831234
C130	C	0.967074	-0.740276	-0.766477
H131	H	0.820693	-0.769255	-0.825041
H132	H	0.889030	-0.797781	-0.907246
H133	H	0.911977	-0.860077	-0.809304
H134	H	0.947488	-0.675589	-0.788322
H135	H	0.970366	-0.737981	-0.690480
H136	H	0.885513	-0.696392	-0.107694
