data_functionalizedCrystal
_audit_creation_method	'MofGen! by Chris Wilmer'
_symmetry_space_group_name_H-M	'P1'
_symmetry_Int_Tables_number	1
_symmetry_cell_setting	triclinic
loop_
_symmetry_equiv_pos_as_xyz
  x,y,z
_cell_length_a	8.597340
_cell_length_b	15.995350
_cell_length_c	7.681481
_cell_angle_alpha	84.260013
_cell_angle_beta	103.474906
_cell_angle_gamma	84.418396
loop_
_atom_site_label
_atom_site_type_symbol
_atom_site_fract_x
_atom_site_fract_y
_atom_site_fract_z
O1	O	2.099847	0.115793	0.172165
O2	O	1.635787	0.129134	0.101756
O3	O	1.880502	0.000575	0.138887
O4	O	1.855131	0.244351	0.135034
O5	O	1.910623	-0.015284	0.436315
O6	O	1.665907	0.113274	0.399184
O7	O	2.129968	0.099933	0.469593
Zn8	Zn	1.902720	0.104086	0.481611
Zn9	Zn	1.863035	0.124981	0.089737
O10	O	1.885252	0.228492	0.432462
C11	C	1.591463	0.120655	0.241460
C12	C	1.414519	0.119008	0.214613
C13	C	1.894514	-0.038549	0.287438
C14	C	1.891368	-0.131499	0.286951
C15	C	1.880076	-0.469246	0.285244
C16	C	1.705726	-0.421772	0.258134
C17	C	1.708939	-0.325117	0.259281
C18	C	1.885677	-0.301686	0.286090
C19	C	1.988839	-0.351822	0.468975
C20	C	1.984475	-0.448465	0.468453
C21	C	1.953823	-0.430789	0.130768
C22	C	1.953554	-0.333724	0.128517
C23	C	1.888852	-0.206989	0.286575
C24	C	1.876907	-0.563945	0.284771
C25	C	2.174291	0.108412	0.329885
C26	C	2.351234	0.110060	0.356720
N27	N	1.929815	0.089825	0.749057
C28	C	1.871240	0.267616	0.283907
C29	C	1.874385	0.360567	0.284382
N30	N	1.835952	0.139235	-0.177706
H31	H	1.629038	-0.290201	0.127279
C32	C	1.706498	0.207366	0.701064
N33	N	1.608989	0.258682	0.609742
H34	H	1.934649	-0.473535	0.585907
H35	H	1.432423	0.103652	0.498930
H36	H	1.623733	-0.433807	0.125768
C37	C	1.304832	0.127659	0.022479
N38	N	1.222214	0.134176	-0.122234
H39	H	1.883805	-0.444463	-0.006608
H40	H	1.648642	-0.447822	0.368731
H41	H	2.119323	-0.338037	0.494986
H42	H	1.941934	-0.330178	0.586312
C43	C	1.633730	-0.296253	0.410104
N44	N	1.577082	-0.274513	0.523712
H45	H	2.113210	-0.481128	0.495568
C46	C	2.059275	0.021690	0.870295
N47	N	2.156780	-0.029629	0.961613
C48	C	1.851537	-0.287810	-0.054102
N49	N	1.774683	-0.253231	-0.191649
H50	H	2.081400	-0.317818	0.137811
H51	H	2.082204	-0.462492	0.149117
