data_functionalizedCrystal
_audit_creation_method	'MofGen! by Chris Wilmer'
_symmetry_space_group_name_H-M	'P1'
_symmetry_Int_Tables_number	1
_symmetry_cell_setting	triclinic
loop_
_symmetry_equiv_pos_as_xyz
  x,y,z
_cell_length_a	17.038272
_cell_length_b	9.130313
_cell_length_c	10.654550
_cell_angle_alpha	89.998034
_cell_angle_beta	87.798230
_cell_angle_gamma	89.997715
loop_
_atom_site_label
_atom_site_type_symbol
_atom_site_fract_x
_atom_site_fract_y
_atom_site_fract_z
O1	O	1.038890	0.121610	0.272855
O2	O	0.811235	0.121653	0.268522
O3	O	0.930297	0.121625	0.088435
O4	O	0.919828	0.121638	0.452942
O5	O	0.930288	-0.121974	0.088448
O6	O	0.811227	-0.121946	0.268535
O7	O	1.038882	-0.121989	0.272868
Cu8	Cu	0.925053	-0.144210	0.270703
Cu9	Cu	0.925063	0.143874	0.270687
O10	O	0.919820	-0.121961	0.452955
C11	C	0.782081	-0.000141	0.264588
C12	C	0.695222	-0.000124	0.252831
N13	N	0.925052	-0.346832	0.270713
C14	C	0.877209	-0.576827	0.189357
C15	C	0.877202	-0.423491	0.189376
C16	C	0.972919	-0.423519	0.352027
C17	C	0.972930	-0.576853	0.352001
C18	C	0.821946	-0.576810	0.095456
C19	C	0.821938	-0.423473	0.095475
C20	C	0.645711	-0.000122	0.360775
C21	C	0.564098	-0.000142	0.349720
C22	C	0.531999	-0.000155	0.230720
C23	C	0.581517	-0.000162	0.122768
C24	C	0.663127	-0.000152	0.133824
C25	C	0.286023	-0.000195	0.191663
C26	C	0.204406	-0.000201	0.180615
C27	C	0.186993	-0.000184	0.407568
C28	C	0.268606	-0.000165	0.418614
C29	C	0.318117	-0.000180	0.310661
C30	C	0.448578	-0.000171	0.219418
C31	C	0.401536	-0.000174	0.321965
C32	C	1.068036	-0.000192	0.276802
C33	C	1.154895	-0.000199	0.288559
C34	C	0.929524	-0.000172	0.041572
C35	C	0.927224	-0.000167	-0.098084
N36	N	0.925071	0.346497	0.270667
C37	C	0.997326	-0.000184	-0.171061
C38	C	0.995160	-0.000174	-0.302283
C39	C	0.852785	-0.000134	-0.287540
C40	C	0.854952	-0.000134	-0.156320
C41	C	1.079525	-0.000214	-0.179574
C42	C	1.077359	-0.000203	-0.310796
C43	C	0.920593	-0.000160	0.499817
C44	C	0.922892	-0.000156	0.639474
H45	H	1.011911	-0.639277	0.418199
N46	N	1.112344	-0.132173	-0.131812
N47	N	1.080746	-0.252717	-0.153170
H48	H	1.103921	-0.345918	-0.119438
N49	N	1.116205	-0.128102	-0.359560
N50	N	1.145344	-0.218227	-0.286307
H51	H	1.172777	-0.308554	-0.320744
N52	N	0.852833	-0.363852	-0.020301
N53	N	0.811021	-0.282971	-0.084787
H54	H	0.832853	-0.240893	-0.166557
H55	H	0.146673	-0.000175	0.495456
N56	N	0.783344	-0.000074	-0.081778
N57	N	0.735451	0.102634	-0.091504
H58	H	0.684874	0.102680	-0.038858
H59	H	0.427675	-0.000172	0.418854
H60	H	1.111679	0.101719	-0.147236
N61	N	0.744535	-0.371298	0.127047
N62	N	0.732715	-0.292618	0.221903
H63	H	0.678049	-0.255779	0.244200
H64	H	1.011884	-0.361092	0.418245
N65	N	0.678483	-0.000095	0.482342
N66	N	0.634263	-0.000096	0.578710
H67	H	0.657405	-0.000081	0.664571
N68	N	0.846112	-0.628964	-0.026557
N69	N	0.863136	-0.539964	-0.112498
H70	H	0.880204	-0.576796	-0.198668
N71	N	1.108520	0.131746	-0.365159
N72	N	1.133668	0.230550	-0.296141
H73	H	1.155671	0.323741	-0.334535
H74	H	0.763035	-0.624388	0.129450
N75	N	0.513531	-0.000172	0.459991
N76	N	0.516834	-0.102854	0.537207
H77	H	0.481123	-0.102882	0.615095
N78	N	0.301379	-0.000133	0.540180
N79	N	0.257163	-0.000122	0.636551
H80	H	0.280308	-0.000090	0.722410
N81	N	0.171629	-0.000211	0.059043
N82	N	0.215842	-0.000223	-0.037333
H83	H	0.192693	-0.000228	-0.123189
N84	N	0.336578	-0.000204	0.081383
N85	N	0.307905	-0.000207	-0.024856
H86	H	0.343612	-0.000210	-0.102748
N87	N	0.548718	-0.000190	0.001221
N88	N	0.475851	-0.000198	-0.008637
H89	H	0.452687	-0.000215	-0.094482
H90	H	0.703439	-0.000153	0.045924
H91	H	0.422434	-0.000223	0.122528
N92	N	0.778972	-0.000125	-0.347052
N93	N	0.761879	-0.102802	-0.418632
H94	H	0.709747	-0.102799	-0.460663
