data_functionalizedCrystal
_audit_creation_method	'MofGen! by Chris Wilmer'
_symmetry_space_group_name_H-M	'P1'
_symmetry_Int_Tables_number	1
_symmetry_cell_setting	triclinic
loop_
_symmetry_equiv_pos_as_xyz
  x,y,z
_cell_length_a	23.532407
_cell_length_b	23.532407
_cell_length_c	22.010155
_cell_angle_alpha	90.000423
_cell_angle_beta	89.994271
_cell_angle_gamma	97.151288
loop_
_atom_site_label
_atom_site_type_symbol
_atom_site_fract_x
_atom_site_fract_y
_atom_site_fract_z
O1	O	0.755264	-0.069127	-0.050493
O2	O	0.589400	-0.079130	-0.050503
O3	O	0.677334	0.008803	-0.050487
O4	O	0.667330	-0.157061	-0.050510
O5	O	0.677318	0.008790	0.050564
O6	O	0.589384	-0.079144	0.050547
O7	O	0.755248	-0.069141	0.050557
Cu8	Cu	0.672315	-0.074143	0.059779
Cu9	Cu	0.672333	-0.074128	-0.059725
O10	O	0.667314	-0.157074	0.050541
C11	C	0.568176	-0.078882	0.000021
C12	C	0.504959	-0.078116	0.000017
C13	C	0.677071	0.030012	0.000040
C14	C	0.676305	0.093229	0.000045
N15	N	0.672305	-0.074154	0.143831
C16	C	0.238792	-0.022921	0.000041
C17	C	0.298192	-0.023632	0.000041
O18	O	0.334937	0.020153	0.000068
N19	N	0.320818	-0.075909	0.000030
C20	C	0.284041	-0.127477	0.000025
O21	O	0.308740	-0.172007	0.000016
C22	C	0.224642	-0.126765	0.000029
C23	C	0.202019	-0.074485	0.000035
C24	C	0.216168	0.029354	0.000047
C25	C	0.156772	0.030066	0.000046
C26	C	0.119999	-0.021499	0.000039
C27	C	0.142623	-0.073774	0.000034
C28	C	0.187865	-0.178333	0.000029
C29	C	0.128463	-0.177616	0.000034
C30	C	0.105840	-0.125336	0.000039
C31	C	0.046454	-0.124627	0.000026
N32	N	0.023828	-0.072351	0.000037
C33	C	0.060600	-0.020787	0.000044
C34	C	0.408783	-0.128968	0.000016
C35	C	0.468181	-0.129681	0.000007
C36	C	0.482328	-0.025836	0.000025
C37	C	0.422929	-0.025124	0.000029
C38	C	0.386157	-0.076692	0.000027
C39	C	-0.064136	-0.019297	0.000042
C40	C	-0.123538	-0.018590	0.000038
C41	C	-0.137680	-0.122435	0.000024
C42	C	-0.078284	-0.123142	0.000024
C43	C	-0.041512	-0.071568	0.000035
O44	O	0.009675	-0.168390	0.000001
O45	O	0.035892	0.023737	0.000061
C46	C	0.776472	-0.069389	0.000032
C47	C	0.839689	-0.070155	0.000032
C48	C	0.667577	-0.178283	0.000013
C49	C	0.668343	-0.241500	0.000004
C50	C	0.723538	0.492332	0.000014
C51	C	0.722827	0.551733	0.000010
O52	O	0.766613	0.588477	-0.000010
N53	N	0.670551	0.574359	0.000007
C54	C	0.618982	0.537581	0.000002
O55	O	0.574452	0.562281	-0.000001
C56	C	0.619695	0.478182	0.000003
C57	C	0.671974	0.455559	0.000012
C58	C	0.775814	0.469709	0.000023
C59	C	0.776525	0.410313	0.000028
C60	C	0.724961	0.373540	0.000026
C61	C	0.672685	0.396163	0.000018
C62	C	0.568127	0.441406	-0.000006
C63	C	0.568843	0.382003	-0.000006
C64	C	0.621123	0.359381	0.000003
C65	C	0.621832	0.299994	0.000021
N66	N	0.674109	0.277368	0.000024
C67	C	0.725673	0.314141	0.000026
C68	C	0.617491	0.662324	0.000001
C69	C	0.616778	0.721722	0.000005
C70	C	0.720623	0.735869	0.000011
C71	C	0.721335	0.676470	0.000011
C72	C	0.669767	0.639698	0.000004
C73	C	0.727163	0.189404	0.000039
C74	C	0.727869	0.130002	0.000047
C75	C	0.624025	0.115860	0.000038
C76	C	0.623318	0.175257	0.000033
C77	C	0.674891	0.212028	0.000031
O78	O	0.578069	0.263215	0.000038
O79	O	0.770196	0.289433	0.000022
N80	N	0.672347	-0.074113	-0.143777
C81	C	0.711273	-0.035196	0.563618
C82	C	0.711275	-0.035192	0.627226
O83	O	0.744383	-0.002077	0.660123
N84	N	0.672333	-0.074116	0.659038
C85	C	0.633382	-0.113042	0.627240
O86	O	0.600259	-0.146148	0.660140
C87	C	0.633377	-0.113042	0.563634
C88	C	0.672326	-0.074120	0.531824
C89	C	0.750217	0.003723	0.531809
C90	C	0.750215	0.003718	0.468205
C91	C	0.711268	-0.035206	0.436412
C92	C	0.672323	-0.074125	0.468221
C93	C	0.594424	-0.151965	0.531837
C94	C	0.594422	-0.151962	0.468226
C95	C	0.633370	-0.113040	0.436417
C96	C	0.633374	-0.113054	0.372824
N97	N	0.672316	-0.074131	0.341012
C98	C	0.711263	-0.035207	0.372805
C99	C	0.633395	-0.113037	0.760818
C100	C	0.633402	-0.113039	0.824423
C101	C	0.711294	-0.035189	0.824404
C102	C	0.711290	-0.035189	0.760798
C103	C	0.672337	-0.074113	0.729005
C104	C	0.711256	-0.035220	0.239234
C105	C	0.711252	-0.035230	0.175625
C106	C	0.633358	-0.113078	0.175650
C107	C	0.633364	-0.113070	0.239253
C108	C	0.672315	-0.074137	0.271043
O109	O	0.600282	-0.146151	0.339886
O110	O	0.744376	-0.002101	0.339898
H111	H	-0.034204	0.022699	0.000050
N112	N	0.753273	0.006765	0.273517
H113	H	0.731665	0.031880	0.299910
H114	H	0.777932	0.031375	0.243668
N115	N	0.753264	0.006750	0.141316
H116	H	0.777935	0.031409	0.171113
H117	H	0.731606	0.031817	0.114926
N118	N	0.560388	0.746113	0.000009
H119	H	0.537818	0.732677	-0.037450
H120	H	0.567800	0.789318	0.000031
N121	N	-0.177350	-0.178047	0.000021
H122	H	-0.154009	-0.211276	0.000018
H123	H	-0.202301	-0.180008	-0.037438
H124	H	0.486595	-0.172252	-0.000006
H125	H	0.819097	0.391900	0.000033
H126	H	0.781929	0.035413	0.442310
H127	H	0.582043	0.085909	0.000038
H128	H	0.206274	-0.220904	0.000022
N129	N	0.511734	0.465787	-0.000022
H130	H	0.509128	0.490113	-0.037484
H131	H	0.509138	0.490088	0.037460
N132	N	0.552407	-0.193940	0.566133
H133	H	0.558311	-0.188039	0.611254
H134	H	0.558748	-0.234311	0.555013
H135	H	0.562700	-0.183658	0.442344
H136	H	0.817806	0.499644	0.000022
H137	H	0.781933	0.035422	0.557689
N138	N	0.561868	0.622663	-0.000002
H139	H	0.528647	0.646015	-0.000003
H140	H	0.559893	0.597711	0.037459
H141	H	0.743004	-0.003496	0.734902
H142	H	0.770443	0.111587	0.000056
H143	H	-0.141954	0.023984	0.000041
N144	N	0.513226	0.342337	-0.000001
H145	H	0.511209	0.317371	-0.037457
H146	H	0.480032	0.365721	0.000019
H147	H	0.512280	0.016150	0.000030
N148	N	0.255821	0.084978	0.000057
H149	H	0.248571	0.107801	-0.037400
H150	H	0.296870	0.076561	0.000076
H151	H	0.743006	-0.003494	0.850302
N152	N	0.777722	0.652072	0.000021
H153	H	0.810276	0.684385	0.000025
H154	H	0.780289	0.627737	-0.037440
H155	H	0.601692	-0.144739	0.850318
N156	N	0.566930	0.199657	0.000028
H157	H	0.564327	0.223982	-0.037436
H158	H	0.564347	0.223963	0.037507
N159	N	0.591381	-0.155023	0.726529
H160	H	0.566715	-0.179677	0.756339
H161	H	0.613034	-0.180094	0.700135
N162	N	0.591366	-0.155058	0.273566
H163	H	0.566696	-0.179719	0.243771
H164	H	0.566312	-0.133383	0.299958
N165	N	0.591353	-0.155059	0.141352
H166	H	0.597262	-0.149150	0.096231
H167	H	0.550992	-0.148679	0.152475
H168	H	0.378846	-0.170964	0.000010
H169	H	0.138359	0.072637	0.000053
H170	H	0.404515	0.017447	0.000034
H171	H	0.098525	-0.219610	0.000035
N172	N	0.776241	0.775537	0.000014
H173	H	0.767853	0.816598	0.000010
H174	H	0.799045	0.768246	-0.037446
H175	H	0.769159	0.219337	0.000035
N176	N	-0.053879	-0.179527	0.000010
H177	H	-0.086190	-0.212084	0.000003
H178	H	-0.029550	-0.182089	0.037473
