data_functionalizedCrystal
_audit_creation_method	'MofGen! by Chris Wilmer'
_symmetry_space_group_name_H-M	'P1'
_symmetry_Int_Tables_number	1
_symmetry_cell_setting	triclinic
loop_
_symmetry_equiv_pos_as_xyz
  x,y,z
_cell_length_a	16.625547
_cell_length_b	18.050590
_cell_length_c	16.625539
_cell_angle_alpha	89.970044
_cell_angle_beta	89.975178
_cell_angle_gamma	90.018489
loop_
_atom_site_label
_atom_site_type_symbol
_atom_site_fract_x
_atom_site_fract_y
_atom_site_fract_z
Zn1	Zn	1.232702	-0.295659	-0.455992
Zn2	Zn	1.566036	0.037674	-0.122658
Zn3	Zn	1.899369	0.371007	0.210675
Zn4	Zn	1.232615	-0.419857	-0.321155
Zn5	Zn	1.565948	-0.086524	0.012178
Zn6	Zn	1.899282	0.246810	0.345512
Zn7	Zn	1.097864	-0.295685	-0.321162
Zn8	Zn	1.431198	0.037648	0.012171
Zn9	Zn	1.764531	0.370982	0.345505
Zn10	Zn	1.097844	-0.419812	-0.455935
Zn11	Zn	1.431177	-0.086479	-0.122601
Zn12	Zn	1.764511	0.246855	0.210732
O13	O	1.165256	-0.357753	-0.388561
O14	O	1.498590	-0.024420	-0.055228
O15	O	1.831923	0.308913	0.278106
O16	O	1.345523	-0.312142	-0.438126
O17	O	1.678857	0.021191	-0.104793
O18	O	2.012190	0.354524	0.228541
O19	O	1.214712	-0.403415	-0.208323
O20	O	1.548045	-0.070082	0.125010
O21	O	1.881378	0.263252	0.458343
O22	O	1.115796	-0.191757	-0.339074
O23	O	1.449129	0.141576	-0.005741
O24	O	1.782463	0.474910	0.327592
O25	O	1.345459	-0.403390	-0.339062
O26	O	1.678792	-0.070057	-0.005729
O27	O	2.012126	0.263277	0.327605
O28	O	1.214861	-0.191738	-0.438133
O29	O	1.548194	0.141595	-0.104800
O30	O	1.881528	0.474929	0.228534
O31	O	1.115711	-0.312186	-0.208329
O32	O	1.449044	0.021147	0.125005
O33	O	1.782378	0.354480	0.458338
O34	O	0.985029	-0.312143	-0.339019
O35	O	1.318363	0.021191	-0.005686
O36	O	1.651696	0.354524	0.327647
O37	O	1.115761	-0.403313	-0.568775
O38	O	1.449095	-0.069980	-0.235441
O39	O	1.782428	0.263354	0.097892
O40	O	0.985014	-0.403338	-0.438036
O41	O	1.318348	-0.070005	-0.104703
O42	O	1.651681	0.263329	0.228631
O43	O	1.214841	-0.312099	-0.568817
O44	O	1.548175	0.021235	-0.235483
O45	O	1.881508	0.354568	0.097850
O46	O	1.214692	-0.523776	-0.339007
O47	O	1.548025	-0.190442	-0.005674
O48	O	1.881359	0.142891	0.327660
O49	O	1.115676	-0.523742	-0.438029
O50	O	1.449010	-0.190409	-0.104696
O51	O	1.782343	0.142924	0.228637
C52	C	0.955766	-0.357739	-0.388523
C53	C	1.289099	-0.024406	-0.055189
C54	C	1.622432	0.308928	0.278144
C55	C	0.866144	-0.357751	-0.388526
C56	C	1.199478	-0.024417	-0.055192
C57	C	1.532811	0.308916	0.278141
C58	C	0.793362	-0.357752	-0.388536
C59	C	1.126695	-0.024419	-0.055202
C60	C	1.460029	0.308915	0.278131
C61	C	0.702054	-0.357756	-0.388556
C62	C	1.035387	-0.024423	-0.055222
C63	C	1.368720	0.308911	0.278111
C64	C	0.629277	-0.357763	-0.388576
C65	C	0.962610	-0.024429	-0.055243
C66	C	1.295944	0.308904	0.278090
C67	C	0.537963	-0.357768	-0.388596
C68	C	0.871296	-0.024435	-0.055262
C69	C	1.204629	0.308899	0.278071
C70	C	1.165194	-0.550705	-0.388529
C71	C	1.498528	-0.217372	-0.055195
C72	C	1.831861	0.115961	0.278138
C73	C	1.165242	-0.633251	-0.388542
C74	C	1.498575	-0.299918	-0.055209
C75	C	1.831908	0.033415	0.278125
C76	C	1.219198	-0.832693	-0.334769
C77	C	1.552532	-0.499360	-0.001436
C78	C	1.885865	-0.166026	0.331898
C79	C	1.238896	-0.882024	-0.408360
C80	C	1.572229	-0.548690	-0.075027
C81	C	1.905562	-0.215357	0.258306
C82	C	1.165287	-0.784382	-0.388574
C83	C	1.498621	-0.451048	-0.055241
C84	C	1.831954	-0.117715	0.278093
C85	C	1.145672	-0.882132	-0.315016
C86	C	1.479006	-0.548799	0.018317
C87	C	1.812339	-0.215466	0.351651
C88	C	1.165333	-0.930367	-0.388599
C89	C	1.498666	-0.597033	-0.055265
C90	C	1.832000	-0.263700	0.278068
C91	C	1.185022	-0.832625	-0.462204
C92	C	1.518356	-0.499292	-0.128871
C93	C	1.851689	-0.165958	0.204463
C94	C	1.091765	-0.832730	-0.368810
C95	C	1.425098	-0.499396	-0.035477
C96	C	1.758431	-0.166063	0.297856
C97	C	1.111434	-0.882038	-0.442452
C98	C	1.444767	-0.548705	-0.109119
C99	C	1.778101	-0.215371	0.224214
C100	C	1.165263	-0.700283	-0.388559
C101	C	1.498596	-0.366950	-0.055226
C102	C	1.831930	-0.033617	0.278108
C103	C	1.165357	-1.014463	-0.388622
C104	C	1.498691	-0.681130	-0.055289
C105	C	1.832024	-0.347796	0.278044
C106	C	1.375565	-0.357768	-0.388600
C107	C	1.708899	-0.024435	-0.055266
C108	C	2.042232	0.308898	0.278067
C109	C	1.465186	-0.357775	-0.388616
C110	C	1.798520	-0.024441	-0.055283
C111	C	2.131853	0.308892	0.278051
C112	C	1.165309	-0.357698	-0.598870
C113	C	1.498642	-0.024365	-0.265537
C114	C	1.831975	0.308969	0.067797
C115	C	1.165331	-0.357674	-0.688491
C116	C	1.498664	-0.024341	-0.355158
C117	C	1.831998	0.308992	-0.021824
C118	C	1.165341	-0.164048	-0.388611
C119	C	1.498674	0.169286	-0.055277
C120	C	1.832007	0.502619	0.278056
C121	C	1.165376	-0.081502	-0.388632
C122	C	1.498710	0.251831	-0.055299
C123	C	1.832043	0.585165	0.278035
C124	C	1.165368	-0.357591	-1.016667
C125	C	1.498702	-0.024258	-0.683334
C126	C	1.832035	0.309075	-0.350000
C127	C	1.165356	-0.357617	-0.925358
C128	C	1.498689	-0.024283	-0.592025
C129	C	1.832022	0.309050	-0.258692
C130	C	1.165350	-0.357633	-0.852582
C131	C	1.498683	-0.024300	-0.519249
C132	C	1.832017	0.309033	-0.185915
C133	C	1.165337	-0.357658	-0.761268
C134	C	1.498670	-0.024324	-0.427934
C135	C	1.832003	0.309009	-0.094601
C136	C	1.165251	-0.357755	-0.179070
C137	C	1.498584	-0.024421	0.154263
C138	C	1.831917	0.308912	0.487597
C139	C	1.165384	-0.357569	-0.089449
C140	C	1.498718	-0.024236	0.243884
C141	C	1.832051	0.309097	0.577217
H142	H	1.264804	-0.811025	-0.289314
H143	H	1.598138	-0.477692	0.044019
H144	H	1.931471	-0.144359	0.377352
F145	F	1.123962	-0.910557	-0.233694
F146	F	1.457295	-0.577223	0.099639
F147	F	1.790629	-0.243890	0.432972
F148	F	1.010490	-0.804407	-0.346914
F149	F	1.343823	-0.471074	-0.013581
F150	F	1.677157	-0.137740	0.319752
H151	H	1.301092	-0.903678	-0.425092
H152	H	1.634425	-0.570345	-0.091759
H153	H	1.967758	-0.237012	0.241574
H154	H	1.201570	-0.810971	-0.524475
H155	H	1.534903	-0.477638	-0.191142
H156	H	1.868237	-0.144305	0.142192
H157	H	1.065863	-0.903568	-0.488017
H158	H	1.399196	-0.570235	-0.154683
H159	H	1.732530	-0.236901	0.178650
