data_functionalizedCrystal
_audit_creation_method	'MofGen! by Chris Wilmer'
_symmetry_space_group_name_H-M	'P1'
_symmetry_Int_Tables_number	1
_symmetry_cell_setting	triclinic
loop_
_symmetry_equiv_pos_as_xyz
  x,y,z
_cell_length_a	18.050591
_cell_length_b	19.077068
_cell_length_c	19.076919
_cell_angle_alpha	85.529249
_cell_angle_beta	92.275118
_cell_angle_gamma	87.676702
loop_
_atom_site_label
_atom_site_type_symbol
_atom_site_fract_x
_atom_site_fract_y
_atom_site_fract_z
Zn1	Zn	1.105350	0.296760	-0.409964
Zn2	Zn	1.105258	0.409914	-0.296808
Zn3	Zn	0.986363	0.292036	-0.292081
Zn4	Zn	0.975925	0.414601	-0.414638
O5	O	1.043224	0.353328	-0.353373
O6	O	1.209261	0.311786	-0.394975
O7	O	1.093816	0.390338	-0.197534
O8	O	1.006553	0.194014	-0.303784
O9	O	1.209193	0.394919	-0.311840
O10	O	1.093973	0.197485	-0.390391
O11	O	1.006464	0.303734	-0.194062
O12	O	0.881055	0.308280	-0.308317
O13	O	0.988764	0.402908	-0.512665
O14	O	0.873386	0.398328	-0.398359
O15	O	1.083852	0.316331	-0.509230
O16	O	1.083695	0.509185	-0.316373
O17	O	0.988674	0.512629	-0.402943
C18	C	1.035062	0.536486	-0.360694
C19	C	1.031637	0.614842	-0.363849
C20	C	0.850275	0.353300	-0.353333
C21	C	0.767729	0.353306	-0.353333
C22	C	1.035154	0.360670	-0.537241
C23	C	1.031714	0.363798	-0.615594
C24	C	0.572424	0.304288	-0.304474
C25	C	0.520935	0.367890	-0.289705
C26	C	0.616596	0.353329	-0.353366
C27	C	0.521003	0.289749	-0.368134
C28	C	0.470609	0.353345	-0.353396
C29	C	0.566193	0.416963	-0.338564
C30	C	0.566267	0.338780	-0.417021
C31	C	0.514796	0.402428	-0.402278
C32	C	0.700695	0.353318	-0.353347
C33	C	0.386511	0.353362	-0.353415
C34	C	1.236927	0.353356	-0.353413
C35	C	1.319471	0.353369	-0.353431
C36	C	1.051438	0.169456	-0.346039
C37	C	1.054938	0.091100	-0.342914
C38	C	1.079535	0.649840	-0.320297
C39	C	1.076318	0.723464	-0.323269
C40	C	1.025198	0.762090	-0.369790
C41	C	0.977298	0.727088	-0.413347
C42	C	0.980519	0.653465	-0.410378
C43	C	1.010259	0.982475	-0.383502
C44	C	1.007040	1.056103	-0.386466
C45	C	1.106061	1.052474	-0.296388
C46	C	1.109274	0.978849	-0.293421
C47	C	1.061377	0.943854	-0.336980
N48	N	1.021907	0.837346	-0.372827
N49	N	1.064672	0.868599	-0.333946
C50	C	1.079603	0.320194	-0.650618
C51	C	1.076363	0.323131	-0.724239
C52	C	1.025237	0.369676	-0.762836
C53	C	0.977343	0.413282	-0.727807
C54	C	0.980580	0.410341	-0.654187
C55	C	1.010243	0.383302	-0.983208
C56	C	1.007011	0.386241	-1.056833
C57	C	1.106031	0.296089	-1.053261
C58	C	1.109266	0.293155	-0.979639
C59	C	1.061370	0.336758	-0.944617
N60	N	1.021925	0.372681	-0.838089
N61	N	1.064678	0.333749	-0.869365
C62	C	1.051308	0.345964	-0.170218
C63	C	1.054900	0.342637	-0.091857
H64	H	0.597591	0.262856	-0.263087
H65	H	0.971252	0.418817	-0.954702
H66	H	0.586266	0.326442	-0.470823
O67	O	0.927543	0.764527	-0.458502
C68	C	0.798700	0.788517	-0.493485
C69	C	0.854970	0.746063	-0.442313
H70	H	0.740012	0.773614	-0.480406
H71	H	0.809773	0.776264	-0.549765
H72	H	0.804659	0.847146	-0.488139
H73	H	0.849043	0.687421	-0.447596
H74	H	0.843881	0.758375	-0.386053
O75	O	0.957480	1.093707	-0.431698
C76	C	0.939608	1.180577	-0.530229
C77	C	0.995810	1.138048	-0.479046
H78	H	0.970576	1.216426	-0.568532
H79	H	0.900724	1.213840	-0.499256
H80	H	0.905911	1.142908	-0.560822
H81	H	1.029558	1.175666	-0.448441
H82	H	1.034643	1.104776	-0.510060
O83	O	0.927743	0.458477	-0.765405
C84	C	0.878840	0.502933	-0.880401
C85	C	0.935059	0.451728	-0.837910
H86	H	0.884726	0.497484	-0.939028
H87	H	0.889975	0.559218	-0.868248
H88	H	0.820158	0.489970	-0.865374
H89	H	0.993763	0.464626	-0.852913
H90	H	0.923860	0.395458	-0.850067
H91	H	0.501047	0.235979	-0.380589
H92	H	1.121159	0.618395	-0.282411
H93	H	0.941576	0.445841	-0.625671
H94	H	1.115361	0.287625	-0.752752
O95	O	0.497133	0.382468	-0.225455
C96	C	0.499663	0.347289	-0.101264
C97	C	0.526654	0.330695	-0.173988
H98	H	0.523531	0.305449	-0.059631
H99	H	0.436465	0.347629	-0.102003
H100	H	0.519052	0.401113	-0.088315
H101	H	0.507317	0.276869	-0.186982
H102	H	0.589850	0.330402	-0.173211
O103	O	1.122875	0.757348	-0.280889
C104	C	1.221456	0.745980	-0.191256
C105	C	1.168758	0.707518	-0.239202
H106	H	1.258576	0.705710	-0.157551
H107	H	1.187538	0.778997	-0.155709
H108	H	1.257303	0.781719	-0.225057
H109	H	1.132900	0.671744	-0.205457
H110	H	1.202720	0.674546	-0.274753
H111	H	0.586023	0.470753	-0.326026
H112	H	0.965375	0.424146	-1.088257
H113	H	1.121238	0.282294	-0.619198
O114	O	0.484958	0.452055	-0.451545
C115	C	0.474251	0.575126	-0.491657
C116	C	0.508079	0.518995	-0.435812
H117	H	0.492944	0.629257	-0.478965
H118	H	0.411124	0.574520	-0.491625
H119	H	0.493685	0.563141	-0.545761
H120	H	0.488703	0.530942	-0.381681
H121	H	0.571203	0.519613	-0.435906
O122	O	1.158879	0.247973	-0.942041
C123	C	1.207655	0.203397	-0.827039
C124	C	1.151460	0.254624	-0.869533
H125	H	1.201665	0.208746	-0.768408
H126	H	1.266383	0.216324	-0.841949
H127	H	1.196482	0.147153	-0.839307
H128	H	1.162564	0.310885	-0.857288
H129	H	1.092750	0.241635	-0.854617
O130	O	1.159005	0.941439	-0.248218
C131	C	1.256860	0.945611	-0.159167
C132	C	1.200588	0.988065	-0.210338
H133	H	1.290485	0.983289	-0.128517
H134	H	1.295800	0.912415	-0.190150
H135	H	1.225913	0.909689	-0.120914
H136	H	1.231473	1.024025	-0.248603
H137	H	1.161650	1.021214	-0.179309
H138	H	1.145057	1.080976	-0.260926
H139	H	0.971257	0.953987	-0.418968
O140	O	0.934021	0.619546	-0.452786
C141	C	0.893638	0.601745	-0.571756
C142	C	0.946322	0.640216	-0.523805
H143	H	0.903576	0.618431	-0.629184
H144	H	0.833658	0.615783	-0.559967
H145	H	0.904715	0.542492	-0.561608
H146	H	0.935313	0.699477	-0.533926
H147	H	1.006285	0.626120	-0.535603
H148	H	1.145024	0.260588	-1.081784
