data_functionalizedCrystal
_audit_creation_method	'MofGen! by Chris Wilmer'
_symmetry_space_group_name_H-M	'P1'
_symmetry_Int_Tables_number	1
_symmetry_cell_setting	triclinic
loop_
_symmetry_equiv_pos_as_xyz
  x,y,z
_cell_length_a	15.944551
_cell_length_b	17.038272
_cell_length_c	14.421503
_cell_angle_alpha	90.004327
_cell_angle_beta	89.996859
_cell_angle_gamma	87.305147
loop_
_atom_site_label
_atom_site_type_symbol
_atom_site_fract_x
_atom_site_fract_y
_atom_site_fract_z
O1	O	1.121728	0.100827	-0.077015
O2	O	1.621728	0.600827	0.422985
O3	O	0.878066	0.113259	-0.077039
O4	O	1.378066	0.613259	0.422961
O5	O	0.998449	-0.006773	-0.077020
O6	O	1.498449	0.493227	0.422980
O7	O	1.001345	0.220859	-0.077034
O8	O	1.501345	0.720859	0.422966
O9	O	0.998429	-0.006755	0.077204
O10	O	1.498429	0.493245	0.577204
O11	O	0.878046	0.113277	0.077185
O12	O	1.378046	0.613277	0.577185
O13	O	1.121708	0.100845	0.077208
O14	O	1.621708	0.600845	0.577208
Cu15	Cu	0.999875	0.107062	0.091278
Cu16	Cu	1.499875	0.607062	0.591278
Cu17	Cu	0.999899	0.107041	-0.091109
Cu18	Cu	1.499899	0.607041	0.408891
O19	O	1.001325	0.220877	0.077189
O20	O	1.501325	0.720877	0.577189
C21	C	0.846725	0.112752	0.000070
C22	C	1.346725	0.612752	0.500070
C23	C	0.753369	0.111205	0.000062
C24	C	1.253369	0.611205	0.500062
C25	C	0.532936	0.033105	0.000085
C26	C	1.032936	0.533105	0.500085
C27	C	0.474515	0.069363	-0.075958
C28	C	0.974515	0.569363	0.424042
C29	C	0.582443	0.108405	0.000073
C30	C	1.082443	0.608405	0.500073
C31	C	0.474519	0.069398	0.076094
C32	C	0.974519	0.569398	0.576094
C33	C	0.417337	0.105696	0.000088
C34	C	0.917337	0.605696	0.500088
C35	C	0.525252	0.144684	-0.076033
C36	C	1.025252	0.644684	0.423967
C37	C	0.525261	0.144709	0.076088
C38	C	1.025261	0.644709	0.576088
C39	C	0.466862	0.181022	0.000027
C40	C	0.966862	0.681022	0.500027
C41	C	0.677557	0.109964	0.000063
C42	C	1.177557	0.609964	0.500063
C43	C	0.322225	0.104143	0.000090
C44	C	0.822225	0.604143	0.500090
C45	C	0.995805	-0.035893	0.000092
C46	C	1.495805	0.464107	0.500092
C47	C	0.987945	-0.122688	0.000091
C48	C	1.487945	0.377312	0.500091
C49	C	1.060103	-0.172781	0.000098
C50	C	1.560103	0.327219	0.500098
C51	C	1.052713	-0.254334	0.000089
C52	C	1.552713	0.245666	0.500089
C53	C	0.973165	-0.285792	0.000078
C54	C	1.473165	0.214208	0.500078
C55	C	0.901002	-0.235693	0.000068
C56	C	1.401002	0.264307	0.500068
C57	C	0.908393	-0.154142	0.000071
C58	C	1.408393	0.345858	0.500071
C59	C	0.947056	-0.531558	0.000063
C60	C	1.447056	-0.031558	0.500063
C61	C	0.939671	-0.613115	0.000063
C62	C	1.439671	-0.113115	0.500063
C63	C	1.091383	-0.631751	0.000083
C64	C	1.591383	-0.131751	0.500083
C65	C	1.098766	-0.550197	0.000091
C66	C	1.598766	-0.050197	0.500091
C67	C	1.026603	-0.500105	0.000075
C68	C	1.526603	-0.000105	0.500075
C69	C	0.965610	-0.369152	0.000071
C70	C	1.465610	0.130848	0.500071
C71	C	1.034159	-0.416747	0.000076
C72	C	1.534159	0.083253	0.500076
C73	C	1.153049	0.101352	0.000097
C74	C	1.653049	0.601352	0.500097
C75	C	1.246405	0.102899	0.000100
C76	C	1.746405	0.602899	0.500100
C77	C	1.003969	0.249997	0.000076
C78	C	1.503969	0.749997	0.500076
C79	C	1.011829	0.336792	0.000071
C80	C	1.511829	0.836792	0.500071
N81	N	0.999865	0.107077	0.219560
N82	N	1.499865	0.607077	0.719560
N83	N	0.999916	0.107021	-0.219390
N84	N	1.499916	0.607021	0.280610
C85	C	0.944187	0.162555	0.469205
C86	C	1.444187	0.662555	0.969205
C87	C	1.021171	0.177734	0.531013
C88	C	1.521171	0.677734	1.031013
C89	C	0.999884	0.107058	0.408721
C90	C	1.499884	0.607058	0.908721
C91	C	0.922921	0.091897	0.531006
C92	C	1.422921	0.591897	1.031006
C93	C	0.999895	0.107042	0.591442
C94	C	1.499895	0.607042	1.091442
C95	C	1.076908	0.122272	0.469169
C96	C	1.576908	0.622272	0.969169
C97	C	0.978606	0.036405	0.469156
C98	C	1.478606	0.536405	0.969156
C99	C	1.055642	0.051554	0.530937
C100	C	1.555642	0.551554	1.030937
C101	C	0.999876	0.107070	0.303460
C102	C	1.499876	0.607070	0.803460
C103	C	0.999912	0.107030	0.696701
C104	C	1.499912	0.607030	1.196701
H105	H	0.452139	0.037506	-0.140243
H106	H	0.952139	0.537506	0.359757
H107	H	0.547656	0.176539	0.140376
H108	H	1.047656	0.676539	0.640376
H109	H	0.960576	-0.023318	0.441965
H110	H	1.460576	0.476682	0.941965
H111	H	0.452149	0.037543	0.140380
H112	H	0.952149	0.537543	0.640380
H113	H	0.897141	0.209524	0.442099
H114	H	1.397141	0.709524	0.942099
C115	C	1.170754	-0.686852	0.000086
C116	C	1.670754	-0.186852	0.500086
H117	H	1.154964	-0.739927	0.000074
H118	H	1.654964	-0.239927	0.500074
H119	H	1.203130	-0.677315	0.053868
H120	H	1.703130	-0.177315	0.553868
H121	H	1.203134	-0.677316	-0.053701
H122	H	1.703134	-0.177316	0.446299
C123	C	1.147606	-0.138184	0.000110
C124	C	1.647606	0.361816	0.500110
H125	H	1.189521	-0.179701	0.000105
H126	H	1.689521	0.320299	0.500105
H127	H	1.153638	-0.106755	0.053892
H128	H	1.653638	0.393245	0.553892
H129	H	1.153649	-0.106763	-0.053677
H130	H	1.653649	0.393237	0.446323
C131	C	0.428092	0.265527	-0.000029
C132	C	0.928092	0.765527	0.499971
H133	H	0.394730	0.273664	0.054011
H134	H	0.894730	0.773664	0.554011
H135	H	0.393999	0.273336	-0.053557
H136	H	0.893999	0.773336	0.446443
H137	H	0.471634	0.301715	-0.000561
H138	H	0.971634	0.801715	0.499439
C139	C	1.045494	0.258435	0.567733
C140	C	1.545494	0.758435	1.067733
H141	H	1.005861	0.297816	0.546604
H142	H	1.505861	0.797816	1.046604
H143	H	1.099788	0.269586	0.545655
H144	H	1.599788	0.769586	1.045655
H145	H	1.045816	0.257694	0.633600
H146	H	1.545816	0.757694	1.133600
C147	C	0.852167	-0.647722	0.000051
C148	C	1.352167	-0.147722	0.500051
H149	H	0.858104	-0.703465	0.000064
H150	H	1.358104	-0.203465	0.500064
H151	H	0.822216	-0.630537	-0.053734
H152	H	1.322216	-0.130537	0.446266
H153	H	0.822203	-0.630523	0.053835
H154	H	1.322203	-0.130523	0.553835
H155	H	1.142019	0.135160	0.442121
H156	H	1.642019	0.635160	0.942121
C157	C	1.119343	-0.011863	0.567329
C158	C	1.619343	0.488137	1.067329
H159	H	1.090912	-0.048834	0.603585
H160	H	1.590912	0.451166	1.103585
H161	H	1.160204	0.012104	0.604420
H162	H	1.660204	0.512104	1.104420
H163	H	1.146202	-0.037992	0.516426
H164	H	1.646202	0.462008	1.016426
C165	C	0.571932	-0.051318	-0.000025
C166	C	1.071932	0.448682	0.499975
H167	H	0.554620	-0.077951	-0.054125
H168	H	1.054620	0.422049	0.445875
H169	H	0.553840	-0.078346	0.053442
H170	H	1.053840	0.421654	0.553442
H171	H	0.631408	-0.049734	0.000514
H172	H	1.131408	0.450266	0.500514
C173	C	0.555326	0.187683	-0.162964
C174	C	1.055326	0.687683	0.337036
H175	H	0.614868	0.188383	-0.162451
H176	H	1.114868	0.688383	0.337549
H177	H	0.532129	0.240066	-0.163164
H178	H	1.032129	0.740066	0.336836
H179	H	0.537546	0.161118	-0.216909
H180	H	1.037546	0.661118	0.283091
H181	H	1.098927	-0.391130	0.000064
H182	H	1.598927	0.108870	0.500064
C183	C	0.834989	0.074573	0.567690
C184	C	1.334989	0.574573	1.067690
H185	H	0.795485	0.114057	0.546540
H186	H	1.295485	0.614057	1.046540
H187	H	0.835736	0.074212	0.633553
H188	H	1.335736	0.574212	1.133553
H189	H	0.819492	0.024766	0.545588
H190	H	1.319492	0.524766	1.045588
H191	H	1.111472	-0.295117	0.000097
H192	H	1.611472	0.204883	0.500097
H193	H	1.163543	-0.524590	0.000100
H194	H	1.663543	-0.024590	0.500100
C195	C	0.813501	-0.270295	0.000059
C196	C	1.313501	0.229705	0.500059
H197	H	0.819433	-0.326038	0.000068
H198	H	1.319433	0.173962	0.500068
H199	H	0.783550	-0.253105	-0.053724
H200	H	1.283550	0.246895	0.446276
H201	H	0.783542	-0.253096	0.053845
H202	H	1.283542	0.246904	0.553845
C203	C	0.867680	-0.476467	0.000062
C204	C	1.367680	0.023533	0.500062
H205	H	0.819248	-0.506885	0.000068
H206	H	1.319248	-0.006885	0.500068
H207	H	0.867408	-0.444267	-0.053716
H208	H	1.367408	0.055733	0.446284
H209	H	0.867405	-0.444267	0.053853
H210	H	1.367405	0.055733	0.553853
C211	C	0.829020	-0.099040	0.000064
C212	C	1.329020	0.400960	0.500064
H213	H	0.780585	-0.129454	0.000066
H214	H	1.280585	0.370546	0.500066
H215	H	0.828758	-0.066842	-0.053716
H216	H	1.328758	0.433158	0.446284
H217	H	0.828741	-0.066837	0.053853
H218	H	1.328741	0.433163	0.553853
H219	H	0.900842	-0.394774	0.000065
H220	H	1.400842	0.105226	0.500065
