data_functionalizedCrystal
_audit_creation_method	'MofGen! by Chris Wilmer'
_symmetry_space_group_name_H-M	'P1'
_symmetry_Int_Tables_number	1
_symmetry_cell_setting	triclinic
loop_
_symmetry_equiv_pos_as_xyz
  x,y,z
_cell_length_a	14.971486
_cell_length_b	17.699083
_cell_length_c	14.048226
_cell_angle_alpha	89.992674
_cell_angle_beta	89.998499
_cell_angle_gamma	83.448572
loop_
_atom_site_label
_atom_site_type_symbol
_atom_site_fract_x
_atom_site_fract_y
_atom_site_fract_z
O1	O	1.186608	0.098633	-0.079053
O2	O	0.926167	0.110445	-0.079079
O3	O	1.063746	-0.005632	-0.079057
O4	O	1.049030	0.214710	-0.079075
O5	O	1.063729	-0.005639	0.079264
O6	O	0.926151	0.110438	0.079242
O7	O	1.186591	0.098626	0.079268
Zn8	Zn	1.056368	0.104531	0.104392
Zn9	Zn	1.056390	0.104540	-0.104203
O10	O	1.049013	0.214703	0.079246
C11	C	0.892836	0.109913	0.000078
C12	C	0.793544	0.108330	0.000068
C13	C	1.063210	-0.033834	0.000104
C14	C	1.061628	-0.117856	0.000104
C15	C	0.736085	0.176522	0.000064
C16	C	0.642790	0.175030	0.000078
C17	C	0.606958	0.105346	0.000090
C18	C	0.664425	0.037148	0.000097
C19	C	0.757717	0.038641	0.000090
C20	C	0.469973	0.034042	0.000111
C21	C	0.376674	0.032549	0.000117
C22	C	0.355046	0.170431	0.000099
C23	C	0.448339	0.171924	0.000092
C24	C	0.505799	0.103726	0.000097
C25	C	1.142384	-0.166278	0.000113
C26	C	1.140892	-0.245225	0.000105
C27	C	1.058644	-0.275748	0.000094
C28	C	0.977882	-0.227320	0.000081
C29	C	0.979375	-0.148374	0.000083
C30	C	0.971860	-0.545698	0.000073
C31	C	0.970374	-0.624649	0.000074
C32	C	1.133378	-0.642548	0.000095
C33	C	1.134871	-0.563603	0.000096
C34	C	1.054109	-0.515181	0.000079
C35	C	1.055728	-0.429578	0.000087
C36	C	1.057024	-0.361350	0.000093
C37	C	1.219923	0.099158	0.000109
C38	C	1.319214	0.100741	0.000112
C39	C	1.049549	0.242905	0.000083
C40	C	1.051131	0.326927	0.000077
N41	N	1.056360	0.104524	0.246753
N42	N	1.056406	0.104541	-0.246564
C43	C	1.117299	0.053147	0.296581
C44	C	1.117305	0.053146	0.396238
C45	C	1.056376	0.104528	0.446066
C46	C	0.995431	0.155908	0.396231
C47	C	0.995421	0.155904	0.296576
C48	C	0.995456	0.155913	0.603946
C49	C	0.995467	0.155918	0.703608
C50	C	1.117340	0.053156	0.703608
C51	C	1.117331	0.053152	0.603953
C52	C	1.056386	0.104533	0.554125
H53	H	0.765252	0.233267	0.000054
C54	C	1.184346	-0.003362	0.451045
H55	H	1.220641	-0.033955	0.407096
H56	H	1.152256	-0.034918	0.489935
H57	H	1.221518	0.023930	0.489906
C58	C	0.579588	0.250041	0.000071
H59	H	0.614291	0.291756	0.000051
H60	H	0.542749	0.252327	0.055284
H61	H	0.542742	0.252325	-0.055143
C62	C	1.225341	-0.530027	0.000113
H63	H	1.214663	-0.476075	0.000121
H64	H	1.258594	-0.546637	-0.055093
H65	H	1.258575	-0.546649	0.055335
C66	C	0.928381	0.212405	0.451035
H67	H	0.892074	0.242992	0.407083
H68	H	0.960461	0.243968	0.489914
H69	H	0.891223	0.185100	0.489907
H70	H	0.906099	-0.506282	0.000059
C71	C	0.337254	-0.044100	0.000143
H72	H	0.273463	-0.035219	0.000137
H73	H	0.356987	-0.072178	0.055360
H74	H	0.356983	-0.072187	-0.055067
C75	C	0.887411	-0.260893	0.000072
H76	H	0.898086	-0.314846	0.000083
H77	H	0.854170	-0.244273	-0.055141
H78	H	0.854165	-0.244281	0.055287
C79	C	1.184371	-0.003368	0.758415
H80	H	1.175644	0.003984	0.824902
H81	H	1.244044	0.004934	0.742076
H82	H	1.174763	-0.053898	0.742090
C83	C	0.928392	0.212419	0.241760
H84	H	0.937106	0.205054	0.175273
H85	H	0.937991	0.262948	0.258077
H86	H	0.868718	0.204110	0.258104
C87	C	0.291844	0.245447	0.000096
H88	H	0.231150	0.234580	0.000113
H89	H	0.302686	0.274017	-0.055121
H90	H	0.302694	0.274018	0.055306
H91	H	1.206652	-0.284648	0.000115
H92	H	1.199138	-0.681983	0.000104
C93	C	0.928390	0.212388	0.758418
H94	H	0.892068	0.242968	0.714471
H95	H	0.960441	0.243962	0.797312
H96	H	0.891249	0.185055	0.797275
H97	H	0.804501	-0.016888	0.000093
H98	H	0.945826	0.197751	0.563379
C99	C	0.879897	-0.658223	0.000049
H100	H	0.832011	-0.618079	0.000028
H101	H	0.875914	-0.688654	0.055257
H102	H	0.875945	-0.688642	-0.055170
H103	H	0.477510	0.228667	0.000073
H104	H	1.209360	-0.141433	0.000128
C105	C	0.625015	-0.039505	0.000109
H106	H	0.672601	-0.079904	0.000119
H107	H	0.589070	-0.042952	-0.055098
H108	H	0.589074	-0.042955	0.055329
H109	H	0.516756	-0.021492	0.000117
C110	C	0.890544	-0.095110	0.000075
H111	H	0.841345	-0.124594	0.000076
H112	H	0.887744	-0.063936	-0.055135
H113	H	0.887731	-0.063947	0.055292
C114	C	1.184321	-0.003375	0.241778
H115	H	1.220608	-0.033978	0.285731
H116	H	1.221489	0.023900	0.202889
H117	H	1.152206	-0.034930	0.202917
H118	H	1.166948	0.011317	0.563383
