data_functionalizedCrystal
_audit_creation_method	'MofGen! by Chris Wilmer'
_symmetry_space_group_name_H-M	'P1'
_symmetry_Int_Tables_number	1
_symmetry_cell_setting	triclinic
loop_
_symmetry_equiv_pos_as_xyz
  x,y,z
_cell_length_a	10.489746
_cell_length_b	10.489716
_cell_length_c	9.730223
_cell_angle_alpha	90.002678
_cell_angle_beta	90.002699
_cell_angle_gamma	84.535218
loop_
_atom_site_label
_atom_site_type_symbol
_atom_site_fract_x
_atom_site_fract_y
_atom_site_fract_z
O1	O	1.694027	0.179996	-0.114184
O2	O	1.322830	0.196882	-0.114206
O3	O	1.516891	0.002839	-0.114199
O4	O	1.499966	0.374039	-0.114190
O5	O	1.516889	0.002844	0.114381
O6	O	1.322828	0.196887	0.114374
O7	O	1.694024	0.180001	0.114396
Zn8	Zn	1.508426	0.188445	0.150677
Zn9	Zn	1.508429	0.188438	-0.150487
O10	O	1.499964	0.374044	0.114390
C11	C	1.275298	0.195608	0.000081
C12	C	1.133669	0.191788	0.000072
C13	C	0.980822	0.066063	0.000089
C14	C	1.058209	0.128923	0.112788
C15	C	1.058167	0.128947	-0.112574
C16	C	0.958707	0.247906	0.112898
C17	C	0.958660	0.247913	-0.112565
C18	C	1.035998	0.310860	0.000162
C19	C	1.515618	-0.044690	0.000086
C20	C	1.511814	-0.186322	0.000074
C21	C	1.630818	-0.283993	0.000093
C22	C	1.567934	-0.361357	-0.112609
C23	C	1.567905	-0.361317	0.112753
C24	C	1.448980	-0.261820	-0.112721
C25	C	1.448968	-0.261774	0.112742
C26	C	1.385997	-0.339089	0.000012
C27	C	1.741557	0.181275	0.000106
C28	C	1.883186	0.185095	0.000106
C29	C	1.501236	0.421573	0.000101
C30	C	1.505041	0.563204	0.000104
N31	N	1.508433	0.188448	0.356213
N32	N	1.508432	0.188424	-0.356023
C33	C	1.594386	0.102556	0.428142
C34	C	1.594382	0.102540	0.572025
C35	C	1.422470	0.274321	0.572038
C36	C	1.422468	0.274330	0.428157
C37	C	1.693642	0.003383	0.428136
C38	C	1.693638	0.003367	0.572019
H39	H	0.915156	0.298115	-0.207848
C40	C	1.116855	0.061042	-0.241294
H41	H	1.098321	-0.025862	-0.241146
H42	H	1.207000	0.064625	-0.240828
H43	H	1.081422	0.102457	-0.321324
C44	C	1.635787	-0.420037	0.241471
H45	H	1.576795	-0.462686	0.294547
H46	H	1.667331	-0.354049	0.294891
H47	H	1.705114	-0.479625	0.214373
H48	H	1.734331	-0.259315	-0.000015
C49	C	1.069049	0.450785	0.000228
H50	H	1.117022	0.466240	-0.079873
H51	H	1.118248	0.465792	0.079557
H52	H	0.992254	0.506652	0.001015
C53	C	1.327930	0.368815	0.349033
H54	H	1.340235	0.356520	0.253039
H55	H	1.342553	0.454082	0.372632
H56	H	1.242670	0.354120	0.372600
C57	C	1.381149	-0.202984	0.241451
H58	H	1.310840	-0.144584	0.214378
H59	H	1.439749	-0.158990	0.293609
H60	H	1.351000	-0.269121	0.295770
C61	C	1.635796	-0.420130	-0.241312
H62	H	1.722717	-0.401652	-0.241174
H63	H	1.594385	-0.384731	-0.321350
H64	H	1.632177	-0.510277	-0.240793
C65	C	0.947452	-0.073760	0.000211
H66	H	0.899471	-0.089153	-0.079909
H67	H	0.898175	-0.088611	0.079520
H68	H	1.024140	-0.129783	0.001070
C69	C	1.327924	0.368790	0.651180
H70	H	1.340238	0.356489	0.747173
H71	H	1.242670	0.354106	0.627592
H72	H	1.342555	0.454068	0.627614
H73	H	0.915423	0.298122	0.208287
H74	H	1.671825	-0.094674	0.389078
C75	C	1.818768	0.045400	0.367848
H76	H	1.874493	0.064100	0.440564
H77	H	1.799995	0.119670	0.312902
H78	H	1.859024	-0.021666	0.312898
C79	C	1.116957	0.061055	0.241500
H80	H	1.159622	0.120053	0.294562
H81	H	1.176512	-0.008294	0.214410
H82	H	1.050965	0.029550	0.294948
C83	C	1.381176	-0.203338	-0.241595
H84	H	1.384082	-0.113095	-0.240846
H85	H	1.294485	-0.222530	-0.241932
H86	H	1.423160	-0.238297	-0.321522
C87	C	1.246062	-0.372110	-0.000075
H88	H	1.203988	-0.337718	-0.080209
H89	H	1.203505	-0.336501	0.079222
H90	H	1.244367	-0.462495	0.000679
C91	C	1.651748	-0.121821	0.632296
H92	H	1.633100	-0.177563	0.559576
H93	H	1.577471	-0.103126	0.687250
H94	H	1.718851	-0.162019	0.687237
C95	C	1.826061	0.032961	0.624793
H96	H	1.880520	0.045155	0.548859
H97	H	1.862333	-0.036575	0.679020
H98	H	1.817021	0.108582	0.679042
