data_functionalizedCrystal
_audit_creation_method	'MofGen! by Chris Wilmer'
_symmetry_space_group_name_H-M	'P1'
_symmetry_Int_Tables_number	1
_symmetry_cell_setting	triclinic
loop_
_symmetry_equiv_pos_as_xyz
  x,y,z
_cell_length_a	6.817900
_cell_length_b	10.992421
_cell_length_c	10.992410
_cell_angle_alpha	91.831025
_cell_angle_beta	108.764651
_cell_angle_gamma	108.764763
loop_
_atom_site_label
_atom_site_type_symbol
_atom_site_fract_x
_atom_site_fract_y
_atom_site_fract_z
V1	V	-4.114248	-0.177761	-0.400575
O2	O	-4.072376	0.008542	-0.392968
O3	O	-4.091827	-0.352470	-0.397818
O4	O	-4.091840	-0.175026	-0.575288
O5	O	-4.072363	-0.170129	-0.214270
V6	V	-4.591142	-0.155477	-0.378294
O7	O	-4.390048	-0.226642	-0.449452
O8	O	-4.765539	-0.106595	-0.329417
O9	O	-4.390356	0.019232	-0.381051
O10	O	-4.750411	-0.341780	-0.385901
O11	O	-4.750424	-0.163108	-0.564599
O12	O	-4.390343	-0.158211	-0.203581
C13	C	-3.942307	-0.395060	-0.391494
C14	C	-4.005435	-0.537887	-0.390404
C15	C	-3.873099	-0.733174	-0.381618
C16	C	-3.807017	-0.584530	-0.382242
C17	C	-4.076044	-0.576522	-0.270588
C18	C	-4.140279	-0.725065	-0.269320
C19	C	-4.271785	-0.763647	-0.514935
C20	C	-4.202731	-0.615133	-0.517535
C21	C	-3.942322	-0.168712	-0.617873
C22	C	-4.005457	-0.167632	-0.760702
C23	C	-3.872580	-0.157795	-0.955826
C24	C	-3.807029	-0.159451	-0.807343
C25	C	-4.203473	-0.294312	-0.837793
C26	C	-4.267786	-0.293192	-0.986360
C27	C	-4.145552	-0.047893	-0.948352
C28	C	-4.074843	-0.047293	-0.799340
C29	C	-4.203219	0.061816	-0.387371
C30	C	-4.119331	0.204641	-0.388470
C31	C	-4.203203	-0.164530	-0.160989
C32	C	-4.119306	-0.165603	-0.018159
H33	H	-3.749893	-0.558765	-0.467855
H34	H	-3.931589	0.046420	-0.746991
H35	H	-4.252224	-0.382320	-1.032621
C36	C	-3.606440	-0.036408	-0.735292
N37	N	-3.455338	0.056267	-0.681029
H38	H	-3.847642	-0.242371	-1.003810
C39	C	-4.405092	-0.574334	-0.535609
N40	N	-4.557515	-0.543604	-0.549214
H41	H	-3.935455	-0.522284	-0.176470
H42	H	-4.221676	-0.546286	-0.271970
H43	H	-4.324536	-0.052498	-0.989193
C44	C	-3.837624	-0.796867	-0.495772
N45	N	-3.810700	-0.845205	-0.581473
C46	C	-3.716667	-0.760981	-0.258428
N47	N	-3.598850	-0.781941	-0.165646
C48	C	-3.714267	-0.034017	-0.981488
N49	N	-3.595039	0.059173	-1.000900
H50	H	-3.749849	-0.245200	-0.782519
H51	H	-3.658336	-0.532087	-0.290964
C52	C	-3.990580	-0.748730	-0.140807
N53	N	-3.877813	-0.766547	-0.044010
C54	C	-4.513664	-0.308082	-1.043956
N55	N	-4.698861	-0.319313	-1.087334
C56	C	-4.378323	-0.780298	-0.269051
N57	N	-4.557606	-0.821891	-0.268837
C58	C	-4.263222	-0.830541	-0.637416
N59	N	-4.256746	-0.880924	-0.729661
H60	H	-4.153731	-0.591237	-0.606180
C61	C	-4.406625	-0.308589	-0.798877
N62	N	-4.559636	-0.319340	-0.769561
H63	H	-4.157711	-0.383659	-0.812179
C64	C	-4.266642	-0.045187	-0.755268
N65	N	-4.411056	-0.043581	-0.722027
H66	H	-4.451634	-0.804764	-0.521215
H67	H	-4.042638	0.048305	-0.968721
