data_functionalizedCrystal
_audit_creation_method	'MofGen! by Chris Wilmer'
_symmetry_space_group_name_H-M	'P1'
_symmetry_Int_Tables_number	1
_symmetry_cell_setting	triclinic
loop_
_symmetry_equiv_pos_as_xyz
  x,y,z
_cell_length_a	16.120484
_cell_length_b	12.759401
_cell_length_c	12.759393
_cell_angle_alpha	89.981091
_cell_angle_beta	92.864008
_cell_angle_gamma	92.928424
loop_
_atom_site_label
_atom_site_type_symbol
_atom_site_fract_x
_atom_site_fract_y
_atom_site_fract_z
Zn1	Zn	-0.331798	1.584987	-0.615124
Zn2	Zn	-0.471234	1.575935	-0.448337
Zn3	Zn	-0.331847	1.409282	-0.439469
Zn4	Zn	-0.471180	1.400338	-0.623977
O5	O	-0.401515	1.492636	-0.531727
O6	O	-0.350298	1.730807	-0.593006
O7	O	-0.452787	1.553783	-0.300143
O8	O	-0.215175	1.440121	-0.455354
O9	O	-0.452740	1.724157	-0.470469
O10	O	-0.215139	1.569210	-0.584407
O11	O	-0.350380	1.431344	-0.293627
O12	O	-0.350327	1.261075	-0.463938
O13	O	-0.452647	1.424877	-0.769821
O14	O	-0.452694	1.254504	-0.599495
O15	O	-0.350245	1.560538	-0.763317
O16	O	-0.587892	1.545111	-0.479053
O17	O	-0.587852	1.416100	-0.608095
C18	C	-0.618123	1.478681	-0.545520
C19	C	-0.710788	1.472807	-0.551455
C20	C	-0.401510	1.219668	-0.531716
C21	C	-0.401528	1.102891	-0.531737
C22	C	-0.401435	1.492719	-0.805755
C23	C	-0.401401	1.492755	-0.922530
C24	C	-0.880450	1.462090	-0.562314
C25	C	-0.921739	1.523370	-0.501157
C26	C	-1.016145	1.517406	-0.507199
C27	C	-0.786036	1.468052	-0.556274
C28	C	-0.184061	1.506673	-0.517903
C29	C	-0.091395	1.512655	-0.512013
C30	C	-0.401520	1.766668	-0.531739
C31	C	-0.401522	1.883445	-0.531744
C32	C	-0.348191	2.051502	-0.595537
C33	C	-0.348186	1.941778	-0.595539
C34	C	-0.454861	1.934841	-0.467937
C35	C	-0.454862	2.044563	-0.467930
C36	C	-0.249850	1.798189	-0.626832
C37	C	-0.196520	1.746796	-0.690650
C38	C	-0.183690	1.783274	-0.792346
C39	C	-0.224201	1.871143	-0.830247
C40	C	-0.277537	1.922531	-0.766435
C41	C	-0.290352	1.886055	-0.664723
C42	C	-0.553199	2.188155	-0.436648
C43	C	-0.606540	2.239543	-0.372841
C44	C	-0.619379	2.203066	-0.271144
C45	C	-0.578882	2.115193	-0.233247
C46	C	-0.525541	2.063804	-0.297054
C47	C	-0.512701	2.100289	-0.398750
C48	C	-0.348071	1.563399	-0.974006
C49	C	-0.348035	1.563419	-1.083728
C50	C	-0.454665	1.422148	-1.090488
C51	C	-0.454697	1.422124	-0.980768
C52	C	-0.249671	1.607340	-1.227432
C53	C	-0.196349	1.678000	-1.278912
C54	C	-0.183562	1.781332	-1.242502
C55	C	-0.224110	1.814025	-1.154613
C56	C	-0.277439	1.743371	-1.103139
C57	C	-0.290209	1.640024	-1.139546
C58	C	-0.553062	1.378214	-0.837063
C59	C	-0.606395	1.307563	-0.785586
C60	C	-0.619190	1.204228	-0.821995
C61	C	-0.578657	1.171538	-0.909888
C62	C	-0.525323	1.242188	-0.961364
C63	C	-0.512527	1.345523	-0.924948
C64	C	-0.401534	1.492616	-0.258761
C65	C	-0.401333	1.492799	-0.141972
H66	H	-0.886187	1.580310	-0.444261
F67	F	-0.320651	2.016041	-0.806766
F68	F	-0.210553	1.909950	-0.938494
F69	F	-0.126935	1.728571	-0.860265
F70	F	-0.153419	1.653270	-0.650316
H71	H	-0.915999	1.405152	-0.619204
F72	F	-0.676160	2.257755	-0.203242
F73	F	-0.291426	2.113574	-0.663442
F74	F	-0.649542	1.342362	-0.692048
F75	F	-0.592275	1.061557	-0.948643
F76	F	-0.263490	1.759369	-0.518587
F77	F	-0.511622	1.872756	-0.400036
F78	F	-0.511387	1.346985	-1.152478
F79	F	-0.482423	1.970298	-0.256708
H80	H	-0.589341	2.085488	-0.150439
F81	F	-0.649644	2.333064	-0.413180
F82	F	-0.539529	2.226991	-0.544885
F83	F	-0.153197	1.643202	-1.372447
H84	H	-0.304672	1.620909	-0.926592
F85	F	-0.482183	1.207393	-1.054909
H86	H	-0.260070	1.523196	-1.257080
H87	H	-0.310455	1.769990	-1.031585
F88	F	-0.675968	1.129044	-0.767218
F89	F	-0.126814	1.856533	-1.297296
F90	F	-0.210509	1.924013	-1.115878
F91	F	-0.539426	1.488187	-0.798285
