data_functionalizedCrystal
_audit_creation_method	'MofGen! by Chris Wilmer'
_symmetry_space_group_name_H-M	'P1'
_symmetry_Int_Tables_number	1
_symmetry_cell_setting	triclinic
loop_
_symmetry_equiv_pos_as_xyz
  x,y,z
_cell_length_a	10.489746
_cell_length_b	10.489763
_cell_length_c	9.565339
_cell_angle_alpha	90.001691
_cell_angle_beta	90.004272
_cell_angle_gamma	95.455169
loop_
_atom_site_label
_atom_site_type_symbol
_atom_site_fract_x
_atom_site_fract_y
_atom_site_fract_z
O1	O	0.180095	-1.694040	-0.116185
O2	O	0.196958	-1.322848	-0.116200
O3	O	0.002930	-1.516887	-0.116197
O4	O	0.374123	-1.500001	-0.116188
O5	O	0.002942	-1.516871	0.116323
O6	O	0.196970	-1.322833	0.116320
O7	O	0.180107	-1.694024	0.116335
Zn8	Zn	0.188540	-1.508426	0.153245
Zn9	Zn	0.188524	-1.508446	-0.153110
O10	O	0.374135	-1.499986	0.116332
C11	C	0.195684	-1.275309	0.000058
C12	C	0.191855	-1.133681	0.000051
N13	N	0.188550	-1.508421	0.362324
C14	C	0.421661	-1.501270	0.000073
C15	C	0.563290	-1.505090	0.000077
C16	C	-0.044596	-1.515602	0.000058
C17	C	-0.186226	-1.511782	0.000045
C18	C	0.716158	-1.630812	0.000064
C19	C	0.638757	-1.567964	-0.114580
C20	C	0.638806	-1.567919	0.114667
C21	C	0.738239	-1.448983	-0.114693
C22	C	0.738293	-1.448956	0.114656
C23	C	0.660941	-1.386020	-0.000016
C24	C	0.068386	-1.065539	0.000063
C25	C	0.126696	-0.973422	-0.114576
C26	C	0.126737	-0.973441	0.114670
C27	C	0.250216	-1.043429	-0.114682
C28	C	0.250241	-1.043457	0.114668
C29	C	0.308640	-0.951368	0.000001
C30	C	0.181360	-0.741566	0.000077
C31	C	0.185129	-0.883201	0.000086
N32	N	0.188504	-1.508461	-0.362190
C33	C	0.278252	-1.418657	0.453526
C34	C	0.304071	-1.534154	0.546711
C35	C	0.162741	-1.392975	0.546695
C36	C	0.214428	-1.623976	0.453457
C37	C	0.073047	-1.482721	0.453433
C38	C	0.098818	-1.598301	0.546576
H39	H	0.740887	-1.734312	-0.000047
H40	H	0.354180	-1.342817	0.412670
H41	H	-0.033106	-1.115226	-0.000084
F42	F	0.318442	-1.083727	-0.241508
H43	H	0.401730	-1.555918	0.587681
F44	F	0.582025	-1.633616	0.241351
H45	H	0.302446	-1.074498	0.211596
H46	H	0.074477	-0.942456	0.211590
F47	F	0.243084	-1.751640	0.400156
H48	H	0.022937	-1.674312	0.587175
F49	F	0.058408	-0.932893	-0.241265
F50	F	0.794797	-1.383354	-0.241523
F51	F	0.441435	-0.886766	-0.000073
F52	F	-0.054561	-1.454228	0.399835
F53	F	0.134231	-1.265345	0.600230
H54	H	0.636458	-1.282442	-0.000083
F55	F	0.795175	-1.383347	0.241344
F56	F	0.581928	-1.633649	-0.241260
