data_functionalizedCrystal
_audit_creation_method	'MofGen! by Chris Wilmer'
_symmetry_space_group_name_H-M	'P1'
_symmetry_Int_Tables_number	1
_symmetry_cell_setting	triclinic
loop_
_symmetry_equiv_pos_as_xyz
  x,y,z
_cell_length_a	10.723024
_cell_length_b	17.038272
_cell_length_c	9.798715
_cell_angle_alpha	89.996584
_cell_angle_beta	89.996609
_cell_angle_gamma	87.789713
loop_
_atom_site_label
_atom_site_type_symbol
_atom_site_fract_x
_atom_site_fract_y
_atom_site_fract_z
O1	O	1.667337	0.109720	-0.113484
O2	O	1.305156	0.120222	-0.113489
O3	O	1.484094	0.001144	-0.113475
O4	O	1.488399	0.228799	-0.113497
O5	O	1.484079	0.001144	0.113507
O6	O	1.305141	0.120222	0.113494
O7	O	1.667322	0.109720	0.113498
Zn8	Zn	1.486230	0.114971	0.149534
Zn9	Zn	1.486248	0.114971	-0.149525
O10	O	1.488384	0.228798	0.113485
C11	C	1.258578	0.119458	0.000002
C12	C	1.119813	0.117171	0.000000
C13	C	1.050993	0.183801	-0.000007
C14	C	0.907571	0.181440	-0.000008
C15	C	1.480171	-0.028006	0.000015
C16	C	1.468489	-0.114864	0.000015
C17	C	1.575744	-0.164385	0.000018
C18	C	1.564760	-0.245996	0.000005
C19	C	1.446520	-0.278084	-0.000002
C20	C	1.339256	-0.228557	-0.000009
C21	C	1.350241	-0.146947	-0.000005
C22	C	1.407711	-0.524057	-0.000021
C23	C	1.396734	-0.605673	-0.000020
C24	C	1.622239	-0.623107	-0.000009
C25	C	1.633214	-0.541495	0.000002
C26	C	1.525950	-0.491974	-0.000012
C27	C	1.435289	-0.361504	-0.000011
C28	C	1.537182	-0.408556	-0.000013
C29	C	1.713900	0.110484	0.000005
C30	C	1.852666	0.112771	-0.000003
C31	C	1.492307	0.257948	-0.000009
C32	C	1.503989	0.344806	-0.000017
N33	N	1.486226	0.114970	0.353634
N34	N	1.486261	0.114966	-0.353624
C35	C	1.561337	0.064752	0.421416
C36	C	1.561356	0.064749	0.578579
H37	H	0.848415	0.238480	-0.000020
N38	N	1.753988	-0.508710	0.000021
N39	N	1.785262	-0.465123	0.095708
H40	H	1.870561	-0.441969	0.095730
N41	N	0.926839	0.041199	0.000023
N42	N	0.875282	-0.023359	0.000036
H43	H	0.927673	-0.073907	0.000057
H44	H	1.320369	-0.483747	-0.000032
H45	H	1.098254	0.242594	-0.000005
H46	H	1.652100	-0.286314	0.000010
H47	H	1.072552	0.058378	-0.000029
H48	H	1.421930	0.157959	0.411954
H49	H	1.242982	-0.254689	-0.000022
N50	N	1.696536	-0.131624	0.000042
N51	N	1.792289	-0.175853	0.000046
H52	H	1.877602	-0.152719	0.000062
N53	N	1.641930	0.010740	0.348353
N54	N	1.757489	0.012164	0.364175
H55	H	1.814383	-0.026017	0.312608
N56	N	1.642021	0.010815	0.651714
N57	N	1.641919	0.010886	0.779279
H58	H	1.698888	-0.027208	0.830935
N59	N	1.405603	0.168919	0.573272
N60	N	1.450648	0.217582	0.493507
H61	H	1.393684	0.255688	0.441869
N62	N	1.657948	-0.375768	0.000010
N63	N	1.689206	-0.332174	0.095694
H64	H	1.774497	-0.309010	0.095717
H65	H	1.300443	-0.631796	-0.000003
H66	H	1.262902	-0.106627	-0.000008
N67	N	1.731812	-0.673679	0.000007
N68	N	1.808527	-0.670403	0.095687
H69	H	1.885920	-0.706119	0.095696
H70	H	1.339017	-0.387640	-0.000013
