data_functionalizedCrystal
_audit_creation_method	'MofGen! by Chris Wilmer'
_symmetry_space_group_name_H-M	'P1'
_symmetry_Int_Tables_number	1
_symmetry_cell_setting	triclinic
loop_
_symmetry_equiv_pos_as_xyz
  x,y,z
_cell_length_a	18.627054
_cell_length_b	18.627468
_cell_length_c	18.627244
_cell_angle_alpha	90.002740
_cell_angle_beta	120.002881
_cell_angle_gamma	60.000256
loop_
_atom_site_label
_atom_site_type_symbol
_atom_site_fract_x
_atom_site_fract_y
_atom_site_fract_z
O1	O	-0.633189	-0.492534	-0.021341
O2	O	-0.486192	-0.388127	0.021268
O3	O	-0.633194	-0.388133	-0.125738
O4	O	-0.486188	-0.492528	0.125665
O5	O	-0.513786	-0.507530	-0.125737
O6	O	-0.366785	-0.507524	0.021269
O7	O	-0.513782	-0.611931	-0.021340
Cu8	Cu	-0.429381	-0.570629	-0.000036
Cu9	Cu	-0.570594	-0.429429	-0.000037
O10	O	-0.366781	-0.611925	0.125666
C11	C	-0.355988	-0.387028	0.030958
C12	C	-0.406387	-0.431325	0.024865
C13	C	-0.398782	-0.300629	0.031563
C14	C	-0.225986	-0.387033	0.030952
C15	C	-0.137387	-0.431337	0.024852
C16	C	-0.268978	-0.300635	0.031557
C17	C	-0.355983	-0.257031	0.030952
C18	C	-0.406377	-0.162334	0.024854
C19	C	-0.268982	-0.430435	0.031563
C20	C	-0.773995	-0.257039	-0.387041
C21	C	-0.862600	-0.162345	-0.431343
C22	C	-0.730999	-0.300638	-0.300642
C23	C	-0.643987	-0.387035	-0.387038
C24	C	-0.593587	-0.431334	-0.431337
C25	C	-0.601189	-0.430437	-0.300639
C26	C	-0.643989	-0.387034	-0.257038
C27	C	-0.593591	-0.431331	-0.162340
C28	C	-0.730997	-0.300640	-0.430444
C29	C	-0.643975	-0.743041	-0.031045
C30	C	-0.593574	-0.837736	-0.024949
C31	C	-0.601180	-0.699436	-0.031649
C32	C	-0.773982	-0.613046	-0.031046
C33	C	-0.862585	-0.568750	-0.024952
C34	C	-0.730989	-0.569639	-0.031650
C35	C	-0.643981	-0.613039	-0.031041
C36	C	-0.593586	-0.568736	-0.024941
C37	C	-0.730984	-0.699443	-0.031655
O38	O	0.104409	-0.611949	-0.021351
O39	O	-0.104386	-0.507539	0.021255
O40	O	-0.104397	-0.507550	-0.125750
O41	O	0.104419	-0.611938	0.125654
O42	O	-0.104392	-0.388152	-0.125755
O43	O	-0.104381	-0.388141	0.021250
O44	O	0.104414	-0.492551	-0.021357
Cu45	Cu	0.000017	-0.429444	-0.000054
Cu46	Cu	0.000011	-0.570646	-0.000047
O47	O	0.104424	-0.492540	0.125648
O48	O	-0.513771	0.125660	-0.021354
O49	O	-0.366775	-0.125735	0.021251
O50	O	-0.513782	0.021256	-0.125753
O51	O	-0.366765	-0.021331	0.125650
O52	O	-0.633185	0.021260	-0.125747
O53	O	-0.486178	-0.125731	0.021257
O54	O	-0.633174	0.125665	-0.021348
Cu55	Cu	-0.570578	-0.000033	-0.000045
Cu56	Cu	-0.429371	-0.000038	-0.000052
O57	O	-0.486167	-0.021326	0.125656
O58	O	-0.486177	-0.492538	-0.611931
O59	O	-0.633189	-0.388138	-0.507541
O60	O	-0.486185	-0.388134	-0.507531
O61	O	-0.633181	-0.492542	-0.611940
O62	O	-0.366780	-0.507529	-0.388126
O63	O	-0.513784	-0.507533	-0.388135
O64	O	-0.366772	-0.611933	-0.492525
Cu65	Cu	-0.429375	-0.570635	-0.429427
Cu66	Cu	-0.570585	-0.429436	-0.570638
O67	O	-0.513776	-0.611937	-0.492534
O68	O	-1.104415	0.125646	-0.492543
O69	O	-0.895604	-0.125746	-0.388144
O70	O	-0.895609	0.021255	-0.388139
O71	O	-1.104409	-0.021355	-0.492549
O72	O	-0.895610	0.021257	-0.507541
O73	O	-0.895605	-0.125744	-0.507547
O74	O	-1.104416	0.125648	-0.611946
Cu75	Cu	-1.000011	-0.000048	-0.570649
Cu76	Cu	-1.000009	-0.000050	-0.429441
O77	O	-1.104411	-0.021353	-0.611952
C78	C	-0.225973	-0.743026	0.386966
C79	C	-0.137369	-0.837719	0.431265
C80	C	-0.268968	-0.699427	0.430372
C81	C	-0.355982	-0.613028	0.256966
C82	C	-0.406383	-0.568728	0.162267
C83	C	-0.398779	-0.569627	0.300569
C84	C	-0.355978	-0.613032	0.386968
C85	C	-0.406374	-0.568736	0.431270
C86	C	-0.268972	-0.699424	0.300566
C87	C	-0.356012	-0.257060	-0.387057
C88	C	-0.406407	-0.162366	-0.431359
C89	C	-0.398815	-0.300660	-0.430460
C90	C	-0.226007	-0.387054	-0.257053
C91	C	-0.137400	-0.431351	-0.162355
C92	C	-0.269007	-0.430457	-0.300653
C93	C	-0.356019	-0.387055	-0.387053
C94	C	-0.406423	-0.431354	-0.431352
C95	C	-0.269000	-0.300659	-0.300657
C96	C	0.356047	-0.613037	0.386953
C97	C	0.406451	-0.568739	0.431252
C98	C	0.398842	-0.699432	0.430359
C99	C	0.226034	-0.613037	0.256952
C100	C	0.137427	-0.568739	0.162253
C101	C	0.269027	-0.699432	0.300555
C102	C	0.356038	-0.743032	0.386955
C103	C	0.406433	-0.837725	0.431257
C104	C	0.269035	-0.569635	0.300553
C105	C	-0.773982	0.030913	-0.387042
C106	C	-0.862583	0.024812	-0.431337
C107	C	-0.730987	0.031510	-0.430448
C108	C	-0.643981	0.030932	-0.257047
C109	C	-0.593584	0.024851	-0.162352
C110	C	-0.601183	0.031529	-0.300651
C111	C	-0.643980	0.030907	-0.387048
C112	C	-0.593583	0.024800	-0.431350
C113	C	-0.730988	0.031535	-0.300645
O114	O	-0.633225	0.125629	-0.611956
O115	O	-0.486214	-0.125767	-0.507562
O116	O	-0.633207	0.021225	-0.507549
O117	O	-0.486232	-0.021362	-0.611970
O118	O	-0.513794	0.021226	-0.388148
O119	O	-0.366800	-0.125765	-0.388161
O120	O	-0.513812	0.125630	-0.492555
Cu121	Cu	-0.429403	-0.000068	-0.429456
Cu122	Cu	-0.570623	-0.000069	-0.570662
O123	O	-0.366818	-0.021361	-0.492569
C124	C	-0.355968	-0.030980	0.386952
C125	C	-0.406364	-0.024876	0.431254
C126	C	-0.268963	-0.031581	0.430351
C127	C	-0.355968	-0.031002	0.256950
C128	C	-0.406366	-0.024921	0.162255
C129	C	-0.268963	-0.031603	0.300547
C130	C	-0.225969	-0.030981	0.386944
C131	C	-0.137370	-0.024877	0.431238
C132	C	-0.398765	-0.031602	0.300555
H133	H	-0.233006	-0.501423	0.032540
H134	H	-0.766972	0.032516	-0.265639
H135	H	-0.232978	-0.032553	0.501341
H136	H	-0.766978	-0.265629	-0.501431
H137	H	-0.232967	-0.734431	0.501367
F138	F	-0.509680	-0.523223	-0.254884
H139	H	-0.468790	-0.032563	0.265549
F140	F	-0.490277	-0.254878	0.032863
H141	H	-0.766990	-0.265631	-0.265641
F142	F	-0.509668	0.032804	-0.254898
F143	F	-0.221963	-0.254874	0.032800
H144	H	-0.468840	-0.265649	-0.501446
H145	H	-0.766975	-0.498653	-0.032621
F146	F	0.221957	-0.745169	0.254817
H147	H	-0.531155	-0.734448	-0.032608
H148	H	0.468857	-0.734432	0.501349
F149	F	-0.778015	-0.745201	-0.032936
H150	H	0.233103	-0.498671	0.265525
H151	H	-0.468795	-0.498641	0.265560
H152	H	-0.232983	-0.734429	0.265564
F153	F	-0.221979	-0.523238	-0.254895
H154	H	-0.233017	-0.265650	-0.265655
H155	H	-0.766980	0.032485	-0.501439
F156	F	-0.221919	-0.032907	0.254796
