data_functionalizedCrystal
_audit_creation_method	'MofGen! by Chris Wilmer'
_symmetry_space_group_name_H-M	'P1'
_symmetry_Int_Tables_number	1
_symmetry_cell_setting	triclinic
loop_
_symmetry_equiv_pos_as_xyz
  x,y,z
_cell_length_a	6.817900
_cell_length_b	10.943881
_cell_length_c	10.943867
_cell_angle_alpha	91.772156
_cell_angle_beta	108.843261
_cell_angle_gamma	108.843448
loop_
_atom_site_label
_atom_site_type_symbol
_atom_site_fract_x
_atom_site_fract_y
_atom_site_fract_z
V1	V	-4.115582	-0.402538	-0.178597
O2	O	-4.073255	-0.394890	0.008620
O3	O	-4.093564	-0.399771	-0.354163
O4	O	-4.093567	-0.578105	-0.175833
O5	O	-4.073252	-0.215321	-0.170945
V6	V	-4.592372	-0.380147	-0.156205
O7	O	-4.391609	-0.451654	-0.227714
O8	O	-4.766543	-0.331031	-0.107088
O9	O	-4.391183	-0.382914	0.019361
O10	O	-4.752096	-0.387795	-0.343422
O11	O	-4.752099	-0.567364	-0.163857
O12	O	-4.391180	-0.204580	-0.158969
C13	C	-3.944129	-0.393417	-0.396963
C14	C	-4.007590	-0.392324	-0.540491
C15	C	-4.237033	-0.398404	-0.631374
C16	C	-4.234149	-0.501329	-0.730481
C17	C	-4.123542	-0.287478	-0.697128
C18	C	-4.003915	-0.495352	-0.637721
C19	C	-3.893282	-0.281406	-0.604347
C20	C	-3.890254	-0.384353	-0.703414
C21	C	-3.944132	-0.620898	-0.169483
C22	C	-4.007591	-0.764426	-0.168385
C23	C	-4.237035	-0.855308	-0.174466
C24	C	-4.123559	-0.921054	-0.063484
C25	C	-4.234077	-0.954406	-0.277331
C26	C	-3.893233	-0.828267	-0.057330
C27	C	-4.003824	-0.861628	-0.271275
C28	C	-3.890178	-0.927326	-0.160263
C29	C	-4.203961	-0.389265	0.062155
C30	C	-4.119740	-0.390366	0.205681
C31	C	-4.203957	-0.161780	-0.165323
C32	C	-4.119736	-0.018251	-0.166414
H33	H	-3.744085	-0.378432	-0.735035
C34	C	-3.697868	-0.754518	0.068396
N35	N	-3.550728	-0.698967	0.163094
H36	H	-4.174772	-0.947594	0.024380
H37	H	-3.743943	-0.958925	-0.154215
C38	C	-3.934725	-0.825735	-0.389988
N39	N	-3.882700	-0.798699	-0.479415
C40	C	-4.434139	-0.812242	-0.182406
N41	N	-4.582587	-0.779799	-0.188379
C42	C	-3.934991	-0.614185	-0.602115
N43	N	-3.883088	-0.703691	-0.575293
C44	C	-4.429600	-1.028352	-0.402919
N45	N	-4.576877	-1.084042	-0.497508
H46	H	-3.748633	-0.188434	-0.549580
C47	C	-4.192770	-0.168790	-0.732975
N48	N	-4.244925	-0.079398	-0.759970
H49	H	-4.378854	-0.594300	-0.785222
C50	C	-4.434281	-0.406627	-0.588349
N51	N	-4.582845	-0.412828	-0.555940
