data_functionalizedCrystal
_audit_creation_method	'MofGen! by Chris Wilmer'
_symmetry_space_group_name_H-M	'P1'
_symmetry_Int_Tables_number	1
_symmetry_cell_setting	triclinic
loop_
_symmetry_equiv_pos_as_xyz
  x,y,z
_cell_length_a	21.395364
_cell_length_b	18.101397
_cell_length_c	21.395355
_cell_angle_alpha	89.980066
_cell_angle_beta	89.975484
_cell_angle_gamma	90.016230
loop_
_atom_site_label
_atom_site_type_symbol
_atom_site_fract_x
_atom_site_fract_y
_atom_site_fract_z
Zn1	Zn	0.957904	-0.294999	-0.354255
Zn2	Zn	1.457904	0.205001	0.145745
Zn3	Zn	0.957825	-0.418822	-0.249475
Zn4	Zn	1.457825	0.081178	0.250525
Zn5	Zn	0.853119	-0.294990	-0.249491
Zn6	Zn	1.353119	0.205010	0.250509
Zn7	Zn	0.853107	-0.418794	-0.354215
Zn8	Zn	1.353107	0.081206	0.145785
O9	O	0.905488	-0.356901	-0.301859
O10	O	1.405488	0.143099	0.198141
O11	O	1.045571	-0.311440	-0.340365
O12	O	1.545571	0.188560	0.159635
O13	O	0.943907	-0.402404	-0.161799
O14	O	1.443907	0.097596	0.338201
O15	O	0.867057	-0.191358	-0.263412
O16	O	1.367057	0.308642	0.236588
O17	O	1.045513	-0.402412	-0.263383
O18	O	1.545513	0.097588	0.236617
O19	O	0.944042	-0.191365	-0.340381
O20	O	1.444042	0.308635	0.159619
O21	O	0.866980	-0.311425	-0.161811
O22	O	1.366980	0.188575	0.338189
O23	O	0.765439	-0.311397	-0.263374
O24	O	1.265439	0.188603	0.236626
O25	O	0.867036	-0.402364	-0.441898
O26	O	1.367036	0.097636	0.058102
O27	O	0.765430	-0.402356	-0.340313
O28	O	1.265430	0.097644	0.159687
O29	O	0.944030	-0.311413	-0.441927
O30	O	1.444030	0.188587	0.058073
O31	O	0.943896	-0.522451	-0.263345
O32	O	1.443896	-0.022451	0.236655
O33	O	0.866960	-0.522431	-0.340297
O34	O	1.366960	-0.022431	0.159703
C35	C	0.742701	-0.356873	-0.301841
C36	C	1.242701	0.143127	0.198159
C37	C	0.673060	-0.356879	-0.301849
C38	C	1.173060	0.143121	0.198151
C39	C	0.171293	-0.309644	-0.342017
C40	C	0.671293	0.190356	0.157983
C41	C	0.236728	-0.309638	-0.342017
C42	C	0.736728	0.190362	0.157983
C43	C	0.269421	-0.356924	-0.301873
C44	C	0.769421	0.143076	0.198127
C45	C	0.236673	-0.404232	-0.261737
C46	C	0.736673	0.095768	0.238263
C47	C	0.171239	-0.404242	-0.261743
C48	C	0.671239	0.095758	0.238257
C49	C	0.373059	-0.362659	-0.245406
C50	C	0.873059	0.137341	0.254594
C51	C	0.438492	-0.362644	-0.245399
C52	C	0.938492	0.137356	0.254601
C53	C	0.471242	-0.356899	-0.301856
C54	C	0.971242	0.143101	0.198144
C55	C	0.438551	-0.351154	-0.358321
C56	C	0.938551	0.148846	0.141679
C57	C	0.373117	-0.351163	-0.358327
C58	C	0.873117	0.148837	0.141673
C59	C	0.340374	-0.356919	-0.301863
C60	C	0.840374	0.143081	0.198137
C61	C	0.574935	-0.309592	-0.341992
C62	C	1.074935	0.190408	0.158008
C63	C	0.640371	-0.309592	-0.341993
C64	C	1.140371	0.190408	0.158007
C65	C	0.640315	-0.404182	-0.261707
C66	C	1.140315	0.095818	0.238293
C67	C	0.574880	-0.404186	-0.261712
C68	C	1.074880	0.095814	0.238288
C69	C	0.542193	-0.356887	-0.301853
C70	C	1.042193	0.143113	0.198147
C71	C	0.905435	-0.549312	-0.301828
C72	C	1.405435	-0.049312	0.198172
C73	C	0.905469	-0.631626	-0.301836
C74	C	1.405469	-0.131626	0.198164
C75	C	0.905549	-0.930717	-0.301894
C76	C	1.405549	-0.430717	0.198106
C77	C	0.953820	-0.899374	-0.253348
C78	C	1.453820	-0.399374	0.246652
C79	C	0.953987	-0.813755	-0.253473
C80	C	1.453987	-0.313755	0.246527
C81	C	0.905510	-0.782334	-0.301865
C82	C	1.405510	-0.282334	0.198135
C83	C	0.923415	-0.813358	-0.367907
C84	C	1.423415	-0.313358	0.132093
C85	C	0.923788	-0.899003	-0.367643
C86	C	1.423788	-0.399003	0.132357
C87	C	0.839244	-0.899216	-0.284968
C88	C	1.339244	-0.399216	0.215032
C89	C	0.839571	-0.813567	-0.283494
C90	C	1.339571	-0.313567	0.216506
C91	C	0.905486	-0.698475	-0.301852
C92	C	1.405486	-0.198475	0.198148
C93	C	0.905574	-1.014576	-0.301910
C94	C	1.405574	-0.514576	0.198090
C95	C	1.068912	-0.356930	-0.301877
C96	C	1.568912	0.143070	0.198123
C97	C	1.138553	-0.356943	-0.301884
C98	C	1.638553	0.143057	0.198116
C99	C	0.905540	-0.356886	-0.465282
C100	C	1.405540	0.143114	0.034718
C101	C	0.905563	-0.356880	-0.534923
C102	C	1.405563	0.143120	-0.034923
C103	C	0.905559	-0.163739	-0.301903
C104	C	1.405559	0.336261	0.198097
C105	C	0.905589	-0.081425	-0.301922
C106	C	1.405589	0.418575	0.198078
C107	C	0.945652	-0.309519	-0.567653
C108	C	1.445652	0.190481	-0.067653
C109	C	0.945651	-0.309488	-0.633088
C110	C	1.445651	0.190512	-0.133088
C111	C	0.905567	-0.356830	-0.665792
C112	C	1.405567	0.143170	-0.165792
C113	C	0.865471	-0.404193	-0.633055
C114	C	1.365471	0.095807	-0.133055
C115	C	0.865468	-0.404219	-0.567620
C116	C	1.365468	0.095781	-0.067620
C117	C	0.900602	-0.423510	-0.769456
C118	C	1.400602	0.076490	-0.269456
C119	C	0.900608	-0.423487	-0.834889
C120	C	1.400608	0.076513	-0.334889
C121	C	0.905571	-0.356751	-0.867613
C122	C	1.405571	0.143249	-0.367613
C123	C	0.910541	-0.290038	-0.834895
C124	C	1.410541	0.209962	-0.334895
C125	C	0.910538	-0.290063	-0.769461
C126	C	1.410538	0.209937	-0.269461
C127	C	0.905565	-0.356807	-0.736744
C128	C	1.405565	0.143193	-0.236744
C129	C	0.945662	-0.309352	-0.971295
C130	C	1.445662	0.190648	-0.471295
C131	C	0.945656	-0.309319	-1.036731
C132	C	1.445656	0.190681	-0.536731
C133	C	0.865479	-0.404032	-1.036696
C134	C	1.365479	0.095968	-0.536696
C135	C	0.865481	-0.404058	-0.971261
C136	C	1.365481	0.095942	-0.471261
C137	C	0.905576	-0.356719	-0.938564
C138	C	1.405576	0.143281	-0.438564
C139	C	0.905473	-0.356863	-0.139071
C140	C	1.405473	0.143137	0.360929
C141	C	0.905572	-0.356661	-0.069430
C142	C	1.405572	0.143339	0.430570
H143	H	0.346503	-0.346487	-0.404303
H144	H	0.846503	0.153513	0.095697
F145	F	0.675215	-0.259252	-0.384714
F146	F	1.175215	0.240748	0.115286
F147	F	1.018184	-0.786909	-0.268113
F148	F	1.518184	-0.286909	0.231887
F149	F	0.915823	-0.219064	-0.734643
F150	F	1.415823	0.280936	-0.234643
H151	H	1.002667	-0.920849	-0.264417
H152	H	1.502667	-0.420849	0.235583
F153	F	0.822809	-0.454576	-0.667861
F154	F	1.322809	0.045424	-0.167861
F155	F	0.987137	-0.925050	-0.386381
F156	F	1.487137	-0.425050	0.113619
F157	F	0.988334	-0.258917	-1.071564
F158	F	1.488334	0.241083	-0.571564
F159	F	0.790031	-0.785620	-0.326325
F160	F	1.290031	-0.285620	0.173675
F161	F	0.792234	-0.925712	-0.331182
F162	F	1.292234	-0.425712	0.168818
F163	F	0.675105	-0.454512	-0.218987
F164	F	1.175105	0.045488	0.281013
F165	F	0.817954	-0.927513	-0.223114
F166	F	1.317954	-0.427513	0.276886
F167	F	0.988321	-0.259134	-0.532858
F168	F	1.488321	0.240866	-0.032858
H169	H	0.465215	-0.346472	-0.404293
H170	H	0.965215	0.153528	0.095707
H171	H	0.346399	-0.367340	-0.199429
H172	H	0.846399	0.132660	0.300571
F173	F	0.271468	-0.454559	-0.219015
F174	F	0.771468	0.045441	0.280985
F175	F	0.271580	-0.259293	-0.384733
F176	F	0.771580	0.240707	0.115267
H177	H	0.548320	-0.271078	-0.374677
H178	H	1.048320	0.228922	0.125323
H179	H	0.826071	-0.793296	-0.234892
H180	H	1.326071	-0.293296	0.265108
H181	H	0.465103	-0.367318	-0.199421
H182	H	0.965103	0.132682	0.300579
F183	F	0.136509	-0.259309	-0.384743
F184	F	0.636509	0.240691	0.115257
F185	F	0.540034	-0.454519	-0.218988
F186	F	1.040034	0.045481	0.281012
H187	H	0.978295	-0.270917	-0.659742
H188	H	1.478295	0.229083	-0.159742
F189	F	0.136394	-0.454584	-0.219024
F190	F	0.636394	0.045416	0.280976
H191	H	0.896566	-0.477809	-0.861522
H192	H	1.396566	0.022191	-0.361522
F193	F	0.879824	-0.926103	-0.416528
F194	F	1.379824	-0.426103	0.083472
F195	F	0.878863	-0.786762	-0.416457
F196	F	1.378863	-0.286762	0.083543
H197	H	0.942785	-0.792782	-0.204504
H198	H	1.442785	-0.292782	0.295496
H199	H	0.914583	-0.235696	-0.861538
H200	H	1.414583	0.264304	-0.361538
F201	F	0.822798	-0.454628	-0.532786
F202	F	1.322798	0.045372	-0.032786
F203	F	0.939359	-0.926344	-0.189148
F204	F	1.439359	-0.426344	0.310852
F205	F	0.986055	-0.785258	-0.386965
F206	F	1.486055	-0.285258	0.113035
F207	F	0.988330	-0.258968	-0.936494
F208	F	1.488330	0.241032	-0.436494
H209	H	0.832836	-0.442571	-1.063323
H210	H	1.332836	0.057429	-0.563323
F211	F	0.822815	-0.454469	-0.936427
F212	F	1.322815	0.045531	-0.436427
H213	H	0.896393	-0.477840	-0.742818
H214	H	1.396393	0.022160	-0.242818
