data_functionalizedCrystal
_audit_creation_method	'MofGen! by Chris Wilmer'
_symmetry_space_group_name_H-M	'P1'
_symmetry_Int_Tables_number	1
_symmetry_cell_setting	triclinic
loop_
_symmetry_equiv_pos_as_xyz
  x,y,z
_cell_length_a	15.624803
_cell_length_b	15.538191
_cell_length_c	12.376457
_cell_angle_alpha	96.760679
_cell_angle_beta	61.110080
_cell_angle_gamma	66.736403
loop_
_atom_site_label
_atom_site_type_symbol
_atom_site_fract_x
_atom_site_fract_y
_atom_site_fract_z
O1	O	1.312016	0.001664	-0.631973
O2	O	1.014637	0.039710	-0.510037
O3	O	1.221215	-0.120931	-0.594747
O4	O	1.105438	0.162305	-0.547263
O5	O	1.169602	-0.080823	-0.385570
O6	O	0.963024	0.079818	-0.300860
O7	O	1.260403	0.041772	-0.422796
Zn8	Zn	1.103519	0.067163	-0.328617
Zn9	Zn	1.171521	0.014319	-0.604216
O10	O	1.053825	0.202413	-0.338086
C11	C	0.951701	0.062022	-0.390224
C12	C	0.841069	0.068740	-0.344862
C13	C	1.207523	-0.136912	-0.495129
C14	C	1.243606	-0.244285	-0.509936
C15	C	0.618029	-0.018560	-0.765914
C16	C	0.514082	-0.012267	-0.723291
C17	C	0.457791	0.031459	-0.495245
C18	C	0.561737	0.025165	-0.537850
C19	C	0.641848	0.000156	-0.673186
C20	C	0.585556	0.043881	-0.445122
C21	C	0.689491	0.037592	-0.487723
C22	C	0.769606	0.012587	-0.623053
C23	C	0.745783	-0.006133	-0.715788
C24	C	0.505440	0.068897	-0.309785
C25	C	0.529259	0.087613	-0.217057
C26	C	0.633199	0.081317	-0.259659
C27	C	0.713314	0.056312	-0.394988
C28	C	0.657022	0.100038	-0.166924
C29	C	0.760957	0.093749	-0.209526
C30	C	0.817249	0.050024	-0.437590
C31	C	0.885147	-0.504284	-0.362931
C32	C	0.919075	-0.605179	-0.376840
C33	C	1.109916	-0.642416	-0.455092
C34	C	1.076005	-0.541523	-0.441195
C35	C	0.963619	-0.472464	-0.395113
C36	C	1.154478	-0.509703	-0.473378
C37	C	1.120568	-0.408817	-0.459476
C38	C	1.008186	-0.339752	-0.413391
C39	C	0.929709	-0.371578	-0.381211
C40	C	1.266861	-0.578762	-0.519451
C41	C	1.345333	-0.546942	-0.551633
C42	C	1.311426	-0.446056	-0.537740
C43	C	1.199044	-0.376991	-0.491656
C44	C	1.389903	-0.414230	-0.569921
C45	C	1.355993	-0.313344	-0.556019
C46	C	1.165134	-0.276105	-0.477754
C47	C	1.323340	0.019459	-0.542612
C48	C	1.433974	0.012740	-0.587982
C49	C	1.067518	0.218394	-0.437707
C50	C	1.031436	0.325765	-0.422908
N51	N	1.057117	0.103227	-0.140531
N52	N	1.217934	-0.021754	-0.792307
C53	C	1.325655	-0.105489	0.104337
C54	C	1.358126	-0.130730	-0.027318
C55	C	1.282876	-0.072243	-0.055628
C56	C	1.175150	0.011490	0.047731
C57	C	1.142679	0.036738	0.179397
C58	C	1.099900	0.069984	0.019432
C59	C	0.992174	0.153716	0.122791
C60	C	0.959708	0.178960	0.254444
C61	C	1.034958	0.120473	0.282754
C62	C	1.132372	0.044736	-0.112235
C63	C	0.949396	0.186962	-0.037174
C64	C	0.916924	0.212203	0.094481
H65	H	0.854233	0.007474	-0.657735
H66	H	0.829211	0.280381	0.178651
O67	O	1.499037	-0.481458	-0.614713
C68	C	1.635834	-0.653363	-0.670712
C69	C	1.512212	-0.577341	-0.620003
H70	H	1.646520	-0.730896	-0.674979
H71	H	1.697875	-0.659585	-0.774855
H72	H	1.654607	-0.625860	-0.599746
H73	H	1.493330	-0.604786	-0.690870
H74	H	1.450238	-0.571128	-0.515835
O75	O	0.490806	-0.030269	-0.813287
C76	C	0.365022	0.036181	-0.880646
C77	C	0.391271	0.056705	-0.778658
H78	H	0.284535	0.106478	-0.852670
H79	H	0.440069	0.017284	-0.984709
H80	H	0.350991	-0.030452	-0.880012
H81	H	0.405279	0.123350	-0.779172
H82	H	0.316211	0.075542	-0.674643
O83	O	0.876325	0.243920	-0.064620
C84	C	0.767839	0.409154	-0.056285
C85	C	0.850600	0.344765	-0.025149
H86	H	0.746997	0.490704	-0.024361
H87	H	0.809519	0.376808	-0.168140
H88	H	0.685662	0.407624	0.000684
H89	H	0.932797	0.346268	-0.082031
H90	H	0.808831	0.377132	0.086727
H91	H	0.591777	0.120409	-0.056731
O92	O	0.842987	-0.636244	-0.345791
C93	C	0.797215	-0.749279	-0.424454
C94	C	0.883488	-0.714211	-0.459791
H95	H	0.829916	-0.812305	-0.516609
H96	H	0.786744	-0.778866	-0.341529
H97	H	0.711063	-0.682564	-0.389072
H98	H	0.969687	-0.780876	-0.495232
H99	H	0.893860	-0.684590	-0.542668
H100	H	0.811018	-0.026501	-0.825992
H101	H	0.882484	0.029656	-0.547795
O102	O	1.236939	-0.036735	-0.212508
C103	C	1.365203	-0.217394	-0.301133
C104	C	1.246727	-0.125198	-0.187529
H105	H	1.373164	-0.288937	-0.280963
H106	H	1.375577	-0.225534	-0.400159
H107	H	1.434617	-0.205948	-0.306337
H108	H	1.177242	-0.136578	-0.182201
H109	H	1.236452	-0.117086	-0.088559
O110	O	1.398895	-0.162383	0.131602
C111	C	1.583765	-0.306165	0.043296
C112	C	1.500938	-0.241795	0.012229
H113	H	1.666276	-0.370397	-0.053193
H114	H	1.603937	-0.256450	0.090395
H115	H	1.542357	-0.339342	0.115717
H116	H	1.542275	-0.208607	-0.060224
H117	H	1.480769	-0.291556	-0.034800
H118	H	0.392549	0.051825	-0.385053
H119	H	0.420808	0.074022	-0.275102
H120	H	1.436837	-0.603181	-0.589149
H121	H	1.445836	-0.198903	-0.111468
O122	O	0.451544	0.111957	-0.085539
C123	C	0.406718	0.154587	0.136157
C124	C	0.494815	0.127055	-0.012741
H125	H	0.441679	0.166781	0.195053
H126	H	0.323480	0.227111	0.175495
H127	H	0.389802	0.090172	0.148136
H128	H	0.511828	0.191404	-0.024836
H129	H	0.577999	0.054500	-0.052009
O130	O	1.314602	-0.096785	-0.183592
C131	C	1.449370	-0.120591	-0.408705
C132	C	1.413579	-0.092793	-0.263839
H133	H	1.529382	-0.117353	-0.473620
H134	H	1.468116	-0.200498	-0.448576
H135	H	1.377045	-0.064427	-0.411142
H136	H	1.485859	-0.148889	-0.261287
H137	H	1.394795	-0.012862	-0.224029
H138	H	1.419893	-0.287436	-0.582223
H139	H	0.980576	-0.257604	-0.402066
O140	O	0.695709	-0.042821	-0.897422
C141	C	0.740616	-0.085583	-1.119153
C142	C	0.652536	-0.058103	-0.970268
H143	H	0.705753	-0.097967	-1.178095
H144	H	0.757493	-0.021159	-1.131256
H145	H	0.823856	-0.158043	-1.158341
H146	H	0.569244	0.014330	-0.930982
H147	H	0.635757	-0.122586	-0.958252
H148	H	0.780347	0.108995	-0.134015
H149	H	1.073620	-0.219874	-0.440238
O150	O	0.820482	-0.304609	-0.336386
C151	C	0.634777	-0.278328	-0.260334
C152	C	0.758424	-0.354267	-0.311046
H153	H	0.584574	-0.318452	-0.239859
H154	H	0.592455	-0.213382	-0.164282
H155	H	0.635790	-0.246939	-0.339417
H156	H	0.757514	-0.385733	-0.232058
H157	H	0.800695	-0.419155	-0.407130
H158	H	0.793633	-0.448053	-0.325415
H159	H	1.294469	-0.660910	-0.530780
H160	H	1.008519	0.141021	0.389958
H161	H	1.201420	-0.698656	-0.492607
H162	H	0.871996	0.247146	0.338599
