data_functionalizedCrystal
_audit_creation_method	'MofGen! by Chris Wilmer'
_symmetry_space_group_name_H-M	'P1'
_symmetry_Int_Tables_number	1
_symmetry_cell_setting	triclinic
loop_
_symmetry_equiv_pos_as_xyz
  x,y,z
_cell_length_a	17.699083
_cell_length_b	17.699083
_cell_length_c	18.366186
_cell_angle_alpha	89.992864
_cell_angle_beta	89.996982
_cell_angle_gamma	83.283015
loop_
_atom_site_label
_atom_site_type_symbol
_atom_site_fract_x
_atom_site_fract_y
_atom_site_fract_z
O1	O	1.004081	0.095712	-0.060449
O2	O	1.504081	0.595712	0.439551
O3	O	0.783702	0.108165	-0.060473
O4	O	1.283702	0.608165	0.439527
O5	O	0.900118	-0.008251	-0.060454
O6	O	1.400118	0.491749	0.439546
O7	O	0.887665	0.212128	-0.060468
O8	O	1.387665	0.712128	0.439532
O9	O	0.900098	-0.008256	0.060645
O10	O	1.400098	0.491744	0.560645
O11	O	0.783683	0.108159	0.060626
O12	O	1.283683	0.608159	0.560626
O13	O	1.004061	0.095707	0.060650
O14	O	1.504061	0.595707	0.560650
Zn15	Zn	0.893869	0.101932	0.079865
Zn16	Zn	1.393869	0.601932	0.579865
Zn17	Zn	0.893895	0.101939	-0.079688
Zn18	Zn	1.393895	0.601939	0.420312
O19	O	0.887645	0.212122	0.060631
O20	O	1.387645	0.712122	0.560631
C21	C	0.755495	0.107716	0.000074
C22	C	1.255495	0.607716	0.500074
C23	C	0.671477	0.106377	0.000065
C24	C	1.171477	0.606377	0.500065
C25	C	0.899662	-0.036451	0.000096
C26	C	1.399662	0.463549	0.500096
C27	C	0.898323	-0.120469	0.000096
C28	C	1.398323	0.379531	0.500096
C29	C	0.622856	0.174710	0.000060
C30	C	1.122856	0.674710	0.500060
C31	C	0.543913	0.173448	0.000070
C32	C	1.043913	0.673448	0.500070
C33	C	0.513592	0.103852	0.000078
C34	C	1.013592	0.603852	0.500078
C35	C	0.562219	0.035513	0.000085
C36	C	1.062219	0.535513	0.500085
C37	C	0.641161	0.036776	0.000081
C38	C	1.141161	0.536776	0.500081
C39	C	0.243856	0.030418	0.000103
C40	C	0.743856	0.530418	0.500103
C41	C	0.164908	0.029160	0.000105
C42	C	0.664908	0.529160	0.500105
C43	C	0.146608	0.167090	0.000093
C44	C	0.646608	0.667090	0.500093
C45	C	0.225550	0.168353	0.000088
C46	C	0.725550	0.668353	0.500088
C47	C	0.274170	0.100015	0.000098
C48	C	0.774170	0.600015	0.500098
C49	C	0.359769	0.101384	0.000090
C50	C	0.859769	0.601384	0.500090
C51	C	0.427995	0.102481	0.000082
C52	C	0.927995	0.602481	0.500082
C53	C	0.966656	-0.169090	0.000104
C54	C	1.466656	0.330910	0.500104
C55	C	0.965394	-0.248033	0.000098
C56	C	1.465394	0.251967	0.500098
C57	C	0.895798	-0.278354	0.000088
C58	C	1.395798	0.221646	0.500088
C59	C	0.827459	-0.229727	0.000077
C60	C	1.327459	0.270273	0.500077
C61	C	0.828722	-0.150785	0.000079
C62	C	1.328722	0.349215	0.500079
C63	C	0.822364	-0.548090	0.000071
C64	C	1.322364	-0.048090	0.500071
C65	C	0.821106	-0.627038	0.000072
C66	C	1.321106	-0.127038	0.500072
C67	C	0.959036	-0.645338	0.000090
C68	C	1.459036	-0.145338	0.500090
C69	C	0.960299	-0.566396	0.000091
C70	C	1.460299	-0.066396	0.500091
C71	C	0.891961	-0.517776	0.000077
C72	C	1.391961	-0.017776	0.500077
C73	C	0.893330	-0.432177	0.000083
C74	C	1.393330	0.067823	0.500083
C75	C	0.894427	-0.363951	0.000087
C76	C	1.394427	0.136049	0.500087
C77	C	1.032268	0.096156	0.000102
C78	C	1.532268	0.596156	0.500102
C79	C	1.116286	0.097494	0.000106
C80	C	1.616286	0.597494	0.500106
C81	C	0.888102	0.240322	0.000080
C82	C	1.388102	0.740322	0.500080
C83	C	0.889440	0.324340	0.000075
C84	C	1.389440	0.824340	0.500075
N85	N	0.893856	0.101926	0.188757
N86	N	1.393856	0.601926	0.688757
N87	N	0.893913	0.101939	-0.188579
N88	N	1.393913	0.601939	0.311421
C89	C	0.945422	0.050403	0.226865
C90	C	1.445422	0.550403	0.726865
C91	C	0.945427	0.050399	0.303093
C92	C	1.445427	0.550399	0.803093
C93	C	0.893873	0.101933	0.341209
C94	C	1.393873	0.601933	0.841209
C95	C	0.842298	0.153460	0.303091
C96	C	1.342298	0.653460	0.803091
C97	C	0.842289	0.153457	0.226865
C98	C	1.342289	0.653457	0.726865
C99	C	0.883830	0.170882	0.461965
C100	C	1.383830	0.670882	0.961965
C101	C	0.883844	0.170886	0.538190
C102	C	1.383844	0.670886	1.038190
C103	C	0.893895	0.101942	0.576317
C104	C	1.393895	0.601942	1.076317
C105	C	0.903948	0.032991	0.538210
C106	C	1.403948	0.532991	1.038210
C107	C	0.903939	0.032988	0.461984
C108	C	1.403939	0.532988	0.961984
C109	C	0.893876	0.101941	0.423864
C110	C	1.393876	0.601941	0.923864
C111	C	0.945468	0.050411	0.697081
C112	C	1.445468	0.550411	1.197081
C113	C	0.945468	0.050406	0.773310
C114	C	1.445468	0.550406	1.273310
C115	C	0.842343	0.153473	0.773306
C116	C	1.342343	0.653473	1.273306
C117	C	0.842339	0.153471	0.697079
C118	C	1.342339	0.653471	1.197079
C119	C	0.893906	0.101941	0.658970
C120	C	1.393906	0.601941	1.158970
H121	H	0.647537	0.231384	0.000053
H122	H	1.147537	0.731384	0.500053
H123	H	1.014680	-0.684934	0.000098
H124	H	1.514680	-0.184934	0.500098
H125	H	0.875633	0.227027	0.430928
H126	H	1.375633	0.727027	0.930928
H127	H	0.680748	-0.018868	0.000084
H128	H	1.180748	0.481132	0.500084
Cl129	Cl	0.482792	0.259357	0.000060
Cl130	Cl	0.982792	0.759357	0.500060
Cl131	Cl	0.524102	-0.051980	0.000100
Cl132	Cl	1.024102	0.448020	0.500100
Cl133	Cl	1.051303	-0.309154	0.000111
Cl134	Cl	1.551303	0.190846	0.500111
Cl135	Cl	1.054154	-0.130980	0.000124
Cl136	Cl	1.554154	0.369020	0.500124
H137	H	0.800298	0.195414	0.195836
H138	H	1.300298	0.695414	0.695836
H139	H	0.764429	-0.651721	0.000065
H140	H	1.264429	-0.151721	0.500065
H141	H	0.912132	-0.023149	0.569251
H142	H	1.412132	0.476851	1.069251
H143	H	0.773078	-0.111198	0.000072
H144	H	1.273078	0.388802	0.500072
H145	H	0.250232	0.225025	0.000078
H146	H	0.750232	0.725025	0.500078
H147	H	0.987455	0.008449	0.666052
H148	H	1.487455	0.508449	1.166052
Cl149	Cl	0.126793	-0.058340	0.000116
Cl150	Cl	0.626793	0.441660	0.500116
H151	H	0.107012	0.222734	0.000088
H152	H	0.607012	0.722734	0.500088
H153	H	0.987456	0.008446	0.804339
H154	H	1.487456	0.508446	1.304339
H155	H	0.800364	0.195430	0.804340
H156	H	1.300364	0.695430	1.304340
Cl157	Cl	0.777484	0.218242	0.351007
Cl158	Cl	1.277484	0.718242	0.851007
H159	H	0.283434	-0.025228	0.000112
H160	H	0.783434	0.474772	0.500112
H161	H	0.875663	0.227029	0.569210
H162	H	1.375663	0.727029	1.069210
Cl163	Cl	1.047795	-0.528283	0.000101
Cl164	Cl	1.547795	-0.028283	0.500101
H165	H	0.987419	0.008441	0.334127
H166	H	1.487419	0.508441	0.834127
H167	H	0.766718	-0.508512	0.000059
H168	H	1.266718	-0.008512	0.500059
H169	H	0.987409	0.008442	0.195840
H170	H	1.487409	0.508442	0.695840
H171	H	0.770792	-0.254420	0.000065
H172	H	1.270792	0.245580	0.500065
H173	H	0.912123	-0.023154	0.430960
H174	H	1.412123	0.476846	0.930960
Cl175	Cl	0.777515	0.218251	0.649166
Cl176	Cl	1.277515	0.718251	1.149166
