data_functionalizedCrystal
_audit_creation_method	'MofGen! by Chris Wilmer'
_symmetry_space_group_name_H-M	'P1'
_symmetry_Int_Tables_number	1
_symmetry_cell_setting	triclinic
loop_
_symmetry_equiv_pos_as_xyz
  x,y,z
_cell_length_a	23.532407
_cell_length_b	23.532407
_cell_length_c	22.610064
_cell_angle_alpha	90.002839
_cell_angle_beta	89.995564
_cell_angle_gamma	97.151287
loop_
_atom_site_label
_atom_site_type_symbol
_atom_site_fract_x
_atom_site_fract_y
_atom_site_fract_z
O1	O	0.069127	-0.755264	-0.049122
O2	O	0.569127	-0.255264	0.450878
O3	O	0.079130	-0.589400	-0.049140
O4	O	0.579130	-0.089400	0.450860
O5	O	-0.008803	-0.677333	-0.049114
O6	O	0.491197	-0.177333	0.450886
O7	O	0.157060	-0.667330	-0.049148
O8	O	0.657060	-0.167330	0.450852
O9	O	-0.008790	-0.677318	0.049255
O10	O	0.491210	-0.177318	0.549255
O11	O	0.079143	-0.589385	0.049229
O12	O	0.579143	-0.089385	0.549229
O13	O	0.069140	-0.755248	0.049248
O14	O	0.569140	-0.255248	0.549248
Zn15	Zn	0.074144	-0.672314	0.064856
Zn16	Zn	0.574144	-0.172314	0.564856
Zn17	Zn	0.074127	-0.672334	-0.064749
Zn18	Zn	0.574127	-0.172334	0.435251
O19	O	0.157073	-0.667315	0.049221
O20	O	0.657073	-0.167315	0.549221
C21	C	-0.030013	-0.677071	0.000074
C22	C	0.469987	-0.177071	0.500074
C23	C	-0.093230	-0.676305	0.000083
C24	C	0.406770	-0.176305	0.500083
C25	C	0.078882	-0.568176	0.000042
C26	C	0.578882	-0.068176	0.500042
C27	C	0.078116	-0.504959	0.000036
C28	C	0.578116	-0.004959	0.500036
C29	C	0.069388	-0.776472	0.000064
C30	C	0.569388	-0.276472	0.500064
C31	C	0.070154	-0.839689	0.000066
C32	C	0.570154	-0.339689	0.500066
C33	C	-0.359397	-0.621110	0.000039
C34	C	0.140603	-0.121110	0.500039
C35	C	-0.299997	-0.621821	0.000044
C36	C	0.200003	-0.121821	0.500044
O37	O	-0.263252	-0.578035	0.000020
O38	O	0.236748	-0.078035	0.500020
N39	N	-0.277371	-0.674097	0.000057
N40	N	0.222629	-0.174097	0.500057
C41	C	-0.314148	-0.725666	0.000059
C42	C	0.185852	-0.225666	0.500059
O43	O	-0.289449	-0.770196	0.000070
O44	O	0.210551	-0.270196	0.500070
C45	C	-0.373547	-0.724954	0.000050
C46	C	0.126453	-0.224954	0.500050
C47	C	-0.396170	-0.672674	0.000043
C48	C	0.103830	-0.172674	0.500043
C49	C	-0.382020	-0.568834	0.000032
C50	C	0.117980	-0.068834	0.500032
C51	C	-0.441417	-0.568123	0.000029
C52	C	0.058583	-0.068123	0.500029
C53	C	-0.478189	-0.619687	0.000032
C54	C	0.021811	-0.119687	0.500032
C55	C	-0.455566	-0.671963	0.000040
C56	C	0.044434	-0.171963	0.500040
C57	C	-0.410324	-0.776521	0.000048
C58	C	0.089676	-0.276521	0.500048
C59	C	-0.469726	-0.775805	0.000039
C60	C	0.030274	-0.275805	0.500039
C61	C	-0.492349	-0.723525	0.000032
C62	C	0.007651	-0.223525	0.500032
C63	C	-0.551735	-0.722816	0.000040
C64	C	-0.051735	-0.222816	0.500040
N65	N	-0.574361	-0.670539	0.000027
N66	N	-0.074361	-0.170539	0.500027
C67	C	-0.537589	-0.618975	0.000024
C68	C	-0.037589	-0.118975	0.500024
C69	C	-0.189406	-0.727157	0.000077
C70	C	0.310594	-0.227157	0.500077
C71	C	-0.130008	-0.727870	0.000090
C72	C	0.369992	-0.227870	0.500090
C73	C	-0.115860	-0.624025	0.000074
C74	C	0.384140	-0.124025	0.500074
C75	C	-0.175260	-0.623313	0.000065
C76	C	0.324740	-0.123313	0.500065
C77	C	-0.212032	-0.674881	0.000064
C78	C	0.287968	-0.174881	0.500064
C79	C	-0.662325	-0.617486	0.000017
C80	C	-0.162325	-0.117486	0.500017
C81	C	-0.721727	-0.616779	0.000016
C82	C	-0.221727	-0.116779	0.500016
C83	C	-0.735869	-0.720623	0.000028
C84	C	-0.235869	-0.220623	0.500028
C85	C	-0.676473	-0.721330	0.000033
C86	C	-0.176473	-0.221330	0.500033
C87	C	-0.639701	-0.669757	0.000025
C88	C	-0.139701	-0.169757	0.500025
O89	O	-0.588514	-0.766579	0.000061
O90	O	-0.088514	-0.266579	0.500061
O91	O	-0.562296	-0.574452	0.000005
O92	O	-0.062296	-0.074452	0.500005
C93	C	0.178283	-0.667577	0.000032
C94	C	0.678283	-0.167577	0.500032
C95	C	0.241500	-0.668343	0.000019
C96	C	0.741500	-0.168343	0.500019
N97	N	0.074155	-0.672304	0.153309
N98	N	0.574155	-0.172304	0.653309
C99	C	0.125350	-0.105856	0.000053
C100	C	0.625350	0.394144	0.500053
C101	C	0.124638	-0.046456	0.000056
C102	C	0.624638	0.453544	0.500056
O103	O	0.168424	-0.009711	0.000069
O104	O	0.668424	0.490289	0.500069
N105	N	0.072362	-0.023830	0.000066
N106	N	0.572362	0.476170	0.500066
C107	C	0.020794	-0.060607	0.000078
C108	C	0.520794	0.439393	0.500078
O109	O	-0.023737	-0.035908	0.000088
O110	O	0.476263	0.464092	0.500088
C111	C	0.021506	-0.120006	0.000079
C112	C	0.521506	0.379994	0.500079
C113	C	0.073785	-0.142629	0.000063
C114	C	0.573785	0.357371	0.500063
C115	C	0.177625	-0.128480	0.000037
C116	C	0.677625	0.371520	0.500037
C117	C	0.178336	-0.187876	0.000033
C118	C	0.678336	0.312124	0.500033
C119	C	0.126772	-0.224649	0.000043
C120	C	0.626772	0.275351	0.500043
C121	C	0.074497	-0.202025	0.000058
C122	C	0.574497	0.297975	0.500058
C123	C	-0.030062	-0.156783	0.000095
C124	C	0.469938	0.343217	0.500095
C125	C	-0.029345	-0.216185	0.000096
C126	C	0.470655	0.283815	0.500096
C127	C	0.022934	-0.238808	0.000080
C128	C	0.522934	0.261192	0.500080
C129	C	0.023643	-0.298194	0.000063
C130	C	0.523643	0.201806	0.500063
N131	N	0.075920	-0.320821	0.000054
N132	N	0.575920	0.179179	0.500054
C133	C	0.127484	-0.284048	0.000043
C134	C	0.627484	0.215952	0.500043
C135	C	0.019302	0.064135	0.000078
C136	C	0.519302	0.564135	0.500078
C137	C	0.018589	0.123533	0.000074
C138	C	0.518589	0.623533	0.500074
C139	C	0.122434	0.137680	0.000053
C140	C	0.622434	0.637680	0.500053
C141	C	0.123146	0.078281	0.000053
C142	C	0.623146	0.578281	0.500053
C143	C	0.071578	0.041509	0.000069
C144	C	0.571578	0.541509	0.500069
C145	C	0.128974	-0.408784	0.000033
C146	C	0.628974	0.091216	0.500033
C147	C	0.129680	-0.468186	0.000025
C148	C	0.629680	0.031814	0.500025
C149	C	0.025836	-0.482329	0.000049
C150	C	0.525836	0.017671	0.500049
C151	C	0.025129	-0.422932	0.000053
C152	C	0.525129	0.077068	0.500053
C153	C	0.076702	-0.386160	0.000047
C154	C	0.576702	0.113840	0.500047
O155	O	-0.020119	-0.334974	0.000053
O156	O	0.479881	0.165026	0.500053
O157	O	0.172007	-0.308756	0.000042
O158	O	0.672007	0.191244	0.500042
N159	N	0.074111	-0.672349	-0.153202
N160	N	0.574111	-0.172349	0.346798
C161	C	0.035196	-0.711273	0.561962
C162	C	0.535196	-0.211273	1.061962
C163	C	0.035192	-0.711276	0.623882
C164	C	0.535192	-0.211276	1.123882
O165	O	0.002076	-0.744384	0.655911
O166	O	0.502076	-0.244384	1.155911
N167	N	0.074115	-0.672334	0.654846
N168	N	0.574115	-0.172334	1.154846
C169	C	0.113041	-0.633383	0.623887
C170	C	0.613041	-0.133383	1.123887
O171	O	0.146147	-0.600260	0.655910
O172	O	0.646147	-0.100260	1.155910
C173	C	0.113042	-0.633378	0.561968
C174	C	0.613042	-0.133378	1.061968
C175	C	0.074120	-0.672326	0.531007
C176	C	0.574120	-0.172326	1.031007
C177	C	-0.003724	-0.750218	0.531001
C178	C	0.496276	-0.250218	1.031001
C179	C	-0.003719	-0.750215	0.469086
C180	C	0.496281	-0.250215	0.969086
C181	C	0.035206	-0.711268	0.438131
C182	C	0.535206	-0.211268	0.938131
C183	C	0.074125	-0.672323	0.469092
C184	C	0.574125	-0.172323	0.969092
C185	C	0.151965	-0.594424	0.531010
C186	C	0.651965	-0.094424	1.031010
C187	C	0.151962	-0.594422	0.469087
C188	C	0.651962	-0.094422	0.969087
C189	C	0.113040	-0.633370	0.438126
C190	C	0.613040	-0.133370	0.938126
C191	C	0.113054	-0.633374	0.376221
C192	C	0.613054	-0.133374	0.876221
N193	N	0.074131	-0.672316	0.345257
N194	N	0.574131	-0.172316	0.845257
C195	C	0.035207	-0.711263	0.376212
C196	C	0.535207	-0.211263	0.876212
C197	C	0.113035	-0.633396	0.753921
C198	C	0.613035	-0.133396	1.253921
C199	C	0.113037	-0.633403	0.815838
C200	C	0.613037	-0.133403	1.315838
C201	C	0.035187	-0.711296	0.815829
C202	C	0.535187	-0.211296	1.315829
C203	C	0.035188	-0.711291	0.753910
C204	C	0.535188	-0.211291	1.253910
C205	C	0.074112	-0.672338	0.722957
C206	C	0.574112	-0.172338	1.222957
C207	C	0.035220	-0.711255	0.246185
C208	C	0.535220	-0.211255	0.746185
C209	C	0.035230	-0.711251	0.184264
C210	C	0.535230	-0.211251	0.684264
C211	C	0.113078	-0.633357	0.184278
C212	C	0.613078	-0.133357	0.684278
C213	C	0.113071	-0.633363	0.246194
C214	C	0.613071	-0.133363	0.746194
C215	C	0.074137	-0.672314	0.277146
C216	C	0.574137	-0.172314	0.777146
O217	O	0.146151	-0.600281	0.344153
O218	O	0.646151	-0.100281	0.844153
O219	O	0.002101	-0.744376	0.344181
O220	O	0.502101	-0.244376	0.844181
H221	H	-0.740143	-0.574205	0.000013
H222	H	-0.240143	-0.074205	0.500013
N223	N	0.155056	-0.591346	0.150887
N224	N	0.655056	-0.091346	0.650887
H225	H	0.195447	-0.597668	0.161655
H226	H	0.695447	-0.097668	0.661655
H227	H	0.149097	-0.597276	0.106975
H228	H	0.649097	-0.097276	0.606975
H229	H	-0.071339	-0.246123	0.000109
H230	H	0.428661	0.253877	0.500109
H231	H	-0.193674	-0.580742	0.000062
H232	H	0.306326	-0.080742	0.500062
N233	N	-0.509390	-0.831424	0.000045
N234	N	-0.009390	-0.331424	0.500045
H235	H	-0.534347	-0.833451	-0.036421
H236	H	-0.034347	-0.333451	0.463579
H237	H	-0.486003	-0.864616	0.000075
H238	H	0.013997	-0.364616	0.500075
N239	N	-0.006804	-0.753293	0.720528
N240	N	0.493196	-0.253293	1.220528
H241	H	-0.031913	-0.731671	0.694848
H242	H	0.468087	-0.231671	1.194848
H243	H	0.014862	-0.778379	0.694863
H244	H	0.514862	-0.278379	1.194863
H245	H	-0.632392	-0.575489	0.000010
H246	H	-0.132392	-0.075489	0.500010
H247	H	-0.219343	-0.769152	0.000080
H248	H	0.280657	-0.269152	0.500080
H249	H	0.003492	-0.743008	0.841044
H250	H	0.503492	-0.243008	1.341044
H251	H	0.144737	-0.601694	0.841042
H252	H	0.644737	-0.101694	1.341042
H253	H	0.183658	-0.562700	0.443888
H254	H	0.683658	-0.062700	0.943888
N255	N	-0.086449	-0.132390	0.000118
N256	N	0.413551	0.367610	0.500118
H257	H	-0.109034	-0.145826	-0.036339
H258	H	0.390966	0.354174	0.463661
H259	H	-0.108965	-0.145832	0.036616
H260	H	0.391035	0.354168	0.536616
H261	H	-0.035423	-0.781933	0.556199
H262	H	0.464577	-0.281933	1.056199
N263	N	-0.031256	-0.398527	0.000059
N264	N	0.468744	0.101473	0.500059
H265	H	-0.063814	-0.430838	0.000062
H266	H	0.436186	0.069162	0.500062
H267	H	-0.033810	-0.374193	0.036530
H268	H	0.466190	0.125807	0.536530
H269	H	0.144736	-0.601677	0.728721
H270	H	0.644736	-0.101677	1.228721
N271	N	-0.037797	0.147930	0.000080
N272	N	0.462203	0.647930	0.500080
H273	H	-0.070352	0.115616	0.000085
H274	H	0.429648	0.615616	0.500085
H275	H	-0.040353	0.172266	0.036549
H276	H	0.459647	0.672266	0.536549
N277	N	-0.006749	-0.753263	0.150870
N278	N	0.493251	-0.253263	0.650870
H279	H	-0.031409	-0.777934	0.179879
H280	H	0.468591	-0.277934	0.679879
H281	H	-0.031816	-0.731605	0.125181
H282	H	0.468184	-0.231605	0.625181
H283	H	0.220908	-0.206289	0.000019
H284	H	0.720908	0.293711	0.500019
H285	H	-0.765820	-0.762606	0.000034
H286	H	-0.265820	-0.262606	0.500034
H287	H	0.172255	-0.486602	0.000012
H288	H	0.672255	0.013398	0.500012
N289	N	-0.029777	-0.521998	0.000068
N290	N	0.470223	-0.021998	0.500068
H291	H	-0.063006	-0.498657	0.000079
H292	H	0.436994	0.001343	0.500079
H293	H	-0.031750	-0.546955	-0.036397
H294	H	0.468250	-0.046955	0.463603
N295	N	0.178042	0.177365	0.000074
N296	N	0.678042	0.677365	0.500074
H297	H	0.200855	0.170119	0.036544
H298	H	0.700855	0.670119	0.536544
H299	H	0.200840	0.170127	-0.036411
H300	H	0.700840	0.670127	0.463589
N301	N	0.179531	0.053880	0.000044
N302	N	0.679531	0.553880	0.500044
H303	H	0.182139	0.029548	-0.036421
H304	H	0.682139	0.529548	0.463579
H305	H	0.212054	0.086224	0.000059
H306	H	0.712054	0.586224	0.500059
H307	H	0.219617	-0.098544	0.000031
H308	H	0.719617	0.401456	0.500031
N309	N	-0.006768	-0.753269	0.279563
N310	N	0.493232	-0.253269	0.779563
H311	H	-0.031417	-0.777939	0.250546
H312	H	0.468583	-0.277939	0.750546
H313	H	0.014910	-0.778322	0.305248
H314	H	0.514910	-0.278322	0.805248
H315	H	-0.022693	0.034198	0.000085
H316	H	0.477307	0.534198	0.500085
H317	H	-0.459830	-0.525552	0.000018
H318	H	0.040170	-0.025552	0.500018
H319	H	-0.035414	-0.781929	0.443881
H320	H	0.464586	-0.281929	0.943881
H321	H	0.183658	-0.562709	0.556210
H322	H	0.683658	-0.062709	1.056210
H323	H	-0.352085	-0.526842	0.000027
H324	H	0.147915	-0.026842	0.500027
H325	H	0.144770	-0.601653	0.271403
H326	H	0.644770	-0.101653	0.771403
N327	N	0.184598	-0.369129	0.000040
N328	N	0.684598	0.130871	0.500040
H329	H	0.217818	-0.392482	0.000033
H330	H	0.717818	0.107518	0.500033
H331	H	0.186571	-0.344170	-0.036422
H332	H	0.686571	0.155830	0.463578
N333	N	-0.076187	-0.568410	0.000063
N334	N	0.423813	-0.068410	0.500063
H335	H	-0.083423	-0.545594	-0.036408
H336	H	0.416577	-0.045594	0.463592
H337	H	-0.083449	-0.545622	0.036547
H338	H	0.416551	-0.045622	0.536547
N339	N	-0.105611	-0.784256	0.000110
N340	N	0.394389	-0.284256	0.500110
H341	H	-0.137925	-0.816811	0.000112
H342	H	0.362075	-0.316811	0.500112
H343	H	-0.081270	-0.786824	-0.036354
H344	H	0.418730	-0.286824	0.463646
N345	N	-0.385933	-0.832909	0.000056
N346	N	0.114067	-0.332909	0.500056
H347	H	-0.418250	-0.865461	0.000054
H348	H	0.081750	-0.365461	0.500054
H349	H	-0.361592	-0.835474	-0.036408
H350	H	0.138408	-0.335474	0.463592
H351	H	-0.658053	-0.763901	0.000047
H352	H	-0.158053	-0.263901	0.500047
