data_functionalizedCrystal
_audit_creation_method	'MofGen! by Chris Wilmer'
_symmetry_space_group_name_H-M	'P1'
_symmetry_Int_Tables_number	1
_symmetry_cell_setting	triclinic
loop_
_symmetry_equiv_pos_as_xyz
  x,y,z
_cell_length_a	18.215407
_cell_length_b	18.215405
_cell_length_c	18.215399
_cell_angle_alpha	89.970050
_cell_angle_beta	89.985195
_cell_angle_gamma	90.017245
loop_
_atom_site_label
_atom_site_type_symbol
_atom_site_fract_x
_atom_site_fract_y
_atom_site_fract_z
Zn1	Zn	1.125061	-0.293082	-0.416078
Zn2	Zn	1.375061	-0.043082	-0.166078
Zn3	Zn	1.625061	0.206918	0.083922
Zn4	Zn	1.875061	0.456918	0.333922
Zn5	Zn	1.124981	-0.416159	-0.293013
Zn6	Zn	1.374981	-0.166159	-0.043013
Zn7	Zn	1.624981	0.083841	0.206987
Zn8	Zn	1.874981	0.333841	0.456987
Zn9	Zn	1.002000	-0.293099	-0.293030
Zn10	Zn	1.252000	-0.043099	-0.043030
Zn11	Zn	1.502000	0.206901	0.206970
Zn12	Zn	1.752000	0.456901	0.456970
Zn13	Zn	1.001964	-0.416100	-0.416042
Zn14	Zn	1.251964	-0.166100	-0.166042
Zn15	Zn	1.501964	0.083900	0.083958
Zn16	Zn	1.751964	0.333900	0.333958
O17	O	1.063501	-0.354610	-0.354541
O18	O	1.313501	-0.104610	-0.104541
O19	O	1.563501	0.145390	0.145459
O20	O	1.813501	0.395390	0.395459
O21	O	1.228035	-0.309426	-0.399761
O22	O	1.478035	-0.059426	-0.149761
O23	O	1.728035	0.190574	0.100239
O24	O	1.978035	0.440574	0.350239
O25	O	1.108648	-0.399866	-0.190031
O26	O	1.358648	-0.149866	0.059969
O27	O	1.608648	0.100134	0.309969
O28	O	1.858648	0.350134	0.559969
O29	O	1.018373	-0.190112	-0.309375
O30	O	1.268373	0.059888	-0.059375
O31	O	1.518373	0.309888	0.190625
O32	O	1.768373	0.559888	0.440625
O33	O	1.227975	-0.399850	-0.309346
O34	O	1.477975	-0.149850	-0.059346
O35	O	1.727975	0.100150	0.190654
O36	O	1.977975	0.350150	0.440654
O37	O	1.108786	-0.190100	-0.399778
O38	O	1.358786	0.059900	-0.149778
O39	O	1.608786	0.309900	0.100222
O40	O	1.858786	0.559900	0.350222
O41	O	1.018295	-0.309454	-0.190043
O42	O	1.268295	-0.059454	0.059957
O43	O	1.518295	0.190546	0.309957
O44	O	1.768295	0.440546	0.559957
O45	O	0.899011	-0.309397	-0.309340
O46	O	1.149011	-0.059397	-0.059340
O47	O	1.399011	0.190603	0.190660
O48	O	1.649011	0.440603	0.440660
O49	O	1.018312	-0.399750	-0.519031
O50	O	1.268312	-0.149750	-0.269031
O51	O	1.518312	0.100250	-0.019031
O52	O	1.768312	0.350250	0.230969
O53	O	0.898985	-0.399766	-0.399716
O54	O	1.148985	-0.149766	-0.149716
O55	O	1.398985	0.100234	0.100284
O56	O	1.648985	0.350234	0.350284
O57	O	1.108751	-0.309369	-0.519058
O58	O	1.358751	-0.059369	-0.269058
O59	O	1.608751	0.190631	-0.019058
O60	O	1.858751	0.440631	0.230942
O61	O	1.108613	-0.519135	-0.309311
O62	O	1.358613	-0.269135	-0.059311
O63	O	1.608613	-0.019135	0.190689
O64	O	1.858613	0.230865	0.440689
O65	O	1.018234	-0.519092	-0.399700
O66	O	1.268234	-0.269092	-0.149700
O67	O	1.518234	-0.019092	0.100300
O68	O	1.768234	0.230908	0.350300
C69	C	0.872295	-0.354577	-0.354526
C70	C	1.122295	-0.104577	-0.104526
C71	C	1.372295	0.145423	0.145474
C72	C	1.622295	0.395423	0.395474
C73	C	0.790496	-0.354581	-0.354538
C74	C	1.040496	-0.104581	-0.104538
C75	C	1.290496	0.145419	0.145462
C76	C	1.540496	0.395419	0.395462
C77	C	0.525464	-0.307617	-0.401695
C78	C	0.775464	-0.057617	-0.151695
C79	C	1.025464	0.192383	0.098305
C80	C	1.275464	0.442383	0.348305
C81	C	0.602323	-0.307605	-0.401693
C82	C	0.852323	-0.057605	-0.151693
C83	C	1.102323	0.192395	0.098307
C84	C	1.352323	0.442395	0.348307
C85	C	0.602280	-0.401626	-0.307402
C86	C	0.852280	-0.151626	-0.057402
C87	C	1.102280	0.098374	0.192598
C88	C	1.352280	0.348374	0.442598
C89	C	0.525423	-0.401642	-0.307409
C90	C	0.775423	-0.151642	-0.057409
C91	C	1.025423	0.098358	0.192591
C92	C	1.275423	0.348358	0.442591
C93	C	0.487017	-0.354632	-0.354554
C94	C	0.737017	-0.104632	-0.104554
C95	C	0.987017	0.145368	0.145446
C96	C	1.237017	0.395368	0.395446
C97	C	0.640733	-0.354606	-0.354545
C98	C	0.890733	-0.104606	-0.104545
C99	C	1.140733	0.145394	0.145455
C100	C	1.390733	0.395394	0.395455
C101	C	0.724066	-0.354593	-0.354543
C102	C	0.974066	-0.104593	-0.104543
C103	C	1.224066	0.145407	0.145457
C104	C	1.474066	0.395407	0.395457
C105	C	0.403678	-0.354646	-0.354558
C106	C	0.653678	-0.104646	-0.104558
C107	C	0.903678	0.145354	0.145442
C108	C	1.153678	0.395354	0.395442
C109	C	1.063431	-0.545816	-0.354515
C110	C	1.313431	-0.295816	-0.104515
C111	C	1.563431	-0.045816	0.145485
C112	C	1.813431	0.204184	0.395485
C113	C	1.063468	-0.627615	-0.354529
C114	C	1.313468	-0.377615	-0.104529
C115	C	1.563468	-0.127615	0.145471
C116	C	1.813468	0.122385	0.395471
C117	C	1.110568	-0.815741	-0.401666
C118	C	1.360568	-0.565741	-0.151666
C119	C	1.610568	-0.315741	0.098334
C120	C	1.860568	-0.065741	0.348334
C121	C	1.110595	-0.892600	-0.401680
C122	C	1.360595	-0.642600	-0.151680
C123	C	1.610595	-0.392600	0.098320
C124	C	1.860595	-0.142600	0.348320
C125	C	1.016526	-0.892726	-0.307461
C126	C	1.266526	-0.642726	-0.057461
C127	C	1.516526	-0.392726	0.192539
C128	C	1.766526	-0.142726	0.442539
C129	C	1.016496	-0.815869	-0.307452
C130	C	1.266496	-0.565869	-0.057452
C131	C	1.516496	-0.315869	0.192548
C132	C	1.766496	-0.065869	0.442548
C133	C	1.063521	-0.777378	-0.354553
C134	C	1.313521	-0.527378	-0.104553
C135	C	1.563521	-0.277378	0.145447
C136	C	1.813521	-0.027378	0.395447
C137	C	1.063578	-0.931094	-0.354576
C138	C	1.313578	-0.681094	-0.104576
C139	C	1.563578	-0.431094	0.145424
C140	C	1.813578	-0.181094	0.395424
C141	C	1.063606	-1.014428	-0.354591
C142	C	1.313606	-0.764428	-0.104591
C143	C	1.563606	-0.514428	0.145409
C144	C	1.813606	-0.264428	0.395409
C145	C	1.063492	-0.694039	-0.354540
C146	C	1.313492	-0.444039	-0.104540
C147	C	1.563492	-0.194039	0.145460
C148	C	1.813492	0.055961	0.395460
C149	C	1.255454	-0.354643	-0.354556
C150	C	1.505454	-0.104643	-0.104556
C151	C	1.755454	0.145357	0.145444
C152	C	2.005454	0.395357	0.395444
C153	C	1.337253	-0.354657	-0.354562
C154	C	1.587253	-0.104657	-0.104562
C155	C	1.837253	0.145343	0.145438
C156	C	2.087253	0.395343	0.395438
C157	C	1.063536	-0.354551	-0.546494
C158	C	1.313536	-0.104551	-0.296494
C159	C	1.563536	0.145449	-0.046494
C160	C	1.813536	0.395449	0.203506
C161	C	1.063551	-0.354526	-0.628293
C162	C	1.313551	-0.104526	-0.378293
C163	C	1.563551	0.145474	-0.128293
C164	C	1.813551	0.395474	0.121707
C165	C	1.063592	-0.162657	-0.354582
C166	C	1.313592	0.087343	-0.104582
C167	C	1.563592	0.337343	0.145418
C168	C	1.813592	0.587343	0.395418
C169	C	1.063631	-0.080858	-0.354600
C170	C	1.313631	0.169142	-0.104600
C171	C	1.563631	0.419142	0.145400
C172	C	1.813631	0.669142	0.395400
C173	C	1.016544	-0.307417	-0.816494
C174	C	1.266544	-0.057417	-0.566494
C175	C	1.516544	0.192583	-0.316494
C176	C	1.766544	0.442583	-0.066494
C177	C	1.016557	-0.307402	-0.893353
C178	C	1.266557	-0.057402	-0.643353
C179	C	1.516557	0.192598	-0.393353
C180	C	1.766557	0.442598	-0.143353
C181	C	1.110646	-0.401547	-0.893329
C182	C	1.360646	-0.151547	-0.643329
C183	C	1.610646	0.098453	-0.393329
C184	C	1.860646	0.348453	-0.143329
C185	C	1.110629	-0.401565	-0.816472
C186	C	1.360629	-0.151565	-0.566472
C187	C	1.610629	0.098435	-0.316472
C188	C	1.860629	0.348435	-0.066472
C189	C	1.063579	-0.354496	-0.778056
C190	C	1.313579	-0.104496	-0.528056
C191	C	1.563579	0.145504	-0.278056
C192	C	1.813579	0.395504	-0.028056
C193	C	1.063609	-0.354463	-0.931772
C194	C	1.313609	-0.104463	-0.681772
C195	C	1.563609	0.145537	-0.431772
C196	C	1.813609	0.395537	-0.181772
C197	C	1.063623	-0.354447	-1.015106
C198	C	1.313623	-0.104447	-0.765106
C199	C	1.563623	0.145553	-0.515106
C200	C	1.813623	0.395553	-0.265106
C201	C	1.063564	-0.354512	-0.694717
C202	C	1.313564	-0.104512	-0.444717
C203	C	1.563564	0.145488	-0.194717
C204	C	1.813564	0.395488	0.055283
C205	C	1.063509	-0.354615	-0.163335
C206	C	1.313509	-0.104615	0.086665
C207	C	1.563509	0.145385	0.336665
C208	C	1.813509	0.395385	0.586665
C209	C	1.063637	-0.354433	-0.081536
C210	C	1.313637	-0.104433	0.168464
C211	C	1.563637	0.145567	0.418464
C212	C	1.813637	0.395567	0.668464
H213	H	0.494118	-0.439932	-0.269021
H214	H	0.744118	-0.189932	-0.019021
H215	H	0.994118	0.060068	0.230979
H216	H	1.244118	0.310068	0.480979
H217	H	1.148858	-0.784404	-0.440019
H218	H	1.398858	-0.534404	-0.190019
H219	H	1.648858	-0.284404	0.059981
H220	H	1.898858	-0.034404	0.309981
F221	F	1.160718	-0.451638	-0.934220
F222	F	1.410718	-0.201638	-0.684220
F223	F	1.660718	0.048362	-0.434220
F224	F	1.910718	0.298362	-0.184220
H225	H	0.494196	-0.269339	-0.440084
H226	H	0.744196	-0.019339	-0.190084
H227	H	0.994196	0.230661	0.059916
H228	H	1.244196	0.480661	0.309916
H229	H	0.978241	-0.924074	-0.269112
H230	H	1.228241	-0.674074	-0.019112
H231	H	1.478241	-0.424074	0.230888
H232	H	1.728241	-0.174074	0.480888
H233	H	0.633623	-0.269321	-0.440080
H234	H	0.883623	-0.019321	-0.190080
H235	H	1.133623	0.230679	0.059920
H236	H	1.383623	0.480679	0.309920
F237	F	0.966487	-0.257302	-0.934258
F238	F	1.216487	-0.007302	-0.684258
F239	F	1.466487	0.242698	-0.434258
F240	F	1.716487	0.492698	-0.184258
H241	H	0.633560	-0.439898	-0.269017
H242	H	0.883560	-0.189898	-0.019017
H243	H	1.133560	0.060102	0.230983
H244	H	1.383560	0.310102	0.480983
H245	H	1.148904	-0.923832	-0.440045
H246	H	1.398904	-0.673832	-0.190045
H247	H	1.648904	-0.423832	0.059955
H248	H	1.898904	-0.173832	0.309955
H249	H	1.148933	-0.439905	-0.785175
H250	H	1.398933	-0.189905	-0.535175
H251	H	1.648933	0.060095	-0.285175
H252	H	1.898933	0.310095	-0.035175
H253	H	0.978181	-0.784631	-0.269087
H254	H	1.228181	-0.534631	-0.019087
H255	H	1.478181	-0.284631	0.230913
H256	H	1.728181	-0.034631	0.480913
H257	H	0.978233	-0.269090	-0.785219
H258	H	1.228233	-0.019090	-0.535219
H259	H	1.478233	0.230910	-0.285219
H260	H	1.728233	0.480910	-0.035219
