data_functionalizedCrystal
_audit_creation_method	'MofGen! by Chris Wilmer'
_symmetry_space_group_name_H-M	'P1'
_symmetry_Int_Tables_number	1
_symmetry_cell_setting	triclinic
loop_
_symmetry_equiv_pos_as_xyz
  x,y,z
_cell_length_a	23.532407
_cell_length_b	19.288864
_cell_length_c	22.010155
_cell_angle_alpha	89.984364
_cell_angle_beta	89.993714
_cell_angle_gamma	97.007539
loop_
_atom_site_label
_atom_site_type_symbol
_atom_site_fract_x
_atom_site_fract_y
_atom_site_fract_z
O1	O	0.071031	-0.921128	0.050726
O2	O	0.571031	-0.421128	0.550726
O3	O	0.080615	-0.718838	0.050685
O4	O	0.580615	-0.218838	0.550685
O5	O	-0.007096	-0.826083	0.050696
O6	O	0.492904	-0.326083	0.550696
O7	O	0.158742	-0.813883	0.050716
O8	O	0.658742	-0.313883	0.550716
O9	O	-0.007073	-0.826076	-0.050355
O10	O	0.492927	-0.326076	0.449645
O11	O	0.080638	-0.718831	-0.050365
O12	O	0.580638	-0.218831	0.449635
O13	O	0.071055	-0.921121	-0.050324
O14	O	0.571055	-0.421121	0.449676
Cu15	Cu	0.075849	-0.819975	-0.059571
Cu16	Cu	0.575849	-0.319975	0.440429
Cu17	Cu	0.075821	-0.819984	0.059932
Cu18	Cu	0.575821	-0.319984	0.559932
O19	O	0.158765	-0.813876	-0.050335
O20	O	0.658765	-0.313876	0.449665
C21	C	0.080318	-0.692959	0.000155
C22	C	0.580318	-0.192959	0.500155
C23	C	0.079393	-0.615858	0.000139
C24	C	0.579393	-0.115858	0.500139
C25	C	-0.028301	-0.825769	0.000169
C26	C	0.471699	-0.325769	0.500169
C27	C	-0.091520	-0.824835	0.000164
C28	C	0.408480	-0.324835	0.500164
N29	N	0.075867	-0.819974	-0.143624
N30	N	0.575867	-0.319974	0.356376
C31	C	-0.490503	-0.882442	0.000209
C32	C	0.009497	-0.382442	0.500209
C33	C	-0.549905	-0.881574	0.000213
C34	C	-0.049905	-0.381574	0.500213
O35	O	-0.586539	-0.934976	0.000247
O36	O	-0.086539	-0.434976	0.500247
N37	N	-0.572664	-0.817817	0.000200
N38	N	-0.072664	-0.317817	0.500200
C39	C	-0.536017	-0.754923	0.000189
C40	C	-0.036017	-0.254923	0.500189
O41	O	-0.560829	-0.700613	0.000178
O42	O	-0.060829	-0.200613	0.500178
C43	C	-0.476616	-0.755792	0.000189
C44	C	0.023384	-0.255792	0.500189
C45	C	-0.453861	-0.819553	0.000196
C46	C	0.046139	-0.319553	0.500196
C47	C	-0.467748	-0.946198	0.000217
C48	C	0.032252	-0.446198	0.500217
C49	C	-0.408350	-0.947065	0.000211
C50	C	0.091650	-0.447065	0.500211
C51	C	-0.371708	-0.884176	0.000198
C52	C	0.128292	-0.384176	0.500198
C53	C	-0.394463	-0.820420	0.000190
C54	C	0.105537	-0.320420	0.500190
C55	C	-0.439970	-0.692899	0.000181
C56	C	0.060030	-0.192899	0.500181
C57	C	-0.380565	-0.693773	0.000182
C58	C	0.119435	-0.193773	0.500182
C59	C	-0.357811	-0.757534	0.000189
C60	C	0.142189	-0.257534	0.500189
C61	C	-0.298422	-0.758399	0.000171
C62	C	0.201578	-0.258399	0.500171
N63	N	-0.275664	-0.822156	0.000184
N64	N	0.224336	-0.322156	0.500184
C65	C	-0.312307	-0.885045	0.000198
C66	C	0.187693	-0.385045	0.500198
C67	C	-0.660763	-0.753104	0.000190
C68	C	-0.160763	-0.253104	0.500190
C69	C	-0.720163	-0.752235	0.000186
C70	C	-0.220163	-0.252235	0.500186
C71	C	-0.734047	-0.878886	0.000212
C72	C	-0.234047	-0.378886	0.500212
C73	C	-0.674647	-0.879755	0.000212
C74	C	-0.174647	-0.379755	0.500212
C75	C	-0.638005	-0.816861	0.000203
C76	C	-0.138005	-0.316861	0.500203
C77	C	-0.187566	-0.886862	0.000186
C78	C	0.312434	-0.386862	0.500186
C79	C	-0.128162	-0.887724	0.000178
C80	C	0.371838	-0.387724	0.500178
C81	C	-0.114283	-0.761073	0.000155
C82	C	0.385717	-0.261073	0.500155
C83	C	-0.173681	-0.760211	0.000160
C84	C	0.326319	-0.260211	0.500160
C85	C	-0.210322	-0.823111	0.000177
C86	C	0.289678	-0.323111	0.500177
O87	O	-0.261754	-0.705025	0.000141
O88	O	0.238246	-0.205025	0.500141
O89	O	-0.287486	-0.939346	0.000216
O90	O	0.212514	-0.439346	0.500216
C91	C	0.179971	-0.814190	0.000193
C92	C	0.679971	-0.314190	0.500193
C93	C	0.243190	-0.815124	0.000202
C94	C	0.743190	-0.315124	0.500202
C95	C	0.071351	-0.947000	0.000208
C96	C	0.571351	-0.447000	0.500208
C97	C	0.072277	-1.024101	0.000228
C98	C	0.572277	-0.524101	0.500228
C99	C	0.130858	-0.571003	0.000154
C100	C	0.630858	-0.071003	0.500154
C101	C	0.129988	-0.498559	0.000161
C102	C	0.629988	0.001441	0.500161
C103	C	0.077650	-0.470973	0.000164
C104	C	0.577650	0.029027	0.500164
C105	C	0.026179	-0.515838	0.000145
C106	C	0.526179	-0.015838	0.500145
C107	C	0.027050	-0.588280	0.000132
C108	C	0.527050	-0.088280	0.500132
C109	C	0.036499	-0.362840	0.035582
C110	C	0.536499	0.137160	0.535582
C111	C	0.035630	-0.290398	0.035599
C112	C	0.535630	0.209602	0.535599
C113	C	0.074961	-0.247535	0.000201
C114	C	0.574961	0.252465	0.500201
C115	C	0.115171	-0.277121	-0.035206
C116	C	0.615171	0.222879	0.464794
C117	C	0.116042	-0.349564	-0.035219
C118	C	0.616042	0.150436	0.464781
C119	C	0.076700	-0.392422	0.000178
C120	C	0.576700	0.107578	0.500178
C121	C	0.125487	-0.124127	0.000223
C122	C	0.625487	0.375873	0.500223
C123	C	0.124615	-0.051682	0.000226
C124	C	0.624615	0.448318	0.500226
C125	C	0.020804	-0.068962	0.000216
C126	C	0.520804	0.431038	0.500216
C127	C	0.021678	-0.141406	0.000207
C128	C	0.521678	0.358594	0.500207
C129	C	0.074021	-0.168984	0.000213
C130	C	0.574021	0.331016	0.500213
C131	C	0.114660	-0.772470	-0.436240
C132	C	0.614660	-0.272470	0.063760
C133	C	0.114666	-0.772468	-0.372633
C134	C	0.614666	-0.272468	0.127367
O135	O	0.147672	-0.732058	-0.339745
O136	O	0.647672	-0.232058	0.160255
N137	N	0.075846	-0.819968	-0.340808
N138	N	0.575846	-0.319968	0.159192
C139	C	0.037014	-0.867469	-0.372594
C140	C	0.537014	-0.367469	0.127406
O141	O	0.003995	-0.907872	-0.339684
O142	O	0.503995	-0.407872	0.160316
C143	C	0.037007	-0.867467	-0.436201
C144	C	0.537007	-0.367467	0.063799
C145	C	0.075833	-0.819968	-0.468022
C146	C	0.575833	-0.319968	0.031978
C147	C	0.153483	-0.724974	-0.468062
C148	C	0.653483	-0.224974	0.031938
C149	C	0.153479	-0.724977	-0.531665
C150	C	0.653479	-0.224977	-0.031665
C151	C	0.114651	-0.772475	-0.563447
C152	C	0.614651	-0.272475	-0.063447
C153	C	0.075829	-0.819971	-0.531625
C154	C	0.575829	-0.319971	-0.031625
C155	C	-0.001827	-0.914964	-0.467985
C156	C	0.498173	-0.414964	0.032015
C157	C	-0.001831	-0.914958	-0.531596
C158	C	0.498169	-0.414958	-0.031596
C159	C	0.036995	-0.867459	-0.563418
C160	C	0.536995	-0.367459	-0.063418
C161	C	0.036997	-0.867472	-0.627010
C162	C	0.536997	-0.367472	-0.127010
N163	N	0.075817	-0.819972	-0.658835
N164	N	0.575817	-0.319972	-0.158835
C165	C	0.114644	-0.772473	-0.627053
C166	C	0.614644	-0.272473	-0.127053
C167	C	0.037032	-0.867469	-0.239016
C168	C	0.537032	-0.367469	0.260984
C169	C	0.037042	-0.867475	-0.175411
C170	C	0.537042	-0.367475	0.324589
C171	C	0.114693	-0.772473	-0.175454
C172	C	0.614693	-0.272473	0.324546
C173	C	0.114685	-0.772471	-0.239061
C174	C	0.614685	-0.272471	0.260939
C175	C	0.075852	-0.819969	-0.270841
C176	C	0.575852	-0.319969	0.229159
C177	C	0.114632	-0.772483	-0.760625
C178	C	0.614632	-0.272483	-0.260625
C179	C	0.114625	-0.772492	-0.824233
C180	C	0.614625	-0.272492	-0.324233
C181	C	0.036973	-0.867492	-0.824185
C182	C	0.536973	-0.367492	-0.324185
C183	C	0.036981	-0.867486	-0.760582
C184	C	0.536981	-0.367486	-0.260582
C185	C	0.075813	-0.819976	-0.728803
C186	C	0.575813	-0.319976	-0.228803
O187	O	0.004005	-0.907860	-0.659938
O188	O	0.504005	-0.407860	-0.159938
O189	O	0.147653	-0.732072	-0.659971
O190	O	0.647653	-0.232072	-0.159971
N191	N	0.075798	-0.819991	0.143985
N192	N	0.575798	-0.319991	0.643985
H193	H	-0.109639	-0.939648	0.000182
H194	H	0.390361	-0.439648	0.500182
H195	H	-0.350734	-0.642556	0.000176
H196	H	0.149266	-0.142556	0.500176
H197	H	0.005371	-0.906170	-0.734672
H198	H	0.505371	-0.406170	-0.234672
Cl199	Cl	0.194691	-0.442159	0.000179
Cl200	Cl	0.694691	0.057841	0.500179
Cl201	Cl	-0.748761	-0.672075	0.000165
Cl202	Cl	-0.248761	-0.172075	0.500165
H203	H	-0.630931	-0.701886	0.000178
H204	H	-0.130931	-0.201886	0.500178
H205	H	0.168107	-0.146582	0.000219
H206	H	0.668107	0.353418	0.500219
H207	H	-0.033443	-0.953642	-0.442085
H208	H	0.466557	-0.453642	0.057915
Cl209	Cl	0.166587	-0.386757	-0.079730
Cl210	Cl	0.666587	0.113243	0.420270
H211	H	-0.217393	-0.938081	0.000202
H212	H	0.282607	-0.438081	0.500202
Cl213	Cl	-0.011836	-0.927203	-0.864149
Cl214	Cl	0.488164	-0.427203	-0.364149
Cl215	Cl	0.163440	-0.712776	-0.864234
Cl216	Cl	0.663440	-0.212776	-0.364234
H217	H	-0.389829	-0.998986	0.000220
H218	H	0.110171	-0.498986	0.500220
Cl219	Cl	-0.014913	-0.253211	0.080115
Cl220	Cl	0.485087	0.246789	0.580115
Cl221	Cl	-0.468560	-0.612736	0.000176
Cl222	Cl	0.031440	-0.112736	0.500176
H223	H	0.147198	-0.242223	-0.064031
H224	H	0.647198	0.257777	0.435969
Cl225	Cl	0.202301	-0.665254	-0.428118
Cl226	Cl	0.702301	-0.165254	0.071882
H227	H	-0.497577	-0.997412	0.000230
H228	H	0.002423	-0.497412	0.500230
H229	H	0.146307	-0.733796	-0.149566
H230	H	0.646307	-0.233796	0.350434
Cl231	Cl	-0.011763	-0.927200	-0.135414
Cl232	Cl	0.488237	-0.427200	0.364586
Cl233	Cl	0.189320	0.004709	0.000242
Cl234	Cl	0.689320	0.504709	0.500242
H235	H	0.185093	-0.686297	-0.557571
H236	H	0.685093	-0.186297	-0.057571
H237	H	-0.021810	-0.046503	0.000256
H238	H	0.478190	0.453497	0.500256
H239	H	0.005411	-0.906153	-0.264889
H240	H	0.505411	-0.406153	0.235111
H241	H	-0.192209	-0.708291	0.000137
H242	H	0.307791	-0.208291	0.500137
H243	H	0.146251	-0.733795	-0.734758
H244	H	0.646251	-0.233795	-0.234758
H245	H	-0.656124	-0.931675	0.000218
H246	H	-0.156124	-0.431675	0.500218
H247	H	-0.033455	-0.953636	-0.557469
H248	H	0.466545	-0.453636	-0.057469
H249	H	-0.020231	-0.177928	0.000197
H250	H	0.479769	0.322072	0.500197
H251	H	0.004470	-0.397734	0.064411
H252	H	0.504470	0.102266	0.564411
H253	H	-0.763893	-0.930094	0.000225
H254	H	-0.263893	-0.430094	0.500225
H255	H	-0.016435	-0.493372	0.000156
H256	H	0.483565	0.006628	0.500156
Cl257	Cl	-0.068207	-0.682017	0.000139
Cl258	Cl	0.431793	-0.182017	0.500139
Cl259	Cl	0.163496	-0.712754	-0.279058
Cl260	Cl	0.663496	-0.212754	0.220942
H261	H	-0.014860	-0.624802	0.000120
H262	H	0.485140	-0.124802	0.500120
Cl263	Cl	0.196660	-0.605669	0.000160
Cl264	Cl	0.696660	-0.105669	0.500160
