data_functionalizedCrystal
_audit_creation_method	'MofGen! by Chris Wilmer'
_symmetry_space_group_name_H-M	'P1'
_symmetry_Int_Tables_number	1
_symmetry_cell_setting	triclinic
loop_
_symmetry_equiv_pos_as_xyz
  x,y,z
_cell_length_a	6.817900
_cell_length_b	14.125465
_cell_length_c	11.168129
_cell_angle_alpha	94.659518
_cell_angle_beta	108.508637
_cell_angle_gamma	100.398878
loop_
_atom_site_label
_atom_site_type_symbol
_atom_site_fract_x
_atom_site_fract_y
_atom_site_fract_z
V1	V	-4.016763	-0.299985	-0.173620
V2	V	-3.516763	0.200015	0.326380
O3	O	-3.978122	-0.294266	0.009459
O4	O	-3.478122	0.205734	0.509459
O5	O	-3.993686	-0.297941	-0.345333
O6	O	-3.493686	0.202059	0.154667
O7	O	-3.952442	-0.430815	-0.170460
O8	O	-3.452442	0.069185	0.329540
O9	O	-4.019651	-0.160472	-0.166624
O10	O	-3.519651	0.339528	0.333376
V11	V	-4.499173	-0.283297	-0.151779
V12	V	-3.999173	0.216703	0.348221
O13	O	-4.280464	-0.336591	-0.221529
O14	O	-3.780464	0.163409	0.278471
O15	O	-4.685669	-0.246691	-0.103870
O16	O	-4.185669	0.253309	0.396130
O17	O	-4.299043	-0.285340	0.019933
O18	O	-3.799043	0.214660	0.519933
O19	O	-4.655211	-0.289016	-0.334859
O20	O	-4.155211	0.210984	0.165141
O21	O	-4.613681	-0.422809	-0.158775
O22	O	-4.113681	0.077191	0.341225
O23	O	-4.340287	-0.152467	-0.154940
O24	O	-3.840287	0.347533	0.345060
C25	C	-3.845362	-0.293211	-0.387208
C26	C	-3.345362	0.206789	0.112792
C27	C	-3.907675	-0.292412	-0.527582
C28	C	-3.407675	0.207588	-0.027582
C29	C	-3.904634	-0.208324	-0.573332
C30	C	-3.404634	0.291676	-0.073332
C31	C	-3.969036	-0.207497	-0.718416
C32	C	-3.469036	0.292503	-0.218416
C33	C	-3.792750	-0.462703	-0.164138
C34	C	-3.292750	0.037297	0.335862
C35	C	-3.821612	-0.569657	-0.162690
C36	C	-3.321612	-0.069657	0.337310
C37	C	-3.874513	-0.765480	-0.160035
C38	C	-3.374513	-0.265480	0.339965
C39	C	-4.060791	-0.817802	-0.165361
C40	C	-3.560791	-0.317802	0.334639
C41	C	-4.090228	-0.926764	-0.163884
C42	C	-3.590228	-0.426764	0.336116
C43	C	-3.845068	-0.656507	-0.161513
C44	C	-3.345068	-0.156507	0.338487
C45	C	-4.110710	-0.290068	0.061802
C46	C	-3.610710	0.209932	0.561802
C47	C	-4.027635	-0.290873	0.202175
C48	C	-3.527635	0.209127	0.702175
C49	C	-4.163322	-0.120574	-0.161265
C50	C	-3.663322	0.379426	0.338735
C51	C	-4.113698	-0.013619	-0.162707
C52	C	-3.613698	0.486381	0.337293
H53	H	-4.030127	-0.362869	-0.758425
H54	H	-3.530127	0.137131	-0.258425
H55	H	-3.966526	-0.135504	-0.757824
H56	H	-3.466526	0.364496	-0.257824
H57	H	-3.957963	-0.363791	-0.595824
H58	H	-3.457963	0.136209	-0.095824
H59	H	-4.198167	-0.780763	-0.171043
H60	H	-3.698167	-0.280763	0.328957
H61	H	-3.737155	-0.802518	-0.154368
H62	H	-3.237155	-0.302518	0.345632
H63	H	-3.854363	-0.136946	-0.505091
H64	H	-3.354363	0.363054	-0.005091
