data_functionalizedCrystal
_audit_creation_method	'MofGen! by Chris Wilmer'
_symmetry_space_group_name_H-M	'P1'
_symmetry_Int_Tables_number	1
_symmetry_cell_setting	triclinic
loop_
_symmetry_equiv_pos_as_xyz
  x,y,z
_cell_length_a	27.435584
_cell_length_b	27.434948
_cell_length_c	27.431174
_cell_angle_alpha	60.005483
_cell_angle_beta	60.011353
_cell_angle_gamma	59.993028
loop_
_atom_site_label
_atom_site_type_symbol
_atom_site_fract_x
_atom_site_fract_y
_atom_site_fract_z
O1	O	0.067437	-0.712144	0.595551
O2	O	0.025356	-0.554453	0.479848
O3	O	0.125206	-0.654236	0.479781
O4	O	-0.032412	-0.612361	0.595618
O5	O	0.158328	-0.621117	0.512835
O6	O	0.058479	-0.521333	0.512902
O7	O	0.100560	-0.679025	0.628605
Zn8	Zn	0.084778	-0.594921	0.576001
Zn9	Zn	0.041138	-0.638557	0.532452
O10	O	0.000710	-0.579241	0.628672
N11	N	0.114563	-0.565144	0.605726
N12	N	0.011358	-0.668338	0.502727
C13	C	0.156385	-0.523520	0.904506
C14	C	0.413419	-0.523497	0.647322
C15	C	0.156253	-0.523488	0.647384
C16	C	0.156238	-0.266354	0.647407
C17	C	0.197637	-0.390463	0.688753
C18	C	0.197646	-0.482126	0.688741
C19	C	0.220575	-0.459215	0.711654
C20	C	0.320555	-0.441991	0.659023
C21	C	0.383051	-0.462825	0.638179
C22	C	0.383069	-0.563942	0.676737
C23	C	0.320575	-0.543107	0.697583
C24	C	0.212704	-0.359206	0.627313
C25	C	0.191849	-0.296705	0.606496
C26	C	0.140866	-0.296722	0.708562
C27	C	0.161721	-0.359223	0.729379
C28	C	0.136200	-0.467030	0.703858
C29	C	0.115361	-0.487857	0.683021
C30	C	0.217408	-0.538877	0.631968
C31	C	0.238249	-0.518050	0.652796
C32	C	0.136259	-0.467047	0.811668
C33	C	0.115461	-0.487892	0.874167
C34	C	0.217537	-0.538923	0.874131
C35	C	0.238333	-0.518080	0.811631
C36	C	0.197693	-0.482140	0.780401
C37	C	0.289320	-0.482131	0.688723
C38	C	0.132699	-0.546027	0.973247
C39	C	0.482158	-0.545613	0.624075
C40	C	0.132521	-0.546006	0.624886
C41	C	0.132917	-0.197607	0.625310
C42	C	-0.098217	-0.686189	0.484419
C43	C	-0.006438	-0.686322	0.392891
C44	C	-0.006621	-0.777944	0.484592
C45	C	-0.006606	-0.686315	0.484649
C46	C	-0.029470	-0.709193	0.461638
N47	N	0.538410	-0.565162	0.605628
O48	O	0.742647	-0.575135	0.458625
O49	O	0.742821	-0.691181	0.616169
O50	O	0.742757	-0.690917	0.516248
O51	O	0.742711	-0.575399	0.558546
O52	O	0.643472	-0.657878	0.549405
O53	O	0.643536	-0.658142	0.649326
O54	O	0.643362	-0.542096	0.491782
Zn55	Zn	0.627685	-0.594873	0.575818
Zn56	Zn	0.758498	-0.638404	0.532133
O57	O	0.643426	-0.542360	0.591702
N58	N	0.847774	-0.668115	0.502317
N59	N	0.114542	-0.141354	0.605766
O60	O	-0.032397	0.062987	0.595660
O61	O	0.125155	0.062987	0.479633
O62	O	0.025219	0.062974	0.479910
O63	O	0.067539	0.063001	0.595383
O64	O	0.058343	-0.036320	0.513009
O65	O	0.158279	-0.036306	0.512732
O66	O	0.000728	-0.036306	0.628759
Zn67	Zn	0.084763	-0.052071	0.576000
Zn68	Zn	0.041120	0.078752	0.532392
O69	O	0.100664	-0.036292	0.628482
N70	N	0.011333	0.168036	0.502628
N71	N	0.114782	-0.565197	1.029501
O72	O	0.104681	-0.712124	1.233827
O73	O	-0.011334	-0.554523	1.233839
O74	O	-0.011066	-0.654443	1.233797
O75	O	0.104414	-0.612204	1.233869
O76	O	0.022028	-0.621336	1.134509
O77	O	0.021760	-0.521417	1.134551
O78	O	0.137775	-0.679018	1.134539
Zn79	Zn	0.085022	-0.594961	1.118780
Zn80	Zn	0.041420	-0.638580	1.249597
O81	O	0.137508	-0.579098	1.134580
N82	N	0.011658	-0.668350	1.338876
C83	C	0.037974	-0.518023	0.480435
C84	C	0.161625	-0.641592	0.480351
C85	C	0.087941	-0.715455	0.628017
C86	C	-0.035710	-0.591885	0.628101
C87	C	0.693199	-0.690642	0.652596
C88	C	0.693122	-0.690315	0.528855
C89	C	0.692981	-0.542634	0.455356
C90	C	0.693062	-0.542961	0.579095
C91	C	0.161524	0.013463	0.480164
C92	C	0.037807	0.013324	0.480547
C93	C	-0.035683	0.013341	0.628188
C94	C	0.088076	0.013357	0.627845
C95	C	-0.010764	-0.518114	1.184196
C96	C	-0.010426	-0.641846	1.184125
C97	C	0.137205	-0.715426	1.184182
C98	C	0.136875	-0.591687	1.184231
H99	H	0.103160	-0.437777	0.786243
O100	O	0.693337	-0.734180	0.706522
C101	C	0.744792	-0.784459	0.698624
H102	H	0.761906	-0.783778	0.650983
H103	H	0.780803	-0.783379	0.707170
C104	C	0.708216	-0.842597	0.801317
C105	C	0.729233	-0.841763	0.742805
H106	H	0.698620	-0.877946	0.828571
H107	H	0.673551	-0.808723	0.806639
H108	H	0.738228	-0.841695	0.808430
H109	H	0.699218	-0.842658	0.735690
H110	H	0.763893	-0.875639	0.737483
H111	H	0.693140	-0.726605	0.519802
H112	H	0.693053	-0.506675	0.588146
O113	O	0.180144	-0.580975	1.184353
C114	C	0.196223	-0.621915	1.235769
H115	H	0.157980	-0.639408	1.271702
H116	H	0.237794	-0.660786	1.224140
C117	C	0.256263	-0.569014	1.214970
C118	C	0.209291	-0.590494	1.259105
H119	H	0.264327	-0.549633	1.229364
H120	H	0.245432	-0.541433	1.180329
H121	H	0.290900	-0.601410	1.205283
H122	H	0.174653	-0.558097	1.268786
H123	H	0.220116	-0.618069	1.293749
O124	O	-0.053745	-0.652609	1.184155
C125	C	-0.104116	-0.645955	1.235546
H126	H	-0.089862	-0.652447	1.271532
H127	H	-0.137927	-0.599326	1.223910
C128	C	-0.150227	-0.684935	1.214591
C129	C	-0.132720	-0.692912	1.258791
H130	H	-0.167874	-0.713898	1.228929
H131	H	-0.116292	-0.689415	1.179966
H132	H	-0.178400	-0.646075	1.204898
H133	H	-0.104542	-0.731768	1.268478
H134	H	-0.166651	-0.688439	1.293418
O135	O	0.692940	-0.499239	0.401340
C136	C	0.692911	-0.520728	0.364192
H137	H	0.711754	-0.571581	0.380336
H138	H	0.645269	-0.505580	0.365838
C139	C	0.708641	-0.433508	0.279752
C140	C	0.731789	-0.495967	0.299577
H141	H	0.732620	-0.418233	0.239894
H142	H	0.708658	-0.419029	0.304780
H143	H	0.668939	-0.420893	0.281129
H144	H	0.771486	-0.508581	0.298207
H145	H	0.731779	-0.510448	0.274548
O146	O	0.215628	-0.652334	0.436971
C147	C	0.226297	-0.700639	0.423174
H148	H	0.198394	-0.729317	0.462649
H149	H	0.213476	-0.682899	0.382222
C150	C	0.327232	-0.703403	0.361615
C151	C	0.292965	-0.738630	0.410101
H152	H	0.368356	-0.726837	0.353548
H153	H	0.320044	-0.670858	0.370909
H154	H	0.316541	-0.688623	0.327494
H155	H	0.303651	-0.753403	0.444223
H156	H	0.300156	-0.771178	0.400813
O157	O	-0.089740	-0.581133	0.671444
C158	C	-0.126839	-0.522474	0.649852
H159	H	-0.098087	-0.494128	0.611514
H160	H	-0.156987	-0.523379	0.633269
C161	C	-0.200788	-0.530281	0.747545
C162	C	-0.165475	-0.495465	0.700460
H163	H	-0.224622	-0.513621	0.778762
H164	H	-0.175795	-0.569802	0.762092
H165	H	-0.225906	-0.531033	0.733718
H166	H	-0.140351	-0.494720	0.714285
H167	H	-0.190464	-0.455943	0.685916
O168	O	0.215415	0.013821	0.436651
C169	C	0.252546	0.013928	0.458101
H170	H	0.223828	0.032534	0.496561
H171	H	0.282917	-0.033645	0.474471
C172	C	0.326143	0.030325	0.360230
C173	C	0.290871	0.053181	0.407463
H174	H	0.349787	0.054535	0.328994
H175	H	0.301129	0.030250	0.345778
H176	H	0.351447	-0.009319	0.373879
H177	H	0.265563	0.092821	0.393816
H178	H	0.315882	0.053263	0.421912
O179	O	0.180588	-0.769465	1.184202
C180	C	0.159107	-0.806602	1.184159
H181	H	0.108256	-0.790425	1.202947
H182	H	0.174282	-0.804981	1.136517
C183	C	0.246289	-0.891081	1.200011
C184	C	0.183834	-0.871215	1.223092
H185	H	0.261544	-0.930937	1.224024
H186	H	0.260763	-0.866060	1.200038
H187	H	0.258927	-0.889725	1.160310
H188	H	0.171197	-0.872564	1.262789
H189	H	0.169359	-0.896237	1.223072
O190	O	-0.054292	-0.464167	1.184277
C191	C	-0.104589	-0.472025	1.235695
H192	H	-0.103915	-0.519660	1.252826
H193	H	-0.103536	-0.463464	1.271716
C194	C	-0.162691	-0.369317	1.199019
C195	C	-0.161866	-0.427822	1.220057
H196	H	-0.198023	-0.342050	1.189375
H197	H	-0.128805	-0.364023	1.164379
H198	H	-0.161811	-0.362192	1.229040
H199	H	-0.162739	-0.434949	1.190034
H200	H	-0.195754	-0.433117	1.254693
O201	O	0.026920	0.013271	0.437347
C202	C	-0.031765	0.013274	0.459094
H203	H	-0.047463	-0.005502	0.509946
H204	H	-0.062662	0.060904	0.443980
C205	C	-0.013648	-0.002637	0.372114
C206	C	-0.032926	-0.025704	0.434572
H207	H	-0.014365	-0.026678	0.356986
H208	H	0.025889	-0.002637	0.357462
H209	H	-0.039398	0.037053	0.359527
H210	H	-0.007171	-0.065391	0.447157
H211	H	-0.072458	-0.025711	0.449225
O212	O	-0.089619	0.013240	0.671697
C213	C	-0.081736	-0.038169	0.722011
H214	H	-0.038022	-0.074116	0.707631
H215	H	-0.080352	-0.026533	0.755703
C216	C	-0.187732	-0.017336	0.768546
C217	C	-0.134045	-0.061488	0.750883
H218	H	-0.220000	-0.031719	0.786358
H219	H	-0.193044	0.017301	0.734650
H220	H	-0.186571	-0.007643	0.796620
H221	H	-0.135204	-0.071175	0.722804
H222	H	-0.128735	-0.096128	0.784775
O223	O	0.098650	-0.769539	0.671317
C224	C	0.112688	-0.814501	0.650819
H225	H	0.093458	-0.794132	0.613720
H226	H	0.163241	-0.835499	0.632873
C227	C	0.109330	-0.887781	0.748350
C228	C	0.085706	-0.862765	0.702788
H229	H	0.092689	-0.917554	0.780407
H230	H	0.099875	-0.857490	0.762161
H231	H	0.151457	-0.905275	0.733388
H232	H	0.043582	-0.845265	0.717749
H233	H	0.095154	-0.893054	0.688981
O234	O	0.055760	-0.473143	0.904441
C235	C	0.024355	-0.436964	0.863471
H236	H	0.054146	-0.414244	0.818917
H237	H	0.010870	-0.465790	0.856826
C238	C	-0.068568	-0.417099	0.942600
C239	C	-0.031980	-0.389190	0.887880
H240	H	-0.103319	-0.387632	0.957657
H241	H	-0.047410	-0.441476	0.970203
H242	H	-0.079799	-0.441120	0.937055
H243	H	-0.020744	-0.365176	0.893426
H244	H	-0.053137	-0.364809	0.860278
O245	O	0.098942	0.013251	0.671147
C246	C	0.147305	-0.038167	0.684842
H247	H	0.152003	-0.074108	0.671726
H248	H	0.190104	-0.026539	0.659084
C249	C	0.130203	-0.017345	0.768424
C250	C	0.135970	-0.061491	0.752320
H251	H	0.123213	-0.031732	0.810047
H252	H	0.097621	0.017297	0.759197
H253	H	0.165870	-0.007659	0.746954
H254	H	0.100300	-0.071170	0.773784
H255	H	0.168545	-0.096135	0.761553
O256	O	0.257040	-0.573909	0.904436
C257	C	0.293189	-0.626315	0.889136
H258	H	0.269048	-0.635009	0.871966
H259	H	0.337080	-0.620626	0.852845
C260	C	0.335649	-0.668823	0.965726
C261	C	0.305996	-0.679503	0.944643
H262	H	0.343552	-0.701632	0.999964
H263	H	0.311297	-0.633515	0.976033
H264	H	0.372222	-0.664081	0.935479
H265	H	0.269421	-0.684237	0.974888
H266	H	0.330343	-0.714813	0.934342
O267	O	0.055654	-0.473166	0.697784
C268	C	0.024283	-0.436985	0.733969
H269	H	0.054107	-0.444962	0.756677
H270	H	0.010778	-0.388026	0.705152
C271	C	-0.068663	-0.443025	0.753857
C272	C	-0.032033	-0.452826	0.781751
H273	H	-0.103402	-0.452794	0.783329
H274	H	-0.047528	-0.467399	0.729476
H275	H	-0.079910	-0.402226	0.729844
H276	H	-0.020780	-0.493626	0.805757
H277	H	-0.053167	-0.428459	0.806137
H278	H	0.103135	-0.437780	0.733124
O279	O	0.256884	-0.573682	0.596967
C280	C	0.292998	-0.542113	0.544564
H281	H	0.268844	-0.492112	0.535892
H282	H	0.336909	-0.555415	0.550239
C283	C	0.335425	-0.618615	0.502023
C284	C	0.305757	-0.557203	0.491368
H285	H	0.343298	-0.627925	0.469209
H286	H	0.311096	-0.639885	0.537328
H287	H	0.372014	-0.629692	0.506753
H288	H	0.269165	-0.546128	0.486646
H289	H	0.330080	-0.535931	0.456061
O290	O	0.290324	-0.582178	0.726398
C291	C	0.331315	-0.640465	0.729755
H292	H	0.375852	-0.638088	0.692836
H293	H	0.337986	-0.664326	0.775043
C294	C	0.252215	-0.678033	0.767461
C295	C	0.306915	-0.675114	0.722113
H296	H	0.237163	-0.699408	0.762751
H297	H	0.224598	-0.638765	0.765202
H298	H	0.257781	-0.697916	0.805197
H299	H	0.301346	-0.655226	0.684380
H300	H	0.334530	-0.714381	0.724366
H301	H	0.408481	-0.430137	0.613993
O302	O	0.413464	-0.623155	0.685231
C303	C	0.449604	-0.631646	0.629442
H304	H	0.430746	-0.592077	0.593413
H305	H	0.496969	-0.635337	0.618611
C306	C	0.473733	-0.737985	0.676050
C307	C	0.450569	-0.689388	0.631800
H308	H	0.474332	-0.773604	0.677505
H309	H	0.449387	-0.732266	0.713637
H310	H	0.513202	-0.741053	0.667019
H311	H	0.411099	-0.686316	0.640836
H312	H	0.474909	-0.695108	0.594215
H313	H	0.288283	-0.530335	0.640482
O314	O	0.290261	-0.382736	0.650313
C315	C	0.305494	-0.350491	0.588605
H316	H	0.350865	-0.377801	0.563989
H317	H	0.270306	-0.341164	0.571581
C318	C	0.252653	-0.257432	0.607684
C319	C	0.308381	-0.290973	0.577450
H320	H	0.254431	-0.220718	0.600802
H321	H	0.242388	-0.279156	0.649257
H322	H	0.223336	-0.249666	0.593493
H323	H	0.337695	-0.298745	0.591647
H324	H	0.318650	-0.269249	0.535879
O325	O	0.247618	-0.389646	0.587933
C326	C	0.262784	-0.451514	0.619481
H327	H	0.259078	-0.460057	0.666178
H328	H	0.231013	-0.469251	0.622983
C329	C	0.331827	-0.473100	0.528779
C330	C	0.327280	-0.483593	0.586132
H331	H	0.371610	-0.492889	0.508207
H332	H	0.321609	-0.431419	0.507524
H333	H	0.305348	-0.487882	0.531705
H334	H	0.353754	-0.468805	0.583205
H335	H	0.337505	-0.525273	0.607386
O336	O	0.206380	-0.266311	0.546816
C337	C	0.153852	-0.230145	0.531733
H338	H	0.116322	-0.248986	0.566971
H339	H	0.140693	-0.182780	0.529667
C340	C	0.211041	-0.206028	0.427164
C341	C	0.164948	-0.229172	0.470442
H342	H	0.217885	-0.205426	0.389357
H343	H	0.246430	-0.230392	0.437326
H344	H	0.200069	-0.166560	0.425451
H345	H	0.175923	-0.268642	0.472161
H346	H	0.129560	-0.204815	0.460279
O347	O	0.105967	-0.266465	0.748105
C348	C	0.097164	-0.307455	0.806800
H349	H	0.104151	-0.352008	0.806688
H350	H	0.130446	-0.314100	0.824686
C351	C	0.024570	-0.228353	0.847041
C352	C	0.033146	-0.283071	0.846905
H353	H	-0.014918	-0.213311	0.871781
H354	H	0.030502	-0.200736	0.807498
H355	H	0.052309	-0.233898	0.861945
H356	H	0.005412	-0.277524	0.831994
H357	H	0.027208	-0.310687	0.886447
O358	O	0.027320	-0.463960	0.437096
C359	C	0.068290	-0.437453	0.421009
H360	H	0.085755	-0.457224	0.459281
H361	H	0.107171	-0.446466	0.379483
C362	C	0.015479	-0.345331	0.360825
C363	C	0.036926	-0.369611	0.407834
H364	H	-0.003866	-0.303482	0.352695
H365	H	-0.012122	-0.363189	0.371661
H366	H	0.047883	-0.352848	0.326226
H367	H	0.004521	-0.362100	0.442434
H368	H	0.064521	-0.351749	0.397003
H369	H	0.288361	-0.530376	0.786177
H370	H	0.149444	-0.384673	0.779411
