data_functionalizedCrystal
_audit_creation_method	'MofGen! by Chris Wilmer'
_symmetry_space_group_name_H-M	'P1'
_symmetry_Int_Tables_number	1
_symmetry_cell_setting	triclinic
loop_
_symmetry_equiv_pos_as_xyz
  x,y,z
_cell_length_a	19.077105
_cell_length_b	19.076808
_cell_length_c	19.076919
_cell_angle_alpha	90.121640
_cell_angle_beta	89.923776
_cell_angle_gamma	89.927608
loop_
_atom_site_label
_atom_site_type_symbol
_atom_site_fract_x
_atom_site_fract_y
_atom_site_fract_z
Zn1	Zn	1.045199	-0.339419	0.426239
Zn2	Zn	1.378532	-0.006086	0.759572
Zn3	Zn	1.711865	0.327247	1.092906
Zn4	Zn	1.045494	-0.452227	0.304020
Zn5	Zn	1.378828	-0.118893	0.637353
Zn6	Zn	1.712161	0.214440	0.970687
Zn7	Zn	0.932779	-0.330021	0.304425
Zn8	Zn	1.266112	0.003313	0.637758
Zn9	Zn	1.599445	0.336646	0.971092
Zn10	Zn	0.923332	-0.451803	0.416790
Zn11	Zn	1.256666	-0.118470	0.750123
Zn12	Zn	1.589999	0.214863	1.083457
O13	O	0.986701	-0.393368	0.362869
O14	O	1.320034	-0.060034	0.696202
O15	O	1.653368	0.273299	1.029535
O16	O	1.143411	-0.358494	0.413811
O17	O	1.476745	-0.025161	0.747145
O18	O	1.810078	0.308173	1.080478
O19	O	1.034619	-0.432259	0.205899
O20	O	1.367953	-0.098926	0.539233
O21	O	1.701286	0.234407	0.872566
O22	O	0.951521	-0.233091	0.324708
O23	O	1.284854	0.100242	0.658041
O24	O	1.618188	0.433576	0.991374
O25	O	1.143629	-0.441373	0.324017
O26	O	1.476962	-0.108040	0.657351
O27	O	1.810295	0.225294	0.990684
O28	O	1.034116	-0.239996	0.414204
O29	O	1.367449	0.093337	0.747537
O30	O	1.700782	0.426671	1.080871
O31	O	0.951807	-0.342475	0.206197
O32	O	1.285141	-0.009142	0.539530
O33	O	1.618474	0.324191	0.872864
O34	O	0.833352	-0.342065	0.315546
O35	O	1.166685	-0.008732	0.648879
O36	O	1.500019	0.324602	0.982212
O37	O	0.935421	-0.440652	0.516218
O38	O	1.268754	-0.107318	0.849551
O39	O	1.602088	0.226015	1.182885
O40	O	0.826412	-0.431538	0.398100
O41	O	1.159745	-0.098205	0.731433
O42	O	1.493079	0.235128	1.064767
O43	O	1.024956	-0.358084	0.523160
O44	O	1.358289	-0.024750	0.856493
O45	O	1.691623	0.308583	1.189827
O46	O	1.025460	-0.550347	0.314855
O47	O	1.358793	-0.217014	0.648188
O48	O	1.692126	0.116320	0.981522
O49	O	0.935708	-0.550036	0.397707
O50	O	1.269041	-0.216703	0.731040
O51	O	1.602374	0.116631	1.064374
C52	C	0.804427	-0.385736	0.355842
C53	C	1.137760	-0.052403	0.689175
C54	C	1.471093	0.280930	1.022508
C55	C	0.726447	-0.382489	0.352852
C56	C	1.059781	-0.049156	0.686185
C57	C	1.393114	0.284177	1.019518
C58	C	0.686218	-0.427613	0.394355
C59	C	1.019551	-0.094279	0.727688
C60	C	1.352885	0.239054	1.061022
C61	C	0.612949	-0.424553	0.391549
C62	C	0.946282	-0.091219	0.724883
C63	C	1.279615	0.242114	1.058216
C64	C	0.579910	-0.376372	0.347236
C65	C	0.913243	-0.043039	0.680569
C66	C	1.246577	0.290295	1.013903
C67	C	0.620145	-0.331244	0.305731
C68	C	0.953478	0.002089	0.639064
C69	C	1.286811	0.335423	0.972398
C70	C	0.693413	-0.334301	0.308541
C71	C	1.026746	-0.000968	0.641874
C72	C	1.360079	0.332366	0.975208
C73	C	0.361168	-0.362223	0.334234
C74	C	0.694501	-0.028890	0.667568
C75	C	1.027834	0.304444	1.000901
C76	C	0.287894	-0.359171	0.331426
C77	C	0.621227	-0.025837	0.664759
C78	C	0.954561	0.307496	0.998093
C79	C	0.280703	-0.452479	0.417246
C80	C	0.614036	-0.119145	0.750579
C81	C	0.947370	0.214188	1.083912
C82	C	0.353973	-0.455535	0.420048
C83	C	0.687306	-0.122201	0.753382
C84	C	1.020640	0.211132	1.086715
C85	C	0.394201	-0.410404	0.378546
C86	C	0.727535	-0.077071	0.711880
C87	C	1.060868	0.256263	1.045213
N88	N	0.505017	-0.373244	0.344365
N89	N	0.838350	-0.039911	0.677699
N90	N	1.171684	0.293422	1.011032
N91	N	0.469093	-0.413529	0.381421
N92	N	0.802426	-0.080195	0.714754
N93	N	1.135760	0.253138	1.048088
C94	C	0.979609	-0.575649	0.355228
C95	C	1.312942	-0.242316	0.688561
C96	C	1.646276	0.091018	1.021894
C97	C	0.976638	-0.653633	0.351985
C98	C	1.309972	-0.320300	0.685318
C99	C	1.643305	0.013033	1.018652
C100	C	1.018210	-0.693805	0.397092
C101	C	1.351544	-0.360472	0.730426
C102	C	1.684877	-0.027139	1.063759
C103	C	1.015416	-0.767080	0.394047
C104	C	1.348749	-0.433746	0.727380
C105	C	1.682083	-0.100413	1.060713
C106	C	0.971053	-0.800181	0.345889
C107	C	1.304387	-0.466848	0.679223
C108	C	1.637720	-0.133514	1.012556
C109	C	0.929477	-0.760004	0.300780
C110	C	1.262810	-0.426671	0.634113
C111	C	1.596143	-0.093337	0.967447
C112	C	0.932268	-0.686731	0.303830
C113	C	1.265601	-0.353397	0.637163
C114	C	1.598934	-0.020064	0.970496
C115	C	0.958095	-1.018945	0.331771
C116	C	1.291429	-0.685612	0.665104
C117	C	1.624762	-0.352278	0.998438
C118	C	0.955309	-1.092224	0.328723
C119	C	1.288642	-0.758890	0.662057
C120	C	1.621976	-0.425557	0.995390
C121	C	1.041248	-1.099295	0.421991
C122	C	1.374581	-0.765961	0.755324
C123	C	1.707914	-0.432628	1.088658
C124	C	1.044038	-1.026020	0.425034
C125	C	1.377371	-0.692686	0.758367
C126	C	1.710704	-0.359353	1.091700
C127	C	1.002459	-0.985849	0.379927
C128	C	1.335792	-0.652515	0.713260
C129	C	1.669125	-0.319182	1.046594
N130	N	0.968198	-0.875079	0.342773
N131	N	1.301531	-0.541746	0.676107
N132	N	1.634864	-0.208413	1.009440
N133	N	1.005311	-0.910952	0.383047
N134	N	1.338644	-0.577619	0.716380
N135	N	1.671978	-0.244285	1.049713
C136	C	1.169687	-0.401029	0.369923
C137	C	1.503020	-0.067696	0.703256
C138	C	1.836354	0.265638	1.036590
C139	C	1.247665	-0.404294	0.372929
C140	C	1.580998	-0.070961	0.706263
C141	C	1.914331	0.262373	1.039596
C142	C	0.979102	-0.400369	0.545856
C143	C	1.312435	-0.067036	0.879190
C144	C	1.645769	0.266298	1.212523
C145	C	0.975864	-0.403353	0.623835
C146	C	1.309197	-0.070019	0.957168
C147	C	1.642530	0.263314	1.290501
C148	C	0.993839	-0.210376	0.370555
C149	C	1.327172	0.122958	0.703888
C150	C	1.660506	0.456291	1.037222
C151	C	0.996881	-0.132395	0.373831
C152	C	1.330214	0.200938	0.707164
C153	C	1.663547	0.534271	1.040497
C154	C	0.994313	-0.386344	0.180596
C155	C	1.327646	-0.053011	0.513930
C156	C	1.660979	0.280322	0.847263
C157	C	0.997695	-0.383169	0.102632
C158	C	1.331028	-0.049836	0.435965
C159	C	1.664361	0.283498	0.769298
C160	C	1.020956	-0.361767	0.664084
C161	C	1.354289	-0.028434	0.997418
C162	C	1.687622	0.304899	1.330751
C163	C	1.017905	-0.364568	0.737353
C164	C	1.351238	-0.031234	1.070687
C165	C	1.684571	0.302099	1.404020
C166	C	0.969764	-0.408957	0.770371
C167	C	1.303098	-0.075624	1.103704
C168	C	1.636431	0.257709	1.437038
C169	C	0.924667	-0.450544	0.730116
C170	C	1.258000	-0.117211	1.063449
C171	C	1.591334	0.216123	1.396782
C172	C	0.927715	-0.447740	0.656848
C173	C	1.261049	-0.114406	0.990182
C174	C	1.594382	0.218927	1.323515
C175	C	0.955646	-0.421951	0.989109
C176	C	1.288979	-0.088618	1.322443
C177	C	1.622312	0.244716	1.655776
C178	C	0.952602	-0.424754	1.062382
C179	C	1.285936	-0.091421	1.395715
C180	C	1.619269	0.241913	1.729049
C181	C	1.045839	-0.338776	1.069614
C182	C	1.379173	-0.005443	1.402948
C183	C	1.712506	0.327890	1.736281
C184	C	1.048886	-0.335979	0.996345
C185	C	1.382220	-0.002646	1.329679
C186	C	1.715553	0.330688	1.663012
C187	C	1.003787	-0.377563	0.956097
C188	C	1.337120	-0.044230	1.289430
C189	C	1.670453	0.289104	1.622763
N190	N	0.966646	-0.411822	0.845263
N191	N	1.299979	-0.078489	1.178597
N192	N	1.633312	0.254844	1.511930
N193	N	1.006902	-0.374694	0.881206
N194	N	1.340236	-0.041360	1.214539
N195	N	1.673569	0.291973	1.547872
H196	H	0.580197	-0.461297	0.425345
H197	H	0.913530	-0.127964	0.758678
H198	H	1.246863	0.205369	1.092012
F199	F	0.901360	-0.471999	1.097520
F200	F	1.234693	-0.138665	1.430853
F201	F	1.568026	0.194668	1.764187
F202	F	1.059655	-0.809831	0.442064
F203	F	1.392988	-0.476497	0.775397
F204	F	1.726321	-0.143164	1.108730
F205	F	1.072197	-0.314525	0.628951
F206	F	1.405531	0.018808	0.962285
F207	F	1.738864	0.352142	1.295618
H208	H	0.593239	-0.292011	0.269653
H209	H	0.926572	0.041322	0.602986
H210	H	1.259905	0.374655	0.936320
H211	H	0.898415	-0.654023	0.267099
H212	H	1.231748	-0.320690	0.600433
H213	H	1.565081	0.012644	0.933766
H214	H	0.918932	-0.455822	0.956347
H215	H	1.252266	-0.122489	1.289681
H216	H	1.585599	0.210844	1.623014
F217	F	1.065432	-0.658583	0.448345
F218	F	1.398765	-0.325250	0.781678
F219	F	1.732098	0.008084	1.115012
H220	H	0.924241	-0.986244	0.295042
H221	H	1.257574	-0.652910	0.628375
H222	H	1.590908	-0.319577	0.961709
F223	F	1.065921	-0.320332	0.780187
F224	F	1.399255	0.013001	1.113520
F225	F	1.732588	0.346335	1.446854
F226	F	0.908092	-1.127451	0.277463
F227	F	1.241425	-0.794117	0.610797
F228	F	1.574759	-0.460784	0.944130
F229	F	0.389130	-0.506816	0.467211
F230	F	0.722463	-0.173483	0.800545
F231	F	1.055796	0.159850	1.133878
H232	H	1.088089	-0.299834	0.969468
H233	H	1.421423	0.033499	1.302801
H234	H	1.754756	0.366832	1.636134
H235	H	0.726167	-0.297553	0.274748
H236	H	1.059500	0.035780	0.608081
H237	H	1.392834	0.369113	0.941415
H238	H	1.082556	-0.304920	1.102393
H239	H	1.415889	0.028413	1.435726
H240	H	1.749223	0.361746	1.769059
H241	H	0.885468	-0.486684	0.757005
H242	H	1.218801	-0.153351	1.090338
H243	H	1.552134	0.179982	1.423671
H244	H	0.890990	-0.481595	0.624078
H245	H	1.224323	-0.148262	0.957411
H246	H	1.557656	0.185071	1.290744
F247	F	0.882256	-0.795235	0.249533
F248	F	1.215589	-0.461901	0.582867
F249	F	1.548922	-0.128568	0.916200
F250	F	0.721374	-0.478897	0.441516
F251	F	1.054707	-0.145563	0.774850
F252	F	1.388040	0.187770	1.108183
H253	H	1.080162	-0.999070	0.464247
H254	H	1.413495	-0.665737	0.797580
H255	H	1.746828	-0.332404	1.130914
H256	H	0.247941	-0.489221	0.451035
H257	H	0.581275	-0.155887	0.784369
H258	H	0.914608	0.177446	1.117702
H259	H	0.260997	-0.319928	0.295345
H260	H	0.594330	0.013405	0.628679
H261	H	0.927663	0.346738	0.962012
F262	F	1.085494	-1.142052	0.469995
F263	F	1.418827	-0.808719	0.803329
F264	F	1.752161	-0.475385	1.136662
F265	F	0.403972	-0.314189	0.290065
F266	F	0.737306	0.019144	0.623399
F267	F	1.070639	0.352478	0.956732
