data_functionalizedCrystal
_audit_creation_method	'MofGen! by Chris Wilmer'
_symmetry_space_group_name_H-M	'P1'
_symmetry_Int_Tables_number	1
_symmetry_cell_setting	triclinic
loop_
_symmetry_equiv_pos_as_xyz
  x,y,z
_cell_length_a	12.837943
_cell_length_b	10.868271
_cell_length_c	12.837942
_cell_angle_alpha	90.004271
_cell_angle_beta	85.171060
_cell_angle_gamma	89.996253
loop_
_atom_site_label
_atom_site_type_symbol
_atom_site_fract_x
_atom_site_fract_y
_atom_site_fract_z
O1	O	1.402336	-0.102299	-0.272141
O2	O	1.099203	-0.102306	-0.258697
O3	O	1.244048	-0.102295	-0.113852
O4	O	1.257491	-0.102310	-0.416986
O5	O	1.244032	0.102349	-0.113845
O6	O	1.099187	0.102338	-0.258690
O7	O	1.402321	0.102345	-0.272134
Zn8	Zn	1.250751	0.134834	-0.265411
Zn9	Zn	1.250772	-0.134795	-0.265420
O10	O	1.257476	0.102334	-0.416979
C11	C	1.060126	0.000015	-0.254153
C12	C	0.943711	0.000012	-0.240608
N13	N	1.250745	0.318848	-0.265405
C14	C	0.718837	0.000022	-0.403437
C15	C	0.609454	0.000020	-0.390716
C16	C	0.615562	0.000017	-0.202445
C17	C	0.724944	0.000018	-0.215166
C18	C	0.776578	0.000019	-0.315666
C19	C	0.885962	0.000012	-0.328386
C20	C	0.892067	0.000017	-0.140116
C21	C	0.782685	0.000015	-0.127395
C22	C	1.250760	0.569854	-0.265420
C23	C	1.250748	0.430176	-0.265414
C24	C	1.441398	0.000021	-0.276679
C25	C	1.557813	0.000016	-0.290223
C26	C	1.239499	0.000026	-0.074780
C27	C	1.225954	0.000024	0.041635
N28	N	1.250777	0.681191	-0.265422
C29	C	1.262025	0.000010	-0.456052
C30	C	1.275569	0.000004	-0.572467
C31	C	1.388784	0.000002	0.266510
C32	C	1.376062	-0.000000	0.375892
C33	C	1.187791	0.000008	0.369785
C34	C	1.200513	0.000010	0.260402
C35	C	1.301012	0.000009	0.208769
C36	C	1.313732	0.000020	0.099384
C37	C	1.125462	0.000020	0.093279
C38	C	1.112741	0.000017	0.202661
H39	H	0.928000	0.000014	-0.410218
C40	C	0.725875	0.000012	-0.016851
N41	N	0.683087	0.000005	0.066413
H42	H	1.470614	0.000013	0.224469
H43	H	0.939092	0.000006	-0.068646
C44	C	1.002197	0.000033	0.259471
N45	N	0.918933	0.000054	0.302259
C46	C	1.424283	0.000015	0.042589
N47	N	1.507553	0.000006	-0.000186
H48	H	1.447536	-0.000010	0.422901
C49	C	1.077250	0.000021	0.426601
N50	N	0.993990	0.000039	0.469396
H51	H	0.760878	0.000021	-0.485268
H52	H	1.053992	0.000035	0.046254
H53	H	0.573502	0.000117	-0.120623
H54	H	0.562446	0.000026	-0.462189
