data_functionalizedCrystal
_audit_creation_method	'MofGen! by Chris Wilmer'
_symmetry_space_group_name_H-M	'P1'
_symmetry_Int_Tables_number	1
_symmetry_cell_setting	triclinic
loop_
_symmetry_equiv_pos_as_xyz
  x,y,z
_cell_length_a	26.809956
_cell_length_b	15.538191
_cell_length_c	15.625429
_cell_angle_alpha	113.263208
_cell_angle_beta	71.927201
_cell_angle_gamma	90.007147
loop_
_atom_site_label
_atom_site_type_symbol
_atom_site_fract_x
_atom_site_fract_y
_atom_site_fract_z
O1	O	0.011445	-1.249530	-0.292676
O2	O	-0.007371	-0.975409	-0.188631
O3	O	0.026206	-1.119789	-0.374279
O4	O	-0.022132	-1.105150	-0.107029
O5	O	0.109160	-1.119762	-0.374249
O6	O	0.075583	-0.975382	-0.188601
O7	O	0.094399	-1.249503	-0.292646
Zn8	Zn	0.098161	-1.112438	-0.240619
Zn9	Zn	-0.011134	-1.112474	-0.240659
O10	O	0.060822	-1.105123	-0.106999
C11	C	0.032137	-0.940315	-0.177731
C12	C	0.026273	-0.835784	-0.145305
N13	N	0.172753	-1.112420	-0.240595
N14	N	-0.085724	-1.112499	-0.240692
C15	C	0.532255	-1.176397	-0.322845
C16	C	0.741137	-1.176419	-0.322866
O17	O	0.780786	-1.230776	-0.392781
N18	N	0.752396	-1.112479	-0.240680
C19	C	0.711430	-1.048525	-0.158485
O20	O	0.725800	-0.994133	-0.088585
C21	C	0.502550	-1.048499	-0.158468
C22	C	0.491295	-1.112449	-0.240656
C23	C	0.520998	-1.240342	-0.405027
C24	C	0.468781	-1.240339	-0.405018
C25	C	0.427820	-1.176391	-0.322829
C26	C	0.439077	-1.112447	-0.240647
C27	C	0.461586	-0.984540	-0.076277
C28	C	0.409365	-0.984538	-0.076281
C29	C	0.398109	-1.048489	-0.158469
C30	C	0.345898	-1.048496	-0.158450
N31	N	0.334639	-1.112436	-0.240636
C32	C	0.375600	-1.176384	-0.322825
C33	C	0.821096	-1.048544	-0.158499
C34	C	0.873316	-1.048551	-0.158503
C35	C	0.903019	-1.176445	-0.322885
C36	C	0.850798	-1.176442	-0.322878
C37	C	0.809837	-1.112484	-0.240686
C38	C	0.265938	-1.176374	-0.322802
C39	C	0.213714	-1.176368	-0.322784
C40	C	0.184016	-1.048471	-0.158405
C41	C	0.236235	-1.048480	-0.158420
C42	C	0.277196	-1.112435	-0.240627
O43	O	0.306224	-0.994161	-0.088576
O44	O	0.361221	-1.230753	-0.392724
C45	C	0.584473	-1.176400	-0.322853
C46	C	0.595730	-1.112455	-0.240672
C47	C	0.554769	-1.048507	-0.158483
C48	C	0.647950	-1.112462	-0.240676
C49	C	0.688910	-1.176410	-0.322865
C50	C	0.677652	-1.240350	-0.405051
C51	C	0.625434	-1.240348	-0.405043
C52	C	0.566028	-0.984567	-0.076296
C53	C	0.618247	-0.984576	-0.076311
C54	C	0.659208	-1.048523	-0.158500
C55	C	0.073717	-1.119111	-0.407632
C56	C	0.091697	-1.117120	-0.507055
C57	C	0.054889	-1.284597	-0.303547
C58	C	0.060750	-1.389128	-0.335972
C59	C	0.084531	-0.547565	-0.467442
C60	C	0.079016	-0.449340	-0.436951
C61	C	0.047995	-0.427125	-0.265445
C62	C	0.053510	-0.525350	-0.295922
C63	C	0.071778	-0.585563	-0.396921
C64	C	0.040757	-0.563348	-0.225401
C65	C	0.046270	-0.661565	-0.255876
C66	C	0.064535	-0.721784	-0.356871
C67	C	0.077290	-0.683780	-0.427396
C68	C	0.022486	-0.503134	-0.124402
C69	C	0.009733	-0.541132	-0.053881
C70	C	0.015249	-0.639351	-0.084356
C71	C	0.033514	-0.699569	-0.185351
C72	C	0.002493	-0.677355	-0.013831
C73	C	0.008006	-0.775572	-0.044306
C74	C	0.039026	-0.797786	-0.215826
C75	C	-0.075243	-1.110621	-0.834120
C76	C	-0.058333	-1.108746	-0.927541
C77	C	0.032097	-1.108717	-0.927495
C78	C	0.015195	-1.110596	-0.834074
C79	C	-0.038476	-1.111547	-0.787393
C80	C	0.051963	-1.111522	-0.787347
C81	C	0.035061	-1.113397	-0.693932
C82	C	-0.018607	-1.114345	-0.647243
C83	C	-0.055377	-1.113421	-0.693978
C84	C	0.105633	-1.110565	-0.834026
C85	C	0.142400	-1.111491	-0.787300
C86	C	0.125500	-1.113372	-0.693886
C87	C	0.071831	-1.114320	-0.647197
C88	C	0.162269	-1.114295	-0.647151
C89	C	0.145368	-1.116169	-0.553736
C90	C	0.054930	-1.116194	-0.553782
C91	C	0.013309	-1.105801	-0.073646
C92	C	-0.004674	-1.107792	0.025778
H93	H	0.204553	-1.228448	-0.389712
H94	H	0.033120	-0.378087	-0.183211
H95	H	0.011226	-1.116977	-0.515776
H96	H	0.119391	-1.109028	-0.910087
H97	H	-0.005143	-0.492094	0.028353
Cl98	Cl	0.132514	-0.968084	-0.055085
Cl99	Cl	0.099566	-1.107513	-0.986184
Cl100	Cl	0.317424	-1.256777	-0.426148
Cl101	Cl	-0.122849	-1.114631	-0.635293
H102	H	0.787747	-0.996461	-0.091566
Cl103	Cl	0.015557	-0.379660	-0.086091
Cl104	Cl	-0.020479	-0.601648	0.113135
Cl105	Cl	0.729155	-1.320743	-0.508373
Cl106	Cl	-0.142715	-1.111831	-0.775435
H107	H	0.099409	-0.596594	-0.549686
Cl108	Cl	0.229737	-1.113081	-0.705838
H109	H	0.186099	-1.110713	-0.825318
H110	H	-0.088279	-1.107984	-0.965579
H111	H	0.175306	-1.116903	-0.515681
H112	H	0.459621	-1.292411	-0.471944
H113	H	-0.002375	-0.806510	0.013119
H114	H	0.616275	-1.292422	-0.471968
Cl115	Cl	-0.039856	-1.116705	-0.529807
Cl116	Cl	0.095059	-0.401575	-0.525617
H117	H	0.554347	-1.292416	-0.471959
Cl118	Cl	0.836654	-1.256838	-0.426204
Cl119	Cl	0.632389	-0.904176	0.027023
H120	H	0.936378	-1.228515	-0.389806
Cl121	Cl	0.887458	-0.968166	-0.055169
H122	H	0.376015	-0.932453	-0.009350
Cl123	Cl	0.250382	-0.968092	-0.055088
Cl124	Cl	0.475726	-0.904139	0.027048
H125	H	0.532680	-0.932492	-0.009368
H126	H	0.053905	-0.846815	-0.298070
H127	H	0.069016	-0.801758	-0.381682
Cl128	Cl	0.100262	-0.759483	-0.554370
