data_functionalizedCrystal
_audit_creation_method	'MofGen! by Chris Wilmer'
_symmetry_space_group_name_H-M	'P1'
_symmetry_Int_Tables_number	1
_symmetry_cell_setting	triclinic
loop_
_symmetry_equiv_pos_as_xyz
  x,y,z
_cell_length_a	19.288864
_cell_length_b	15.995350
_cell_length_c	18.366186
_cell_angle_alpha	89.995992
_cell_angle_beta	89.977106
_cell_angle_gamma	83.314311
loop_
_atom_site_label
_atom_site_type_symbol
_atom_site_fract_x
_atom_site_fract_y
_atom_site_fract_z
O1	O	0.921624	0.104451	-0.060780
O2	O	0.719400	0.118542	-0.060729
O3	O	0.826040	-0.010412	-0.060755
O4	O	0.814984	0.233405	-0.060754
O5	O	0.826022	-0.010418	0.060344
O6	O	0.719382	0.118535	0.060370
O7	O	0.921606	0.104445	0.060320
Zn8	Zn	0.820491	0.111489	0.079572
Zn9	Zn	0.820515	0.111498	-0.079982
O10	O	0.814966	0.233399	0.060346
C11	C	0.693513	0.118085	-0.000173
C12	C	0.616406	0.116724	-0.000154
C13	C	0.571906	0.192388	-0.000165
C14	C	0.499456	0.191110	-0.000173
C15	C	0.471508	0.114163	-0.000185
C16	C	0.516018	0.038489	-0.000170
C17	C	0.588467	0.039769	-0.000155
C18	C	0.363096	0.053676	-0.042636
C19	C	0.290648	0.052398	-0.042656
C20	C	0.248053	0.110209	-0.000229
C21	C	0.277912	0.169312	0.042208
C22	C	0.350361	0.170593	0.042224
C23	C	0.392951	0.112765	-0.000201
C24	C	0.124993	0.184492	-0.000248
C25	C	0.052542	0.183210	-0.000251
C26	C	0.069106	0.030587	-0.000255
C27	C	0.141556	0.031871	-0.000244
C28	C	0.169495	0.108826	-0.000244
C29	C	0.825574	-0.041608	-0.000207
C30	C	0.824203	-0.134553	-0.000211
C31	C	0.819282	-0.472282	-0.000207
C32	C	0.743335	-0.424562	-0.000460
C33	C	0.744706	-0.327877	-0.000187
C34	C	0.821723	-0.304731	-0.000209
C35	C	0.859173	-0.345953	0.068934
C36	C	0.857265	-0.442582	0.068992
C37	C	0.858854	-0.442939	-0.068721
C38	C	0.858836	-0.345993	-0.069635
C39	C	0.823107	-0.210039	-0.000208
C40	C	0.817901	-0.566975	-0.000203
C41	C	0.947492	0.104902	-0.000238
C42	C	1.024600	0.106263	-0.000262
C43	C	0.815432	0.264595	-0.000204
C44	C	0.816802	0.357540	-0.000206
N45	N	0.820480	0.111483	0.188463
N46	N	0.820531	0.111497	-0.188873
C47	C	0.867715	0.054410	0.226552
C48	C	0.867720	0.054407	0.302780
C49	C	0.820495	0.111490	0.340916
C50	C	0.773250	0.168567	0.302818
C51	C	0.773243	0.168564	0.226591
C52	C	0.811395	0.187781	0.461678
C53	C	0.811407	0.187785	0.537903
C54	C	0.820515	0.111500	0.576023
C55	C	0.829624	0.035208	0.537909
C56	C	0.829617	0.035204	0.461683
C57	C	0.820498	0.111500	0.423571
C58	C	0.867758	0.054419	0.696767
C59	C	0.867757	0.054414	0.772996
C60	C	0.773292	0.168582	0.773033
C61	C	0.773289	0.168579	0.696805
C62	C	0.820525	0.111499	0.658677
H63	H	0.594649	0.255051	-0.000166
N64	N	0.802107	0.265703	0.576846
N65	N	0.848505	0.284366	0.619356
H66	H	0.841936	0.339396	0.646861
H67	H	0.397772	0.006598	-0.077190
N68	N	0.915979	-0.003912	0.187642
N69	N	0.893986	-0.055860	0.145129
H70	H	0.928081	-0.097053	0.117660
N71	N	0.802101	0.265703	0.422732
N72	N	0.802098	0.265690	0.354673
H73	H	0.795534	0.320720	0.327167
N74	N	0.453999	0.268410	-0.000181
N75	N	0.478954	0.337111	-0.000176
H76	H	0.446853	0.391705	-0.000181
H77	H	0.734777	0.215040	0.195579
H78	H	0.906219	0.007938	0.665722
H79	H	0.734828	0.215057	0.665791
N80	N	0.380852	0.230965	0.085573
N81	N	0.342820	0.282582	0.123451
H82	H	0.364353	0.325221	0.154068
N83	N	0.234400	0.228384	0.085525
N84	N	0.169714	0.227244	0.085499
H85	H	0.138979	0.268970	0.116082
H86	H	0.829941	-0.460783	0.120694
N87	N	0.929290	-0.326968	-0.074896
N88	N	0.953404	-0.282495	-0.027348
H89	H	1.003163	-0.269054	-0.031061
H90	H	0.712987	-0.442976	-0.050043
H91	H	0.016310	0.244828	-0.000256
N92	N	0.153526	0.263103	-0.000243
N93	N	0.113782	0.330657	-0.000244
H94	H	0.133931	0.386177	-0.000240
H95	H	0.734798	0.215044	0.333872
N96	N	0.040556	-0.048006	-0.000254
N97	N	-0.024130	-0.049141	-0.000260
H98	H	-0.044298	-0.104650	-0.000255
H99	H	0.906220	0.007934	0.804009
N100	N	0.707781	-0.292076	-0.062366
N101	N	0.727703	-0.314022	-0.124999
H102	H	0.701621	-0.288742	-0.168915
N103	N	0.187006	-0.045427	-0.000235
N104	N	0.162047	-0.114126	-0.000242
H105	H	0.194146	-0.168722	-0.000234
N106	N	0.633937	-0.037516	-0.000140
N107	N	0.676186	-0.053825	0.050913
H108	H	0.708302	-0.108408	0.050922
H109	H	0.734838	0.215057	0.804083
N110	N	0.260161	-0.007968	-0.086015
N111	N	0.298198	-0.059586	-0.123887
H112	H	0.276668	-0.102220	-0.154512
H113	H	0.833147	-0.317476	0.120403
H114	H	0.837032	-0.026916	0.430654
H115	H	0.715055	-0.299903	0.049476
N116	N	0.927212	-0.483296	0.072932
N117	N	0.964907	-0.470222	0.126114
H118	H	1.014307	-0.498974	0.128903
N119	N	0.487463	-0.040104	-0.000175
N120	N	0.422776	-0.041238	-0.000188
H121	H	0.402608	-0.096746	-0.000188
H122	H	0.831456	-0.318639	-0.120785
H123	H	0.834031	-0.463382	-0.121128
N124	N	0.705419	-0.449008	0.061414
N125	N	0.734087	-0.501423	0.105696
H126	H	0.707310	-0.518692	0.149396
N127	N	0.930150	-0.328482	0.072139
N128	N	0.943758	-0.254046	0.075184
H129	H	0.993885	-0.241703	0.077445
N130	N	0.929102	-0.483039	-0.069311
N131	N	0.950012	-0.533024	-0.019545
H132	H	0.999624	-0.561346	-0.019953
N133	N	0.915974	-0.003903	0.341686
N134	N	0.958142	-0.054864	0.307635
H135	H	0.992223	-0.096045	0.335110
H136	H	0.837040	-0.026911	0.568945
