data_functionalizedCrystal
_audit_creation_method	'MofGen! by Chris Wilmer'
_symmetry_space_group_name_H-M	'P1'
_symmetry_Int_Tables_number	1
_symmetry_cell_setting	triclinic
loop_
_symmetry_equiv_pos_as_xyz
  x,y,z
_cell_length_a	12.645331
_cell_length_b	18.050589
_cell_length_c	12.645324
_cell_angle_alpha	89.967661
_cell_angle_beta	89.981704
_cell_angle_gamma	90.028631
loop_
_atom_site_label
_atom_site_type_symbol
_atom_site_fract_x
_atom_site_fract_y
_atom_site_fract_z
Zn1	Zn	1.620657	-0.295595	-0.599310
Zn2	Zn	1.620505	-0.419809	-0.422048
Zn3	Zn	1.443370	-0.295638	-0.422069
Zn4	Zn	1.443320	-0.419749	-0.599278
O5	O	1.531963	-0.357698	-0.510676
O6	O	1.768984	-0.312079	-0.575801
O7	O	1.596965	-0.403381	-0.273704
O8	O	1.466972	-0.191708	-0.445602
O9	O	1.768872	-0.403339	-0.445567
O10	O	1.597224	-0.191676	-0.575821
O11	O	1.466825	-0.312153	-0.273719
O12	O	1.295016	-0.312094	-0.445571
O13	O	1.466887	-0.403236	-0.747630
O14	O	1.294980	-0.403278	-0.575766
O15	O	1.597175	-0.312021	-0.747653
O16	O	1.596917	-0.523725	-0.445536
O17	O	1.466740	-0.523681	-0.575746
C18	C	1.256533	-0.357685	-0.510668
C19	C	1.138703	-0.357697	-0.510690
C20	C	1.093834	-0.415159	-0.592476
C21	C	0.971274	-0.415395	-0.592233
C22	C	0.970744	-0.378610	-0.398833
C23	C	1.093342	-0.379016	-0.399306
C24	C	1.093578	-0.279201	-0.539783
C25	C	0.970972	-0.279635	-0.542246
C26	C	1.531835	-0.550650	-0.510659
C27	C	1.531877	-0.633196	-0.510687
C28	C	1.461157	-0.832649	-0.581470
C29	C	1.435310	-0.882100	-0.484738
C30	C	1.531981	-0.784326	-0.510701
C31	C	1.557881	-0.881957	-0.607444
C32	C	1.532080	-0.930311	-0.510722
C33	C	1.506084	-0.832689	-0.413917
C34	C	1.628699	-0.832542	-0.536689
C35	C	1.602889	-0.881971	-0.439889
C36	C	1.531922	-0.700228	-0.510689
C37	C	1.532140	-1.014407	-0.510723
C38	C	1.808468	-0.357711	-0.510685
C39	C	1.926298	-0.357717	-0.510689
C40	C	1.532043	-0.357617	-0.787182
C41	C	1.532076	-0.357582	-0.905012
C42	C	1.532120	-0.163992	-0.510717
C43	C	1.532187	-0.081446	-0.510735
C44	C	1.614360	-0.300365	-1.072591
C45	C	1.614096	-0.300159	-0.950031
C46	C	1.420400	-0.336316	-0.949499
C47	C	1.420900	-0.335881	-1.072098
C48	C	1.560563	-0.436150	-1.072206
C49	C	1.563007	-0.435755	-0.949601
C50	C	1.531945	-0.357724	-0.235247
C51	C	1.532116	-0.357550	-0.117417
H52	H	0.939999	-0.435356	-0.373824
O53	O	1.589146	-0.223033	-0.911199
H54	H	1.588882	-0.222614	-0.823427
O55	O	0.932366	-0.492448	-0.566653
H56	H	0.883652	-0.513420	-0.633229
H57	H	1.124539	-0.260113	-0.619974
O58	O	1.327025	-0.910931	-0.455618
H59	H	1.328257	-0.972415	-0.455145
H60	H	1.579747	-0.903598	-0.689250
O61	O	1.387866	-0.261052	-0.908869
H62	H	1.451048	-0.238672	-0.857004
H63	H	1.484123	-0.811137	-0.332088
O64	O	1.723790	-0.317783	-0.910176
H65	H	1.777506	-0.326528	-0.978469
O66	O	1.134574	-0.491769	-0.567213
H67	H	1.180155	-0.513241	-0.635664
H68	H	1.396784	-0.278425	-1.100710
H69	H	1.662825	-0.903490	-0.379982
O70	O	1.737077	-0.803849	-0.565713
H71	H	1.758404	-0.823605	-0.646040
O72	O	1.131173	-0.455007	-0.366744
H73	H	1.061903	-0.491121	-0.350813
H74	H	1.697445	-0.313516	-1.102077
O75	O	1.381712	-0.803954	-0.660634
H76	H	1.382906	-0.742469	-0.660452
O77	O	1.132672	-0.325972	-0.315797
H78	H	1.064123	-0.300149	-0.275247
O79	O	1.336965	-0.388642	-1.111390
H80	H	1.296192	-0.414349	-1.042822
H81	H	0.941225	-0.402360	-0.675159
H82	H	1.595769	-0.242462	-1.103417
H83	H	1.507457	-0.480654	-0.918952
H84	H	1.357455	-0.376686	-0.920337
O85	O	1.666592	-0.461772	-1.113153
H86	H	1.700199	-0.418765	-1.166191
O87	O	1.481218	-0.492594	-1.110592
H88	H	1.522683	-0.536109	-1.156659
O89	O	1.671872	-0.457004	-0.911097
H90	H	1.703823	-0.412084	-0.860407
H91	H	1.123356	-0.402274	-0.675660
O92	O	0.932477	-0.258748	-0.651277
H93	H	0.960056	-0.300608	-0.709318
O94	O	0.932167	-0.324874	-0.315893
H95	H	0.844464	-0.326243	-0.312862
O96	O	0.930453	-0.219928	-0.469145
H97	H	0.877609	-0.245086	-0.408907
O98	O	1.132022	-0.222489	-0.460902
H99	H	1.183021	-0.250027	-0.401261
