data_functionalizedCrystal
_audit_creation_method	'MofGen! by Chris Wilmer'
_symmetry_space_group_name_H-M	'P1'
_symmetry_Int_Tables_number	1
_symmetry_cell_setting	triclinic
loop_
_symmetry_equiv_pos_as_xyz
  x,y,z
_cell_length_a	15.297475
_cell_length_b	14.908520
_cell_length_c	14.908308
_cell_angle_alpha	83.639235
_cell_angle_beta	95.861253
_cell_angle_gamma	84.147521
loop_
_atom_site_label
_atom_site_type_symbol
_atom_site_fract_x
_atom_site_fract_y
_atom_site_fract_z
Zn1	Zn	1.298457	-0.628659	0.770658
Zn2	Zn	1.298357	-0.771286	0.628010
Zn3	Zn	1.159770	-0.594457	0.593885
Zn4	Zn	1.141645	-0.751140	0.750583
O5	O	1.224557	-0.686386	0.685784
O6	O	1.422069	-0.670324	0.774417
O7	O	1.287516	-0.741947	0.498206
O8	O	1.185794	-0.473732	0.611455
O9	O	1.421995	-0.775111	0.669615
O10	O	1.287687	-0.498860	0.741328
O11	O	1.185697	-0.612032	0.473135
O12	O	1.033740	-0.592497	0.591989
O13	O	1.154904	-0.740775	0.878524
O14	O	1.020424	-0.707611	0.707115
O15	O	1.270113	-0.650789	0.893272
O16	O	1.269942	-0.893876	0.650149
O17	O	1.154806	-0.879075	0.740204
C18	C	1.210419	-0.918960	0.696725
C19	C	1.204450	-1.018472	0.701450
C20	C	0.995028	-0.644157	0.643671
C21	C	0.896831	-0.626114	0.625678
C22	C	1.313234	-1.220843	0.616670
C23	C	1.307628	-1.314345	0.621108
C24	C	1.187638	-1.298978	0.714768
C25	C	1.193244	-1.205477	0.710330
C26	C	1.256043	-1.166413	0.661279
C27	C	1.261643	-1.072909	0.656836
C28	C	1.141658	-1.057546	0.750502
C29	C	1.136053	-1.151047	0.754939
C30	C	0.592398	-0.815349	0.814391
C31	C	0.684659	-0.832308	0.831294
C32	C	0.737706	-0.780761	0.779892
C33	C	0.698485	-0.712252	0.711582
C34	C	0.606216	-0.695296	0.694672
C35	C	0.751523	-0.660708	0.660173
C36	C	0.712302	-0.592199	0.591863
C37	C	0.620042	-0.575246	0.574957
C38	C	0.566994	-0.626793	0.626359
C39	C	0.843793	-0.677664	0.677084
C40	C	0.857610	-0.557611	0.557365
C41	C	0.765350	-0.540652	0.540461
C42	C	1.454983	-0.728780	0.728062
C43	C	1.553177	-0.746846	0.746078
C44	C	1.210498	-0.697350	0.919289
C45	C	1.204506	-0.702022	1.018795
C46	C	1.238773	-0.452909	0.674824
C47	C	1.244832	-0.353415	0.670154
C48	C	1.238617	-0.675409	0.453193
C49	C	1.244795	-0.670516	0.353707
C50	C	1.313213	-0.617079	1.221136
C51	C	1.307587	-0.621466	1.314631
C52	C	1.187623	-0.715179	1.299281
C53	C	1.193250	-0.710792	1.205786
C54	C	1.256048	-0.661741	1.166717
C55	C	1.261678	-0.657359	1.073221
C56	C	1.141711	-0.751066	1.057873
C57	C	1.136084	-0.755454	1.151368
H58	H	1.312775	-1.041104	0.616893
H59	H	1.364361	-1.189036	0.576723
C60	C	0.576903	-0.499898	0.499803
C61	C	0.595313	-0.400826	0.504803
C62	C	0.552178	-0.325481	0.429644
C63	C	0.490634	-0.349209	0.349486
C64	C	0.472220	-0.448285	0.344483
C65	C	0.515355	-0.523630	0.419641
H66	H	0.640875	-0.383258	0.564143
H67	H	0.565809	-0.252138	0.433348
H68	H	0.458703	-0.293434	0.293850
H69	H	0.426659	-0.465854	0.285142
H70	H	0.501724	-0.596973	0.415937
C71	C	1.066976	-1.194024	0.808891
C72	C	0.967762	-1.162447	0.782461
C73	C	0.898682	-1.205422	0.836412
C74	C	0.928816	-1.279974	0.916791
C75	C	1.028035	-1.311554	0.943225
C76	C	1.097114	-1.268579	0.889275
H77	H	0.945451	-1.107256	0.722956
H78	H	0.825234	-1.182044	0.816843
H79	H	0.877679	-1.311787	0.956729
H80	H	1.050346	-1.366745	1.002731
H81	H	1.170563	-1.291958	0.908843
C82	C	0.722198	-0.465297	0.465321
C83	C	0.740604	-0.366226	0.470336
C84	C	0.697451	-0.290870	0.395197
C85	C	0.635891	-0.314585	0.315044
C86	C	0.617482	-0.413660	0.310026
C87	C	0.660635	-0.489016	0.385165
H88	H	0.786177	-0.348666	0.529672
H89	H	0.711079	-0.217527	0.398913
H90	H	0.603946	-0.258802	0.259423
H91	H	0.571909	-0.431220	0.250690
H92	H	0.647007	-0.562359	0.381449
C93	C	1.078744	-0.997674	0.799581
C94	C	0.977989	-0.991812	0.774377
C95	C	0.915074	-0.931941	0.823454
C96	C	0.952915	-0.877934	0.897733
C97	C	1.053675	-0.883794	0.922941
C98	C	1.116590	-0.943664	0.873864
H99	H	0.949972	-1.031793	0.719388
H100	H	0.840485	-0.927603	0.804793
H101	H	0.906342	-0.833614	0.934063
H102	H	1.081692	-0.843813	0.977930
H103	H	1.191179	-0.948003	0.892525
C104	C	0.915951	-0.500901	0.500816
C105	C	0.981304	-0.444164	0.548044
C106	C	1.039650	-0.387461	0.491496
C107	C	1.032642	-0.387495	0.387720
C108	C	0.967286	-0.444235	0.340487
C109	C	0.908940	-0.500938	0.397034
H110	H	0.986494	-0.444137	0.624870
H111	H	1.088031	-0.345459	0.526462
H112	H	1.075833	-0.345521	0.345861
H113	H	0.962096	-0.444262	0.263660
H114	H	0.860559	-0.542940	0.362068
C115	C	1.382293	-0.563132	1.178155
C116	C	1.453157	-0.611668	1.128428
C117	C	1.522239	-0.557721	1.085451
C118	C	1.520457	-0.455238	1.092200
C119	C	1.449590	-0.406696	1.141930
C120	C	1.380508	-0.460643	1.184907
H121	H	1.454479	-0.687537	1.123430
H122	H	1.574700	-0.593656	1.048638
H123	H	1.571596	-0.415304	1.060386
H124	H	1.448269	-0.330827	1.146928
H125	H	1.328048	-0.424708	1.221720
H126	H	1.084954	-0.795388	1.183191
C127	C	0.727800	-0.907656	0.906436
C128	C	0.669456	-0.964353	0.962983
C129	C	0.712598	-1.039704	1.038132
C130	C	0.814084	-1.058358	1.056733
C131	C	0.872435	-1.001659	1.000185
C132	C	0.829292	-0.926309	0.925036
H133	H	0.594324	-0.950546	0.949215
H134	H	0.669403	-1.081676	1.079993
H135	H	0.846021	-1.114137	1.112363
H136	H	0.947566	-1.015467	1.013953
H137	H	0.872488	-0.884337	0.883175
H138	H	0.549199	-0.857316	0.856230
H139	H	1.354201	-1.358659	0.584784
C140	C	1.118571	-1.341967	0.768725
C141	C	1.019353	-1.310407	0.742309
C142	C	0.950288	-1.353399	0.796268
C143	C	0.980441	-1.427951	0.876642
C144	C	1.079664	-1.459515	0.903063
C145	C	1.148729	-1.416523	0.849104
H146	H	0.997027	-1.255215	0.682807
H147	H	0.876836	-1.330033	0.776709
H148	H	0.929315	-1.459776	0.916586
H149	H	1.101990	-1.514706	0.962565
H150	H	1.222181	-1.439889	0.868663
H151	H	0.875717	-0.733444	0.732703
C152	C	1.330751	-0.603403	1.030241
C153	C	1.328951	-0.500918	1.036990
C154	C	1.398024	-0.446958	0.994012
C155	C	1.468896	-0.495482	0.944285
C156	C	1.470698	-0.597972	0.937533
C157	C	1.401626	-0.651932	0.980511
H158	H	1.276485	-0.464993	1.073803
H159	H	1.396689	-0.371087	0.999010
H160	H	1.520027	-0.455537	0.912470
H161	H	1.523164	-0.633897	0.900720
H162	H	1.402960	-0.727802	0.975513
C163	C	1.118562	-0.769131	1.342290
C164	C	1.148727	-0.849449	1.416902
C165	C	1.079673	-0.903403	1.459921
C166	C	0.980453	-0.877039	1.428329
C167	C	0.950283	-0.796717	1.353714
C168	C	1.019337	-0.742763	1.310694
H169	H	1.222180	-0.868968	1.440291
H170	H	1.102007	-0.962862	1.515157
H171	H	0.929334	-0.916979	1.460175
H172	H	0.876830	-0.777198	1.330324
H173	H	0.997003	-0.683304	1.255459
H174	H	0.812828	-0.794573	0.793660
H175	H	0.491868	-0.612987	0.612602
H176	H	1.354135	-0.585095	1.358935
H177	H	1.095164	-0.787437	1.013555
