data_functionalizedCrystal
_audit_creation_method	'MofGen! by Chris Wilmer'
_symmetry_space_group_name_H-M	'P1'
_symmetry_Int_Tables_number	1
_symmetry_cell_setting	triclinic
loop_
_symmetry_equiv_pos_as_xyz
  x,y,z
_cell_length_a	20.016444
_cell_length_b	14.560438
_cell_length_c	20.016444
_cell_angle_alpha	120.004423
_cell_angle_beta	89.998165
_cell_angle_gamma	60.002813
loop_
_atom_site_label
_atom_site_type_symbol
_atom_site_fract_x
_atom_site_fract_y
_atom_site_fract_z
Zr1	Zr	0.643580	1.005364	0.087741
O2	O	0.536901	1.196975	0.194426
O3	O	0.676282	0.813754	0.055030
O4	O	0.676273	1.005376	0.194421
O5	O	0.536918	1.005343	-0.054911
O6	O	0.786213	1.005383	0.194424
O7	O	0.536910	1.005354	0.055035
O8	O	0.786229	0.662607	-0.054920
O9	O	0.536901	1.348119	0.194433
O10	O	0.772277	0.892570	0.041090
O11	O	0.690236	0.892557	-0.040965
O12	O	0.690225	1.118167	0.123149
O13	O	0.608184	1.118154	0.041095
Zr14	Zr	0.818934	1.005358	-0.087606
Zr15	Zr	0.818921	1.005375	0.087746
Zr16	Zr	0.643592	1.005347	-0.087611
Zr17	Zr	0.643581	1.246421	0.087752
Zr18	Zr	0.818933	0.764301	-0.087617
O19	O	0.786232	1.196967	-0.054895
O20	O	0.786214	1.196991	0.194433
O21	O	0.536919	1.196951	-0.054902
O22	O	0.925613	0.813746	-0.194290
O23	O	0.925595	0.813771	0.055037
O24	O	0.676300	0.813730	-0.194297
O25	O	0.925596	1.005379	0.055046
O26	O	0.786241	1.005345	-0.194285
O27	O	0.676301	1.005338	-0.194288
O28	O	0.925604	1.005368	-0.054900
O29	O	0.676275	1.348128	0.194437
O30	O	0.786239	0.662594	-0.194301
O31	O	0.925612	0.662602	-0.194297
O32	O	0.925602	0.662616	-0.054916
O33	O	0.536912	1.348106	0.055051
O34	O	0.676285	1.348115	0.055055
O35	O	0.772288	0.892555	-0.123014
O36	O	0.854329	0.892568	-0.040960
O37	O	0.772278	1.118164	0.041100
O38	O	0.690237	1.118151	-0.040954
C39	C	0.731255	0.703835	0.000054
C40	C	0.731255	0.601500	0.000049
C41	C	0.511931	1.005347	0.000062
C42	C	0.437494	1.005342	0.000059
C43	C	0.670682	0.636716	0.060630
C44	C	0.670685	0.540576	0.060651
C45	C	0.791838	0.374006	-0.060498
C46	C	0.791837	0.470145	-0.060515
C47	C	0.625437	0.509264	0.160978
C48	C	0.564853	0.544481	0.221554
C49	C	0.483842	0.649197	0.247495
C50	C	0.463402	0.718698	0.212850
C51	C	0.523983	0.683475	0.152268
C52	C	0.605002	0.578763	0.126341
C53	C	0.837077	0.501465	-0.160841
C54	C	0.897655	0.466242	-0.221427
C55	C	0.978668	0.361520	-0.247376
C56	C	0.999109	0.292007	-0.212745
C57	C	0.938530	0.327230	-0.152159
C58	C	0.857518	0.431959	-0.126209
C59	C	0.239107	0.887604	-0.042770
C60	C	0.309053	0.887596	-0.042772
C61	C	0.223398	1.123127	0.042911
C62	C	0.153454	1.123133	0.042917
C63	C	0.161312	1.005368	0.000071
C64	C	0.301202	1.005354	0.000064
C65	C	0.377040	1.005347	0.000063
C66	C	0.085469	1.005374	0.000074
C67	C	0.950582	1.005375	0.000074
C68	C	1.025019	1.005380	0.000076
C69	C	0.731241	1.005382	0.219406
C70	C	0.731235	1.005389	0.293848
C71	C	0.731258	1.306886	0.000082
C72	C	0.731259	1.409221	0.000087
C73	C	0.688416	1.123139	0.507940
C74	C	0.688422	1.123136	0.577882
C75	C	0.774083	0.887605	0.492199
C76	C	0.774082	0.887610	0.422258
C77	C	0.731244	1.005380	0.430132
C78	C	0.731250	1.005373	0.570015
C79	C	0.731256	1.005368	0.645848
C80	C	0.731239	1.005385	0.354294
C81	C	0.731268	1.005347	0.780732
C82	C	0.731259	1.005364	0.706299
C83	C	0.950581	0.703849	0.000060
C84	C	1.025017	0.601519	0.000057
C85	C	0.731271	0.703814	-0.219285
C86	C	0.731276	0.601472	-0.293731
C87	C	0.950596	0.703828	-0.219278
C88	C	1.025038	0.601491	-0.293723
C89	C	0.511917	1.306893	0.219414
C90	C	0.437475	1.409231	0.293858
C91	C	0.511933	1.306872	0.000076
C92	C	0.437496	1.409202	0.000078
C93	C	0.731242	1.306908	0.219420
C94	C	0.731238	1.409250	0.293866
C95	C	1.017142	0.553465	0.042892
C96	C	1.087077	0.457328	0.042906
C97	C	1.164885	0.409241	0.000080
C98	C	1.172758	0.457304	-0.042757
C99	C	1.102824	0.553446	-0.042765
C100	C	0.774109	0.553409	-0.371528
C101	C	0.774110	0.457262	-0.441485
C102	C	0.731283	0.409171	-0.433643
C103	C	0.688445	0.457243	-0.355838
C104	C	0.688439	0.553396	-0.285882
C105	C	1.102829	0.553439	-0.285851
C106	C	1.172782	0.457295	-0.355792
C107	C	1.164942	0.409199	-0.433605
C108	C	1.087143	0.457260	-0.441475
C109	C	1.017192	0.553409	-0.371534
C110	C	0.359685	1.457294	0.285986
C111	C	0.289732	1.553468	0.355928
C112	C	0.297571	1.601569	0.433740
C113	C	0.375370	1.553502	0.441610
C114	C	0.445321	1.457337	0.371670
C115	C	0.445371	1.457266	-0.042749
C116	C	0.375437	1.553430	-0.042744
C117	C	0.297629	1.601521	0.000085
C118	C	0.289756	1.553453	0.042918
C119	C	0.359689	1.457298	0.042917
C120	C	0.774073	1.457310	0.285998
C121	C	0.774085	1.553458	0.355942
C122	C	0.731255	1.601552	0.433752
C123	C	0.688418	1.553482	0.441619
C124	C	0.688412	1.457329	0.371676
H125	H	0.621348	0.743669	0.109941
H126	H	1.109247	0.592559	-0.077651
C127	C	0.214760	1.252658	0.090051
H128	H	0.267558	1.235790	0.083912
H129	H	0.185704	1.301021	0.146399
H130	H	0.185698	1.301068	0.068915
C131	C	0.931627	0.606241	-0.380203
H132	H	0.936984	0.563809	-0.436564
H133	H	0.902546	0.697021	-0.354699
H134	H	0.902568	0.590456	-0.354709
C135	C	0.821237	0.404389	-0.527061
H136	H	0.815104	0.340247	-0.567607
H137	H	0.877582	0.366879	-0.533192
H138	H	0.800086	0.473432	-0.533183
C139	C	0.351021	1.404419	0.090019
H140	H	0.403810	1.340267	0.083893
H141	H	0.321956	1.366919	0.068859
H142	H	0.321956	1.473457	0.146374
H143	H	0.808950	1.418167	0.222647
H144	H	1.065075	0.206730	-0.233879
H145	H	0.953794	0.592617	0.077777
H146	H	0.353286	1.418135	0.222634
H147	H	0.581503	0.487887	0.249761
C148	C	0.731264	1.707321	0.510685
H149	H	0.699627	1.729081	0.558157
H150	H	0.708340	1.782333	0.510684
H151	H	0.785837	1.675786	0.510678
C152	C	0.204165	1.606353	0.090019
H153	H	0.163649	1.670490	0.083872
H154	H	0.198009	1.643875	0.146372
H155	H	0.198026	1.537320	0.068853
H156	H	0.808966	1.592586	0.349520
C157	C	0.714550	0.394081	0.132451
H158	H	0.718040	0.357728	0.161752
H159	H	0.748821	0.423509	0.142442
H160	H	0.731762	0.329925	0.075554
H161	H	0.397432	0.803950	0.233968
C162	C	0.247746	0.758072	-0.089892
H163	H	0.194949	0.774938	-0.083760
H164	H	0.276807	0.709682	-0.068747
H165	H	0.276805	0.709689	-0.146246
C166	C	0.641308	1.252666	0.663470
H167	H	0.647448	1.235802	0.703998
H168	H	0.584961	1.301050	0.669610
H169	H	0.662461	1.301055	0.669608
H170	H	0.808961	0.791711	0.358899
H171	H	0.653548	1.592655	0.504982
H172	H	0.808984	0.592554	-0.377929
C173	C	0.641279	1.404489	0.380342
H174	H	0.615768	1.446919	0.436702
H175	H	0.678232	1.313709	0.354838
H176	H	0.600742	1.420269	0.354845
H177	H	0.507339	0.740054	0.124057
C178	C	0.641305	1.252677	0.516597
H179	H	0.647430	1.235818	0.463800
H180	H	0.662456	1.301061	0.545660
H181	H	0.584954	1.301061	0.545663
H182	H	1.236122	0.418174	-0.349370
C183	C	0.821192	0.758068	0.483543
H184	H	0.815052	0.774929	0.536340
H185	H	0.877539	0.709676	0.454477
H186	H	0.800032	0.709690	0.454480
H187	H	0.731294	0.330878	-0.490611
H188	H	1.080650	0.418207	0.077788
H189	H	0.240691	1.679816	0.000079
C190	C	1.258347	0.404383	-0.089878
H191	H	1.253029	0.446766	-0.115394
H192	H	1.287398	0.313601	-0.130401
H193	H	1.287413	0.420147	-0.052907
C194	C	0.417204	0.687939	0.314131
H195	H	0.440979	0.631557	0.331050
H196	H	0.376235	0.681290	0.292791
H197	H	0.393297	0.774874	0.359674
C198	C	0.204164	1.606313	0.347256
H199	H	0.209520	1.563871	0.290896
H200	H	0.175093	1.697090	0.372750
H201	H	0.175096	1.590553	0.372762
H202	H	0.653562	0.592516	-0.222539
C203	C	0.641342	0.404334	-0.347218
H204	H	0.615823	0.446728	-0.290866
H205	H	0.678318	0.313553	-0.372736
H206	H	0.600814	0.420098	-0.372725
C207	C	1.111469	0.606332	-0.200267
H208	H	1.167821	0.563943	-0.205607
H209	H	1.085969	0.590571	-0.171199
H210	H	1.085961	0.697118	-0.171200
C211	C	1.241807	0.303478	0.000086
H212	H	1.289278	0.281718	-0.031551
H213	H	1.241801	0.228465	-0.022844
H214	H	1.241800	0.335015	0.054663
H215	H	1.080772	0.418086	-0.504839
C216	C	0.858466	0.229519	-0.127119
H217	H	0.849787	0.177304	-0.118439
H218	H	0.910753	0.211067	-0.124612
H219	H	0.855951	0.211045	-0.179413
C220	C	0.220621	1.707331	0.510668
H221	H	0.173171	1.729047	0.494828
H222	H	0.220599	1.782368	0.542324
H223	H	0.220611	1.675803	0.542302
C224	C	1.241893	0.303428	-0.510532
H225	H	1.289342	0.281695	-0.494692
H226	H	1.241911	0.334926	-0.542180
H227	H	1.241905	0.228391	-0.542175
C228	C	0.383983	1.606412	0.527206
H229	H	0.331178	1.670554	0.567726
H230	H	0.413043	1.643929	0.533360
H231	H	0.413031	1.537384	0.533344
H232	H	0.508660	1.418204	0.378089
H233	H	0.372396	0.791701	-0.077658
H234	H	0.508720	1.418118	-0.077631
H235	H	0.955179	0.270623	-0.123962
C236	C	1.045298	0.322750	-0.314040
H237	H	1.021525	0.379136	-0.330957
H238	H	1.069193	0.235820	-0.359570
H239	H	1.086278	0.329393	-0.292712
H240	H	0.881003	0.522832	-0.249636
H241	H	0.771110	0.586747	-0.139711
H242	H	0.381863	1.592551	-0.077627
H243	H	0.090105	1.219036	0.077808
