data_functionalizedCrystal
_audit_creation_method	'MofGen! by Chris Wilmer'
_symmetry_space_group_name_H-M	'P1'
_symmetry_Int_Tables_number	1
_symmetry_cell_setting	triclinic
loop_
_symmetry_equiv_pos_as_xyz
  x,y,z
_cell_length_a	11.792254
_cell_length_b	16.109301
_cell_length_c	14.586319
_cell_angle_alpha	90.005214
_cell_angle_beta	89.996545
_cell_angle_gamma	96.169961
loop_
_atom_site_label
_atom_site_type_symbol
_atom_site_fract_x
_atom_site_fract_y
_atom_site_fract_z
O1	O	1.505899	-0.114003	-0.076243
O2	O	1.175457	-0.125737	-0.076245
O3	O	1.349755	0.001118	-0.076234
O4	O	1.331600	-0.240858	-0.076253
O5	O	1.349743	0.001120	0.076246
O6	O	1.175445	-0.125735	0.076236
O7	O	1.505887	-0.114001	0.076238
Cu8	Cu	1.340665	-0.119868	0.090160
Cu9	Cu	1.340679	-0.119870	-0.090167
O10	O	1.331588	-0.240856	0.076228
C11	C	1.133166	-0.124996	-0.000005
C12	C	1.007173	-0.122784	-0.000005
C13	C	0.904852	-0.120987	-0.000009
C14	C	0.776485	-0.118739	-0.000010
C15	C	1.349014	0.032097	0.000006
C16	C	1.346809	0.124403	0.000008
C17	C	1.548177	-0.114741	-0.000004
C18	C	1.674171	-0.116954	-0.000010
C19	C	1.332330	-0.271835	-0.000015
C20	C	1.334534	-0.364141	-0.000023
N21	N	1.340663	-0.119866	0.216991
C22	C	1.445108	0.346210	-0.000006
C23	C	1.443027	0.432940	-0.000014
C24	C	1.236228	0.414046	-0.000012
C25	C	1.238310	0.327317	-0.000011
C26	C	1.342753	0.293402	-0.000003
C27	C	1.338591	0.466860	-0.000012
C28	C	1.336334	0.560897	-0.000020
C29	C	1.345010	0.199359	0.000003
N30	N	1.340690	-0.119866	-0.216998
C31	C	1.417868	-0.063714	0.452002
C32	C	1.417871	-0.063712	0.547984
C33	C	1.263477	-0.176020	0.547984
C34	C	1.263469	-0.176018	0.452004
C35	C	1.340671	-0.119865	0.404016
C36	C	1.340682	-0.119866	0.595977
C37	C	1.340685	-0.119864	0.700044
C38	C	1.340667	-0.119866	0.299942
H39	H	1.526375	0.475933	-0.000018
H40	H	1.530152	0.318599	-0.000002
H41	H	1.480729	-0.017990	0.412933
O42	O	1.501147	-0.003159	0.599744
H43	H	1.554834	0.035878	0.550247
H44	H	1.154955	0.284318	-0.000011
H45	H	1.200622	-0.221740	0.587065
H46	H	1.200600	-0.221744	0.412931
H47	H	1.151194	0.441671	-0.000016
