data_functionalizedCrystal
_audit_creation_method	'MofGen! by Chris Wilmer'
_symmetry_space_group_name_H-M	'P1'
_symmetry_Int_Tables_number	1
_symmetry_cell_setting	triclinic
loop_
_symmetry_equiv_pos_as_xyz
  x,y,z
_cell_length_a	23.532407
_cell_length_b	23.532407
_cell_length_c	12.503552
_cell_angle_alpha	93.492833
_cell_angle_beta	86.504341
_cell_angle_gamma	82.848678
loop_
_atom_site_label
_atom_site_type_symbol
_atom_site_fract_x
_atom_site_fract_y
_atom_site_fract_z
O1	O	-0.758561	-0.065829	0.089197
O2	O	-0.425228	0.267505	0.422530
O3	O	-0.091895	0.600838	0.755863
O4	O	-0.592699	-0.075831	0.089230
O5	O	-0.259366	0.257503	0.422563
O6	O	0.073967	0.590836	0.755896
O7	O	-0.680631	0.012101	0.089192
O8	O	-0.347298	0.345435	0.422526
O9	O	-0.013965	0.678768	0.755859
O10	O	-0.670630	-0.153761	0.089234
O11	O	-0.337296	0.179573	0.422567
O12	O	-0.003963	0.512906	0.755900
O13	O	-0.674011	0.005482	-0.089447
O14	O	-0.340677	0.338816	0.243886
O15	O	-0.007344	0.672149	0.577219
O16	O	-0.586079	-0.082449	-0.089410
O17	O	-0.252745	0.250884	0.243923
O18	O	0.080588	0.584217	0.577257
O19	O	-0.751941	-0.072447	-0.089443
O20	O	-0.418608	0.260886	0.243890
O21	O	-0.085274	0.594219	0.577224
Cu22	Cu	-0.668405	-0.078053	-0.105738
Cu23	Cu	-0.335072	0.255281	0.227595
Cu24	Cu	-0.001739	0.588614	0.560929
Cu25	Cu	-0.676235	-0.070225	0.105524
Cu26	Cu	-0.342902	0.263108	0.438858
Cu27	Cu	-0.009568	0.596441	0.772191
O28	O	-0.664009	-0.160379	-0.089406
O29	O	-0.330676	0.172954	0.243927
O30	O	0.002658	0.506287	0.577261
C31	C	-0.568173	-0.078885	-0.000086
C32	C	-0.234840	0.254448	0.333247
C33	C	0.098494	0.587782	0.666580
C34	C	-0.504957	-0.078119	-0.000075
C35	C	-0.171623	0.255214	0.333259
C36	C	0.161710	0.588548	0.666592
C37	C	-0.677066	0.030008	-0.000130
C38	C	-0.343733	0.363341	0.333203
C39	C	-0.010399	0.696675	0.666537
C40	C	-0.676300	0.093225	-0.000138
C41	C	-0.342967	0.426558	0.333195
C42	C	-0.009633	0.759891	0.666528
C43	C	-0.776467	-0.069393	-0.000125
C44	C	-0.443134	0.263941	0.333208
C45	C	-0.109800	0.597274	0.666542
C46	C	-0.839684	-0.070159	-0.000130
C47	C	-0.506351	0.263174	0.333204
C48	C	-0.173017	0.596508	0.666537
C49	C	-0.105852	-0.125354	-0.000111
C50	C	0.227481	0.207980	0.333222
C51	C	0.560815	0.541313	0.666555
C52	C	-0.046452	-0.124642	-0.000118
C53	C	0.286882	0.208691	0.333215
C54	C	0.620215	0.542024	0.666549
O55	O	-0.009706	-0.168429	-0.000146
O56	O	0.323627	0.164904	0.333187
O57	O	0.656961	0.498237	0.666520
N58	N	-0.023825	-0.072367	-0.000129
N59	N	0.309508	0.260967	0.333204
N60	N	0.642842	0.594300	0.666537
C61	C	-0.060602	-0.020799	-0.000145
C62	C	0.272731	0.312534	0.333189
C63	C	0.606065	0.645868	0.666522
O64	O	-0.035902	0.023731	-0.000156
O65	O	0.297431	0.357064	0.333177
O66	O	0.630765	0.690398	0.666511
C67	C	-0.120001	-0.021511	-0.000146
C68	C	0.213332	0.311822	0.333188
C69	C	0.546666	0.645156	0.666521
C70	C	-0.142625	-0.073790	-0.000124
C71	C	0.190709	0.259543	0.333210
C72	C	0.524042	0.592877	0.666543
C73	C	-0.128476	-0.177628	-0.000090
C74	C	0.204857	0.155705	0.333243
C75	C	0.538191	0.489038	0.666576
C76	C	-0.187873	-0.178339	-0.000082
C77	C	0.145461	0.154994	0.333252
C78	C	0.478794	0.488327	0.666585
C79	C	-0.224645	-0.126775	-0.000094
C80	C	0.108688	0.206558	0.333239
C81	C	0.442022	0.539891	0.666573
C82	C	-0.202021	-0.074501	-0.000115
C83	C	0.131312	0.258833	0.333218
C84	C	0.464646	0.592166	0.666552
C85	C	-0.156777	0.030056	-0.000169
C86	C	0.176557	0.363389	0.333164
C87	C	0.509890	0.696722	0.666498
C88	C	-0.216179	0.029339	-0.000171
C89	C	0.117154	0.362672	0.333163
C90	C	0.450488	0.696006	0.666496
C91	C	-0.238803	-0.022940	-0.000148
C92	C	0.094531	0.310394	0.333185
C93	C	0.427864	0.643727	0.666518
C94	C	-0.298190	-0.023648	-0.000118
C95	C	0.035143	0.309685	0.333215
C96	C	0.368477	0.643019	0.666548
N97	N	-0.320817	-0.075924	-0.000107
N98	N	0.012517	0.257410	0.333226
N99	N	0.345850	0.590743	0.666560
C100	C	-0.284044	-0.127488	-0.000095
C101	C	0.049289	0.205846	0.333238
C102	C	0.382623	0.539179	0.666572
C103	C	0.064141	-0.019307	-0.000145
C104	C	0.397474	0.314026	0.333189
C105	C	0.730807	0.647359	0.666522
C106	C	0.123538	-0.018595	-0.000136
C107	C	0.456871	0.314739	0.333197
C108	C	0.790205	0.648072	0.666531
C109	C	0.137685	-0.122438	-0.000111
C110	C	0.471018	0.210895	0.333222
C111	C	0.804351	0.544228	0.666555
C112	C	0.078286	-0.123151	-0.000112
C113	C	0.411619	0.210183	0.333221
C114	C	0.744952	0.543516	0.666554
C115	C	0.041514	-0.071583	-0.000133
C116	C	0.374847	0.261750	0.333200
C117	C	0.708181	0.595083	0.666533
C118	C	-0.408782	-0.128976	-0.000076
C119	C	-0.075448	0.204357	0.333258
C120	C	0.257885	0.537690	0.666591
C121	C	-0.468184	-0.129683	-0.000062
C122	C	-0.134851	0.203651	0.333271
C123	C	0.198483	0.536984	0.666604
C124	C	-0.482325	-0.025839	-0.000093
C125	C	-0.148992	0.307494	0.333241
C126	C	0.184342	0.640827	0.666574
C127	C	-0.422928	-0.025133	-0.000100
C128	C	-0.089595	0.308201	0.333233
C129	C	0.243739	0.641534	0.666566
C130	C	-0.386157	-0.076706	-0.000095
C131	C	-0.052824	0.256627	0.333238
C132	C	0.280510	0.589961	0.666571
O133	O	-0.334970	0.020116	-0.000095
O134	O	-0.001637	0.353449	0.333239
O135	O	0.331697	0.686783	0.666572
O136	O	-0.308752	-0.172011	-0.000098
O137	O	0.024581	0.161323	0.333236
O138	O	0.357915	0.494656	0.666569
C139	C	-0.667574	-0.178286	-0.000081
C140	C	-0.334241	0.155048	0.333252
C141	C	-0.000907	0.488381	0.666586
C142	C	-0.668341	-0.241502	-0.000066
C143	C	-0.335007	0.091831	0.333267
C144	C	-0.001674	0.425164	0.666601
C145	C	-0.723535	0.492329	-0.000089
C146	C	-0.390202	0.825663	0.333245
C147	C	-0.056869	1.158996	0.666578
C148	C	-0.722824	0.551730	-0.000080
C149	C	-0.389491	0.885063	0.333253
C150	C	-0.056157	1.218397	0.666586
O151	O	-0.766611	0.588476	-0.000050
O152	O	-0.433278	0.921809	0.333284
O153	O	-0.099944	1.255142	0.666617
N154	N	-0.670548	0.574357	-0.000071
N155	N	-0.337215	0.907690	0.333262
N156	N	-0.003881	1.241023	0.666596
C157	C	-0.618980	0.537579	-0.000059
C158	C	-0.285647	0.870913	0.333275
C159	C	0.047686	1.204246	0.666608
O160	O	-0.574450	0.562279	-0.000049
O161	O	-0.241117	0.895613	0.333285
O162	O	0.092216	1.228946	0.666618
C163	C	-0.619692	0.478180	-0.000059
C164	C	-0.286359	0.811514	0.333274
C165	C	0.046974	1.144847	0.666607
C166	C	-0.671971	0.455557	-0.000080
C167	C	-0.338638	0.788890	0.333254
C168	C	-0.005305	1.122224	0.666587
C169	C	-0.775810	0.469706	-0.000108
C170	C	-0.442477	0.803039	0.333225
C171	C	-0.109143	1.136372	0.666559
C172	C	-0.776521	0.410309	-0.000118
C173	C	-0.443187	0.743642	0.333215
C174	C	-0.109854	1.076976	0.666548
C175	C	-0.724957	0.373536	-0.000109
C176	C	-0.391624	0.706870	0.333224
C177	C	-0.058290	1.040203	0.666557
C178	C	-0.672682	0.396160	-0.000090
C179	C	-0.339349	0.729494	0.333243
C180	C	-0.006015	1.062827	0.666577
C181	C	-0.568126	0.441405	-0.000039
C182	C	-0.234792	0.774738	0.333294
C183	C	0.098541	1.108071	0.666627
C184	C	-0.568842	0.382002	-0.000039
C185	C	-0.235509	0.715335	0.333294
C186	C	0.097825	1.048669	0.666628
C187	C	-0.621121	0.359379	-0.000060
C188	C	-0.287788	0.692712	0.333274
C189	C	0.045546	1.026045	0.666607
C190	C	-0.621829	0.299991	-0.000091
C191	C	-0.288496	0.633325	0.333242
C192	C	0.044838	0.966658	0.666575
N193	N	-0.674105	0.277365	-0.000101
N194	N	-0.340772	0.610698	0.333232
N195	N	-0.007438	0.944031	0.666566
C196	C	-0.725669	0.314137	-0.000110
C197	C	-0.392336	0.647471	0.333223
C198	C	-0.059002	0.980804	0.666557
C199	C	-0.617489	0.662322	-0.000055
C200	C	-0.284156	0.995655	0.333278
C201	C	0.049178	1.328989	0.666611
C202	C	-0.616776	0.721720	-0.000062
C203	C	-0.283443	1.055053	0.333271
C204	C	0.049891	1.388386	0.666604
C205	C	-0.720620	0.735866	-0.000082
C206	C	-0.387287	1.069200	0.333251
C207	C	-0.053954	1.402533	0.666584
C208	C	-0.721332	0.676467	-0.000083
C209	C	-0.387999	1.009801	0.333250
C210	C	-0.054666	1.343134	0.666584
C211	C	-0.669765	0.639696	-0.000065
C212	C	-0.336432	0.973029	0.333268
C213	C	-0.003098	1.306362	0.666602
C214	C	-0.727158	0.189400	-0.000133
C215	C	-0.393824	0.522733	0.333201
C216	C	-0.060491	0.856066	0.666534
C217	C	-0.727864	0.129997	-0.000147
C218	C	-0.394531	0.463330	0.333186
C219	C	-0.061197	0.796664	0.666519
C220	C	-0.624020	0.115856	-0.000122
C221	C	-0.290687	0.449189	0.333212
C222	C	0.042646	0.782523	0.666545
C223	C	-0.623314	0.175253	-0.000113
C224	C	-0.289980	0.508586	0.333221
C225	C	0.043353	0.841920	0.666554
C226	C	-0.674887	0.212024	-0.000114
C227	C	-0.341554	0.545358	0.333219
C228	C	-0.008221	0.878691	0.666552
O229	O	-0.578065	0.263211	-0.000118
O230	O	-0.244732	0.596544	0.333216
O231	O	0.088601	0.929878	0.666549
O232	O	-0.770192	0.289430	-0.000106
O233	O	-0.436859	0.622763	0.333228
O234	O	-0.103526	0.956096	0.666561
N235	N	-0.662902	-0.083558	-0.254328
N236	N	-0.329569	0.249775	0.079005
N237	N	0.003764	0.583109	0.412338
C238	C	-0.689834	-0.056616	-0.526773
C239	C	-0.356501	0.276718	-0.193439
C240	C	-0.023167	0.610051	0.139894
C241	C	-0.654812	-0.091656	-0.473434
C242	C	-0.321479	0.241677	-0.140101
C243	C	0.011854	0.575011	0.193233
C244	C	-0.659315	-0.087149	-0.351512
C245	C	-0.325982	0.246184	-0.018179
C246	C	0.007352	0.579518	0.315155
C247	C	-0.685332	-0.061122	-0.648705
C248	C	-0.351999	0.272211	-0.315372
C249	C	-0.018666	0.605545	0.017961
N250	N	-0.681742	-0.064716	0.254115
N251	N	-0.348409	0.268618	0.587448
N252	N	-0.015076	0.601951	0.920781
H253	H	-0.486600	-0.172256	-0.000044
H254	H	-0.153267	0.161077	0.333290
H255	H	0.180066	0.494411	0.666623
H256	H	-0.621448	-0.125040	-0.519335
H257	H	-0.288115	0.208293	-0.186002
H258	H	0.045218	0.541627	0.147331
H259	H	-0.574205	0.740133	-0.000064
H260	H	-0.240871	1.073467	0.333269
H261	H	0.092462	1.406800	0.666602
H262	H	-0.723197	-0.023235	-0.480877
H263	H	-0.389863	0.310099	-0.147543
H264	H	-0.056530	0.643432	0.185790
H265	H	-0.206287	-0.220910	-0.000063
H266	H	0.127047	0.112423	0.333270
H267	H	0.460380	0.445757	0.666603
O268	O	-0.373151	-0.179124	-0.000016
O269	O	-0.039817	0.154209	0.333318
O270	O	0.293516	0.487542	0.666651
C271	C	-0.405866	-0.225411	-0.000020
C272	C	-0.072533	0.107923	0.333314
C273	C	0.260800	0.441256	0.666647
H274	H	-0.451532	-0.209434	0.033795
H275	H	-0.118199	0.123899	0.367129
H276	H	0.215135	0.457233	0.700462
H277	H	-0.385682	-0.259597	0.051860
H278	H	-0.052348	0.073737	0.385193
H279	H	0.280985	0.407070	0.718527
H280	H	-0.406840	-0.244630	-0.085715
H281	H	-0.073506	0.088704	0.247619
H282	H	0.259827	0.422037	0.580952
H283	H	-0.098541	-0.219620	-0.000084
H284	H	0.234792	0.113713	0.333249
H285	H	0.568126	0.447046	0.666582
H286	H	-0.575494	0.632385	-0.000050
H287	H	-0.242160	0.965718	0.333283
H288	H	0.091173	1.299051	0.666617
O289	O	0.028359	0.030757	-0.000004
O290	O	0.361692	0.364091	0.333329
O291	O	0.695025	0.697424	0.666663
C292	C	-0.009836	0.036889	0.092531
C293	C	0.323497	0.370222	0.425864
C294	C	0.656830	0.703556	0.759197
H295	H	-0.013740	-0.007154	0.123381
H296	H	0.319594	0.326179	0.456715
H297	H	0.652927	0.659512	0.790048
H298	H	-0.053828	0.057600	0.071723
H299	H	0.279505	0.390933	0.405057
H300	H	0.612838	0.724267	0.738390
H301	H	0.007173	0.065180	0.157312
H302	H	0.340506	0.398513	0.490645
H303	H	0.673840	0.731846	0.823978
H304	H	-0.582038	0.085905	-0.000118
H305	H	-0.248705	0.419238	0.333215
H306	H	0.084628	0.752572	0.666549
H307	H	-0.762606	0.765818	-0.000086
H308	H	-0.429273	1.099151	0.333248
H309	H	-0.095940	1.432485	0.666581
H310	H	-0.525555	0.459814	-0.000016
H311	H	-0.192221	0.793147	0.333317
H312	H	0.141112	1.126481	0.666651
H313	H	0.059870	-0.165721	-0.000100
H314	H	0.393204	0.167613	0.333233
H315	H	0.726537	0.500946	0.666566
O316	O	-0.518036	0.024269	0.000086
O317	O	-0.184703	0.357602	0.333419
O318	O	0.148630	0.690936	0.666753
C319	C	-0.511244	0.059469	0.092577
C320	C	-0.177911	0.392803	0.425911
C321	C	0.155422	0.726136	0.759244
H322	H	-0.493164	0.031688	0.157255
H323	H	-0.159831	0.365021	0.490588
H324	H	0.173503	0.698354	0.823922
H325	H	-0.554669	0.083698	0.123625
H326	H	-0.221336	0.417031	0.456958
H327	H	0.111998	0.750364	0.790291
H328	H	-0.480409	0.091487	0.071645
H329	H	-0.147076	0.424820	0.404978
H330	H	0.186257	0.758153	0.738311
O331	O	-0.251914	0.079412	-0.000376
O332	O	0.081419	0.412745	0.332957
O333	O	0.414752	0.746078	0.666290
C334	C	-0.283287	0.078676	-0.092877
C335	C	0.050046	0.412009	0.240456
C336	C	0.383380	0.745342	0.573789
H337	H	-0.258984	0.047028	-0.157537
H338	H	0.074350	0.380361	0.175796
H339	H	0.407683	0.713694	0.509130
H340	H	-0.289066	0.123438	-0.123947
H341	H	0.044268	0.456771	0.209387
H342	H	0.377601	0.790104	0.542720
H343	H	-0.327179	0.064967	-0.071949
H344	H	0.006154	0.398300	0.261384
H345	H	0.339488	0.731634	0.594718
O346	O	-0.778702	0.108119	-0.000115
O347	O	-0.445369	0.441452	0.333218
O348	O	-0.112036	0.774785	0.666551
C349	C	-0.824058	0.153316	-0.000144
C350	C	-0.490725	0.486650	0.333190
C351	C	-0.157392	0.819983	0.666523
H352	H	-0.809580	0.194832	0.033686
H353	H	-0.476247	0.528166	0.367019
H354	H	-0.142914	0.861499	0.700352
H355	H	-0.862500	0.143021	0.051711
H356	H	-0.529167	0.476354	0.385045
H357	H	-0.195833	0.809687	0.718378
H358	H	-0.836772	0.158644	-0.085848
H359	H	-0.503438	0.491977	0.247485
H360	H	-0.170105	0.825311	0.580819
H361	H	0.167636	-0.164425	-0.000107
H362	H	0.500969	0.168909	0.333227
H363	H	0.834303	0.502242	0.666560
O364	O	-0.518694	0.346362	-0.000070
O365	O	-0.185360	0.679695	0.333264
O366	O	0.147973	1.013029	0.666597
C367	C	-0.472405	0.379074	-0.000021
C368	C	-0.139072	0.712408	0.333312
C369	C	0.194261	1.045741	0.666645
H370	H	-0.485868	0.422240	-0.033842
H371	H	-0.152534	0.755573	0.299491
H372	H	0.180799	1.088906	0.632824
H373	H	-0.434372	0.355050	-0.051874
H374	H	-0.101039	0.688383	0.281460
H375	H	0.232295	1.021717	0.614793
H376	H	-0.459546	0.386385	0.085688
H377	H	-0.126212	0.719718	0.419021
H378	H	0.207121	1.053052	0.752355
H379	H	0.141952	0.023977	-0.000137
H380	H	0.475285	0.357310	0.333196
H381	H	0.808618	0.690643	0.666529
O382	O	-0.572525	0.197214	0.000092
O383	O	-0.239191	0.530548	0.333425
O384	O	0.094142	0.863881	0.666759
C385	C	-0.544537	0.181796	0.092602
C386	C	-0.211204	0.515130	0.425936
C387	C	0.122129	0.848463	0.759269
H388	H	-0.577511	0.171991	0.157252
H389	H	-0.244177	0.505324	0.490585
H390	H	0.089156	0.838658	0.823918
H391	H	-0.521671	0.218797	0.123681
H392	H	-0.188338	0.552130	0.457014
H393	H	0.144995	0.885464	0.790347
H394	H	-0.511799	0.142135	0.071682
H395	H	-0.178466	0.475468	0.405016
H396	H	0.154867	0.808802	0.738349
O397	O	-0.134884	0.080882	-0.000056
O398	O	0.198449	0.414215	0.333277
O399	O	0.531783	0.747548	0.666611
C400	C	-0.157120	0.115721	0.092461
C401	C	0.176213	0.449054	0.425794
C402	C	0.509547	0.782387	0.759127
H403	H	-0.199372	0.101575	0.123322
H404	H	0.133962	0.434909	0.456655
H405	H	0.467295	0.768242	0.789989
H406	H	-0.164867	0.162421	0.071625
H407	H	0.168466	0.495754	0.404959
H408	H	0.501800	0.829087	0.738292
H409	H	-0.125103	0.111339	0.157245
H410	H	0.208230	0.444672	0.490578
H411	H	0.541563	0.778006	0.823911
O412	O	-0.777213	0.225166	-0.000282
O413	O	-0.443879	0.558499	0.333051
O414	O	-0.110546	0.891832	0.666384
C415	C	-0.776488	0.256518	-0.092812
C416	C	-0.443155	0.589852	0.240521
C417	C	-0.109822	0.923185	0.573854
H418	H	-0.730160	0.258143	-0.123641
H419	H	-0.396826	0.591477	0.209692
H420	H	-0.063493	0.924810	0.543026
H421	H	-0.798743	0.302049	-0.072007
H422	H	-0.465409	0.635382	0.261326
H423	H	-0.132076	0.968715	0.594659
H424	H	-0.799977	0.234718	-0.157609
H425	H	-0.466644	0.568051	0.175724
H426	H	-0.133310	0.901384	0.509058
H427	H	-0.817802	0.499641	-0.000112
H428	H	-0.484469	0.832974	0.333222
H429	H	-0.151135	1.166307	0.666555
O430	O	-0.827357	0.388434	-0.000082
O431	O	-0.494024	0.721767	0.333251
O432	O	-0.160691	1.055101	0.666585
C433	C	-0.872709	0.433636	-0.000113
C434	C	-0.539375	0.766969	0.333220
C435	C	-0.206042	1.100303	0.666554
H436	H	-0.858225	0.475150	0.033711
H437	H	-0.524892	0.808484	0.367044
H438	H	-0.191559	1.141817	0.700377
H439	H	-0.911152	0.423346	0.051745
H440	H	-0.577818	0.756680	0.385079
H441	H	-0.244485	1.090013	0.718412
H442	H	-0.885422	0.438963	-0.085818
H443	H	-0.552089	0.772296	0.247516
H444	H	-0.218756	1.105629	0.580849
O445	O	-0.772137	0.654528	0.000098
O446	O	-0.438804	0.987861	0.333431
O447	O	-0.105470	1.321194	0.666765
C448	C	-0.806981	0.676785	0.092597
C449	C	-0.473648	1.010118	0.425930
C450	C	-0.140314	1.343452	0.759263
H451	H	-0.778800	0.691364	0.157266
H452	H	-0.445466	1.024697	0.490599
H453	H	-0.112133	1.358031	0.823932
H454	H	-0.832155	0.642084	0.123652
H455	H	-0.498822	0.975417	0.456985
H456	H	-0.165489	1.308750	0.790319
H457	H	-0.838163	0.714904	0.071670
H458	H	-0.504830	1.048237	0.405004
H459	H	-0.171497	1.381570	0.738337
H460	H	-0.404508	0.017438	-0.000103
H461	H	-0.071175	0.350771	0.333231
H462	H	0.262159	0.684104	0.666564
