data_functionalizedCrystal
_audit_creation_method	'MofGen! by Chris Wilmer'
_symmetry_space_group_name_H-M	'P1'
_symmetry_Int_Tables_number	1
_symmetry_cell_setting	triclinic
loop_
_symmetry_equiv_pos_as_xyz
  x,y,z
_cell_length_a	16.109318
_cell_length_b	16.109301
_cell_length_c	14.586319
_cell_angle_alpha	90.005214
_cell_angle_beta	90.000075
_cell_angle_gamma	96.534978
loop_
_atom_site_label
_atom_site_type_symbol
_atom_site_fract_x
_atom_site_fract_y
_atom_site_fract_z
O1	O	1.103122	-0.106935	-0.076167
O2	O	1.603122	0.393065	0.423833
O3	O	0.861062	-0.120219	-0.076186
O4	O	1.361062	0.379781	0.423814
O5	O	0.988741	0.007454	-0.076167
O6	O	1.488741	0.507454	0.423833
O7	O	0.975442	-0.234607	-0.076186
O8	O	1.475442	0.265393	0.423814
O9	O	0.988733	0.007456	0.076314
O10	O	1.488733	0.507456	0.576314
O11	O	0.861053	-0.120217	0.076295
O12	O	1.361053	0.379783	0.576295
O13	O	1.103113	-0.106933	0.076314
O14	O	1.603113	0.393067	0.576314
Cu15	Cu	0.982082	-0.113575	0.090227
Cu16	Cu	1.482082	0.386425	0.590227
Cu17	Cu	0.982093	-0.113577	-0.090099
Cu18	Cu	1.482093	0.386423	0.409901
O19	O	0.975433	-0.234606	0.076294
O20	O	1.475433	0.265394	0.576294
C21	C	0.830083	-0.119677	0.000052
C22	C	1.330083	0.380323	0.500052
C23	C	0.737788	-0.118057	0.000045
C24	C	1.237788	0.381943	0.500045
C25	C	0.438719	-0.112823	-0.083055
C26	C	0.938719	0.387177	0.416945
C27	C	0.525441	-0.114340	-0.083061
C28	C	1.025441	0.385660	0.416939
C29	C	0.525450	-0.114327	0.083182
C30	C	1.025450	0.385673	0.583182
C31	C	0.438731	-0.112803	0.083187
C32	C	0.938731	0.387197	0.583187
C33	C	0.395367	-0.112056	0.000065
C34	C	0.895367	0.387944	0.500065
C35	C	0.568807	-0.115096	0.000055
C36	C	1.068807	0.384904	0.500055
C37	C	0.662835	-0.116742	0.000049
C38	C	1.162835	0.383258	0.500049
C39	C	0.301334	-0.110409	0.000070
C40	C	0.801334	0.389591	0.500070
C41	C	0.988198	0.038430	0.000074
C42	C	1.488198	0.538430	0.500074
C43	C	0.986583	0.130725	0.000075
C44	C	1.486583	0.630725	0.500075
C45	C	1.134092	-0.107474	0.000074
C46	C	1.634092	0.392526	0.500074
C47	C	1.226387	-0.109095	0.000075
C48	C	1.726387	0.390905	0.500075
C49	C	0.975976	-0.265581	0.000052
C50	C	1.475976	0.234419	0.500052
C51	C	0.977592	-0.357877	0.000044
C52	C	1.477592	0.142123	0.500044
N53	N	0.982081	-0.113573	0.217059
N54	N	1.482081	0.386427	0.717059
C55	C	1.058590	0.352993	0.000067
C56	C	1.558590	0.852993	0.500067
C57	C	1.057066	0.439713	0.000059
C58	C	1.557066	0.939713	0.500059
C59	C	0.905579	0.419848	0.000051
C60	C	1.405579	0.919848	0.500051
C61	C	0.907104	0.333130	0.000052
C62	C	1.407104	0.833130	0.500052
C63	C	0.983612	0.299704	0.000064
C64	C	1.483612	0.799704	0.500064
C65	C	0.980563	0.473144	0.000056
C66	C	1.480563	0.973144	0.500056
C67	C	0.978910	0.567170	0.000047
C68	C	1.478910	1.067170	0.500047
C69	C	0.985265	0.205672	0.000071
C70	C	1.485265	0.705672	0.500071
N71	N	0.982100	-0.113573	-0.216931
N72	N	1.482100	0.386427	0.283069
C73	C	1.038636	-0.057058	0.452074
C74	C	1.538636	0.442942	0.952074
C75	C	1.038638	-0.057056	0.548055
C76	C	1.538638	0.442944	1.048055
C77	C	0.925539	-0.170090	0.548047
C78	C	1.425539	0.329910	1.048047
C79	C	0.925534	-0.170087	0.452068
C80	C	1.425534	0.329913	0.952068
C81	C	0.982087	-0.113572	0.404084
C82	C	1.482087	0.386428	0.904084
C83	C	0.982095	-0.113573	0.596044
C84	C	1.482095	0.386427	1.096044
C85	C	0.982097	-0.113571	0.700111
C86	C	1.482097	0.386429	1.200111
C87	C	0.982084	-0.113573	0.300010
C88	C	1.482084	0.386427	0.800010
H89	H	0.403433	-0.112178	0.150877
H90	H	0.903433	0.387822	0.650877
N91	N	0.823067	0.455908	0.000050
N92	N	1.323067	0.955908	0.500050
H93	H	0.790219	0.436477	0.056574
H94	H	1.290219	0.936477	0.556574
H95	H	0.790284	0.436463	-0.056513
H96	H	1.290284	0.936463	0.443487
H97	H	0.879496	-0.216104	0.587126
H98	H	1.379496	0.283896	1.087126
N99	N	0.572195	-0.115178	-0.172714
N100	N	1.072195	0.384822	0.327286
H101	H	0.633712	-0.116254	-0.160109
H102	H	1.133712	0.383746	0.339891
H103	H	0.563786	-0.063407	-0.209013
H104	H	1.063786	0.436593	0.290987
H105	H	0.560767	-0.114937	0.150856
H106	H	1.060767	0.385063	0.650856
H107	H	1.120888	0.325781	0.000075
H108	H	1.620888	0.825781	0.500075
N109	N	0.864531	-0.231038	0.400299
N110	N	1.364531	0.268962	0.900299
H111	H	0.828709	-0.266843	0.445259
H112	H	1.328709	0.233157	0.945259
H113	H	0.896342	-0.267803	0.360464
H114	H	1.396342	0.232197	0.860464
H115	H	1.118121	0.483098	0.000059
H116	H	1.618121	0.983098	0.500059
H117	H	1.084684	-0.011039	0.413007
H118	H	1.584684	0.488961	0.913007
N119	N	0.391947	-0.112013	-0.172703
N120	N	0.891947	0.387987	0.327297
H121	H	0.432573	-0.112727	-0.225360
H122	H	0.932573	0.387273	0.274640
H123	H	0.362720	-0.059871	-0.176320
H124	H	0.862720	0.440129	0.323680
H125	H	0.846043	0.289740	0.000047
H126	H	1.346043	0.789740	0.500047
H127	H	1.084685	-0.011036	0.587126
H128	H	1.584685	0.488964	1.087126
