data_functionalizedCrystal
_audit_creation_method	'MofGen! by Chris Wilmer'
_symmetry_space_group_name_H-M	'P1'
_symmetry_Int_Tables_number	1
_symmetry_cell_setting	triclinic
loop_
_symmetry_equiv_pos_as_xyz
  x,y,z
_cell_length_a	12.759401
_cell_length_b	25.639239
_cell_length_c	12.759393
_cell_angle_alpha	89.964022
_cell_angle_beta	89.980324
_cell_angle_gamma	90.039113
loop_
_atom_site_label
_atom_site_type_symbol
_atom_site_fract_x
_atom_site_fract_y
_atom_site_fract_z
Zn1	Zn	1.606091	-0.208120	-0.593945
Zn2	Zn	1.605909	-0.295565	-0.418248
Zn3	Zn	1.430390	-0.208146	-0.418284
Zn4	Zn	1.430308	-0.295526	-0.593889
O5	O	1.518175	-0.251839	-0.506091
O6	O	1.753088	-0.219724	-0.570646
O7	O	1.582584	-0.283995	-0.271232
O8	O	1.453808	-0.134977	-0.441624
O9	O	1.752954	-0.283970	-0.441563
O10	O	1.582895	-0.134958	-0.570681
O11	O	1.453631	-0.219769	-0.271258
O12	O	1.283358	-0.219732	-0.441570
O13	O	1.453669	-0.283905	-0.740918
O14	O	1.283298	-0.283930	-0.570586
O15	O	1.582815	-0.219687	-0.740958
O16	O	1.582504	-0.368725	-0.441509
O17	O	1.453492	-0.368697	-0.570552
C18	C	1.245207	-0.251830	-0.506076
C19	C	1.128431	-0.251839	-0.506095
C20	C	1.073639	-0.218447	-0.573413
C21	C	0.963915	-0.218452	-0.573419
C22	C	0.963784	-0.285246	-0.438789
C23	C	1.073506	-0.285238	-0.438777
C24	C	0.814047	-0.156824	-0.611200
C25	C	0.759252	-0.123436	-0.678534
C26	C	0.794917	-0.115468	-0.781074
C27	C	0.885376	-0.140894	-0.816301
C28	C	0.940166	-0.174286	-0.748972
C29	C	0.904502	-0.182245	-0.646418
C30	C	1.223375	-0.346866	-0.401008
C31	C	1.278167	-0.380261	-0.333684
C32	C	1.242504	-0.388235	-0.231142
C33	C	1.152042	-0.362818	-0.195919
C34	C	1.097250	-0.329423	-0.263243
C35	C	1.132921	-0.321448	-0.365783
C36	C	1.517998	-0.387682	-0.506043
C37	C	1.518018	-0.445796	-0.506058
C38	C	1.585527	-0.806161	-0.439013
C39	C	1.585568	-0.860765	-0.439027
O40	O	1.642782	-0.889004	-0.381971
N41	N	1.518359	-0.888078	-0.506161
C42	C	1.451113	-0.860784	-0.573292
O43	O	1.393952	-0.889030	-0.630397
C44	C	1.451079	-0.806181	-0.573283
C45	C	1.518284	-0.778870	-0.506137
C46	C	1.652728	-0.778850	-0.371874
C47	C	1.652685	-0.724250	-0.371859
C48	C	1.585442	-0.696960	-0.438983
C49	C	1.518242	-0.724270	-0.506122
C50	C	1.383839	-0.778888	-0.640419
C51	C	1.383810	-0.724281	-0.640404
C52	C	1.451016	-0.696970	-0.573259
C53	C	1.450956	-0.642379	-0.573231
N54	N	1.518165	-0.615066	-0.506097
C55	C	1.585408	-0.642356	-0.438973
C56	C	1.451192	-0.975455	-0.573309
C57	C	1.451221	-1.030057	-0.573314
C58	C	1.585677	-1.030034	-0.439050
C59	C	1.585642	-0.975431	-0.439040
C60	C	1.518401	-0.948142	-0.506175
C61	C	1.585313	-0.527691	-0.438946
C62	C	1.585261	-0.473086	-0.438934
C63	C	1.450810	-0.473113	-0.573201
C64	C	1.450857	-0.527714	-0.573210
C65	C	1.518117	-0.555002	-0.506079
O66	O	1.393774	-0.614106	-0.630261
O67	O	1.642569	-0.614104	-0.381888
C68	C	1.792208	-0.251849	-0.506107
C69	C	1.908984	-0.251853	-0.506113
C70	C	1.518253	-0.251789	-0.780125
C71	C	1.518287	-0.251768	-0.896902
C72	C	1.518381	-0.115466	-0.506163
C73	C	1.518468	-0.057352	-0.506193
C74	C	1.585539	-0.218324	-0.951786
C75	C	1.585556	-0.218302	-1.061511
C76	C	1.451068	-0.285170	-1.061455
C77	C	1.451045	-0.285190	-0.951733
C78	C	1.623220	-0.156615	-1.211500
C79	C	1.690489	-0.123176	-1.266388
C80	C	1.793008	-0.115160	-1.230796
C81	C	1.828280	-0.140589	-1.140317
C82	C	1.761018	-0.174032	-1.085434
C83	C	1.658484	-0.182039	-1.121025
C84	C	1.413392	-0.346877	-0.801742
C85	C	1.346134	-0.380323	-0.746857
C86	C	1.243613	-0.388345	-0.782447
C87	C	1.208344	-0.362924	-0.872929
C88	C	1.275602	-0.329478	-0.927814
C89	C	1.378123	-0.321456	-0.892217
C90	C	1.518157	-0.251851	-0.233124
C91	C	1.518327	-0.251725	-0.116348
H92	H	0.919051	-0.312439	-0.383982
H93	H	1.539738	-0.163135	-1.240482
H94	H	1.374863	-0.401027	-0.673188
N95	N	1.301597	-0.424252	-0.158520
H96	H	1.254043	-0.453610	-0.135487
H97	H	1.364312	-0.439111	-0.196446
H98	H	1.640288	-0.191108	-0.907146
N99	N	1.132882	-0.182425	-0.646015
H100	H	1.081518	-0.161271	-0.688659
H101	H	1.178414	-0.158200	-0.603334
N102	N	1.378655	-0.946023	-0.645714
H103	H	1.336087	-0.971615	-0.688237
H104	H	1.330040	-0.923409	-0.602901
N105	N	1.097761	-0.371573	-0.911308
H106	H	1.059060	-0.337228	-0.912457
H107	H	1.099711	-0.386690	-0.984357
N108	N	1.725257	-0.808275	-0.299458
H109	H	1.682599	-0.830966	-0.250734
H110	H	1.773935	-0.830862	-0.342257
N111	N	1.375740	-0.407675	-0.371673
H112	H	1.405035	-0.430041	-0.313466
H113	H	1.357716	-0.430388	-0.433755
N114	N	1.378530	-0.321209	-1.120595
H115	H	1.388744	-0.316121	-1.198432
H116	H	1.394802	-0.358558	-1.101406
H117	H	1.252427	-0.340372	-0.484503
N118	N	0.735818	-0.079460	-0.853702
H119	H	0.673103	-0.064564	-0.815829
H120	H	0.783441	-0.050130	-0.876725
H121	H	1.188856	-0.415584	-0.737755
N122	N	1.311355	-0.808328	-0.712855
H123	H	1.354042	-0.830941	-0.761588
H124	H	1.262703	-0.830995	-0.670068
H125	H	1.640367	-0.953198	-0.384365
H126	H	1.013819	-0.194985	-0.777652
H127	H	1.329055	-0.702064	-0.695077
N128	N	1.378732	-1.059508	-0.645733
H129	H	1.388953	-1.098241	-0.635565
H130	H	1.303700	-1.050007	-0.629312
H131	H	1.023590	-0.308727	-0.234555
N132	N	1.378363	-0.557174	-0.645617
H133	H	1.335756	-0.531598	-0.688134
H134	H	1.421123	-0.579785	-0.694284
N135	N	0.923832	-0.132308	-0.926908
H136	H	0.875397	-0.107297	-0.964215
H137	H	0.996939	-0.117214	-0.925002
N138	N	1.799043	-0.201451	-0.987843
H139	H	1.740871	-0.223849	-0.958471
H140	H	1.861165	-0.224134	-1.005863
H141	H	1.911766	-0.134063	-1.111351
H142	H	1.496871	-0.340345	-0.772750
N143	N	1.657752	-0.443630	-0.366513
H144	H	1.700359	-0.469207	-0.323998
H145	H	1.706332	-0.420934	-0.409318
H146	H	1.396058	-0.450885	-0.627850
N147	N	0.661690	-0.096012	-0.640544
H148	H	0.647415	-0.106120	-0.565361
H149	H	0.672205	-0.057035	-0.645265
N150	N	1.865578	-0.079101	-1.289993
H151	H	1.834469	-0.042902	-1.292008
H152	H	1.935855	-0.077933	-1.253671
H153	H	1.661760	-0.102471	-1.340057
H154	H	1.640085	-0.549902	-0.384284
H155	H	0.785007	-0.163304	-0.527700
H156	H	1.246878	-0.308780	-1.001491
H157	H	1.707412	-0.702017	-0.317186
N158	N	1.113563	-0.371418	-0.085322
H159	H	1.162000	-0.396428	-0.048017
H160	H	1.112432	-0.337030	-0.046776
H161	H	1.640434	-1.052264	-0.384397
