data_functionalizedCrystal
_audit_creation_method	'MofGen! by Chris Wilmer'
_symmetry_space_group_name_H-M	'P1'
_symmetry_Int_Tables_number	1
_symmetry_cell_setting	triclinic
loop_
_symmetry_equiv_pos_as_xyz
  x,y,z
_cell_length_a	19.902436
_cell_length_b	16.704503
_cell_length_c	16.704494
_cell_angle_alpha	66.032140
_cell_angle_beta	90.002171
_cell_angle_gamma	62.455052
loop_
_atom_site_label
_atom_site_type_symbol
_atom_site_fract_x
_atom_site_fract_y
_atom_site_fract_z
Zr1	Zr	0.698839	0.814676	-0.043711
O2	O	0.605222	0.960048	-0.155544
O3	O	0.721224	0.661149	-0.016972
O4	O	0.736299	0.802897	-0.166412
O5	O	0.585439	0.830435	0.120359
O6	O	0.846876	0.802884	-0.166403
O7	O	0.590148	0.818299	-0.006104
O8	O	0.819911	0.549321	0.100918
O9	O	0.612404	1.083997	-0.146962
O10	O	0.820922	0.727307	0.003554
O11	O	0.734885	0.736374	0.097924
O12	O	0.752633	0.903265	-0.078022
O13	O	0.666597	0.912332	0.016349
Zr14	Zr	0.867688	0.834009	0.157998
Zr15	Zr	0.875198	0.814655	-0.043696
Zr16	Zr	0.691330	0.834031	0.157983
Zr17	Zr	0.710294	1.012361	-0.030023
Zr18	Zr	0.856233	0.636324	0.144311
O19	O	0.845303	0.987537	0.131259
O20	O	0.855981	0.960017	-0.155523
O21	O	0.594544	0.987568	0.131238
O22	O	0.961305	0.688638	0.269831
O23	O	0.971983	0.661118	-0.016951
O24	O	0.710546	0.688669	0.269810
O25	O	0.981088	0.818251	-0.006071
O26	O	0.830229	0.845788	0.280699
O27	O	0.719651	0.845802	0.280690
O28	O	0.976380	0.830387	0.120391
O29	O	0.752586	1.083980	-0.146950
O30	O	0.813942	0.564706	0.261238
O31	O	0.954123	0.564689	0.261249
O32	O	0.960093	0.549304	0.100930
O33	O	0.606435	1.099382	0.013357
O34	O	0.746616	1.099365	0.013369
O35	O	0.813894	0.745421	0.192309
O36	O	0.899931	0.736354	0.097938
O37	O	0.831642	0.912312	0.016363
O38	O	0.745605	0.921378	0.110734
C39	C	0.768936	0.577069	0.040023
C40	C	0.764073	0.493147	0.034212
C41	C	0.562666	0.824370	0.057125
C42	C	0.487797	0.824379	0.057119
C43	C	0.863671	0.212219	0.153212
C44	C	0.859104	0.133364	0.147755
C45	C	0.750368	0.256580	0.017848
C46	C	0.754935	0.335435	0.023304
C47	C	0.811590	0.313249	0.090988
C48	C	0.816160	0.392106	0.096439
C49	C	0.707421	0.515320	-0.033464
C50	C	0.702853	0.436465	-0.038920
C51	C	0.215791	0.824330	0.057152
C52	C	0.201193	0.935355	0.005978
C53	C	0.279047	0.935397	0.005654
C54	C	0.350736	0.824355	0.057136
C55	C	0.346583	0.762228	0.009707
C56	C	0.268415	0.762932	0.009320
C57	C	0.263806	0.774600	0.155723
C58	C	0.340860	0.776778	0.155717
C59	C	0.427004	0.824363	0.057127
C60	C	0.139525	0.824319	0.057157
C61	C	1.003861	0.824316	0.057162
C62	C	1.078730	0.824307	0.057168
C63	C	0.792657	0.800133	-0.195144
C64	C	0.795846	0.791916	-0.280769
C65	C	0.797592	1.071617	0.074264
C66	C	0.802455	1.155539	0.080075
C67	C	0.730549	0.960193	-0.526840
C68	C	0.733543	0.952477	-0.607293
C69	C	0.804832	0.768771	-0.522132
C70	C	0.801838	0.776486	-0.441678
C71	C	0.764694	0.872200	-0.444036
C72	C	0.761696	0.879915	-0.363581
C73	C	0.832989	0.696210	-0.278421
C74	C	0.835983	0.688494	-0.358875
C75	C	0.773870	0.848553	0.309432
C76	C	0.770682	0.856769	0.395056
C77	C	0.989533	0.577042	0.040041
C78	C	1.059539	0.493110	0.034237
C79	C	0.759542	0.601279	0.292311
C80	C	0.751491	0.525573	0.372125
C81	C	0.980140	0.601252	0.292329
C82	C	1.046957	0.525537	0.372149
C83	C	0.586388	1.047434	-0.178042
C84	C	0.519570	1.123149	-0.257862
C85	C	0.576994	1.071644	0.074246
C86	C	0.506988	1.155576	0.080050
C87	C	0.806986	1.047407	-0.178024
C88	C	0.815037	1.123113	-0.257837
C89	C	1.051173	0.448972	-0.017765
C90	C	1.116946	0.370118	-0.023237
C91	C	1.191083	0.335400	0.023299
C92	C	1.199448	0.379546	0.075303
C93	C	1.133676	0.458403	0.080769
C94	C	0.788952	0.494744	0.458882
C95	C	0.781384	0.423622	0.533884
C96	C	0.736360	0.383325	0.522126
C97	C	0.698895	0.414161	0.435359
C98	C	0.706458	0.485287	0.360360
C99	C	1.123253	0.485247	0.360373
C100	C	1.186044	0.414115	0.435365
C101	C	1.172536	0.383269	0.522133
C102	C	1.096232	0.423566	0.533908
C103	C	1.033444	0.494702	0.458917
C104	C	0.443275	1.163448	-0.246085
C105	C	0.380486	1.234605	-0.321076
C106	C	0.393994	1.265455	-0.407843
C107	C	0.470298	1.225153	-0.419618
C108	C	0.533085	1.154004	-0.344628
C109	C	0.515355	1.199721	0.132044
C110	C	0.449584	1.278594	0.137496
C111	C	0.375447	1.313316	0.090957
C112	C	0.367082	1.269166	0.038956
C113	C	0.432853	1.190299	0.033501
C114	C	0.860066	1.163387	-0.246051
C115	C	0.867646	1.234511	-0.321037
C116	C	0.830191	1.265364	-0.407809
C117	C	0.785160	1.225082	-0.419594
C118	C	0.777585	1.153954	-0.344609
H119	H	0.909805	0.194153	0.208319
H120	H	0.281298	0.681177	0.043760
C121	C	0.949519	0.539008	0.471876
H122	H	0.914053	0.585798	0.414793
H123	H	0.938838	0.485597	0.501392
H124	H	0.943890	0.572982	0.507435
H125	H	0.665014	0.597592	-0.084133
H126	H	0.662236	0.381341	0.425799
C127	C	0.303104	1.400064	0.096966
H128	H	0.257749	1.414430	0.061800
H129	H	0.299274	1.380236	0.157946
H130	H	0.307656	1.459054	0.074845
H131	H	0.866227	0.610567	-0.356968
C132	C	0.838468	0.539072	0.471835
H133	H	0.859681	0.510527	0.534251
H134	H	0.879581	0.523333	0.441615
H135	H	0.806679	0.610711	0.447646
H136	H	1.259819	0.351266	0.113190
C137	C	1.081383	0.389618	0.629353
H138	H	1.129708	0.341472	0.672321
H139	H	1.055171	0.446892	0.640347
H140	H	1.050118	0.359519	0.634280
H141	H	0.342862	1.323391	-0.468897
H142	H	0.396892	0.680323	0.044846
H143	H	0.901513	0.051102	0.198426
C144	C	1.269968	0.369767	0.422400
H145	H	1.305434	0.322984	0.479484
H146	H	1.275576	0.335797	0.386848
H147	H	1.280672	0.423162	0.392878
C148	C	1.241607	0.305012	0.604614
H149	H	1.288979	0.285431	0.585165
H150	H	1.241765	0.334338	0.642807
H151	H	1.236697	0.246970	0.636746
C152	C	0.428401	1.129536	-0.150650
H153	H	0.373967	1.163746	-0.154388
H154	H	0.448486	1.058298	-0.122361
H155	H	0.453562	1.145673	-0.116328
C156	C	0.485146	1.259088	-0.515065
H157	H	0.436820	1.307223	-0.558033
H158	H	0.516421	1.289170	-0.520008
H159	H	0.511346	1.201796	-0.526045
C160	C	0.150434	1.000996	0.049412
H161	H	0.142318	1.067697	0.017553
H162	H	0.101633	1.003878	0.047095
H163	H	0.176051	0.971911	0.110397
C164	C	0.688056	0.280966	-0.056597
H165	H	0.692801	0.219530	-0.050934
H166	H	0.637731	0.322236	-0.050886
H167	H	0.695207	0.316165	-0.113905
H168	H	0.811897	0.398524	0.604526
C169	C	1.107730	0.321562	-0.080432
H170	H	1.054154	0.353525	-0.107347
H171	H	1.135854	0.330011	-0.126166
H172	H	1.127485	0.251189	-0.043056
H173	H	0.990814	0.477238	-0.055672
H174	H	0.306711	1.297449	0.001067
C175	C	0.617006	1.109669	-0.357595
H176	H	0.616050	1.138229	-0.420012
H177	H	0.645912	1.125389	-0.327365
H178	H	0.640824	1.038032	-0.333422
C179	C	0.596897	1.161541	0.183243
H180	H	0.592450	1.199144	0.214980
H181	H	0.620080	1.091568	0.224715
H182	H	0.628463	1.170383	0.141613
H183	H	0.862292	0.374038	0.151550
C184	C	0.870517	0.599414	-0.187335
H185	H	0.863408	0.617715	-0.139755
H186	H	0.846657	0.560450	-0.183062
H187	H	0.924633	0.560371	-0.182988
H188	H	1.244632	0.271188	0.018841
C189	C	0.423643	1.141733	-0.023683
H190	H	0.473427	1.089791	-0.020277
H191	H	0.391719	1.113323	-0.001479
H192	H	0.400107	1.192130	-0.084584
C193	C	0.458799	1.327135	0.194707
H194	H	0.512371	1.295144	0.221652
H195	H	0.439057	1.397503	0.157347
H196	H	0.430661	1.318684	0.240433
C197	C	1.138127	0.519169	0.264939
H198	H	1.192563	0.484987	0.268679
H199	H	1.112978	0.503037	0.230605
H200	H	1.118032	0.590415	0.236662
C201	C	0.640542	0.460858	-0.113369
H202	H	0.645283	0.399426	-0.107712
H203	H	0.590217	0.502130	-0.107659
H204	H	0.647696	0.496058	-0.170675
H205	H	0.318362	1.267407	-0.311471
C206	C	1.142884	0.506950	0.137974
H207	H	1.093100	0.558894	0.134565
H208	H	1.166427	0.456549	0.198867
H209	H	1.174802	0.535374	0.115766
C210	C	0.901275	1.129458	-0.150612
H211	H	0.929183	1.163630	-0.154345
H212	H	0.863602	1.145597	-0.116283
H213	H	0.936481	1.058210	-0.122334
C214	C	0.917174	1.278820	-0.308062
H215	H	0.916333	1.325592	-0.365144
H216	H	0.896430	1.312793	-0.272509
H217	H	0.969322	1.225402	-0.278538
C218	C	0.838523	1.343612	-0.490284
H219	H	0.870700	1.363183	-0.470828
H220	H	0.861444	1.314283	-0.528474
H221	H	0.788559	1.401660	-0.522420
C222	C	0.743956	1.259037	-0.515044
H223	H	0.754914	1.307175	-0.558007
H224	H	0.762200	1.201763	-0.526038
H225	H	0.689325	1.289146	-0.519979
C226	C	0.279558	1.000608	0.049237
H227	H	0.232075	1.027318	0.067297
H228	H	0.321992	0.959844	0.100389
H229	H	0.284906	1.054916	0.006900
H230	H	0.675955	0.510378	0.289720
C231	C	0.154649	0.987169	-0.091488
H232	H	0.144076	0.941433	-0.101130
H233	H	0.106963	1.046165	-0.101316
H234	H	0.184207	1.005856	-0.132151
C235	C	0.284048	0.987384	-0.092401
H236	H	0.331700	0.987594	-0.092934
H237	H	0.281898	0.951329	-0.123102
H238	H	0.241635	1.055313	-0.121658
C239	C	0.226067	0.808787	-0.088914
H240	H	0.256702	0.826815	-0.128210
H241	H	0.218327	0.760240	-0.096886
H242	H	0.177047	0.867616	-0.102257
C243	C	0.355586	0.806905	-0.087648
H244	H	0.361876	0.863396	-0.099544
H245	H	0.400004	0.756575	-0.095158
H246	H	0.310415	0.828330	-0.128309
C247	C	0.215861	0.829766	0.208206
H248	H	0.166107	0.883650	0.170486
H249	H	0.209669	0.783217	0.259558
H250	H	0.242223	0.856492	0.226930
H251	H	0.740914	1.121170	-0.354218
H252	H	0.730208	0.325411	0.583203
H253	H	0.391602	0.696190	0.197685
C254	C	0.342041	0.838059	0.203495
H255	H	0.348529	0.892410	0.163540
H256	H	0.294312	0.864586	0.221137
H257	H	0.384030	0.794981	0.255280
C258	C	0.281762	0.664204	0.207609
H259	H	0.310790	0.634553	0.267119
H260	H	0.234337	0.663503	0.209894
H261	H	0.311250	0.626443	0.177823
C262	C	0.720843	0.985192	-0.366168
H263	H	0.723943	0.977188	-0.306394
H264	H	0.745663	1.021658	-0.396843
H265	H	0.667710	1.021675	-0.396854
C266	C	0.689689	1.065468	-0.529423
H267	H	0.692792	1.057459	-0.469648
H268	H	0.714501	1.101944	-0.560101
H269	H	0.636556	1.101943	-0.560104
C270	C	0.695981	1.049265	-0.698377
H271	H	0.703087	1.030965	-0.745956
H272	H	0.641872	1.088279	-0.702691
H273	H	0.719825	1.088259	-0.702681
H274	H	0.835082	0.690845	-0.520229
