data_functionalizedCrystal
_audit_creation_method	'MofGen! by Chris Wilmer'
_symmetry_space_group_name_H-M	'P1'
_symmetry_Int_Tables_number	1
_symmetry_cell_setting	triclinic
loop_
_symmetry_equiv_pos_as_xyz
  x,y,z
_cell_length_a	17.077404
_cell_length_b	21.395361
_cell_length_c	17.077396
_cell_angle_alpha	89.966749
_cell_angle_beta	89.980499
_cell_angle_gamma	90.030933
loop_
_atom_site_label
_atom_site_type_symbol
_atom_site_fract_x
_atom_site_fract_y
_atom_site_fract_z
Zn1	Zn	1.200012	-0.249435	-0.443817
Zn2	Zn	1.700012	0.250565	0.056183
Zn3	Zn	1.199901	-0.354216	-0.312540
Zn4	Zn	1.699901	0.145784	0.187460
Zn5	Zn	1.068744	-0.249457	-0.312565
Zn6	Zn	1.568744	0.250543	0.187435
Zn7	Zn	1.068694	-0.354179	-0.443763
Zn8	Zn	1.568694	0.145821	0.056237
O9	O	1.134338	-0.301822	-0.378171
O10	O	1.634338	0.198178	0.121829
O11	O	1.309844	-0.263341	-0.426414
O12	O	1.809844	0.236659	0.073586
O13	O	1.182477	-0.340344	-0.202696
O14	O	1.682477	0.159656	0.297304
O15	O	1.086224	-0.161776	-0.330008
O16	O	1.586224	0.338224	0.169992
O17	O	1.309763	-0.340323	-0.329966
O18	O	1.809763	0.159677	0.170034
O19	O	1.182666	-0.161760	-0.426439
O20	O	1.682666	0.338240	0.073561
O21	O	1.086117	-0.263378	-0.202714
O22	O	1.586117	0.236622	0.297286
O23	O	0.958890	-0.263342	-0.329957
O24	O	1.458890	0.236658	0.170043
O25	O	1.086139	-0.340260	-0.553617
O26	O	1.586139	0.159740	-0.053617
O27	O	0.958854	-0.340281	-0.426348
O28	O	1.458854	0.159719	0.073652
O29	O	1.182618	-0.263305	-0.553657
O30	O	1.682618	0.236695	-0.053657
O31	O	1.182429	-0.441889	-0.329914
O32	O	1.682429	0.058111	0.170086
O33	O	1.086031	-0.441862	-0.426324
O34	O	1.586031	0.058138	0.073676
C35	C	0.930390	-0.301810	-0.378149
C36	C	1.430390	0.198190	0.121851
C37	C	0.843140	-0.301821	-0.378159
C38	C	1.343140	0.198179	0.121841
C39	C	0.802151	-0.341943	-0.428269
C40	C	1.302151	0.158057	0.071731
C41	C	0.720171	-0.341944	-0.428282
C42	C	1.220171	0.158056	0.071718
C43	C	0.679181	-0.301826	-0.378179
C44	C	1.179181	0.198174	0.121821
C45	C	0.720175	-0.261699	-0.328067
C46	C	1.220175	0.238301	0.171933
C47	C	0.802154	-0.261695	-0.328059
C48	C	1.302154	0.238305	0.171941
C49	C	0.549305	-0.261711	-0.328086
C50	C	1.049305	0.238289	0.171914
C51	C	0.467320	-0.261716	-0.328092
C52	C	0.967320	0.238284	0.171908
C53	C	0.467322	-0.341961	-0.428309
C54	C	0.967322	0.158039	0.071691
C55	C	0.549301	-0.341957	-0.428301
C56	C	1.049301	0.158043	0.071699
C57	C	0.590290	-0.301830	-0.378187
C58	C	1.090290	0.198170	0.121813
C59	C	1.134234	-0.464609	-0.378127
C60	C	1.634234	0.035391	0.121873
C61	C	1.134262	-0.534251	-0.378135
C62	C	1.634262	-0.034251	0.121865
C63	C	1.184500	-0.566957	-0.327986
C64	C	1.684500	-0.066957	0.172014
C65	C	1.184537	-0.632392	-0.328004
C66	C	1.684537	-0.132392	0.171996
C67	C	1.134321	-0.665119	-0.378162
C68	C	1.634321	-0.165119	0.121838
C69	C	1.084078	-0.632404	-0.428321
C70	C	1.584078	-0.132404	0.071679
C71	C	1.084049	-0.566970	-0.428307
C72	C	1.584049	-0.066970	0.071693
C73	C	1.063641	-0.768833	-0.384313
C74	C	1.563641	-0.268833	0.115687
C75	C	1.063669	-0.834266	-0.384321
C76	C	1.563669	-0.334266	0.115679
C77	C	1.134412	-0.866940	-0.378208
C78	C	1.634412	-0.366940	0.121792
C79	C	1.205129	-0.834172	-0.372070
C80	C	1.705129	-0.334172	0.127930
C81	C	1.205099	-0.768738	-0.372057
C82	C	1.705099	-0.268738	0.127943
C83	C	1.134347	-0.736071	-0.378182
C84	C	1.634347	-0.236071	0.121818
C85	C	1.184694	-0.970599	-0.328075
C86	C	1.684694	-0.470599	0.171925
C87	C	1.184732	-1.036035	-0.328098
C88	C	1.684732	-0.536035	0.171902
C89	C	1.084267	-1.036046	-0.428411
C90	C	1.584267	-0.536046	0.071589
C91	C	1.084236	-0.970611	-0.428392
C92	C	1.584236	-0.470611	0.071608
C93	C	1.134449	-0.937891	-0.378220
C94	C	1.634449	-0.437891	0.121780
C95	C	1.339082	-0.301833	-0.378193
C96	C	1.839082	0.198167	0.121807
C97	C	1.426332	-0.301839	-0.378203
C98	C	1.926332	0.198161	0.121797
C99	C	1.134385	-0.301775	-0.582915
C100	C	1.634385	0.198225	-0.082915
C101	C	1.134405	-0.301756	-0.670165
C102	C	1.634405	0.198244	-0.170165
C103	C	1.134463	-0.138398	-0.378232
C104	C	1.634463	0.361602	0.121768
C105	C	1.134517	-0.068757	-0.378258
C106	C	1.634517	0.431243	0.121742
C107	C	1.184644	-0.261682	-0.711177
C108	C	1.684644	0.238318	-0.211177
C109	C	1.184653	-0.261661	-0.793158
C110	C	1.684653	0.238339	-0.293158
C111	C	1.134428	-0.301718	-0.834125
C112	C	1.634428	0.198282	-0.334125
C113	C	1.084184	-0.341793	-0.793107
C114	C	1.584184	0.158207	-0.293107
C115	C	1.084171	-0.341811	-0.711128
C116	C	1.584171	0.158189	-0.211128
C117	C	1.084215	-0.341756	-0.963977
C118	C	1.584215	0.158244	-0.463977
C119	C	1.084229	-0.341739	-1.045962
C120	C	1.584229	0.158261	-0.545962
C121	C	1.184698	-0.261606	-1.046007
C122	C	1.684698	0.238394	-0.546007
C123	C	1.184685	-0.261623	-0.964028
C124	C	1.684685	0.238377	-0.464028
C125	C	1.134442	-0.301700	-0.923016
C126	C	1.634442	0.198300	-0.423016
C127	C	1.134336	-0.301822	-0.174223
C128	C	1.634336	0.198178	0.325777
C129	C	1.134467	-0.301666	-0.086974
C130	C	1.634467	0.198334	0.413026
H131	H	0.582673	-0.374628	-0.469094
H132	H	1.082673	0.125372	0.030906
H133	H	0.433945	-0.374631	-0.469115
H134	H	0.933945	0.125369	0.030885
C135	C	0.594391	-0.217571	-0.272965
C136	C	1.094391	0.282429	0.227035
H137	H	0.558239	-0.193682	-0.243122
H138	H	1.058239	0.306318	0.256878
H139	H	0.626400	-0.190301	-0.303054
H140	H	1.126400	0.309699	0.196946
H141	H	0.626342	-0.241505	-0.238700
H142	H	1.126342	0.258495	0.261300
H143	H	0.433948	-0.229041	-0.287304
H144	H	0.933948	0.270959	0.212696
H145	H	0.686794	-0.229031	-0.287276
H146	H	1.186794	0.270969	0.212724
C147	C	0.847242	-0.217559	-0.272939
C148	C	1.347242	0.282441	0.227061
H149	H	0.811090	-0.193669	-0.243097
H150	H	1.311090	0.306331	0.256903
H151	H	0.879249	-0.190290	-0.303030
H152	H	1.379249	0.309710	0.196970
H153	H	0.879193	-0.241491	-0.238674
H154	H	1.379193	0.258509	0.261326
C155	C	1.028783	-0.530989	-0.483469
C156	C	1.528783	-0.030989	0.016531
H157	H	1.035960	-0.487332	-0.476279
H158	H	1.535960	0.012668	0.023721
H159	H	0.976052	-0.541758	-0.471939
H160	H	1.476052	-0.041758	0.028061
H161	H	1.040253	-0.541670	-0.536227
H162	H	1.540253	-0.041670	-0.036227
C163	C	0.847237	-0.386077	-0.483376
C164	C	1.347237	0.113923	0.016624
H165	H	0.901932	-0.380335	-0.476190
H166	H	1.401932	0.119665	0.023810
H167	H	0.833833	-0.376966	-0.536142
H168	H	1.333833	0.123034	-0.036142
H169	H	0.833768	-0.428164	-0.471782
H170	H	1.333768	0.071836	0.028218
H171	H	1.225546	-0.229065	-0.677828
H172	H	1.725546	0.270935	-0.177828
H173	H	1.225564	-0.229030	-0.826546
H174	H	1.725564	0.270970	-0.326546
C175	C	1.239997	-1.072013	-0.272931
C176	C	1.739997	-0.572013	0.227069
H177	H	1.269890	-1.043152	-0.243046
H178	H	1.769890	-0.543152	0.256954
H179	H	1.274198	-1.097495	-0.302991
H180	H	1.774198	-0.597495	0.197009
H181	H	1.209992	-1.097581	-0.238708
H182	H	1.709992	-0.597581	0.261292
C183	C	1.239740	-0.530969	-0.272808
C184	C	1.739740	-0.030969	0.227192
H185	H	1.269672	-0.559823	-0.242948
H186	H	1.769672	-0.059823	0.257052
H187	H	1.209725	-0.505482	-0.238573
H188	H	1.709725	-0.005482	0.261427
H189	H	1.273918	-0.505404	-0.302869
H190	H	1.773918	-0.005404	0.197131
C191	C	1.239932	-0.217563	-0.918965
C192	C	1.739932	0.282437	-0.418965
H193	H	1.269851	-0.193688	-0.955130
H194	H	1.769851	0.306312	-0.455130
H195	H	1.274108	-0.241540	-0.886980
H196	H	1.774108	0.258460	-0.386980
H197	H	1.209913	-0.190267	-0.886992
H198	H	1.709913	0.309733	-0.386992
C199	C	0.985820	-0.732899	-0.391044
C200	C	1.485820	-0.232899	0.108956
H201	H	0.943709	-0.761784	-0.394691
H202	H	1.443709	-0.261784	0.105309
H203	H	0.986802	-0.707346	-0.436542
H204	H	1.486802	-0.207346	0.063458
H205	H	0.978933	-0.707404	-0.346041
H206	H	1.478933	-0.207404	0.153959
H207	H	1.225606	-0.228973	-1.079403
H208	H	1.725606	0.271027	-0.579403
H209	H	1.225450	-0.659027	-0.287166
H210	H	1.725450	-0.159027	0.212834
H211	H	0.686801	-0.374617	-0.469086
H212	H	1.186801	0.125383	0.030914
H213	H	1.043286	-0.374406	-0.826469
H214	H	1.543286	0.125594	-0.326469
H215	H	1.262678	-0.742060	-0.367061
H216	H	1.762678	-0.242060	0.132939
H217	H	1.262734	-0.860773	-0.367092
H218	H	1.762734	-0.360773	0.132908
C219	C	1.239933	-0.934604	-0.272898
C220	C	1.739933	-0.434604	0.227102
H221	H	1.269869	-0.963458	-0.243041
H222	H	1.769869	-0.463458	0.256959
H223	H	1.209916	-0.909121	-0.238661
H224	H	1.709916	-0.409121	0.261339
H225	H	1.274107	-0.909036	-0.302958
H226	H	1.774107	-0.409036	0.197042
C227	C	1.029034	-1.072037	-0.483588
C228	C	1.529034	-0.572037	0.016412
H229	H	1.036244	-1.115692	-0.476413
H230	H	1.536244	-0.615692	0.023587
H231	H	1.040488	-1.061271	-0.536337
H232	H	1.540488	-0.561271	-0.036337
H233	H	0.976290	-1.061360	-0.472046
H234	H	1.476290	-0.561360	0.027954
C235	C	1.028978	-0.385797	-1.091025
C236	C	1.528978	0.114203	-0.591025
H237	H	0.999045	-0.409661	-1.054860
H238	H	1.499045	0.090339	-0.554860
H239	H	1.058987	-0.413093	-1.122999
H240	H	1.558987	0.086907	-0.622999
H241	H	0.994802	-0.361812	-1.123008
H242	H	1.494802	0.138188	-0.623008
H243	H	1.043324	-0.943979	-0.469225
H244	H	1.543324	-0.443979	0.030775
H245	H	1.006087	-0.860941	-0.389311
H246	H	1.506087	-0.360941	0.110689
C247	C	1.028841	-0.668400	-0.483492
C248	C	1.528841	-0.168400	0.016508
H249	H	1.036047	-0.712055	-0.476312
H250	H	1.536047	-0.212055	0.023688
H251	H	1.040293	-0.657639	-0.536242
H252	H	1.540293	-0.157639	-0.036242
H253	H	0.976098	-0.657720	-0.471948
H254	H	1.476098	-0.157720	0.028052
C255	C	1.028975	-0.385860	-0.918866
C256	C	1.528975	0.114140	-0.418866
H257	H	0.999077	-0.409724	-0.955004
H258	H	1.499077	0.090276	-0.455004
H259	H	0.994777	-0.361917	-0.886874
H260	H	1.494777	0.138083	-0.386874
H261	H	1.059007	-0.413163	-0.886896
H262	H	1.559007	0.086837	-0.386896
C263	C	1.028928	-0.385907	-0.666015
C264	C	1.528928	0.114093	-0.166015
H265	H	0.999027	-0.409769	-0.702154
H266	H	1.499027	0.090231	-0.202154
H267	H	0.994734	-0.361957	-0.634029
H268	H	1.494734	0.138043	-0.134029
H269	H	1.058951	-0.413213	-0.634040
H270	H	1.558951	0.086787	-0.134040
