data_functionalizedCrystal
_audit_creation_method	'MofGen! by Chris Wilmer'
_symmetry_space_group_name_H-M	'P1'
_symmetry_Int_Tables_number	1
_symmetry_cell_setting	triclinic
loop_
_symmetry_equiv_pos_as_xyz
  x,y,z
_cell_length_a	11.169417
_cell_length_b	11.169416
_cell_length_c	11.169409
_cell_angle_alpha	90.028030
_cell_angle_beta	90.021649
_cell_angle_gamma	90.011311
loop_
_atom_site_label
_atom_site_type_symbol
_atom_site_fract_x
_atom_site_fract_y
_atom_site_fract_z
Zn1	Zn	-1.834939	0.477767	-0.678637
Zn2	Zn	-1.834819	0.678507	-0.477969
Zn3	Zn	-1.634225	0.477831	-0.477965
Zn4	Zn	-1.634223	0.678400	-0.678608
O5	O	-1.734552	0.578126	-0.578295
O6	O	-2.002873	0.504414	-0.652032
O7	O	-1.808161	0.651959	-0.310019
O8	O	-1.660902	0.309873	-0.504595
O9	O	-2.002785	0.651897	-0.504602
O10	O	-1.808365	0.309826	-0.652028
O11	O	-1.660785	0.504522	-0.310016
O12	O	-1.466275	0.504419	-0.504567
O13	O	-1.660898	0.651714	-0.846561
O14	O	-1.466274	0.651776	-0.651978
O15	O	-1.808363	0.504310	-0.846583
O16	O	-1.808158	0.846443	-0.504573
O17	O	-1.660781	0.846364	-0.651982
C18	C	-1.422727	0.578094	-0.578269
C19	C	-1.289327	0.578109	-0.578287
C20	C	-1.734489	0.889951	-0.578301
C21	C	-1.734572	1.023351	-0.578344
C22	C	-1.734644	0.577993	-0.891337
C23	C	-1.734683	0.577936	-1.024737
C24	C	-1.047594	0.578148	-0.578313
C25	C	-1.180994	0.578128	-0.578300
C26	C	-1.734635	1.265084	-0.578327
C27	C	-1.734640	1.131684	-0.578373
C28	C	-1.734529	0.578172	-0.266470
C29	C	-1.734722	0.577891	-0.133070
