data_functionalizedCrystal
_audit_creation_method	'MofGen! by Chris Wilmer'
_symmetry_space_group_name_H-M	'P1'
_symmetry_Int_Tables_number	1
_symmetry_cell_setting	triclinic
loop_
_symmetry_equiv_pos_as_xyz
  x,y,z
_cell_length_a	17.640112
_cell_length_b	18.101397
_cell_length_c	17.640968
_cell_angle_alpha	78.764690
_cell_angle_beta	92.139080
_cell_angle_gamma	101.246095
loop_
_atom_site_label
_atom_site_type_symbol
_atom_site_fract_x
_atom_site_fract_y
_atom_site_fract_z
Zn1	Zn	1.247779	-0.021278	-0.195078
Zn2	Zn	1.222013	-0.174069	-0.068085
Zn3	Zn	1.095112	-0.069452	-0.093721
Zn4	Zn	1.120754	-0.164321	-0.220668
O5	O	1.171414	-0.107280	-0.144388
O6	O	1.350630	-0.025465	-0.156795
O7	O	1.183665	-0.184432	0.034789
O8	O	1.115416	0.040585	-0.107186
O9	O	1.331700	-0.137720	-0.063493
O10	O	1.227579	0.075978	-0.181653
O11	O	1.090432	-0.107570	0.015954
O12	O	0.992245	-0.098118	-0.131999
O13	O	1.159118	-0.121106	-0.323548
O14	O	1.011084	-0.167818	-0.225266
O15	O	1.252443	-0.016013	-0.304748
O16	O	1.208529	-0.276423	-0.088306
O17	O	1.134134	-0.269261	-0.200408
C18	C	0.974110	-0.137138	-0.184192
C19	C	0.889706	-0.149925	-0.201238
C20	C	0.563039	-0.010125	-0.014897
C21	C	0.483731	-0.022153	-0.030925
C22	C	0.503368	-0.094900	-0.127877
C23	C	0.582680	-0.082875	-0.111860
C24	C	0.612509	-0.040488	-0.055369
C25	C	0.632150	-0.113237	-0.152331
C26	C	0.711455	-0.101217	-0.136313
C27	C	0.741290	-0.058833	-0.079822
C28	C	0.691814	-0.028467	-0.039350
C29	C	0.602319	-0.155629	-0.208818
C30	C	0.651789	-0.185992	-0.249290
C31	C	0.731096	-0.173966	-0.233275
C32	C	0.760931	-0.131583	-0.176785
C33	C	0.780572	-0.204333	-0.273747
C34	C	0.859877	-0.192312	-0.257729
C35	C	0.840236	-0.119562	-0.160766
C36	C	1.171342	-0.299709	-0.144364
C37	C	1.171386	-0.382015	-0.144366
C38	C	1.171497	-0.681075	-0.144415
C39	C	1.218108	-0.654286	-0.073760
C40	C	1.218342	-0.568602	-0.073871
C41	C	1.171442	-0.532708	-0.144390
C42	C	1.209323	-0.542195	-0.220066
C43	C	1.209711	-0.627845	-0.219654
C44	C	1.086988	-0.666422	-0.140120
C45	C	1.087023	-0.581120	-0.138253
C46	C	1.171410	-0.448856	-0.144381
C47	C	1.171531	-0.764925	-0.144430
C48	C	1.369490	-0.077307	-0.104430
C49	C	1.453897	-0.064534	-0.087402
C50	C	1.211515	-0.062098	-0.342474
C51	C	1.228603	-0.042844	-0.426887
C52	C	1.171511	0.085907	-0.144424
C53	C	1.171552	0.168232	-0.144440
C54	C	1.041888	-0.253103	-0.753445
C55	C	1.057961	-0.234999	-0.832760
C56	C	1.155131	-0.125576	-0.813174
C57	C	1.139064	-0.143668	-0.733856
C58	C	1.082442	-0.207433	-0.703998
C59	C	1.179618	-0.097998	-0.684410
C60	C	1.163554	-0.116092	-0.605098
C61	C	1.106936	-0.179855	-0.575233
C62	C	1.066378	-0.225527	-0.624687
C63	C	1.236244	-0.034237	-0.714269
C64	C	1.276798	0.011433	-0.664822
C65	C	1.260731	-0.006657	-0.585510
C66	C	1.204113	-0.070420	-0.555645
C67	C	1.301289	0.039015	-0.536057
C68	C	1.285225	0.020921	-0.456745
C69	C	1.188049	-0.088514	-0.476333
C70	C	1.131514	-0.152227	0.052936
C71	C	1.114573	-0.171250	0.137378
H72	H	0.900157	-0.217035	-0.290685
Br73	Br	1.258050	-0.009684	-0.821906
H74	H	1.270978	-0.507870	-0.226014
H75	H	0.995762	-0.305012	-0.729137
H76	H	1.055653	-0.704137	-0.086740
Br77	Br	1.322132	-0.514181	-0.076473
Br78	Br	1.039897	-0.573847	-0.045566
Br79	Br	1.002915	-0.296987	-0.899866
Br80	Br	1.353643	0.097966	-0.705351
H81	H	0.805865	-0.049049	-0.066780
Br82	Br	0.462876	-0.152437	-0.204529
Br83	Br	1.340268	0.082897	-0.389633
H84	H	0.537744	-0.165415	-0.221858
H85	H	0.756272	-0.238851	-0.319737
Br86	Br	1.313470	-0.639631	-0.228857
Br87	Br	1.155633	-0.501606	-0.309010
Br88	Br	1.378141	0.125541	-0.576586
H89	H	1.192767	-0.563216	-0.017252
Br90	Br	0.732305	0.029068	0.037310
Br91	Br	0.880727	-0.062027	-0.084106
H92	H	1.192662	-0.690521	-0.016929
Br93	Br	1.023836	-0.541989	-0.219913
Br94	Br	1.321305	-0.670032	-0.076203
H95	H	1.178132	-0.644408	-0.273234
H96	H	0.587330	0.024404	0.031092
Br97	Br	0.611297	-0.243529	-0.325942
Br98	Br	1.111195	-0.175046	-0.435806
Br99	Br	0.416591	0.019049	0.024015
H100	H	1.052059	-0.683524	-0.191779
H101	H	1.093861	-0.194589	-0.510652
H102	H	1.020252	-0.277436	-0.600379
H103	H	1.201235	-0.073660	-0.837496
