data_functionalizedCrystal
_audit_creation_method	'MofGen! by Chris Wilmer'
_symmetry_space_group_name_H-M	'P1'
_symmetry_Int_Tables_number	1
_symmetry_cell_setting	triclinic
loop_
_symmetry_equiv_pos_as_xyz
  x,y,z
_cell_length_a	12.759401
_cell_length_b	18.101395
_cell_length_c	18.101389
_cell_angle_alpha	89.983159
_cell_angle_beta	89.982803
_cell_angle_gamma	90.032629
loop_
_atom_site_label
_atom_site_type_symbol
_atom_site_fract_x
_atom_site_fract_y
_atom_site_fract_z
Zn1	Zn	1.606108	-0.294877	-0.418706
Zn2	Zn	2.106108	0.205123	0.081294
Zn3	Zn	1.605960	-0.418703	-0.294868
Zn4	Zn	2.105960	0.081297	0.205132
Zn5	Zn	1.430418	-0.294883	-0.294883
Zn6	Zn	1.930418	0.205117	0.205117
Zn7	Zn	1.430348	-0.418685	-0.418672
Zn8	Zn	1.930348	0.081315	0.081328
O9	O	1.518208	-0.356787	-0.356782
O10	O	2.018208	0.143213	0.143218
O11	O	1.753109	-0.311308	-0.402287
O12	O	2.253109	0.188692	0.097713
O13	O	1.582641	-0.402288	-0.191237
O14	O	2.082641	0.097712	0.308763
O15	O	1.453815	-0.191249	-0.311328
O16	O	1.953815	0.308751	0.188672
O17	O	1.753001	-0.402282	-0.311303
O18	O	2.253001	0.097718	0.188697
O19	O	1.582893	-0.191245	-0.402301
O20	O	2.082893	0.308755	0.097699
O21	O	1.453671	-0.311318	-0.191248
O22	O	1.953671	0.188682	0.308752
O23	O	1.283388	-0.311300	-0.311295
O24	O	1.783388	0.188700	0.188705
O25	O	1.453696	-0.402251	-0.522309
O26	O	1.953696	0.097749	-0.022309
O27	O	1.283336	-0.402257	-0.402243
O28	O	1.783336	0.097743	0.097757
O29	O	1.582825	-0.311290	-0.522334
O30	O	2.082825	0.188710	-0.022334
O31	O	1.582574	-0.522333	-0.311270
O32	O	2.082574	-0.022333	0.188730
O33	O	1.453552	-0.522320	-0.402229
O34	O	1.953552	-0.022320	0.097771
C35	C	1.245241	-0.356778	-0.356767
C36	C	1.745241	0.143222	0.143233
C37	C	1.128464	-0.356792	-0.356779
C38	C	1.628464	0.143208	0.143221
C39	C	1.073603	-0.404225	-0.404060
C40	C	1.573603	0.095775	0.095940
C41	C	0.963879	-0.404228	-0.404075
C42	C	1.463879	0.095772	0.095925
C43	C	0.963887	-0.309362	-0.309520
C44	C	1.463887	0.190638	0.190480
C45	C	1.073609	-0.309356	-0.309509
C46	C	1.573609	0.190644	0.190491
C47	C	1.518068	-0.549198	-0.356760
C48	C	2.018068	-0.049198	0.143240
C49	C	1.518104	-0.631512	-0.356776
C50	C	2.018104	-0.131512	0.143224
C51	C	1.518334	-0.930602	-0.356816
C52	C	2.018334	-0.430602	0.143184
C53	C	1.437346	-0.899300	-0.414186
C54	C	1.937346	-0.399300	0.085814
C55	C	1.436961	-0.813682	-0.414007
C56	C	1.936961	-0.313682	0.085993
C57	C	1.518220	-0.782220	-0.356796
C58	C	2.018220	-0.282220	0.143204
C59	C	1.488245	-0.813358	-0.278748
C60	C	1.988245	-0.313358	0.221252
C61	C	1.487723	-0.899003	-0.279091
C62	C	1.987723	-0.399003	0.220909
C63	C	1.629476	-0.898948	-0.376807
C64	C	2.129476	-0.398948	0.123193
C65	C	1.628822	-0.813297	-0.378519
C66	C	2.128822	-0.313297	0.121481
C67	C	1.518157	-0.698361	-0.356781
C68	C	2.018157	-0.198361	0.143219
C69	C	1.518395	-1.014462	-0.356826
C70	C	2.018395	-0.514462	0.143174
C71	C	1.792242	-0.356797	-0.356797
C72	C	2.292242	0.143203	0.143203
C73	C	1.909018	-0.356801	-0.356804
C74	C	2.409018	0.143199	0.143196
C75	C	1.518269	-0.356768	-0.549944
C76	C	2.018269	0.143232	-0.049944
C77	C	1.518295	-0.356760	-0.632258
C78	C	2.018295	0.143240	-0.132258
C79	C	1.518378	-0.163625	-0.356820
C80	C	2.018378	0.336375	0.143180
C81	C	1.518451	-0.081311	-0.356836
C82	C	2.018451	0.418689	0.143164
C83	C	1.518356	-0.356621	-0.931349
C84	C	2.018356	0.143379	-0.431349
C85	C	1.436832	-0.413669	-0.900008
C86	C	1.936832	0.086331	-0.400008
C87	C	1.437052	-0.413934	-0.814390
C88	C	1.937052	0.086066	-0.314390
C89	C	1.518325	-0.356690	-0.782967
C90	C	2.018325	0.143310	-0.282967
C91	C	1.629017	-0.377872	-0.814063
C92	C	2.129017	0.122128	-0.314063
C93	C	1.628563	-0.378247	-0.899708
C94	C	2.128563	0.121753	-0.399708
C95	C	1.490151	-0.278264	-0.899774
C96	C	1.990151	0.221736	-0.399774
C97	C	1.487688	-0.278717	-0.814123
C98	C	1.987688	0.221283	-0.314123
C99	C	1.518314	-0.356728	-0.699107
C100	C	2.018314	0.143272	-0.199107
C101	C	1.518375	-0.356586	-1.015209
C102	C	2.018375	0.143414	-0.515209
C103	C	1.518208	-0.356752	-0.164372
C104	C	2.018208	0.143248	0.335628
C105	C	1.518386	-0.356552	-0.082058
C106	C	2.018386	0.143448	0.417942
H107	H	0.919211	-0.270743	-0.271034
H108	H	1.419211	0.229257	0.228966
H109	H	1.406479	-0.919044	-0.262156
H110	H	1.906479	-0.419044	0.237844
H111	H	1.692355	-0.791876	-0.339778
H112	H	2.192355	-0.291876	0.160222
F113	F	1.561470	-0.926072	-0.221311
F114	F	2.061470	-0.426072	0.278689
F115	F	1.132000	-0.258865	-0.259187
F116	F	1.632000	0.241135	0.240813
F117	F	1.461471	-0.786161	-0.489651
F118	F	1.961471	-0.286161	0.010349
F119	F	1.567763	-0.222709	-0.926266
F120	F	2.067763	0.277291	-0.426266
H121	H	1.689815	-0.919189	-0.335022
H122	H	2.189815	-0.419189	0.164978
F123	F	1.562919	-0.786722	-0.221351
F124	F	2.062919	-0.286722	0.278649
F125	F	1.659814	-0.453115	-0.925830
F126	F	2.159814	0.046885	-0.425830
F127	F	1.383176	-0.785408	-0.256215
F128	F	1.883176	-0.285408	0.243785
H129	H	1.455914	-0.919858	-0.472246
H130	H	1.955914	-0.419858	0.027754
H131	H	1.455268	-0.471396	-0.921534
H132	H	1.955268	0.028604	-0.421534
F133	F	1.329765	-0.396605	-0.786906
F134	F	1.829765	0.103395	-0.286906
H135	H	1.355466	-0.920885	-0.401111
H136	H	1.855466	-0.420885	0.098889
F137	F	1.710604	-0.326261	-0.926811
F138	F	2.210604	0.173739	-0.426811
H139	H	1.118263	-0.442848	-0.442552
H140	H	1.618263	0.057152	0.057448
F141	F	1.559645	-0.220212	-0.786174
F142	F	2.059645	0.279788	-0.286174
F143	F	1.660814	-0.451945	-0.786038
F144	F	2.160814	0.048055	-0.286038
H145	H	1.691391	-0.337627	-0.793711
H146	H	2.191391	0.162373	-0.293711
H147	H	1.410837	-0.258965	-0.921366
H148	H	1.910837	0.241035	-0.421366
F149	F	1.329215	-0.396519	-0.926917
F150	F	1.829215	0.103481	-0.426917
F151	F	1.461440	-0.489842	-0.787615
F152	F	1.961440	0.010158	-0.287615
H153	H	1.656805	-0.920505	-0.432750
H154	H	2.156805	-0.420505	0.067250
F155	F	1.329283	-0.786983	-0.396702
F156	F	1.829283	-0.286983	0.103298
H157	H	1.406228	-0.262743	-0.793798
H158	H	1.906228	0.237257	-0.293798
H159	H	1.651427	-0.792944	-0.435958
H160	H	2.151427	-0.292944	0.064042
F161	F	0.905497	-0.454711	-0.454400
F162	F	1.405497	0.045289	0.045600
