data_functionalizedCrystal
_audit_creation_method	'MofGen! by Chris Wilmer'
_symmetry_space_group_name_H-M	'P1'
_symmetry_Int_Tables_number	1
_symmetry_cell_setting	triclinic
loop_
_symmetry_equiv_pos_as_xyz
  x,y,z
_cell_length_a	8.597187
_cell_length_b	7.088929
_cell_length_c	8.559649
_cell_angle_alpha	84.655815
_cell_angle_beta	102.374912
_cell_angle_gamma	91.336285
loop_
_atom_site_label
_atom_site_type_symbol
_atom_site_fract_x
_atom_site_fract_y
_atom_site_fract_z
O1	O	1.998341	0.488148	-0.287625
O2	O	2.498341	0.988148	0.212375
O3	O	1.547630	0.413909	-0.298344
O4	O	2.047630	0.913909	0.201656
O5	O	1.812694	0.457567	-0.061679
O6	O	2.312694	0.957567	0.438321
O7	O	1.733277	0.444490	-0.524290
O8	O	2.233277	0.944490	-0.024290
O9	O	1.848126	0.145428	-0.029977
O10	O	2.348126	0.645428	0.470023
O11	O	1.583062	0.101770	-0.266642
O12	O	2.083062	0.601770	0.233358
O13	O	2.033773	0.176009	-0.255923
O14	O	2.533773	0.676009	0.244077
Cu15	Cu	1.811653	0.110389	-0.258388
Cu16	Cu	2.311653	0.610389	0.241612
Cu17	Cu	1.769750	0.479530	-0.295879
Cu18	Cu	2.269750	0.979530	0.204121
O19	O	1.768709	0.132351	-0.492589
O20	O	2.268709	0.632351	0.007411
C21	C	1.508179	0.248423	-0.279575
C22	C	2.008179	0.748423	0.220425
C23	C	1.337842	0.220367	-0.270862
C24	C	1.837842	0.720367	0.229138
N25	N	1.841136	-0.149243	-0.232018
N26	N	2.341136	0.350757	0.267982
C27	C	2.073223	0.341499	-0.274692
C28	C	2.573223	0.841499	0.225308
C29	C	2.243559	0.369568	-0.283407
C30	C	2.743559	0.869568	0.216593
C31	C	1.836428	0.302493	0.013505
C32	C	2.336428	0.802493	0.513505
C33	C	1.854341	0.305454	0.190299
C34	C	2.354341	0.805454	0.690299
N35	N	1.740281	0.739164	-0.322237
N36	N	2.240281	1.239164	0.177763
C37	C	1.744975	0.287430	-0.567773
C38	C	2.244975	0.787430	-0.067773
C39	C	1.727060	0.284481	-0.744568
C40	C	2.227060	0.784481	-0.244568
H41	H	1.288245	0.071175	-0.253475
H42	H	1.788245	0.571175	0.246525
H43	H	1.293159	0.518769	-0.300814
H44	H	1.793159	1.018769	0.199186
O45	O	1.564557	0.257706	0.150141
O46	O	2.064557	0.757706	0.650141
H47	H	1.474144	0.242787	0.225658
H48	H	1.974144	0.742787	0.725658
H49	H	1.635758	-0.196406	-0.415729
H50	H	2.135758	0.303594	0.084271
O51	O	1.979608	-0.234574	-0.108169
O52	O	2.479608	0.265426	0.391831
H53	H	1.977171	-0.390932	-0.110351
H54	H	2.477171	0.109068	0.389649
H55	H	1.977027	0.325647	0.269801
H56	H	2.477027	0.825647	0.769801
