data_functionalizedCrystal
_audit_creation_method	'MofGen! by Chris Wilmer'
_symmetry_space_group_name_H-M	'P1'
_symmetry_Int_Tables_number	1
_symmetry_cell_setting	triclinic
loop_
_symmetry_equiv_pos_as_xyz
  x,y,z
_cell_length_a	12.759401
_cell_length_b	12.759400
_cell_length_c	13.032268
_cell_angle_alpha	82.849813
_cell_angle_beta	82.834476
_cell_angle_gamma	90.013728
loop_
_atom_site_label
_atom_site_type_symbol
_atom_site_fract_x
_atom_site_fract_y
_atom_site_fract_z
Zn1	Zn	1.530776	-0.493686	0.590793
Zn2	Zn	1.552994	-0.647088	0.416057
Zn3	Zn	1.377400	-0.471423	0.416076
Zn4	Zn	1.355071	-0.669315	0.590755
O5	O	1.454060	-0.570378	0.503420
O6	O	1.680743	-0.514049	0.567622
O7	O	1.548344	-0.605166	0.269828
O8	O	1.397791	-0.327358	0.439277
O9	O	1.697067	-0.626753	0.439244
O10	O	1.510476	-0.343714	0.567641
O11	O	1.419336	-0.476106	0.269842
O12	O	1.227418	-0.497659	0.439239
O13	O	1.359736	-0.664637	0.736992
O14	O	1.211013	-0.643050	0.567575
O15	O	1.488825	-0.535603	0.737020
O16	O	1.526694	-0.797054	0.439207
O17	O	1.381280	-0.813385	0.567557
C18	C	1.181095	-0.570351	0.503406
C19	C	1.064316	-0.570368	0.503424
C20	C	1.000934	-0.511824	0.570374
C21	C	0.891209	-0.511844	0.570381
C22	C	0.908258	-0.628964	0.436485
C23	C	1.017981	-0.628936	0.436474
C24	C	1.047268	-0.453256	0.637325
C25	C	0.983885	-0.394707	0.704282
C26	C	0.874160	-0.394728	0.704288
C27	C	0.827818	-0.453298	0.637338
C28	C	1.454001	-0.843342	0.503399
C29	C	1.454067	-0.960122	0.503424
C30	C	1.529849	-1.006455	0.436666
C31	C	1.529909	-1.116184	0.436699
C32	C	1.378396	-1.133236	0.570249
C33	C	1.378342	-1.023510	0.570222
C34	C	1.605574	-0.943067	0.369869
C35	C	1.681361	-0.989400	0.303105
C36	C	1.681421	-1.099128	0.303137
C37	C	1.605695	-1.162524	0.369933
C38	C	1.728091	-0.570405	0.503436
C39	C	1.844867	-0.570417	0.503442
C40	C	1.419311	-0.605083	0.775982
C41	C	1.404503	-0.619872	0.892132
C42	C	1.454146	-0.296350	0.503465
C43	C	1.454182	-0.179576	0.503484
C44	C	1.488734	-0.535732	0.231919
C45	C	1.503746	-0.520647	0.115770
C46	C	1.461772	-0.562621	0.943929
C47	C	1.446469	-0.577905	1.063976
H48	H	0.822557	-0.347046	0.758800
Cl49	Cl	1.776563	-0.909707	0.219147
H50	H	1.344137	-0.680194	0.936660
H51	H	0.738475	-0.453285	0.637327
H52	H	1.069589	-0.676609	0.381957
H53	H	1.605531	-0.853720	0.369832
Cl54	Cl	0.849998	-0.702592	0.352329
H55	H	1.743137	-1.136850	0.248782
Cl56	Cl	1.353265	-0.671051	1.132711
Cl57	Cl	1.554940	-0.469448	0.875189
H58	H	1.316634	-0.985786	0.624583
Cl59	Cl	1.185206	-0.453230	0.637326
H60	H	1.605757	-1.251872	0.369962
Cl61	Cl	1.042143	-0.321072	0.788433
H62	H	1.564104	-0.460308	1.071247
Cl63	Cl	1.283201	-1.212933	0.654212
