data_functionalizedCrystal
_audit_creation_method	'MofGen! by Chris Wilmer'
_symmetry_space_group_name_H-M	'P1'
_symmetry_Int_Tables_number	1
_symmetry_cell_setting	triclinic
loop_
_symmetry_equiv_pos_as_xyz
  x,y,z
_cell_length_a	17.077404
_cell_length_b	12.594516
_cell_length_c	17.077396
_cell_angle_alpha	89.976855
_cell_angle_beta	89.980499
_cell_angle_gamma	90.016278
loop_
_atom_site_label
_atom_site_type_symbol
_atom_site_fract_x
_atom_site_fract_y
_atom_site_fract_z
Zn1	Zn	1.200092	-0.423736	-0.443872
Zn2	Zn	1.200015	-0.601736	-0.312618
Zn3	Zn	1.068824	-0.423773	-0.312620
Zn4	Zn	1.068807	-0.601673	-0.443842
O5	O	1.134434	-0.512730	-0.378238
O6	O	1.309929	-0.447359	-0.426473
O7	O	1.182586	-0.578171	-0.202771
O8	O	1.086276	-0.274822	-0.330044
O9	O	1.309872	-0.578135	-0.330041
O10	O	1.182718	-0.274795	-0.426474
O11	O	1.086201	-0.447422	-0.202773
O12	O	0.958975	-0.447361	-0.330015
O13	O	1.086248	-0.578027	-0.553693
O14	O	0.958963	-0.578064	-0.426423
O15	O	1.182702	-0.447297	-0.553715
O16	O	1.182571	-0.750674	-0.330012
O17	O	1.086173	-0.750627	-0.426421
C18	C	0.930487	-0.512710	-0.378216
C19	C	0.843237	-0.512728	-0.378226
C20	C	1.134383	-0.789271	-0.378230
C21	C	1.134433	-0.907576	-0.378253
C22	C	0.802261	-0.580887	-0.428345
C23	C	0.720280	-0.580890	-0.428357
C24	C	0.679277	-0.512737	-0.378246
C25	C	0.720259	-0.444570	-0.328125
C26	C	0.802238	-0.444563	-0.328117
C27	C	0.549389	-0.444591	-0.328144
C28	C	0.467404	-0.444599	-0.328150
C29	C	0.467431	-0.580917	-0.428384
C30	C	0.549410	-0.580910	-0.428376
C31	C	0.590386	-0.512745	-0.378253
C32	C	1.081997	-0.976843	-0.430653
C33	C	1.062873	-1.047703	-0.359026
C34	C	1.153628	-1.047515	-0.449893
C35	C	1.115271	-0.976878	-0.306587
C36	C	1.206059	-0.976684	-0.397503
C37	C	1.186963	-1.047512	-0.325826
C38	C	1.339179	-0.512750	-0.378260
C39	C	1.426428	-0.512758	-0.378269
C40	C	1.134482	-0.512651	-0.582982
C41	C	1.134502	-0.512618	-0.670232
C42	C	1.134507	-0.235109	-0.378263
C43	C	1.134539	-0.116803	-0.378273
C44	C	1.184728	-0.444541	-0.711235
C45	C	1.184737	-0.444506	-0.793216
C46	C	1.134524	-0.512553	-0.834192
C47	C	1.084293	-0.580633	-0.793183
C48	C	1.084281	-0.580662	-0.711204
C49	C	1.084325	-0.580569	-0.964053
C50	C	1.084339	-0.580541	-1.046038
C51	C	1.184782	-0.444412	-1.046065
C52	C	1.184769	-0.444442	-0.964086
C53	C	1.134538	-0.512523	-0.923083
C54	C	1.134432	-0.512731	-0.174290
C55	C	1.134564	-0.512465	-0.087041
H56	H	0.835640	-0.636389	-0.469149
H57	H	0.434065	-0.636417	-0.469198
H58	H	1.225661	-0.389037	-0.930725
H59	H	1.043410	-0.635991	-0.930671
H60	H	1.099008	-0.945978	-0.245994
Br61	Br	1.016110	-0.673049	-0.655556
H62	H	0.582793	-0.636412	-0.469177
Br63	Br	1.016142	-0.672978	-0.848792
Br64	Br	1.252955	-0.352020	-1.101710
Br65	Br	1.180616	-1.099239	-0.550856
H66	H	1.043449	-0.635949	-1.079398
Br67	Br	0.411757	-0.352113	-0.260136
Br68	Br	0.664613	-0.352066	-0.260123
H69	H	1.231351	-1.078346	-0.281470
Br70	Br	0.961991	-1.099692	-0.331890
Br71	Br	0.664673	-0.673393	-0.496381
H72	H	1.266570	-0.945468	-0.413803
H73	H	1.037575	-0.945811	-0.474902
Br74	Br	0.604999	-0.352077	-0.260121
H75	H	0.835599	-0.389055	-0.287309
Br76	Br	1.252883	-0.352194	-0.655633
Br77	Br	1.252940	-0.352161	-0.848860
