data_functionalizedCrystal
_audit_creation_method	'MofGen! by Chris Wilmer'
_symmetry_space_group_name_H-M	'P1'
_symmetry_Int_Tables_number	1
_symmetry_cell_setting	triclinic
loop_
_symmetry_equiv_pos_as_xyz
  x,y,z
_cell_length_a	16.109302
_cell_length_b	27.732048
_cell_length_c	26.210047
_cell_angle_alpha	89.990375
_cell_angle_beta	89.981622
_cell_angle_gamma	83.052218
loop_
_atom_site_label
_atom_site_type_symbol
_atom_site_fract_x
_atom_site_fract_y
_atom_site_fract_z
O1	O	1.102377	0.062131	-0.042458
O2	O	0.860219	0.069863	-0.042454
O3	O	0.988819	-0.004368	-0.042446
O4	O	0.973777	0.136362	-0.042465
O5	O	0.988779	-0.004368	0.042412
O6	O	0.860179	0.069863	0.042404
O7	O	1.102337	0.062131	0.042401
Cu8	Cu	0.981254	0.065997	0.050150
Cu9	Cu	0.981302	0.065997	-0.050204
O10	O	0.973737	0.136362	0.042393
C11	C	0.829228	0.069550	-0.000025
C12	C	0.736944	0.068610	-0.000023
C13	C	0.524609	0.066439	0.046228
C14	C	0.437899	0.065551	0.046227
C15	C	0.437954	0.065554	-0.046290
C16	C	0.524662	0.066438	-0.046288
C17	C	0.567987	0.066883	-0.000027
C18	C	0.394569	0.065111	-0.000031
C19	C	0.300555	0.064149	-0.000033
C20	C	0.662007	0.067844	-0.000025
C21	C	0.988483	-0.022376	-0.000016
C22	C	0.987532	-0.076035	-0.000012
C23	C	1.057541	-0.414557	-0.000039
C24	C	1.054013	-0.616232	-0.000046
O25	O	1.118031	-0.647219	-0.000069
N26	N	0.977759	-0.635675	-0.000044
C27	C	0.902381	-0.604696	-0.000044
O28	O	0.837441	-0.625861	-0.000048
C29	C	0.905910	-0.403022	-0.000041
C30	C	0.982169	-0.383582	-0.000037
C31	C	1.133794	-0.395117	-0.000036
C32	C	1.134675	-0.344701	-0.000031
C33	C	1.059303	-0.313726	-0.000030
C34	C	0.983050	-0.333167	-0.000033
C35	C	0.830533	-0.372044	-0.000045
C36	C	0.831422	-0.321623	-0.000045
C37	C	0.907681	-0.302183	-0.000041
C38	C	0.908559	-0.251776	-0.000027
N39	N	0.984813	-0.232333	-0.000028
C40	C	1.060185	-0.263308	-0.000030
C41	C	0.900534	-0.710577	-0.000045
C42	C	0.899652	-0.760996	-0.000045
C43	C	1.051284	-0.772528	-0.000047
C44	C	1.052165	-0.722109	-0.000044
C45	C	0.976788	-0.691134	-0.000047
C46	C	1.062030	-0.157431	-0.000020
C47	C	1.062904	-0.107010	-0.000013
C48	C	0.911272	-0.095482	-0.000013
C49	C	0.910397	-0.145898	-0.000017
C50	C	0.985783	-0.176872	-0.000022
O51	O	0.844576	-0.220760	-0.000009
O52	O	1.125116	-0.242134	-0.000037
C53	C	1.056660	-0.464973	-0.000043
C54	C	0.980407	-0.484413	-0.000046
C55	C	0.905035	-0.453438	-0.000045
C56	C	0.979524	-0.534832	-0.000046
C57	C	1.054896	-0.565807	-0.000048
C58	C	1.131151	-0.546364	-0.000049
C59	C	1.132032	-0.495948	-0.000045
C60	C	0.828780	-0.472881	-0.000043
C61	C	0.827905	-0.523298	-0.000047
C62	C	0.903277	-0.554273	-0.000049
C63	C	1.133328	0.062444	-0.000030
C64	C	1.225611	0.063384	-0.000035
C65	C	0.974073	0.154370	-0.000039
C66	C	0.975024	0.208029	-0.000047
N67	N	0.981227	0.065996	0.120734
N68	N	0.981336	0.065994	-0.120788
C69	C	1.031338	0.095317	0.473243
C70	C	1.031363	0.095317	0.686902
O71	O	1.073951	0.120241	0.714520
N72	N	0.981321	0.065992	0.713628
C73	C	0.931274	0.036663	0.686936
O74	O	0.888718	0.011717	0.714571
C75	C	0.931255	0.036661	0.473279
C76	C	0.981293	0.065992	0.446555
C77	C	1.081373	0.124645	0.446520
C78	C	1.081363	0.124647	0.393109
C79	C	1.031318	0.095321	0.366421
C80	C	0.981283	0.065993	0.393144
C81	C	0.881213	0.007330	0.446588
C82	C	0.881214	0.007331	0.393170
C83	C	0.931252	0.036661	0.366447
C84	C	0.931228	0.036669	0.313045
N85	N	0.981269	0.065994	0.286318
C86	C	1.031315	0.095320	0.313006
C87	C	0.931287	0.036667	0.799110
C88	C	0.931291	0.036668	0.852524
C89	C	1.031381	0.095321	0.852486
C90	C	1.031372	0.095322	0.799071
C91	C	0.981328	0.065992	0.772384
C92	C	1.031289	0.095322	0.200839
C93	C	1.031272	0.095322	0.147422
C94	C	0.931186	0.036667	0.147465
C95	C	0.931199	0.036668	0.200877
C96	C	0.981257	0.065997	0.227562
O97	O	0.888670	0.011754	0.285394
O98	O	1.073878	0.120254	0.285362
C99	C	1.031348	0.095316	0.526655
C100	C	0.981313	0.065988	0.553378
C101	C	0.931268	0.036662	0.526690
C102	C	0.981317	0.065989	0.606793
C103	C	1.031362	0.095315	0.633481
C104	C	1.081404	0.124640	0.606754
C105	C	1.081394	0.124641	0.553343
C106	C	0.881227	0.007337	0.553417
C107	C	0.881240	0.007338	0.606828
C108	C	0.931285	0.036664	0.633516
H109	H	0.402585	0.065190	0.083893
H110	H	0.559881	0.066801	0.083897
Br111	Br	0.863279	-0.003132	0.237145
Br112	Br	1.149317	0.164442	0.642984
H113	H	0.840462	-0.016555	0.371444
H114	H	1.125006	-0.091186	-0.000009
H115	H	0.402668	0.065192	-0.083954
H116	H	0.559982	0.066798	-0.083957
Br117	Br	1.155663	-0.695732	-0.000038
H118	H	0.840485	-0.016545	0.628582
Br119	Br	1.164340	-0.199459	-0.000027
H120	H	1.196773	-0.328878	-0.000030
Br121	Br	0.727031	-0.398414	-0.000052
Br122	Br	1.099300	0.135120	0.888715
Br123	Br	1.149260	0.164464	0.356849
Br124	Br	1.236099	-0.437146	-0.000038
H125	H	1.112655	-0.797757	-0.000048
H126	H	0.890534	0.012790	0.874278
H127	H	0.849907	-0.070253	-0.000010
H128	H	0.890438	0.012792	0.125726
Br129	Br	0.796153	-0.787372	-0.000038
H130	H	0.890533	0.012781	0.777386
H131	H	0.839149	-0.685362	-0.000047
Br132	Br	0.729118	-0.279589	-0.000051
Br133	Br	1.149302	0.164450	0.482729
H134	H	0.848301	-0.161727	-0.000006
Br135	Br	1.233440	-0.588411	-0.000047
H136	H	0.840475	-0.016545	0.531693
Br137	Br	0.724401	-0.549673	-0.000048
H138	H	1.122140	0.148525	0.531589
H139	H	1.072052	0.119204	0.222559
H140	H	0.767402	-0.447666	-0.000043
Br141	Br	1.099177	0.135135	0.111158
H142	H	1.072117	0.119206	0.777316
Br143	Br	0.813297	-0.032477	0.482842
H144	H	1.194130	-0.480125	-0.000042
