data_functionalizedCrystal
_audit_creation_method	'MofGen! by Chris Wilmer'
_symmetry_space_group_name_H-M	'P1'
_symmetry_Int_Tables_number	1
_symmetry_cell_setting	triclinic
loop_
_symmetry_equiv_pos_as_xyz
  x,y,z
_cell_length_a	17.699083
_cell_length_b	14.853559
_cell_length_c	16.176319
_cell_angle_alpha	89.995393
_cell_angle_beta	89.998611
_cell_angle_gamma	83.457234
loop_
_atom_site_label
_atom_site_type_symbol
_atom_site_fract_x
_atom_site_fract_y
_atom_site_fract_z
O1	O	1.004372	0.114009	-0.068627
O2	O	0.784031	0.128842	-0.068653
O3	O	0.900091	-0.009827	-0.068638
O4	O	0.888313	0.252677	-0.068641
O5	O	0.900075	-0.009836	0.068855
O6	O	0.784015	0.128833	0.068840
O7	O	1.004356	0.114000	0.068867
Cu8	Cu	0.894184	0.121416	0.081407
Cu9	Cu	0.894203	0.121426	-0.081194
O10	O	0.888297	0.252668	0.068852
C11	C	0.755825	0.128306	0.000090
C12	C	0.671803	0.126711	0.000080
C13	C	0.623391	0.208107	0.000079
C14	C	0.544444	0.206603	0.000090
C15	C	0.513910	0.123703	0.000095
C16	C	0.562328	0.042301	0.000098
C17	C	0.641274	0.043806	0.000094
C18	C	0.243949	0.036232	0.000119
C19	C	0.164998	0.034734	0.000121
C20	C	0.147120	0.199029	0.000115
C21	C	0.226065	0.200534	0.000110
C22	C	0.274476	0.119133	0.000118
C23	C	0.360080	0.120764	0.000108
C24	C	0.428308	0.122071	0.000099
C25	C	0.899550	-0.043418	0.000107
C26	C	0.897954	-0.143496	0.000102
C27	C	0.891193	-0.566642	-0.074847
C28	C	0.891176	-0.566646	0.075054
C29	C	0.892681	-0.472618	0.075055
C30	C	0.893442	-0.425598	0.000104
C31	C	0.892697	-0.472605	-0.074848
C32	C	0.893419	-0.425603	0.150005
C33	C	0.894924	-0.331569	0.150009
C34	C	0.895690	-0.284548	0.075057
C35	C	0.894945	-0.331561	0.000102
C36	C	0.895706	-0.284540	-0.074849
C37	C	0.894967	-0.331553	-0.149804
C38	C	0.893463	-0.425583	-0.149800
C39	C	0.897194	-0.190517	0.075053
C40	C	0.897209	-0.190503	-0.074850
C41	C	1.032562	0.114536	0.000122
C42	C	1.116584	0.116130	0.000126
C43	C	0.888837	0.286260	0.000105
C44	C	0.890433	0.386338	0.000104
N45	N	0.894176	0.121408	0.195773
N46	N	0.894217	0.121427	-0.195559
C47	C	0.945583	0.060030	0.239043
C48	C	0.945587	0.060029	0.325591
C49	C	0.894187	0.121411	0.368865
C50	C	0.842775	0.182791	0.325588
C51	C	0.842768	0.182787	0.239043
C52	C	0.842801	0.182808	0.674617
C53	C	0.842813	0.182809	0.761168
C54	C	0.945619	0.060050	0.761164
C55	C	0.945613	0.060046	0.674619
C56	C	0.894198	0.121423	0.631350
C57	C	0.894194	0.121422	0.537505
C58	C	0.894195	0.121417	0.462708
H59	H	0.250921	0.268039	0.000102
C60	C	1.002170	-0.007474	0.808768
N61	N	1.044764	-0.058331	0.844622
H62	H	0.537461	-0.025197	0.000115
H63	H	0.890552	-0.604935	0.136075
H64	H	0.890595	-0.604924	-0.135874
C65	C	0.898006	-0.138808	0.157499
N66	N	0.898621	-0.099862	0.219602
C67	C	0.892570	-0.477329	0.232445
N68	N	0.891928	-0.516293	0.294542
H69	H	0.897832	-0.152227	-0.135885
C70	C	0.786262	0.250331	0.808769
N71	N	0.743669	0.301185	0.844622
C72	C	0.895742	-0.279865	0.232461
N73	N	0.896361	-0.240921	0.294565
H74	H	0.800939	0.232784	0.639394
H75	H	0.107693	0.265310	0.000113
C76	C	0.297192	-0.053312	0.000122
N77	N	0.337297	-0.120761	0.000123
H78	H	0.987441	0.010050	0.203815
C79	C	0.786228	0.250303	0.373194
N80	N	0.743635	0.301154	0.409049
C81	C	1.002120	-0.007512	0.373184
N82	N	1.044696	-0.058396	0.409032
C83	C	0.131413	-0.056467	0.000137
N84	N	0.106117	-0.125155	0.000151
C85	C	0.892642	-0.477302	-0.232244
N86	N	0.892020	-0.516260	-0.294340
H87	H	0.680691	-0.022475	0.000094
C88	C	0.786223	0.250314	0.191446
N89	N	0.743632	0.301178	0.155596
H90	H	0.987469	0.010067	0.639387
C91	C	0.895805	-0.279818	-0.232248
N92	N	0.896439	-0.240848	-0.294342
H93	H	0.648245	0.275613	0.000074
H94	H	0.505030	0.272883	0.000088
