data_functionalizedCrystal
_audit_creation_method	'MofGen! by Chris Wilmer'
_symmetry_space_group_name_H-M	'P1'
_symmetry_Int_Tables_number	1
_symmetry_cell_setting	triclinic
loop_
_symmetry_equiv_pos_as_xyz
  x,y,z
_cell_length_a	19.805407
_cell_length_b	19.805405
_cell_length_c	19.805398
_cell_angle_alpha	89.972361
_cell_angle_beta	89.986043
_cell_angle_gamma	90.028666
loop_
_atom_site_label
_atom_site_type_symbol
_atom_site_fract_x
_atom_site_fract_y
_atom_site_fract_z
Zn1	Zn	1.034691	-0.269437	-0.382739
Zn2	Zn	1.034618	-0.382627	-0.269553
Zn3	Zn	0.921519	-0.269462	-0.269562
Zn4	Zn	0.921469	-0.382593	-0.382698
O5	O	0.978074	-0.326030	-0.326138
O6	O	1.129398	-0.284456	-0.367738
O7	O	1.019605	-0.367640	-0.174838
O8	O	0.936583	-0.174742	-0.284597
O9	O	1.129344	-0.367616	-0.284581
O10	O	1.019730	-0.174724	-0.367747
O11	O	0.936512	-0.284498	-0.174844
O12	O	0.826795	-0.284465	-0.284557
O13	O	0.936498	-0.367558	-0.477420
O14	O	0.826759	-0.367582	-0.367677
O15	O	1.019682	-0.284423	-0.477450
O16	O	1.019557	-0.477339	-0.284541
O17	O	0.936427	-0.477314	-0.367668
C18	C	0.802218	-0.326023	-0.326114
C19	C	0.726986	-0.326036	-0.326119
C20	C	0.265226	-0.282809	-0.369531
C21	C	0.335915	-0.282810	-0.369526
C22	C	0.371224	-0.326040	-0.326160
C23	C	0.335842	-0.369276	-0.282801
C24	C	0.265155	-0.369278	-0.282810
C25	C	0.620915	-0.369271	-0.282765
C26	C	0.691607	-0.369265	-0.282758
C27	C	0.691675	-0.282803	-0.369481
C28	C	0.620988	-0.282805	-0.369490
C29	C	0.585612	-0.326043	-0.326134
C30	C	0.508963	-0.326043	-0.326141
C31	C	0.447871	-0.326038	-0.326149
C32	C	0.977997	-0.501886	-0.326114
C33	C	0.978026	-0.577118	-0.326126
C34	C	1.021295	-0.612394	-0.369456
C35	C	1.021320	-0.683083	-0.369469
C36	C	0.978078	-0.718493	-0.326147
C37	C	0.934804	-0.683212	-0.282815
C38	C	0.934776	-0.612525	-0.282806
C39	C	0.934912	-0.968285	-0.282849
C40	C	0.934944	-1.038977	-0.282860
C41	C	1.021456	-1.038843	-0.369512
C42	C	1.021428	-0.968156	-0.369504
C43	C	0.978152	-0.932881	-0.326174
C44	C	0.978125	-0.856232	-0.326162
C45	C	0.978107	-0.795140	-0.326155
C46	C	1.154617	-0.326037	-0.326163
C47	C	1.229849	-0.326040	-0.326174
C48	C	0.978092	-0.325984	-0.502681
C49	C	0.978100	-0.325964	-0.577913
C50	C	0.978170	-0.149487	-0.326178
C51	C	0.978211	-0.074255	-0.326194
C52	C	1.021474	-0.369149	-1.039698
C53	C	1.021455	-0.369168	-0.969010
C54	C	0.978184	-0.325888	-0.933675
C55	C	0.934924	-0.282592	-0.969032
C56	C	0.934940	-0.282578	-1.039719
C57	C	0.934859	-0.282650	-0.683959
C58	C	0.934848	-0.282667	-0.613267
C59	C	1.021374	-0.369240	-0.613249
C60	C	1.021389	-0.369225	-0.683936
C61	C	0.978127	-0.325933	-0.719287
C62	C	0.978147	-0.325914	-0.795936
C63	C	0.978167	-0.325903	-0.857028
C64	C	0.978095	-0.326027	-0.150282
C65	C	0.978218	-0.325855	-0.075051
H66	H	0.592120	-0.404477	-0.247460
C67	C	0.887328	-0.234985	-0.930166
H68	H	0.893518	-0.241188	-0.883004
H69	H	0.841848	-0.244884	-0.941745
H70	H	0.897267	-0.189504	-0.941765
H71	H	0.236483	-0.247602	-0.404840
C72	C	0.582151	-0.235255	-0.417194
H73	H	0.613346	-0.209512	-0.443021
H74	H	0.554578	-0.205731	-0.391362
H75	H	0.554578	-0.261193	-0.446644
C76	C	1.068985	-0.416834	-0.722801
H77	H	1.094740	-0.442627	-0.691622
H78	H	1.098497	-0.390941	-0.750386
H79	H	1.043076	-0.446320	-0.750365
C80	C	1.069034	-0.416790	-0.930122
H81	H	1.062822	-0.410608	-0.882963
H82	H	1.114519	-0.406884	-0.941708
H83	H	1.059102	-0.462266	-0.941697
H84	H	0.364716	-0.247609	-0.404834
H85	H	1.056713	-0.404389	-1.068463
H86	H	0.720487	-0.247599	-0.404786
C87	C	1.068956	-0.416870	-0.574364
H88	H	1.094733	-0.442638	-0.605533
H89	H	1.043044	-0.446368	-0.546782
H90	H	1.098458	-0.390983	-0.546797
H91	H	0.899593	-0.712049	-0.247544
H92	H	0.899609	-0.247421	-0.584499
C93	C	0.730446	-0.416826	-0.235061
H94	H	0.699254	-0.442584	-0.209246
H95	H	0.758024	-0.390900	-0.205609
H96	H	0.758016	-0.446347	-0.260908
C97	C	0.374680	-0.416827	-0.235098
H98	H	0.421846	-0.410630	-0.241297
H99	H	0.363080	-0.462318	-0.244923
H100	H	0.363081	-0.406857	-0.189638
H101	H	0.236351	-0.404483	-0.247505
H102	H	0.899631	-0.247400	-0.712733
H103	H	0.899541	-0.583803	-0.247523
H104	H	0.899718	-0.247323	-1.068502
H105	H	1.056511	-0.583568	-0.404731
H106	H	1.056559	-0.711802	-0.404748
H107	H	0.899729	-1.067807	-0.247581
H108	H	1.056642	-0.939327	-0.404778
C109	C	1.069053	-1.077648	-0.417181
H110	H	1.062873	-1.124818	-0.410990
H111	H	1.114532	-1.066029	-0.407316
H112	H	1.059107	-1.066041	-0.462649
H113	H	0.899677	-0.939569	-0.247568
