data_functionalizedCrystal
_audit_creation_method	'MofGen! by Chris Wilmer'
_symmetry_space_group_name_H-M	'P1'
_symmetry_Int_Tables_number	1
_symmetry_cell_setting	triclinic
loop_
_symmetry_equiv_pos_as_xyz
  x,y,z
_cell_length_a	18.215407
_cell_length_b	18.101395
_cell_length_c	18.215399
_cell_angle_alpha	89.973573
_cell_angle_beta	89.980167
_cell_angle_gamma	90.031552
loop_
_atom_site_label
_atom_site_type_symbol
_atom_site_fract_x
_atom_site_fract_y
_atom_site_fract_z
Zn1	Zn	1.125040	-0.294828	-0.416124
Zn2	Zn	1.458373	0.038505	-0.082790
Zn3	Zn	1.791707	0.371838	0.250543
Zn4	Zn	1.124935	-0.418675	-0.293061
Zn5	Zn	1.458269	-0.085341	0.040273
Zn6	Zn	1.791602	0.247992	0.373606
Zn7	Zn	1.001973	-0.294853	-0.293071
Zn8	Zn	1.335306	0.038481	0.040262
Zn9	Zn	1.668639	0.371814	0.373596
Zn10	Zn	1.001925	-0.418634	-0.416086
Zn11	Zn	1.335259	-0.085300	-0.082752
Zn12	Zn	1.668592	0.248033	0.250581
O13	O	1.063468	-0.356747	-0.354585
O14	O	1.396802	-0.023414	-0.021252
O15	O	1.730135	0.309919	0.312081
O16	O	1.228010	-0.311264	-0.399811
O17	O	1.561344	0.022069	-0.066477
O18	O	1.894677	0.355403	0.266856
O19	O	1.108600	-0.402277	-0.190078
O20	O	1.441933	-0.068944	0.143256
O21	O	1.775267	0.264390	0.476589
O22	O	1.018362	-0.191216	-0.309415
O23	O	1.351695	0.142117	0.023919
O24	O	1.685028	0.475450	0.357252
O25	O	1.227933	-0.402253	-0.309397
O26	O	1.561267	-0.068920	0.023937
O27	O	1.894600	0.264413	0.357270
O28	O	1.108779	-0.191199	-0.399821
O29	O	1.442112	0.142135	-0.066487
O30	O	1.775445	0.475468	0.266846
O31	O	1.018260	-0.311305	-0.190085
O32	O	1.351593	0.022028	0.143248
O33	O	1.684927	0.355361	0.476581
O34	O	0.898982	-0.311265	-0.309378
O35	O	1.232316	0.022068	0.023956
O36	O	1.565649	0.355401	0.357289
O37	O	1.018281	-0.402183	-0.519075
O38	O	1.351614	-0.068850	-0.185742
O39	O	1.684947	0.264484	0.147592
O40	O	0.898947	-0.402207	-0.399756
O41	O	1.232281	-0.068873	-0.066422
O42	O	1.565614	0.264460	0.266911
O43	O	1.108733	-0.311224	-0.519103
O44	O	1.442066	0.022109	-0.185770
O45	O	1.775399	0.355443	0.147564
O46	O	1.108554	-0.522302	-0.309360
O47	O	1.441887	-0.188969	0.023974
O48	O	1.775221	0.144364	0.357307
O49	O	1.018179	-0.522272	-0.399746
O50	O	1.351512	-0.188939	-0.066412
O51	O	1.684846	0.144395	0.266921
C52	C	0.872262	-0.356735	-0.354564
C53	C	1.205595	-0.023401	-0.021231
C54	C	1.538929	0.309932	0.312103
C55	C	0.790463	-0.356747	-0.354572
C56	C	1.123797	-0.023414	-0.021239
C57	C	1.457130	0.309920	0.312094
C58	C	0.602270	-0.404175	-0.401573
C59	C	0.935604	-0.070841	-0.068240
C60	C	1.268937	0.262492	0.265093
C61	C	0.525412	-0.404177	-0.401583
C62	C	0.858745	-0.070844	-0.068249
C63	C	1.192078	0.262490	0.265084
C64	C	0.525418	-0.309333	-0.307613
C65	C	0.858752	0.024000	0.025720
C66	C	1.192085	0.357333	0.359054
C67	C	0.602276	-0.309328	-0.307608
C68	C	0.935609	0.024005	0.025725
C69	C	1.268942	0.357339	0.359059
C70	C	0.640700	-0.356753	-0.354587
C71	C	0.974033	-0.023419	-0.021254
C72	C	1.307366	0.309914	0.312079
C73	C	0.486984	-0.356761	-0.354601
C74	C	0.820317	-0.023427	-0.021268
C75	C	1.153650	0.309906	0.312065
C76	C	0.403650	-0.356763	-0.354611
C77	C	0.736983	-0.023429	-0.021278
C78	C	1.070317	0.309904	0.312056
C79	C	0.724039	-0.356750	-0.354579
C80	C	1.057372	-0.023416	-0.021245
C81	C	1.390705	0.309917	0.312088
C82	C	1.063370	-0.549158	-0.354564
C83	C	1.396703	-0.215825	-0.021230
C84	C	1.730037	0.117509	0.312103
C85	C	1.063395	-0.631472	-0.354579
C86	C	1.396728	-0.298139	-0.021246
C87	C	1.730062	0.035195	0.312088
C88	C	1.063557	-0.930563	-0.354619
C89	C	1.396890	-0.597230	-0.021285
C90	C	1.730223	-0.263896	0.312048
C91	C	1.006827	-0.899249	-0.411628
C92	C	1.340160	-0.565916	-0.078295
C93	C	1.673494	-0.232583	0.255039
C94	C	1.006557	-0.813632	-0.411450
C95	C	1.339891	-0.480298	-0.078116
C96	C	1.673224	-0.146965	0.255217
C97	C	1.063476	-0.782180	-0.354600
C98	C	1.396810	-0.448847	-0.021266
C99	C	1.730143	-0.115514	0.312067
C100	C	1.042479	-0.813331	-0.277038
C101	C	1.375812	-0.479997	0.056295
C102	C	1.709145	-0.146664	0.389628
C103	C	1.042113	-0.898976	-0.277380
C104	C	1.375446	-0.565643	0.055954
C105	C	1.708780	-0.232309	0.389287
C106	C	1.141408	-0.898906	-0.374487
C107	C	1.474741	-0.565573	-0.041154
C108	C	1.808075	-0.232240	0.292179
C109	C	1.140950	-0.813255	-0.376188
C110	C	1.474284	-0.479922	-0.042855
C111	C	1.807617	-0.146589	0.290478
C112	C	1.063432	-0.698321	-0.354584
C113	C	1.396766	-0.364988	-0.021251
C114	C	1.730099	-0.031654	0.312083
C115	C	1.063599	-1.014422	-0.354629
C116	C	1.396932	-0.681089	-0.021296
C117	C	1.730265	-0.347756	0.312038
C118	C	1.255421	-0.356761	-0.354607
C119	C	1.588755	-0.023427	-0.021273
C120	C	1.922088	0.309906	0.312060
C121	C	1.337220	-0.356766	-0.354616
C122	C	1.670553	-0.023433	-0.021283
C123	C	2.003887	0.309900	0.312051
C124	C	1.063513	-0.356696	-0.546538
C125	C	1.396847	-0.023363	-0.213205
C126	C	1.730180	0.309970	0.120128
C127	C	1.063532	-0.356675	-0.628337
C128	C	1.396866	-0.023341	-0.295004
C129	C	1.730199	0.309992	0.038330
C130	C	1.063587	-0.163585	-0.354623
C131	C	1.396921	0.169748	-0.021290
C132	C	1.730254	0.503081	0.312044
C133	C	1.063638	-0.081271	-0.354639
C134	C	1.396971	0.252062	-0.021306
C135	C	1.730305	0.585395	0.312028
C136	C	1.110648	-0.309268	-0.816547
C137	C	1.443981	0.024066	-0.483214
C138	C	1.777314	0.357399	-0.149880
C139	C	1.110656	-0.309246	-0.893406
C140	C	1.443990	0.024087	-0.560072
C141	C	1.777323	0.357420	-0.226739
C142	C	1.016469	-0.403967	-0.893365
C143	C	1.349802	-0.070633	-0.560032
C144	C	1.683136	0.262700	-0.226699
C145	C	1.016457	-0.403984	-0.816508
C146	C	1.349790	-0.070651	-0.483175
C147	C	1.683124	0.262683	-0.149841
C148	C	1.063551	-0.356636	-0.778101
C149	C	1.396884	-0.023302	-0.444767
C150	C	1.730217	0.310031	-0.111434
C151	C	1.063571	-0.356597	-0.931817
C152	C	1.396905	-0.023263	-0.598484
C153	C	1.730238	0.310070	-0.265150
C154	C	1.063580	-0.356574	-1.015151
C155	C	1.396914	-0.023240	-0.681817
C156	C	1.730247	0.310093	-0.348484
C157	C	1.063541	-0.356657	-0.694762
C158	C	1.396874	-0.023324	-0.361428
C159	C	1.730207	0.310009	-0.028095
C160	C	1.063466	-0.356745	-0.163379
C161	C	1.396799	-0.023411	0.169954
C162	C	1.730133	0.309922	0.503288
C163	C	1.063590	-0.356558	-0.081580
C164	C	1.396923	-0.023225	0.251753
C165	C	1.730256	0.310109	0.585086
H166	H	0.633553	-0.442789	-0.439829
H167	H	0.966886	-0.109456	-0.106495
H168	H	1.300220	0.223877	0.226838
H169	H	1.148992	-0.270712	-0.785278
H170	H	1.482325	0.062622	-0.451945
H171	H	1.815659	0.395955	-0.118611
H172	H	1.185453	-0.791842	-0.337692
H173	H	1.518786	-0.458508	-0.004359
H174	H	1.852119	-0.125175	0.328975
H175	H	0.494126	-0.442792	-0.439845
H176	H	0.827459	-0.109458	-0.106511
H177	H	1.160792	0.223875	0.226822
H178	H	0.494124	-0.270723	-0.269363
H179	H	0.827457	0.062610	0.063970
H180	H	1.160791	0.395944	0.397303
H181	H	0.978100	-0.442556	-0.785204
H182	H	1.311433	-0.109223	-0.451871
H183	H	1.644766	0.224111	-0.118537
H184	H	0.948852	-0.793209	-0.398289
H185	H	1.282185	-0.459875	-0.064955
H186	H	1.615519	-0.126542	0.268378
H187	H	0.633566	-0.270707	-0.269346
H188	H	0.966899	0.062627	0.063987
H189	H	1.300232	0.395960	0.397320
H190	H	0.986172	-0.791946	-0.259906
H191	H	1.319505	-0.458613	0.073427
H192	H	1.652839	-0.125279	0.406761
H193	H	1.019695	-0.792568	-0.468960
H194	H	1.353028	-0.459235	-0.135627
H195	H	1.686361	-0.125902	0.197706
N196	N	0.966732	-0.925527	-0.255084
N197	N	1.300065	-0.592194	0.078249
N198	N	1.633398	-0.258860	0.411582
H199	H	0.929080	-0.906282	-0.291000
H200	H	1.262413	-0.572948	0.042334
H201	H	1.595747	-0.239615	0.375667
H202	H	0.965805	-0.981314	-0.255074
H203	H	1.299138	-0.647981	0.078260
H204	H	1.632471	-0.314647	0.411593
H205	H	1.019834	-0.919798	-0.469325
H206	H	1.353167	-0.586465	-0.135992
H207	H	1.686501	-0.253131	0.197342
N208	N	1.161947	-0.786275	-0.451789
N209	N	1.495281	-0.452941	-0.118455
N210	N	1.828614	-0.119608	0.214878
H211	H	1.169587	-0.829991	-0.485363
H212	H	1.502920	-0.496658	-0.152030
H213	H	1.836253	-0.163324	0.181303
H214	H	1.121429	-0.754044	-0.471918
H215	H	1.454763	-0.420710	-0.138584
H216	H	1.788096	-0.087377	0.194749
N217	N	1.197398	-0.925723	-0.319490
N218	N	1.530731	-0.592389	0.013843
N219	N	1.864064	-0.259056	0.347177
H220	H	1.172496	-0.958218	-0.281883
H221	H	1.505830	-0.624884	0.051450
H222	H	1.839163	-0.291551	0.384783
H223	H	1.236657	-0.954941	-0.345731
H224	H	1.569990	-0.621607	-0.012398
H225	H	1.903323	-0.288274	0.320935
H226	H	1.160552	-0.920455	-0.430081
H227	H	1.493885	-0.587122	-0.096748
H228	H	1.827219	-0.253788	0.236586
N229	N	1.161452	-0.258148	-0.934865
N230	N	1.494785	0.075186	-0.601532
N231	N	1.828118	0.408519	-0.268198
H232	H	1.214026	-0.269653	-0.921499
H233	H	1.547359	0.063680	-0.588165
H234	H	1.880692	0.397014	-0.254832
H235	H	1.154253	-0.265334	-0.989370
H236	H	1.487587	0.067999	-0.656036
H237	H	1.820920	0.401332	-0.322703
N238	N	0.930851	-0.927837	-0.394420
N239	N	1.264185	-0.594504	-0.061087
N240	N	1.597518	-0.261171	0.272246
H241	H	0.933020	-0.960984	-0.349857
H242	H	1.266354	-0.627651	-0.016523
H243	H	1.599687	-0.294317	0.316810
H244	H	0.897066	-0.884831	-0.384198
H245	H	1.230399	-0.551498	-0.050865
H246	H	1.563732	-0.218164	0.282469
N247	N	1.094465	-0.926425	-0.219197
N248	N	1.427798	-0.593092	0.114137
N249	N	1.761131	-0.259758	0.447470
H250	H	1.117675	-0.882887	-0.193439
H251	H	1.451008	-0.549554	0.139895
H252	H	1.784342	-0.216221	0.473228
H253	H	1.066698	-0.957409	-0.182347
H254	H	1.400032	-0.624075	0.150986
H255	H	1.733365	-0.290742	0.484320
H256	H	0.978129	-0.442518	-0.924646
H257	H	1.311462	-0.109184	-0.591312
H258	H	1.644796	0.224149	-0.257979
N259	N	1.095484	-0.786352	-0.219233
N260	N	1.428817	-0.453019	0.114100
N261	N	1.762151	-0.119686	0.447433
H262	H	1.133709	-0.753599	-0.242824
H263	H	1.467043	-0.420265	0.090509
H264	H	1.800376	-0.086932	0.423842
H265	H	1.067825	-0.757368	-0.180784
H266	H	1.401159	-0.424034	0.152550
H267	H	1.734492	-0.090701	0.485883
