data_functionalizedCrystal
_audit_creation_method	'MofGen! by Chris Wilmer'
_symmetry_space_group_name_H-M	'P1'
_symmetry_Int_Tables_number	1
_symmetry_cell_setting	triclinic
loop_
_symmetry_equiv_pos_as_xyz
  x,y,z
_cell_length_a	12.759401
_cell_length_b	18.050582
_cell_length_c	12.759400
_cell_angle_alpha	90.019148
_cell_angle_beta	89.986272
_cell_angle_gamma	89.988208
loop_
_atom_site_label
_atom_site_type_symbol
_atom_site_fract_x
_atom_site_fract_y
_atom_site_fract_z
Zn1	Zn	1.606185	-0.419868	0.418360
Zn2	Zn	1.606100	-0.295686	0.594041
Zn3	Zn	1.430508	-0.295699	0.418373
Zn4	Zn	1.430476	-0.419841	0.593994
O5	O	1.518317	-0.357773	0.506192
O6	O	1.753195	-0.403401	0.441678
O7	O	1.582786	-0.191763	0.570763
O8	O	1.453861	-0.312187	0.271351
O9	O	1.753133	-0.312164	0.570750
O10	O	1.582930	-0.403414	0.271341
O11	O	1.453779	-0.191773	0.441701
O12	O	1.283483	-0.312161	0.441656
O13	O	1.453806	-0.523769	0.570671
O14	O	1.283459	-0.403367	0.570684
O15	O	1.582899	-0.523789	0.441633
O16	O	1.582754	-0.312138	0.741056
O17	O	1.453724	-0.403354	0.741022
C18	C	1.245350	-0.357763	0.506167
C19	C	1.128573	-0.357776	0.506182
C20	C	1.073737	-0.405357	0.439101
C21	C	0.964013	-0.405361	0.439121
C22	C	0.963971	-0.310203	0.573312
C23	C	1.073694	-0.310195	0.573286
C24	C	1.073760	-0.460298	0.361630
C25	C	0.964036	-0.460303	0.361650
C26	C	1.518359	-0.551479	0.506145
C27	C	1.518376	-0.634025	0.506126
C28	C	1.448229	-0.833465	0.576201
C29	C	1.544088	-0.882854	0.601884
C30	C	1.518428	-0.785155	0.506045
C31	C	1.422622	-0.882848	0.480333
C32	C	1.518469	-0.931141	0.505970
C33	C	1.614337	-0.833457	0.531779
C34	C	1.492806	-0.833447	0.410184
C35	C	1.588731	-0.882814	0.435830
C36	C	1.518402	-0.701057	0.506092
C37	C	1.518506	-1.015237	0.505924
C38	C	1.792351	-0.357784	0.506218
C39	C	1.909127	-0.357789	0.506229
C40	C	1.518255	-0.357758	0.779159
C41	C	1.518324	-0.357776	0.895936
C42	C	1.518337	-0.164821	0.506163
C43	C	1.518523	-0.082276	0.505887
C44	C	1.518409	-0.357805	0.232159
C45	C	1.518447	-0.357819	0.115382
C46	C	1.585585	-0.310332	0.950781
C47	C	1.585650	-0.310355	1.060505
C48	C	1.451184	-0.405268	1.060530
C49	C	1.451125	-0.405248	0.950808
C50	C	1.663215	-0.255533	0.950768
C51	C	1.663279	-0.255556	1.060492
H52	H	0.934281	-0.517796	0.383563
Cl53	Cl	1.142628	-0.250356	0.657589
Cl54	Cl	0.911474	-0.428652	0.242259
Cl55	Cl	1.356661	-0.800007	0.667913
Cl56	Cl	1.459266	-0.799913	0.285105
H57	H	1.565784	-0.904555	0.682920
Cl58	Cl	1.739490	-0.800106	0.565462
Cl59	Cl	1.680515	-0.916063	0.344184
H60	H	1.396366	-0.443887	0.906154
H61	H	1.341583	-0.904545	0.458617
Cl62	Cl	1.782614	-0.287448	1.112921
Cl63	Cl	1.366710	-0.464944	1.129518
H64	H	1.744556	-0.270979	0.920916
H65	H	1.634099	-0.200874	0.916803
H66	H	1.641552	-0.198030	1.090336
H67	H	0.919275	-0.271465	0.627946
H68	H	1.103529	-0.444992	0.280223
H69	H	1.107816	-0.514895	0.390880
