data_functionalizedCrystal
_audit_creation_method	'MofGen! by Chris Wilmer'
_symmetry_space_group_name_H-M	'P1'
_symmetry_Int_Tables_number	1
_symmetry_cell_setting	triclinic
loop_
_symmetry_equiv_pos_as_xyz
  x,y,z
_cell_length_a	12.759401
_cell_length_b	16.625546
_cell_length_c	12.759393
_cell_angle_alpha	90.035119
_cell_angle_beta	90.020938
_cell_angle_gamma	90.023993
loop_
_atom_site_label
_atom_site_type_symbol
_atom_site_fract_x
_atom_site_fract_y
_atom_site_fract_z
Zn1	Zn	1.606210	-0.320930	0.593986
Zn2	Zn	2.106210	0.179070	1.093986
Zn3	Zn	1.606077	-0.455784	0.418292
Zn4	Zn	2.106077	0.044216	0.918292
Zn5	Zn	1.430508	-0.320973	0.418322
Zn6	Zn	1.930508	0.179027	0.918322
Zn7	Zn	1.430476	-0.455728	0.593930
Zn8	Zn	1.930476	0.044272	1.093930
O9	O	1.518318	-0.388354	0.506132
O10	O	2.018318	0.111646	1.006132
O11	O	1.753213	-0.338824	0.570692
O12	O	2.253213	0.161176	1.070692
O13	O	1.582745	-0.437943	0.271275
O14	O	2.082745	0.062057	0.771275
O15	O	1.453884	-0.208135	0.441660
O16	O	1.953884	0.291865	0.941660
O17	O	1.753116	-0.437901	0.441610
O18	O	2.253116	0.062099	0.941610
O19	O	1.582971	-0.208103	0.570720
O20	O	2.082971	0.291897	1.070720
O21	O	1.453756	-0.338897	0.271297
O22	O	1.953756	0.161103	0.771297
O23	O	1.283483	-0.338843	0.441605
O24	O	1.783483	0.161157	0.941605
O25	O	1.453830	-0.437805	0.740958
O26	O	1.953830	0.062195	1.240958
O27	O	1.283460	-0.437847	0.570623
O28	O	1.783460	0.062153	1.070623
O29	O	1.582940	-0.338770	0.741000
O30	O	2.082940	0.161230	1.241000
O31	O	1.582714	-0.568609	0.441555
O32	O	2.082714	-0.068609	0.941555
O33	O	1.453701	-0.568568	0.570595
O34	O	1.953701	-0.068568	1.070595
C35	C	1.245350	-0.388344	0.506112
C36	C	1.745350	0.111656	1.006112
C37	C	1.128574	-0.388359	0.506128
C38	C	1.628574	0.111641	1.006128
C39	C	1.518218	-0.597844	0.506088
C40	C	2.018218	-0.097844	1.006088
C41	C	1.518272	-0.687466	0.506105
C42	C	2.018272	-0.187466	1.006105
C43	C	1.073727	-0.439989	0.573202
C44	C	1.573727	0.060011	1.073202
C45	C	0.964003	-0.439992	0.573223
C46	C	1.464003	0.060008	1.073223
C47	C	0.963982	-0.336733	0.439086
C48	C	1.463982	0.163267	0.939086
C49	C	1.073704	-0.336726	0.439071
C50	C	1.573704	0.163274	0.939071
C51	C	1.518455	-1.015641	0.506214
C52	C	2.018455	-0.515641	1.006214
C53	C	1.518401	-0.924333	0.506187
C54	C	2.018401	-0.424333	1.006187
C55	C	1.518363	-0.851556	0.506159
C56	C	2.018363	-0.351556	1.006159
C57	C	1.518310	-0.760242	0.506132
C58	C	2.018310	-0.260242	1.006132
C59	C	1.792351	-0.388364	0.506154
C60	C	2.292351	0.111636	1.006154
C61	C	1.909128	-0.388369	0.506163
C62	C	2.409128	0.111631	1.006163
C63	C	1.518396	-0.388276	0.780166
C64	C	2.018396	0.111724	1.280166
C65	C	1.518430	-0.388243	0.896943
C66	C	2.018430	0.111757	1.396943
C67	C	1.518446	-0.178045	0.506200
C68	C	2.018446	0.321955	1.006200
C69	C	1.518501	-0.088424	0.506228
C70	C	2.018501	0.411576	1.006228
C71	C	1.518300	-0.388372	0.233165
C72	C	2.018300	0.111628	0.733165
C73	C	1.518470	-0.388178	0.116389
C74	C	2.018470	0.111822	0.616389
C75	C	1.585663	-0.336667	0.951828
C76	C	2.085663	0.163333	1.451828
C77	C	1.585681	-0.336632	1.061552
C78	C	2.085681	0.163368	1.561552
C79	C	1.451230	-0.439757	1.061496
C80	C	1.951230	0.060243	1.561496
C81	C	1.451208	-0.439787	0.951774
C82	C	1.951208	0.060213	1.451774
H83	H	1.118399	-0.482029	0.627806
H84	H	1.618399	0.017971	1.127806
C85	C	0.795775	-0.290893	0.379549
C86	C	1.295775	0.209107	0.879549
C87	C	0.903665	-0.279984	0.365376
C88	C	1.403665	0.220016	0.865376
H89	H	0.758543	-0.255861	0.334037
H90	H	1.258543	0.244139	0.834037
H91	H	0.777841	-0.279160	0.450162
H92	H	1.277841	0.220840	0.950162
H93	H	0.777772	-0.345057	0.364041
H94	H	1.277772	0.154943	0.864041
H95	H	0.921670	-0.225821	0.380891
H96	H	1.421670	0.274179	0.880891
H97	H	0.921607	-0.291711	0.294747
H98	H	1.421607	0.208289	0.794747
H99	H	0.919352	-0.482033	0.627843
H100	H	1.419352	0.017967	1.127843
H101	H	1.118362	-0.294678	0.384451
H102	H	1.618362	0.205322	0.884451
C103	C	1.718552	-0.234723	0.962909
C104	C	2.218552	0.265277	1.462909
C105	C	1.659542	-0.280003	0.891557
C106	C	2.159542	0.219997	1.391557
H107	H	1.764156	-0.199736	0.925699
H108	H	2.264156	0.300264	1.425699
H109	H	1.758727	-0.269843	1.005695
H110	H	2.258727	0.230157	1.505695
H111	H	1.672791	-0.203872	1.005710
H112	H	2.172791	0.296128	1.505710
H113	H	1.705303	-0.310860	0.848760
H114	H	2.205303	0.189140	1.348760
H115	H	1.619364	-0.244879	0.848752
H116	H	2.119364	0.255121	1.348752
H117	H	1.640427	-0.294633	1.106235
H118	H	2.140427	0.205367	1.606235
H119	H	1.396502	-0.481723	1.106153
H120	H	1.896502	0.018277	1.606153
H121	H	1.396451	-0.481785	0.907085
H122	H	1.896451	0.018215	1.407085
