data_functionalizedCrystal
_audit_creation_method	'MofGen! by Chris Wilmer'
_symmetry_space_group_name_H-M	'P1'
_symmetry_Int_Tables_number	1
_symmetry_cell_setting	triclinic
loop_
_symmetry_equiv_pos_as_xyz
  x,y,z
_cell_length_a	26.374263
_cell_length_b	26.373608
_cell_length_c	26.370205
_cell_angle_alpha	60.005297
_cell_angle_beta	60.010839
_cell_angle_gamma	59.993700
loop_
_atom_site_label
_atom_site_type_symbol
_atom_site_fract_x
_atom_site_fract_y
_atom_site_fract_z
O1	O	0.070152	-0.740800	0.619517
O2	O	0.570152	-0.240800	1.119517
O3	O	0.026377	-0.576764	0.499159
O4	O	0.526377	-0.076764	0.999159
O5	O	0.130245	-0.680560	0.499088
O6	O	0.630245	-0.180560	0.999088
O7	O	-0.033715	-0.637003	0.619589
O8	O	0.466285	-0.137003	1.119589
O9	O	0.164701	-0.646107	0.533470
O10	O	0.664701	-0.146107	1.033470
O11	O	0.060833	-0.542310	0.533541
O12	O	0.560833	-0.042310	1.033541
O13	O	0.104608	-0.706346	0.653899
O14	O	0.604608	-0.206346	1.153899
Cu15	Cu	0.085867	-0.621182	0.596859
Cu16	Cu	0.585867	-0.121182	1.096859
Cu17	Cu	0.045119	-0.661927	0.556199
Cu18	Cu	0.545119	-0.161927	1.056199
O19	O	0.000741	-0.602549	0.653971
O20	O	0.500741	-0.102549	1.153971
N21	N	0.114528	-0.592529	0.625461
N22	N	0.614528	-0.092529	1.125461
N23	N	0.016463	-0.690587	0.527598
N24	N	0.516463	-0.190587	1.027598
C25	C	0.181428	-0.355400	0.692330
C26	C	0.681428	0.144600	1.192330
C27	C	0.181530	-0.525690	0.862573
C28	C	0.681530	-0.025690	1.362573
C29	C	0.181440	-0.525667	0.692313
C30	C	0.681440	-0.025667	1.192313
C31	C	0.351736	-0.525673	0.692271
C32	C	0.851736	-0.025673	1.192271
C33	C	0.200174	-0.411588	0.711047
C34	C	0.700174	0.088412	1.211047
C35	C	0.200232	-0.506954	0.806384
C36	C	0.700232	-0.006954	1.306384
C37	C	0.295546	-0.506943	0.711016
C38	C	0.795546	-0.006943	1.211016
C39	C	0.200182	-0.506940	0.711037
C40	C	0.700182	-0.006940	1.211037
C41	C	0.157567	-0.283881	0.668507
C42	C	0.657567	0.216119	1.168507
C43	C	0.157587	-0.549500	0.668479
C44	C	0.657587	-0.049500	1.168479
C45	C	0.224035	-0.483107	0.734871
C46	C	0.724035	0.016893	1.234871
C47	C	0.455739	-0.507754	0.637520
C48	C	0.955739	-0.007754	1.137520
C49	C	0.520749	-0.529425	0.615835
C50	C	1.020749	-0.029425	1.115835
C51	C	0.520768	-0.634611	0.655947
C52	C	1.020768	-0.134611	1.155947
C53	C	0.455759	-0.612939	0.677633
C54	C	0.955759	-0.112939	1.177633
C55	C	0.173240	-0.251367	0.604595
C56	C	0.673240	0.248633	1.104595
C57	C	0.151546	-0.186351	0.582941
C58	C	0.651546	0.313649	1.082941
C59	C	0.098512	-0.186369	0.689113
C60	C	0.598512	0.313631	1.189113
C61	C	0.120206	-0.251385	0.710768
C62	C	0.620206	0.248615	1.210768
C63	C	0.093669	-0.533798	0.684205
C64	C	0.593669	-0.033798	1.184205
C65	C	0.071992	-0.555464	0.662532
C66	C	0.571992	-0.055464	1.162532
C67	C	0.178144	-0.608536	0.609422
C68	C	0.678144	-0.108536	1.109422
C69	C	0.199825	-0.586869	0.631088
C70	C	0.699825	-0.086869	1.131088
C71	C	0.093821	-0.533842	0.966616
C72	C	0.593821	-0.033842	1.466616
C73	C	0.072187	-0.555526	1.031630
C74	C	0.572187	-0.055526	1.531630
C75	C	0.178370	-0.608608	1.031591
C76	C	0.678370	-0.108608	1.531591
C77	C	0.200004	-0.586926	0.966576
C78	C	0.700004	-0.086926	1.466576
C79	C	0.157728	-0.549541	0.934090
C80	C	0.657728	-0.049541	1.434090
C81	C	0.423247	-0.549509	0.668416
C82	C	0.923247	-0.049509	1.168416
C83	C	-0.097522	-0.709158	0.508557
C84	C	0.402478	-0.209158	1.008557
C85	C	-0.002050	-0.709295	0.413344
C86	C	0.497950	-0.209295	0.913344
C87	C	-0.002241	-0.804604	0.508735
C88	C	0.497759	-0.304604	1.008735
C89	C	-0.002225	-0.709288	0.508793
C90	C	0.497775	-0.209288	1.008793
C91	C	-0.026009	-0.733087	0.484858
C92	C	0.473991	-0.233087	0.984858
N93	N	0.552340	-0.592538	0.625346
N94	N	1.052340	-0.092538	1.125346
O95	O	0.750867	-0.598274	0.477076
O96	O	1.250867	-0.098274	0.977076
O97	O	0.751048	-0.718989	0.640960
O98	O	1.251048	-0.218989	1.140960
O99	O	0.750981	-0.718715	0.537020
O100	O	1.250981	-0.218715	1.037020
O101	O	0.750934	-0.598547	0.581017
O102	O	1.250934	-0.098547	1.081017
O103	O	0.647701	-0.684348	0.571512
O104	O	1.147701	-0.184348	1.071512
O105	O	0.647768	-0.684622	0.675452
O106	O	1.147768	-0.184622	1.175452
O107	O	0.647587	-0.563907	0.511569
O108	O	1.147587	-0.063907	1.011569
Cu109	Cu	0.638247	-0.621127	0.596660
Cu110	Cu	1.138247	-0.121127	1.096660
Cu111	Cu	0.760388	-0.661769	0.555869
Cu112	Cu	1.260388	-0.161769	1.055869
O113	O	0.647654	-0.564181	0.615509
O114	O	1.147654	-0.064181	1.115509
N115	N	0.846295	-0.690358	0.527176
N116	N	1.346295	-0.190358	1.027176
N117	N	0.114503	-0.154778	0.625499
N118	N	0.614503	0.345222	1.125499
O119	O	-0.033701	0.043855	0.619632
O120	O	0.466299	0.543855	1.119632
O121	O	0.130190	0.043858	0.498933
O122	O	0.630190	0.543858	0.998933
O123	O	0.026233	0.043841	0.499224
O124	O	0.526233	0.543841	0.999224
O125	O	0.070257	0.043872	0.619341
O126	O	0.570257	0.543872	1.119341
O127	O	0.060690	-0.059448	0.533654
O128	O	0.560690	0.440552	1.033654
O129	O	0.164647	-0.059431	0.533363
O130	O	0.664647	0.440569	1.033363
O131	O	0.000756	-0.059434	0.654062
O132	O	0.500756	0.440566	1.154062
Cu133	Cu	0.085848	-0.068863	0.596857
Cu134	Cu	0.585848	0.431137	1.096857
Cu135	Cu	0.045099	0.053287	0.556138
Cu136	Cu	0.545099	0.553287	1.056138
O137	O	0.104714	-0.059417	0.653771
O138	O	0.604714	0.440583	1.153771
N139	N	0.016435	0.139202	0.527497
N140	N	0.516435	0.639202	1.027497
N141	N	0.114760	-0.592585	1.063190
N142	N	0.614760	-0.092585	1.563190
O143	O	0.108896	-0.740779	1.261808
O144	O	0.608896	-0.240779	1.761808
O145	O	-0.011787	-0.576838	1.261822
O146	O	0.488213	-0.076838	1.761822
O147	O	-0.011509	-0.680779	1.261780
O148	O	0.488491	-0.180779	1.761780
O149	O	0.108618	-0.636838	1.261850
O150	O	0.608618	-0.136838	1.761850
O151	O	0.022916	-0.646341	1.158496
O152	O	0.522916	-0.146341	1.658496
O153	O	0.022638	-0.542399	1.158538
O154	O	0.522638	-0.042399	1.658538
O155	O	0.143321	-0.706341	1.158524
O156	O	0.643321	-0.206341	1.658524
Cu157	Cu	0.086123	-0.621225	1.149100
Cu158	Cu	0.586123	-0.121225	1.649100
Cu159	Cu	0.045411	-0.661953	1.271246
Cu160	Cu	0.545411	-0.161953	1.771246
O161	O	0.143044	-0.602399	1.158566
O162	O	0.643044	-0.102399	1.658566
N163	N	0.016774	-0.690600	1.357156
N164	N	0.516774	-0.190600	1.857156
C165	C	0.039504	-0.538867	0.499769
C166	C	0.539504	-0.038867	0.999769
C167	C	0.168130	-0.667407	0.499680
C168	C	0.668130	-0.167407	0.999680
C169	C	0.091482	-0.744243	0.653289
C170	C	0.591482	-0.244243	1.153289
C171	C	-0.037145	-0.615703	0.653378
C172	C	0.462855	-0.115703	1.153378
C173	C	0.699429	-0.718429	0.678853
C174	C	1.199429	-0.218429	1.178853
C175	C	0.699348	-0.718091	0.550135
C176	C	1.199348	-0.218091	1.050135
C177	C	0.699202	-0.564465	0.473677
C178	C	1.199202	-0.064465	0.973677
C179	C	0.699287	-0.564805	0.602393
C180	C	1.199287	-0.064805	1.102393
C181	C	0.168023	-0.007659	0.499484
C182	C	0.668023	0.492341	0.999484
C183	C	0.039327	-0.007807	0.499887
C184	C	0.539327	0.492193	0.999887
C185	C	-0.037119	-0.007789	0.653468
C186	C	0.462881	0.492211	1.153468
C187	C	0.091620	-0.007770	0.653109
C188	C	0.591620	0.492230	1.153109
C189	C	-0.011194	-0.538964	1.210181
C190	C	0.488806	-0.038964	1.710181
C191	C	-0.010843	-0.667676	1.210109
C192	C	0.489157	-0.167676	1.710109
C193	C	0.142729	-0.744214	1.210165
C194	C	0.642729	-0.244214	1.710165
C195	C	0.142386	-0.615494	1.210214
C196	C	0.642386	-0.115494	1.710214
H197	H	0.020147	-0.542732	1.058106
H198	H	0.520147	-0.042732	1.558106
H199	H	0.214995	-0.007372	0.461496
H200	H	0.714995	0.492628	0.961496
C201	C	0.752606	-0.783960	0.753522
C202	C	1.252606	-0.283960	1.253522
C203	C	0.699498	-0.769593	0.742390
C204	C	1.199498	-0.269593	1.242390
H205	H	0.752649	-0.815549	0.792746
H206	H	1.252649	-0.315549	1.292746
H207	H	0.752578	-0.747905	0.753468
H208	H	1.252578	-0.247905	1.253468
H209	H	0.788607	-0.798179	0.721906
H210	H	1.288607	-0.298179	1.221906
H211	H	0.663496	-0.755370	0.774004
H212	H	1.163496	-0.255370	1.274004
H213	H	0.699520	-0.805656	0.742450
H214	H	1.199520	-0.305656	1.242450
C215	C	0.118589	-0.854372	0.683242
C216	C	0.618589	-0.354372	1.183242
C217	C	0.104094	-0.807854	0.704322
C218	C	0.604094	-0.307854	1.204322
H219	H	0.126371	-0.893641	0.714750
H220	H	0.626371	-0.393641	1.214750
H221	H	0.154503	-0.854202	0.647136
H222	H	0.654503	-0.354202	1.147136
H223	H	0.084718	-0.846824	0.673553
H224	H	0.584718	-0.346824	1.173553
H225	H	0.137967	-0.815399	0.714007
H226	H	0.637967	-0.315399	1.214007
H227	H	0.068176	-0.808025	0.740439
H228	H	0.568176	-0.308025	1.240439
H229	H	0.029900	-0.007810	0.462151
H230	H	0.529900	0.492190	0.962151
H231	H	0.699366	-0.755841	0.540718
H232	H	1.199366	-0.255841	1.040718
H233	H	0.101045	-0.007760	0.690842
H234	H	0.601045	0.492240	1.190842
C235	C	-0.078963	-0.448016	1.157075
C236	C	0.421037	0.051984	1.657075
C237	C	-0.062344	-0.475402	1.210181
C238	C	0.437656	0.024598	1.710181
H239	H	-0.110538	-0.408773	1.157074
H240	H	0.389462	0.091227	1.657074
H241	H	-0.093956	-0.474103	1.157064
H242	H	0.406044	0.025897	1.657064
H243	H	-0.043666	-0.442589	1.121069
H244	H	0.456334	0.057411	1.621069
H245	H	-0.097640	-0.480833	1.246187
H246	H	0.402360	0.019167	1.746187
H247	H	-0.047352	-0.449309	1.210198
H248	H	0.452648	0.050691	1.710198
C249	C	-0.139134	-0.007777	0.682516
C250	C	0.360866	0.492223	1.182516
C251	C	-0.100663	-0.007773	0.704621
C252	C	0.399337	0.492227	1.204621
H253	H	-0.178365	-0.007760	0.714094
H254	H	0.321635	0.492240	1.214094
H255	H	-0.120563	-0.043802	0.671251
H256	H	0.379437	0.456198	1.171251
H257	H	-0.144571	0.028236	0.647217
H258	H	0.355429	0.528236	1.147217
H259	H	-0.095222	-0.043789	0.739918
H260	H	0.404778	0.456211	1.239918
H261	H	-0.119238	0.028255	0.715894
H262	H	0.380762	0.528255	1.215894
C263	C	0.247009	-0.807868	1.210181
C264	C	0.747009	-0.307868	1.710181
C265	C	0.193882	-0.807774	1.210160
C266	C	0.693882	-0.307774	1.710160
H267	H	0.278589	-0.847106	1.210174
H268	H	0.778589	-0.347106	1.710174
H269	H	0.237234	-0.800297	1.246206
H270	H	0.737234	-0.300297	1.746206
H271	H	0.261239	-0.776270	1.174171
H272	H	0.761239	-0.276270	1.674171
H273	H	0.179649	-0.839369	1.246172
H274	H	0.679649	-0.339369	1.746172
H275	H	0.203657	-0.815352	1.174131
H276	H	0.703657	-0.315352	1.674131
C277	C	-0.039390	-0.740946	1.209984
C278	C	0.460610	-0.240946	1.709984
C279	C	-0.061770	-0.680338	1.210019
C280	C	0.438230	-0.180338	1.710019
H281	H	-0.070830	-0.748759	1.209925
H282	H	0.429170	-0.248759	1.709925
H283	H	-0.028114	-0.769603	1.246017
H284	H	0.471886	-0.269603	1.746017
H285	H	-0.004054	-0.745573	1.173981
H286	H	0.495946	-0.245573	1.673981
H287	H	-0.097104	-0.675711	1.246024
H288	H	0.402896	-0.175711	1.746024
H289	H	-0.073055	-0.651672	1.173983
H290	H	0.426945	-0.151672	1.673983
H291	H	-0.084239	-0.606419	0.691217
H292	H	0.415761	-0.106419	1.191217
C293	C	0.223699	-0.673054	0.396581
C294	C	0.723699	-0.173054	0.896581
C295	C	0.231701	-0.679939	0.448592
C296	C	0.731701	-0.179939	0.948592
H297	H	0.262946	-0.680794	0.365044
H298	H	0.762946	-0.180794	0.865044
H299	H	0.197651	-0.631953	0.381523
H300	H	0.697651	-0.131953	0.881523
H301	H	0.205082	-0.701753	0.407902
H302	H	0.705082	-0.201753	0.907902
H303	H	0.250314	-0.651235	0.437271
H304	H	0.750314	-0.151235	0.937271
H305	H	0.257759	-0.721046	0.463652
H306	H	0.757759	-0.221046	0.963652
C307	C	0.210003	-0.645048	1.263329
C308	C	0.710003	-0.145048	1.763329
C309	C	0.193336	-0.602809	1.210232
C310	C	0.693336	-0.102809	1.710232
H311	H	0.241455	-0.637213	1.263341
H312	H	0.741455	-0.137213	1.763341
H313	H	0.225174	-0.686162	1.263316
H314	H	0.725174	-0.186162	1.763316
H315	H	0.174684	-0.640408	1.299341
H316	H	0.674684	-0.140408	1.799341
H317	H	0.228655	-0.607453	1.174220
H318	H	0.728655	-0.107453	1.674220
H319	H	0.178167	-0.561685	1.210240
H320	H	0.678167	-0.061685	1.710240
C321	C	-0.013314	-0.483547	0.973192
C322	C	0.486686	0.016453	1.473192
C323	C	0.047347	-0.492746	0.930911
C324	C	0.547347	0.007254	1.430911
H325	H	-0.042003	-0.458181	0.951147
H326	H	0.457997	0.041819	1.451147
H327	H	-0.019543	-0.463702	0.998550
H328	H	0.480457	0.036298	1.498550
H329	H	-0.019538	-0.522520	0.998547
H330	H	0.480462	-0.022520	1.498547
H331	H	0.053573	-0.453773	0.905560
H332	H	0.553573	0.046227	1.405560
H333	H	0.053579	-0.512590	0.905543
H334	H	0.553579	-0.012590	1.405543
H335	H	0.212798	-0.639038	1.058038
H336	H	0.712798	-0.139038	1.558038
H337	H	0.059274	-0.503369	0.714648
H338	H	0.559274	-0.003369	1.214648
C339	C	0.297178	-0.668846	0.946527
C340	C	0.797178	-0.168846	1.446527
C341	C	0.270256	-0.604184	0.930827
C342	C	0.770256	-0.104184	1.430827
H343	H	0.340549	-0.679498	0.924461
H344	H	0.840549	-0.179498	1.424461
H345	H	0.278917	-0.683790	0.935872
H346	H	0.778917	-0.183790	1.435872
H347	H	0.290336	-0.687100	0.989897
H348	H	0.790336	-0.187100	1.489897
H349	H	0.277094	-0.585930	0.887457
H350	H	0.777094	-0.085930	1.387457
H351	H	0.288523	-0.589232	0.941478
H352	H	0.788523	-0.089232	1.441478
C353	C	-0.030765	-0.500850	0.717227
C354	C	0.469235	-0.000850	1.217227
C355	C	0.001732	-0.538215	0.679821
C356	C	0.501732	-0.038215	1.179821
H357	H	-0.074140	-0.490207	0.727904
H358	H	0.425860	0.009793	1.227904
H359	H	-0.020130	-0.464087	0.695176
H360	H	0.479870	0.035913	1.195176
H361	H	-0.020073	-0.522922	0.753974
H362	H	0.479927	-0.022922	1.253974
H363	H	-0.008958	-0.516142	0.643072
H364	H	0.491042	-0.016142	1.143072
H365	H	-0.008909	-0.574984	0.701872
H366	H	0.491091	-0.074984	1.201872
H367	H	0.212545	-0.638970	0.578981
H368	H	0.712545	-0.138970	1.078981
H369	H	0.429307	-0.646943	0.702793
H370	H	0.929307	-0.146943	1.202793
C371	C	0.302579	-0.641491	0.576397
C372	C	0.802579	-0.141491	1.076397
C373	C	0.270085	-0.604119	0.613796
C374	C	0.770085	-0.104119	1.113796
H375	H	0.345954	-0.652140	0.565723
H376	H	0.845954	-0.152140	1.065723
H377	H	0.291889	-0.619427	0.539655
H378	H	0.791889	-0.119427	1.039655
H379	H	0.291938	-0.678256	0.598457
H380	H	0.791938	-0.178256	1.098457
H381	H	0.280723	-0.567350	0.591734
H382	H	0.780723	-0.067350	1.091734
H383	H	0.280780	-0.626183	0.650545
H384	H	0.780780	-0.126183	1.150545
C385	C	0.646014	-0.498936	0.399017
C386	C	1.146014	0.001064	0.899017
C387	C	0.699124	-0.513298	0.410143
C388	C	1.199124	-0.013298	0.910143
H389	H	0.645968	-0.467349	0.359792
H390	H	1.145968	0.032651	0.859792
H391	H	0.610018	-0.484720	0.430631
H392	H	1.110018	0.015280	0.930631
H393	H	0.646044	-0.534998	0.399073
H394	H	1.146044	-0.034998	0.899073
H395	H	0.699092	-0.477237	0.410091
H396	H	1.199092	0.022763	0.910091
H397	H	0.735129	-0.527511	0.378521
H398	H	1.235129	-0.027511	0.878521
C399	C	0.514259	-0.736409	0.697775
C400	C	1.014259	-0.236409	1.197775
C401	C	0.556508	-0.704333	0.666074
C402	C	1.056508	-0.204333	1.166074
H403	H	0.536326	-0.779453	0.704029
H404	H	1.036326	-0.279453	1.204029
H405	H	0.488888	-0.721160	0.673963
H406	H	0.988888	-0.221160	1.173963
H407	H	0.488917	-0.730376	0.736838
H408	H	0.988917	-0.230376	1.236838
H409	H	0.581847	-0.710363	0.627009
H410	H	1.081847	-0.210363	1.127009
H411	H	0.581889	-0.719587	0.689886
H412	H	1.081889	-0.219587	1.189886
H413	H	0.699278	-0.527058	0.611808
H414	H	1.199278	-0.027058	1.111808
H415	H	0.547206	-0.495421	0.590679
H416	H	1.047206	0.004579	1.090679
H417	H	0.203661	-0.277820	0.570179
H418	H	0.703661	0.222180	1.070179
C419	C	0.462252	-0.405959	0.595697
C420	C	0.962252	0.094041	1.095697
C421	C	0.419999	-0.438029	0.627393
C422	C	0.919999	0.061971	1.127393
H423	H	0.440188	-0.362915	0.589447
H424	H	0.940188	0.137085	1.089447
H425	H	0.487593	-0.411990	0.556639
H426	H	0.987593	0.088010	1.056639
H427	H	0.487624	-0.421216	0.619516
H428	H	0.987624	0.078784	1.119516
H429	H	0.394630	-0.422775	0.603571
H430	H	0.894630	0.077225	1.103571
H431	H	0.394648	-0.431994	0.666457
H432	H	0.894648	0.068006	1.166457
H433	H	0.164306	-0.159876	0.530897
H434	H	0.664306	0.340124	1.030897
H435	H	0.068098	-0.159910	0.723527
H436	H	0.568098	0.340090	1.223527
H437	H	0.030155	-0.491745	0.461969
H438	H	0.530155	0.008255	0.961969
C439	C	0.065605	-0.244867	0.813539
C440	C	0.565605	0.255133	1.313539
C441	C	0.102979	-0.287123	0.781022
C442	C	0.602979	0.212877	1.281022
H443	H	0.054973	-0.266933	0.856912
H444	H	0.554973	0.233067	1.356912
H445	H	0.028839	-0.219512	0.802891
H446	H	0.528839	0.280488	1.302891
H447	H	0.087661	-0.219506	0.802872
H448	H	0.587661	0.280494	1.302872
H449	H	0.080921	-0.312482	0.791685
H450	H	0.580921	0.187518	1.291685
H451	H	0.139751	-0.312490	0.791675
H452	H	0.639751	0.187510	1.291675
