data_functionalizedCrystal
_audit_creation_method	'MofGen! by Chris Wilmer'
_symmetry_space_group_name_H-M	'P1'
_symmetry_Int_Tables_number	1
_symmetry_cell_setting	triclinic
loop_
_symmetry_equiv_pos_as_xyz
  x,y,z
_cell_length_a	10.908878
_cell_length_b	11.026607
_cell_length_c	9.482944
_cell_angle_alpha	81.848156
_cell_angle_beta	77.850584
_cell_angle_gamma	84.335404
loop_
_atom_site_label
_atom_site_type_symbol
_atom_site_fract_x
_atom_site_fract_y
_atom_site_fract_z
O1	O	1.683298	-0.166375	-0.120872
O2	O	1.330364	-0.075834	-0.120879
O3	O	1.477579	-0.291855	-0.120871
O4	O	1.536083	0.049646	-0.120880
O5	O	1.435876	-0.317263	0.120922
O6	O	1.288661	-0.101242	0.120914
O7	O	1.641594	-0.191783	0.120920
Cu8	Cu	1.461320	-0.148833	0.142994
Cu9	Cu	1.510639	-0.118785	-0.142953
O10	O	1.494379	0.024238	0.120912
C11	C	1.263627	-0.080077	0.000017
C12	C	1.126900	-0.054878	0.000014
C13	C	1.056637	-0.146823	0.000016
C14	C	0.915322	-0.120781	0.000013
C15	C	1.445935	-0.347592	0.000024
C16	C	1.413763	-0.475813	0.000018
C17	C	1.502598	-0.567546	0.000017
C18	C	1.469349	-0.700069	0.000011
C19	C	1.708332	-0.187540	0.000022
C20	C	1.845061	-0.212738	0.000015
C21	C	1.526024	0.079975	0.000015
C22	C	1.558197	0.208197	0.000011
N23	N	1.426640	-0.169970	0.344114
N24	N	1.545326	-0.097659	-0.344073
C25	C	1.471565	-0.142611	0.583728
C26	C	1.500412	-0.125011	0.416310
H27	H	1.082436	0.043119	0.000005
C28	C	1.313976	-0.238575	0.427198
C29	C	1.307630	-0.242203	0.576733
C30	C	1.203854	-0.305376	0.653315
H31	H	1.322595	-0.319973	0.402606
H32	H	1.239255	-0.197549	0.402319
H33	H	1.382332	-0.283231	0.601602
H34	H	1.298992	-0.160823	0.601370
H35	H	1.129133	-0.264350	0.628436
H36	H	1.212482	-0.386770	0.628710
H37	H	1.199528	-0.307836	0.754782
C38	C	1.692454	-0.765926	0.000243
C39	C	1.729217	-0.830210	0.124623
C40	C	1.852888	-0.806414	0.124877
H41	H	1.697123	-0.680370	0.000320
H42	H	1.746747	-0.791759	-0.084031
H43	H	1.674940	-0.804371	0.208875
H44	H	1.724579	-0.915770	0.124572
H45	H	1.907181	-0.832246	0.040603
H46	H	1.857545	-0.720856	0.124950
H47	H	1.877852	-0.850035	0.209259
H48	H	1.584925	-0.073498	0.354185
H49	H	1.313095	-0.495387	0.000006
H50	H	1.387065	-0.194131	0.645859
C51	C	1.658172	-0.029173	0.573173
C52	C	1.768073	-0.089977	0.610037
C53	C	1.872053	-0.026931	0.533822
H54	H	1.649673	0.052150	0.597983
H55	H	1.662665	-0.026505	0.471645
H56	H	1.763579	-0.092631	0.711543
H57	H	1.776612	-0.171296	0.585223
H58	H	1.876547	-0.024263	0.432294
H59	H	1.863542	0.054390	0.558638
H60	H	1.946634	-0.068183	0.558813
C61	C	1.115693	-0.277572	-0.000061
C62	C	1.023490	-0.357346	-0.000098
C63	C	1.077846	-0.477801	-0.000191
H64	H	1.150868	-0.300292	0.084232
H65	H	1.179926	-0.282450	-0.084416
H66	H	0.959280	-0.352473	0.084249
H67	H	0.988308	-0.334665	-0.084384
H68	H	1.142079	-0.482680	-0.084546
H69	H	1.113019	-0.500509	0.084103
H70	H	1.015298	-0.531942	-0.000230
H71	H	0.889521	-0.310741	0.000007
C72	C	1.636750	-0.541218	0.000097
C73	C	1.643049	-0.415013	0.000137
C74	C	1.766608	-0.390721	0.000229
H75	H	1.691112	-0.566891	-0.084197
H76	H	1.661923	-0.584665	0.084451
H77	H	1.617891	-0.371581	-0.084209
H78	H	1.588714	-0.389310	0.084424
H79	H	1.791781	-0.434168	0.084583
H80	H	1.820960	-0.416401	-0.084066
H81	H	1.770895	-0.305091	0.000270
C82	C	1.335166	-0.726405	0.000077
C83	C	1.328855	-0.852618	0.000106
C84	C	1.205267	-0.876928	0.000185
H85	H	1.309885	-0.683008	-0.084218
H86	H	1.280892	-0.700695	0.084430
H87	H	1.383111	-0.878315	-0.084238
H88	H	1.354112	-0.896043	0.084394
H89	H	1.150992	-0.851217	0.084538
H90	H	1.179996	-0.833524	-0.084111
H91	H	1.200966	-0.962565	0.000218
H92	H	0.870863	-0.022777	0.000004
