data_functionalizedCrystal
_audit_creation_method	'MofGen! by Chris Wilmer'
_symmetry_space_group_name_H-M	'P1'
_symmetry_Int_Tables_number	1
_symmetry_cell_setting	triclinic
loop_
_symmetry_equiv_pos_as_xyz
  x,y,z
_cell_length_a	11.026607
_cell_length_b	15.995350
_cell_length_c	10.065875
_cell_angle_alpha	98.791555
_cell_angle_beta	79.302338
_cell_angle_gamma	96.039196
loop_
_atom_site_label
_atom_site_type_symbol
_atom_site_fract_x
_atom_site_fract_y
_atom_site_fract_z
O1	O	1.627917	0.340991	-0.113481
O2	O	2.127917	0.840991	0.386519
O3	O	1.274611	0.301065	-0.113484
O4	O	1.774611	0.801065	0.386516
O5	O	1.460922	0.200596	-0.113481
O6	O	1.960922	0.700596	0.386519
O7	O	1.441606	0.441460	-0.113484
O8	O	1.941606	0.941460	0.386516
O9	O	1.425395	0.219853	0.113507
O10	O	1.925395	0.719853	0.613507
O11	O	1.239084	0.320322	0.113504
O12	O	1.739084	0.820322	0.613504
O13	O	1.592390	0.360247	0.113508
O14	O	2.092390	0.860247	0.613508
Zn15	Zn	1.410096	0.343342	0.149545
Zn16	Zn	1.910096	0.843342	0.649545
Zn17	Zn	1.456905	0.317971	-0.149522
Zn18	Zn	1.956905	0.817971	0.350478
O19	O	1.406079	0.460716	0.113504
O20	O	1.906079	0.960716	0.613504
C21	C	1.211637	0.303328	0.000010
C22	C	1.711637	0.803328	0.500010
C23	C	1.076923	0.281371	0.000008
C24	C	1.576923	0.781371	0.500008
C25	C	1.003118	0.341997	0.000007
C26	C	1.503118	0.841997	0.500007
C27	C	0.863884	0.319305	0.000005
C28	C	1.363884	0.819305	0.500005
C29	C	1.442360	0.178909	0.000011
C30	C	1.942360	0.678909	0.500011
C31	C	1.439967	0.085597	0.000003
C32	C	1.939967	0.585597	0.500003
C33	C	1.431369	-0.253446	0.000007
C34	C	1.931369	0.246554	0.500007
C35	C	1.298762	-0.226055	-0.000503
C36	C	1.798762	0.273945	0.499497
C37	C	1.301076	-0.128960	0.000009
C38	C	1.801076	0.371040	0.500009
C39	C	1.435634	-0.085243	0.000004
C40	C	1.935634	0.414757	0.500004
C41	C	1.480793	-0.105459	0.129624
C42	C	1.980793	0.394541	0.629624
C43	C	1.477442	-0.202588	0.129732
C44	C	1.977442	0.297412	0.629732
C45	C	1.520584	-0.224432	-0.128396
C46	C	2.020584	0.275568	0.371604
C47	C	1.520821	-0.127636	-0.130109
C48	C	2.020821	0.372364	0.369891
C49	C	1.438051	0.009819	0.000007
C50	C	1.938051	0.509819	0.500007
C51	C	1.428955	-0.348507	0.000014
C52	C	1.928955	0.151493	0.500014
C53	C	1.655365	0.357984	0.000011
C54	C	2.155365	0.857984	0.500011
C55	C	1.790080	0.379940	0.000003
C56	C	2.290080	0.879940	0.500003
C57	C	1.424641	0.482403	0.000010
C58	C	1.924641	0.982403	0.500010
C59	C	1.427036	0.575714	0.000009
C60	C	1.927036	1.075714	0.500009
N61	N	1.378160	0.360658	0.353650
N62	N	1.878160	0.860658	0.853650
N63	N	1.488851	0.300649	-0.353627
N64	N	1.988851	0.800649	0.146373
C65	C	1.445785	0.323989	0.421430
C66	C	1.945785	0.823989	0.921430
C67	C	1.421215	0.337324	0.578597
C68	C	1.921215	0.837324	1.078597
H69	H	0.824003	0.250594	-0.000029
H70	H	1.324003	0.750594	0.499971
H71	H	1.302069	0.401920	0.411975
H72	H	1.802069	0.901920	0.911975
O73	O	0.842889	0.470958	0.000022
O74	O	1.342889	0.970958	0.500022
H75	H	0.826195	0.494719	-0.092487
H76	H	1.326195	0.994719	0.407513
O77	O	1.213187	-0.091917	0.123296
O78	O	1.713187	0.408083	0.623296
H79	H	1.265322	-0.044258	0.188089
H80	H	1.765322	0.455742	0.688089
H81	H	1.037037	0.212664	-0.000026
H82	H	1.537037	0.712664	0.499974
O83	O	1.252169	-0.112013	-0.123048
O84	O	1.752169	0.387987	0.376952
H85	H	1.226645	-0.173253	-0.183459
H86	H	1.726645	0.326747	0.316541
O87	O	1.055948	0.433006	0.000016
O88	O	1.555948	0.933006	0.500016
H89	H	0.980703	0.473966	0.000027
H90	H	1.480703	0.973966	0.500027
O91	O	1.589643	0.245982	0.569135
O92	O	2.089643	0.745982	1.069135
H93	H	1.569652	0.180691	0.596484
H94	H	2.069652	0.680691	1.096484
H95	H	1.260276	-0.260465	-0.093456
H96	H	1.760276	0.239535	0.406544
O97	O	1.546540	0.269296	0.344191
O98	O	2.046540	0.769296	0.844191
H99	H	1.550014	0.267394	0.232866
H100	H	2.050014	0.767394	0.732866
H101	H	1.345120	0.378589	0.636917
H102	H	1.845120	0.878589	1.136917
H103	H	1.414554	-0.219863	0.226628
H104	H	1.914554	0.280137	0.726628
O105	O	1.209652	-0.252145	0.121943
O106	O	1.709652	0.247855	0.621943
H107	H	1.259400	-0.284534	0.183165
H108	H	1.759400	0.215466	0.683165
O109	O	1.483561	-0.271355	-0.258557
O110	O	1.983561	0.228645	0.241443
H111	H	1.461090	-0.225116	-0.320368
H112	H	1.961090	0.274884	0.179632
O113	O	1.605249	-0.225204	0.137552
O114	O	2.105249	0.274796	0.637552
H115	H	1.669170	-0.166780	0.141250
H116	H	2.169170	0.333220	0.641250
H117	H	1.578894	-0.076025	0.134441
H118	H	2.078894	0.423975	0.634441
O119	O	1.400594	-0.066100	0.257405
O120	O	1.900594	0.433900	0.757405
H121	H	1.303165	-0.092327	0.258691
H122	H	1.803165	0.407673	0.758691
H123	H	1.487979	-0.115735	-0.225998
H124	H	1.987979	0.384265	0.274002
H125	H	1.618551	-0.241521	-0.129270
H126	H	2.118551	0.258479	0.370730
O127	O	1.652430	-0.088588	-0.140491
O128	O	2.152430	0.411412	0.359509
H129	H	1.659211	-0.038134	-0.052678
H130	H	2.159211	0.461866	0.447322
