data_functionalizedCrystal
_audit_creation_method	'MofGen! by Chris Wilmer'
_symmetry_space_group_name_H-M	'P1'
_symmetry_Int_Tables_number	1
_symmetry_cell_setting	triclinic
loop_
_symmetry_equiv_pos_as_xyz
  x,y,z
_cell_length_a	18.215405
_cell_length_b	12.759401
_cell_length_c	12.759393
_cell_angle_alpha	89.979434
_cell_angle_beta	90.036495
_cell_angle_gamma	89.976906
loop_
_atom_site_label
_atom_site_type_symbol
_atom_site_fract_x
_atom_site_fract_y
_atom_site_fract_z
Zn1	Zn	-0.292984	-1.606192	0.593966
Zn2	Zn	0.040349	-1.272859	0.927299
Zn3	Zn	0.373683	-0.939525	1.260632
Zn4	Zn	-0.416068	-1.606052	0.418268
Zn5	Zn	-0.082735	-1.272718	0.751601
Zn6	Zn	0.250599	-0.939385	1.084934
Zn7	Zn	-0.293016	-1.430491	0.418302
Zn8	Zn	0.040317	-1.097157	0.751635
Zn9	Zn	0.373651	-0.763824	1.084969
Zn10	Zn	-0.416009	-1.430451	0.593906
Zn11	Zn	-0.082676	-1.097118	0.927239
Zn12	Zn	0.250657	-0.763785	1.260573
O13	O	-0.354519	-1.518296	0.506110
O14	O	-0.021186	-1.184963	0.839444
O15	O	0.312147	-0.851630	1.172777
O16	O	-0.309322	-1.753194	0.570670
O17	O	0.024011	-1.419861	0.904003
O18	O	0.357344	-1.086528	1.237336
O19	O	-0.399783	-1.582721	0.271251
O20	O	-0.066449	-1.249388	0.604584
O21	O	0.266884	-0.916054	0.937918
O22	O	-0.190027	-1.453873	0.441644
O23	O	0.143306	-1.120540	0.774977
O24	O	0.476639	-0.787206	1.108311
O25	O	-0.399752	-1.753091	0.441585
O26	O	-0.066418	-1.419758	0.774918
O27	O	0.266915	-1.086425	1.108252
O28	O	-0.190004	-1.582960	0.570703
O29	O	0.143330	-1.249627	0.904037
O30	O	0.476663	-0.916293	1.237370
O31	O	-0.309377	-1.453737	0.271276
O32	O	0.023956	-1.120404	0.604610
O33	O	0.357290	-0.787070	0.937943
O34	O	-0.309320	-1.283464	0.441586
O35	O	0.024013	-0.950131	0.774919
O36	O	0.357347	-0.616798	1.108252
O37	O	-0.399652	-1.453806	0.740935
O38	O	-0.066319	-1.120473	1.074268
O39	O	0.267015	-0.787139	1.407602
O40	O	-0.399683	-1.283436	0.570601
O41	O	-0.066350	-0.950102	0.903934
O42	O	0.266984	-0.616769	1.237268
O43	O	-0.309266	-1.582922	0.740979
O44	O	0.024068	-1.249588	1.074312
O45	O	0.357401	-0.916255	1.407646
O46	O	-0.519044	-1.582683	0.441527
O47	O	-0.185711	-1.249350	0.774860
O48	O	0.147622	-0.916016	1.108193
O49	O	-0.519001	-1.453670	0.570568
O50	O	-0.185668	-1.120337	0.903901
O51	O	0.147665	-0.787003	1.237234
C52	C	-0.354499	-1.245329	0.506091
C53	C	-0.021166	-0.911996	0.839425
C54	C	0.312167	-0.578662	1.172758
C55	C	-0.354508	-1.128552	0.506108
C56	C	-0.021175	-0.795219	0.839441
C57	C	0.312158	-0.461886	1.172775
C58	C	-0.307505	-1.073745	0.573425
C59	C	0.025828	-0.740411	0.906759
C60	C	0.359161	-0.407078	1.240092
C61	C	-0.307510	-0.964021	0.573430
C62	C	0.025823	-0.630687	0.906764
C63	C	0.359157	-0.297354	1.240097
C64	C	-0.401527	-0.963922	0.438798
C65	C	-0.068193	-0.630588	0.772132
C66	C	0.265140	-0.297255	1.105465
C67	C	-0.401518	-1.073644	0.438789
C68	C	-0.068185	-0.740310	0.772122
C69	C	0.265149	-0.406977	1.105455
C70	C	-0.545726	-1.518186	0.506060
C71	C	-0.212392	-1.184852	0.839393
C72	C	0.120941	-0.851519	1.172726
C73	C	-0.627524	-1.518234	0.506073
C74	C	-0.294191	-1.184901	0.839407
C75	C	0.039142	-0.851567	1.172740
C76	C	-0.815716	-1.585569	0.439005
C77	C	-0.482383	-1.252236	0.772339
C78	C	-0.149050	-0.918902	1.105672
C79	C	-0.892575	-1.585616	0.439031
C80	C	-0.559242	-1.252283	0.772364
C81	C	-0.225908	-0.918949	1.105698
C82	C	-0.892570	-1.451158	0.573291
C83	C	-0.559237	-1.117825	0.906624
C84	C	-0.225903	-0.784492	1.239957
C85	C	-0.815713	-1.451117	0.573270
C86	C	-0.482380	-1.117784	0.906603
C87	C	-0.149046	-0.784451	1.239937
C88	C	-0.777288	-1.518321	0.506121
C89	C	-0.443955	-1.184988	0.839455
C90	C	-0.110621	-0.851655	1.172788
C91	C	-0.931004	-1.518409	0.506168
C92	C	-0.597671	-1.185076	0.839501
C93	C	-0.264337	-0.851742	1.172834
C94	C	-1.014338	-1.518460	0.506196
C95	C	-0.681004	-1.185126	0.839529
C96	C	-0.347671	-0.851793	1.172862
C97	C	-0.693949	-1.518272	0.506094
C98	C	-0.360616	-1.184939	0.839428
C99	C	-0.027282	-0.851606	1.172761
C100	C	-0.162566	-1.518436	0.506184
C101	C	0.170767	-1.185103	0.839517
C102	C	0.504100	-0.851770	1.172851
C103	C	-0.080767	-1.518496	0.506215
C104	C	0.252566	-1.185163	0.839549
C105	C	0.585899	-0.851829	1.172882
C106	C	-0.354449	-1.518375	0.780144
C107	C	-0.021115	-1.185042	1.113477
C108	C	0.312218	-0.851708	1.446810
C109	C	-0.354418	-1.518409	0.896921
C110	C	-0.021085	-1.185075	1.230254
C111	C	0.312248	-0.851742	1.563587
C112	C	-0.354533	-0.792330	0.506126
C113	C	-0.021200	-0.458996	0.839460
C114	C	0.312134	-0.125663	1.172793
C115	C	-0.354522	-0.909106	0.506123
C116	C	-0.021188	-0.575773	0.839456
C117	C	0.312145	-0.242440	1.172790
C118	C	-0.354537	-1.518279	0.233143
C119	C	-0.021203	-1.184945	0.566476
C120	C	0.312130	-0.851612	0.899810
C121	C	-0.354359	-1.518449	0.116367
C122	C	-0.021026	-1.185115	0.449700
C123	C	0.312307	-0.851782	0.783034
C124	C	-0.307347	-1.585644	0.951807
C125	C	0.025987	-1.252311	1.285140
C126	C	0.359320	-0.918978	1.618474
C127	C	-0.307315	-1.585662	1.061531
C128	C	0.026018	-1.252329	1.394865
C129	C	0.359352	-0.918995	1.728198
C130	C	-0.401433	-1.451206	1.061473
C131	C	-0.068100	-1.117872	1.394806
C132	C	0.265234	-0.784539	1.728139
C133	C	-0.401461	-1.451183	0.951750
C134	C	-0.068127	-1.117850	1.285084
C135	C	0.265206	-0.784517	1.618417
H136	H	-0.439794	-1.118269	0.383965
H137	H	-0.106461	-0.784936	0.717299
H138	H	0.226873	-0.451603	1.050632
H139	H	-0.923865	-1.396442	0.627959
H140	H	-0.590532	-1.063109	0.961293
H141	H	-0.257198	-0.729775	1.294626
O142	O	-0.452232	-0.904701	0.366196
O143	O	-0.118899	-0.571367	0.699529
O144	O	0.214434	-0.238034	1.032862
H145	H	-0.444348	-0.819196	0.377517
H146	H	-0.111014	-0.485862	0.710850
H147	H	0.222319	-0.152529	1.044184
H148	H	-0.269234	-0.919401	0.628245
H149	H	0.064099	-0.586068	0.961579
H150	H	0.397432	-0.252734	1.294912
O151	O	-0.774268	-1.658061	0.366598
O152	O	-0.440935	-1.324728	0.699931
O153	O	-0.107602	-0.991394	1.033264
H154	H	-0.813906	-1.704839	0.319942
H155	H	-0.480572	-1.371505	0.653275
H156	H	-0.147239	-1.038172	0.986608
O157	O	-0.934026	-1.658141	0.366637
O158	O	-0.600692	-1.324807	0.699970
O159	O	-0.267359	-0.991474	1.033303
H160	H	-0.894392	-1.704855	0.319938
H161	H	-0.561058	-1.371522	0.653271
H162	H	-0.227725	-1.038189	0.986605
O163	O	-0.774256	-1.378568	0.645646
O164	O	-0.440923	-1.045234	0.978980
O165	O	-0.107590	-0.711901	1.312313
H166	H	-0.813886	-1.331827	0.692326
H167	H	-0.480553	-0.998494	1.025660
H168	H	-0.147220	-0.665160	1.358993
H169	H	-0.269040	-1.640381	0.907168
H170	H	0.064293	-1.307047	1.240501
H171	H	0.397627	-0.973714	1.573835
H172	H	-0.268983	-1.640410	1.106215
H173	H	0.064350	-1.307077	1.439548
H174	H	0.397683	-0.973744	1.772882
H175	H	-0.439791	-1.396425	0.907061
H176	H	-0.106458	-1.063091	1.240394
H177	H	0.226875	-0.729758	1.573727
O178	O	-0.256795	-1.132973	0.646015
O179	O	0.076538	-0.799640	0.979348
O180	O	0.409872	-0.466306	1.312682
H181	H	-0.224105	-1.076423	0.692816
H182	H	0.109228	-0.743090	1.026149
H183	H	0.442561	-0.409757	1.359483
O184	O	-0.452171	-1.378701	1.120609
O185	O	-0.118838	-1.045368	1.453942
O186	O	0.214495	-0.712035	1.787275
H187	H	-0.444249	-1.390017	1.206127
H188	H	-0.110916	-1.056683	1.539461
H189	H	0.222417	-0.723350	1.872794
