data_functionalizedCrystal
_audit_creation_method	'MofGen! by Chris Wilmer'
_symmetry_space_group_name_H-M	'P1'
_symmetry_Int_Tables_number	1
_symmetry_cell_setting	triclinic
loop_
_symmetry_equiv_pos_as_xyz
  x,y,z
_cell_length_a	12.837943
_cell_length_b	10.654541
_cell_length_c	11.892095
_cell_angle_alpha	93.927124
_cell_angle_beta	85.689438
_cell_angle_gamma	89.656434
loop_
_atom_site_label
_atom_site_type_symbol
_atom_site_fract_x
_atom_site_fract_y
_atom_site_fract_z
O1	O	1.384375	0.319511	-0.093982
O2	O	1.082454	0.303370	-0.093989
O3	O	1.240357	0.129459	-0.093979
O4	O	1.226472	0.493422	-0.093993
O5	O	1.227191	0.143935	0.094028
O6	O	1.069288	0.317845	0.094017
O7	O	1.371209	0.333987	0.094024
Zn8	Zn	1.218158	0.328214	0.123871
Zn9	Zn	1.235505	0.309142	-0.123836
O10	O	1.213306	0.507897	0.094014
C11	C	1.037212	0.305155	0.000013
C12	C	0.922018	0.288892	0.000011
C13	C	0.682463	0.484397	0.000020
C14	C	0.574228	0.469123	0.000018
C15	C	0.597309	0.243071	0.000015
C16	C	0.705544	0.258345	0.000016
C17	C	0.748117	0.379012	0.000017
C18	C	0.856355	0.394285	0.000010
C19	C	0.879434	0.168234	0.000015
C20	C	0.771199	0.152960	0.000014
C21	C	1.232755	0.089788	0.000024
C22	C	1.229707	-0.049989	0.000022
C23	C	1.418522	-0.057354	0.000040
C24	C	1.511493	-0.126702	0.000052
C25	C	1.508622	-0.258033	0.000048
C26	C	1.412770	-0.320020	0.000030
C27	C	1.319799	-0.250672	0.000018
C28	C	1.322680	-0.119337	0.000025
C29	C	1.130987	-0.243308	-0.000008
C30	C	1.133855	-0.111975	0.000003
C31	C	1.035135	-0.305294	-0.000027
C32	C	0.942161	-0.235946	-0.000030
C33	C	0.945036	-0.104606	-0.000025
C34	C	1.040884	-0.042627	-0.000008
C35	C	1.416452	0.332202	0.000019
C36	C	1.531646	0.348464	0.000014
C37	C	1.220908	0.547569	0.000009
C38	C	1.223958	0.687344	0.000003
N39	N	1.206327	0.341231	0.292924
N40	N	1.247344	0.296117	-0.292889
C41	C	1.329669	0.205471	0.529580
C42	C	1.321407	0.214579	0.647922
C43	C	1.181537	0.368549	0.647950
C44	C	1.189799	0.359440	0.529609
C45	C	1.263869	0.277900	0.470428
C46	C	1.272135	0.268799	0.352085
C47	C	1.132260	0.422761	0.352116
C48	C	1.123998	0.431869	0.470457
H49	H	0.932903	0.082421	0.000005
H50	H	0.562620	0.144837	0.000108
H51	H	1.410442	-0.426958	0.000013
C52	C	1.453114	0.214526	0.780975
C53	C	1.393738	0.134965	0.712944
H54	H	1.497763	0.165369	0.821121
H55	H	1.494031	0.267769	0.734799
H56	H	1.407812	0.264383	0.833157
H57	H	1.439040	0.085114	0.660756
H58	H	1.352817	0.081701	0.759124
H59	H	1.121224	0.434927	0.696151
C60	C	1.467259	0.136201	0.096714
C61	C	1.421680	0.087009	0.000055
H62	H	1.469215	0.225324	0.096717
H63	H	1.427138	0.112890	0.162254
H64	H	1.536345	0.103763	0.096712
H65	H	1.352591	0.119440	0.000061
H66	H	1.461801	0.110331	-0.065502
H67	H	0.520775	0.554939	0.000023
C68	C	0.986831	0.154947	0.096642
C69	C	1.044049	0.101734	0.000002
H70	H	0.988796	0.244070	0.096648
H71	H	0.916451	0.127966	0.096620
H72	H	1.016456	0.128906	0.162202
H73	H	1.014419	0.127768	-0.065558
H74	H	1.114443	0.128727	0.000014
H75	H	0.717126	0.582649	0.000018
H76	H	1.389987	0.139087	0.481394
C77	C	0.669637	-0.002786	-0.096643
C78	C	0.724397	0.020327	0.000006
H79	H	0.640752	-0.084673	-0.096651
H80	H	0.615048	0.057785	-0.096628
H81	H	0.715981	0.002836	-0.162196
H82	H	0.678051	0.014714	0.065560
H83	H	0.778993	-0.040261	0.000002
C84	C	1.695554	-0.252135	0.000077
C85	C	1.610815	-0.334268	0.000062
H86	H	1.758641	-0.299202	0.000092
H87	H	1.697349	-0.205805	-0.065481
H88	H	1.688147	-0.195710	0.065644
H89	H	1.618218	-0.390687	-0.065510
H90	H	1.609021	-0.380620	0.065626
H91	H	1.063689	0.498255	0.518656
C92	C	1.409550	0.117511	0.363947
C93	C	1.353546	0.179166	0.287029
H94	H	1.459804	0.062167	0.323785
H95	H	1.444024	0.177870	0.410091
H96	H	1.362801	0.070664	0.410118
H97	H	1.400294	0.226021	0.240864
H98	H	1.319071	0.118799	0.240866
H99	H	1.589533	-0.076217	0.000077
H100	H	1.032804	-0.412232	-0.000037
C101	C	1.075449	0.630228	0.315703
C102	C	1.059927	0.502388	0.287096
H103	H	1.030800	0.679387	0.275557
H104	H	1.059925	0.647305	0.394644
H105	H	1.146147	0.650695	0.296289
H106	H	0.989230	0.481919	0.306518
H107	H	1.075443	0.485305	0.208138
C108	C	0.876761	0.584235	-0.096627
C109	C	0.903151	0.526921	0.000014
H110	H	0.905643	0.666124	-0.096616
H111	H	0.903837	0.535263	-0.162179
H112	H	0.802901	0.590206	-0.096614
H113	H	0.977011	0.520941	-0.000004
H114	H	0.876079	0.575905	0.065583
H115	H	0.864127	-0.286426	-0.000053
H116	H	0.869327	-0.048151	-0.000040
