data_functionalizedCrystal
_audit_creation_method	'MofGen! by Chris Wilmer'
_symmetry_space_group_name_H-M	'P1'
_symmetry_Int_Tables_number	1
_symmetry_cell_setting	triclinic
loop_
_symmetry_equiv_pos_as_xyz
  x,y,z
_cell_length_a	23.532407
_cell_length_b	22.610064
_cell_length_c	23.532407
_cell_angle_alpha	90.004436
_cell_angle_beta	82.848713
_cell_angle_gamma	90.002839
loop_
_atom_site_label
_atom_site_type_symbol
_atom_site_fract_x
_atom_site_fract_y
_atom_site_fract_z
O1	O	0.755264	0.049122	0.069127
O2	O	0.589400	0.049140	0.079130
O3	O	0.677333	0.049114	-0.008803
O4	O	0.667330	0.049148	0.157060
O5	O	0.677318	-0.049255	-0.008790
O6	O	0.589385	-0.049229	0.079143
O7	O	0.755248	-0.049248	0.069140
Zn8	Zn	0.672314	-0.064856	0.074144
Zn9	Zn	0.672334	0.064749	0.074127
O10	O	0.667315	-0.049221	0.157073
C11	C	0.568176	-0.000042	0.078882
C12	C	0.504959	-0.000036	0.078116
N13	N	0.672304	-0.153309	0.074155
C14	C	0.105856	-0.000053	0.125350
C15	C	0.046456	-0.000056	0.124638
O16	O	0.009711	-0.000069	0.168424
N17	N	0.023830	-0.000066	0.072362
C18	C	0.060607	-0.000078	0.020794
O19	O	0.035908	-0.000088	-0.023737
C20	C	0.120006	-0.000079	0.021506
C21	C	0.142629	-0.000063	0.073785
C22	C	0.128480	-0.000037	0.177625
C23	C	0.187876	-0.000033	0.178336
C24	C	0.224649	-0.000043	0.126772
C25	C	0.202025	-0.000058	0.074497
C26	C	0.156783	-0.000095	-0.030062
C27	C	0.216185	-0.000096	-0.029345
C28	C	0.238808	-0.000080	0.022934
C29	C	0.298194	-0.000063	0.023643
N30	N	0.320821	-0.000054	0.075920
C31	C	0.284048	-0.000043	0.127484
C32	C	-0.064135	-0.000078	0.019302
C33	C	-0.123533	-0.000074	0.018589
C34	C	-0.137680	-0.000053	0.122434
C35	C	-0.078281	-0.000053	0.123146
C36	C	-0.041509	-0.000069	0.071578
C37	C	0.408784	-0.000033	0.128974
C38	C	0.468186	-0.000025	0.129680
C39	C	0.482329	-0.000049	0.025836
C40	C	0.422932	-0.000053	0.025129
C41	C	0.386160	-0.000047	0.076702
O42	O	0.334974	-0.000053	-0.020119
O43	O	0.308756	-0.000042	0.172007
C44	C	0.711273	-0.561962	0.035196
C45	C	0.711276	-0.623882	0.035192
O46	O	0.744384	-0.655911	0.002076
N47	N	0.672334	-0.654846	0.074115
C48	C	0.633383	-0.623887	0.113041
O49	O	0.600260	-0.655910	0.146147
C50	C	0.633378	-0.561968	0.113042
C51	C	0.672326	-0.531007	0.074120
C52	C	0.750218	-0.531001	-0.003724
C53	C	0.750215	-0.469086	-0.003719
C54	C	0.711268	-0.438131	0.035206
C55	C	0.672323	-0.469092	0.074125
C56	C	0.594424	-0.531010	0.151965
C57	C	0.594422	-0.469087	0.151962
C58	C	0.633370	-0.438126	0.113040
C59	C	0.633374	-0.376221	0.113054
N60	N	0.672316	-0.345257	0.074131
C61	C	0.711263	-0.376212	0.035207
C62	C	0.633396	-0.753921	0.113035
C63	C	0.633403	-0.815838	0.113037
C64	C	0.711296	-0.815829	0.035187
C65	C	0.711291	-0.753910	0.035188
C66	C	0.672338	-0.722957	0.074112
C67	C	0.711255	-0.246185	0.035220
C68	C	0.711251	-0.184264	0.035230
C69	C	0.633357	-0.184278	0.113078
C70	C	0.633363	-0.246194	0.113071
C71	C	0.672314	-0.277146	0.074137
O72	O	0.600281	-0.344153	0.146151
O73	O	0.744376	-0.344181	0.002101
C74	C	0.776472	-0.000064	0.069388
C75	C	0.839689	-0.000066	0.070154
C76	C	0.677071	-0.000074	-0.030013
C77	C	0.676305	-0.000083	-0.093230
N78	N	0.672349	0.153202	0.074111
C79	C	0.621110	-0.000039	-0.359397
C80	C	0.621821	-0.000044	-0.299997
O81	O	0.578035	-0.000020	-0.263252
N82	N	0.674097	-0.000057	-0.277371
C83	C	0.725666	-0.000059	-0.314148
O84	O	0.770196	-0.000070	-0.289449
C85	C	0.724954	-0.000050	-0.373547
C86	C	0.672674	-0.000043	-0.396170
C87	C	0.568834	-0.000032	-0.382020
C88	C	0.568123	-0.000029	-0.441417
C89	C	0.619687	-0.000032	-0.478189
C90	C	0.671963	-0.000040	-0.455566
C91	C	0.776521	-0.000048	-0.410324
C92	C	0.775805	-0.000039	-0.469726
C93	C	0.723525	-0.000032	-0.492349
C94	C	0.722816	-0.000040	-0.551735
N95	N	0.670539	-0.000027	-0.574361
C96	C	0.618975	-0.000024	-0.537589
C97	C	0.727157	-0.000077	-0.189406
C98	C	0.727870	-0.000090	-0.130008
C99	C	0.624025	-0.000074	-0.115860
C100	C	0.623313	-0.000065	-0.175260
C101	C	0.674881	-0.000064	-0.212032
C102	C	0.617486	-0.000017	-0.662325
C103	C	0.616779	-0.000016	-0.721727
C104	C	0.720623	-0.000028	-0.735869
C105	C	0.721330	-0.000033	-0.676473
C106	C	0.669757	-0.000025	-0.639701
O107	O	0.766579	-0.000061	-0.588514
O108	O	0.574452	-0.000005	-0.562296
C109	C	0.667577	-0.000032	0.178283
C110	C	0.668343	-0.000019	0.241500
H111	H	0.378852	-0.000029	0.170970
C112	C	-0.053691	0.000083	0.179891
C113	C	-0.020012	0.050699	0.183336
C114	C	0.002638	0.050849	0.235606
H115	H	-0.030779	-0.034180	0.182393
H116	H	-0.084089	0.000123	0.210512
H117	H	0.010381	0.050654	0.152724
H118	H	-0.042912	0.084971	0.180844
H119	H	-0.027759	0.050889	0.266227
H120	H	0.025548	0.016583	0.238104
H121	H	0.025488	0.085194	0.237953
H122	H	0.582038	-0.000071	-0.085909
H123	H	0.574205	-0.000013	-0.740143
H124	H	0.246123	-0.000109	-0.071339
C125	C	0.778047	0.000048	-0.651826
C126	C	0.781489	0.050650	-0.618125
C127	C	0.833725	0.050746	-0.595409
H128	H	0.808705	0.000074	-0.682175
H129	H	0.780483	-0.034237	-0.628917
H130	H	0.779059	0.084926	-0.641033
H131	H	0.750843	0.050634	-0.587767
H132	H	0.836161	0.016461	-0.572500
H133	H	0.864379	0.050771	-0.625762
H134	H	0.836065	0.085076	-0.572536
C135	C	0.088532	-0.000143	0.233597
C136	C	0.054019	-0.050755	0.236249
C137	C	0.017222	-0.050870	0.287809
H138	H	0.065017	0.034123	0.235529
H139	H	0.110501	-0.000165	0.264844
H140	H	0.032053	-0.050727	0.205011
H141	H	0.077518	-0.085029	0.234327
H142	H	0.039191	-0.050893	0.319056
H143	H	-0.006289	-0.016602	0.289736
H144	H	-0.006195	-0.085213	0.289618
H145	H	0.601677	-0.728721	0.144736
H146	H	0.404512	-0.000058	-0.017441
H147	H	0.138374	-0.000108	-0.072634
C148	C	0.522234	0.000061	-0.030163
C149	C	0.512073	0.050668	-0.061667
C150	C	0.548830	0.050790	-0.113253
H151	H	0.515443	-0.034209	-0.051676
H152	H	0.560857	0.000096	-0.022270
H153	H	0.473459	0.050628	-0.069562
H154	H	0.518868	0.084946	-0.040172
H155	H	0.587453	0.050825	-0.105359
H156	H	0.542035	0.016518	-0.134761
H157	H	0.541944	0.085128	-0.134632
C158	C	0.753564	-0.150757	-0.007096
C159	C	0.787660	-0.191123	-0.041195
C160	C	0.826638	-0.160281	-0.080196
H161	H	0.777209	-0.126598	0.013205
H162	H	0.733228	-0.126617	-0.030731
H163	H	0.807995	-0.215253	-0.017563
H164	H	0.764031	-0.215284	-0.061507
H165	H	0.806301	-0.136142	-0.103831
H166	H	0.850278	-0.136123	-0.059891
H167	H	0.849773	-0.187665	-0.103340
H168	H	0.742973	-0.271379	0.003516
H169	H	-0.167632	-0.000047	0.164421
H170	H	0.486602	-0.000012	0.172255
H171	H	-0.141947	-0.000077	-0.023982
H172	H	0.743005	-0.728705	0.003494
H173	H	0.769152	-0.000080	-0.219343
C174	C	0.591169	-0.279841	0.155397
C175	C	0.621300	-0.315379	0.190116
C176	C	0.582446	-0.346370	0.229115
H177	H	0.567563	-0.304042	0.135094
H178	H	0.567984	-0.252551	0.178612
H179	H	0.644475	-0.342666	0.166904
H180	H	0.644905	-0.291192	0.210431
H181	H	0.559261	-0.319081	0.252330
H182	H	0.558841	-0.370568	0.208808
H183	H	0.602884	-0.370483	0.252680
H184	H	0.781929	-0.443881	-0.035414
H185	H	0.206289	-0.000019	0.220908
C186	C	0.552065	-0.435450	0.194135
C187	C	0.517365	-0.399917	0.163977
C188	C	0.478337	-0.368930	0.202808
H189	H	0.572345	-0.411246	0.217759
H190	H	0.528840	-0.462743	0.217305
H191	H	0.540588	-0.372628	0.140817
H192	H	0.497073	-0.424107	0.140356
H193	H	0.455112	-0.396223	0.225978
H194	H	0.498622	-0.344729	0.226430
H195	H	0.454785	-0.344822	0.182352
C196	C	0.792573	-0.564495	-0.046012
C197	C	0.826682	-0.524116	-0.080081
C198	C	0.865718	-0.554944	-0.119037
H199	H	0.772300	-0.588658	-0.069677
H200	H	0.816199	-0.588630	-0.025660
H201	H	0.803060	-0.499992	-0.100432
H202	H	0.846968	-0.499952	-0.056432
H203	H	0.889343	-0.579079	-0.098685
H204	H	0.845439	-0.579106	-0.142698
H205	H	0.888868	-0.527552	-0.142154
H206	H	-0.034198	-0.000085	-0.022693
C207	C	0.590981	-0.150740	0.155309
C208	C	0.535074	-0.165817	0.146361
C209	C	0.496018	-0.134938	0.185256
H210	H	0.596478	-0.109421	0.149775
H211	H	0.596909	-0.160895	0.193302
H212	H	0.529147	-0.155658	0.108378
H213	H	0.529558	-0.207131	0.151900
H214	H	0.501947	-0.145093	0.223248
H215	H	0.501521	-0.093620	0.179718
H216	H	0.458082	-0.145168	0.179193
C217	C	0.831752	-0.000131	-0.509717
C218	C	0.834368	-0.050730	-0.544248
C219	C	0.885894	-0.050833	-0.581097
H220	H	0.863033	-0.000167	-0.487804
H221	H	0.833643	0.034156	-0.533211
H222	H	0.832482	-0.085009	-0.520756
H223	H	0.803099	-0.050705	-0.566173
H224	H	0.887785	-0.016545	-0.604592
H225	H	0.917171	-0.050866	-0.559180
H226	H	0.887673	-0.085160	-0.604535
H227	H	0.743008	-0.841044	0.003492
H228	H	0.819093	-0.000053	-0.391915
H229	H	0.601694	-0.841042	0.144737
C230	C	0.552071	-0.564507	0.194249
C231	C	0.517955	-0.524133	0.228319
C232	C	0.478925	-0.554968	0.267274
H233	H	0.572348	-0.588661	0.217912
H234	H	0.528450	-0.588651	0.173895
H235	H	0.541573	-0.500000	0.248671
H236	H	0.497664	-0.499978	0.204671
H237	H	0.455304	-0.579112	0.246920
H238	H	0.499207	-0.579121	0.290934
H239	H	0.455769	-0.527579	0.290392
H240	H	0.762606	-0.000034	-0.765820
C241	C	0.784690	-0.000073	-0.105561
C242	C	0.829691	-0.000062	-0.150485
C243	C	0.882043	-0.000035	-0.127989
H244	H	0.787205	-0.034369	-0.082696
H245	H	0.787165	0.034242	-0.082697
H246	H	0.827217	-0.034374	-0.173340
H247	H	0.827195	0.034231	-0.173354
H248	H	0.884519	0.034281	-0.105126
H249	H	0.884552	-0.034331	-0.105125
H250	H	0.912583	-0.000021	-0.158467
H251	H	0.575489	-0.000010	-0.632392
C252	C	0.511302	0.000016	-0.465862
C253	C	0.466303	0.000035	-0.420936
C254	C	0.413949	0.000086	-0.443428
H255	H	0.508772	-0.034275	-0.488736
H256	H	0.508839	0.034337	-0.488716
H257	H	0.468765	-0.034283	-0.398092
H258	H	0.468815	0.034323	-0.398058
H259	H	0.411487	0.034407	-0.466282
H260	H	0.411425	-0.034205	-0.466302
H261	H	0.383412	0.000104	-0.412949
C262	C	0.512905	0.000000	-0.342007
C263	C	0.524703	0.000004	-0.285141
C264	C	0.473191	0.000037	-0.248269
H265	H	0.491411	-0.034291	-0.348773
H266	H	0.491456	0.034321	-0.348798
H267	H	0.546142	-0.034313	-0.278352
H268	H	0.546188	0.034293	-0.278357
H269	H	0.451743	0.034358	-0.255060
H270	H	0.451702	-0.034254	-0.255040
H271	H	0.481189	0.000046	-0.209681
H272	H	0.580742	-0.000062	-0.193674
