data_functionalizedCrystal
_audit_creation_method	'MofGen! by Chris Wilmer'
_symmetry_space_group_name_H-M	'P1'
_symmetry_Int_Tables_number	1
_symmetry_cell_setting	triclinic
loop_
_symmetry_equiv_pos_as_xyz
  x,y,z
_cell_length_a	19.188905
_cell_length_b	19.188930
_cell_length_c	16.776229
_cell_angle_alpha	89.988225
_cell_angle_beta	89.985731
_cell_angle_gamma	83.139668
loop_
_atom_site_label
_atom_site_type_symbol
_atom_site_fract_x
_atom_site_fract_y
_atom_site_fract_z
O1	O	0.926158	0.087086	-0.066428
O2	O	1.426158	0.587086	0.433572
O3	O	0.722845	0.098839	-0.066402
O4	O	1.222845	0.598839	0.433598
O5	O	0.830369	-0.008694	-0.066401
O6	O	1.330369	0.491306	0.433599
O7	O	0.818634	0.194618	-0.066430
O8	O	1.318634	0.694618	0.433570
O9	O	0.830355	-0.008700	0.066176
O10	O	1.330355	0.491300	0.566176
O11	O	0.722830	0.098832	0.066174
O12	O	1.222830	0.598832	0.566174
O13	O	0.926144	0.087079	0.066148
O14	O	1.426144	0.587079	0.566148
Zn15	Zn	0.824485	0.092955	0.087210
Zn16	Zn	1.324485	0.592955	0.587210
Zn17	Zn	0.824504	0.092963	-0.087465
Zn18	Zn	1.324504	0.592963	0.412535
O19	O	0.818620	0.194612	0.066146
O20	O	1.318620	0.694612	0.566146
C21	C	0.696826	0.098458	-0.000111
C22	C	1.196826	0.598458	0.499889
C23	C	0.619321	0.097324	-0.000100
C24	C	1.119321	0.597324	0.499900
C25	C	0.582937	0.096783	-0.072369
C26	C	1.082937	0.596783	0.427631
C27	C	0.510113	0.095710	-0.072379
C28	C	1.010113	0.595710	0.427621
C29	C	0.473678	0.095164	-0.000115
C30	C	0.973678	0.595164	0.499885
C31	C	0.510071	0.095709	0.072164
C32	C	1.010071	0.595709	0.572164
C33	C	0.582892	0.096789	0.072171
C34	C	1.082892	0.596789	0.572171
N35	N	0.364652	0.053733	0.053670
N36	N	0.864652	0.553733	0.553670
N37	N	0.295475	0.052705	0.053657
N38	N	0.795475	0.552705	0.553657
C39	C	0.254272	0.091911	-0.000134
C40	C	0.754272	0.591911	0.499866
N41	N	0.284859	0.132175	-0.053925
N42	N	0.784859	0.632175	0.446075
N43	N	0.354043	0.133199	-0.053915
N44	N	0.854043	0.633199	0.446085
C45	C	0.394716	0.093993	-0.000116
C46	C	0.894716	0.593993	0.499884
C47	C	0.138924	0.090208	-0.072419
C48	C	0.638924	0.590208	0.427581
C49	C	0.066098	0.089139	-0.072426
C50	C	0.566098	0.589139	0.427574
C51	C	0.066058	0.089131	0.072119
C52	C	0.566058	0.589131	0.572119
C53	C	0.138881	0.090207	0.072124
C54	C	0.638881	0.590207	0.572124
C55	C	0.175310	0.090742	-0.000148
C56	C	0.675310	0.590742	0.499852
C57	C	0.829982	-0.034708	-0.000110
C58	C	1.329982	0.465292	0.499890
C59	C	0.828841	-0.112213	-0.000103
C60	C	1.328841	0.387787	0.499897
C61	C	0.891933	-0.157142	-0.000107
C62	C	1.391933	0.342858	0.499893
C63	C	0.890861	-0.229966	-0.000120
C64	C	1.390861	0.270034	0.499880
C65	C	0.826694	-0.257857	-0.000112
C66	C	1.326694	0.242143	0.499888
C67	C	0.763594	-0.212917	-0.000112
C68	C	1.263594	0.287083	0.499888
C69	C	0.764668	-0.140095	-0.000108
C70	C	1.264668	0.359905	0.499892
N71	N	0.777641	-0.365859	0.045012
N72	N	1.277641	0.134141	0.545012
N73	N	0.776626	-0.435038	0.045010
N74	N	1.276626	0.064962	0.545010
C75	C	0.823456	-0.477265	-0.000128
C76	C	1.323456	0.022735	0.499872
N77	N	0.871350	-0.447702	-0.045253
N78	N	1.371350	0.052298	0.454747
N79	N	0.872368	-0.378517	-0.045246
N80	N	1.372368	0.121483	0.454754
C81	C	0.825523	-0.336819	-0.000118
C82	C	1.325523	0.163181	0.499882
C83	C	0.885390	-0.601159	-0.000147
C84	C	1.385390	-0.101159	0.499853
C85	C	0.884315	-0.673984	-0.000165
C86	C	1.384315	-0.173984	0.499835
C87	C	0.757047	-0.656933	-0.000149
C88	C	1.257047	-0.156933	0.499851
C89	C	0.758123	-0.584110	-0.000140
C90	C	1.258123	-0.084110	0.499860
C91	C	0.822296	-0.556228	-0.000135
C92	C	1.322296	-0.056228	0.499865
C93	C	0.952163	0.087460	-0.000145
C94	C	1.452163	0.587460	0.499855
C95	C	1.029668	0.088594	-0.000161
C96	C	1.529668	0.588594	0.499839
C97	C	0.819007	0.220626	-0.000146
C98	C	1.319007	0.720626	0.499854
C99	C	0.820148	0.298131	-0.000158
C100	C	1.320148	0.798131	0.499842
N101	N	0.824477	0.092948	0.206422
N102	N	1.324477	0.592948	0.706422
N103	N	0.824517	0.092964	-0.206676
N104	N	1.324517	0.592964	0.293324
C105	C	0.872103	0.045352	0.248140
C106	C	1.372103	0.545352	0.748140
C107	C	0.872107	0.045352	0.331592
C108	C	1.372107	0.545352	0.831592
C109	C	0.824488	0.092951	0.373325
C110	C	1.324488	0.592951	0.873325
C111	C	0.776857	0.140549	0.331601
C112	C	1.276857	0.640549	0.831601
C113	C	0.776850	0.140546	0.248150
C114	C	1.276850	0.640546	0.748150
C115	C	0.776882	0.140563	0.668148
C116	C	1.276882	0.640563	1.168148
C117	C	0.776894	0.140564	0.751605
C118	C	1.276894	0.640564	1.251605
C119	C	0.872139	0.045369	0.751590
C120	C	1.372139	0.545369	1.251590
C121	C	0.872133	0.045366	0.668139
C122	C	1.372133	0.545366	1.168139
C123	C	0.824499	0.092961	0.626423
C124	C	1.324499	0.592961	1.126423
C125	C	0.824495	0.092960	0.535934
C126	C	1.324495	0.592960	1.035934
C127	C	0.824495	0.092956	0.463811
C128	C	1.324495	0.592956	0.963811
H129	H	0.168585	0.090651	-0.131267
H130	H	0.668585	0.590651	0.368733
H131	H	0.168506	0.090643	0.130973
H132	H	0.668506	0.590643	0.630973
H133	H	0.480483	0.095270	-0.131232
H134	H	0.980483	0.595270	0.368768
Br135	Br	0.936764	-0.019231	0.611504
Br136	Br	1.436764	0.480769	1.111504
H137	H	0.612593	0.097219	-0.131218
H138	H	1.112593	0.597219	0.368782
H139	H	0.706747	-0.547527	-0.000132
H140	H	1.206747	-0.047527	0.499868
H141	H	0.738067	0.179302	0.214184
H142	H	1.238067	0.679302	0.714184
H143	H	0.480400	0.095266	0.131001
H144	H	0.980400	0.595266	0.631001
H145	H	0.612515	0.097230	0.131024
H146	H	1.112515	0.597230	0.631024
H147	H	0.910884	0.006595	0.214166
H148	H	1.410884	0.506595	0.714166
H149	H	0.944187	-0.134445	-0.000106
H150	H	1.444187	0.365555	0.499894
Br151	Br	0.016717	0.088414	-0.170515
Br152	Br	0.516717	0.588414	0.329485
H153	H	0.036393	0.088691	0.130958
H154	H	0.536393	0.588691	0.630958
H155	H	0.910923	0.006612	0.785564
H156	H	1.410923	0.506612	1.285564
Br157	Br	0.976491	-0.290954	-0.000129
Br158	Br	1.476491	0.209046	0.499871
Br159	Br	0.676510	-0.250767	-0.000112
Br160	Br	1.176510	0.249233	0.499888
Br161	Br	0.679036	-0.079115	-0.000104
Br162	Br	1.179036	0.420885	0.499896
Br163	Br	0.972480	-0.563314	-0.000132
Br164	Br	1.472480	-0.063314	0.499868
Br165	Br	0.969948	-0.734962	-0.000179
Br166	Br	1.469948	-0.234962	0.499821
Br167	Br	0.712264	0.205168	0.808242
Br168	Br	1.212264	0.705168	1.308242
H169	H	0.704801	-0.679641	-0.000147
H170	H	1.204801	-0.179641	0.499853
H171	H	0.910888	0.006595	0.365558
H172	H	1.410888	0.506595	0.865558
H173	H	0.738099	0.179318	0.634189
H174	H	1.238099	0.679318	1.134189
H175	H	0.738081	0.179303	0.365585
H176	H	1.238081	0.679303	0.865585
