data_functionalizedCrystal
_audit_creation_method	'MofGen! by Chris Wilmer'
_symmetry_space_group_name_H-M	'P1'
_symmetry_Int_Tables_number	1
_symmetry_cell_setting	triclinic
loop_
_symmetry_equiv_pos_as_xyz
  x,y,z
_cell_length_a	10.540510
_cell_length_b	14.519709
_cell_length_c	13.596369
_cell_angle_alpha	90.006934
_cell_angle_beta	89.994444
_cell_angle_gamma	95.903272
loop_
_atom_site_label
_atom_site_type_symbol
_atom_site_fract_x
_atom_site_fract_y
_atom_site_fract_z
O1	O	1.684585	-0.129839	-0.081800
O2	O	2.184585	0.370161	0.418200
O3	O	1.315042	-0.142113	-0.081801
O4	O	1.815042	0.357887	0.418199
O5	O	1.509611	-0.001789	-0.081791
O6	O	2.009611	0.498211	0.418209
O7	O	1.490016	-0.270162	-0.081809
O8	O	1.990016	0.229838	0.418191
O9	O	1.509592	-0.001782	0.081791
O10	O	2.009592	0.498218	0.581791
O11	O	1.315023	-0.142105	0.081782
O12	O	1.815023	0.357895	0.581782
O13	O	1.684566	-0.129831	0.081783
O14	O	2.184566	0.370169	0.581783
Zn15	Zn	1.499791	-0.135967	0.107755
Zn16	Zn	1.999791	0.364033	0.607755
Zn17	Zn	1.499817	-0.135977	-0.107773
Zn18	Zn	1.999817	0.364023	0.392227
O19	O	1.489996	-0.270154	0.081774
O20	O	1.989996	0.229846	0.581774
C21	C	1.267738	-0.141194	-0.000009
C22	C	1.767738	0.358806	0.499991
C23	C	1.126816	-0.138458	-0.000009
C24	C	1.626816	0.361542	0.499991
C25	C	0.908365	-0.235940	-0.000392
C26	C	1.408365	0.264060	0.499608
C27	C	1.054931	-0.238859	-0.000017
C28	C	1.554931	0.261141	0.499983
C29	C	1.082570	-0.087058	0.093406
C30	C	1.582570	0.412942	0.593406
C31	C	0.935831	-0.084850	0.093478
C32	C	1.435831	0.415150	0.593478
C33	C	0.936069	-0.082767	-0.092546
C34	C	1.436069	0.417233	0.407454
C35	C	1.082361	-0.087530	-0.093775
C36	C	1.582361	0.412470	0.406225
C37	C	1.508688	0.032579	0.000000
C38	C	2.008688	0.532579	0.500000
C39	C	1.505952	0.134975	0.000001
C40	C	2.005952	0.634975	0.500001
C41	C	1.731870	-0.130749	-0.000011
C42	C	2.231870	0.369251	0.499989
C43	C	1.872792	-0.133486	-0.000017
C44	C	2.372792	0.366514	0.499983
C45	C	1.490919	-0.304523	-0.000020
C46	C	1.990919	0.195477	0.499980
C47	C	1.493656	-0.406919	-0.000027
C48	C	1.993656	0.093081	0.499973
N49	N	1.499783	-0.135959	0.254847
N50	N	1.999783	0.364041	0.754847
C51	C	1.495877	0.509924	-0.000025
C52	C	1.995877	1.009924	0.499975
C53	C	1.498675	0.405602	-0.000017
C54	C	1.998675	0.905602	0.499983
C55	C	1.500914	0.322453	-0.000011
C56	C	2.000914	0.822453	0.499989
C57	C	1.503712	0.218124	-0.000006
C58	C	2.003712	0.718124	0.499994
N59	N	1.499835	-0.135977	-0.254864
N60	N	1.999835	0.364023	0.245136
C61	C	1.499815	-0.135978	0.656138
C62	C	1.999815	0.364022	1.156138
C63	C	1.499802	-0.135976	0.544486
C64	C	1.999802	0.364024	1.044486
C65	C	1.499799	-0.135969	0.455496
C66	C	1.999799	0.364031	0.955496
C67	C	1.499786	-0.135966	0.343837
C68	C	1.999786	0.364034	0.843837
H69	H	0.893206	-0.114433	-0.163350
H70	H	1.393206	0.385567	0.336650
H71	H	0.895248	-0.119971	0.163302
H72	H	1.395248	0.380029	0.663302
H73	H	0.914684	-0.007386	-0.093173
H74	H	1.414684	0.492614	0.406827
O75	O	1.122926	-0.134330	0.185494
O76	O	1.622926	0.365670	0.685494
H77	H	1.174482	-0.194423	0.164966
H78	H	1.674482	0.305577	0.664966
H79	H	1.083875	-0.279070	-0.066983
H80	H	1.583875	0.220930	0.433017
H81	H	1.110606	-0.124928	-0.162883
H82	H	1.610606	0.375072	0.337117
O83	O	0.852252	-0.287766	-0.089121
O84	O	1.352252	0.212234	0.410879
H85	H	0.890114	-0.252649	-0.157111
H86	H	1.390114	0.247351	0.342889
O87	O	0.850234	-0.287454	0.087848
O88	O	1.350234	0.212546	0.587848
H89	H	0.796117	-0.240404	0.131972
H90	H	1.296117	0.259596	0.631972
O91	O	1.092037	-0.292323	0.088899
O92	O	1.592037	0.207677	0.588899
H93	H	1.005244	-0.316195	0.131796
H94	H	1.505244	0.183805	0.631796
H95	H	1.132178	-0.014230	-0.099411
H96	H	1.632178	0.485770	0.400589
H97	H	0.913602	-0.009756	0.097726
H98	H	1.413602	0.490244	0.597726
H99	H	1.130714	-0.013144	0.096885
H100	H	1.630714	0.486856	0.596885
