data_functionalizedCrystal
_audit_creation_method	'MofGen! by Chris Wilmer'
_symmetry_space_group_name_H-M	'P1'
_symmetry_Int_Tables_number	1
_symmetry_cell_setting	triclinic
loop_
_symmetry_equiv_pos_as_xyz
  x,y,z
_cell_length_a	10.489763
_cell_length_b	15.944499
_cell_length_c	9.565339
_cell_angle_alpha	90.003478
_cell_angle_beta	90.001691
_cell_angle_gamma	95.987015
loop_
_atom_site_label
_atom_site_type_symbol
_atom_site_fract_x
_atom_site_fract_y
_atom_site_fract_z
O1	O	-1.692359	0.118593	-0.116188
O2	O	-1.321010	0.129697	-0.116203
O3	O	-1.516859	0.001929	-0.116198
O4	O	-1.496509	0.246361	-0.116194
O5	O	-1.516844	0.001937	0.116323
O6	O	-1.320994	0.129705	0.116317
O7	O	-1.692343	0.118601	0.116332
Zn8	Zn	-1.506666	0.124154	0.153242
Zn9	Zn	-1.506687	0.124144	-0.153113
O10	O	-1.496494	0.246369	0.116326
C11	C	-1.273483	0.128859	0.000055
C12	C	-1.131890	0.126337	0.000049
C13	C	-1.064901	0.045032	0.000062
C14	C	-0.972239	0.083429	-0.114578
C15	C	-0.972258	0.083457	0.114669
C16	C	-1.041094	0.164768	-0.114686
C17	C	-1.041122	0.164784	0.114664
C18	C	-0.948487	0.203241	-0.000004
C19	C	-1.516018	-0.029367	0.000059
C20	C	-1.513521	-0.122630	0.000048
C21	C	-1.627304	-0.413476	0.000061
C22	C	-1.568149	-0.352806	0.114708
C23	C	-1.504446	-0.458322	0.000064
C24	C	-1.568131	-0.352820	-0.114539
C25	C	-1.508911	-0.293386	0.000054
C26	C	-1.445256	-0.398880	0.114806
C27	C	-1.445256	-0.398900	-0.114544
C28	C	-1.386011	-0.338248	0.000132
C29	C	-1.501877	-0.553337	0.000071
C30	C	-1.511470	-0.198371	0.000057
C31	C	-0.739873	0.119426	0.000075
C32	C	-0.881473	0.121908	0.000083
C33	C	-1.497335	0.277665	0.000067
C34	C	-1.499832	0.370928	0.000068
N35	N	-1.506662	0.124161	0.362321
N36	N	-1.506701	0.124131	-0.362193
C37	C	-1.416060	0.183230	0.453522
C38	C	-1.531316	0.200232	0.546706
C39	C	-1.391456	0.107165	0.546693
C40	C	-1.621975	0.141202	0.453454
C41	C	-1.482040	0.048102	0.453432
C42	C	-1.597378	0.065072	0.546574
H43	H	-0.898117	0.270144	-0.000065
H44	H	-1.115535	-0.021800	-0.000083
H45	H	-1.461151	-0.016187	0.412430
H46	H	-1.552169	0.264541	0.587675
H47	H	-1.620108	-0.332396	0.211635
H48	H	-1.719440	0.155640	0.412670
H49	H	-1.674098	0.015104	0.587175
H50	H	-1.294013	0.092804	0.587652
H51	H	-0.941761	0.049043	0.211589
H52	H	-0.941718	0.049024	-0.211501
H53	H	-1.393340	-0.419331	-0.211475
H54	H	-1.283963	-0.305684	0.000194
H55	H	-1.071441	0.199140	-0.211716
H56	H	-1.071675	0.199162	0.211591
H57	H	-1.393328	-0.419173	0.211833
H58	H	-1.620123	-0.332428	-0.211455
H59	H	-1.729264	-0.446187	0.000174
H60	H	-1.339511	0.233229	0.412665
