data_functionalizedCrystal
_audit_creation_method	'MofGen! by Chris Wilmer'
_symmetry_space_group_name_H-M	'P1'
_symmetry_Int_Tables_number	1
_symmetry_cell_setting	triclinic
loop_
_symmetry_equiv_pos_as_xyz
  x,y,z
_cell_length_a	13.262390
_cell_length_b	14.044190
_cell_length_c	11.804365
_cell_angle_alpha	102.923601
_cell_angle_beta	62.657606
_cell_angle_gamma	88.642439
loop_
_atom_site_label
_atom_site_type_symbol
_atom_site_fract_x
_atom_site_fract_y
_atom_site_fract_z
O1	O	1.520669	0.013854	-0.591549
O2	O	1.195743	0.047997	-0.486317
O3	O	1.353320	-0.106768	-0.537327
O4	O	1.363093	0.168619	-0.540539
O5	O	1.311832	-0.066063	-0.325841
O6	O	1.154255	0.088703	-0.274830
O7	O	1.479182	0.054559	-0.380063
Cu8	Cu	1.312930	0.075348	-0.308136
Cu9	Cu	1.361995	0.027209	-0.558243
O10	O	1.321605	0.209325	-0.329052
C11	C	1.133165	0.070180	-0.367024
C12	C	1.008509	0.075620	-0.326652
C13	C	0.747596	0.002186	-0.673992
C14	C	0.864717	-0.002931	-0.711926
C15	C	0.900671	0.016707	-0.615611
C16	C	0.819492	0.041462	-0.481355
C17	C	0.702360	0.046572	-0.443417
C18	C	0.855435	0.061092	-0.385036
C19	C	0.774256	0.085847	-0.250780
C20	C	0.657136	0.090957	-0.212848
C21	C	0.621182	0.071319	-0.309164
C22	C	0.972567	0.055983	-0.422974
C23	C	0.927331	0.100368	-0.192399
C24	C	0.810210	0.105485	-0.154464
C25	C	1.328305	-0.121479	-0.430197
C26	C	1.315563	-0.225956	-0.426060
C27	C	1.382633	-0.480184	-0.447828
C28	C	1.292300	-0.417256	-0.418564
C29	C	1.305247	-0.310807	-0.422736
C30	C	1.369687	-0.586644	-0.443657
C31	C	1.541761	0.032376	-0.499358
C32	C	1.666418	0.026934	-0.539739
C33	C	1.346621	0.224035	-0.436185
C34	C	1.359364	0.328510	-0.440330
N35	N	1.278429	0.109205	-0.132227
N36	N	1.396504	-0.006656	-0.734155
C37	C	1.479351	-0.087978	0.176680
C38	C	1.505450	-0.113595	0.043570
C39	C	1.448696	-0.057897	-0.000386
C40	C	1.365841	0.023422	0.088782
C41	C	1.339747	0.049046	0.221903
C42	C	1.309092	0.079127	0.044837
C43	C	1.226237	0.160446	0.134004
C44	C	1.200146	0.186065	0.267112
C45	C	1.256899	0.130368	0.311068
C46	C	1.335186	0.053503	-0.088285
C47	C	1.195582	0.190527	-0.043062
C48	C	1.169484	0.216144	0.090048
H49	H	1.038652	0.035829	-0.532286
H50	H	1.205239	-0.443327	-0.390375
H51	H	0.525814	0.075487	-0.278284
C52	C	1.500235	-0.444972	-0.485889
H53	H	1.555216	-0.498452	-0.503707
H54	H	1.494546	-0.393193	-0.414973
H55	H	1.523504	-0.421553	-0.562488
H56	H	1.149370	0.235883	-0.078849
H57	H	1.402647	-0.012707	-0.160874
C58	C	1.477394	-0.086081	-0.146801
H59	H	1.534859	-0.142494	-0.193608
H60	H	1.504694	-0.032545	-0.183867
H61	H	1.410329	-0.100616	-0.153257
H62	H	0.591043	0.111096	-0.103529
C63	C	1.078356	0.305596	0.188136
H64	H	1.070954	0.312879	0.273704
H65	H	1.006768	0.295521	0.190912
H66	H	1.101144	0.363581	0.160314
C67	C	1.596574	-0.203043	-0.054501
H68	H	1.626629	-0.232551	-0.009258
H69	H	1.656838	-0.181858	-0.122668
H70	H	1.562463	-0.249919	-0.092065
H71	H	0.718310	-0.013809	-0.752397
C72	C	1.541771	-0.149234	0.225034
H73	H	1.514358	-0.122327	0.317083
H74	H	1.621909	-0.147553	0.178633
H75	H	1.527537	-0.215617	0.209236
C76	C	1.109017	0.275518	0.365195
H77	H	1.101613	0.282806	0.450765
H78	H	1.037431	0.265441	0.367969
H79	H	1.131805	0.333502	0.337368
C80	C	1.029500	0.011088	-0.657336
H81	H	1.072697	-0.006458	-0.751087
H82	H	1.050672	-0.037282	-0.624304
H83	H	1.044616	0.073555	-0.622378
C84	C	0.954003	-0.030152	-0.859593
H85	H	0.915818	-0.041106	-0.911522
H86	H	1.003657	-0.088483	-0.880154
H87	H	0.997609	0.022356	-0.878214
H88	H	0.744098	0.125640	-0.045151
H89	H	0.956603	0.116357	-0.113970
C90	C	1.228197	0.158548	0.457488
H91	H	1.273867	0.113730	0.470889
H92	H	1.149333	0.155620	0.511251
H93	H	1.243709	0.223679	0.480649
