data_functionalizedCrystal
_audit_creation_method	'MofGen! by Chris Wilmer'
_symmetry_space_group_name_H-M	'P1'
_symmetry_Int_Tables_number	1
_symmetry_cell_setting	triclinic
loop_
_symmetry_equiv_pos_as_xyz
  x,y,z
_cell_length_a	12.759401
_cell_length_b	25.639239
_cell_length_c	12.759393
_cell_angle_alpha	90.035978
_cell_angle_beta	90.020938
_cell_angle_gamma	90.040211
loop_
_atom_site_label
_atom_site_type_symbol
_atom_site_fract_x
_atom_site_fract_y
_atom_site_fract_z
Zn1	Zn	1.606091	-0.208104	0.593980
Zn2	Zn	2.106091	0.291896	1.093980
Zn3	Zn	1.605909	-0.295549	0.418283
Zn4	Zn	2.105909	0.204451	0.918283
Zn5	Zn	1.430390	-0.208132	0.418315
Zn6	Zn	1.930390	0.291868	0.918315
Zn7	Zn	1.430308	-0.295513	0.593921
Zn8	Zn	1.930308	0.204487	1.093921
O9	O	1.518175	-0.251825	0.506125
O10	O	2.018175	0.248175	1.006125
O11	O	1.753088	-0.219708	0.570685
O12	O	2.253088	0.280292	1.070685
O13	O	1.582584	-0.283980	0.271266
O14	O	2.082584	0.216020	0.771266
O15	O	1.453808	-0.134963	0.441656
O16	O	1.953808	0.365037	0.941656
O17	O	1.752954	-0.283953	0.441601
O18	O	2.252954	0.216047	0.941601
O19	O	1.582895	-0.134943	0.570716
O20	O	2.082895	0.365057	1.070716
O21	O	1.453631	-0.219755	0.271290
O22	O	1.953631	0.280245	0.771290
O23	O	1.283358	-0.219720	0.441598
O24	O	1.783358	0.280280	0.941598
O25	O	1.453669	-0.283891	0.740950
O26	O	1.953669	0.216109	1.240950
O27	O	1.283298	-0.283918	0.570615
O28	O	1.783298	0.216082	1.070615
O29	O	1.582816	-0.219672	0.740993
O30	O	2.082816	0.280328	1.240993
O31	O	1.582505	-0.368710	0.441544
O32	O	2.082505	0.131290	0.941544
O33	O	1.453492	-0.368683	0.570584
O34	O	1.953492	0.131317	1.070584
C35	C	1.245207	-0.251818	0.506104
C36	C	1.745207	0.248182	1.006104
C37	C	1.128431	-0.251828	0.506120
C38	C	1.628431	0.248172	1.006120
C39	C	1.517998	-0.387667	0.506077
C40	C	2.017998	0.112333	1.006077
C41	C	1.518018	-0.445781	0.506091
C42	C	2.018018	0.054219	1.006091
C43	C	1.073565	-0.285307	0.573193
C44	C	1.573565	0.214693	1.073193
C45	C	0.963841	-0.285309	0.573214
C46	C	1.463841	0.214691	1.073214
C47	C	0.963858	-0.218352	0.439079
C48	C	1.463858	0.281648	0.939079
C49	C	1.073580	-0.218347	0.439065
C50	C	1.573580	0.281653	0.939065
C51	C	1.585527	-0.806146	0.439048
C52	C	2.085527	-0.306146	0.939048
C53	C	1.585568	-0.860750	0.439062
C54	C	2.085568	-0.360750	0.939062
O55	O	1.642783	-0.888988	0.382007
O56	O	2.142783	-0.388988	0.882007
N57	N	1.518359	-0.888064	0.506194
N58	N	2.018359	-0.388064	1.006194
C59	C	1.451113	-0.860770	0.573324
C60	C	1.951113	-0.360770	1.073324
O61	O	1.393952	-0.889017	0.630428
O62	O	1.893952	-0.389017	1.130428
C63	C	1.451079	-0.806167	0.573315
C64	C	1.951079	-0.306167	1.073315
C65	C	1.518284	-0.778856	0.506171
C66	C	2.018284	-0.278856	1.006171
C67	C	1.652728	-0.778835	0.371910
C68	C	2.152728	-0.278835	0.871910
C69	C	1.652685	-0.724234	0.371895
C70	C	2.152685	-0.224234	0.871895
C71	C	1.585442	-0.696945	0.439018
C72	C	2.085442	-0.196945	0.939018
C73	C	1.518242	-0.724255	0.506156
C74	C	2.018242	-0.224255	1.006156
C75	C	1.383839	-0.778874	0.640449
C76	C	1.883839	-0.278874	1.140449
C77	C	1.383810	-0.724267	0.640435
C78	C	1.883810	-0.224267	1.140435
C79	C	1.451016	-0.696957	0.573291
C80	C	1.951016	-0.196957	1.073291
C81	C	1.450956	-0.642365	0.573263
C82	C	1.950956	-0.142365	1.073263
N83	N	1.518165	-0.615052	0.506131
N84	N	2.018165	-0.115052	1.006131
C85	C	1.585408	-0.642341	0.439008
C86	C	2.085408	-0.142341	0.939008
C87	C	1.451192	-0.975441	0.573341
C88	C	1.951192	-0.475441	1.073341
C89	C	1.451221	-1.030043	0.573346
C90	C	1.951221	-0.530043	1.073346
C91	C	1.585677	-1.030019	0.439085
C92	C	2.085677	-0.530019	0.939085
C93	C	1.585642	-0.975416	0.439075
C94	C	2.085642	-0.475416	0.939075
C95	C	1.518401	-0.948127	0.506208
C96	C	2.018401	-0.448127	1.006208
C97	C	1.585313	-0.527676	0.438981
C98	C	2.085313	-0.027676	0.938981
C99	C	1.585261	-0.473071	0.438969
C100	C	2.085261	0.026929	0.938969
C101	C	1.450810	-0.473100	0.573233
C102	C	1.950810	0.026900	1.073233
C103	C	1.450857	-0.527700	0.573242
C104	C	1.950857	-0.027700	1.073242
C105	C	1.518117	-0.554987	0.506112
C106	C	2.018117	-0.054987	1.006112
O107	O	1.393774	-0.614093	0.630292
O108	O	1.893774	-0.114093	1.130292
O109	O	1.642569	-0.614088	0.381925
O110	O	2.142569	-0.114088	0.881925
C111	C	1.792208	-0.251831	0.506146
C112	C	2.292208	0.248169	1.006146
C113	C	1.908984	-0.251834	0.506156
C114	C	2.408984	0.248166	1.006156
C115	C	1.518253	-0.251774	0.780158
C116	C	2.018253	0.248226	1.280158
C117	C	1.518287	-0.251753	0.896935
C118	C	2.018287	0.248247	1.396935
C119	C	1.518381	-0.115452	0.506196
C120	C	2.018381	0.384548	1.006196
C121	C	1.518468	-0.057337	0.506226
C122	C	2.018468	0.442663	1.006226
C123	C	1.518157	-0.251837	0.233157
C124	C	2.018157	0.248163	0.733157
C125	C	1.518327	-0.251711	0.116381
C126	C	2.018327	0.248289	0.616381
C127	C	1.585539	-0.218309	0.951821
C128	C	2.085539	0.281691	1.451821
C129	C	1.585556	-0.218286	1.061546
C130	C	2.085556	0.281714	1.561546
C131	C	1.451068	-0.285156	1.061487
C132	C	1.951068	0.214844	1.561487
C133	C	1.451045	-0.285176	0.951765
C134	C	1.951045	0.214824	1.451765
H135	H	1.118221	-0.312568	0.627796
H136	H	1.618221	0.187432	1.127796
H137	H	1.707412	-0.702001	0.317224
H138	H	2.207412	-0.202001	0.817224
H139	H	1.640367	-0.953182	0.384401
H140	H	2.140367	-0.453182	0.884401
F141	F	0.905473	-0.182722	0.367717
F142	F	1.405473	0.317278	0.867717
F143	F	1.131976	-0.182710	0.367678
F144	F	1.631976	0.317290	0.867678
H145	H	1.640434	-1.052248	0.384433
H146	H	2.140434	-0.552248	0.884433
F147	F	1.379512	-0.320727	1.119850
F148	F	1.879512	0.179273	1.619850
F149	F	1.312243	-0.695228	0.711892
F150	F	1.812243	-0.195228	1.211892
H151	H	1.396273	-0.312410	0.907075
H152	H	1.896273	0.187590	1.407075
F153	F	1.656793	-0.444008	0.367501
F154	F	2.156793	0.055992	0.867501
F155	F	1.379680	-1.059103	0.644798
F156	F	1.879680	-0.559103	1.144798
H157	H	1.640085	-0.549887	0.384320
H158	H	2.140085	-0.049887	0.884320
H159	H	0.919174	-0.312570	0.627833
H160	H	1.419174	0.187430	1.127833
H161	H	1.707491	-0.801048	0.317251
H162	H	2.207491	-0.301048	0.817251
H163	H	1.640318	-0.191052	1.106229
H164	H	2.140318	0.308948	1.606229
F165	F	1.379613	-0.946403	0.644791
F166	F	1.879613	-0.446403	1.144791
H167	H	1.396136	-0.549938	0.627919
H168	H	1.896136	-0.049938	1.127919
F169	F	1.312317	-0.807929	0.711924
F170	F	1.812317	-0.307929	1.211924
F171	F	1.657100	-0.182736	0.893471
F172	F	2.157100	0.317264	1.393471
F173	F	1.379251	-0.444046	0.644669
F174	F	1.879251	0.055954	1.144669
