data_functionalizedCrystal
_audit_creation_method	'MofGen! by Chris Wilmer'
_symmetry_space_group_name_H-M	'P1'
_symmetry_Int_Tables_number	1
_symmetry_cell_setting	triclinic
loop_
_symmetry_equiv_pos_as_xyz
  x,y,z
_cell_length_a	12.594517
_cell_length_b	12.594516
_cell_length_c	12.594509
_cell_angle_alpha	89.973801
_cell_angle_beta	90.011478
_cell_angle_gamma	89.988061
loop_
_atom_site_label
_atom_site_type_symbol
_atom_site_fract_x
_atom_site_fract_y
_atom_site_fract_z
Zn1	Zn	1.627267	0.423827	0.601595
Zn2	Zn	1.627158	0.601837	0.423623
Zn3	Zn	1.449271	0.423860	0.423655
Zn4	Zn	1.449253	0.601751	0.601584
O5	O	1.538237	0.512819	0.512614
O6	O	1.776198	0.447463	0.577979
O7	O	1.603522	0.578278	0.274681
O8	O	1.472935	0.274910	0.447277
O9	O	1.776118	0.578246	0.447223
O10	O	1.603708	0.274886	0.578009
O11	O	1.472830	0.447519	0.274705
O12	O	1.300323	0.447436	0.447266
O13	O	1.472905	0.578099	0.750531
O14	O	1.300310	0.578131	0.577989
O15	O	1.603691	0.447379	0.750540
O16	O	1.603505	0.750772	0.447212
O17	O	1.472799	0.750708	0.577959
C18	C	1.261696	0.512779	0.512630
C19	C	1.143391	0.512787	0.512663
C20	C	1.074161	0.584012	0.583626
C21	C	1.003353	0.486966	0.609800
C22	C	1.003400	0.609913	0.486464
C23	C	1.074140	0.415689	0.538888
C24	C	1.074194	0.538702	0.415507
C25	C	1.003417	0.441590	0.441645
C26	C	1.538167	0.789360	0.512604
C27	C	1.538235	0.907665	0.512635
C28	C	1.538308	0.512726	0.790235
C29	C	1.538339	0.512686	0.908541
C30	C	1.815858	0.512860	0.512599
C31	C	1.934163	0.512878	0.512592
C32	C	1.538336	0.235198	0.512648
C33	C	1.538378	0.116893	0.512662
C34	C	1.467137	0.976923	0.583698
C35	C	1.441204	1.047786	0.486580
C36	C	1.564265	1.047601	0.609770
C37	C	1.512250	0.976971	0.415465
C38	C	1.635357	0.976779	0.538721
C39	C	1.609460	1.047610	0.441535
C40	C	1.538227	0.512835	0.236073
C41	C	1.538403	0.512575	0.117768
C42	C	1.467227	0.583744	0.977789
C43	C	1.564347	0.609757	1.048564
C44	C	1.441294	0.486609	1.048565
C45	C	1.635510	0.538750	0.977757
C46	C	1.512391	0.415556	0.977752
C47	C	1.609579	0.441532	1.048495
H48	H	0.972236	0.465078	0.691933
F49	F	1.114868	0.567333	0.308168
F50	F	1.688131	1.087924	0.362914
H51	H	1.490381	0.333487	0.946625
F52	F	1.742601	0.935982	0.567591
F53	F	1.333989	0.457838	1.089220
H54	H	1.717630	0.560853	0.946785
F55	F	1.688307	0.362927	1.088824
H56	H	1.105226	0.644128	0.643714
F57	F	1.114582	0.308346	0.567935
F58	F	0.962783	0.717223	0.457538
H59	H	1.490197	0.946074	0.333307
F60	F	0.963070	0.362825	0.363165
F61	F	1.388412	0.936350	0.662135
F62	F	1.333930	1.088551	0.457745
H63	H	1.407136	0.643929	0.946744
F64	F	1.592966	1.088158	0.717125
F65	F	1.593080	0.717057	1.089221
