data_functionalizedCrystal
_audit_creation_method	'MofGen! by Chris Wilmer'
_symmetry_space_group_name_H-M	'P1'
_symmetry_Int_Tables_number	1
_symmetry_cell_setting	triclinic
loop_
_symmetry_equiv_pos_as_xyz
  x,y,z
_cell_length_a	16.704494
_cell_length_b	14.628931
_cell_length_c	14.628931
_cell_angle_alpha	60.000000
_cell_angle_beta	90.000492
_cell_angle_gamma	56.632323
loop_
_atom_site_label
_atom_site_type_symbol
_atom_site_fract_x
_atom_site_fract_y
_atom_site_fract_z
Zr1	Zr	0.815200	0.905007	-0.072169
O2	O	0.680083	1.111553	-0.226051
O3	O	0.856620	0.709446	-0.024995
O4	O	0.856621	0.900151	-0.215701
O5	O	0.680082	0.920849	0.115086
O6	O	0.995877	0.883825	-0.207536
O7	O	0.680082	0.920848	-0.035346
O8	O	0.995876	0.542689	0.133601
O9	O	0.680083	1.261985	-0.226051
O10	O	0.978211	0.773631	0.001216
O11	O	0.874286	0.785815	0.107389
O12	O	0.874286	1.010346	-0.117142
O13	O	0.770360	1.022530	-0.010970
Zr14	Zr	1.037298	0.878970	0.180774
Zr15	Zr	1.037298	0.878969	-0.059147
Zr16	Zr	0.815199	0.905008	0.167753
Zr17	Zr	0.815200	1.144929	-0.072169
Zr18	Zr	1.037297	0.639049	0.180774
O19	O	0.995877	1.074532	0.133600
O20	O	0.995878	1.074531	-0.207537
O21	O	0.680082	1.111554	0.115086
O22	O	1.172415	0.672424	0.334656
O23	O	1.172415	0.672423	-0.006481
O24	O	0.856620	0.709447	0.316142
O25	O	1.172416	0.863129	-0.006481
O26	O	0.995877	0.883827	0.324306
O27	O	0.856620	0.900152	0.316141
O28	O	1.172415	0.863129	0.143951
O29	O	0.856621	1.241288	-0.215701
O30	O	0.995876	0.542689	0.324306
O31	O	1.172415	0.521992	0.334656
O32	O	1.172415	0.521992	0.143951
O33	O	0.680083	1.261986	-0.035346
O34	O	0.856621	1.241289	-0.024996
O35	O	0.978211	0.773632	0.225747
O36	O	1.082137	0.761448	0.119575
O37	O	0.978212	0.998162	0.001216
O38	O	0.874286	1.010346	0.107389
C39	C	0.926248	0.591884	0.054303
C40	C	0.926248	0.490031	0.054303
C41	C	0.977802	0.438577	0.001634
C42	C	0.977803	0.333307	0.001633
C43	C	0.648438	0.924558	0.038015
C44	C	0.554151	0.935612	0.032487
C45	C	0.485483	0.709231	0.145694
C46	C	0.396895	0.719611	0.140503
C47	C	0.288387	0.966750	0.016922
C48	C	0.376975	0.956370	0.022113
C49	C	0.475522	0.827606	0.086499
C50	C	0.564110	0.817228	0.091683
C51	C	0.455601	1.064366	-0.031891
C52	C	0.367014	1.074745	-0.037081
C53	C	1.204060	0.859419	0.070590
C54	C	1.298346	0.848365	0.076118
C55	C	0.926249	0.891988	-0.245802
C56	C	0.926249	0.891987	-0.347655
C57	C	0.926249	1.192094	0.054302
C58	C	0.926249	1.293947	0.054302
C59	C	0.874695	1.009414	-0.451778
C60	C	0.874694	1.009416	-0.557050
C61	C	0.926248	0.891990	0.354407
C62	C	0.926248	0.891990	0.456260
C63	C	1.204059	0.559314	0.070590
C64	C	1.298346	0.446407	0.076118
C65	C	0.926248	0.591884	0.354408
C66	C	0.926248	0.490032	0.456261
C67	C	1.204059	0.559315	0.370695
C68	C	1.298345	0.446409	0.478076
C69	C	0.648439	1.224662	-0.262090
C70	C	0.554152	1.337569	-0.369471
C71	C	0.648438	1.224663	0.038015
C72	C	0.554152	1.337570	0.032487
C73	C	0.926250	1.192093	-0.245803
C74	C	0.926250	1.293946	-0.347656
C75	C	1.288376	0.399745	0.016922
C76	C	1.376959	0.293671	0.022094
C77	C	1.475512	0.234255	0.086468
C78	C	1.485480	0.280928	0.145665
C79	C	1.396897	0.387006	0.140487
C80	C	1.396880	0.387025	0.473083
C81	C	1.485481	0.280950	0.573970
C82	C	1.475544	0.234254	0.679849
C83	C	1.376998	0.293647	0.684839
C84	C	1.288400	0.399727	0.583953
C85	C	0.455617	1.396964	-0.364478
C86	C	0.367017	1.503069	-0.465365
C87	C	0.376954	1.549770	-0.571244
C88	C	0.475499	1.490370	-0.576234
C89	C	0.564098	1.384274	-0.475348
C90	C	0.564122	1.384243	0.091673
C91	C	0.475538	1.490343	0.086475
C92	C	0.376986	1.549762	0.022097
C93	C	0.367018	1.503085	-0.037096
C94	C	0.455600	1.396993	-0.031904
C95	C	0.977802	0.438579	0.560384
C96	C	0.977802	0.333309	0.665655
H97	H	0.882114	0.456144	0.099397
Br98	Br	1.363529	0.230258	0.828542
H99	H	1.208137	0.448120	-0.035512
Br100	Br	1.363406	0.230351	-0.058250
H101	H	0.644349	0.712382	0.144117
Br102	Br	0.801137	1.176982	-0.470474
Br103	Br	0.852687	0.367636	0.503482
H104	H	1.404991	0.425029	0.386880
Br105	Br	0.488968	1.553764	-0.719937
Br106	Br	1.051359	0.495057	0.579079
Br107	Br	1.619208	0.200363	0.567170
Br108	Br	0.410418	0.558952	0.220848
Br109	Br	1.595796	0.090285	0.816757
Br110	Br	0.442102	1.333604	-0.220798
Br111	Br	0.256775	1.693744	0.015064
H112	H	0.970382	0.791452	-0.454426
H113	H	0.447496	1.160756	-0.080095
Br114	Br	0.999828	0.724417	-0.328959
H115	H	1.021941	0.289082	0.754973
H116	H	0.304803	1.636161	-0.653383
H117	H	0.644361	1.335871	0.144103
H118	H	0.286764	1.551480	-0.089511
Br119	Br	0.801115	1.176990	-0.705918
Br120	Br	1.051363	0.259613	-0.073539
H121	H	1.208171	0.448065	0.588035
H122	H	1.021944	0.472453	-0.043452
H123	H	0.882105	0.338173	0.099390
Br124	Br	0.489091	1.553663	0.166819
Br125	Br	0.233290	1.583658	-0.458565
Br126	Br	1.595722	0.090291	0.093484
H127	H	1.565733	0.232536	0.198077
H128	H	0.208139	1.071582	-0.035483
H129	H	0.644327	1.335915	-0.479427
H130	H	0.565723	0.604387	0.198127
Br131	Br	0.233268	1.249487	-0.124451
Br132	Br	1.410447	0.450313	0.220840
Br133	Br	0.442050	1.333660	-0.112231
H134	H	0.882107	0.456153	0.445053
