data_functionalizedCrystal
_audit_creation_method	'MofGen! by Chris Wilmer'
_symmetry_space_group_name_H-M	'P1'
_symmetry_Int_Tables_number	1
_symmetry_cell_setting	triclinic
loop_
_symmetry_equiv_pos_as_xyz
  x,y,z
_cell_length_a	14.044220
_cell_length_b	14.044220
_cell_length_c	22.610064
_cell_angle_alpha	89.990485
_cell_angle_beta	89.998097
_cell_angle_gamma	93.188878
loop_
_atom_site_label
_atom_site_type_symbol
_atom_site_fract_x
_atom_site_fract_y
_atom_site_fract_z
O1	O	-1.277165	-0.230146	-0.049124
O2	O	-1.027165	0.019854	0.200876
O3	O	-0.777165	0.269854	0.450876
O4	O	-0.527165	0.519854	0.700876
O5	O	-1.000493	-0.221841	-0.049139
O6	O	-0.750493	0.028159	0.200861
O7	O	-0.500493	0.278159	0.450861
O8	O	-0.250493	0.528159	0.700861
O9	O	-1.134676	-0.087658	-0.049126
O10	O	-0.884676	0.162342	0.200874
O11	O	-0.634676	0.412342	0.450874
O12	O	-0.384676	0.662342	0.700874
O13	O	-1.142982	-0.364329	-0.049137
O14	O	-0.892982	-0.114329	0.200863
O15	O	-0.642982	0.135671	0.450863
O16	O	-0.392982	0.385671	0.700863
O17	O	-1.134670	-0.087695	0.049243
O18	O	-0.884670	0.162305	0.299243
O19	O	-0.634670	0.412305	0.549243
O20	O	-0.384670	0.662305	0.799243
O21	O	-1.000487	-0.221877	0.049230
O22	O	-0.750487	0.028123	0.299230
O23	O	-0.500487	0.278123	0.549230
O24	O	-0.250487	0.528123	0.799230
O25	O	-1.277158	-0.230183	0.049245
O26	O	-1.027158	0.019817	0.299245
O27	O	-0.777158	0.269817	0.549245
O28	O	-0.527158	0.519817	0.799245
Zn29	Zn	-1.138821	-0.226036	0.064856
Zn30	Zn	-0.888821	0.023964	0.314856
Zn31	Zn	-0.638821	0.273964	0.564856
Zn32	Zn	-0.388821	0.523964	0.814856
Zn33	Zn	-1.138830	-0.225988	-0.064750
Zn34	Zn	-0.888830	0.024012	0.185250
Zn35	Zn	-0.638830	0.274012	0.435250
Zn36	Zn	-0.388830	0.524012	0.685250
O37	O	-1.142975	-0.364366	0.049232
O38	O	-0.892975	-0.114366	0.299232
O39	O	-0.642975	0.135634	0.549232
O40	O	-0.392975	0.385634	0.799232
C41	C	-0.964868	-0.218223	0.000044
C42	C	-0.714868	0.031777	0.250044
C43	C	-0.464868	0.281777	0.500044
C44	C	-0.214868	0.531777	0.750044
C45	C	-0.858725	-0.207379	0.000038
C46	C	-0.608725	0.042621	0.250038
C47	C	-0.358725	0.292621	0.500038
C48	C	-0.108725	0.542621	0.750038
N49	N	-1.138836	-0.225948	-0.153202
N50	N	-0.888836	0.024052	0.096798
N51	N	-0.638836	0.274052	0.346798
N52	N	-0.388836	0.524052	0.596798
C53	C	-1.131037	-0.052054	0.000059
C54	C	-0.881037	0.197946	0.250059
C55	C	-0.631037	0.447946	0.500059
C56	C	-0.381037	0.697946	0.750059
C57	C	-1.120193	0.054088	0.000059
C58	C	-0.870193	0.304088	0.250059
C59	C	-0.620193	0.554088	0.500059
C60	C	-0.370193	0.804088	0.750059
C61	C	-1.312783	-0.233800	0.000061
C62	C	-1.062783	0.016200	0.250061
C63	C	-0.812783	0.266200	0.500061
C64	C	-0.562783	0.516200	0.750061
C65	C	-1.418926	-0.244645	0.000063
C66	C	-1.168926	0.005355	0.250063
C67	C	-0.918926	0.255355	0.500063
C68	C	-0.668926	0.505355	0.750063
C69	C	-0.664388	-0.187553	0.000051
C70	C	-0.414388	0.062447	0.250051
C71	C	-0.164388	0.312447	0.500051
C72	C	0.085612	0.562447	0.750051
C73	C	-0.613258	-0.264467	0.000050
C74	C	-0.363258	-0.014467	0.250050
C75	C	-0.113258	0.235533	0.500050
C76	C	0.136742	0.485533	0.750050
C77	C	-0.505122	-0.253435	0.000057
C78	C	-0.255122	-0.003435	0.250057
C79	C	-0.005122	0.246565	0.500057
C80	C	0.244878	0.496565	0.750057
C81	C	-0.772534	-0.198583	0.000044
C82	C	-0.522534	0.051417	0.250044
C83	C	-0.272534	0.301417	0.500044
C84	C	-0.022534	0.551417	0.750044
C85	C	-1.146614	-0.399969	0.000046
C86	C	-0.896614	-0.149969	0.250046
C87	C	-0.646614	0.100031	0.500046
C88	C	-0.396614	0.350031	0.750046
C89	C	-1.157459	-0.506112	0.000042
C90	C	-0.907459	-0.256112	0.250042
C91	C	-0.657459	-0.006112	0.500042
C92	C	-0.407459	0.243888	0.750042
C93	C	-1.100366	0.248426	0.000049
C94	C	-0.850366	0.498426	0.250049
C95	C	-0.600366	0.748426	0.500049
C96	C	-0.350366	0.998426	0.750049
C97	C	-1.177281	0.299556	0.000052
C98	C	-0.927281	0.549556	0.250052
C99	C	-0.677281	0.799556	0.500052
C100	C	-0.427281	1.049556	0.750052
C101	C	-1.166249	0.407692	0.000046
C102	C	-0.916249	0.657692	0.250046
C103	C	-0.666249	0.907692	0.500046
C104	C	-0.416249	1.157692	0.750046
C105	C	-1.111397	0.140280	0.000055
C106	C	-0.861397	0.390280	0.250055
C107	C	-0.611397	0.640280	0.500055
C108	C	-0.361397	0.890280	0.750055
N109	N	-1.138822	-0.226069	0.153308
N110	N	-0.888822	0.023931	0.403308
N111	N	-0.638822	0.273931	0.653308
N112	N	-0.388822	0.523931	0.903308
C113	C	-1.079378	-0.285404	0.438151
C114	C	-0.829378	-0.035404	0.688151
C115	C	-0.579378	0.214596	0.938151
C116	C	-0.329378	0.464596	1.188151
C117	C	-1.079376	-0.285413	0.376231
C118	C	-0.829376	-0.035413	0.626231
C119	C	-0.579376	0.214587	0.876231
C120	C	-0.329376	0.464587	1.126231
O121	O	-1.028809	-0.335902	0.344207
O122	O	-0.778809	-0.085902	0.594207
O123	O	-0.528809	0.164098	0.844207
O124	O	-0.278809	0.414098	1.094207
N125	N	-1.138812	-0.226030	0.345261
N126	N	-0.888812	0.023970	0.595261
N127	N	-0.638812	0.273970	0.845261
N128	N	-0.388812	0.523970	1.095261
C129	C	-1.198247	-0.166627	0.376214
C130	C	-0.948247	0.083373	0.626214
C131	C	-0.698247	0.333373	0.876214
C132	C	-0.448247	0.583373	1.126214
O133	O	-1.248801	-0.116117	0.344186
O134	O	-0.998801	0.133883	0.594186
O135	O	-0.748801	0.383883	0.844186
O136	O	-0.498801	0.633883	1.094186
C137	C	-1.198243	-0.166614	0.438133
C138	C	-0.948243	0.083386	0.688133
C139	C	-0.698243	0.333386	0.938133
C140	C	-0.448243	0.583386	1.188133
C141	C	-1.138810	-0.226008	0.469099
C142	C	-0.888810	0.023992	0.719099
C143	C	-0.638810	0.273992	0.969099
C144	C	-0.388810	0.523992	1.219099
C145	C	-1.019949	-0.344793	0.469118
C146	C	-0.769949	-0.094793	0.719118
C147	C	-0.519949	0.155207	0.969118
C148	C	-0.269949	0.405207	1.219118
C149	C	-1.019952	-0.344785	0.531033
C150	C	-0.769952	-0.094785	0.781033
C151	C	-0.519952	0.155215	1.031033
C152	C	-0.269952	0.405215	1.281033
C153	C	-1.079384	-0.285389	0.561982
C154	C	-0.829384	-0.035389	0.811982
C155	C	-0.579384	0.214611	1.061982
C156	C	-0.329384	0.464611	1.311982
C157	C	-1.138813	-0.226000	0.531015
C158	C	-0.888813	0.024000	0.781015
C159	C	-0.638813	0.274000	1.031015
C160	C	-0.388813	0.524000	1.281015
C161	C	-1.257672	-0.107206	0.469084
C162	C	-1.007672	0.142794	0.719084
C163	C	-0.757672	0.392794	0.969084
C164	C	-0.507672	0.642794	1.219084
C165	C	-1.257662	-0.107198	0.531007
C166	C	-1.007662	0.142802	0.781007
C167	C	-0.757662	0.392802	1.031007
C168	C	-0.507662	0.642802	1.281007
C169	C	-1.198229	-0.166592	0.561974
C170	C	-0.948229	0.083408	0.811974
C171	C	-0.698229	0.333408	1.061974
C172	C	-0.448229	0.583408	1.311974
C173	C	-1.198249	-0.166595	0.623879
C174	C	-0.948249	0.083405	0.873879
C175	C	-0.698249	0.333405	1.123879
C176	C	-0.448249	0.583405	1.373879
N177	N	-1.138813	-0.225979	0.654849
N178	N	-0.888813	0.024021	0.904849
N179	N	-0.638813	0.274021	1.154849
N180	N	-0.388813	0.524021	1.404849
C181	C	-1.079380	-0.285375	0.623901
C182	C	-0.829380	-0.035375	0.873901
C183	C	-0.579380	0.214625	1.123901
C184	C	-0.329380	0.464625	1.373901
C185	C	-1.198249	-0.166658	0.246180
C186	C	-0.948249	0.083342	0.496180
C187	C	-0.698249	0.333342	0.746180
C188	C	-0.448249	0.583342	0.996180
C189	C	-1.198258	-0.166676	0.184262
C190	C	-0.948258	0.083324	0.434262
C191	C	-0.698258	0.333324	0.684262
C192	C	-0.448258	0.583324	0.934262
C193	C	-1.079386	-0.285461	0.184284
C194	C	-0.829386	-0.035461	0.434284
C195	C	-0.579386	0.214539	0.684284
C196	C	-0.329386	0.464539	0.934284
C197	C	-1.079382	-0.285448	0.246203
C198	C	-0.829382	-0.035448	0.496203
C199	C	-0.579382	0.214552	0.746203
C200	C	-0.329382	0.464552	0.996203
C201	C	-1.138813	-0.226041	0.277150
C202	C	-0.888813	0.023959	0.527150
C203	C	-0.638813	0.273959	0.777150
C204	C	-0.388813	0.523959	1.027150
C205	C	-1.079393	-0.285355	0.753928
C206	C	-0.829393	-0.035355	1.003928
C207	C	-0.579393	0.214645	1.253928
C208	C	-0.329393	0.464645	1.503928
C209	C	-1.079404	-0.285344	0.815849
C210	C	-0.829404	-0.035344	1.065849
C211	C	-0.579404	0.214656	1.315849
C212	C	-0.329404	0.464656	1.565849
C213	C	-1.198272	-0.166556	0.815822
C214	C	-0.948272	0.083444	1.065822
C215	C	-0.698272	0.333444	1.315822
C216	C	-0.448272	0.583444	1.565822
C217	C	-1.198265	-0.166569	0.753907
C218	C	-0.948265	0.083431	1.003907
C219	C	-0.698265	0.333431	1.253907
C220	C	-0.448265	0.583431	1.503907
C221	C	-1.138817	-0.225972	0.722961
C222	C	-0.888817	0.024028	0.972961
C223	C	-0.638817	0.274028	1.222961
C224	C	-0.388817	0.524028	1.472961
O225	O	-1.248787	-0.116130	0.655942
O226	O	-0.998787	0.133870	0.905942
O227	O	-0.748787	0.383870	1.155942
O228	O	-0.498787	0.633870	1.405942
O229	O	-1.028826	-0.335868	0.655937
O230	O	-0.778826	-0.085868	0.905937
O231	O	-0.528826	0.164132	1.155937
O232	O	-0.278826	0.414132	1.405937
H233	H	-0.650697	-0.338600	0.000044
H234	H	-0.400697	-0.088600	0.250044
H235	H	-0.150697	0.161400	0.500044
H236	H	0.099303	0.411400	0.750044
F237	F	-1.274179	0.250623	0.000062
F238	F	-1.024179	0.500623	0.250062
F239	F	-0.774179	0.750623	0.500062
F240	F	-0.524179	1.000623	0.750062
F241	F	-1.003475	0.297359	0.000041
F242	F	-0.753475	0.547359	0.250041
F243	F	-0.503475	0.797359	0.500041
F244	F	-0.253475	1.047359	0.750041
F245	F	-0.615455	-0.090661	0.000057
F246	F	-0.365455	0.159339	0.250057
F247	F	-0.115455	0.409339	0.500057
F248	F	0.134545	0.659339	0.750057
F249	F	-1.016147	-0.348564	0.848804
F250	F	-0.766147	-0.098564	1.098804
F251	F	-0.516147	0.151436	1.348804
F252	F	-0.266147	0.401436	1.598804
F253	F	-1.016122	-0.348578	0.721002
F254	F	-0.766122	-0.098578	0.971002
F255	F	-0.516122	0.151422	1.221002
F256	F	-0.266122	0.401422	1.471002
F257	F	-0.956691	-0.407995	0.563985
F258	F	-0.706691	-0.157995	0.813985
F259	F	-0.456691	0.092005	1.063985
F260	F	-0.206691	0.342005	1.313985
H261	H	-0.971548	-0.393160	0.443925
H262	H	-0.721548	-0.143160	0.693925
H263	H	-0.471548	0.106840	0.943925
H264	H	-0.221548	0.356840	1.193925
F265	F	-1.320916	-0.043965	0.563940
F266	F	-1.070916	0.206035	0.813940
F267	F	-0.820916	0.456035	1.063940
F268	F	-0.570916	0.706035	1.313940
H269	H	-1.246670	-0.118215	0.728693
H270	H	-0.996670	0.131785	0.978693
H271	H	-0.746670	0.381785	1.228693
H272	H	-0.496670	0.631785	1.478693
F273	F	-1.016125	-0.348662	0.279154
F274	F	-0.766125	-0.098662	0.529154
F275	F	-0.516125	0.151338	0.779154
F276	F	-0.266125	0.401338	1.029154
H277	H	-1.030992	-0.333824	0.159074
H278	H	-0.780992	-0.083824	0.409074
H279	H	-0.530992	0.166176	0.659074
H280	H	-0.280992	0.416176	0.909074
F281	F	-1.261527	-0.103474	0.151311
F282	F	-1.011527	0.146526	0.401311
F283	F	-0.761527	0.396526	0.651311
F284	F	-0.511527	0.646526	0.901311
F285	F	-1.261514	-0.103433	0.279112
F286	F	-1.011514	0.146567	0.529112
F287	F	-0.761514	0.396567	0.779112
F288	F	-0.511514	0.646567	1.029112
H289	H	-1.306067	-0.058842	0.443880
H290	H	-1.056067	0.191158	0.693880
H291	H	-0.806067	0.441158	0.943880
H292	H	-0.556067	0.691158	1.193880
F293	F	-1.261524	-0.103346	0.848770
F294	F	-1.011524	0.146654	1.098770
F295	F	-0.761524	0.396654	1.348770
F296	F	-0.511524	0.646654	1.598770
