data_functionalizedCrystal
_audit_creation_method	'MofGen! by Chris Wilmer'
_symmetry_space_group_name_H-M	'P1'
_symmetry_Int_Tables_number	1
_symmetry_cell_setting	triclinic
loop_
_symmetry_equiv_pos_as_xyz
  x,y,z
_cell_length_a	12.759399
_cell_length_b	21.295420
_cell_length_c	12.759401
_cell_angle_alpha	89.990037
_cell_angle_beta	90.008321
_cell_angle_gamma	89.990842
loop_
_atom_site_label
_atom_site_type_symbol
_atom_site_fract_x
_atom_site_fract_y
_atom_site_fract_z
Zn1	Zn	-0.418617	-0.962325	0.594101
Zn2	Zn	-0.085283	-0.628991	0.927435
Zn3	Zn	0.248050	-0.295658	1.260768
Zn4	Zn	-0.594263	-0.962284	0.418420
Zn5	Zn	-0.260930	-0.628951	0.751754
Zn6	Zn	0.072404	-0.295618	1.085087
Zn7	Zn	-0.418580	-0.857077	0.418427
Zn8	Zn	-0.085247	-0.523743	0.751761
Zn9	Zn	0.248086	-0.190410	1.085094
Zn10	Zn	-0.594236	-0.857045	0.594048
Zn11	Zn	-0.260903	-0.523712	0.927381
Zn12	Zn	0.072431	-0.190379	1.260715
O13	O	-0.506424	-0.909683	0.506249
O14	O	-0.173091	-0.576349	0.839583
O15	O	0.160243	-0.243016	1.172916
O16	O	-0.441943	-1.050409	0.570816
O17	O	-0.108610	-0.717075	0.904150
O18	O	0.224724	-0.383742	1.237483
O19	O	-0.570954	-0.948325	0.271400
O20	O	-0.237621	-0.614991	0.604734
O21	O	0.095712	-0.281658	0.938067
O22	O	-0.271564	-0.871068	0.441756
O23	O	0.061769	-0.537735	0.775089
O24	O	0.395103	-0.204401	1.108423
O25	O	-0.570990	-1.050379	0.441744
O26	O	-0.237656	-0.717046	0.775077
O27	O	0.095677	-0.383712	1.108411
O28	O	-0.271591	-0.948393	0.570823
O29	O	0.061743	-0.615060	0.904156
O30	O	0.395076	-0.281726	1.237490
O31	O	-0.441881	-0.871029	0.271405
O32	O	-0.108548	-0.537696	0.604739
O33	O	0.224785	-0.204362	0.938072
O34	O	-0.441855	-0.768983	0.441705
O35	O	-0.108522	-0.435650	0.775038
O36	O	0.224812	-0.102317	1.108371
O37	O	-0.570943	-0.871015	0.741076
O38	O	-0.237610	-0.537681	1.074410
O39	O	0.095723	-0.204348	1.407743
O40	O	-0.570908	-0.768960	0.570732
O41	O	-0.237575	-0.435627	0.904066
O42	O	0.095758	-0.102294	1.237399
O43	O	-0.441917	-0.948363	0.741115
O44	O	-0.108583	-0.615029	1.074449
O45	O	0.224750	-0.281696	1.407782
O46	O	-0.741280	-0.948294	0.441693
O47	O	-0.407947	-0.614961	0.775026
O48	O	-0.074614	-0.281627	1.108359
O49	O	-0.741260	-0.870976	0.570726
O50	O	-0.407927	-0.537642	0.904059
O51	O	-0.074594	-0.204309	1.237392
C52	C	-0.506375	-0.746131	0.506214
C53	C	-0.173042	-0.412798	0.839547
C54	C	0.160291	-0.079464	1.172881
C55	C	-0.506380	-0.676163	0.506224
C56	C	-0.173047	-0.342830	0.839557
C57	C	0.160287	-0.009496	1.172891
C58	C	-0.439351	-0.176720	0.573557
C59	C	-0.106017	0.156614	0.906891
C60	C	0.227316	0.489947	1.240224
C61	C	-0.439346	-0.242462	0.573559
C62	C	-0.106013	0.090871	0.906893
C63	C	0.227320	0.424204	1.240226
C64	C	-0.506424	-0.275324	0.506252
C65	C	-0.173090	0.058010	0.839586
C66	C	0.160243	0.391343	1.172919
C67	C	-0.573530	-0.242437	0.438957
C68	C	-0.240197	0.090896	0.772290
C69	C	0.093137	0.424230	1.105624
C70	C	-0.573540	-0.176696	0.438964
C71	C	-0.240207	0.156638	0.772298
C72	C	0.093127	0.489971	1.105631
N73	N	-0.514323	-0.378530	0.414262
N74	N	-0.180990	-0.045197	0.747595
N75	N	0.152344	0.288137	1.080929
N76	N	-0.514307	-0.440981	0.414258
N77	N	-0.180974	-0.107648	0.747592
N78	N	0.152359	0.225685	1.080925
C79	C	-0.506399	-0.473398	0.506228
C80	C	-0.173066	-0.140065	0.839561
C81	C	0.160267	0.193268	1.172895
N82	N	-0.498487	-0.441005	0.598204
N83	N	-0.165154	-0.107671	0.931537
N84	N	0.168180	0.225662	1.264871
N85	N	-0.498497	-0.378547	0.598207
N86	N	-0.165164	-0.045214	0.931540
N87	N	0.168170	0.288119	1.264873
C88	C	-0.506421	-0.346609	0.506237
C89	C	-0.173087	-0.013276	0.839571
C90	C	0.160246	0.320058	1.172904
C91	C	-0.439298	-0.577563	0.573527
C92	C	-0.105964	-0.244229	0.906860
C93	C	0.227369	0.089104	1.240193
C94	C	-0.439301	-0.643306	0.573530
C95	C	-0.105967	-0.309973	0.906864
C96	C	0.227366	0.023360	1.240197
C97	C	-0.573479	-0.643280	0.438919
C98	C	-0.240145	-0.309946	0.772252
C99	C	0.093188	0.023387	1.105585
C100	C	-0.573481	-0.577537	0.438924
C101	C	-0.240148	-0.244204	0.772258
C102	C	0.093185	0.089130	1.105591
C103	C	-0.506385	-0.544683	0.506227
C104	C	-0.173052	-0.211349	0.839560
C105	C	0.160281	0.121984	1.172893
C106	C	-0.779391	-0.909644	0.506225
C107	C	-0.446058	-0.576311	0.839559
C108	C	-0.112725	-0.242977	1.172892
C109	C	-0.896168	-0.909685	0.506250
C110	C	-0.562835	-0.576352	0.839584
C111	C	-0.229501	-0.243019	1.172917
C112	C	-0.951005	-0.949991	0.439139
C113	C	-0.617672	-0.616658	0.772473
C114	C	-0.284339	-0.283324	1.105806
C115	C	-1.060729	-0.950031	0.439174
C116	C	-0.727396	-0.616698	0.772508
C117	C	-0.394063	-0.283365	1.105841
C118	C	-1.060769	-0.869455	0.573435
C119	C	-0.727436	-0.536122	0.906768
C120	C	-0.394102	-0.202788	1.240102
C121	C	-0.951047	-0.869418	0.573404
C122	C	-0.617714	-0.536085	0.906737
C123	C	-0.284380	-0.202752	1.240071
C124	C	-0.232391	-0.909739	0.506296
C125	C	0.100943	-0.576405	0.839630
C126	C	0.434276	-0.243072	1.172963
C127	C	-0.115614	-0.909762	0.506316
C128	C	0.217719	-0.576429	0.839650
C129	C	0.551053	-0.243096	1.172983
C130	C	-0.506431	-0.909690	0.780283
C131	C	-0.173098	-0.576356	1.113616
C132	C	0.160236	-0.243023	1.446949
C133	C	-0.506434	-0.909693	0.897059
C134	C	-0.173101	-0.576359	1.230393
C135	C	0.160232	-0.243026	1.563726
C136	C	-0.506461	-0.073873	0.506277
C137	C	-0.173127	0.259460	0.839610
C138	C	0.160206	0.592794	1.172943
C139	C	-0.506444	-0.143841	0.506267
C140	C	-0.173110	0.189492	0.839600
C141	C	0.160223	0.522826	1.172933
C142	C	-0.439261	-0.949963	0.951943
C143	C	-0.105928	-0.616629	1.285276
C144	C	0.227406	-0.283296	1.618610
C145	C	-0.439259	-0.949957	1.061667
C146	C	-0.105926	-0.616624	1.395001
C147	C	0.227408	-0.283291	1.728334
C148	C	-0.573613	-0.869410	1.061614
C149	C	-0.240279	-0.536077	1.394947
C150	C	0.093054	-0.202743	1.728280
C151	C	-0.573608	-0.869413	0.951892
C152	C	-0.240275	-0.536079	1.285225
C153	C	0.093058	-0.202746	1.618558
C154	C	-0.506440	-0.909675	1.233282
C155	C	-0.173107	-0.576342	1.566615
C156	C	0.160227	-0.243009	1.899949
C157	C	-0.506436	-0.909685	1.116505
C158	C	-0.173103	-0.576351	1.449839
C159	C	0.160230	-0.243018	1.783172
H160	H	-0.628111	-0.550767	0.384124
H161	H	-0.294778	-0.217434	0.717458
H162	H	0.038555	0.115900	1.050791
H163	H	-0.628306	-0.836617	1.106272
H164	H	-0.294972	-0.503284	1.439605
H165	H	0.038361	-0.169950	1.772938
Cl166	Cl	-0.354818	-1.000591	1.130660
Cl167	Cl	-0.021484	-0.667257	1.463993
Cl168	Cl	0.311849	-0.333924	1.797326
Cl169	Cl	-0.658056	-0.818780	0.882889
Cl170	Cl	-0.324723	-0.485446	1.216223
Cl171	Cl	0.008611	-0.152113	1.549556
Cl172	Cl	-0.657815	-0.684585	0.354311
Cl173	Cl	-0.324481	-0.351251	0.687645
Cl174	Cl	0.008852	-0.017918	1.020978
H175	H	-0.384664	-0.550811	0.628328
H176	H	-0.051331	-0.217478	0.961662
H177	H	0.282003	0.115856	1.294995
H178	H	-0.384720	-0.149974	0.628365
H179	H	-0.051387	0.183360	0.961698
H180	H	0.281947	0.516693	1.295031
Cl181	Cl	-0.657888	-0.135360	0.354358
Cl182	Cl	-0.324554	0.197973	0.687691
Cl183	Cl	0.008779	0.531307	1.021025
Cl184	Cl	-0.657860	-0.283747	0.354347
Cl185	Cl	-0.324527	0.049586	0.687680
Cl186	Cl	0.008806	0.382919	1.021013
Cl187	Cl	-0.354991	-0.283804	0.658157
Cl188	Cl	-0.021658	0.049529	0.991490
Cl189	Cl	0.311675	0.382862	1.324824
H190	H	-1.105465	-0.836670	0.628107
H191	H	-0.772131	-0.503337	0.961441
H192	H	-0.438798	-0.170003	1.294774
H193	H	-0.384668	-0.670075	0.628334
H194	H	-0.051335	-0.336742	0.961667
H195	H	0.281998	-0.003408	1.295001
Cl196	Cl	-0.882018	-1.000614	0.354720
Cl197	Cl	-0.548685	-0.667280	0.688054
Cl198	Cl	-0.215352	-0.333947	1.021387
H199	H	-1.105373	-0.982853	0.384527
H200	H	-0.772040	-0.649520	0.717861
H201	H	-0.438707	-0.316186	1.051194
Cl202	Cl	-0.882103	-0.818747	0.657785
Cl203	Cl	-0.548770	-0.485414	0.991119
Cl204	Cl	-0.215436	-0.152081	1.324452
Cl205	Cl	-0.354809	-1.000598	0.883015
Cl206	Cl	-0.021476	-0.667264	1.216348
Cl207	Cl	0.311857	-0.333931	1.549681
