data_functionalizedCrystal
_audit_creation_method	'MofGen! by Chris Wilmer'
_symmetry_space_group_name_H-M	'P1'
_symmetry_Int_Tables_number	1
_symmetry_cell_setting	triclinic
loop_
_symmetry_equiv_pos_as_xyz
  x,y,z
_cell_length_a	10.654554
_cell_length_b	10.723023
_cell_length_c	9.730223
_cell_angle_alpha	89.999020
_cell_angle_beta	90.002983
_cell_angle_gamma	84.477146
loop_
_atom_site_label
_atom_site_type_symbol
_atom_site_fract_x
_atom_site_fract_y
_atom_site_fract_z
O1	O	1.667809	0.175293	0.114292
O2	O	1.302329	0.191986	0.114293
O3	O	1.493500	0.002065	0.114287
O4	O	1.476638	0.365215	0.114298
O5	O	1.493487	0.002076	-0.114293
O6	O	1.302316	0.191997	-0.114287
O7	O	1.667797	0.175304	-0.114288
Zn8	Zn	1.485054	0.183652	-0.150580
Zn9	Zn	1.485071	0.183638	0.150584
O10	O	1.476626	0.365225	-0.114282
C11	C	1.255525	0.190765	0.000003
C12	C	1.116082	0.187094	0.000004
C13	C	1.492267	-0.044430	-0.000002
C14	C	1.488596	-0.182984	0.000002
C15	C	0.905557	0.295472	0.000010
C16	C	1.036578	0.298922	0.000010
C17	C	1.064560	0.071809	0.000011
C18	C	0.933541	0.068361	0.000020
C19	C	0.889403	0.426595	0.000004
C20	C	1.020424	0.430044	0.000004
C21	C	1.486966	-0.244756	0.118416
C22	C	1.483172	-0.387960	0.118423
C23	C	1.714600	0.176525	0.000004
C24	C	1.854043	0.180196	0.000013
C25	C	1.477859	0.411720	0.000009
C26	C	1.481529	0.550275	0.000014
N27	N	1.485052	0.183661	-0.356116
C28	C	1.561870	0.260047	-0.428053
C29	C	1.561889	0.260023	-0.571936
C30	C	1.408262	0.107225	-0.571932
C31	C	1.408250	0.107243	-0.428052
C32	C	1.650562	0.348268	-0.428056
C33	C	1.650581	0.348245	-0.571939
N34	N	1.485082	0.183620	0.356121
H35	H	0.891604	-0.025508	0.000040
C36	C	1.152019	-0.051203	0.000005
N37	N	1.217893	-0.143859	-0.000006
C38	C	0.833000	0.493330	0.129238
N39	N	0.790517	0.543591	0.226578
H40	H	1.481776	-0.441082	0.219801
H41	H	1.345711	0.045028	-0.369486
C42	C	0.827707	0.480143	-0.133309
N43	N	0.781236	0.520483	-0.233718
H44	H	1.482937	-0.396612	-0.101369
H45	H	1.049772	0.481310	-0.095666
H46	H	1.487175	-0.236117	-0.101370
C47	C	1.488883	-0.172983	0.255371
N48	N	1.490331	-0.118925	0.358529
H49	H	1.611017	0.442234	-0.383449
H50	H	1.345732	0.045008	-0.630520
H51	H	1.056056	0.471798	0.098702
H52	H	1.749618	0.317609	-0.388992
C53	C	1.778357	0.295206	-0.632205
N54	N	1.874588	0.255233	-0.677598
H55	H	1.619633	0.446647	-0.611010
