data_functionalizedCrystal
_audit_creation_method	'MofGen! by Chris Wilmer'
_symmetry_space_group_name_H-M	'P1'
_symmetry_Int_Tables_number	1
_symmetry_cell_setting	triclinic
loop_
_symmetry_equiv_pos_as_xyz
  x,y,z
_cell_length_a	16.120530
_cell_length_b	12.594516
_cell_length_c	16.120728
_cell_angle_alpha	87.103457
_cell_angle_beta	89.860094
_cell_angle_gamma	87.111852
loop_
_atom_site_label
_atom_site_type_symbol
_atom_site_fract_x
_atom_site_fract_y
_atom_site_fract_z
Zn1	Zn	1.247392	-0.539467	0.534597
Zn2	Zn	1.580725	-0.206134	0.867931
Zn3	Zn	1.914059	0.127200	1.201264
Zn4	Zn	1.254386	-0.708853	0.395553
Zn5	Zn	1.587719	-0.375520	0.728886
Zn6	Zn	1.921052	-0.042187	1.062220
Zn7	Zn	1.115408	-0.521421	0.388515
Zn8	Zn	1.448742	-0.188088	0.721849
Zn9	Zn	1.782075	0.145245	1.055182
Zn10	Zn	1.108317	-0.707927	0.527521
Zn11	Zn	1.441650	-0.374594	0.860854
Zn12	Zn	1.774984	-0.041260	1.194188
O13	O	1.181376	-0.619417	0.461547
O14	O	1.514709	-0.286084	0.794880
O15	O	1.848042	0.047249	1.128213
O16	O	1.364686	-0.569876	0.522059
O17	O	1.698019	-0.236543	0.855393
O18	O	2.031352	0.096790	1.188726
O19	O	1.241845	-0.676826	0.278255
O20	O	1.575178	-0.343492	0.611588
O21	O	1.908511	-0.010159	0.944921
O22	O	1.132957	-0.374873	0.407910
O23	O	1.466290	-0.041540	0.741243
O24	O	1.799624	0.291794	1.074576
O25	O	1.369824	-0.694324	0.419904
O26	O	1.703157	-0.360991	0.753238
O27	O	2.036491	-0.027657	1.086571
O28	O	1.229925	-0.388131	0.515235
O29	O	1.563258	-0.054798	0.848569
O30	O	1.896592	0.278536	1.181902
O31	O	1.139739	-0.539120	0.273084
O32	O	1.473072	-0.205787	0.606418
O33	O	1.806405	0.127547	0.939751
O34	O	0.998102	-0.538222	0.401048
O35	O	1.331435	-0.204888	0.734381
O36	O	1.664768	0.128445	1.067715
O37	O	1.120871	-0.692745	0.644824
O38	O	1.454204	-0.359412	0.978158
O39	O	1.787538	-0.026078	1.311491
O40	O	0.992892	-0.675247	0.503175
O41	O	1.326225	-0.341913	0.836508
O42	O	1.659559	-0.008580	1.169841
O43	O	1.223049	-0.568978	0.650023
O44	O	1.556382	-0.235645	0.983357
O45	O	1.889716	0.097689	1.316690
O46	O	1.234969	-0.857673	0.413043
O47	O	1.568302	-0.524339	0.746376
O48	O	1.901635	-0.191006	1.079709
O49	O	1.127653	-0.856992	0.509999
O50	O	1.460986	-0.523659	0.843332
O51	O	1.794319	-0.190325	1.176665
C52	C	0.965324	-0.604676	0.450580
C53	C	1.298658	-0.271343	0.783914
C54	C	1.631991	0.061990	1.117247
C55	C	0.872896	-0.598397	0.445909
C56	C	1.206229	-0.265064	0.779242
C57	C	1.539562	0.068270	1.112575
C58	C	0.703667	-0.586908	0.437387
C59	C	1.037000	-0.253575	0.770720
C60	C	1.370333	0.079759	1.104053
C61	C	0.659923	-0.652009	0.485767
C62	C	0.993256	-0.318675	0.819101
C63	C	1.326589	0.014658	1.152434
C64	C	0.565758	-0.645616	0.481026
C65	C	0.899091	-0.312283	0.814359
C66	C	1.232424	0.021051	1.147692
C67	C	0.797840	-0.593299	0.442127
C68	C	1.131173	-0.259966	0.775461
C69	C	1.464507	0.073368	1.108794
C70	C	1.181322	-0.895954	0.461536
C71	C	1.514655	-0.562621	0.794869
C72	C	1.847988	-0.229287	1.128202
C73	C	1.181373	-1.014264	0.461563
C74	C	1.514707	-0.680931	0.794896
C75	C	1.848040	-0.347598	1.128229
C76	C	1.123001	-1.083183	0.514258
C77	C	1.456334	-0.749850	0.847591
C78	C	1.789667	-0.416517	1.180925
C79	C	1.106603	-1.147965	0.437355
C80	C	1.439936	-0.814632	0.770688
C81	C	1.773270	-0.481299	1.104022
C82	C	1.197846	-1.160287	0.538483
C83	C	1.531179	-0.826954	0.871816
C84	C	1.864513	-0.493621	1.205149
C85	C	1.164937	-1.077483	0.384617
C86	C	1.498271	-0.744150	0.717951
C87	C	1.831604	-0.410816	1.051284
C88	C	1.256213	-1.089804	0.485798
C89	C	1.589547	-0.756471	0.819132
C90	C	1.922880	-0.423138	1.152465
C91	C	1.239847	-1.154553	0.408844
C92	C	1.573180	-0.821220	0.742178
C93	C	1.906514	-0.487887	1.075511
C94	C	1.398271	-0.634216	0.472556
C95	C	1.731604	-0.300883	0.805890
C96	C	2.064938	0.032450	1.139223
C97	C	1.490699	-0.640523	0.477248
C98	C	1.824032	-0.307190	0.810581
C99	C	2.157365	0.026144	1.143914
C100	C	1.170389	-0.632771	0.678440
C101	C	1.503722	-0.299438	1.011773
C102	C	1.837056	0.033895	1.345106
C103	C	1.165707	-0.638462	0.770866
C104	C	1.499040	-0.305129	1.104200
C105	C	1.832374	0.028205	1.437533
C106	C	1.181452	-0.341803	0.461577
C107	C	1.514785	-0.008470	0.794910
C108	C	1.848119	0.324863	1.128244
C109	C	1.181484	-0.223501	0.461590
C110	C	1.514818	0.109833	0.794923
C111	C	1.848151	0.443166	1.128257
C112	C	1.157128	-0.648826	0.940090
C113	C	1.490462	-0.315493	1.273423
C114	C	1.823795	0.017841	1.606757
C115	C	1.205598	-0.590109	0.983853
C116	C	1.538931	-0.256775	1.317186
C117	C	1.872264	0.076558	1.650520
C118	C	1.200825	-0.595875	1.078015
C119	C	1.534158	-0.262542	1.411348
C120	C	1.867491	0.070791	1.744682
C121	C	1.161900	-0.643061	0.845920
C122	C	1.495234	-0.309727	1.179253
C123	C	1.828567	0.023606	1.512586
C124	C	1.192320	-0.606144	1.245497
C125	C	1.525654	-0.272811	1.578831
C126	C	1.858987	0.060523	1.912164
C127	C	1.197022	-0.600470	1.153072
C128	C	1.530355	-0.267137	1.486405
C129	C	1.863688	0.066197	1.819738
H130	H	0.670399	-0.526378	0.392408
H131	H	1.003732	-0.193045	0.725742
H132	H	1.337066	0.140288	1.059075
F133	F	0.703406	-0.731127	0.544567
F134	F	1.036739	-0.397794	0.877900
F135	F	1.370072	-0.064461	1.211233
F136	F	1.098210	-0.720191	0.983549
F137	F	1.431543	-0.386858	1.316882
F138	F	1.764877	-0.053525	1.650215
H139	H	1.250678	-0.535507	0.950602
H140	H	1.584011	-0.202174	1.283935
H141	H	1.917345	0.131159	1.617269
H142	H	1.073556	-1.051848	0.558748
H143	H	1.406890	-0.718515	0.892081
H144	H	1.740223	-0.385182	1.225415
H145	H	1.289261	-1.185682	0.364239
H146	H	1.622594	-0.852349	0.697572
H147	H	1.955928	-0.519016	1.030906
F148	F	1.023941	-1.181631	0.410569
F149	F	1.357275	-0.848298	0.743902
F150	F	1.690608	-0.514964	1.077236
F151	F	1.146691	-1.030370	0.299577
F152	F	1.480024	-0.697037	0.632910
F153	F	1.813357	-0.363704	0.966244
F154	F	1.338851	-1.056107	0.512610
F155	F	1.672184	-0.722773	0.845944
F156	F	2.005518	-0.389440	1.179277
F157	F	1.215999	-1.207569	0.623492
F158	F	1.549332	-0.874235	0.956826
F159	F	1.882665	-0.540902	1.290159
