data_functionalizedCrystal
_audit_creation_method	'MofGen! by Chris Wilmer'
_symmetry_space_group_name_H-M	'P1'
_symmetry_Int_Tables_number	1
_symmetry_cell_setting	triclinic
loop_
_symmetry_equiv_pos_as_xyz
  x,y,z
_cell_length_a	18.101397
_cell_length_b	14.908571
_cell_length_c	14.908694
_cell_angle_alpha	96.407528
_cell_angle_beta	93.264668
_cell_angle_gamma	93.283588
loop_
_atom_site_label
_atom_site_type_symbol
_atom_site_fract_x
_atom_site_fract_y
_atom_site_fract_z
Zn1	Zn	-0.389882	-1.413338	-0.591472
Zn2	Zn	-0.506145	-1.404505	-0.440096
Zn3	Zn	-0.374735	-1.253240	-0.431409
Zn4	Zn	-0.506088	-1.261937	-0.582695
O5	O	-0.444213	-1.333255	-0.511418
O6	O	-0.411668	-1.538833	-0.578701
O7	O	-0.482398	-1.377103	-0.312279
O8	O	-0.273116	-1.274534	-0.452679
O9	O	-0.497086	-1.532344	-0.467486
O10	O	-0.284244	-1.392158	-0.570277
O11	O	-0.385851	-1.265970	-0.305896
O12	O	-0.385796	-1.127727	-0.444168
O13	O	-0.496988	-1.289357	-0.710524
O14	O	-0.482300	-1.134116	-0.555317
O15	O	-0.411612	-1.400591	-0.716973
O16	O	-0.609766	-1.385536	-0.458975
O17	O	-0.609724	-1.280792	-0.563741
C18	C	-0.432399	-1.098078	-0.497848
C19	C	-0.427364	-0.997470	-0.492064
C20	C	-0.636617	-1.333175	-0.511370
C21	C	-0.718934	-1.333225	-0.511384
C22	C	-1.018035	-1.333346	-0.511473
C23	C	-0.986686	-1.399042	-0.445358
C24	C	-0.901089	-1.399294	-0.445554
C25	C	-0.869648	-1.333286	-0.511428
C26	C	-0.906728	-1.364649	-0.608326
C27	C	-0.992381	-1.365167	-0.607975
C28	C	-0.980514	-1.236148	-0.481506
C29	C	-0.894782	-1.236498	-0.479403
C30	C	-0.785785	-1.333251	-0.511408
C31	C	-1.101897	-1.333383	-0.511499
C32	C	-0.455983	-1.346929	-0.747509
C33	C	-0.461000	-1.352756	-0.848118
C34	C	-0.251059	-1.333361	-0.511488
C35	C	-0.168748	-1.333406	-0.511517
C36	C	-0.456073	-1.569350	-0.525042
C37	C	-0.461127	-1.669960	-0.530847
C38	C	-0.518532	-0.815109	-0.596779
C39	C	-0.513803	-0.720579	-0.591348
C40	C	-0.413175	-0.713878	-0.475775
C41	C	-0.417904	-0.808408	-0.481206
C42	C	-0.470584	-0.859020	-0.541710
C43	C	-0.475316	-0.953552	-0.547136
C44	C	-0.374685	-0.946850	-0.431568
C45	C	-0.369956	-0.852319	-0.426137
C46	C	-0.369892	-1.247961	-1.030525
C47	C	-0.374602	-1.253433	-1.125055
C48	C	-0.475134	-1.369167	-1.131709
C49	C	-0.470423	-1.363695	-1.037179
C50	C	-0.417800	-1.303091	-0.986590
C51	C	-0.413086	-1.297624	-0.892059
C52	C	-0.513621	-1.413353	-0.898715
C53	C	-0.518331	-1.418825	-0.993245
C54	C	-0.432437	-1.319686	-0.276248
C55	C	-0.427221	-1.314035	-0.175650
H56	H	-0.875774	-1.379035	-0.373879
H57	H	-0.370281	-0.672653	-0.426522
H58	H	-0.552629	-1.458247	-0.862933
H59	H	-0.552845	-0.684830	-0.636194
H60	H	-1.002975	-1.378966	-0.373482
C61	C	-0.318023	-0.704435	-0.366497
C62	C	-0.312051	-0.796681	-0.359635
H63	H	-0.282277	-0.670089	-0.325437
H64	H	-0.309517	-0.692492	-0.426442
H65	H	-0.366326	-0.688161	-0.352251
H66	H	-0.263750	-0.812956	-0.373888
H67	H	-0.320552	-0.808629	-0.299677
H68	H	-1.012495	-1.470531	-0.465414
C69	C	-0.363493	-1.046073	-0.315937
C70	C	-0.321976	-0.995118	-0.371029
H71	H	-0.330954	-1.075875	-0.278566
H72	H	-0.392135	-1.007167	-0.279130
H73	H	-0.395539	-1.089745	-0.352754
H74	H	-0.289934	-0.951441	-0.334212
H75	H	-0.293322	-1.034028	-0.407840
H76	H	-0.884915	-1.471181	-0.465818
C77	C	-0.617525	-0.812242	-0.710471
C78	C	-0.576436	-0.870748	-0.663281
H79	H	-0.653270	-0.846593	-0.751531
H80	H	-0.641989	-0.773071	-0.668853
H81	H	-0.585182	-0.777393	-0.743045
H82	H	-0.608779	-0.905592	-0.630701
H83	H	-0.551971	-0.909934	-0.704905
C84	C	-0.314199	-1.183765	-0.894979
C85	C	-0.355249	-1.231004	-0.836448
H86	H	-0.278497	-1.142630	-0.860647
H87	H	-0.289686	-1.225348	-0.934131
H88	H	-0.346575	-1.151268	-0.929844
H89	H	-0.322873	-1.263506	-0.801588
H90	H	-0.379763	-1.189415	-0.797280
C91	C	-0.889031	-1.081076	-0.508262
C92	C	-0.865410	-1.166257	-0.539051
H93	H	-0.870896	-1.037715	-0.545091
H94	H	-0.941672	-1.083367	-0.511398
H95	H	-0.870533	-1.064373	-0.447418
H96	H	-0.883913	-1.182963	-0.599893
H97	H	-0.812759	-1.163968	-0.535925
C98	C	-1.042909	-1.100500	-0.497883
C99	C	-1.007807	-1.169977	-0.546418
H100	H	-1.059757	-1.059655	-0.537962
H101	H	-1.083959	-1.125593	-0.470055
H102	H	-1.008808	-1.069124	-0.452724
H103	H	-1.041909	-1.201358	-0.591573
H104	H	-0.966751	-1.144882	-0.574261
C105	C	-0.527006	-1.428910	-1.279575
C106	C	-0.532986	-1.435762	-1.187327
H107	H	-0.562722	-1.470025	-1.313909
H108	H	-0.535553	-1.368984	-1.291533
H109	H	-0.478688	-1.443092	-1.295847
H110	H	-0.581301	-1.421575	-1.171053
H111	H	-0.524444	-1.495703	-1.175363
C112	C	-0.497138	-1.066942	-0.674974
C113	C	-0.533218	-1.009191	-0.613641
H114	H	-0.532885	-1.101292	-0.716030
H115	H	-0.464805	-1.032088	-0.707544
H116	H	-0.469263	-1.106620	-0.642942
H117	H	-0.561089	-0.969508	-0.645673
H118	H	-0.565564	-1.044047	-0.581068
H119	H	-0.327037	-1.198623	-0.989335
C120	C	-0.274755	-1.138492	-1.108978
C121	C	-0.321937	-1.192837	-1.173349
H122	H	-0.242239	-1.101085	-1.138795
H123	H	-0.303445	-1.101720	-1.070102
H124	H	-0.246574	-1.175819	-1.074392
H125	H	-0.350122	-1.155510	-1.207931
H126	H	-0.293244	-1.229613	-1.212240
C127	C	-0.968021	-1.517885	-0.661500
C128	C	-1.025418	-1.461299	-0.641367
H129	H	-0.988415	-1.577235	-0.682109
H130	H	-0.940328	-1.495385	-0.707357
H131	H	-0.936400	-1.519421	-0.608683
H132	H	-1.057036	-1.459758	-0.694186
H133	H	-1.053124	-1.483805	-0.595507
C134	C	-0.563545	-1.573766	-1.031188
C135	C	-0.576172	-1.485440	-1.048856
H136	H	-0.599256	-1.614891	-1.065515
H137	H	-0.515231	-1.587923	-1.047466
H138	H	-0.567596	-1.578386	-0.968599
H139	H	-0.572115	-1.480818	-1.111444
H140	H	-0.624498	-1.471279	-1.032584
C141	C	-0.960554	-1.266723	-0.718733
C142	C	-1.020730	-1.303794	-0.677153
H143	H	-0.978055	-1.228845	-0.761448
H144	H	-0.927785	-1.232129	-0.674208
H145	H	-0.935017	-1.314056	-0.748755
H146	H	-1.046263	-1.256461	-0.647126
H147	H	-1.053511	-1.338388	-0.721685
H148	H	-0.886585	-1.318501	-0.659148
H149	H	-0.997572	-1.208680	-0.411785
C150	C	-0.918642	-1.188570	-0.325197
C151	C	-0.861397	-1.204764	-0.383078
H152	H	-0.898036	-1.169005	-0.265721
H153	H	-0.947768	-1.143047	-0.345813
H154	H	-0.948937	-1.242683	-0.324791
H155	H	-0.831105	-1.150649	-0.383488
H156	H	-0.832258	-1.250290	-0.362455
H157	H	-0.889749	-1.435096	-0.633375
