data_functionalizedCrystal
_audit_creation_method	'MofGen! by Chris Wilmer'
_symmetry_space_group_name_H-M	'P1'
_symmetry_Int_Tables_number	1
_symmetry_cell_setting	triclinic
loop_
_symmetry_equiv_pos_as_xyz
  x,y,z
_cell_length_a	19.121063
_cell_length_b	13.032951
_cell_length_c	13.032268
_cell_angle_alpha	89.114265
_cell_angle_beta	99.247498
_cell_angle_gamma	94.436940
loop_
_atom_site_label
_atom_site_type_symbol
_atom_site_fract_x
_atom_site_fract_y
_atom_site_fract_z
Zn1	Zn	-0.473708	-1.465014	-0.806619
Zn2	Zn	-0.140375	-1.131680	-0.473285
Zn3	Zn	0.192959	-0.798347	-0.139952
Zn4	Zn	-0.578206	-1.479375	-0.640318
Zn5	Zn	-0.244873	-1.146041	-0.306985
Zn6	Zn	0.088461	-0.812708	0.026349
Zn7	Zn	-0.444404	-1.316943	-0.611263
Zn8	Zn	-0.111071	-0.983609	-0.277930
Zn9	Zn	0.222263	-0.650276	0.055404
Zn10	Zn	-0.574407	-1.285892	-0.790231
Zn11	Zn	-0.241074	-0.952559	-0.456898
Zn12	Zn	0.092259	-0.619225	-0.123565
O13	O	-0.517681	-1.386806	-0.712108
O14	O	-0.184348	-1.053472	-0.378775
O15	O	0.148985	-0.720139	-0.045441
O16	O	-0.501424	-1.609860	-0.803576
O17	O	-0.168090	-1.276527	-0.470243
O18	O	0.165243	-0.943194	-0.136910
O19	O	-0.549783	-1.476833	-0.491968
O20	O	-0.216449	-1.143499	-0.158634
O21	O	0.116884	-0.810166	0.174699
O22	O	-0.350152	-1.343569	-0.631876
O23	O	-0.016818	-1.010236	-0.298543
O24	O	0.316515	-0.676902	0.034791
O25	O	-0.578198	-1.620411	-0.681396
O26	O	-0.244864	-1.287078	-0.348063
O27	O	0.088469	-0.953745	-0.014729
O28	O	-0.371681	-1.452356	-0.775403
O29	O	-0.038348	-1.119023	-0.442070
O30	O	0.294985	-0.785690	-0.108736
O31	O	-0.451479	-1.357494	-0.470621
O32	O	-0.118146	-1.024161	-0.137288
O33	O	0.215188	-0.690828	0.196046
O34	O	-0.447796	-1.169882	-0.615986
O35	O	-0.114462	-0.836549	-0.282653
O36	O	0.218871	-0.503215	0.050681
O37	O	-0.571724	-1.290648	-0.936902
O38	O	-0.238390	-0.957314	-0.603568
O39	O	0.094943	-0.623981	-0.270235
O40	O	-0.543309	-1.147069	-0.747473
O41	O	-0.209975	-0.813736	-0.414140
O42	O	0.123358	-0.480403	-0.080807
O43	O	-0.497740	-1.422248	-0.948941
O44	O	-0.164407	-1.088914	-0.615608
O45	O	0.168926	-0.755581	-0.282275
O46	O	-0.675842	-1.446724	-0.665506
O47	O	-0.342508	-1.113391	-0.332172
O48	O	-0.009175	-0.780057	0.001161
O49	O	-0.673051	-1.304573	-0.775647
O50	O	-0.339717	-0.971240	-0.442313
O51	O	-0.006384	-0.637906	-0.108980
C52	C	-0.491961	-1.121412	-0.676799
C53	C	-0.158627	-0.788079	-0.343466
C54	C	0.174706	-0.454746	-0.010132
C55	C	-0.480976	-1.007871	-0.661719
C56	C	-0.147642	-0.674538	-0.328386
C57	C	0.185691	-0.341205	0.004947
C58	C	-0.699897	-1.373862	-0.721977
C59	C	-0.366564	-1.040529	-0.388644
C60	C	-0.033230	-0.707196	-0.055310
C61	C	-0.777861	-1.368414	-0.726246
C62	C	-0.444528	-1.035081	-0.392913
C63	C	-0.111195	-0.701747	-0.059579
C64	C	-0.523398	-0.945999	-0.719963
C65	C	-0.190064	-0.612666	-0.386630
C66	C	0.143269	-0.279333	-0.053297
C67	C	-0.512045	-0.828649	-0.704379
C68	C	-0.178712	-0.495315	-0.371046
C69	C	0.154621	-0.161982	-0.037712
C70	C	-0.815928	-1.439908	-0.670969
C71	C	-0.482594	-1.106575	-0.337635
C72	C	-0.149261	-0.773242	-0.004302
C73	C	-0.889184	-1.434789	-0.674990
C74	C	-0.555851	-1.101456	-0.341657
C75	C	-0.222518	-0.768123	-0.008324
C76	C	-0.924372	-1.358171	-0.734284
C77	C	-0.591039	-1.024838	-0.400951
C78	C	-0.257706	-0.691504	-0.067618
C79	C	-0.886301	-1.286673	-0.789568
C80	C	-0.552968	-0.953340	-0.456235
C81	C	-0.219634	-0.620006	-0.122902
C82	C	-0.813047	-1.291797	-0.785552
C83	C	-0.479713	-0.958464	-0.452218
C84	C	-0.146380	-0.625131	-0.118885
C85	C	-1.145482	-1.338999	-0.749283
C86	C	-0.812149	-1.005665	-0.415950
C87	C	-0.478815	-0.672332	-0.082616
C88	C	-1.218741	-1.333878	-0.753293
C89	C	-0.885408	-1.000545	-0.419960
C90	C	-0.552075	-0.667211	-0.086626
C91	C	-1.221620	-1.481996	-0.638716
C92	C	-0.888286	-1.148663	-0.305383
C93	C	-0.554953	-0.815329	0.027950
C94	C	-1.148363	-1.487110	-0.634700
C95	C	-0.815030	-1.153776	-0.301367
C96	C	-0.481696	-0.820443	0.031967
C97	C	-1.110299	-1.415615	-0.689988
C98	C	-0.776966	-1.082282	-0.356655
C99	C	-0.443632	-0.748949	-0.023321
C100	C	-0.999252	-1.352935	-0.738394
C101	C	-0.665919	-1.019602	-0.405061
C102	C	-0.332585	-0.686268	-0.071727
C103	C	-1.035421	-1.420857	-0.685884
C104	C	-0.702088	-1.087523	-0.352550
C105	C	-0.368755	-0.754190	-0.019217
C106	C	-0.334759	-1.399824	-0.702227
C107	C	-0.001425	-1.066491	-0.368893
C108	C	0.331908	-0.733158	-0.035560
C109	C	-0.256808	-1.405372	-0.698016
C110	C	0.076526	-1.072039	-0.364682
C111	C	0.409859	-0.738706	-0.031349
C112	C	-0.537577	-1.351382	-0.981435
C113	C	-0.204244	-1.018049	-0.648102
C114	C	0.129090	-0.684716	-0.314769
C115	C	-0.546055	-1.336287	-1.096207
C116	C	-0.212722	-1.002954	-0.762873
C117	C	0.120611	-0.669620	-0.429540
C118	C	-0.543495	-0.653237	-0.747548
C119	C	-0.210161	-0.319903	-0.414214
C120	C	0.123172	0.013430	-0.080881
C121	C	-0.554473	-0.766778	-0.762631
C122	C	-0.221140	-0.433444	-0.429298
C123	C	0.112193	-0.100111	-0.095964
C124	C	-0.513230	-1.394670	-1.153332
C125	C	-0.179896	-1.061337	-0.819999
C126	C	0.153437	-0.728003	-0.486666
C127	C	-0.521992	-1.379070	-1.271954
C128	C	-0.188658	-1.045736	-0.938621
C129	C	0.144675	-0.712403	-0.605288
C130	C	-0.497818	-1.422154	-0.443833
C131	C	-0.164485	-1.088820	-0.110500
C132	C	0.168848	-0.755487	0.222833
C133	C	-0.489162	-1.437461	-0.329078
C134	C	-0.155828	-1.104128	0.004255
C135	C	0.177505	-0.770794	0.337589
H136	H	-0.568119	-0.979906	-0.781369
H137	H	-0.234786	-0.646573	-0.448036
H138	H	0.098548	-0.313239	-0.114702
F139	F	-1.036708	-1.271393	-0.801497
F140	F	-0.703374	-0.938060	-0.468163
F141	F	-0.370041	-0.604727	-0.134830
H142	H	-0.454565	-1.498993	-1.290171
H143	H	-0.121231	-1.165660	-0.956838
H144	H	0.212102	-0.832327	-0.623504
H145	H	-0.599196	-0.800678	-0.824044
H146	H	-0.265863	-0.467344	-0.490711
H147	H	0.067470	-0.134011	-0.157377
F148	F	-0.468001	-1.475081	-1.102473
F149	F	-0.134667	-1.141747	-0.769140
F150	F	0.198666	-0.808414	-0.435807
H151	H	-0.580640	-1.274747	-1.135118
H152	H	-0.247307	-0.941414	-0.801784
H153	H	0.086027	-0.608081	-0.468451
F154	F	-0.422514	-0.963558	-0.581465
F155	F	-0.089181	-0.630225	-0.248132
F156	F	0.244152	-0.296891	0.085202
F157	F	-0.929695	-1.510887	-0.616160
F158	F	-0.596362	-1.177553	-0.282826
F159	F	-0.263028	-0.844220	0.050507
F160	F	-0.772534	-1.215705	-0.844389
F161	F	-0.439201	-0.882372	-0.511055
F162	F	-0.105867	-0.549039	-0.177722
H163	H	-1.006770	-1.483243	-0.637611
H164	H	-0.673437	-1.149910	-0.304277
H165	H	-0.340103	-0.816576	0.029056
H166	H	-0.467316	-0.794746	-0.642976
H167	H	-0.133983	-0.461413	-0.309643
H168	H	0.199350	-0.128079	0.023690
H169	H	-1.119715	-1.549499	-0.586418
H170	H	-0.786381	-1.216165	-0.253085
H171	H	-0.453048	-0.882832	0.080249
F172	F	-0.778484	-1.521452	-0.607852
F173	F	-0.445150	-1.188118	-0.274519
F174	F	-0.111817	-0.854785	0.058815
F175	F	-0.567203	-1.298630	-1.322804
F176	F	-0.233869	-0.965296	-0.989471
F177	F	0.099464	-0.631963	-0.656138
H178	H	-1.252620	-1.540204	-0.593705
H179	H	-0.919286	-1.206871	-0.260372
H180	H	-0.585953	-0.873537	0.072961
H181	H	-1.247392	-1.271496	-0.801597
H182	H	-0.914058	-0.938162	-0.468264
H183	H	-0.580725	-0.604829	-0.134930
H184	H	-1.114495	-1.280783	-0.794299
H185	H	-0.781162	-0.947450	-0.460965
H186	H	-0.447829	-0.614117	-0.127632
F187	F	-0.923753	-1.205134	-0.852680
F188	F	-0.590420	-0.871801	-0.519347
F189	F	-0.257087	-0.538468	-0.186014
