data_functionalizedCrystal
_audit_creation_method	'MofGen! by Chris Wilmer'
_symmetry_space_group_name_H-M	'P1'
_symmetry_Int_Tables_number	1
_symmetry_cell_setting	triclinic
loop_
_symmetry_equiv_pos_as_xyz
  x,y,z
_cell_length_a	27.732048
_cell_length_b	27.731996
_cell_length_c	26.809956
_cell_angle_alpha	89.998344
_cell_angle_beta	89.996742
_cell_angle_gamma	82.632022
loop_
_atom_site_label
_atom_site_type_symbol
_atom_site_fract_x
_atom_site_fract_y
_atom_site_fract_z
O1	O	0.640920	0.057512	-0.041422
O2	O	0.500125	0.066257	-0.041438
O3	O	0.574909	-0.008514	-0.041418
O4	O	0.566137	0.132283	-0.041441
O5	O	0.574894	-0.008503	0.041541
O6	O	0.500111	0.066269	0.041522
O7	O	0.640906	0.057523	0.041538
Zn8	Zn	0.570506	0.061898	0.054701
Zn9	Zn	0.570525	0.061883	-0.054601
O10	O	0.566123	0.132294	0.041518
C11	C	0.482111	0.066079	0.000040
C12	C	0.428456	0.065527	0.000034
C13	C	0.574721	-0.026516	0.000063
C14	C	0.574179	-0.080172	0.000068
C15	C	0.089634	0.106232	0.000050
C16	C	-0.112026	0.104180	0.000054
O17	O	-0.143288	0.141402	0.000070
N18	N	-0.131141	0.059844	0.000060
C19	C	-0.099838	0.016017	0.000069
O20	O	-0.120724	-0.021740	0.000079
C21	C	0.101820	0.018069	0.000068
C22	C	0.120933	0.062408	0.000056
C23	C	0.108747	0.150567	0.000039
C24	C	0.159159	0.151079	0.000035
C25	C	0.190457	0.107256	0.000042
C26	C	0.171344	0.062920	0.000052
C27	C	0.133122	-0.025757	0.000079
C28	C	0.183539	-0.025240	0.000080
C29	C	0.202652	0.019099	0.000069
C30	C	0.253055	0.019609	0.000055
N31	N	0.272171	0.063946	0.000049
C32	C	0.240872	0.107769	0.000042
C33	C	-0.205712	0.014943	0.000068
C34	C	-0.256126	0.014430	0.000068
C35	C	-0.268310	0.102594	0.000054
C36	C	-0.217895	0.103106	0.000051
C37	C	-0.186597	0.059280	0.000062
C38	C	0.346741	0.108842	0.000034
C39	C	0.397158	0.109350	0.000028
C40	C	0.409337	0.021187	0.000044
C41	C	0.358925	0.020678	0.000047
C42	C	0.327627	0.064510	0.000044
O43	O	0.284346	-0.017592	0.000045
O44	O	0.261767	0.145521	0.000043
C45	C	0.039222	0.105719	0.000053
C46	C	0.020109	0.061384	0.000064
C47	C	0.051408	0.017560	0.000071
C48	C	-0.030305	0.060871	0.000064
C49	C	-0.061604	0.104694	0.000057
C50	C	-0.042489	0.149030	0.000051
C51	C	0.007923	0.149543	0.000047
C52	C	0.032292	-0.026776	0.000077
C53	C	-0.018120	-0.027285	0.000081
C54	C	-0.049419	0.016539	0.000074
C55	C	0.570772	-0.412894	-0.045178
C56	C	0.568711	-0.614553	-0.045187
O57	O	0.568430	-0.640629	-0.083646
N58	N	0.568447	-0.639764	0.000034
C59	C	0.568695	-0.614556	0.045260
O60	O	0.568419	-0.640626	0.083723
C61	C	0.570753	-0.412899	0.045268
C62	C	0.571021	-0.387691	0.000045
C63	C	0.571040	-0.387687	-0.090398
C64	C	0.571557	-0.337276	-0.090395
C65	C	0.571807	-0.312072	-0.045173
C66	C	0.571539	-0.337280	0.000047
C67	C	0.570998	-0.387692	0.090494
C68	C	0.571511	-0.337274	0.090492
C69	C	0.571780	-0.312067	0.045268
C70	C	0.572307	-0.261665	0.045273
N71	N	0.572571	-0.236454	0.000052
C72	C	0.572321	-0.261658	-0.045171
C73	C	0.567616	-0.720430	0.045252
C74	C	0.567102	-0.770844	0.045250
C75	C	0.567117	-0.770837	-0.045197
C76	C	0.567634	-0.720422	-0.045194
C77	C	0.567880	-0.695219	0.000032
C78	C	0.573409	-0.155791	-0.045161
C79	C	0.573929	-0.105375	-0.045155
C80	C	0.573912	-0.105387	0.045292
C81	C	0.573394	-0.155798	0.045286
C82	C	0.573141	-0.180999	0.000055
O83	O	0.572583	-0.235558	0.083712
O84	O	0.572587	-0.235578	-0.083627
C85	C	0.570254	-0.463306	-0.045181
C86	C	0.569986	-0.488513	0.000039
C87	C	0.570235	-0.463310	0.045262
C88	C	0.569472	-0.538928	0.000037
C89	C	0.569222	-0.564131	-0.045185
C90	C	0.569486	-0.538920	-0.090406
C91	C	0.570004	-0.488509	-0.090403
C92	C	0.569972	-0.488521	0.090483
C93	C	0.569454	-0.538932	0.090476
C94	C	0.569205	-0.564136	0.045253
C95	C	0.658920	0.057701	0.000059
C96	C	0.712575	0.058254	0.000061
C97	C	0.566310	0.150296	0.000036
C98	C	0.566853	0.203952	0.000028
N99	N	0.570497	0.061908	0.129297
N100	N	0.570538	0.061869	-0.129197
C101	C	0.603635	0.028782	0.473932
C102	C	0.603646	0.028775	0.682809
O103	O	0.631801	0.000613	0.709820
N104	N	0.570528	0.061872	0.708924
C105	C	0.537402	0.094972	0.682816
O106	O	0.509229	0.123119	0.709821
C107	C	0.537388	0.094976	0.473940
C108	C	0.570512	0.061880	0.447828
C109	C	0.636756	-0.004312	0.447820
C110	C	0.636754	-0.004308	0.395603
C111	C	0.603632	0.028790	0.369499
C112	C	0.570511	0.061884	0.395611
C113	C	0.504260	0.128073	0.447833
C114	C	0.504259	0.128071	0.395610
C115	C	0.537383	0.094974	0.369498
C116	C	0.537387	0.094986	0.317291
N117	N	0.570506	0.061888	0.291176
C118	C	0.603628	0.028790	0.317280
C119	C	0.537412	0.094967	0.792480
C120	C	0.537415	0.094967	0.844699
C121	C	0.603660	0.028769	0.844688
C122	C	0.603658	0.028772	0.792468
C123	C	0.570530	0.061870	0.766365
C124	C	0.603623	0.028802	0.207622
C125	C	0.603620	0.028810	0.155401
C126	C	0.537374	0.095005	0.155416
C127	C	0.537379	0.094999	0.207633
C128	C	0.570505	0.061893	0.233734
O129	O	0.509243	0.123129	0.290248
O130	O	0.631789	0.000640	0.290266
C131	C	0.603636	0.028778	0.526148
C132	C	0.570515	0.061872	0.552260
C133	C	0.537393	0.094970	0.526156
C134	C	0.570519	0.061872	0.604479
C135	C	0.603641	0.028774	0.630583
C136	C	0.636760	-0.004324	0.604468
C137	C	0.636759	-0.004320	0.552252
C138	C	0.504274	0.128067	0.552271
C139	C	0.504279	0.128061	0.604487
C140	C	0.537401	0.094963	0.630591
H141	H	0.412716	0.145458	0.000018
F142	F	0.566825	-0.797668	0.093383
F143	F	0.216847	-0.071888	0.000093
F144	F	0.469023	0.163291	0.632273
F145	F	-0.276461	-0.032761	0.000069
H146	H	0.630595	0.001859	0.134142
H147	H	0.510411	0.121954	0.228894
F148	F	0.569223	-0.565753	-0.138535
H149	H	0.570222	-0.467989	-0.127229
F150	F	0.672012	-0.039543	0.475594
H151	H	0.343363	-0.015426	0.000049
H152	H	0.477288	0.155023	0.469086
H153	H	0.477281	0.155022	0.374360
H154	H	0.573200	-0.176303	-0.081993
H155	H	-0.180232	-0.020747	0.000077
F156	F	0.638912	-0.006453	0.764683
F157	F	0.672013	-0.039548	0.632259
F158	F	0.502125	0.130230	0.127627
F159	F	-0.038455	-0.074480	0.000086
H160	H	0.630630	0.001820	0.865951
F161	F	0.567919	-0.693599	-0.093327
F162	F	0.672014	-0.039546	0.524468
H163	H	0.663725	-0.031259	0.374346
F164	F	0.469019	0.163296	0.524495
H165	H	0.057772	-0.062463	0.000084
H166	H	0.434830	-0.014493	0.000047
F167	F	0.028257	0.196735	0.000035
F168	F	0.569172	-0.565755	0.138613
H169	H	0.571774	-0.316756	-0.127221
F170	F	-0.301629	0.149234	0.000048
H171	H	-0.067981	0.184713	0.000043
H172	H	0.321264	0.144533	0.000032
H173	H	-0.202337	0.139211	0.000045
F174	F	0.567875	-0.693613	0.093391
F175	F	0.112792	-0.072950	0.000084
H176	H	0.574149	-0.084854	-0.081983
H177	H	0.574117	-0.084857	0.082111
H178	H	0.570834	-0.408202	-0.127226
H179	H	0.566914	-0.791366	-0.082019
F180	F	0.570710	-0.414509	0.138628
F181	F	0.571772	-0.310454	0.138629
H182	H	0.573180	-0.176324	0.082110
H183	H	0.570176	-0.468005	0.127309
H184	H	0.174715	0.187185	0.000026
F185	F	0.502152	0.130197	0.764704
F186	F	0.638880	-0.006434	0.235394
H187	H	0.083267	0.186255	0.000035
F188	F	0.502166	0.130198	0.872484
