data_functionalizedCrystal
_audit_creation_method	'MofGen! by Chris Wilmer'
_symmetry_space_group_name_H-M	'P1'
_symmetry_Int_Tables_number	1
_symmetry_cell_setting	triclinic
loop_
_symmetry_equiv_pos_as_xyz
  x,y,z
_cell_length_a	17.699077
_cell_length_b	16.992700
_cell_length_c	16.176319
_cell_angle_alpha	89.986229
_cell_angle_beta	89.993140
_cell_angle_gamma	86.973874
loop_
_atom_site_label
_atom_site_type_symbol
_atom_site_fract_x
_atom_site_fract_y
_atom_site_fract_z
O1	O	1.010252	0.099123	-0.068749
O2	O	1.510252	0.599123	0.431251
O3	O	0.790677	0.112027	-0.068755
O4	O	1.290677	0.612027	0.431245
O5	O	0.899585	-0.008566	-0.068731
O6	O	1.399585	0.491434	0.431269
O7	O	0.901344	0.219716	-0.068773
O8	O	1.401344	0.719716	0.431227
O9	O	0.899569	-0.008573	0.068762
O10	O	1.399569	0.491427	0.568762
O11	O	0.790660	0.112020	0.068738
O12	O	1.290660	0.612020	0.568738
O13	O	1.010236	0.099116	0.068744
O14	O	1.510236	0.599116	0.568744
Cu15	Cu	0.900446	0.105567	0.081296
Cu16	Cu	1.400446	0.605567	0.581296
Cu17	Cu	0.900466	0.105576	-0.081306
Cu18	Cu	1.400466	0.605576	0.418694
O19	O	0.901327	0.219709	0.068720
O20	O	1.401327	0.719709	0.568720
C21	C	0.762442	0.111562	-0.000009
C22	C	1.262442	0.611562	0.499991
C23	C	0.678338	0.110177	-0.000010
C24	C	1.178338	0.610177	0.499990
C25	C	0.638821	0.109520	0.074939
C26	C	1.138821	0.609520	0.574939
C27	C	0.559797	0.108207	0.074940
C28	C	1.059797	0.608207	0.574940
C29	C	0.520290	0.107555	-0.000008
C30	C	1.020290	0.607555	0.499992
C31	C	0.559813	0.108210	-0.074963
C32	C	1.059813	0.608210	0.425037
C33	C	0.638836	0.109518	-0.074963
C34	C	1.138836	0.609518	0.425037
C35	C	0.241121	0.102934	-0.074963
C36	C	0.741121	0.602934	0.425037
C37	C	0.162092	0.101628	-0.074957
C38	C	0.662092	0.601628	0.425043
C39	C	0.162082	0.101623	0.074939
C40	C	0.662082	0.601623	0.574939
C41	C	0.241105	0.102931	0.074939
C42	C	0.741105	0.602931	0.574939
C43	C	0.280621	0.103581	-0.000015
C44	C	0.780621	0.603581	0.499985
C45	C	0.366308	0.105004	-0.000015
C46	C	0.866308	0.605004	0.499985
C47	C	0.434604	0.106138	-0.000009
C48	C	0.934604	0.606138	0.499991
C49	C	0.897312	-0.037778	0.000019
C50	C	1.397312	0.462222	0.500019
C51	C	0.890556	-0.124809	0.000030
C52	C	1.390556	0.375191	0.500030
C53	C	0.845159	-0.613681	-0.000047
C54	C	1.345159	-0.113681	0.499953
C55	C	0.851513	-0.531907	-0.000038
C56	C	1.351513	-0.031907	0.499962
C57	C	0.923065	-0.500501	-0.000025
C58	C	1.423065	-0.000501	0.499975
C59	C	0.988268	-0.550875	-0.000029
C60	C	1.488268	-0.050875	0.499971
C61	C	0.981913	-0.632648	-0.000043
C62	C	1.481913	-0.132648	0.499957
C63	C	0.949403	-0.256955	0.000012
C64	C	1.449403	0.243045	0.500012
C65	C	0.955753	-0.175176	0.000029
C66	C	1.455753	0.324824	0.500029
C67	C	0.818998	-0.156213	0.000018
C68	C	1.318998	0.343787	0.500018
C69	C	0.812649	-0.237988	0.000009
C70	C	1.312649	0.262012	0.500009
C71	C	0.877852	-0.288355	0.000001
C72	C	1.377852	0.211645	0.500001
N73	N	0.929562	-0.416915	-0.000014
N74	N	1.429562	0.083085	0.499986
N75	N	0.871354	-0.371939	-0.000016
N76	N	1.371354	0.128061	0.499984
C77	C	1.038470	0.099581	-0.000004
C78	C	1.538470	0.599581	0.499996
C79	C	1.122574	0.100966	-0.000008
C80	C	1.622574	0.600966	0.499992
C81	C	0.903600	0.248921	-0.000032
C82	C	1.403600	0.748921	0.499968
C83	C	0.910356	0.335952	-0.000048
C84	C	1.410356	0.835952	0.499952
N85	N	0.900438	0.105560	0.195661
N86	N	1.400438	0.605560	0.695661
N87	N	0.900480	0.105577	-0.195671
N88	N	1.400480	0.605577	0.304329
C89	C	0.948680	0.052183	0.238936
C90	C	1.448680	0.552183	0.738936
C91	C	0.948684	0.052182	0.325483
C92	C	1.448684	0.552182	0.825483
C93	C	0.900449	0.105563	0.368753
C94	C	1.400449	0.605563	0.868753
C95	C	0.852202	0.158942	0.325473
C96	C	1.352202	0.658942	0.825473
C97	C	0.852195	0.158939	0.238927
C98	C	1.352195	0.658939	0.738927
C99	C	0.852229	0.158957	0.674501
C100	C	1.352229	0.658957	1.174501
C101	C	0.852241	0.158958	0.761052
C102	C	1.352241	0.658958	1.261052
C103	C	0.948717	0.052201	0.761056
C104	C	1.448717	0.552201	1.261056
C105	C	0.948710	0.052197	0.674511
C106	C	1.448710	0.552197	1.174511
C107	C	0.900461	0.105573	0.631238
C108	C	1.400461	0.605573	1.131238
C109	C	0.900456	0.105573	0.537393
C110	C	1.400456	0.605573	1.037393
C111	C	0.900457	0.105568	0.462596
C112	C	1.400457	0.605568	0.962596
H113	H	0.273267	0.103465	0.135970
H114	H	0.773267	0.603465	0.635970
H115	H	0.754384	-0.263552	-0.000012
H116	H	1.254384	0.236448	0.499988
N117	N	1.032930	-0.141299	0.000055
N118	N	1.532930	0.358701	0.500055
H119	H	1.038626	-0.107765	-0.050899
H120	H	1.538626	0.392235	0.449101
H121	H	1.038542	-0.107859	0.051072
H122	H	1.538542	0.392141	0.551072
N123	N	1.019725	-0.311273	0.000014
N124	N	1.519725	0.188727	0.500014
H125	H	1.066016	-0.278967	0.000031
H126	H	1.566016	0.221033	0.500031
H127	H	1.020054	-0.345630	0.050980
H128	H	1.520054	0.154370	0.550980
N129	N	0.517172	0.107496	0.155775
N130	N	1.017172	0.607496	0.655775
H131	H	0.554222	0.107555	0.203255
H132	H	1.054222	0.607555	0.703255
H133	H	0.481563	0.155817	0.159282
H134	H	0.981563	0.655817	0.659282
H135	H	0.129898	0.101090	0.135971
H136	H	0.629898	0.601090	0.635971
H137	H	0.129929	0.101097	-0.135993
H138	H	0.629929	0.601097	0.364007
N139	N	0.283737	0.103629	-0.155802
N140	N	0.783737	0.603629	0.344198
H141	H	0.246716	0.103019	-0.203279
H142	H	0.746716	0.603019	0.296721
H143	H	0.313328	0.152751	-0.159085
H144	H	0.813328	0.652751	0.340915
N145	N	1.000731	-0.005375	0.627834
N146	N	1.500731	0.494625	1.127834
H147	H	1.054990	0.003581	0.642877
H148	H	1.554990	0.503581	1.142877
H149	H	0.988589	-0.060982	0.642931
H150	H	1.488589	0.439018	1.142931
H151	H	0.527641	0.107674	-0.135987
H152	H	1.027641	0.607674	0.364013
H153	H	0.671010	0.110054	-0.135994
H154	H	1.171010	0.610054	0.364006
N155	N	0.767984	-0.647551	-0.000051
N156	N	1.267984	-0.147551	0.499949
H157	H	0.727647	-0.603232	-0.000049
H158	H	1.227647	-0.103232	0.499951
H159	H	0.762376	-0.681049	-0.051026
H160	H	1.262376	-0.181049	0.448974
H161	H	0.812944	0.202419	0.639274
H162	H	1.312944	0.702419	1.139274
N163	N	0.781193	-0.477581	-0.000039
N164	N	1.281193	0.022419	0.499961
H165	H	0.734902	-0.509885	-0.000044
H166	H	1.234902	-0.009885	0.499956
H167	H	0.780844	-0.443257	0.050936
H168	H	1.280844	0.056743	0.550936
N169	N	0.800204	0.216526	0.807723
N170	N	1.300204	0.716526	1.307723
H171	H	0.807533	0.208428	0.869115
H172	H	1.307533	0.708428	1.369115
H173	H	0.812296	0.272136	0.792578
H174	H	1.312296	0.772136	1.292578
N175	N	0.748676	-0.101891	0.000038
N176	N	1.248676	0.398109	0.500038
H177	H	0.763556	-0.045322	0.000053
H178	H	1.263556	0.454678	0.500053
H179	H	0.717710	-0.112020	-0.050934
H180	H	1.217710	0.387980	0.449066
N181	N	1.065444	-0.517007	-0.000007
N182	N	1.565444	-0.017007	0.499993
H183	H	1.059578	-0.457561	0.000010
H184	H	1.559578	0.042439	0.500010
H185	H	1.094172	-0.535467	0.050968
H186	H	1.594172	-0.035467	0.550968
N187	N	0.800171	0.216513	0.372138
N188	N	1.300171	0.716513	0.872138
H189	H	0.807496	0.208418	0.433532
H190	H	1.307496	0.708418	0.933532
H191	H	0.812270	0.272120	0.356990
H192	H	1.312270	0.772120	0.856990
H193	H	1.035004	-0.673657	-0.000047
H194	H	1.535004	-0.173657	0.499953
N195	N	1.000709	-0.005387	0.192268
N196	N	1.500709	0.494613	0.692268
H197	H	1.031269	-0.039202	0.232818
H198	H	1.531269	0.460798	0.732818
H199	H	0.969642	-0.040012	0.156376
H200	H	1.469642	0.459988	0.656376
H201	H	0.987965	0.008719	0.360717
H202	H	1.487965	0.508719	0.860717
H203	H	0.812911	0.202402	0.203694
H204	H	1.312911	0.702402	0.703694
N205	N	0.681428	0.110231	0.155777
N206	N	1.181428	0.610231	0.655777
H207	H	0.644400	0.109615	0.203256
H208	H	1.144400	0.609615	0.703256
H209	H	0.717417	0.062191	0.159053
H210	H	1.217417	0.562191	0.659053
N211	N	1.000759	-0.005373	0.807729
N212	N	1.500759	0.494627	1.307729
H213	H	0.993446	0.002724	0.869122
H214	H	1.493446	0.502724	1.369122
H215	H	0.988659	-0.060982	0.792618
H216	H	1.488659	0.439018	1.292618
