data_functionalizedCrystal
_audit_creation_method	'MofGen! by Chris Wilmer'
_symmetry_space_group_name_H-M	'P1'
_symmetry_Int_Tables_number	1
_symmetry_cell_setting	triclinic
loop_
_symmetry_equiv_pos_as_xyz
  x,y,z
_cell_length_a	13.897448
_cell_length_b	19.805407
_cell_length_c	19.805399
_cell_angle_alpha	90.016510
_cell_angle_beta	89.973574
_cell_angle_gamma	89.986158
loop_
_atom_site_label
_atom_site_type_symbol
_atom_site_fract_x
_atom_site_fract_y
_atom_site_fract_z
Zn1	Zn	-0.384123	-1.034759	-0.382725
Zn2	Zn	0.115877	-0.534759	0.117275
Zn3	Zn	-0.545433	-1.034696	-0.269542
Zn4	Zn	-0.045433	-0.534696	0.230458
Zn5	Zn	-0.384143	-0.921579	-0.269550
Zn6	Zn	0.115857	-0.421579	0.230450
Zn7	Zn	-0.545367	-0.921554	-0.382689
Zn8	Zn	-0.045367	-0.421554	0.117311
O9	O	-0.464766	-0.978147	-0.326127
O10	O	0.035234	-0.478147	0.173873
O11	O	-0.405540	-1.129467	-0.367722
O12	O	0.094460	-0.629467	0.132278
O13	O	-0.524073	-1.019675	-0.174826
O14	O	-0.024073	-0.519675	0.325174
O15	O	-0.249158	-0.936629	-0.284582
O16	O	0.250842	-0.436629	0.215418
O17	O	-0.524054	-1.129421	-0.284567
O18	O	-0.024054	-0.629421	0.215433
O19	O	-0.249144	-1.019782	-0.367731
O20	O	0.250856	-0.519782	0.132269
O21	O	-0.405574	-0.936568	-0.174832
O22	O	0.094426	-0.436568	0.325168
O23	O	-0.405510	-0.826859	-0.284547
O24	O	0.094490	-0.326859	0.215453
O25	O	-0.523942	-0.936587	-0.477411
O26	O	-0.023942	-0.436587	0.022589
O27	O	-0.523961	-0.826841	-0.367670
O28	O	-0.023961	-0.326841	0.132330
O29	O	-0.405476	-1.019758	-0.477437
O30	O	0.094524	-0.519758	0.022563
O31	O	-0.680406	-1.019651	-0.284532
O32	O	-0.180406	-0.519651	0.215468
O33	O	-0.680357	-0.936526	-0.367661
O34	O	-0.180357	-0.436526	0.132339
C35	C	-0.464731	-0.802291	-0.326106
C36	C	0.035269	-0.302291	0.173894
C37	C	-0.464739	-0.727059	-0.326113
C38	C	0.035261	-0.227059	0.173887
C39	C	-0.403137	-0.691739	-0.369477
C40	C	0.096863	-0.191739	0.130523
C41	C	-0.403140	-0.621051	-0.369478
C42	C	0.096860	-0.121051	0.130522
C43	C	-0.464751	-0.585683	-0.326118
C44	C	0.035249	-0.085683	0.173882
C45	C	-0.526355	-0.621008	-0.282749
C46	C	-0.026355	-0.121008	0.217251
C47	C	-0.526347	-0.691695	-0.282745
C48	C	-0.026347	-0.191695	0.217255
C49	C	-0.526391	-0.335935	-0.282763
C50	C	-0.026391	0.164065	0.217237
C51	C	-0.526396	-0.265242	-0.282771
C52	C	-0.026396	0.234758	0.217229
C53	C	-0.403184	-0.265290	-0.369495
C54	C	0.096816	0.234710	0.130505
C55	C	-0.403175	-0.335978	-0.369492
C56	C	0.096825	0.164022	0.130508
C57	C	-0.464776	-0.371296	-0.326121
C58	C	0.035224	0.128704	0.173879
C59	C	-0.464771	-0.447944	-0.326119
C60	C	0.035229	0.052056	0.173881
C61	C	-0.464762	-0.509036	-0.326122
C62	C	0.035238	-0.009036	0.173878
C63	C	-0.715381	-0.978097	-0.326107
C64	C	-0.215381	-0.478097	0.173893
C65	C	-0.822595	-0.978138	-0.326121
C66	C	-0.322595	-0.478138	0.173879
C67	C	-1.018890	-0.978209	-0.326164
C68	C	-0.518890	-0.478209	0.173836
C69	C	-0.909657	-0.978168	-0.326142
C70	C	-0.409657	-0.478168	0.173858
C71	C	-0.213173	-0.978215	-0.326161
C72	C	0.286827	-0.478215	0.173839
C73	C	-0.105959	-0.978244	-0.326176
C74	C	0.394041	-0.478244	0.173824
C75	C	-0.464699	-0.978177	-0.502669
C76	C	0.035301	-0.478177	-0.002669
C77	C	-0.464671	-0.978189	-0.577901
C78	C	0.035329	-0.478189	-0.077901
C79	C	-0.464795	-0.154690	-0.326142
C80	C	0.035205	0.345310	0.173858
C81	C	-0.464789	-0.229922	-0.326132
C82	C	0.035211	0.270078	0.173868
C83	C	-0.402963	-0.934928	-0.613248
C84	C	0.097037	-0.434928	-0.113248
C85	C	-0.402944	-0.934937	-0.683937
C86	C	0.097056	-0.434937	-0.183937
C87	C	-0.464629	-0.978212	-0.719277
C88	C	0.035371	-0.478212	-0.219277
C89	C	-0.526344	-1.021475	-0.683925
C90	C	-0.026344	-0.521475	-0.183925
C91	C	-0.526367	-1.021462	-0.613238
C92	C	-0.026367	-0.521462	-0.113238
C93	C	-0.526254	-1.021529	-0.968999
C94	C	-0.026254	-0.521529	-0.468999
C95	C	-0.526224	-1.021540	-1.039691
C96	C	-0.026224	-0.521540	-0.539691
C97	C	-0.402831	-0.935004	-1.039697
C98	C	0.097169	-0.435004	-0.539697
C99	C	-0.402854	-0.934991	-0.969010
C100	C	0.097146	-0.434991	-0.469010
C101	C	-0.464572	-0.978251	-0.933664
C102	C	0.035428	-0.478251	-0.433664
C103	C	-0.464593	-0.978240	-0.857016
C104	C	0.035407	-0.478240	-0.357016
C105	C	-0.464604	-0.978227	-0.795924
C106	C	0.035396	-0.478227	-0.295924
C107	C	-0.464763	-0.978156	-0.150271
C108	C	0.035237	-0.478156	0.349729
C109	C	-0.464520	-0.978275	-0.075039
C110	C	0.035480	-0.478275	0.424961
H111	H	-0.352980	-0.592297	-0.404790
H112	H	0.147020	-0.092297	0.095210
Br113	Br	-0.319580	-0.217355	-0.428357
Br114	Br	0.180420	0.282645	0.071643
Br115	Br	-0.609966	-0.383858	-0.223885
Br116	Br	-0.109966	0.116142	0.276115
Br117	Br	-0.610070	-1.080200	-0.731886
Br118	Br	-0.110070	-0.580200	-0.231886
H119	H	-0.576515	-0.592206	-0.247441
H120	H	-0.076515	-0.092206	0.252559
H121	H	-0.576570	-0.236448	-0.247460
H122	H	-0.076570	0.263552	0.252540
H123	H	-0.352579	-0.899777	-1.068484
H124	H	0.147421	-0.399777	-0.568484
Br125	Br	-0.609946	-1.080274	-1.087653
Br126	Br	-0.109946	-0.580274	-0.587653
Br127	Br	-0.609951	-0.739630	-0.223891
Br128	Br	-0.109951	-0.239630	0.276109
H129	H	-0.576519	-1.056747	-0.940229
H130	H	-0.076519	-0.556747	-0.440229
Br131	Br	-0.319234	-0.876200	-0.565293
Br132	Br	0.180766	-0.376200	-0.065293
Br133	Br	-0.610125	-1.080171	-0.565266
Br134	Br	-0.110125	-0.580171	-0.065266
Br135	Br	-0.319245	-0.876186	-0.731905
Br136	Br	0.180755	-0.376186	-0.231905
Br137	Br	-0.319525	-0.739731	-0.428331
Br138	Br	0.180475	-0.239731	0.071669
Br139	Br	-0.319565	-0.383973	-0.428344
Br140	Br	0.180435	0.116027	0.071656
H141	H	-0.352619	-0.899754	-0.940240
H142	H	0.147381	-0.399754	-0.440240
