data_functionalizedCrystal
_audit_creation_method	'MofGen! by Chris Wilmer'
_symmetry_space_group_name_H-M	'P1'
_symmetry_Int_Tables_number	1
_symmetry_cell_setting	triclinic
loop_
_symmetry_equiv_pos_as_xyz
  x,y,z
_cell_length_a	15.944551
_cell_length_b	15.538191
_cell_length_c	14.421503
_cell_angle_alpha	89.993459
_cell_angle_beta	90.000609
_cell_angle_gamma	114.614584
loop_
_atom_site_label
_atom_site_type_symbol
_atom_site_fract_x
_atom_site_fract_y
_atom_site_fract_z
O1	O	-0.272806	-1.249880	-0.077117
O2	O	-0.175821	-0.975627	-0.077118
O3	O	-0.348872	-1.120243	-0.077109
O4	O	-0.099755	-1.105264	-0.077126
O5	O	-0.348869	-1.120260	0.077115
O6	O	-0.175818	-0.975645	0.077105
O7	O	-0.272803	-1.249897	0.077107
Cu8	Cu	-0.224310	-1.112773	0.091188
Cu9	Cu	-0.224314	-1.112752	-0.091199
O10	O	-0.099752	-1.105282	0.077098
C11	C	-0.379975	-1.119630	0.000003
C12	C	-0.472652	-1.117765	0.000003
C13	C	-0.165672	-0.940541	-0.000006
C14	C	-0.135447	-0.835969	-0.000007
C15	C	-0.282952	-1.284983	-0.000007
C16	C	-0.313177	-1.389555	-0.000013
C17	C	-0.658816	-1.023670	-0.000010
C18	C	-0.733156	-1.067373	0.076032
C19	C	-0.642350	-1.114393	-0.000004
C20	C	-0.733149	-1.067377	-0.076020
C21	C	-0.806267	-1.111129	-0.000015
C22	C	-0.715469	-1.158121	0.076101
C23	C	-0.715452	-1.158113	-0.076020
C24	C	-0.789794	-1.201882	0.000041
C25	C	-0.547920	-1.116271	0.000003
C26	C	-0.900698	-1.109258	-0.000015
C27	C	-0.068649	-1.105895	-0.000016
C28	C	0.024029	-1.107759	-0.000023
N29	N	-0.224310	-1.112794	0.219469
C30	C	-0.435727	-0.548160	-0.000001
C31	C	-0.407304	-0.449896	-0.000004
C32	C	-0.247435	-0.427463	-0.000014
C33	C	-0.275844	-0.525727	-0.000007
C34	C	-0.369991	-0.586068	-0.000001
C35	C	-0.210108	-0.563635	-0.000007
C36	C	-0.238515	-0.661891	-0.000005
C37	C	-0.332658	-0.722238	-0.000002
C38	C	-0.398398	-0.684324	0.000001
C39	C	-0.115961	-0.503292	-0.000020
C40	C	-0.050226	-0.541201	-0.000020
C41	C	-0.078632	-0.639458	-0.000011
C42	C	-0.172775	-0.699805	-0.000008
C43	C	-0.012892	-0.677372	-0.000014
C44	C	-0.041300	-0.775628	-0.000012
C45	C	-0.201182	-0.798061	-0.000006
N46	N	-0.224322	-1.112738	-0.219480
C47	C	-0.304347	-1.179679	0.469102
C48	C	-0.294708	-1.094560	0.530900
C49	C	-0.224314	-1.112773	0.408631
C50	C	-0.233995	-1.197871	0.530927
C51	C	-0.224322	-1.112760	0.591352
C52	C	-0.214700	-1.027612	0.469068
C53	C	-0.153971	-1.130979	0.469089
C54	C	-0.144282	-1.045799	0.530859
C55	C	-0.224312	-1.112782	0.303370
C56	C	-0.224320	-1.112742	0.696611
H57	H	-0.602546	-0.948366	0.000066
N58	N	0.029602	-0.816516	-0.000009
H59	H	0.021377	-0.856790	0.057161
H60	H	0.021343	-0.856728	-0.057218
N61	N	-0.203954	-0.932253	0.433238
H62	H	-0.204045	-0.932855	0.363207
H63	H	-0.256855	-0.918400	0.456336
N64	N	-0.302729	-0.863148	0.000007
H65	H	-0.318081	-0.904411	-0.057161
H66	H	-0.318001	-0.904356	0.057218
H67	H	-0.372038	-1.236199	0.441985
H68	H	-0.242177	-1.269843	0.558099
H69	H	-0.076582	-0.989152	0.557804
N70	N	-0.499944	-0.749412	0.000019
H71	H	-0.529957	-0.737216	-0.057147
H72	H	-0.507882	-0.817380	0.000056
N73	N	-0.075211	-1.151419	0.433082
H74	H	-0.039797	-1.161325	0.487026
H75	H	-0.100482	-1.210405	0.393542
N76	N	-0.373498	-1.074145	0.566881
H77	H	-0.366806	-1.010359	0.543412
H78	H	-0.433886	-1.124777	0.544417
H79	H	0.063762	-0.628228	-0.000028
N80	N	0.051314	-0.476114	-0.000013
H81	H	0.088646	-0.515041	-0.000010
H82	H	0.066589	-0.434852	-0.057186
H83	H	-0.707168	-1.196468	0.140459
N84	N	-0.744290	-1.016568	0.161196
H85	H	-0.695602	-0.949261	0.161143
H86	H	-0.807519	-1.016295	0.160831
H87	H	-0.845936	-1.277252	0.000084
H88	H	-0.707014	-1.196444	-0.140310
N89	N	-0.744264	-1.016525	-0.161170
H90	H	-0.695574	-0.949219	-0.161098
H91	H	-0.737215	-1.050175	-0.218558
H92	H	-0.092836	-0.423287	-0.000024
H93	H	-0.355785	-0.802243	-0.000013
N94	N	-0.537272	-0.613248	0.000018
H95	H	-0.567286	-0.601052	-0.057149
H96	H	-0.545211	-0.681216	0.000054
N97	N	-0.478202	-0.408997	-0.000000
H98	H	-0.518095	-0.430992	-0.057169
H99	H	-0.518031	-0.431013	0.057210
N100	N	-0.145894	-0.362379	-0.000025
H101	H	-0.137872	-0.294382	-0.000028
H102	H	-0.115953	-0.374660	0.057149
