data_functionalizedCrystal
_audit_creation_method	'MofGen! by Chris Wilmer'
_symmetry_space_group_name_H-M	'P1'
_symmetry_Int_Tables_number	1
_symmetry_cell_setting	triclinic
loop_
_symmetry_equiv_pos_as_xyz
  x,y,z
_cell_length_a	19.188905
_cell_length_b	27.731996
_cell_length_c	18.266242
_cell_angle_alpha	89.987663
_cell_angle_beta	89.983837
_cell_angle_gamma	82.877971
loop_
_atom_site_label
_atom_site_type_symbol
_atom_site_fract_x
_atom_site_fract_y
_atom_site_fract_z
O1	O	0.925760	0.060292	-0.061011
O2	O	1.425760	0.560292	0.438989
O3	O	0.722392	0.068428	-0.060987
O4	O	1.222392	0.568428	0.439013
O5	O	0.830411	-0.006019	-0.060984
O6	O	1.330411	0.493981	0.439016
O7	O	0.817741	0.134740	-0.061014
O8	O	1.317741	0.634740	0.438986
O9	O	0.830393	-0.006023	0.060778
O10	O	1.330393	0.493977	0.560778
O11	O	0.722374	0.068425	0.060775
O12	O	1.222374	0.568425	0.560775
O13	O	0.925741	0.060288	0.060751
O14	O	1.425741	0.560288	0.560751
Zn15	Zn	0.824055	0.064356	0.080095
Zn16	Zn	1.324055	0.564356	0.580095
Zn17	Zn	0.824079	0.064361	-0.080331
Zn18	Zn	1.324079	0.564361	0.419669
O19	O	0.817722	0.134736	0.060748
O20	O	1.317722	0.634736	0.560748
C21	C	0.696373	0.068165	-0.000103
C22	C	1.196373	0.568165	0.499897
C23	C	0.618873	0.067380	-0.000093
C24	C	1.118873	0.567380	0.499907
C25	C	0.582493	0.067005	-0.066468
C26	C	1.082493	0.567005	0.433532
C27	C	0.509675	0.066262	-0.066476
C28	C	1.009675	0.566262	0.433524
C29	C	0.473240	0.065885	-0.000107
C30	C	0.973240	0.565885	0.499893
C31	C	0.509628	0.066262	0.066276
C32	C	1.009628	0.566262	0.566276
C33	C	0.582444	0.067010	0.066283
C34	C	1.082444	0.567010	0.566283
N35	N	0.364403	0.037201	0.049291
N36	N	0.864403	0.537201	0.549291
N37	N	0.295231	0.036490	0.049280
N38	N	0.795231	0.536490	0.549280
C39	C	0.253848	0.063633	-0.000125
C40	C	0.753848	0.563633	0.499875
N41	N	0.284253	0.091508	-0.049528
N42	N	0.784253	0.591508	0.450472
N43	N	0.353432	0.092218	-0.049519
N44	N	0.853432	0.592218	0.450481
C45	C	0.394283	0.065074	-0.000108
C46	C	0.894283	0.565074	0.499892
C47	C	0.138511	0.062453	-0.066513
C48	C	0.638511	0.562453	0.433487
C49	C	0.065690	0.061713	-0.066519
C50	C	0.565690	0.561713	0.433481
C51	C	0.065645	0.061708	0.066235
C52	C	0.565645	0.561708	0.566235
C53	C	0.138464	0.062453	0.066239
C54	C	0.638464	0.562453	0.566239
C55	C	0.174892	0.062823	-0.000137
C56	C	0.674892	0.562823	0.499863
C57	C	0.830141	-0.024029	-0.000101
C58	C	1.330141	0.475971	0.499899
C59	C	0.829357	-0.077688	-0.000093
C60	C	1.329357	0.422312	0.499907
C61	C	0.824435	-0.410417	-0.066501
C62	C	1.324435	0.089583	0.433499
C63	C	0.821458	-0.612084	-0.066513
C64	C	1.321458	-0.112084	0.433487
O65	O	0.821051	-0.638154	-0.122961
O66	O	1.321051	-0.138154	0.377039
N67	N	0.821078	-0.637305	-0.000141
N68	N	1.321078	-0.137305	0.499859
C69	C	0.821438	-0.612105	0.066238
C70	C	1.321438	-0.112105	0.566238
O71	O	0.821040	-0.638183	0.122692
O72	O	1.321040	-0.138183	0.622692
C73	C	0.824410	-0.410438	0.066250
C74	C	1.324410	0.089562	0.566250
C75	C	0.824797	-0.385221	-0.000126
C76	C	1.324797	0.114779	0.499874
C77	C	0.824821	-0.385200	-0.132871
C78	C	1.324821	0.114800	0.367129
C79	C	0.825569	-0.334786	-0.132868
C80	C	1.325569	0.165214	0.367132
C81	C	0.825931	-0.309590	-0.066493
C82	C	1.325931	0.190410	0.433507
C83	C	0.825545	-0.334807	-0.000122
C84	C	1.325545	0.165193	0.499878
C85	C	0.824765	-0.385238	0.132629
C86	C	1.324765	0.114762	0.632629
C87	C	0.825507	-0.334818	0.132626
C88	C	1.325507	0.165182	0.632626
C89	C	0.825893	-0.309601	0.066250
C90	C	1.325893	0.190399	0.566250
C91	C	0.826655	-0.259198	0.066256
C92	C	1.326655	0.240802	0.566256
N93	N	0.827035	-0.233977	-0.000116
N94	N	1.327035	0.266023	0.499884
C95	C	0.826673	-0.259174	-0.066490
C96	C	1.326673	0.240826	0.433510
C97	C	0.819880	-0.717983	0.066228
C98	C	1.319880	-0.217983	0.566228
C99	C	0.819138	-0.768399	0.066225
C100	C	1.319138	-0.268399	0.566225
C101	C	0.819156	-0.768375	-0.066527
C102	C	1.319156	-0.268375	0.433473
C103	C	0.819903	-0.717958	-0.066524
C104	C	1.319903	-0.217958	0.433476
C105	C	0.820259	-0.692762	-0.000144
C106	C	1.320259	-0.192762	0.499856
C107	C	0.828244	-0.153302	-0.066477
C108	C	1.328244	0.346698	0.433523
C109	C	0.828995	-0.102884	-0.066468
C110	C	1.328995	0.397116	0.433532
C111	C	0.828973	-0.102912	0.066284
C112	C	1.328973	0.397088	0.566284
C113	C	0.828226	-0.153326	0.066275
C114	C	1.328226	0.346674	0.566275
C115	C	0.827859	-0.178519	-0.000112
C116	C	1.327859	0.321481	0.499888
O117	O	0.827054	-0.233096	0.122674
O118	O	1.327054	0.266904	0.622674
O119	O	0.827056	-0.233085	-0.122935
O120	O	1.327056	0.266915	0.377065
C121	C	0.823687	-0.460830	-0.066504
C122	C	1.323687	0.039170	0.433496
C123	C	0.823301	-0.486048	-0.000134
C124	C	1.323301	0.013952	0.499866
C125	C	0.823663	-0.460851	0.066241
C126	C	1.323663	0.039149	0.566241
C127	C	0.822559	-0.536464	-0.000136
C128	C	1.322559	-0.036464	0.499864
C129	C	0.822197	-0.561660	-0.066511
C130	C	1.322197	-0.061660	0.433489
C131	C	0.822577	-0.536440	-0.132883
C132	C	1.322577	-0.036440	0.367117
C133	C	0.823325	-0.486027	-0.132879
C134	C	1.323325	0.013973	0.367121
C135	C	0.823284	-0.486072	0.132613
C136	C	1.323284	0.013928	0.632613
C137	C	0.822536	-0.536485	0.132604
C138	C	1.322536	-0.036485	0.632604
C139	C	0.822174	-0.561681	0.066229
C140	C	1.322174	-0.061681	0.566229
C141	C	0.951760	0.060551	-0.000135
C142	C	1.451760	0.560551	0.499865
C143	C	1.029260	0.061336	-0.000149
C144	C	1.529260	0.561336	0.499851
C145	C	0.817992	0.152746	-0.000137
C146	C	1.317992	0.652746	0.499863
C147	C	0.818776	0.206405	-0.000150
C148	C	1.318776	0.706405	0.499850
N149	N	0.824043	0.064352	0.189582
N150	N	1.324043	0.564352	0.689582
N151	N	0.824095	0.064361	-0.189818
N152	N	1.324095	0.564361	0.310182
C153	C	0.871890	0.031403	0.227892
C154	C	1.371890	0.531403	0.727892
C155	C	0.871894	0.031400	0.304537
C156	C	1.371894	0.531400	0.804537
C157	C	0.824059	0.064356	0.342869
C158	C	1.324059	0.564356	0.842869
C159	C	0.776204	0.097308	0.304549
C160	C	1.276204	0.597308	0.804549
C161	C	0.776196	0.097306	0.227906
C162	C	1.276196	0.597306	0.727906
N163	N	0.814699	0.107148	0.463193
N164	N	1.314699	0.607148	0.963193
N165	N	0.814710	0.107148	0.536001
N166	N	1.314710	0.607148	1.036001
C167	C	0.824078	0.064363	0.573791
C168	C	1.324078	0.564363	1.073791
N169	N	0.833448	0.021576	0.536023
N170	N	1.333448	0.521576	1.036023
N171	N	0.833440	0.021576	0.463208
N172	N	1.333440	0.521576	0.963208
C173	C	0.824062	0.064361	0.425976
C174	C	1.324062	0.564361	0.925976
C175	C	0.871932	0.031408	0.695209
C176	C	1.371932	0.531408	1.195209
C177	C	0.871932	0.031405	0.771855
C178	C	1.371932	0.531405	1.271855
C179	C	0.776245	0.097317	0.771866
C180	C	1.276245	0.597317	1.271866
C181	C	0.776242	0.097316	0.695221
C182	C	1.276242	0.597316	1.195221
C183	C	0.824089	0.064362	0.656897
C184	C	1.324089	0.564362	1.156897
H185	H	0.168171	0.062759	-0.120560
H186	H	0.668171	0.562759	0.379440
H187	H	0.827942	-0.173808	-0.120535
H188	H	1.327942	0.326192	0.379465
Cl189	Cl	0.019848	0.061239	0.149672
Cl190	Cl	0.519848	0.561239	0.649672
H191	H	0.168085	0.062755	0.120288
H192	H	0.668085	0.562755	0.620288
H193	H	0.480049	0.065958	-0.120528
H194	H	0.980049	0.565958	0.379472
Cl195	Cl	0.822054	-0.568181	0.216057
Cl196	Cl	1.322054	-0.068181	0.716057
Cl197	Cl	0.628181	0.067481	0.149732
Cl198	Cl	1.128181	0.567481	0.649732
H199	H	0.822285	-0.556964	-0.186927
H200	H	1.322285	-0.056964	0.313073
Cl201	Cl	0.716104	0.138743	0.820049
Cl202	Cl	1.216104	0.638743	1.320049
H203	H	0.737233	0.124138	0.196713
H204	H	1.237233	0.624138	0.696713
Cl205	Cl	0.824275	-0.416927	0.216079
Cl206	Cl	1.324275	0.083073	0.716079
H207	H	0.823579	-0.465562	0.186664
H208	H	1.323579	0.034438	0.686664
Cl209	Cl	0.932036	-0.010027	0.179714
Cl210	Cl	1.432036	0.489973	0.679714
H211	H	0.910892	0.004571	0.803048
H212	H	1.410892	0.504571	1.303048
H213	H	0.829312	-0.082355	-0.120521
H214	H	1.329312	0.417645	0.379479
H215	H	0.910858	0.004568	0.335735
H216	H	1.410858	0.504568	0.835735
H217	H	0.825881	-0.314259	-0.186918
H218	H	1.325881	0.185741	0.313082
Cl219	Cl	0.019954	0.061246	-0.149969
Cl220	Cl	0.519954	0.561246	0.350031
H221	H	0.824524	-0.405709	-0.186925
H222	H	1.324524	0.094291	0.313075
H223	H	0.825786	-0.314305	0.186682
H224	H	1.325786	0.185695	0.686682
H225	H	0.737284	0.124148	0.664027
H226	H	1.237284	0.624148	1.164027
Cl227	Cl	0.829428	-0.071228	0.149722
Cl228	Cl	1.329428	0.428772	0.649722
Cl229	Cl	0.820387	-0.686262	-0.149971
Cl230	Cl	1.320387	-0.186262	0.350029
H231	H	0.479958	0.065956	0.120314
H232	H	0.979958	0.565956	0.620314
Cl233	Cl	0.818697	-0.800059	-0.149969
Cl234	Cl	1.318697	-0.300059	0.350031
H235	H	0.818833	-0.788928	0.120275
H236	H	1.318833	-0.288928	0.620275
H237	H	0.612149	0.067307	-0.120516
H238	H	1.112149	0.567307	0.379484
H239	H	0.820173	-0.697473	0.120285
H240	H	1.320173	-0.197473	0.620285
Cl241	Cl	0.827753	-0.185029	0.149720
Cl242	Cl	1.327753	0.314971	0.649720
H243	H	0.823639	-0.465499	-0.186929
H244	H	1.323639	0.034501	0.313071
H245	H	0.737254	0.124140	0.335763
H246	H	1.237254	0.624140	0.835763
H247	H	0.910890	0.004574	0.664004
H248	H	1.410890	0.504574	1.164004
