data_functionalizedCrystal
_audit_creation_method	'MofGen! by Chris Wilmer'
_symmetry_space_group_name_H-M	'P1'
_symmetry_Int_Tables_number	1
_symmetry_cell_setting	triclinic
loop_
_symmetry_equiv_pos_as_xyz
  x,y,z
_cell_length_a	17.000383
_cell_length_b	15.500227
_cell_length_c	17.000383
_cell_angle_alpha	87.396892
_cell_angle_beta	75.600303
_cell_angle_gamma	92.622316
loop_
_atom_site_label
_atom_site_type_symbol
_atom_site_fract_x
_atom_site_fract_y
_atom_site_fract_z
O1	O	1.058066	0.072003	0.024855
O2	O	1.391400	0.405336	0.358188
O3	O	1.724733	0.738670	0.691522
O4	O	0.824302	0.071991	0.053883
O5	O	1.157635	0.405324	0.387216
O6	O	1.490969	0.738658	0.720550
O7	O	0.955698	0.071994	-0.077513
O8	O	1.289031	0.405328	0.255821
O9	O	1.622364	0.738661	0.589154
O10	O	0.926671	0.072000	0.156251
O11	O	1.260004	0.405333	0.489584
O12	O	1.593337	0.738666	0.822917
O13	O	0.947726	-0.071894	-0.069568
O14	O	1.281060	0.261439	0.263765
O15	O	1.614393	0.594772	0.597098
O16	O	0.816331	-0.071898	0.061827
O17	O	1.149664	0.261435	0.395161
O18	O	1.482997	0.594769	0.728494
O19	O	1.050095	-0.071886	0.032799
O20	O	1.383428	0.261447	0.366132
O21	O	1.716762	0.594781	0.699466
Cu22	Cu	0.932485	-0.085030	0.048039
Cu23	Cu	1.265818	0.248303	0.381372
Cu24	Cu	1.599152	0.581637	0.714705
Cu25	Cu	0.941912	0.085135	0.038644
Cu26	Cu	1.275245	0.418469	0.371977
Cu27	Cu	1.608579	0.751802	0.705310
O28	O	0.918699	-0.071889	0.164195
O29	O	1.252033	0.261444	0.497528
O30	O	1.585366	0.594777	0.830861
C31	C	0.790554	0.000045	0.059414
C32	C	1.123887	0.333378	0.392748
C33	C	1.457220	0.666712	0.726081
C34	C	0.701871	0.000041	0.064050
C35	C	1.035204	0.333374	0.397383
C36	C	1.368537	0.666707	0.730717
N37	N	0.925860	-0.204715	0.054645
N38	N	1.259194	0.128618	0.387979
N39	N	1.592527	0.461952	0.721312
C40	C	0.199561	0.000073	0.093982
C41	C	0.532894	0.333407	0.427315
C42	C	0.866227	0.666740	0.760648
C43	C	0.282889	0.000073	0.089620
C44	C	0.616222	0.333406	0.422953
C45	C	0.949556	0.666739	0.756287
C46	C	0.339181	0.000064	0.013907
C47	C	0.672515	0.333398	0.347241
C48	C	1.005848	0.666731	0.680574
C49	C	0.312143	0.000066	-0.057448
C50	C	0.645476	0.333399	0.275885
C51	C	0.978810	0.666732	0.609218
C52	C	0.228817	0.000073	-0.053086
C53	C	0.562150	0.333406	0.280247
C54	C	0.895483	0.666739	0.613581
C55	C	0.591506	0.000049	-0.002943
C56	C	0.924839	0.333382	0.330390
C57	C	1.258172	0.666716	0.663723
C58	C	0.674837	0.000039	-0.007300
C59	C	1.008170	0.333373	0.326033
C60	C	1.341503	0.666706	0.659367
C61	C	0.645577	0.000048	0.139769
C62	C	0.978910	0.333381	0.473102
C63	C	1.312244	0.666714	0.806435
C64	C	0.562250	0.000050	0.144125
C65	C	0.895583	0.333383	0.477458
C66	C	1.228917	0.666716	0.810791
C67	C	0.535219	0.000055	0.072769
C68	C	0.868552	0.333389	0.406102
C69	C	1.201886	0.666722	0.739435
C70	C	0.424356	0.000061	0.009447
C71	C	0.757690	0.333394	0.342780
C72	C	1.091023	0.666728	0.676114
C73	C	0.450046	0.000065	0.077230
C74	C	0.783379	0.333399	0.410563
C75	C	1.116712	0.666732	0.743896
C76	C	0.981554	-0.249990	-0.001014
C77	C	1.314887	0.083343	0.332320
C78	C	1.648221	0.416676	0.665653
C79	C	0.976551	-0.340563	0.003990
C80	C	1.309884	-0.007230	0.337323
C81	C	1.643217	0.326103	0.670657
C82	C	0.915857	-0.385859	0.064657
C83	C	1.249190	-0.052526	0.397990
C84	C	1.582523	0.280807	0.731324
C85	C	0.860157	-0.340578	0.120319
C86	C	1.193491	-0.007245	0.453652
C87	C	1.526824	0.326089	0.786985
C88	C	0.865158	-0.250007	0.115311
C89	C	1.198491	0.083327	0.448644
C90	C	1.531824	0.416660	0.781978
C91	C	0.897844	-0.659327	0.082684
C92	C	1.231178	-0.325993	0.416017
C93	C	1.564511	0.007340	0.749350
C94	C	0.892850	-0.749904	0.087689
C95	C	1.226183	-0.416571	0.421022
C96	C	1.559516	-0.083238	0.754356
C97	C	1.009243	-0.749884	-0.028641
C98	C	1.342576	-0.416550	0.304692
C99	C	1.675909	-0.083217	0.638025
C100	C	1.014241	-0.659311	-0.033641
C101	C	1.347574	-0.325977	0.299693
C102	C	1.680907	0.007356	0.633026
C103	C	0.958539	-0.614037	0.022018
C104	C	1.291872	-0.280704	0.355352
C105	C	1.625205	0.052630	0.688685
C106	C	0.910743	-0.478440	0.069774
C107	C	1.244076	-0.145106	0.403108
C108	C	1.577409	0.188227	0.736441
C109	C	0.963650	-0.521458	0.016897
C110	C	1.296983	-0.188125	0.350230
C111	C	1.630316	0.145208	0.683563
C112	C	1.083843	0.000062	0.027268
C113	C	1.417177	0.333395	0.360601
C114	C	1.750510	0.666729	0.693934
C115	C	1.172527	0.000072	0.022632
C116	C	1.505860	0.333406	0.355965
C117	C	1.839194	0.666739	0.689298
C118	C	0.953271	0.000051	-0.103303
C119	C	1.286604	0.333384	0.230030
C120	C	1.619938	0.666718	0.563363
C121	C	0.957907	0.000054	-0.191986
C122	C	1.291240	0.333388	0.141347
C123	C	1.624574	0.666721	0.474680
N124	N	0.948543	0.204820	0.032030
N125	N	1.281877	0.538154	0.365363
N126	N	1.615210	0.871487	0.698697
C127	C	0.987841	0.000059	-0.694298
C128	C	1.321174	0.333392	-0.360965
C129	C	1.654507	0.666726	-0.027632
C130	C	0.983478	0.000054	-0.610970
C131	C	1.316812	0.333387	-0.277636
C132	C	1.650145	0.666720	0.055697
C133	C	0.907765	0.000054	-0.554677
C134	C	1.241099	0.333387	-0.221343
C135	C	1.574432	0.666720	0.111990
C136	C	0.836410	0.000051	-0.581715
C137	C	1.169743	0.333384	-0.248382
C138	C	1.503076	0.666717	0.084952
C139	C	0.840772	0.000050	-0.665042
C140	C	1.174106	0.333383	-0.331709
C141	C	1.507439	0.666717	0.001625
C142	C	0.890914	0.000050	-0.302351
C143	C	1.224247	0.333384	0.030982
C144	C	1.557581	0.666717	0.364315
C145	C	0.886557	0.000054	-0.219020
C146	C	1.219890	0.333387	0.114313
C147	C	1.553223	0.666720	0.447647
C148	C	1.033626	0.000055	-0.248280
C149	C	1.366959	0.333388	0.085053
C150	C	1.700293	0.666722	0.418386
C151	C	1.037982	0.000059	-0.331608
C152	C	1.371316	0.333393	0.001726
C153	C	1.704649	0.666726	0.335059
C154	C	0.966626	0.000052	-0.358639
C155	C	1.299960	0.333385	-0.025305
C156	C	1.633293	0.666718	0.308028
C157	C	0.903305	0.000051	-0.469501
C158	C	1.236638	0.333384	-0.136168
C159	C	1.569971	0.666718	0.197165
C160	C	0.971087	0.000048	-0.443812
C161	C	1.304421	0.333382	-0.110479
C162	C	1.637754	0.666715	0.222854
C163	C	0.921126	0.000056	0.189985
C164	C	1.254459	0.333389	0.523319
C165	C	1.587793	0.666723	0.856652
C166	C	0.916490	0.000059	0.278668
C167	C	1.249824	0.333392	0.612001
C168	C	1.583157	0.666725	0.945335
H169	H	0.153731	0.000074	0.155636
H170	H	0.487065	0.333407	0.488969
H171	H	0.820398	0.666740	0.822302
F172	F	0.764831	0.000045	-0.693812
F173	F	1.098165	0.333379	-0.360478
F174	F	1.431498	0.666712	-0.027145
F175	F	0.805969	0.000051	-0.159109
F176	F	1.139302	0.333384	0.174225
F177	F	1.472635	0.666718	0.507558
F178	F	1.046157	-0.201791	-0.065581
F179	F	1.379490	0.131542	0.267753
F180	F	1.712824	0.464875	0.601086
F181	F	0.562749	0.000071	-0.078888
F182	F	0.896082	0.333405	0.254445
F183	F	1.229416	0.666738	0.587779
F184	F	0.390134	0.000079	0.157805
F185	F	0.723468	0.333413	0.491139
F186	F	1.056801	0.666746	0.824472
F187	F	0.755829	0.000047	-0.521801
F188	F	1.089163	0.333380	-0.188468
F189	F	1.422496	0.666713	0.144865
F190	F	1.118566	0.000057	-0.391514
F191	F	1.451900	0.333390	-0.058181
F192	F	1.785233	0.666723	0.275153
H193	H	0.206808	0.000073	-0.111187
H194	H	0.540142	0.333407	0.222146
H195	H	0.873475	0.666740	0.555480
F196	F	1.051664	0.000042	-0.503724
F197	F	1.384997	0.333376	-0.170391
F198	F	1.718330	0.666709	0.162943
H199	H	0.304895	0.000082	0.147720
H200	H	0.638229	0.333415	0.481054
H201	H	0.971562	0.666748	0.814387
F202	F	1.035825	-0.388749	-0.055249
F203	F	1.369158	-0.055415	0.278084
F204	F	1.702492	0.277918	0.611417
H205	H	1.013064	-0.484576	-0.032501
H206	H	1.346398	-0.151242	0.300832
H207	H	1.679731	0.182091	0.634166
H208	H	0.819805	-0.213144	0.160633
H209	H	1.153138	0.120189	0.493967
H210	H	1.486472	0.453522	0.827300
F211	F	1.078838	-0.611104	-0.098208
F212	F	1.412172	-0.277771	0.235125
F213	F	1.745505	0.055562	0.568459
F214	F	0.846149	-0.526652	0.134341
F215	F	1.179483	-0.193319	0.467675
F216	F	1.512816	0.140015	0.801008
H217	H	0.843423	-0.786780	0.137095
H218	H	1.176756	-0.453447	0.470428
H219	H	1.510090	-0.120114	0.803761
H220	H	1.054592	-0.786754	-0.073957
H221	H	1.387925	-0.453420	0.259376
H222	H	1.721258	-0.120087	0.592710
F223	F	1.068426	0.000065	-0.754204
F224	F	1.401760	0.333399	-0.420870
F225	F	1.735093	0.666732	-0.087537
H226	H	1.091720	0.000068	-0.226263
H227	H	1.425054	0.333402	0.107071
H228	H	1.758387	0.666735	0.440404
F229	F	0.814970	0.000048	-0.331109
F230	F	1.148304	0.333382	0.002224
F231	F	1.481637	0.666715	0.335557
H232	H	0.852491	-0.622472	0.128005
H233	H	1.185824	-0.289139	0.461338
H234	H	1.519158	0.044195	0.794672
H235	H	0.470199	0.000051	-0.052198
H236	H	0.803532	0.333385	0.281135
H237	H	1.136866	0.666718	0.614469
F238	F	1.059421	0.000071	-0.582204
F239	F	1.392754	0.333404	-0.248871
F240	F	1.726087	0.666738	0.084463
F241	F	0.795558	-0.388786	0.184882
F242	F	1.128891	-0.055453	0.518216
F243	F	1.462224	0.277881	0.851549
H244	H	0.516421	0.000059	0.205778
H245	H	0.849754	0.333392	0.539111
H246	H	1.183087	0.666725	0.872445
F247	F	0.674352	0.000046	0.215705
F248	F	1.007686	0.333380	0.549038
F249	F	1.341019	0.666713	0.882372
F250	F	0.822728	0.000056	-0.409584
F251	F	1.156061	0.333390	-0.076251
F252	F	1.489395	0.666723	0.257083
H253	H	0.720670	0.000037	-0.068958
H254	H	1.054004	0.333370	0.264375
H255	H	1.387337	0.666703	0.597709
H256	H	0.357984	0.000064	-0.119096
H257	H	0.691317	0.333398	0.214238
H258	H	1.024650	0.666731	0.547571
