data_functionalizedCrystal
_audit_creation_method	'MofGen! by Chris Wilmer'
_symmetry_space_group_name_H-M	'P1'
_symmetry_Int_Tables_number	1
_symmetry_cell_setting	triclinic
loop_
_symmetry_equiv_pos_as_xyz
  x,y,z
_cell_length_a	16.120297
_cell_length_b	12.759401
_cell_length_c	12.759399
_cell_angle_alpha	89.980611
_cell_angle_beta	87.125037
_cell_angle_gamma	92.883177
loop_
_atom_site_label
_atom_site_type_symbol
_atom_site_fract_x
_atom_site_fract_y
_atom_site_fract_z
Zn1	Zn	-0.471288	1.576121	0.448291
Zn2	Zn	-0.331882	1.584927	0.615075
Zn3	Zn	-0.331903	1.409334	0.439425
Zn4	Zn	-0.471261	1.400412	0.623940
O5	O	-0.401584	1.492698	0.531683
O6	O	-0.452798	1.724310	0.470416
O7	O	-0.215221	1.569053	0.584354
O8	O	-0.350413	1.431508	0.293581
O9	O	-0.350377	1.730779	0.592951
O10	O	-0.452818	1.554045	0.300095
O11	O	-0.215237	1.440046	0.455305
O12	O	-0.350387	1.261130	0.463901
O13	O	-0.587928	1.416301	0.608060
O14	O	-0.452773	1.254575	0.599463
O15	O	-0.587948	1.545393	0.479012
O16	O	-0.350351	1.560402	0.763271
O17	O	-0.452752	1.424839	0.769784
C18	C	-0.401565	1.492635	0.804649
C19	C	-0.401584	1.492702	0.921427
C20	C	-0.619034	1.478869	0.545514
C21	C	-0.711698	1.472976	0.551408
C22	C	-0.401580	1.219731	0.531683
C23	C	-0.401598	1.102953	0.531709
C24	C	-0.881356	1.462178	0.562145
C25	C	-0.922663	1.523425	0.500905
C26	C	-1.017067	1.517417	0.506880
C27	C	-0.786944	1.468185	0.556172
C28	C	-0.184980	1.506534	0.517830
C29	C	-0.092316	1.512631	0.511640
C30	C	-0.401588	1.766731	0.531683
C31	C	-0.401590	1.883508	0.531684
C32	C	-0.454914	1.935003	0.467890
C33	C	-0.454921	2.044727	0.467905
C34	C	-0.348271	2.051451	0.595510
C35	C	-0.348270	1.941729	0.595499
C36	C	-0.553248	2.188440	0.436633
C37	C	-0.606565	2.239940	0.372823
C38	C	-0.619377	2.203558	0.271120
C39	C	-0.578859	2.115680	0.233205
C40	C	-0.525536	2.064187	0.297010
C41	C	-0.512740	2.100565	0.398728
C42	C	-0.249941	1.798013	0.626761
C43	C	-0.196613	1.746518	0.690560
C44	C	-0.183793	1.782898	0.792265
C45	C	-0.224296	1.870781	0.830174
C46	C	-0.277624	1.922276	0.766375
C47	C	-0.290445	1.885888	0.664672
C48	C	-0.401621	1.492789	0.257652
C49	C	-0.401637	1.492828	0.140876
C50	C	-0.348325	1.563363	0.972866
C51	C	-0.348353	1.563428	1.082592
C52	C	-0.454902	1.422165	1.089429
C53	C	-0.454878	1.422105	0.979706
C54	C	-0.318679	1.689335	1.230560
C55	C	-0.265407	1.759986	1.282003
C56	C	-0.184063	1.781352	1.241250
C57	C	-0.155974	1.732051	1.149055
C58	C	-0.209243	1.661392	1.097618
C59	C	-0.290599	1.640046	1.138370
C60	C	-0.484543	1.296198	0.831735
C61	C	-0.537807	1.225533	0.780295
C62	C	-0.619153	1.204156	0.821046
C63	C	-0.647238	1.253439	0.913244
C64	C	-0.593973	1.324104	0.964684
C65	C	-0.512629	1.345481	0.923925
H66	H	-0.887127	1.580372	0.443988
H67	H	-0.213854	1.900405	0.912989
H68	H	-0.713477	1.236034	0.946425
H69	H	-0.163889	1.674712	0.659833
N70	N	-0.396804	1.319259	0.787773
H71	H	-0.366003	1.252238	0.784763
H72	H	-0.367395	1.371537	0.834376
H73	H	-0.589287	2.086073	0.150383
H74	H	-0.616849	1.364236	1.039754
N75	N	-0.928419	1.386733	0.637519
H76	H	-0.990163	1.393080	0.631146
H77	H	-0.913261	1.403995	0.711618
H78	H	-0.498331	1.887603	0.415927
H79	H	-0.498291	1.364685	1.136893
N80	N	-0.481832	1.969414	0.256130
H81	H	-0.498034	1.954181	0.182014
H82	H	-0.498536	1.906853	0.302376
H83	H	-0.662789	2.245497	0.219165
H84	H	-0.639554	2.311491	0.403703
H85	H	-0.542829	2.218064	0.519452
N86	N	-0.290759	2.114246	0.664330
H87	H	-0.298847	2.191570	0.654654
H88	H	-0.231221	2.098856	0.644186
H89	H	-0.310602	1.993836	0.797249
H90	H	-0.140363	1.740965	0.844206
H91	H	-0.260378	1.768382	0.543945
H92	H	-0.304931	1.620849	0.925418
H93	H	-0.186375	1.621254	1.022553
H94	H	-0.089732	1.749445	1.115887
N95	N	-0.126592	1.857520	1.296753
H96	H	-0.156723	1.885496	1.361347
H97	H	-0.108413	1.917635	1.247995
H98	H	-0.288284	1.800127	1.357068
H99	H	-0.662520	1.146612	0.779155
N100	N	-0.406421	1.666294	1.274509
H101	H	-0.437212	1.733322	1.277528
H102	H	-0.404858	1.636037	1.347495
H103	H	-0.514935	1.185411	0.705218
