data_functionalizedCrystal
_audit_creation_method	'MofGen! by Chris Wilmer'
_symmetry_space_group_name_H-M	'P1'
_symmetry_Int_Tables_number	1
_symmetry_cell_setting	triclinic
loop_
_symmetry_equiv_pos_as_xyz
  x,y,z
_cell_length_a	10.654550
_cell_length_b	10.065875
_cell_length_c	10.654551
_cell_angle_alpha	81.123595
_cell_angle_beta	84.485180
_cell_angle_gamma	98.829657
loop_
_atom_site_label
_atom_site_type_symbol
_atom_site_fract_x
_atom_site_fract_y
_atom_site_fract_z
O1	O	1.686039	0.113385	0.158116
O2	O	1.320565	0.113410	0.174918
O3	O	1.511704	0.113394	-0.016222
O4	O	1.494901	0.113401	0.349255
O5	O	1.475258	-0.113592	0.020373
O6	O	1.284119	-0.113576	0.211513
O7	O	1.649593	-0.113601	0.194711
Zn8	Zn	1.461069	-0.149627	0.208922
Zn9	Zn	1.509089	0.149436	0.160706
O10	O	1.458454	-0.113585	0.385851
C11	C	1.255544	-0.000080	0.191981
C12	C	1.116103	-0.000071	0.188287
N13	N	1.428306	-0.353730	0.241828
C14	C	1.036617	-0.000072	0.300829
C15	C	0.905593	-0.000096	0.297357
C16	C	0.933552	-0.000111	0.068790
C17	C	1.064573	-0.000097	0.072265
C18	C	1.497682	-0.421515	0.172147
C19	C	1.472476	-0.578680	0.197482
C20	C	1.714614	-0.000108	0.177647
C21	C	1.854057	-0.000108	0.181339
C22	C	1.492247	-0.000097	-0.044723
C23	C	1.488555	-0.000090	-0.184167
N24	N	1.541862	0.353539	0.127791
C25	C	1.506690	0.123641	-0.269619
C26	C	1.503210	0.123643	-0.400640
C27	C	1.463465	-0.123830	-0.360743
C28	C	1.466936	-0.123830	-0.229724
C29	C	1.477912	-0.000091	0.414351
C30	C	1.481605	-0.000089	0.553793
H31	H	1.078566	-0.000061	0.395303
Br32	Br	0.797722	-0.000105	0.450100
Br33	Br	1.172453	-0.000112	-0.080479
Br34	Br	1.627463	-0.324324	0.041133
Br35	Br	0.863612	-0.000141	-0.088663
Br36	Br	1.442303	-0.291763	-0.113740
H37	H	1.517974	0.224397	-0.470211
Br38	Br	1.298194	-0.450921	0.372514
H39	H	1.394411	-0.636994	0.275894
H40	H	1.619918	-0.588146	0.049369
Br41	Br	1.536025	0.291572	-0.207794
H42	H	1.445866	-0.224574	-0.397853
