data_functionalizedCrystal
_audit_creation_method	'MofGen! by Chris Wilmer'
_symmetry_space_group_name_H-M	'P1'
_symmetry_Int_Tables_number	1
_symmetry_cell_setting	triclinic
loop_
_symmetry_equiv_pos_as_xyz
  x,y,z
_cell_length_a	18.050589
_cell_length_b	16.120530
_cell_length_c	18.050583
_cell_angle_alpha	92.915413
_cell_angle_beta	89.971909
_cell_angle_gamma	92.876072
loop_
_atom_site_label
_atom_site_type_symbol
_atom_site_fract_x
_atom_site_fract_y
_atom_site_fract_z
Zn1	Zn	-0.353277	-1.274500	-0.477437
Zn2	Zn	-0.477476	-1.274392	-0.353252
Zn3	Zn	-0.347004	-1.135087	-0.346972
Zn4	Zn	-0.471122	-1.135037	-0.471113
O5	O	-0.412220	-1.204754	-0.412194
O6	O	-0.375036	-1.391151	-0.466239
O7	O	-0.460203	-1.255888	-0.248493
O8	O	-0.243915	-1.153647	-0.364297
O9	O	-0.466285	-1.391071	-0.375001
O10	O	-0.248523	-1.256073	-0.460149
O11	O	-0.364346	-1.153542	-0.243879
O12	O	-0.358184	-1.018415	-0.358164
O13	O	-0.455455	-1.153561	-0.575878
O14	O	-0.449373	-1.018378	-0.449370
O15	O	-0.368874	-1.256024	-0.580524
O16	O	-0.580555	-1.255840	-0.368868
O17	O	-0.575886	-1.153456	-0.455460
C18	C	-0.402409	-0.988147	-0.402400
C19	C	-0.398230	-0.895482	-0.398228
C20	C	-0.605167	-1.204653	-0.412177
C21	C	-0.687715	-1.204686	-0.412198
C22	C	-0.412155	-1.204799	-0.605901
C23	C	-0.412128	-1.204818	-0.688448
C24	C	-0.884656	-1.149065	-0.459272
C25	C	-0.933182	-1.128744	-0.390587
C26	C	-0.838849	-1.204768	-0.412211
C27	C	-0.937406	-1.225130	-0.480905
C28	C	-0.984837	-1.204846	-0.412230
C29	C	-0.886286	-1.184407	-0.343489
C30	C	-0.890507	-1.280829	-0.433854
C31	C	-0.939012	-1.260537	-0.365124
C32	C	-0.754748	-1.204722	-0.412201
C33	C	-1.068936	-1.204893	-0.412232
C34	C	-0.218520	-1.204878	-0.412228
C35	C	-0.135976	-1.204930	-0.412242
C36	C	-0.422069	-1.422207	-0.422026
C37	C	-0.426267	-1.514872	-0.426216
C38	C	-0.390582	-0.725821	-0.390617
C39	C	-0.433912	-0.684527	-0.433824
C40	C	-0.429657	-0.590122	-0.429590
C41	C	-0.394836	-0.820234	-0.394851
C42	C	-0.364998	-1.260590	-0.939803
C43	C	-0.433681	-1.280933	-0.891312
C44	C	-0.412083	-1.204872	-0.985571
C45	C	-0.343428	-1.184541	-0.886981
C46	C	-0.412102	-1.204848	-0.839585
C47	C	-0.480804	-1.225255	-0.938169
C48	C	-0.390503	-1.128828	-0.933841
C49	C	-0.459232	-1.149143	-0.885371
C50	C	-0.412072	-1.204888	-1.069670
C51	C	-0.412121	-1.204832	-0.755487
C52	C	-0.412232	-1.204757	-0.219242
C53	C	-0.412058	-1.204899	-0.136703
H54	H	-0.860868	-1.101890	-0.499007
H55	H	-0.871633	-1.345100	-0.452175
H56	H	-0.499107	-1.102014	-0.861690
O57	O	-0.967151	-1.316877	-0.317655
C58	C	-0.976420	-1.460488	-0.286129
C59	C	-0.944488	-1.396775	-0.339935
H60	H	-0.958122	-1.525103	-0.304132
H61	H	-0.955258	-1.443081	-0.227616
H62	H	-1.039571	-1.460452	-0.286834
H63	H	-0.881338	-1.396778	-0.339295
H64	H	-0.965707	-1.414205	-0.398423
H65	H	-0.350295	-0.690275	-0.350448
H66	H	-0.474202	-0.720075	-0.473997
H67	H	-0.372219	-1.064549	-0.952653
O68	O	-0.317639	-1.316966	-0.968197
C69	C	-0.286896	-1.460823	-0.978810
C70	C	-0.340591	-1.397068	-0.946622
H71	H	-0.305424	-1.525598	-0.961366
H72	H	-0.286940	-1.459959	-1.041924
H73	H	-0.228533	-1.444095	-0.956925
H74	H	-0.398978	-1.413752	-0.968450
H75	H	-0.340482	-1.397944	-0.883509
H76	H	-0.863949	-1.167142	-0.285384
H77	H	-0.451945	-1.345231	-0.872515
O78	O	-0.550116	-1.245972	-0.964757
C79	C	-0.651381	-1.349291	-0.972834
C80	C	-0.572894	-1.325921	-0.942666
H81	H	-0.669814	-1.413937	-0.954999
H82	H	-0.691616	-1.302134	-0.949911
H83	H	-0.650795	-1.349119	-1.035981
H84	H	-0.573407	-1.326102	-0.879522
H85	H	-0.532691	-1.373082	-0.965646
H86	H	-0.285359	-1.167357	-0.864525
H87	H	-0.959829	-1.242322	-0.538991
O88	O	-0.955647	-1.051999	-0.368871
C89	C	-0.953327	-0.906476	-0.393871
C90	C	-0.927853	-0.993346	-0.418551
H91	H	-0.930853	-0.859028	-0.434015
H92	H	-1.016518	-0.907352	-0.393598
H93	H	-0.931423	-0.888728	-0.335688
H94	H	-0.949704	-1.011147	-0.476740
H95	H	-0.864660	-0.992422	-0.418771
