data_functionalizedCrystal
_audit_creation_method	'MofGen! by Chris Wilmer'
_symmetry_space_group_name_H-M	'P1'
_symmetry_Int_Tables_number	1
_symmetry_cell_setting	triclinic
loop_
_symmetry_equiv_pos_as_xyz
  x,y,z
_cell_length_a	12.594517
_cell_length_b	25.639239
_cell_length_c	12.594510
_cell_angle_alpha	89.959750
_cell_angle_beta	89.978880
_cell_angle_gamma	90.038486
loop_
_atom_site_label
_atom_site_type_symbol
_atom_site_fract_x
_atom_site_fract_y
_atom_site_fract_z
Zn1	Zn	1.627097	-0.208106	-0.601816
Zn2	Zn	1.626919	-0.295558	-0.423820
Zn3	Zn	1.449102	-0.208138	-0.423845
Zn4	Zn	1.449013	-0.295512	-0.601750
O5	O	1.538033	-0.251829	-0.512808
O6	O	1.776019	-0.219713	-0.578222
O7	O	1.603293	-0.283994	-0.274877
O8	O	1.472825	-0.134969	-0.447492
O9	O	1.775888	-0.283963	-0.447448
O10	O	1.603598	-0.134945	-0.578247
O11	O	1.472652	-0.219767	-0.274896
O12	O	1.300144	-0.219722	-0.447427
O13	O	1.472674	-0.283885	-0.750704
O14	O	1.300079	-0.283916	-0.578133
O15	O	1.603512	-0.219668	-0.750753
O16	O	1.603207	-0.368717	-0.447384
O17	O	1.472501	-0.368683	-0.578108
C18	C	1.261492	-0.251818	-0.512776
C19	C	1.143186	-0.251826	-0.512788
C20	C	1.073938	-0.216864	-0.441833
C21	C	1.003089	-0.264557	-0.415643
C22	C	1.003237	-0.204156	-0.538996
C23	C	1.073895	-0.299545	-0.486547
C24	C	1.074050	-0.239112	-0.609946
C25	C	1.003232	-0.286838	-0.583793
C26	C	1.537854	-0.387671	-0.512759
C27	C	1.537875	-0.445785	-0.512774
C28	C	1.606269	-0.806153	-0.444855
C29	C	1.606310	-0.860757	-0.444870
O30	O	1.664276	-0.888998	-0.387070
N31	N	1.538220	-0.888068	-0.512878
C32	C	1.470091	-0.860771	-0.580885
O33	O	1.412179	-0.889014	-0.638733
C34	C	1.470056	-0.806167	-0.580875
C35	C	1.538144	-0.778860	-0.512854
C36	C	1.674352	-0.778846	-0.376841
C37	C	1.674309	-0.724245	-0.376826
C38	C	1.606183	-0.696952	-0.444825
C39	C	1.538101	-0.724259	-0.512839
C40	C	1.401934	-0.778871	-0.648886
C41	C	1.401905	-0.724264	-0.648871
C42	C	1.469992	-0.696957	-0.580850
C43	C	1.469932	-0.642366	-0.580822
N44	N	1.538023	-0.615056	-0.512814
C45	C	1.606148	-0.642349	-0.444815
C46	C	1.470171	-0.975441	-0.580901
C47	C	1.470200	-1.030044	-0.580906
C48	C	1.606421	-1.030027	-0.444892
C49	C	1.606386	-0.975423	-0.444883
C50	C	1.538262	-0.948131	-0.512892
C51	C	1.606052	-0.527684	-0.444787
C52	C	1.606000	-0.473078	-0.444775
C53	C	1.469784	-0.473100	-0.580792
C54	C	1.469831	-0.527701	-0.580801
C55	C	1.537974	-0.554991	-0.512795
O56	O	1.411999	-0.614090	-0.638596
O57	O	1.664060	-0.614099	-0.386986
C58	C	1.815654	-0.251839	-0.512840
C59	C	1.933959	-0.251844	-0.512853
C60	C	1.538103	-0.251768	-0.790429
C61	C	1.538133	-0.251742	-0.908734
C62	C	1.538241	-0.115455	-0.512880
C63	C	1.538330	-0.057341	-0.512911
C64	C	1.609317	-0.216812	-0.978014
C65	C	1.512251	-0.204015	-1.048808
C66	C	1.635256	-0.264504	-1.048740
C67	C	1.441016	-0.238920	-0.977970
C68	C	1.564086	-0.299431	-0.977895
C69	C	1.466953	-0.286652	-1.048657
C70	C	1.538024	-0.251851	-0.236267
C71	C	1.538200	-0.251729	-0.117962
H72	H	0.971921	-0.275322	-0.333507
O73	O	1.672094	-0.446610	-0.378550
C74	C	1.723811	-0.429933	-0.197537
C75	C	1.648913	-0.459947	-0.272411
H76	H	1.705081	-0.440697	-0.111707
H77	H	1.809650	-0.440629	-0.216226
H78	H	1.712101	-0.386220	-0.209255
H79	H	1.660528	-0.503667	-0.260736
H80	H	1.563101	-0.449208	-0.253704
H81	H	1.414392	-0.549935	-0.636192
H82	H	1.669409	-0.187256	-0.946992
H83	H	1.104804	-0.339878	-0.464317
O84	O	0.966026	-0.156080	-0.565356
C85	C	0.812094	-0.102375	-0.595956
C86	C	0.854087	-0.156843	-0.566081
H87	H	0.721587	-0.102976	-0.596573
H88	H	0.841063	-0.072593	-0.535338
H89	H	0.842558	-0.091240	-0.678156
H90	H	0.823640	-0.168027	-0.483906
H91	H	0.825127	-0.186593	-0.626767
H92	H	1.661543	-0.549897	-0.389413
H93	H	1.717362	-0.275302	-1.079830
H94	H	1.104983	-0.187326	-0.381755
O95	O	0.966371	-0.322085	-0.655534
C96	C	0.863059	-0.336220	-0.813933
C97	C	0.904755	-0.296246	-0.732783
H98	H	0.813216	-0.315346	-0.876397
H99	H	0.932956	-0.356446	-0.854041
H100	H	0.812076	-0.366474	-0.771384
H101	H	0.955722	-0.265961	-0.775251
H102	H	0.834811	-0.276059	-0.692678
H103	H	1.490323	-0.163680	-1.079956
O104	O	1.740561	-0.697803	-0.310728
C105	C	1.875646	-0.703570	-0.175794
C106	C	1.800678	-0.733575	-0.250612
H107	H	1.924254	-0.732478	-0.127155
H108	H	1.931330	-0.677976	-0.224660
H109	H	1.826792	-0.678036	-0.120124
H110	H	1.849446	-0.759137	-0.306297
H111	H	1.744991	-0.759136	-0.201680
O112	O	1.394950	-0.321826	-1.085390
C113	C	1.211303	-0.348110	-1.090757
C114	C	1.292732	-0.308235	-1.049104
H115	H	1.128644	-0.337142	-1.061418
H116	H	1.212255	-0.348089	-1.181271
H117	H	1.232747	-0.388647	-1.060355
H118	H	1.271344	-0.267679	-1.079427
H119	H	1.291764	-0.308302	-0.958591
O120	O	1.740708	-0.805359	-0.310965
C121	C	1.884539	-0.866903	-0.296866
C122	C	1.809436	-0.836916	-0.371583
H123	H	1.940109	-0.892432	-0.345844
H124	H	1.933261	-0.838001	-0.248326
H125	H	1.835787	-0.892503	-0.241099
H126	H	1.858106	-0.811315	-0.427414
H127	H	1.760710	-0.865846	-0.420048
O128	O	1.343108	-0.225965	-0.940871
C129	C	1.233213	-0.211471	-0.787051
C130	C	1.344144	-0.226139	-0.828924
H131	H	1.234009	-0.211618	-0.696538
H132	H	1.210953	-0.170926	-0.816815
H133	H	1.172527	-0.241050	-0.816814
H134	H	1.404905	-0.196596	-0.799179
H135	H	1.366315	-0.266697	-0.799169
H136	H	1.105242	-0.228332	-0.692058
H137	H	1.661829	-0.953193	-0.389495
H138	H	1.661897	-1.052258	-0.389527
O139	O	1.404088	-1.056648	-0.646875
C140	C	1.343817	-1.140768	-0.707246
C141	C	1.418720	-1.110707	-0.632455
H142	H	1.355637	-1.184480	-0.695629
H143	H	1.257971	-1.130121	-0.688470
H144	H	1.362445	-1.129951	-0.793071
H145	H	1.400189	-1.121507	-0.546605
H146	H	1.504544	-1.121356	-0.651322
O147	O	1.590340	-0.347561	-0.940878
C148	C	1.639368	-0.435742	-0.985097
C149	C	1.609659	-0.381258	-1.027165
H150	H	1.654974	-0.463004	-1.054839
H151	H	1.713865	-0.432789	-0.934057
H152	H	1.571179	-0.451777	-0.935240
H153	H	1.677779	-0.365191	-1.077067
H154	H	1.535129	-0.384244	-1.078147
O155	O	1.403881	-0.949012	-0.646995
C156	C	1.268816	-0.954804	-0.781944
C157	C	1.343814	-0.984795	-0.707129
H158	H	1.220249	-0.983721	-0.830598
H159	H	1.213097	-0.929301	-0.733075
H160	H	1.317645	-0.929180	-0.837600
H161	H	1.295072	-1.010447	-0.651458
H162	H	1.399537	-1.010264	-0.756064
O163	O	1.335910	-0.805364	-0.715121
C164	C	1.284133	-0.821977	-0.896142
C165	C	1.358990	-0.791953	-0.821244
H166	H	1.302752	-0.811137	-0.981956
H167	H	1.295850	-0.865700	-0.884582
H168	H	1.198318	-0.811293	-0.877322
H169	H	1.444834	-0.802593	-0.840018
H170	H	1.347182	-0.748237	-0.832818
O171	O	1.335879	-0.697729	-0.715049
C172	C	1.321436	-0.636007	-0.858684
C173	C	1.396331	-0.666034	-0.783826
H174	H	1.370280	-0.610366	-0.914294
H175	H	1.272801	-0.664883	-0.907376
H176	H	1.265764	-0.610515	-0.809741
H177	H	1.452067	-0.691527	-0.832686
H178	H	1.444890	-0.637130	-0.735130
O179	O	1.403711	-0.446501	-0.646811
C180	C	1.343262	-0.362382	-0.707020
C181	C	1.418152	-0.392442	-0.632211
H182	H	1.354895	-0.318670	-0.695226
H183	H	1.361921	-0.373033	-0.792889
H184	H	1.257462	-0.373196	-0.688275
H185	H	1.503977	-0.381644	-0.650860
H186	H	1.399401	-0.381788	-0.546365
