data_functionalizedCrystal
_audit_creation_method	'MofGen! by Chris Wilmer'
_symmetry_space_group_name_H-M	'P1'
_symmetry_Int_Tables_number	1
_symmetry_cell_setting	triclinic
loop_
_symmetry_equiv_pos_as_xyz
  x,y,z
_cell_length_a	13.032831
_cell_length_b	19.121063
_cell_length_c	13.032268
_cell_angle_alpha	99.247498
_cell_angle_beta	90.886977
_cell_angle_gamma	85.565596
loop_
_atom_site_label
_atom_site_type_symbol
_atom_site_fract_x
_atom_site_fract_y
_atom_site_fract_z
Zn1	Zn	1.465022	-0.473659	-0.806576
Zn2	Zn	1.965022	0.026341	-0.306576
Zn3	Zn	1.479383	-0.578156	-0.640274
Zn4	Zn	1.979383	-0.078156	-0.140274
Zn5	Zn	1.316950	-0.444360	-0.611224
Zn6	Zn	1.816950	0.055640	-0.111224
Zn7	Zn	1.285899	-0.574364	-0.790193
Zn8	Zn	1.785899	-0.074364	-0.290193
O9	O	1.386814	-0.517635	-0.712067
O10	O	1.886814	-0.017635	-0.212067
O11	O	1.609870	-0.501370	-0.803529
O12	O	2.109870	-0.001370	-0.303529
O13	O	1.476841	-0.549733	-0.491924
O14	O	1.976841	-0.049733	0.008076
O15	O	1.343577	-0.350107	-0.631836
O16	O	1.843577	0.149893	-0.131836
O17	O	1.620421	-0.578143	-0.681348
O18	O	2.120421	-0.078143	-0.181348
O19	O	1.452365	-0.371633	-0.775360
O20	O	1.952365	0.128367	-0.275360
O21	O	1.357502	-0.451434	-0.470581
O22	O	1.857502	0.048566	0.029419
O23	O	1.169889	-0.447756	-0.615951
O24	O	1.669889	0.052244	-0.115951
O25	O	1.290655	-0.571680	-0.936863
O26	O	1.790655	-0.071680	-0.436863
O27	O	1.147076	-0.543270	-0.747439
O28	O	1.647076	-0.043270	-0.247439
O29	O	1.422256	-0.497693	-0.948899
O30	O	1.922256	0.002307	-0.448899
O31	O	1.446733	-0.675793	-0.665463
O32	O	1.946733	-0.175793	-0.165463
O33	O	1.304581	-0.673007	-0.775608
O34	O	1.804581	-0.173007	-0.275608
C35	C	1.121419	-0.491923	-0.676766
C36	C	1.621419	0.008077	-0.176766
C37	C	1.007877	-0.480942	-0.661690
C38	C	1.507877	0.019058	-0.161690
C39	C	0.946005	-0.523366	-0.719935
C40	C	1.446005	-0.023366	-0.219935
C41	C	0.828653	-0.512018	-0.704355
C42	C	1.328653	-0.012018	-0.204355
C43	C	1.373870	-0.699851	-0.721936
C44	C	1.873870	-0.199851	-0.221936
C45	C	1.368422	-0.777815	-0.726206
C46	C	1.868422	-0.277815	-0.226206
C47	C	1.439917	-0.815879	-0.670926
C48	C	1.939917	-0.315879	-0.170926
C49	C	1.434798	-0.889136	-0.674948
C50	C	1.934798	-0.389136	-0.174948
C51	C	1.358179	-0.924327	-0.734244
C52	C	1.858179	-0.424327	-0.234244
C53	C	1.286681	-0.886258	-0.789530
C54	C	1.786681	-0.386258	-0.289530
C55	C	1.291805	-0.813003	-0.785514
C56	C	1.791805	-0.313003	-0.285514
C57	C	1.339006	-1.145437	-0.749244
C58	C	1.839006	-0.645437	-0.249244
C59	C	1.333886	-1.218697	-0.753254
C60	C	1.833886	-0.718697	-0.253254
C61	C	1.482005	-1.221570	-0.638672
C62	C	1.982005	-0.721570	-0.138672
C63	C	1.487118	-1.148313	-0.634656
C64	C	1.987118	-0.648313	-0.134656
C65	C	1.415624	-1.110251	-0.689946
C66	C	1.915624	-0.610251	-0.189946
C67	C	1.352943	-0.999207	-0.738354
C68	C	1.852943	-0.499207	-0.238354
C69	C	1.420865	-1.035374	-0.685842
C70	C	1.920865	-0.535374	-0.185842
C71	C	1.653245	-0.543448	-0.747506
C72	C	2.153245	-0.043448	-0.247506
C73	C	1.766782	-0.554448	-0.762608
C74	C	2.266782	-0.054448	-0.262608
C75	C	1.351390	-0.537532	-0.981395
C76	C	1.851390	-0.037532	-0.481395
C77	C	1.336295	-0.546011	-1.096167
C78	C	1.836295	-0.046011	-0.596167
C79	C	1.399833	-0.334712	-0.702185
C80	C	1.899833	0.165288	-0.202185
C81	C	1.405381	-0.256761	-0.697974
C82	C	1.905381	0.243239	-0.197974
C83	C	1.394678	-0.513183	-1.153291
C84	C	1.894678	-0.013183	-0.653291
C85	C	1.379078	-0.521945	-1.271914
C86	C	1.879078	-0.021945	-0.771914
C87	C	1.422162	-0.497771	-0.443791
C88	C	1.922162	0.002229	0.056209
C89	C	1.437469	-0.489113	-0.329036
C90	C	1.937469	0.010887	0.170964
H91	H	0.973970	-0.436217	-0.600292
H92	H	1.473970	0.063783	-0.100292
N93	N	1.214683	-0.771951	-0.845133
N94	N	1.714683	-0.271951	-0.345133
H95	H	1.175028	-0.733913	-0.795175
H96	H	1.675028	-0.233913	-0.295175
H97	H	1.252055	-0.749121	-0.896868
H98	H	1.752055	-0.249121	-0.396868
H99	H	1.493016	-0.920125	-0.629933
H100	H	1.993016	-0.420125	-0.129933
N101	N	1.476206	-0.467378	-1.101753
N102	N	1.976206	0.032622	-0.601753
H103	H	1.442868	-0.427574	-1.049713
H104	H	1.942868	0.072426	-0.549713
H105	H	1.527316	-0.497254	-1.064908
H106	H	2.027316	0.002746	-0.564908
H107	H	1.502304	-0.787232	-0.622636
H108	H	2.002304	-0.287232	-0.122636
H109	H	1.317533	-0.556535	-1.310822
H110	H	1.817533	-0.056535	-0.810822
H111	H	1.274755	-0.580597	-1.135080
H112	H	1.774755	-0.080597	-0.635080
N113	N	0.990904	-0.582609	-0.801271
N114	N	1.490904	-0.082609	-0.301271
H115	H	1.068372	-0.582319	-0.800870
H116	H	1.568372	-0.082319	-0.300870
H117	H	0.970883	-0.629697	-0.785333
H118	H	1.470883	-0.129697	-0.285333
N119	N	0.783759	-0.452776	-0.623008
N120	N	1.283759	0.047224	-0.123008
H121	H	0.706292	-0.453069	-0.623403
H122	H	1.206292	0.046931	-0.123403
H123	H	0.811281	-0.459958	-0.552277
H124	H	1.311281	0.040042	-0.052277
N125	N	1.569770	-1.110362	-0.570718
N126	N	2.069770	-0.610362	-0.070718
H127	H	1.614292	-1.145593	-0.536315
H128	H	2.114292	-0.645593	-0.036315
H129	H	1.613594	-1.087617	-0.617420
H130	H	2.113594	-0.587617	-0.117420
H131	H	1.540213	-1.252568	-0.593660
H132	H	2.040213	-0.752568	-0.093660
N133	N	0.811674	-0.613689	-0.843956
N134	N	1.311674	-0.113689	-0.343956
H135	H	0.889142	-0.613400	-0.843560
H136	H	1.389142	-0.113400	-0.343560
H137	H	0.791654	-0.660780	-0.828027
H138	H	1.291654	-0.160780	-0.328027
N139	N	1.261890	-1.104389	-0.808865
N140	N	1.761890	-0.604389	-0.308865
H141	H	1.212572	-1.137798	-0.847030
H142	H	1.712572	-0.637798	-0.347030
H143	H	1.222311	-1.066353	-0.758843
H144	H	1.722311	-0.566353	-0.258843
H145	H	1.483252	-1.006720	-0.637567
H146	H	1.983252	-0.506720	-0.137567
N147	N	1.518985	-0.443291	-1.277500
N148	N	2.018985	0.056709	-0.777500
H149	H	1.588750	-0.462628	-1.306512
H150	H	2.088750	0.037372	-0.806512
H151	H	1.504154	-0.393030	-1.291410
H152	H	2.004154	0.106970	-0.791410
N153	N	1.251243	-1.256655	-0.817211
N154	N	1.751243	-0.756655	-0.317211
H155	H	1.206729	-1.221428	-0.851630
H156	H	1.706729	-0.721428	-0.351630
H157	H	1.284377	-1.294569	-0.872213
H158	H	1.784377	-0.794569	-0.372213
H159	H	1.224300	-0.914917	-0.837816
H160	H	1.724300	-0.414917	-0.337816
N161	N	1.270295	-1.037163	-0.802293
N162	N	1.770295	-0.537163	-0.302293
H163	H	1.225772	-1.001936	-0.836702
H164	H	1.725772	-0.501936	-0.336702
H165	H	1.303424	-1.075074	-0.857303
H166	H	1.803424	-0.575074	-0.357303
