data_functionalizedCrystal
_audit_creation_method	'MofGen! by Chris Wilmer'
_symmetry_space_group_name_H-M	'P1'
_symmetry_Int_Tables_number	1
_symmetry_cell_setting	triclinic
loop_
_symmetry_equiv_pos_as_xyz
  x,y,z
_cell_length_a	17.699083
_cell_length_b	15.995350
_cell_length_c	16.176319
_cell_angle_alpha	89.995430
_cell_angle_beta	89.998611
_cell_angle_gamma	83.387695
loop_
_atom_site_label
_atom_site_type_symbol
_atom_site_fract_x
_atom_site_fract_y
_atom_site_fract_z
O1	O	1.004255	0.105885	-0.068627
O2	O	0.783899	0.119661	-0.068653
O3	O	0.900101	-0.009127	-0.068638
O4	O	0.888054	0.234673	-0.068641
O5	O	0.900085	-0.009135	0.068855
O6	O	0.783883	0.119653	0.068840
O7	O	1.004239	0.105877	0.068867
Cu8	Cu	0.894060	0.112764	0.081408
Cu9	Cu	0.894079	0.112774	-0.081194
O10	O	0.888038	0.234665	0.068852
C11	C	0.755694	0.119163	0.000090
C12	C	0.671673	0.117683	0.000080
C13	C	0.623178	0.193278	0.000079
C14	C	0.544232	0.191882	0.000090
C15	C	0.513783	0.114889	0.000095
C16	C	0.562285	0.039287	0.000098
C17	C	0.641229	0.040685	0.000094
C18	C	0.243912	0.033651	0.000119
C19	C	0.164962	0.032259	0.000121
C20	C	0.146916	0.184848	0.000115
C21	C	0.225860	0.186245	0.000110
C22	C	0.274354	0.110644	0.000118
C23	C	0.359956	0.112159	0.000108
C24	C	0.428183	0.113373	0.000099
C25	C	0.899595	-0.040324	0.000107
C26	C	0.898101	-0.133272	0.000102
C27	C	0.892739	-0.471008	0.000104
C28	C	0.809983	-0.423406	-0.000214
C29	C	0.811476	-0.326719	0.000096
C30	C	0.895399	-0.303453	0.000102
C31	C	0.936208	-0.344618	0.078621
C32	C	0.934129	-0.441250	0.078687
C33	C	0.935857	-0.441602	-0.077669
C34	C	0.935838	-0.344657	-0.078706
C35	C	0.896907	-0.208759	0.000104
C36	C	0.891234	-0.565703	0.000108
C37	C	1.032445	0.106375	0.000122
C38	C	1.116465	0.107856	0.000126
C39	C	0.888544	0.265863	0.000105
C40	C	0.890037	0.358810	0.000104
N41	N	0.894052	0.112757	0.195773
N42	N	0.894092	0.112775	-0.195559
C43	C	0.945521	0.055753	0.239043
C44	C	0.945525	0.055752	0.325591
C45	C	0.894063	0.112760	0.368865
C46	C	0.842588	0.169767	0.325589
C47	C	0.842581	0.169763	0.239043
C48	C	0.842614	0.169782	0.674617
C49	C	0.842626	0.169783	0.761168
C50	C	0.945558	0.055772	0.761164
C51	C	0.945551	0.055768	0.674619
C52	C	0.894074	0.112771	0.631350
C53	C	0.894069	0.112770	0.537505
C54	C	0.894070	0.112765	0.462708
H55	H	0.107421	0.246406	0.000113
C56	C	0.786001	0.232480	0.808769
H57	H	0.755334	0.266420	0.770605
H58	H	0.813215	0.267305	0.842528
H59	H	0.754508	0.202382	0.842533
C60	C	0.694574	-0.042470	0.000086
H61	H	0.665134	-0.088525	0.000081
H62	H	0.725749	-0.045103	0.048030
H63	H	0.725741	-0.045091	-0.047870
H64	H	0.140174	-0.030442	0.000127
H65	H	0.908807	-0.462083	-0.137181
C66	C	0.490887	0.275035	0.000081
H67	H	0.439510	0.263179	0.000093
H68	H	0.500116	0.306610	-0.047871
H69	H	0.500118	0.306614	0.048029
C70	C	0.897903	-0.306216	0.157554
H71	H	0.923007	-0.331533	0.204741
H72	H	0.845999	-0.316081	0.158255
H73	H	0.901085	-0.247338	0.158368
H74	H	0.647962	0.255975	0.000074
C75	C	0.786012	0.232503	0.627028
H76	H	0.793374	0.224339	0.569286
H77	H	0.794245	0.288367	0.641212
H78	H	0.735496	0.223491	0.641214
C79	C	0.785981	0.232475	0.373188
H80	H	0.793361	0.224321	0.430930
H81	H	0.735470	0.223454	0.359015
H82	H	0.794203	0.288348	0.358994
H83	H	0.987471	0.009354	0.796403
C84	C	0.259349	0.270937	0.000108
H85	H	0.219160	0.315760	0.000117
H86	H	0.289771	0.274659	-0.047839
H87	H	0.289770	0.274646	0.048061
H88	H	0.906001	-0.317344	-0.136792
H89	H	0.283388	-0.027909	0.000126
H90	H	0.537487	-0.023402	0.000115
H91	H	0.997038	-0.329419	-0.083442
C92	C	0.785968	0.232470	0.191445
H93	H	0.755324	0.266429	0.229612
H94	H	0.754462	0.202393	0.157691
H95	H	0.813193	0.267289	0.157677
H96	H	0.996873	-0.473487	-0.078191
H97	H	0.776912	-0.441867	-0.056522
C98	C	0.768130	-0.288224	-0.075932
H99	H	0.749445	-0.331673	-0.107284
H100	H	0.801483	-0.259999	-0.109150
H101	H	0.726703	-0.249262	-0.058259
H102	H	0.779168	-0.298792	0.056470
C103	C	0.765488	-0.449777	0.075421
H104	H	0.797126	-0.489669	0.107194
H105	H	0.721922	-0.474232	0.057366
H106	H	0.749977	-0.401695	0.108376
C107	C	0.893902	-0.465900	0.157962
H108	H	0.878978	-0.416879	0.189822
H109	H	0.927711	-0.503941	0.189358
H110	H	0.850184	-0.492073	0.143610
H111	H	0.994887	-0.473622	0.082254
H112	H	0.997864	-0.330618	0.081546
H113	H	0.987431	0.009334	0.203815
H114	H	0.987435	0.009335	0.360821
H115	H	0.987459	0.009350	0.639387
