data_functionalizedCrystal
_audit_creation_method	'MofGen! by Chris Wilmer'
_symmetry_space_group_name_H-M	'P1'
_symmetry_Int_Tables_number	1
_symmetry_cell_setting	triclinic
loop_
_symmetry_equiv_pos_as_xyz
  x,y,z
_cell_length_a	10.654550
_cell_length_b	10.654550
_cell_length_c	9.730223
_cell_angle_alpha	89.996763
_cell_angle_beta	89.999957
_cell_angle_gamma	84.484917
loop_
_atom_site_label
_atom_site_type_symbol
_atom_site_fract_x
_atom_site_fract_y
_atom_site_fract_z
O1	O	1.667839	0.176399	-0.114183
O2	O	1.302361	0.193205	-0.114208
O3	O	1.493503	0.002062	-0.114190
O4	O	1.476697	0.367541	-0.114202
O5	O	1.493490	0.002057	0.114390
O6	O	1.302348	0.193199	0.114372
O7	O	1.667827	0.176393	0.114396
Zn8	Zn	1.485085	0.184796	0.150676
Zn9	Zn	1.485102	0.184802	-0.150488
O10	O	1.476684	0.367536	0.114378
C11	C	1.255556	0.191968	0.000078
C12	C	1.116113	0.188276	0.000069
C13	C	1.036627	0.300818	0.000069
C14	C	0.905607	0.297341	0.000093
C15	C	0.933570	0.068772	0.000111
C16	C	1.064588	0.072250	0.000097
C17	C	1.492263	-0.044738	0.000098
C18	C	1.488571	-0.184181	0.000093
C19	C	1.601112	-0.263667	0.000105
C20	C	1.597636	-0.394688	0.000095
C21	C	1.369066	-0.366725	0.000067
C22	C	1.372544	-0.235706	0.000067
C23	C	1.733075	-0.279813	0.000127
C24	C	1.729599	-0.410834	0.000117
C25	C	1.714631	0.177630	0.000107
C26	C	1.854074	0.181322	0.000107
C27	C	1.477924	0.414336	0.000087
C28	C	1.481616	0.553779	0.000083
N29	N	1.485083	0.184790	0.356212
N30	N	1.485114	0.184798	-0.356024
C31	C	1.569750	0.100188	0.428146
C32	C	1.569763	0.100189	0.572029
C33	C	1.400438	0.269404	0.572032
C34	C	1.400420	0.269396	0.428151
H35	H	0.840894	0.388984	0.000097
H36	H	0.891602	-0.025693	0.000142
O37	O	1.263136	-0.158624	-0.000139
C38	C	1.192799	-0.182113	-0.118555
H39	H	1.222781	-0.281214	-0.158015
H40	H	1.088127	-0.173811	-0.091952
H41	H	1.210610	-0.110309	-0.201449
O42	O	1.318124	0.351706	0.358479
C43	C	1.243388	0.426369	0.452823
H44	H	1.294898	0.428280	0.555379
H45	H	1.225088	0.526486	0.411233
H46	H	1.149746	0.384718	0.468145
O47	O	1.782898	-0.237072	0.117924
C48	C	1.692765	-0.151571	0.183240
H49	H	1.594207	-0.170381	0.148198
H50	H	1.700527	-0.164202	0.299369
H51	H	1.710676	-0.050993	0.154971
H52	H	1.274601	-0.408693	0.000045
H53	H	1.638705	0.031297	0.630594
H54	H	1.331508	0.338290	0.630619
H55	H	1.784696	-0.250452	-0.095523
H56	H	1.769485	-0.456474	-0.098575
H57	H	1.779315	-0.452596	0.095779
O58	O	1.141990	-0.036962	0.000151
C59	C	1.268677	-0.009009	0.000102
H60	H	1.274553	0.089683	0.043371
H61	H	1.327410	-0.080671	0.066463
H62	H	1.306511	-0.013436	-0.109563
O63	O	1.652056	0.018145	0.358171
C64	C	1.730093	0.086071	0.274853
H65	H	1.733160	0.185132	0.318196
H66	H	1.829443	0.035698	0.273156
H67	H	1.690782	0.092311	0.165836
O68	O	1.086473	0.413628	0.000115
C69	C	0.988214	0.512213	0.000088
H70	H	0.898924	0.476228	0.043375
H71	H	1.016296	0.593146	0.066444
H72	H	0.969970	0.546985	-0.109572
