data_functionalizedCrystal
_audit_creation_method	'MofGen! by Chris Wilmer'
_symmetry_space_group_name_H-M	'P1'
_symmetry_Int_Tables_number	1
_symmetry_cell_setting	triclinic
loop_
_symmetry_equiv_pos_as_xyz
  x,y,z
_cell_length_a	17.699083
_cell_length_b	17.699083
_cell_length_c	16.776229
_cell_angle_alpha	89.992455
_cell_angle_beta	89.998886
_cell_angle_gamma	83.283015
loop_
_atom_site_label
_atom_site_type_symbol
_atom_site_fract_x
_atom_site_fract_y
_atom_site_fract_z
O1	O	1.004078	0.095713	-0.066178
O2	O	1.504078	0.595713	0.433822
O3	O	0.783700	0.108165	-0.066204
O4	O	1.283700	0.608165	0.433796
O5	O	0.900116	-0.008250	-0.066183
O6	O	1.400116	0.491750	0.433817
O7	O	0.887663	0.212128	-0.066199
O8	O	1.387663	0.712128	0.433801
O9	O	0.900100	-0.008257	0.066393
O10	O	1.400100	0.491743	0.566393
O11	O	0.783685	0.108158	0.066372
O12	O	1.283685	0.608158	0.566372
O13	O	1.004063	0.095706	0.066398
O14	O	1.504063	0.595706	0.566398
Zn15	Zn	0.893871	0.101931	0.087435
Zn16	Zn	1.393871	0.601931	0.587435
Zn17	Zn	0.893892	0.101940	-0.087241
Zn18	Zn	1.393892	0.601940	0.412759
O19	O	0.887648	0.212121	0.066378
O20	O	1.387648	0.712121	0.566378
C21	C	0.755495	0.107716	0.000081
C22	C	1.255495	0.607716	0.500081
C23	C	0.671477	0.106377	0.000071
C24	C	1.171477	0.606377	0.500071
C25	C	0.622856	0.174710	0.000066
C26	C	1.122856	0.674710	0.500066
C27	C	0.543913	0.173448	0.000077
C28	C	1.043913	0.673448	0.500077
C29	C	0.513592	0.103852	0.000086
C30	C	1.013592	0.603852	0.500086
C31	C	0.562219	0.035513	0.000093
C32	C	1.062219	0.535513	0.500093
C33	C	0.641161	0.036776	0.000088
C34	C	1.141161	0.536776	0.500088
C35	C	0.243856	0.030418	0.000113
C36	C	0.743856	0.530418	0.500113
C37	C	0.164908	0.029160	0.000115
C38	C	0.664908	0.529160	0.500115
C39	C	0.146608	0.167090	0.000101
C40	C	0.646608	0.667090	0.500101
C41	C	0.225550	0.168353	0.000097
C42	C	0.725550	0.668353	0.500097
C43	C	0.274170	0.100015	0.000108
C44	C	0.774170	0.600015	0.500108
C45	C	0.359769	0.101384	0.000098
C46	C	0.859769	0.601384	0.500098
C47	C	0.427995	0.102481	0.000090
C48	C	0.927995	0.602481	0.500090
C49	C	0.899662	-0.036451	0.000105
C50	C	1.399662	0.463549	0.500105
C51	C	0.898323	-0.120469	0.000105
C52	C	1.398323	0.379531	0.500105
C53	C	0.966656	-0.169090	0.000114
C54	C	1.466656	0.330910	0.500114
C55	C	0.965394	-0.248033	0.000107
C56	C	1.465394	0.251967	0.500107
C57	C	0.895798	-0.278354	0.000096
C58	C	1.395798	0.221646	0.500096
C59	C	0.827459	-0.229727	0.000085
C60	C	1.327459	0.270273	0.500085
C61	C	0.828722	-0.150785	0.000086
C62	C	1.328722	0.349215	0.500086
C63	C	0.822364	-0.548090	0.000078
C64	C	1.322364	-0.048090	0.500078
C65	C	0.821106	-0.627038	0.000078
C66	C	1.321106	-0.127038	0.500078
C67	C	0.959036	-0.645338	0.000099
C68	C	1.459036	-0.145338	0.500099
C69	C	0.960299	-0.566396	0.000100
C70	C	1.460299	-0.066396	0.500100
C71	C	0.891961	-0.517776	0.000084
C72	C	1.391961	-0.017776	0.500084
C73	C	0.893330	-0.432177	0.000090
C74	C	1.393330	0.067823	0.500090
C75	C	0.894427	-0.363951	0.000096
C76	C	1.394427	0.136049	0.500096
C77	C	1.032268	0.096156	0.000112
C78	C	1.532268	0.596156	0.500112
C79	C	1.116286	0.097494	0.000116
C80	C	1.616286	0.597494	0.500116
C81	C	0.888102	0.240322	0.000087
C82	C	1.388102	0.740322	0.500087
C83	C	0.889440	0.324340	0.000082
C84	C	1.389440	0.824340	0.500082
N85	N	0.893863	0.101924	0.206646
N86	N	1.393863	0.601924	0.706646
N87	N	0.893906	0.101941	-0.206452
N88	N	1.393906	0.601941	0.293548
C89	C	0.945428	0.050396	0.248372
C90	C	1.445428	0.550396	0.748372
C91	C	0.945432	0.050396	0.331824
C92	C	1.445432	0.550396	0.831824
C93	C	0.893875	0.101927	0.373549
C94	C	1.393875	0.601927	0.873549
C95	C	0.842305	0.153457	0.331817
C96	C	1.342305	0.653457	0.831817
C97	C	0.842297	0.153454	0.248366
C98	C	1.342297	0.653454	0.748366
C99	C	0.842332	0.153472	0.668364
C100	C	1.342332	0.653472	1.168364
C101	C	0.842345	0.153473	0.751820
C102	C	1.342345	0.653473	1.251820
C103	C	0.945466	0.050414	0.751822
C104	C	1.445466	0.550414	1.251822
C105	C	0.945459	0.050411	0.668372
C106	C	1.445459	0.550411	1.168372
C107	C	0.893887	0.101938	0.626647
C108	C	1.393887	0.601938	1.126647
C109	C	0.893882	0.101937	0.536158
C110	C	1.393882	0.601937	1.036158
C111	C	0.893882	0.101932	0.464036
C112	C	1.393882	0.601932	0.964036
H113	H	0.107012	0.222734	0.000097
H114	H	0.607012	0.722734	0.500097
H115	H	1.021038	-0.287618	0.000116
H116	H	1.521038	0.212382	0.500116
C117	C	0.709515	-0.238429	-0.068092
C118	C	1.209515	0.261571	0.431908
C119	C	0.750958	-0.263056	0.000069
C120	C	1.250958	0.236944	0.500069
H121	H	0.662287	-0.259009	-0.068101
H122	H	1.162287	0.240991	0.431899
H123	H	0.700487	-0.184462	-0.068087
H124	H	1.200487	0.315538	0.431913
H125	H	0.737661	-0.255126	-0.114314
H126	H	1.237661	0.244874	0.385686
H127	H	0.722814	-0.246353	0.046291
H128	H	1.222814	0.253647	0.546291
H129	H	0.759983	-0.317034	0.000071
H130	H	1.259983	0.182966	0.500071
H131	H	0.140225	-0.027517	0.000124
H132	H	0.640225	0.472483	0.500124
C133	C	0.703163	-0.635746	-0.068108
C134	C	1.203163	-0.135746	0.431892
C135	C	0.744601	-0.660369	0.000057
C136	C	1.244601	-0.160369	0.500057
H137	H	0.655937	-0.656329	-0.068122
H138	H	1.155937	-0.156329	0.431878
H139	H	0.694132	-0.581780	-0.068105
H140	H	1.194132	-0.081780	0.431895
H141	H	0.731314	-0.652443	-0.114327
H142	H	1.231314	-0.152443	0.385673
H143	H	0.716452	-0.643667	0.046276
H144	H	1.216452	-0.143667	0.546276
H145	H	0.753629	-0.714347	0.000061
H146	H	1.253629	-0.214347	0.500061
C147	C	1.037658	-0.744718	-0.068053
C148	C	1.537658	-0.244718	0.431947
C149	C	1.034158	-0.698783	0.000104
C150	C	1.534158	-0.198783	0.500104
H151	H	1.084036	-0.777707	-0.068049
H152	H	1.584036	-0.277707	0.431951
H153	H	0.996035	-0.774073	-0.068055
H154	H	1.496035	-0.274073	0.431945
H155	H	1.035288	-0.713525	-0.114277
H156	H	1.535288	-0.213525	0.385723
H157	H	1.036522	-0.729976	0.046329
H158	H	1.536522	-0.229976	0.546329
H159	H	1.075792	-0.669425	0.000114
H160	H	1.575792	-0.169425	0.500114
C161	C	0.343240	-0.048182	-0.068039
C162	C	0.843240	0.451818	0.431961
C163	C	0.297292	-0.044699	0.000114
C164	C	0.797292	0.455301	0.500114
H165	H	0.376233	-0.094558	-0.068036
H166	H	0.876233	0.405442	0.431964
H167	H	0.312061	-0.045802	-0.114261
H168	H	0.812061	0.454198	0.385739
H169	H	0.372597	-0.006553	-0.068033
H170	H	0.872597	0.493447	0.431967
H171	H	0.267931	-0.086326	0.000105
H172	H	0.767931	0.413674	0.500105
H173	H	0.328474	-0.047087	0.046348
H174	H	0.828474	0.452913	0.546348
H175	H	0.987444	0.008452	0.634402
H176	H	1.487444	0.508452	1.134402
C177	C	1.048461	0.033860	0.425670
C178	C	1.548461	0.533860	0.925670
C179	C	1.002114	-0.006239	0.377698
C180	C	1.502114	0.493761	0.877698
H181	H	1.083451	-0.001106	0.453995
H182	H	1.583451	0.498894	0.953995
H183	H	1.075620	0.065324	0.393106
H184	H	1.575620	0.565324	0.893106
H185	H	1.017743	0.064547	0.462455
H186	H	1.517743	0.564547	0.962455
H187	H	1.032831	-0.036922	0.340909
H188	H	1.532831	0.463078	0.840909
H189	H	0.974953	-0.037716	0.410265
H190	H	1.474953	0.462284	0.910265
C191	C	0.449335	-0.027670	0.000099
C192	C	0.949335	0.472330	0.500099
C193	C	0.528893	-0.040990	0.000101
C194	C	1.028893	0.459010	0.500101
H195	H	0.428764	-0.074902	0.000098
H196	H	0.928764	0.425098	0.500098
H197	H	0.432642	0.000452	0.046327
H198	H	0.932642	0.500452	0.546327
H199	H	0.432645	0.000464	-0.046138
H200	H	0.932645	0.500464	0.453862
H201	H	0.545583	-0.069119	0.046342
H202	H	1.045583	0.430881	0.546342
H203	H	0.545592	-0.069123	-0.046131
H204	H	1.045592	0.430877	0.453869
H205	H	0.766718	-0.508512	0.000065
H206	H	1.266718	-0.008512	0.500065
C207	C	0.750114	-0.051391	0.068226
C208	C	1.250114	0.448609	0.568226
C209	C	0.753609	-0.097336	0.000077
C210	C	1.253609	0.402664	0.500077
H211	H	0.703742	-0.018392	0.068213
H212	H	1.203742	0.481608	0.568213
H213	H	0.752476	-0.082571	0.114451
H214	H	1.252476	0.417429	0.614451
H215	H	0.791748	-0.022040	0.068224
H216	H	1.291748	0.477960	0.568224
H217	H	0.711978	-0.126690	0.000082
H218	H	1.211978	0.373310	0.500082
H219	H	0.751239	-0.066152	-0.046160
H220	H	1.251239	0.433848	0.453840
C221	C	1.096515	-0.592417	0.000110
C222	C	1.596515	-0.092417	0.500110
C223	C	1.036801	-0.533068	0.000108
C224	C	1.536801	-0.033068	0.500108
H225	H	1.143744	-0.571841	0.000107
H226	H	1.643744	-0.071841	0.500107
H227	H	1.093152	-0.622829	0.046340
H228	H	1.593152	-0.122829	0.546340
H229	H	1.093152	-0.622823	-0.046126
H230	H	1.593152	-0.122823	0.453874
H231	H	1.040161	-0.502666	0.046347
H232	H	1.540161	-0.002666	0.546347
H233	H	1.040166	-0.502643	-0.046126
H234	H	1.540166	-0.002643	0.453874
C235	C	0.961994	-0.052664	0.154587
C236	C	1.461994	0.447336	0.654587
C237	C	1.002082	-0.006285	0.202532
C238	C	1.502082	0.493715	0.702532
H239	H	0.996966	-0.087666	0.126293
H240	H	1.496966	0.412334	0.626293
H241	H	0.930531	-0.079809	0.187167
H242	H	1.430531	0.420191	0.687167
H243	H	0.931306	-0.021970	0.117777
H244	H	1.431306	0.478030	0.617777
H245	H	1.032766	-0.036979	0.239347
H246	H	1.532766	0.463021	0.739347
H247	H	1.033558	0.020862	0.169950
H248	H	1.533558	0.520862	0.669950
H249	H	0.987457	0.008456	0.785804
H250	H	1.487457	0.508456	1.285804
C251	C	0.533753	0.309916	0.000051
C252	C	1.033753	0.809916	0.500051
C253	C	0.490469	0.248563	0.000068
C254	C	0.990469	0.748563	0.500068
H255	H	0.500757	0.356289	0.000041
H256	H	1.000757	0.856289	0.500041
H257	H	0.564925	0.307540	0.046277
H258	H	1.064925	0.807540	0.546277
H259	H	0.564923	0.307532	-0.046188
H260	H	1.064923	0.807532	0.453812
H261	H	0.459303	0.250943	0.046310
H262	H	0.959303	0.750943	0.546310
H263	H	0.459283	0.250940	-0.046164
H264	H	0.959283	0.750940	0.453836
C265	C	0.711237	0.198067	0.777537
C266	C	1.211237	0.698067	1.277537
C267	C	0.785663	0.210113	0.797688
C268	C	1.285663	0.710113	1.297688
H269	H	0.676248	0.233029	0.805859
H270	H	1.176248	0.733029	1.305859
H271	H	0.703853	0.205445	0.721873
H272	H	1.203853	0.705445	1.221873
H273	H	0.703134	0.147559	0.791226
H274	H	1.203134	0.647559	1.291226
H275	H	0.793768	0.260620	0.783993
H276	H	1.293768	0.760620	1.283993
H277	H	0.793051	0.202741	0.853365
H278	H	1.293051	0.702741	1.353365
H279	H	0.800342	0.195428	0.634398
H280	H	1.300342	0.695428	1.134398
H281	H	0.800322	0.195412	0.365793
H282	H	1.300322	0.695412	0.865793
C283	C	0.681074	-0.080397	-0.068063
C284	C	1.181074	0.419603	0.431937
C285	C	0.694611	-0.038336	0.000087
C286	C	1.194611	0.461664	0.500087
H287	H	0.714075	-0.126767	-0.068062
H288	H	1.214075	0.373233	0.431938
H289	H	0.629727	-0.091110	-0.068053
H290	H	1.129727	0.408890	0.431947
H291	H	0.690251	-0.051841	-0.114292
H292	H	1.190251	0.448159	0.385708
H293	H	0.685429	-0.066890	0.046317
H294	H	1.185429	0.433110	0.546317
H295	H	0.745970	-0.027626	0.000085
H296	H	1.245970	0.472374	0.500085
H297	H	1.023330	-0.144409	0.000128
H298	H	1.523330	0.355591	0.500128
H299	H	0.647537	0.231384	0.000058
H300	H	1.147537	0.731384	0.500058
H301	H	0.800308	0.195412	0.214393
H302	H	1.300308	0.695412	0.714393
H303	H	0.250232	0.225025	0.000085
H304	H	0.750232	0.725025	0.500085
