data_functionalizedCrystal
_audit_creation_method	'MofGen! by Chris Wilmer'
_symmetry_space_group_name_H-M	'P1'
_symmetry_Int_Tables_number	1
_symmetry_cell_setting	triclinic
loop_
_symmetry_equiv_pos_as_xyz
  x,y,z
_cell_length_a	12.837943
_cell_length_b	12.811415
_cell_length_c	9.130313
_cell_angle_alpha	84.564622
_cell_angle_beta	89.997654
_cell_angle_gamma	89.411917
loop_
_atom_site_label
_atom_site_type_symbol
_atom_site_fract_x
_atom_site_fract_y
_atom_site_fract_z
O1	O	1.376630	0.272977	-0.158026
O2	O	1.876630	0.772977	0.341974
O3	O	1.074767	0.259493	-0.156244
O4	O	1.574767	0.759493	0.343756
O5	O	1.233292	0.114202	-0.136935
O6	O	1.733292	0.614202	0.363065
O7	O	1.218104	0.418268	-0.177335
O8	O	1.718104	0.918268	0.322665
O9	O	1.233282	0.114196	0.106665
O10	O	1.733282	0.614196	0.606665
O11	O	1.074756	0.259487	0.087356
O12	O	1.574756	0.759487	0.587356
O13	O	1.376619	0.272972	0.085574
O14	O	1.876619	0.772972	0.585574
Cu15	Cu	1.225687	0.266229	0.108707
Cu16	Cu	1.725687	0.766229	0.608707
Cu17	Cu	1.225699	0.266236	-0.179377
Cu18	Cu	1.725699	0.766236	0.320623
O19	O	1.218093	0.418262	0.066264
O20	O	1.718093	0.918262	0.566264
C21	C	1.036121	0.254935	-0.033840
C22	C	1.536121	0.754935	0.466160
C23	C	0.920985	0.241348	-0.032039
C24	C	1.420985	0.741348	0.467961
C25	C	0.680732	0.404679	-0.053719
C26	C	1.180732	0.904679	0.446281
C27	C	0.572551	0.391918	-0.052026
C28	C	1.072551	0.891918	0.447974
C29	C	0.596440	0.203068	-0.026950
C30	C	1.096440	0.703068	0.473050
C31	C	0.704621	0.215828	-0.028643
C32	C	1.204621	0.715828	0.471357
C33	C	0.746763	0.316637	-0.042030
C34	C	1.246763	0.816637	0.457970
C35	C	0.854946	0.329397	-0.043733
C36	C	1.354946	0.829397	0.456267
C37	C	0.878833	0.140547	-0.018646
C38	C	1.378833	0.640547	0.481354
C39	C	0.770652	0.127787	-0.016953
C40	C	1.270652	0.627787	0.483047
C41	C	1.232436	0.075010	-0.009931
C42	C	1.732436	0.575010	0.490069
C43	C	1.229887	-0.041763	0.005575
C44	C	1.729887	0.458237	0.505575
C45	C	1.225090	-0.261177	-0.230891
C46	C	1.725090	0.238823	0.269109
C47	C	1.222695	-0.370896	-0.216328
C48	C	1.722695	0.129104	0.283672
C49	C	1.222695	-0.370922	0.049260
C50	C	1.722695	0.129078	0.549260
C51	C	1.225090	-0.261203	0.034698
C52	C	1.725090	0.238797	0.534698
C53	C	1.226289	-0.206334	-0.105382
C54	C	1.726289	0.293666	0.394618
C55	C	1.228691	-0.096614	-0.119943
C56	C	1.728691	0.403386	0.380057
C57	C	1.228683	-0.096642	0.145644
C58	C	1.728683	0.403358	0.645644
C59	C	1.226288	-0.206360	0.160206
C60	C	1.726288	0.293640	0.660206
C61	C	1.415265	0.277530	-0.036833
C62	C	1.915265	0.777530	0.463167
C63	C	1.530401	0.291116	-0.038644
C64	C	2.030401	0.791116	0.461356
C65	C	1.218950	0.457455	-0.060742
C66	C	1.718950	0.957455	0.439258
C67	C	1.221499	0.574228	-0.076258
C68	C	1.721499	1.074228	0.423742
N69	N	1.225685	0.266224	0.311331
N70	N	1.725685	0.766224	0.811331
N71	N	1.225709	0.266233	-0.382000
N72	N	1.725709	0.766233	0.118000
C73	C	1.295904	0.201922	0.396528
C74	C	1.795904	0.701922	0.896528
C75	C	1.295914	0.201923	0.549865
C76	C	1.795914	0.701923	1.049865
C77	C	1.155483	0.330538	0.532792
C78	C	1.655483	0.830538	1.032792
C79	C	1.155468	0.330531	0.379459
C80	C	1.655468	0.830531	0.879459
H81	H	0.562109	0.120994	-0.015930
H82	H	1.062109	0.620994	0.484070
F83	F	1.221417	-0.429259	-0.349912
F84	F	1.721417	0.070741	0.150088
F85	F	0.949117	0.046841	-0.006223
F86	F	1.449117	0.546841	0.493777
H87	H	1.353091	0.149560	0.619230
H88	H	1.853091	0.649560	1.119230
F89	F	1.080759	0.398977	0.605308
F90	F	1.580759	0.898977	1.105308
F91	F	0.725791	0.020504	-0.002702
F92	F	1.225791	0.520504	0.497298
F93	F	1.226381	-0.202780	-0.379971
F94	F	1.726381	0.297220	0.120029
H95	H	0.715043	0.486761	-0.064622
H96	H	1.215043	0.986761	0.435378
F97	F	1.229972	-0.038220	-0.269026
F98	F	1.729972	0.461780	0.230974
H99	H	1.098283	0.382893	0.310085
H100	H	1.598283	0.882893	0.810085
F101	F	1.221393	-0.429333	0.198330
F102	F	1.721393	0.070667	0.698330
H103	H	0.518791	0.463611	-0.061541
H104	H	1.018791	0.963611	0.438459
F105	F	1.225003	-0.264766	0.309281
F106	F	1.725003	0.235234	0.809281
F107	F	1.229968	-0.038267	0.279228
F108	F	1.729968	0.461733	0.779228
H109	H	1.353077	0.149558	0.341063
H110	H	1.853077	0.649558	0.841063
H111	H	0.889255	0.411480	-0.054631
H112	H	1.389255	0.911480	0.445369
