data_functionalizedCrystal
_audit_creation_method	'MofGen! by Chris Wilmer'
_symmetry_space_group_name_H-M	'P1'
_symmetry_Int_Tables_number	1
_symmetry_cell_setting	triclinic
loop_
_symmetry_equiv_pos_as_xyz
  x,y,z
_cell_length_a	13.262522
_cell_length_b	14.519731
_cell_length_c	12.376457
_cell_angle_alpha	101.297478
_cell_angle_beta	63.170097
_cell_angle_gamma	84.074474
loop_
_atom_site_label
_atom_site_type_symbol
_atom_site_fract_x
_atom_site_fract_y
_atom_site_fract_z
O1	O	1.512407	0.019557	-0.558970
O2	O	1.185357	0.051890	-0.458427
O3	O	1.357538	-0.098991	-0.511349
O4	O	1.340225	0.170438	-0.506047
O5	O	1.314508	-0.061320	-0.310111
O6	O	1.142326	0.089561	-0.257189
O7	O	1.469377	0.057228	-0.357732
Zn8	Zn	1.299020	0.079376	-0.275509
Zn9	Zn	1.355714	0.029742	-0.540649
O10	O	1.297195	0.208109	-0.304809
C11	C	1.121985	0.072378	-0.344940
C12	C	0.997267	0.077290	-0.306598
C13	C	0.915224	0.100136	-0.178883
C14	C	0.798044	0.104744	-0.142850
C15	C	0.762894	0.086515	-0.234527
C16	C	0.844937	0.063676	-0.362244
C17	C	0.962129	0.059060	-0.398281
C18	C	0.809799	0.045440	-0.453925
C19	C	0.891842	0.022601	-0.581642
C20	C	1.009022	0.017986	-0.617673
C21	C	1.044172	0.036215	-0.525996
C22	C	0.692607	0.050056	-0.417888
C23	C	0.739512	0.008981	-0.637286
C24	C	0.856692	0.004372	-0.673319
C25	C	1.335212	-0.114470	-0.410480
C26	C	1.332780	-0.216715	-0.409732
C27	C	1.330805	-0.299751	-0.409128
C28	C	1.328338	-0.403924	-0.408378
C29	C	1.326381	-0.486956	-0.407783
C30	C	1.323914	-0.591137	-0.407031
C31	C	1.532749	0.036740	-0.471221
C32	C	1.657469	0.031826	-0.509571
C33	C	1.319523	0.223587	-0.405681
C34	C	1.321956	0.325831	-0.406437
N35	N	1.260336	0.113248	-0.094561
N36	N	1.394407	-0.004138	-0.721600
C37	C	1.484205	-0.082784	0.191615
C38	C	1.511274	-0.106492	0.064955
C39	C	1.448541	-0.051559	0.025069
C40	C	1.358736	0.027085	0.111857
C41	C	1.331670	0.050799	0.238527
C42	C	1.296007	0.082025	0.071982
C43	C	1.206201	0.160669	0.158769
C44	C	1.179140	0.184379	0.285427
C45	C	1.241872	0.129446	0.325312
C46	C	1.323072	0.058311	-0.054688
C47	C	1.170538	0.191895	-0.007776
C48	C	1.143469	0.215602	0.118884
H49	H	0.710895	-0.005861	-0.711937
O50	O	1.215392	0.152582	0.448410
C51	C	1.122702	0.233792	0.516455
H52	H	1.071413	0.239799	0.464032
H53	H	1.063609	0.225864	0.613799
H54	H	1.158132	0.301382	0.526556
H55	H	1.106024	0.248422	0.356088
O56	O	1.474621	-0.074569	-0.097901
C57	C	1.376996	-0.095555	-0.107403
H58	H	1.295249	-0.059456	-0.014062
H59	H	1.372188	-0.067412	-0.185097
H60	H	1.384610	-0.176767	-0.130735
H61	H	1.535279	-0.127499	0.224098
H62	H	0.923507	-0.014224	-0.777308
H63	H	0.625817	0.068660	-0.313899
H64	H	1.070348	0.279636	0.189561
H65	H	1.584393	-0.170522	-0.005703
O66	O	1.410226	-0.018079	-0.139135
C67	C	1.420611	-0.027279	-0.259469
H68	H	1.382574	0.045055	-0.263971
H69	H	1.515938	-0.051214	-0.333802
H70	H	1.371723	-0.083117	-0.277939
O71	O	1.109774	0.245270	-0.046684
C72	C	1.185708	0.285239	-0.138478
H73	H	1.277594	0.240254	-0.184468
H74	H	1.157879	0.285663	-0.213135
H75	H	1.183052	0.362119	-0.092062
O76	O	0.649013	0.091080	-0.199310
C77	C	0.584141	0.115125	-0.066928
H78	H	0.633808	0.153514	-0.024167
H79	H	0.497282	0.164588	-0.033994
H80	H	0.568876	0.046719	-0.035576
H81	H	0.943857	0.114967	-0.104254
O82	O	0.718497	0.126988	-0.018739
C83	C	0.774648	0.142067	0.054450
H84	H	0.860467	0.162181	-0.001988
H85	H	0.717350	0.202888	0.143740
H86	H	0.791531	0.073326	0.080781
H87	H	1.139587	0.032467	-0.555328
H88	H	1.075822	-0.000624	-0.721669
