data_functionalizedCrystal
_audit_creation_method	'MofGen! by Chris Wilmer'
_symmetry_space_group_name_H-M	'P1'
_symmetry_Int_Tables_number	1
_symmetry_cell_setting	triclinic
loop_
_symmetry_equiv_pos_as_xyz
  x,y,z
_cell_length_a	19.188924
_cell_length_b	10.654550
_cell_length_c	9.130313
_cell_angle_alpha	90.000276
_cell_angle_beta	89.993420
_cell_angle_gamma	96.186552
loop_
_atom_site_label
_atom_site_type_symbol
_atom_site_fract_x
_atom_site_fract_y
_atom_site_fract_z
O1	O	0.098062	-1.665760	-0.121698
O2	O	0.107405	-1.300083	-0.121725
O3	O	0.001147	-1.493479	-0.121693
O4	O	0.204320	-1.472365	-0.121729
O5	O	0.001143	-1.493466	0.121906
O6	O	0.107402	-1.300070	0.121874
O7	O	0.098059	-1.665747	0.121901
Cu8	Cu	0.102730	-1.482907	0.144130
Cu9	Cu	0.102734	-1.482923	-0.143954
O10	O	0.204317	-1.472351	0.121869
C11	C	0.106717	-1.253293	0.000071
C12	C	0.104665	-1.113894	0.000061
N13	N	0.102727	-1.482906	0.346753
C14	C	-0.024870	-1.492790	0.000107
C15	C	-0.102389	-1.490742	0.000111
C16	C	-0.138792	-1.489793	-0.132675
C17	C	-0.211628	-1.487851	-0.132686
C18	C	-0.248058	-1.486882	0.000096
C19	C	-0.211646	-1.487824	0.132900
C20	C	-0.138811	-1.489754	0.132907
N21	N	-0.367275	-1.555310	0.098928
N22	N	-0.436466	-1.553480	0.098912
C23	C	-0.467506	-1.481066	0.000082
N24	N	-0.426743	-1.410567	-0.098754
N25	N	-0.357546	-1.412403	-0.098742
C26	C	-0.327036	-1.484789	0.000103
C27	C	-0.582885	-1.478009	-0.132726
C28	C	-0.655722	-1.476059	-0.132732
C29	C	-0.655739	-1.476045	0.132858
C30	C	-0.582904	-1.477983	0.132860
C31	C	-0.546481	-1.478970	0.000064
C32	C	0.230334	-1.473040	0.000065
C33	C	0.307853	-1.475089	0.000052
C34	C	0.098747	-1.712537	0.000102
C35	C	0.100799	-1.851937	0.000102
C36	C	0.167228	-1.033082	0.000054
C37	C	0.165296	-0.902102	0.000080
C38	C	0.038231	-0.932759	0.000114
C39	C	0.040164	-1.063737	0.000098
N40	N	0.102731	-1.482935	-0.346577
C41	C	0.055696	-1.568570	0.423419
C42	C	0.055696	-1.568582	0.576755
C43	C	0.149765	-1.397262	0.576747
C44	C	0.149761	-1.397245	0.423413
H45	H	-0.109141	-1.490594	-0.240808
H46	H	-0.109171	-1.490521	0.241041
C47	C	-0.542817	-1.479077	-0.278803
N48	N	-0.512640	-1.479877	-0.388829
C49	C	-0.028664	-1.152636	0.000106
N50	N	-0.080503	-1.219595	0.000116
C51	C	0.201534	-1.303060	0.339075
N52	N	0.240538	-1.232142	0.275552
H53	H	0.017397	-1.638318	0.361005
C54	C	0.003952	-1.662809	0.661081
N55	N	-0.035026	-1.733781	0.724594
H56	H	0.219749	-1.073915	0.000035
C57	C	-0.032716	-0.877573	0.000141
N58	N	-0.086155	-0.836009	0.000156
H59	H	-0.241312	-1.487032	0.241012
H60	H	0.188059	-1.327520	0.639179
H61	H	-0.553264	-1.478766	0.240989
C62	C	0.234120	-0.813213	0.000079
N63	N	0.285962	-0.746262	0.000083
H64	H	-0.241272	-1.487070	-0.240820
H65	H	-0.685400	-1.475247	0.240972
C66	C	-0.695770	-1.475078	-0.278815
N67	N	-0.725936	-1.474366	-0.388848
