data_functionalizedCrystal
_audit_creation_method	'MofGen! by Chris Wilmer'
_symmetry_space_group_name_H-M	'P1'
_symmetry_Int_Tables_number	1
_symmetry_cell_setting	triclinic
loop_
_symmetry_equiv_pos_as_xyz
  x,y,z
_cell_length_a	13.897449
_cell_length_b	12.645330
_cell_length_c	13.897441
_cell_angle_alpha	89.973671
_cell_angle_beta	89.981404
_cell_angle_gamma	90.018972
loop_
_atom_site_label
_atom_site_type_symbol
_atom_site_fract_x
_atom_site_fract_y
_atom_site_fract_z
Zn1	Zn	1.474682	-0.421980	-0.545403
Zn2	Zn	1.808016	-0.088646	-0.212070
Zn3	Zn	2.141349	0.244687	0.121263
Zn4	Zn	1.474582	-0.599272	-0.384114
Zn5	Zn	1.807916	-0.265939	-0.050781
Zn6	Zn	2.141249	0.067395	0.282553
Zn7	Zn	1.313377	-0.422027	-0.384122
Zn8	Zn	1.646711	-0.088694	-0.050788
Zn9	Zn	1.980044	0.244640	0.282545
Zn10	Zn	1.313353	-0.599205	-0.545367
Zn11	Zn	1.646686	-0.265872	-0.212033
Zn12	Zn	1.980020	0.067461	0.121300
O13	O	1.393999	-0.510621	-0.464751
O14	O	1.727332	-0.177288	-0.131418
O15	O	2.060665	0.156046	0.201915
O16	O	1.609651	-0.445506	-0.524020
O17	O	1.942984	-0.112172	-0.190687
O18	O	2.276317	0.221161	0.142647
O19	O	1.453166	-0.575808	-0.249133
O20	O	1.786500	-0.242474	0.084200
O21	O	2.119833	0.090859	0.417533
O22	O	1.334827	-0.273673	-0.405535
O23	O	1.668160	0.059660	-0.072201
O24	O	2.001494	0.392993	0.261132
O25	O	1.609577	-0.575762	-0.405521
O26	O	1.942910	-0.242428	-0.072188
O27	O	2.276244	0.090905	0.261145
O28	O	1.453337	-0.273639	-0.524028
O29	O	1.786670	0.059695	-0.190694
O30	O	2.120004	0.393028	0.142639
O31	O	1.334730	-0.445587	-0.249139
O32	O	1.668063	-0.112253	0.084194
O33	O	2.001397	0.221080	0.417528
O34	O	1.178393	-0.445522	-0.405499
O35	O	1.511726	-0.112189	-0.072166
O36	O	1.845059	0.221145	0.261168
O37	O	1.334785	-0.575648	-0.680353
O38	O	1.668119	-0.242315	-0.347020
O39	O	2.001452	0.091018	-0.013686
O40	O	1.178375	-0.575694	-0.523965
O41	O	1.511708	-0.242361	-0.190632
O42	O	1.845041	0.090972	0.142702
O43	O	1.453313	-0.445441	-0.680380
O44	O	1.786647	-0.112108	-0.347047
O45	O	2.119980	0.221225	-0.013713
O46	O	1.453143	-0.747610	-0.405486
O47	O	1.786476	-0.414277	-0.072153
O48	O	2.119810	-0.080944	0.261181
O49	O	1.334689	-0.747561	-0.523957
O50	O	1.668022	-0.414228	-0.190624
O51	O	2.001355	-0.080895	0.142709
C52	C	1.143384	-0.510607	-0.464729
C53	C	1.476718	-0.177274	-0.131396
C54	C	1.810051	0.156060	0.201937
C55	C	1.036171	-0.510626	-0.464743
C56	C	1.369504	-0.177293	-0.131410
C57	C	1.702837	0.156040	0.201924
C58	C	0.839875	-0.510630	-0.464768
C59	C	1.173209	-0.177297	-0.131435
C60	C	1.506542	0.156037	0.201899
C61	C	0.949108	-0.510625	-0.464751
C62	C	1.282441	-0.177291	-0.131418
C63	C	1.615775	0.156042	0.201915
C64	C	1.393928	-0.786051	-0.464738
C65	C	1.727262	-0.452717	-0.131405
C66	C	2.060595	-0.119384	0.201929
C67	C	1.393987	-0.903881	-0.464764
C68	C	1.727320	-0.570547	-0.131431
C69	C	2.060653	-0.237214	0.201902
C70	C	1.319774	-1.071458	-0.539525
C71	C	1.653108	-0.738125	-0.206191
C72	C	1.986441	-0.404791	0.127142
C73	C	1.319395	-0.948899	-0.539284
C74	C	1.652728	-0.615565	-0.205951
C75	C	1.986061	-0.282232	0.127382
C76	C	1.366471	-0.948478	-0.363109
C77	C	1.699804	-0.615145	-0.029775
C78	C	2.033138	-0.281812	0.303558
C79	C	1.366018	-1.071077	-0.363563
C80	C	1.699351	-0.737743	-0.030229
C81	C	2.032685	-0.404410	0.303104
C82	C	1.496168	-1.070967	-0.490835
C83	C	1.829502	-0.737633	-0.157502
C84	C	2.162835	-0.404300	0.175831
C85	C	1.495542	-0.948360	-0.493058
C86	C	1.828875	-0.615027	-0.159725
C87	C	2.162209	-0.281693	0.173609
C88	C	1.645592	-0.510636	-0.464774
C89	C	1.978925	-0.177303	-0.131441
C90	C	2.312258	0.156031	0.201893
C91	C	1.752806	-0.510642	-0.464784
C92	C	2.086139	-0.177309	-0.131450
C93	C	2.419472	0.156024	0.201883
C94	C	1.394058	-0.510532	-0.716344
C95	C	1.727391	-0.177199	-0.383011
C96	C	2.060724	0.156135	-0.049678
C97	C	1.394083	-0.510494	-0.823558
C98	C	1.727416	-0.177161	-0.490225
C99	C	2.060750	0.156173	-0.156892
C100	C	1.394096	-0.234116	-0.464786
C101	C	1.727429	0.099218	-0.131453
C102	C	2.060762	0.432551	0.201881
C103	C	1.394137	-0.116286	-0.464801
C104	C	1.727470	0.217048	-0.131467
C105	C	2.060804	0.550381	0.201866
C106	C	1.394103	-0.510464	-0.910628
C107	C	1.727436	-0.177131	-0.577295
C108	C	2.060769	0.156203	-0.243962
C109	C	1.394130	-0.510416	-1.019861
C110	C	1.727464	-0.177083	-0.686528
C111	C	2.060797	0.156250	-0.353194
C112	C	1.393995	-0.510633	-0.214137
C113	C	1.727329	-0.177300	0.119196
C114	C	2.060662	0.156034	0.452530
C115	C	1.394157	-0.510372	-0.106924
C116	C	1.727491	-0.177039	0.226410
C117	C	2.060824	0.156294	0.559743
H118	H	1.336610	-0.918742	-0.614661
H119	H	1.669943	-0.585409	-0.281328
H120	H	2.003276	-0.252075	0.052005
H121	H	1.553863	-0.917709	-0.442596
H122	H	1.887197	-0.584376	-0.109263
H123	H	2.220530	-0.251043	0.224070
Br124	Br	1.194490	-1.122992	-0.511171
Br125	Br	1.527824	-0.789659	-0.177838
Br126	Br	1.861157	-0.456325	0.155496
H127	H	1.291433	-1.099771	-0.341508
H128	H	1.624766	-0.766437	-0.008175
H129	H	1.958099	-0.433104	0.325159
Br130	Br	1.588514	-1.119303	-0.400141
Br131	Br	1.921848	-0.785970	-0.066808
Br132	Br	2.255181	-0.452636	0.266526
H133	H	1.292663	-0.917870	-0.340655
H134	H	1.625996	-0.584536	-0.007322
H135	H	1.959330	-0.251203	0.326011
H136	H	1.521269	-1.101808	-0.563702
H137	H	1.854602	-0.768475	-0.230369
H138	H	2.187936	-0.435141	0.102964
Br139	Br	1.193318	-0.900166	-0.510544
Br140	Br	1.526651	-0.566833	-0.177211
Br141	Br	1.859985	-0.233499	0.156122
Br142	Br	1.452363	-1.120515	-0.267598
Br143	Br	1.785697	-0.787181	0.065736
Br144	Br	2.119030	-0.453848	0.399069
Br145	Br	1.453881	-0.899887	-0.267772
Br146	Br	1.787215	-0.566554	0.065561
Br147	Br	2.120548	-0.233220	0.398895
H148	H	1.516293	-0.919207	-0.567871
H149	H	1.849626	-0.585873	-0.234538
H150	H	2.182959	-0.252540	0.098796
H151	H	1.336831	-1.100867	-0.615149
H152	H	1.670164	-0.767534	-0.281816
H153	H	2.003498	-0.434201	0.051518
