data_functionalizedCrystal
_audit_creation_method	'MofGen! by Chris Wilmer'
_symmetry_space_group_name_H-M	'P1'
_symmetry_Int_Tables_number	1
_symmetry_cell_setting	triclinic
loop_
_symmetry_equiv_pos_as_xyz
  x,y,z
_cell_length_a	13.897449
_cell_length_b	12.645330
_cell_length_c	13.897441
_cell_angle_alpha	89.973671
_cell_angle_beta	89.981404
_cell_angle_gamma	90.018972
loop_
_atom_site_label
_atom_site_type_symbol
_atom_site_fract_x
_atom_site_fract_y
_atom_site_fract_z
Zn1	Zn	1.474682	-0.421980	-0.545403
Zn2	Zn	1.974682	0.078020	-0.045403
Zn3	Zn	1.474582	-0.599272	-0.384114
Zn4	Zn	1.974582	-0.099272	0.115886
Zn5	Zn	1.313377	-0.422027	-0.384122
Zn6	Zn	1.813377	0.077973	0.115878
Zn7	Zn	1.313353	-0.599205	-0.545367
Zn8	Zn	1.813353	-0.099205	-0.045367
O9	O	1.393999	-0.510621	-0.464751
O10	O	1.893999	-0.010621	0.035249
O11	O	1.609651	-0.445506	-0.524020
O12	O	2.109651	0.054494	-0.024020
O13	O	1.453166	-0.575808	-0.249133
O14	O	1.953166	-0.075808	0.250867
O15	O	1.334827	-0.273673	-0.405535
O16	O	1.834827	0.226327	0.094465
O17	O	1.609577	-0.575762	-0.405521
O18	O	2.109577	-0.075762	0.094479
O19	O	1.453337	-0.273639	-0.524028
O20	O	1.953337	0.226361	-0.024028
O21	O	1.334730	-0.445587	-0.249139
O22	O	1.834730	0.054413	0.250861
O23	O	1.178393	-0.445522	-0.405499
O24	O	1.678393	0.054478	0.094501
O25	O	1.334785	-0.575648	-0.680353
O26	O	1.834785	-0.075648	-0.180353
O27	O	1.178375	-0.575694	-0.523965
O28	O	1.678375	-0.075694	-0.023965
O29	O	1.453313	-0.445441	-0.680380
O30	O	1.953313	0.054559	-0.180380
O31	O	1.453143	-0.747610	-0.405486
O32	O	1.953143	-0.247610	0.094514
O33	O	1.334689	-0.747561	-0.523957
O34	O	1.834689	-0.247561	-0.023957
C35	C	1.143384	-0.510607	-0.464729
C36	C	1.643384	-0.010607	0.035271
C37	C	1.036171	-0.510626	-0.464743
C38	C	1.536171	-0.010626	0.035257
C39	C	0.839875	-0.510630	-0.464768
C40	C	1.339875	-0.010630	0.035232
C41	C	0.949108	-0.510625	-0.464751
C42	C	1.449108	-0.010625	0.035249
C43	C	1.393928	-0.786051	-0.464738
C44	C	1.893928	-0.286051	0.035262
C45	C	1.393987	-0.903881	-0.464764
C46	C	1.893987	-0.403881	0.035236
C47	C	1.319774	-1.071458	-0.539525
C48	C	1.819774	-0.571458	-0.039525
C49	C	1.319395	-0.948899	-0.539284
C50	C	1.819395	-0.448899	-0.039284
C51	C	1.366471	-0.948478	-0.363109
C52	C	1.866471	-0.448478	0.136891
C53	C	1.366018	-1.071077	-0.363563
C54	C	1.866018	-0.571077	0.136437
C55	C	1.496168	-1.070967	-0.490835
C56	C	1.996168	-0.570967	0.009165
C57	C	1.495542	-0.948360	-0.493058
C58	C	1.995542	-0.448360	0.006942
C59	C	1.645592	-0.510636	-0.464774
C60	C	2.145592	-0.010636	0.035226
C61	C	1.752806	-0.510642	-0.464784
C62	C	2.252806	-0.010642	0.035216
C63	C	1.394058	-0.510532	-0.716344
C64	C	1.894058	-0.010532	-0.216344
C65	C	1.394083	-0.510494	-0.823558
C66	C	1.894083	-0.010494	-0.323558
C67	C	1.394096	-0.234116	-0.464786
C68	C	1.894096	0.265884	0.035214
C69	C	1.394137	-0.116286	-0.464801
C70	C	1.894137	0.383714	0.035199
C71	C	1.394103	-0.510464	-0.910628
C72	C	1.894103	-0.010464	-0.410628
C73	C	1.394130	-0.510416	-1.019861
C74	C	1.894130	-0.010416	-0.519861
C75	C	1.393995	-0.510633	-0.214137
C76	C	1.893995	-0.010633	0.285863
C77	C	1.394157	-0.510372	-0.106924
C78	C	1.894157	-0.010372	0.393076
H79	H	1.336831	-1.100867	-0.615149
H80	H	1.836831	-0.600867	-0.115149
H81	H	1.418916	-0.919320	-0.305912
H82	H	1.918916	-0.419320	0.194088
H83	H	1.521269	-1.101808	-0.563702
H84	H	2.021269	-0.601808	-0.063702
N85	N	1.521571	-0.911760	-0.586902
N86	N	2.021571	-0.411760	-0.086902
N87	N	1.528527	-0.814803	-0.603027
N88	N	2.028527	-0.314803	-0.103027
H89	H	1.546905	-0.788945	-0.669305
H90	H	2.046905	-0.288945	-0.169305
N91	N	1.272447	-1.107080	-0.335920
N92	N	1.772447	-0.607080	0.164080
N93	N	1.224161	-1.162980	-0.392208
N94	N	1.724161	-0.662980	0.107792
H95	H	1.158073	-1.188403	-0.372689
H96	H	1.658073	-0.688403	0.127311
N97	N	1.430995	-1.108273	-0.291316
N98	N	1.930995	-0.608273	0.208684
N99	N	1.476528	-1.043685	-0.240718
N100	N	1.976528	-0.543685	0.259282
H101	H	1.522406	-1.069950	-0.189684
H102	H	2.022406	-0.569950	0.310316
H103	H	1.336610	-0.918742	-0.614661
H104	H	1.836610	-0.418742	-0.114661
N105	N	1.273881	-0.910074	-0.334947
N106	N	1.773881	-0.410074	0.165053
N107	N	1.227999	-0.849872	-0.389568
N108	N	1.727999	-0.349872	0.110432
H109	H	1.162605	-0.822748	-0.369684
H110	H	1.662605	-0.322748	0.130316
N111	N	1.568699	-0.909909	-0.429747
N112	N	2.068699	-0.409909	0.070253
N113	N	1.547083	-0.848830	-0.362438
N114	N	2.047083	-0.348830	0.137562
H115	H	1.598747	-0.821677	-0.317714
H116	H	2.098747	-0.321677	0.182286
H117	H	1.244605	-1.102361	-0.522497
H118	H	1.744605	-0.602361	-0.022497
N119	N	1.565660	-1.107330	-0.422552
N120	N	2.065660	-0.607330	0.077448
N121	N	1.540285	-1.166363	-0.354980
N122	N	2.040285	-0.666363	0.145020
H123	H	1.589356	-1.192048	-0.306750
H124	H	2.089356	-0.692048	0.193250
H125	H	1.243753	-0.919666	-0.522036
H126	H	1.743753	-0.419666	-0.022036
