data_functionalizedCrystal
_audit_creation_method	'MofGen! by Chris Wilmer'
_symmetry_space_group_name_H-M	'P1'
_symmetry_Int_Tables_number	1
_symmetry_cell_setting	triclinic
loop_
_symmetry_equiv_pos_as_xyz
  x,y,z
_cell_length_a	23.096457
_cell_length_b	17.917603
_cell_length_c	17.917559
_cell_angle_alpha	60.139256
_cell_angle_beta	90.001221
_cell_angle_gamma	63.033951
loop_
_atom_site_label
_atom_site_type_symbol
_atom_site_fract_x
_atom_site_fract_y
_atom_site_fract_z
Zr1	Zr	0.590802	0.806864	-0.129086
O2	O	0.507725	0.951892	-0.249616
O3	O	0.612299	0.654638	-0.087436
O4	O	0.622789	0.796486	-0.242843
O5	O	0.493477	0.820741	0.023031
O6	O	0.718070	0.796488	-0.242847
O7	O	0.497236	0.810044	-0.094209
O8	O	0.699306	0.542747	0.035148
O9	O	0.512242	1.074481	-0.254964
O10	O	0.697371	0.719918	-0.075355
O11	O	0.623460	0.727899	0.012143
O12	O	0.635810	0.894907	-0.170829
O13	O	0.561899	0.902889	-0.083330
Zr14	Zr	0.736770	0.823927	0.057893
Zr15	Zr	0.742764	0.806867	-0.129093
Zr16	Zr	0.584808	0.823924	0.057900
Zr17	Zr	0.598005	1.002379	-0.137614
Zr18	Zr	0.729567	0.628412	0.066421
O19	O	0.715272	0.976153	0.016243
O20	O	0.723795	0.951896	-0.249626
O21	O	0.499203	0.976149	0.016252
O22	O	0.819847	0.678898	0.178423
O23	O	0.828369	0.654642	-0.087446
O24	O	0.603777	0.678895	0.178433
O25	O	0.834095	0.810050	-0.094225
O26	O	0.704783	0.834305	0.171650
O27	O	0.609502	0.834303	0.171654
O28	O	0.830336	0.820747	0.023016
O29	O	0.633031	1.074483	-0.254969
O30	O	0.694541	0.556307	0.183776
O31	O	0.815330	0.556310	0.183771
O32	O	0.820095	0.542749	0.035142
O33	O	0.507477	1.088041	-0.106336
O34	O	0.628266	1.088044	-0.106341
O35	O	0.691762	0.735883	0.099635
O36	O	0.765673	0.727902	0.012137
O37	O	0.704112	0.902891	-0.083337
O38	O	0.630201	0.910873	0.004162
C39	C	0.654776	0.570836	-0.024929
C40	C	0.651718	0.487834	-0.021308
C41	C	0.473705	0.815392	-0.035588
C42	C	0.409194	0.815391	-0.035585
C43	C	0.646132	0.335868	-0.014697
C44	C	0.681439	0.294918	-0.056494
C45	C	0.678330	0.210359	-0.052816
C46	C	0.649239	0.420435	-0.018374
C47	C	0.411022	0.724050	0.014243
C48	C	0.350407	0.724049	0.014247
C49	C	0.287963	0.815392	-0.035594
C50	C	0.286137	0.906746	-0.085425
C51	C	0.346752	0.906745	-0.085420
N52	N	0.170170	0.879704	-0.113029
N53	N	0.112590	0.879699	-0.113032
C54	C	0.105331	0.815401	-0.035610
N55	N	0.157833	0.751092	0.041813
N56	N	0.215419	0.751094	0.041815
C57	C	0.222233	0.815404	-0.035605
C58	C	0.041436	0.724052	0.014226
C59	C	-0.019182	0.724056	0.014232
C60	C	-0.083451	0.906754	-0.085448
C61	C	-0.022833	0.906749	-0.085445
C62	C	0.039608	0.815395	-0.035610
C63	C	0.853867	0.815399	-0.035605
C64	C	0.918378	0.815400	-0.035608
C65	C	0.671284	0.794056	-0.269487
C66	C	0.673828	0.786814	-0.348867
C67	C	0.672796	1.059955	-0.046264
C68	C	0.675854	1.142956	-0.049885
C69	C	0.649083	0.857194	-0.576966
C70	C	0.678488	0.773601	-0.494224
C71	C	0.675894	0.780955	-0.413341
C72	C	0.651675	0.849842	-0.657859
C73	C	0.656288	0.836735	0.198293
C74	C	0.653744	0.843977	0.277674
C75	C	0.844857	0.570839	-0.024938
C76	C	0.906311	0.487839	-0.021320
C77	C	0.647279	0.592175	0.208961
C78	C	0.641676	0.516416	0.291962
C79	C	0.837359	0.592178	0.208952
C80	C	0.896269	0.516421	0.291950
C81	C	0.490213	1.038612	-0.280146
C82	C	0.431303	1.114370	-0.363143
C83	C	0.482715	1.059952	-0.046256
C84	C	0.421261	1.142952	-0.049873
C85	C	0.680293	1.038616	-0.280154
C86	C	0.685896	1.114375	-0.363155
C87	C	0.899517	0.444693	-0.065299
C88	C	0.957255	0.366715	-0.061918
C89	C	1.021785	0.331879	-0.014552
C90	C	1.028577	0.375033	0.029428
C91	C	0.970841	0.453015	0.026041
C92	C	0.674698	0.485007	0.376618
C93	C	0.669431	0.413835	0.454612
C94	C	0.631147	0.374068	0.447949
C95	C	0.598121	0.405484	0.363285
C96	C	0.603384	0.476660	0.285292
C97	C	0.962520	0.476678	0.285253
C98	C	1.017878	0.405505	0.363231
C99	C	1.006983	0.374072	0.447905
C100	C	0.940724	0.413822	0.454599
C101	C	0.885368	0.484999	0.376623
C102	C	0.365052	1.154123	-0.356447
C103	C	0.309695	1.225319	-0.434426
C104	C	0.320591	1.256757	-0.519100
C105	C	0.386849	1.217001	-0.525794
C106	C	0.442205	1.145811	-0.447817
C107	C	0.428055	1.186105	-0.005902
C108	C	0.370319	1.264103	-0.009305
C109	C	0.305789	1.298941	-0.056674
C110	C	0.298997	1.255784	-0.100650
C111	C	0.356733	1.177793	-0.097252
C112	C	0.724186	1.154120	-0.356463
C113	C	0.729463	1.225294	-0.434444
C114	C	0.696446	1.256726	-0.519115
C115	C	0.658154	1.216974	-0.525805
C116	C	0.652881	1.145796	-0.447825
H117	H	0.613572	0.307422	0.023847
N118	N	0.353283	1.120229	-0.265131
H119	H	0.328480	1.180369	-0.260739
H120	H	0.398422	1.069076	-0.216790
N121	N	0.497648	1.148555	0.045185
H122	H	0.526292	1.158303	0.002699
H123	H	0.520042	1.074477	0.094566
N124	N	0.613158	0.959305	-0.590341
H125	H	0.616376	0.950143	-0.529819
H126	H	0.563833	0.998035	-0.625114
H127	H	0.714000	0.323367	-0.095042
N128	N	0.714418	0.671485	-0.480850
H129	H	0.733684	0.616720	-0.414358
H130	H	0.752487	0.664762	-0.509663
N131	N	0.478368	0.625523	0.067987
H132	H	0.470325	0.567658	0.099552
H133	H	0.503511	0.625541	0.114090
H134	H	0.258783	1.362448	-0.059433
H135	H	0.760643	1.257653	-0.428979
H136	H	0.976381	0.488135	0.061860
H137	H	0.846980	0.473054	-0.103880
N138	N	1.084053	0.247760	-0.010894
H139	H	1.125966	0.232231	0.025786
H140	H	1.086994	0.269323	-0.073966
H141	H	0.395713	1.242607	-0.594745
N142	N	0.702128	1.333510	-0.603217
H143	H	0.675401	1.347400	-0.657876
H144	H	0.751417	1.306309	-0.601979
H145	H	0.351896	0.649666	0.054823
N146	N	0.218791	1.005268	-0.139176
H147	H	0.180668	0.991409	-0.131619
H148	H	0.216763	1.041155	-0.204865
H149	H	0.971405	0.502259	0.216315
H150	H	-0.134293	0.981127	-0.126030
N151	N	0.705064	0.379943	0.545924
H152	H	0.670472	0.396530	0.578322
H153	H	0.730123	0.415939	0.538232
N154	N	0.949917	0.320170	-0.109342
H155	H	0.996281	0.265484	-0.100018
H156	H	0.927343	0.373909	-0.175807
H157	H	0.375863	1.299229	0.026510
H158	H	1.081125	0.346658	0.067992
N159	N	0.928974	0.379913	0.545926
H160	H	0.951914	0.396491	0.578315
H161	H	0.948529	0.304641	0.582240
N162	N	0.813911	0.527856	0.383852
H163	H	0.815415	0.497135	0.449327
H164	H	0.787575	0.511631	0.355499
H165	H	0.705873	0.517379	0.382060
H166	H	0.255749	1.257676	-0.428957
H167	H	0.631273	1.242578	-0.594755
H168	H	0.751073	1.128539	-0.287527
N169	N	0.344783	1.005265	-0.139170
H170	H	0.296029	1.063134	-0.170744
H171	H	0.369942	1.005231	-0.185266
N172	N	0.229394	1.293349	-0.151721
H173	H	0.193855	1.349295	-0.147186
H174	H	0.220822	1.235969	-0.125123
N175	N	0.625474	0.297298	0.532074
H176	H	0.652207	0.283437	0.586712
H177	H	0.644204	0.232632	0.534857
H178	H	0.566950	0.373095	0.357873
H179	H	0.092278	0.649668	0.054823
N180	N	0.567725	0.510587	0.193983
H181	H	0.542663	0.474607	0.201605
H182	H	0.602328	0.494039	0.161589
H183	H	-0.024325	0.981128	-0.126027
N184	N	0.260882	1.333539	-0.603200
H185	H	0.217260	1.353945	-0.586101
H186	H	0.261059	1.303070	-0.637881
N187	N	-0.017211	0.625534	0.067983
H188	H	0.031544	0.567666	0.099550
H189	H	-0.039554	0.617554	0.026224
N190	N	0.349400	1.131252	-0.144680
H191	H	0.299758	1.165161	-0.175199
H192	H	0.368696	1.056792	-0.099332
H193	H	1.071824	0.373147	0.357764
N194	N	0.611576	1.102941	-0.455058
H195	H	0.562904	1.159449	-0.490607
H196	H	0.613293	1.053067	-0.392788
N197	N	1.066692	0.297303	0.532005
H198	H	1.110314	0.276898	0.514906
H199	H	1.063131	0.235911	0.570693
H200	H	0.496148	1.113445	-0.453279
