data_functionalizedCrystal
_audit_creation_method	'MofGen! by Chris Wilmer'
_symmetry_space_group_name_H-M	'P1'
_symmetry_Int_Tables_number	1
_symmetry_cell_setting	triclinic
loop_
_symmetry_equiv_pos_as_xyz
  x,y,z
_cell_length_a	15.995300
_cell_length_b	15.995350
_cell_length_c	14.472310
_cell_angle_alpha	90.001162
_cell_angle_beta	89.985388
_cell_angle_gamma	83.482091
loop_
_atom_site_label
_atom_site_type_symbol
_atom_site_fract_x
_atom_site_fract_y
_atom_site_fract_z
O1	O	1.111023	0.107720	-0.076870
O2	O	0.867242	0.121092	-0.076864
O3	O	0.995796	-0.007483	-0.076866
O4	O	0.982468	0.236295	-0.076868
O5	O	0.995763	-0.007475	0.076816
O6	O	0.867209	0.121099	0.076818
O7	O	1.110990	0.107728	0.076812
Cu8	Cu	0.989096	0.114414	0.090847
Cu9	Cu	0.989135	0.114405	-0.090899
O10	O	0.982435	0.236302	0.076814
C11	C	0.836030	0.120550	-0.000022
C12	C	0.743077	0.118915	-0.000020
C13	C	0.572894	0.115896	-0.000027
C14	C	0.525428	0.207443	-0.000026
C15	C	0.428741	0.205773	-0.000377
C16	C	0.405337	0.112924	-0.000033
C17	C	0.446489	0.067499	-0.087620
C18	C	0.543122	0.069816	-0.087691
C19	C	0.543364	0.068469	0.087080
C20	C	0.446419	0.068477	0.088229
C21	C	0.310642	0.111239	-0.000040
C22	C	0.667590	0.117577	-0.000027
C23	C	0.995229	-0.038674	-0.000027
C24	C	0.993577	-0.131624	-0.000032
C25	C	0.987644	-0.469370	-0.000029
C26	C	0.896090	-0.421920	-0.000371
C27	C	0.897743	-0.325230	-0.000025
C28	C	0.990587	-0.301810	-0.000031
C29	C	1.035726	-0.342892	0.087726
C30	C	1.033426	-0.439527	0.087800
C31	C	1.035355	-0.439894	-0.086966
C32	C	1.035333	-0.342949	-0.088126
C33	C	0.992255	-0.207113	-0.000029
C34	C	0.985979	-0.564068	-0.000025
C35	C	1.142202	0.108269	-0.000032
C36	C	1.235154	0.109904	-0.000040
C37	C	0.983003	0.267493	-0.000027
C38	C	0.984655	0.360443	-0.000028
N39	N	0.989075	0.114420	0.218678
N40	N	0.989163	0.114393	-0.218730
C41	C	0.989134	0.114402	0.592769
C42	C	0.920117	0.182969	0.553605
C43	C	0.920276	0.183219	0.446517
C44	C	0.989104	0.114411	0.407178
C45	C	1.076471	0.133477	0.446013
C46	C	1.076083	0.133964	0.553135
C47	C	0.971565	0.026565	0.553300
C48	C	0.969561	0.027152	0.446172
C49	C	0.989092	0.114414	0.302290
C50	C	0.989152	0.114400	0.697658
H51	H	0.432390	-0.000724	-0.090631
N52	N	0.888945	0.008983	0.414327
N53	N	0.882915	-0.055395	0.366945
H54	H	0.825979	-0.068226	0.344451
N55	N	0.838809	0.168995	0.413558
N56	N	0.824987	0.166755	0.328640
H57	H	0.767446	0.156714	0.305364
H58	H	0.419066	0.101649	0.153027
N59	N	0.392991	0.250581	0.078337
N60	N	0.315293	0.257031	0.091529
H61	H	0.290045	0.288692	0.147114
H62	H	0.543906	0.244237	0.062773
N63	N	1.095483	0.214324	0.584489
N64	N	1.098697	0.229217	0.669123
H65	H	1.112395	0.285974	0.691264
H66	H	1.129045	0.085992	0.579040
H67	H	0.859511	-0.440448	-0.063304
N68	N	0.410921	0.106587	-0.169693
N69	N	0.355277	0.167888	-0.163908
H70	H	0.330156	0.195498	-0.221870
H71	H	1.102857	-0.471667	-0.087560
N72	N	0.550048	0.252900	-0.078702
N73	N	0.602400	0.218165	-0.134775
H74	H	0.619790	0.250266	-0.190343
H75	H	0.431080	0.000784	0.093777
H76	H	1.129056	0.084864	0.420529
H77	H	1.002331	-0.315697	-0.153046
H78	H	0.563850	0.098612	0.153488
N79	N	0.893358	0.003588	0.587226
N80	N	0.849618	0.051678	0.640915
H81	H	0.794378	0.035462	0.664872
N82	N	0.393825	0.250375	-0.079586
N83	N	0.440876	0.282829	-0.134784
H84	H	0.416217	0.314339	-0.190724
N85	N	0.566115	0.110873	-0.170141
N86	N	0.510819	0.137622	-0.227230
H87	H	0.527052	0.166621	-0.285463
N88	N	0.583237	-0.016202	0.088131
N89	N	0.633197	-0.041605	0.025072
H90	H	0.661362	-0.101402	0.025806
H91	H	0.575396	0.002591	-0.091433
N92	N	0.853225	-0.289577	-0.078943
N93	N	0.820713	-0.336099	-0.134661
H94	H	0.789266	-0.310923	-0.190397
N95	N	0.850376	-0.446494	0.078139
N96	N	0.884932	-0.498802	0.134343
H97	H	0.852648	-0.516161	0.189793
N98	N	0.838392	0.168956	0.585984
N99	N	0.823216	0.169655	0.670728
H100	H	0.765498	0.159755	0.693606
H101	H	1.004347	-0.314501	0.153036
H102	H	1.103041	-0.327599	-0.093429
H103	H	0.861993	-0.297356	0.062992
N104	N	0.992098	-0.462467	0.170101
N105	N	0.965150	-0.407134	0.227085
H106	H	0.935960	-0.423331	0.285212
H107	H	1.100643	-0.471787	0.091777
N108	N	1.096353	0.212919	0.412338
N109	N	1.046325	0.255625	0.359749
H110	H	1.060363	0.311734	0.335966
H111	H	1.016565	-0.026262	0.419398
H112	H	1.021896	-0.024460	0.578625
H113	H	1.103936	-0.328778	0.090985
N114	N	0.997822	-0.465670	-0.170402
N115	N	0.935446	-0.506084	-0.166803
H116	H	0.908931	-0.524291	-0.225725
H117	H	0.931181	0.247784	0.580514
H118	H	0.931495	0.248401	0.420882
