data_functionalizedCrystal
_audit_creation_method	'MofGen! by Chris Wilmer'
_symmetry_space_group_name_H-M	'P1'
_symmetry_Int_Tables_number	1
_symmetry_cell_setting	triclinic
loop_
_symmetry_equiv_pos_as_xyz
  x,y,z
_cell_length_a	16.625539
_cell_length_b	12.759401
_cell_length_c	12.759399
_cell_angle_alpha	90.015938
_cell_angle_beta	90.026183
_cell_angle_gamma	90.020340
loop_
_atom_site_label
_atom_site_type_symbol
_atom_site_fract_x
_atom_site_fract_y
_atom_site_fract_z
Zn1	Zn	-0.455916	-1.606241	0.418241
Zn2	Zn	-0.122583	-1.272908	0.751575
Zn3	Zn	0.210750	-0.939574	1.084908
Zn4	Zn	-0.321089	-1.606137	0.593942
Zn5	Zn	0.012245	-1.272804	0.927276
Zn6	Zn	0.345578	-0.939471	1.260609
Zn7	Zn	-0.321097	-1.430546	0.418281
Zn8	Zn	0.012236	-1.097213	0.751614
Zn9	Zn	0.345569	-0.763880	1.084947
Zn10	Zn	-0.455879	-1.430530	0.593881
Zn11	Zn	-0.122546	-1.097197	0.927215
Zn12	Zn	0.210788	-0.763864	1.260548
O13	O	-0.388495	-1.518364	0.506086
O14	O	-0.055162	-1.185030	0.839420
O15	O	0.278171	-0.851697	1.172753
O16	O	-0.438043	-1.753248	0.441558
O17	O	-0.104710	-1.419915	0.774891
O18	O	0.228624	-1.086582	1.108224
O19	O	-0.208257	-1.582808	0.570683
O20	O	0.125076	-1.249475	0.904016
O21	O	0.458409	-0.916142	1.237349
O22	O	-0.339001	-1.453903	0.271254
O23	O	-0.005667	-1.120569	0.604588
O24	O	0.327666	-0.787236	0.937921
O25	O	-0.338986	-1.753172	0.570644
O26	O	-0.005652	-1.419839	0.903978
O27	O	0.327681	-1.086505	1.237311
O28	O	-0.438052	-1.582985	0.271226
O29	O	-0.104718	-1.249651	0.604559
O30	O	0.228615	-0.916318	0.937892
O31	O	-0.208264	-1.453802	0.441625
O32	O	0.125070	-1.120469	0.774958
O33	O	0.458403	-0.787136	1.108291
O34	O	-0.338965	-1.283523	0.441565
O35	O	-0.005631	-0.950190	0.774899
O36	O	0.327702	-0.616857	1.108232
O37	O	-0.568716	-1.453875	0.570540
O38	O	-0.235383	-1.120542	0.903874
O39	O	0.097950	-0.787209	1.237207
O40	O	-0.437988	-1.283511	0.570578
O41	O	-0.104655	-0.950178	0.903912
O42	O	0.228679	-0.616845	1.237245
O43	O	-0.568744	-1.582969	0.441498
O44	O	-0.235410	-1.249636	0.774832
O45	O	0.097923	-0.916303	1.108165
O46	O	-0.338949	-1.582793	0.740955
O47	O	-0.005616	-1.249459	1.074289
O48	O	0.327717	-0.916126	1.407622
O49	O	-0.437979	-1.453775	0.740911
O50	O	-0.104646	-1.120442	1.074244
O51	O	0.228687	-0.787108	1.407577
C52	C	-0.388474	-1.245396	0.506070
C53	C	-0.055140	-0.912063	0.839404
C54	C	0.278193	-0.578730	1.172737
C55	C	-0.388483	-1.128620	0.506089
C56	C	-0.055150	-0.795286	0.839422
C57	C	0.278183	-0.461953	1.172755
C58	C	-0.439963	-1.073779	0.573367
C59	C	-0.106629	-0.740446	0.906701
C60	C	0.226704	-0.407113	1.240034
C61	C	-0.439976	-0.964055	0.573370
C62	C	-0.106643	-0.630722	0.906703
C63	C	0.226690	-0.297388	1.240037
C64	C	-0.337025	-0.964022	0.438812
C65	C	-0.003691	-0.630689	0.772146
C66	C	0.329642	-0.297355	1.105479
C67	C	-0.337016	-1.073744	0.438805
C68	C	-0.003682	-0.740411	0.772139
C69	C	0.329651	-0.407077	1.105472
C70	C	-0.598804	-1.518432	0.506008
C71	C	-0.265471	-1.185099	0.839342
C72	C	0.067862	-0.851765	1.172675
C73	C	-0.688425	-1.518461	0.505975
C74	C	-0.355092	-1.185128	0.839308
C75	C	-0.021759	-0.851794	1.172642
C76	C	-1.016601	-1.518510	0.505857
C77	C	-0.683268	-1.185176	0.839191
C78	C	-0.349935	-0.851843	1.172524
C79	C	-0.925293	-1.518493	0.505893
C80	C	-0.591959	-1.185160	0.839227
C81	C	-0.258626	-0.851827	1.172560
C82	C	-0.852516	-1.518486	0.505917
C83	C	-0.519183	-1.185153	0.839250
C84	C	-0.185850	-0.851819	1.172584
C85	C	-0.761202	-1.518468	0.505951
C86	C	-0.427869	-1.185135	0.839285
C87	C	-0.094535	-0.851802	1.172618
C88	C	-0.179004	-1.518356	0.506089
C89	C	0.154329	-1.185023	0.839422
C90	C	0.487662	-0.851689	1.172755
C91	C	-0.089384	-1.518531	0.505826
C92	C	0.243950	-1.185197	0.839159
C93	C	0.577283	-0.851864	1.172493
C94	C	-0.388477	-1.518299	0.779054
C95	C	-0.055144	-1.184966	1.112387
C96	C	0.278190	-0.851633	1.445721
C97	C	-0.388496	-1.518368	0.895830
C98	C	-0.055163	-1.185035	1.229164
C99	C	0.278171	-0.851701	1.562497
C100	C	-0.388512	-0.792397	0.506100
C101	C	-0.055179	-0.459064	0.839434
C102	C	0.278154	-0.125730	1.172767
C103	C	-0.388506	-0.909174	0.506098
C104	C	-0.055173	-0.575840	0.839432
C105	C	0.278160	-0.242507	1.172765
C106	C	-0.388531	-1.518457	0.232053
C107	C	-0.055198	-1.185124	0.565386
C108	C	0.278135	-0.851790	0.898720
C109	C	-0.388547	-1.518497	0.115276
C110	C	-0.055213	-1.185163	0.448610
C111	C	0.278120	-0.851830	0.781943
C112	C	-0.336990	-1.585624	0.950681
C113	C	-0.003656	-1.252291	1.284014
C114	C	0.329677	-0.918957	1.617348
C115	C	-0.337017	-1.585692	1.060405
C116	C	-0.003684	-1.252358	1.393738
C117	C	0.329650	-0.919025	1.727072
C118	C	-0.440059	-1.451238	1.060418
C119	C	-0.106725	-1.117904	1.393752
C120	C	0.226608	-0.784571	1.727085
C121	C	-0.440035	-1.451176	0.950696
C122	C	-0.106702	-1.117843	1.284030
C123	C	0.226632	-0.784510	1.617363
H124	H	-0.481873	-1.118456	0.628151
H125	H	-0.148540	-0.785123	0.961485
H126	H	0.184794	-0.451789	1.294818
H127	H	-0.481897	-0.919409	0.628154
H128	H	-0.148564	-0.586075	0.961487
H129	H	0.184770	-0.252742	1.294820
C130	C	-0.280300	-1.659543	0.890332
C131	C	0.053033	-1.326209	1.223666
C132	C	0.386367	-0.992876	1.556999
N133	N	-0.237601	-1.715223	0.844881
N134	N	0.095732	-1.381890	1.178214
N135	N	0.429065	-1.048556	1.511547
H136	H	-0.295120	-0.919329	0.384034
H137	H	0.038213	-0.585995	0.717368
H138	H	0.371546	-0.252662	1.050701
C139	C	-0.280381	-1.134072	0.364790
C140	C	0.052952	-0.800739	0.698123
C141	C	0.386285	-0.467405	1.031457
N142	N	-0.237727	-1.179511	0.309042
N143	N	0.095606	-0.846178	0.642376
N144	N	0.428939	-0.512845	0.975709
C145	C	-0.280352	-1.659675	1.120735
C146	C	0.052981	-1.326341	1.454069
C147	C	0.386314	-0.993008	1.787402
N148	N	-0.237670	-1.715401	1.166176
N149	N	0.095664	-1.382068	1.499509
N150	N	0.428997	-1.048734	1.832842
C151	C	-0.496740	-1.377319	1.120781
C152	C	-0.163406	-1.043986	1.454115
C153	C	0.169927	-0.710652	1.787448
N154	N	-0.539429	-1.321637	1.166245
N155	N	-0.206096	-0.988304	1.499579
N156	N	0.127237	-0.654971	1.832912
H157	H	-0.481982	-1.396408	0.906034
H158	H	-0.148648	-1.063075	1.239368
H159	H	0.184685	-0.729741	1.572701
