data_functionalizedCrystal
_audit_creation_method	'MofGen! by Chris Wilmer'
_symmetry_space_group_name_H-M	'P1'
_symmetry_Int_Tables_number	1
_symmetry_cell_setting	triclinic
loop_
_symmetry_equiv_pos_as_xyz
  x,y,z
_cell_length_a	14.971486
_cell_length_b	10.654550
_cell_length_c	14.048226
_cell_angle_alpha	89.994756
_cell_angle_beta	89.998499
_cell_angle_gamma	84.049516
loop_
_atom_site_label
_atom_site_type_symbol
_atom_site_fract_x
_atom_site_fract_y
_atom_site_fract_z
O1	O	1.187838	0.163659	-0.079049
O2	O	0.927544	0.183257	-0.079074
O3	O	1.063675	-0.009345	-0.079057
O4	O	1.051706	0.356262	-0.079066
O5	O	1.063659	-0.009357	0.079264
O6	O	0.927527	0.183246	0.079247
O7	O	1.187821	0.163648	0.079273
Zn8	Zn	1.057672	0.173445	0.104397
Zn9	Zn	1.057693	0.173460	-0.104198
O10	O	1.051690	0.356250	0.079256
C11	C	0.894206	0.182375	0.000083
C12	C	0.794895	0.179749	0.000073
C13	C	1.062788	-0.056139	0.000102
C14	C	1.060159	-0.195555	0.000099
C15	C	0.738285	0.292898	0.000072
C16	C	0.644972	0.290422	0.000086
C17	C	0.608271	0.174797	0.000095
C18	C	0.664888	0.061639	0.000099
C19	C	0.758199	0.064116	0.000092
C20	C	0.470397	0.056485	0.000112
C21	C	0.377080	0.054007	0.000118
C22	C	0.357171	0.282791	0.000107
C23	C	0.450482	0.285268	0.000100
C24	C	0.507092	0.172110	0.000102
C25	C	1.140311	-0.275900	0.000109
C26	C	1.137835	-0.406894	0.000102
C27	C	0.975048	-0.377185	0.000078
C28	C	0.977525	-0.246193	0.000078
C29	C	1.222945	-0.225262	0.000130
C30	C	1.303104	-0.305609	0.000142
C31	C	1.300628	-0.436603	0.000135
C32	C	1.217993	-0.487250	0.000116
C33	C	1.221159	0.164530	0.000113
C34	C	1.320470	0.167156	0.000117
C35	C	1.052577	0.403044	0.000094
C36	C	1.055206	0.542460	0.000092
N37	N	1.057663	0.173434	0.246758
N38	N	1.057709	0.173461	-0.246559
C39	C	1.117962	0.088185	0.296583
C40	C	1.117968	0.088184	0.396241
C41	C	1.057679	0.173440	0.446071
C42	C	0.997374	0.258693	0.396238
C43	C	0.997365	0.258687	0.296583
C44	C	0.997400	0.258702	0.603953
C45	C	0.997411	0.258710	0.703615
C46	C	1.118003	0.088200	0.703611
C47	C	1.117993	0.088193	0.603955
C48	C	1.057690	0.173448	0.554129
H49	H	0.598884	0.382560	0.000084
O50	O	0.777862	0.417615	0.000062
H51	H	0.852258	0.400333	0.000048
O52	O	1.225611	-0.083975	0.000141
H53	H	1.261406	-0.055829	-0.064382
H54	H	0.480361	0.379420	0.000084
O55	O	1.392229	-0.250993	0.000158
H56	H	1.380487	-0.146408	0.000170
O57	O	0.891077	-0.159524	0.000079
H58	H	0.851573	-0.177537	-0.064449
O59	O	1.215326	-0.628539	0.000108
H60	H	1.144401	-0.650255	0.000094
O61	O	1.183003	-0.003758	0.449989
H62	H	1.226790	0.049222	0.495388
O63	O	0.819264	-0.057922	0.000090
H64	H	0.778068	-0.138741	0.000089
H65	H	0.948281	0.328105	0.436816
H66	H	1.365897	-0.502018	0.000135
H67	H	0.516488	-0.035661	0.000116
O68	O	0.932344	0.350651	0.550225
H69	H	0.888536	0.297673	0.504848
O70	O	0.885924	-0.431803	0.000076
H71	H	0.897668	-0.536388	0.000091
H72	H	1.167059	0.018765	0.256018
O73	O	0.932334	0.350639	0.242834
H74	H	0.890418	0.409933	0.294225
H75	H	1.167089	0.018778	0.563383
O76	O	0.625309	-0.063076	0.000117
H77	H	0.583276	-0.069684	-0.064413
O78	O	1.183044	-0.003748	0.757356
H79	H	1.252863	0.012439	0.738226
O80	O	0.932369	0.350635	0.757367
H81	H	0.890420	0.409898	0.705980
H82	H	0.347201	-0.040145	0.000126
O83	O	0.296118	0.404844	0.000119
H84	H	0.253116	0.409191	-0.064399
