data_functionalizedCrystal
_audit_creation_method	'MofGen! by Chris Wilmer'
_symmetry_space_group_name_H-M	'P1'
_symmetry_Int_Tables_number	1
_symmetry_cell_setting	triclinic
loop_
_symmetry_equiv_pos_as_xyz
  x,y,z
_cell_length_a	9.065218
_cell_length_b	7.681481
_cell_length_c	9.065218
_cell_angle_alpha	95.825496
_cell_angle_beta	85.015885
_cell_angle_gamma	84.191250
loop_
_atom_site_label
_atom_site_type_symbol
_atom_site_fract_x
_atom_site_fract_y
_atom_site_fract_z
O1	O	1.946637	0.146426	0.230140
O2	O	1.517352	0.146428	0.247887
O3	O	1.740868	0.146423	0.024371
O4	O	1.723121	0.146430	0.453656
O5	O	1.768378	-0.146435	-0.003204
O6	O	1.544862	-0.146431	0.220312
O7	O	1.974147	-0.146433	0.202566
Zn8	Zn	1.763873	-0.192929	0.207061
Zn9	Zn	1.727627	0.192924	0.243391
O10	O	1.750631	-0.146428	0.426082
C11	C	1.476120	-0.000001	0.232394
C12	C	1.312277	-0.000000	0.227294
N13	N	1.788620	-0.456264	0.182266
C14	C	2.015378	0.000000	0.218059
C15	C	2.179220	0.000011	0.223159
C16	C	1.752917	-0.000003	-0.044403
C17	C	1.747817	0.000005	-0.208245
N18	N	1.702890	0.456259	0.268175
C19	C	1.738581	0.000002	0.494856
C20	C	1.743681	0.000005	0.658699
H21	H	1.615378	-0.468542	0.355862
H22	H	1.876150	-0.531472	0.094584
