data_functionalizedCrystal
_audit_creation_method	'MofGen! by Chris Wilmer'
_symmetry_space_group_name_H-M	'P1'
_symmetry_Int_Tables_number	1
_symmetry_cell_setting	triclinic
loop_
_symmetry_equiv_pos_as_xyz
  x,y,z
_cell_length_a	10.654549
_cell_length_b	13.339070
_cell_length_c	9.130313
_cell_angle_alpha	89.997998
_cell_angle_beta	89.997498
_cell_angle_gamma	100.057036
loop_
_atom_site_label
_atom_site_type_symbol
_atom_site_fract_x
_atom_site_fract_y
_atom_site_fract_z
O1	O	1.715933	0.142433	-0.121759
O2	O	2.215933	0.642433	0.378241
O3	O	1.355036	0.156003	-0.121769
O4	O	1.855036	0.656003	0.378231
O5	O	1.494065	0.001664	-0.121761
O6	O	1.994065	0.501664	0.378239
O7	O	1.576904	0.296772	-0.121767
O8	O	2.076904	0.796772	0.378233
O9	O	1.494051	0.001659	0.121838
O10	O	1.994051	0.501659	0.621838
O11	O	1.355022	0.155999	0.121830
O12	O	1.855022	0.655999	0.621830
O13	O	1.715918	0.142428	0.121840
O14	O	2.215918	0.642428	0.621840
Cu15	Cu	1.535468	0.149213	0.144077
Cu16	Cu	2.035468	0.649213	0.644077
Cu17	Cu	1.535486	0.149218	-0.144007
Cu18	Cu	2.035486	0.649218	0.355993
O19	O	1.576889	0.296767	0.121831
O20	O	2.076889	0.796767	0.621831
C21	C	1.307895	0.155005	0.000029
C22	C	1.807895	0.655005	0.500029
C23	C	1.167445	0.152024	0.000025
C24	C	1.667445	0.652024	0.500025
C25	C	0.986665	0.240088	0.000029
C26	C	1.486665	0.740088	0.500029
C27	C	1.118634	0.242896	0.000020
C28	C	1.618634	0.742896	0.500020
C29	C	1.084278	0.058336	0.000024
C30	C	1.584278	0.558336	0.500024
C31	C	0.952312	0.055529	0.000022
C32	C	1.452312	0.555529	0.500022
C33	C	1.480065	-0.036126	0.000036
C34	C	1.980065	0.463874	0.500036
C35	C	1.438355	-0.148720	0.000029
C36	C	1.938355	0.351280	0.500029
C37	C	1.762669	-0.511238	0.000039
C38	C	2.262669	-0.011238	0.500039
C39	C	1.801862	-0.405450	0.000054
C40	C	2.301862	0.094550	0.500054
C41	C	1.710988	-0.341263	0.000047
C42	C	2.210988	0.158737	0.500047
C43	C	1.580916	-0.382873	0.000026
C44	C	2.080916	0.117127	0.500026
C45	C	1.541719	-0.488671	0.000023
C46	C	2.041719	0.011329	0.500023
C47	C	1.490039	-0.318696	0.000031
C48	C	1.990039	0.181304	0.500031
C49	C	1.359966	-0.360306	0.000011
C50	C	1.859966	0.139694	0.500011
C51	C	1.320776	-0.466094	0.000007
C52	C	1.820776	0.033906	0.500007
C53	C	1.411650	-0.530281	0.000013
C54	C	1.911650	-0.030281	0.500013
C55	C	1.529235	-0.212898	0.000035
C56	C	2.029235	0.287102	0.500035
C57	C	1.308285	-0.190331	0.000019
C58	C	1.808285	0.309669	0.500019
C59	C	1.269093	-0.296118	0.000004
C60	C	1.769093	0.203882	0.500004
C61	C	1.763060	0.143427	0.000038
C62	C	2.263060	0.643427	0.500038
C63	C	1.903510	0.146408	0.000033
C64	C	2.403510	0.646408	0.500033
C65	C	1.590889	0.334557	0.000031
C66	C	2.090889	0.834557	0.500031
C67	C	1.632599	0.447152	0.000029
C68	C	2.132599	0.947152	0.500029
N69	N	1.535465	0.149209	0.346700
N70	N	2.035465	0.649209	0.846700
N71	N	1.535496	0.149215	-0.346629
N72	N	2.035496	0.649215	0.153371
C73	C	1.597066	0.080896	0.423355
C74	C	2.097066	0.580896	0.923355
C75	C	1.597078	0.080896	0.576692
C76	C	2.097078	0.580896	1.076692
C77	C	1.473888	0.217530	0.576705
C78	C	1.973888	0.717530	1.076705
C79	C	1.473869	0.217525	0.423371
C80	C	1.973869	0.717525	0.923371
H81	H	0.946935	0.314087	0.000036
H82	H	1.446935	0.814087	0.500036
H83	H	1.423700	0.273153	0.360954
H84	H	1.923700	0.773153	0.860954
F85	F	1.408339	0.290236	0.658313
F86	F	1.908339	0.790236	1.158313
H87	H	1.647219	0.025268	0.360934
H88	H	2.147219	0.525268	0.860934
H89	H	1.186336	0.319180	0.000017
H90	H	1.686336	0.819180	0.500017
H91	H	1.124030	-0.015654	0.000019
H92	H	1.624030	0.484346	0.500019
F93	F	0.863805	-0.044184	0.000010
F94	F	1.363805	0.455816	0.500010
H95	H	1.647237	0.025269	0.639101
H96	H	2.147237	0.525269	1.139101
H97	H	1.635140	-0.179029	0.000052
H98	H	2.135140	0.320971	0.500052
H99	H	1.742907	-0.255126	0.000059
H100	H	2.242907	0.244874	0.500059
H101	H	1.907766	-0.371579	0.000072
H102	H	2.407766	0.128421	0.500072
H103	H	1.836644	-0.563508	0.000056
H104	H	2.336644	-0.063508	0.500056
F105	F	1.369943	-0.642875	-0.000141
F106	F	1.869943	-0.142875	0.499859
H107	H	1.214863	-0.499969	0.000001
H108	H	1.714863	0.000031	0.500001
H109	H	1.163185	-0.330013	-0.000012
H110	H	1.663185	0.169987	0.499988
H111	H	1.234288	-0.138069	0.000021
H112	H	1.734288	0.361931	0.500021
