data_functionalizedCrystal
_audit_creation_method	'MofGen! by Chris Wilmer'
_symmetry_space_group_name_H-M	'P1'
_symmetry_Int_Tables_number	1
_symmetry_cell_setting	triclinic
loop_
_symmetry_equiv_pos_as_xyz
  x,y,z
_cell_length_a	8.497374
_cell_length_b	12.759401
_cell_length_c	12.759399
_cell_angle_alpha	89.983359
_cell_angle_beta	89.991562
_cell_angle_gamma	90.001753
loop_
_atom_site_label
_atom_site_type_symbol
_atom_site_fract_x
_atom_site_fract_y
_atom_site_fract_z
Zn1	Zn	0.891958	1.606064	0.418406
Zn2	Zn	0.628160	1.606013	0.594052
Zn3	Zn	0.628185	1.430422	0.418393
Zn4	Zn	0.891892	1.430354	0.594048
O5	O	0.760048	1.518213	0.506225
O6	O	0.856982	1.753079	0.441713
O7	O	0.407401	1.582728	0.570747
O8	O	0.663213	1.453771	0.271373
O9	O	0.663171	1.753041	0.570760
O10	O	0.857005	1.582815	0.271383
O11	O	0.407419	1.453722	0.441691
O12	O	0.663149	1.283392	0.441686
O13	O	1.112663	1.453655	0.570752
O14	O	0.856893	1.283342	0.570739
O15	O	1.112711	1.582749	0.441709
O16	O	0.663107	1.582661	0.741073
O17	O	0.856869	1.453605	0.741069
C18	C	0.760017	1.245246	0.506212
C19	C	0.760041	1.128469	0.506232
C20	C	0.860765	1.073609	0.573532
C21	C	0.860796	0.963885	0.573536
C22	C	0.659366	0.963891	0.438937
C23	C	0.659344	1.073613	0.438928
C24	C	0.760013	1.518149	0.779192
C25	C	0.760050	1.518217	0.895969
C26	C	1.171529	1.518205	0.506226
C27	C	1.350173	1.518208	0.506237
C28	C	0.760081	1.792246	0.506238
C29	C	0.760095	1.909023	0.506244
C30	C	0.760119	1.518307	0.232191
C31	C	0.760149	1.518346	0.115415
C32	C	0.659273	1.585494	0.950797
C33	C	0.659326	1.585561	1.060521
C34	C	0.860938	1.451067	1.060578
C35	C	0.860891	1.451006	0.950856
H36	H	0.577380	0.919214	0.384142
C37	C	0.548532	1.133966	0.364896
C38	C	0.561713	1.118908	0.245474
C39	C	0.450909	1.179260	0.171444
C40	C	0.326925	1.254670	0.216836
C41	C	0.313739	1.269731	0.336264
C42	C	0.424543	1.209379	0.410294
H43	H	0.653498	1.063082	0.211867
H44	H	0.460670	1.168110	0.083036
H45	H	0.244901	1.299346	0.162034
H46	H	0.221954	1.325557	0.369871
H47	H	0.414781	1.220529	0.498702
C48	C	0.548364	1.659432	0.890419
C49	C	0.369017	1.650975	0.905566
C50	C	0.258110	1.724919	0.845191
C51	C	0.326549	1.807320	0.769669
C52	C	0.505905	1.815781	0.754518
C53	C	0.616812	1.741837	0.814893
H54	H	0.318346	1.589974	0.961475
H55	H	0.125338	1.718656	0.856407
H56	H	0.244448	1.862058	0.724975
H57	H	0.556576	1.876782	0.698609
H58	H	0.749584	1.748100	0.803677
C59	C	0.548467	1.659566	1.120833
C60	C	0.437556	1.733495	1.060455
C61	C	0.326696	1.807505	1.120766
C62	C	0.326748	1.807587	1.241456
C63	C	0.437664	1.733654	1.301841
C64	C	0.548524	1.659644	1.241530
H65	H	0.437513	1.733437	0.971107
H66	H	0.244589	1.862235	1.076064
H67	H	0.244683	1.862373	1.286102
H68	H	0.437707	1.733712	1.391189
H69	H	0.630631	1.604914	1.286232
H70	H	0.942763	1.118269	0.628332
C71	C	0.971853	1.377133	1.120957
C72	C	0.971907	1.377195	1.241647
C73	C	1.082824	1.303258	1.302024
C74	C	1.193686	1.229260	1.241710
C75	C	1.193635	1.229195	1.121013
C76	C	1.082719	1.303132	1.060637
H77	H	0.889837	1.431975	1.286301
H78	H	1.082861	1.303306	1.391372
H79	H	1.275793	1.174527	1.286404
H80	H	1.275706	1.174415	1.076359
H81	H	1.082682	1.303084	0.971289
C82	C	0.971756	1.376997	0.890537
C83	C	0.958739	1.257575	0.905720
C84	C	1.069604	1.183575	0.845401
C85	C	1.193487	1.228996	0.769900
C86	C	1.206510	1.348424	0.754714
C87	C	1.095644	1.422424	0.815033
H88	H	0.867029	1.223946	0.961614
H89	H	1.059963	1.095166	0.856643
H90	H	1.275556	1.174216	0.725249
H91	H	1.298220	1.382053	0.698821
H92	H	1.105285	1.510833	0.803791
H93	H	0.942818	0.919222	0.628337
