data_functionalizedCrystal
_audit_creation_method	'MofGen! by Chris Wilmer'
_symmetry_space_group_name_H-M	'P1'
_symmetry_Int_Tables_number	1
_symmetry_cell_setting	triclinic
loop_
_symmetry_equiv_pos_as_xyz
  x,y,z
_cell_length_a	10.654559
_cell_length_b	10.654551
_cell_length_c	11.295483
_cell_angle_alpha	94.137679
_cell_angle_beta	85.854553
_cell_angle_gamma	84.487023
loop_
_atom_site_label
_atom_site_type_symbol
_atom_site_fract_x
_atom_site_fract_y
_atom_site_fract_z
O1	O	1.676221	0.168070	-0.099024
O2	O	1.310744	0.184864	-0.099024
O3	O	1.501885	-0.006272	-0.099024
O4	O	1.485080	0.359206	-0.099023
O5	O	1.485096	0.010490	0.099026
O6	O	1.293955	0.201626	0.099027
O7	O	1.659432	0.184832	0.099027
Cu8	Cu	1.475161	0.194759	0.117111
Cu9	Cu	1.495015	0.174937	-0.117107
O10	O	1.468292	0.375968	0.099028
C11	C	1.255552	0.192009	0.000001
C12	C	1.116109	0.188313	0.000001
C13	C	1.492257	-0.044689	-0.000002
C14	C	1.488565	-0.184133	-0.000010
C15	C	1.064569	0.072301	0.000004
C16	C	0.933547	0.068834	-0.000005
C17	C	0.905617	0.297403	-0.000015
C18	C	1.036637	0.300867	-0.000014
C19	C	1.144041	-0.040253	0.000019
C20	C	1.092502	-0.156275	0.000023
C21	C	0.961480	-0.159741	0.000014
C22	C	0.881999	-0.047186	0.000001
C23	C	1.495984	-0.258782	-0.107965
C24	C	1.492503	-0.389802	-0.107960
C25	C	1.474189	-0.371513	0.107966
C26	C	1.477661	-0.240494	0.107959
C27	C	1.506888	-0.202421	-0.215934
C28	C	1.514309	-0.277071	-0.323899
C29	C	1.510828	-0.408091	-0.323893
C30	C	1.499927	-0.464461	-0.215923
C31	C	1.714625	0.177686	-0.000001
C32	C	1.854068	0.181382	-0.000008
C33	C	1.477920	0.414385	0.000002
C34	C	1.481612	0.553828	0.000002
N35	N	1.461206	0.208701	0.281847
N36	N	1.508981	0.160985	-0.281844
C37	C	1.609438	0.060556	0.531136
C38	C	1.598901	0.071100	0.655800
C39	C	1.429589	0.240328	0.655840
C40	C	1.440126	0.229784	0.531177
C41	C	1.530055	0.139896	0.468829
C42	C	1.540597	0.129358	0.344163
C43	C	1.371280	0.298579	0.344206
C44	C	1.360743	0.309123	0.468869
H45	H	1.157225	-0.247913	0.000023
H46	H	0.775314	-0.050019	-0.000017
O47	O	0.828482	0.406747	-0.000229
C48	C	0.860712	0.468454	-0.102787
H49	H	0.910979	0.396472	-0.174480
H50	H	0.771130	0.515097	-0.137215
H51	H	0.926088	0.543689	-0.079597
O52	O	1.086792	0.413509	-0.000217
C53	C	1.170467	0.413655	-0.102772
H54	H	1.144980	0.341697	-0.174468
H55	H	1.162532	0.511858	-0.137198
H56	H	1.271548	0.387528	-0.079580
H57	H	1.663542	0.006493	0.706527
H58	H	1.471593	-0.179710	0.195866
H59	H	1.250727	-0.037443	0.000029
H60	H	1.509727	-0.095739	-0.215951
H61	H	1.523173	-0.231164	-0.411803
O62	O	1.496686	-0.591741	-0.215780
C63	C	1.599094	-0.643810	-0.156593
H64	H	1.631964	-0.567414	-0.093543
H65	H	1.567838	-0.723989	-0.103531
H66	H	1.680289	-0.682130	-0.224843
H67	H	1.613825	0.056170	0.293400
H68	H	1.465314	-0.417420	0.195870
O69	O	1.696825	-0.026856	0.470749
C70	C	1.764663	-0.094596	0.552477
H71	H	1.705652	-0.088982	0.641354
H72	H	1.786002	-0.197764	0.516448
H73	H	1.857188	-0.051822	0.565715
H74	H	1.356362	0.313505	0.706620
O75	O	0.911616	-0.272540	0.000065
C76	C	1.009863	-0.371135	0.000046
H77	H	1.095983	-0.331984	0.037543
H78	H	0.976899	-0.447195	0.057548
H79	H	1.036152	-0.413954	-0.094966
H80	H	1.306644	0.363186	0.293461
O81	O	1.273328	0.396274	0.529573
C82	C	1.189145	0.334395	0.601673
H83	H	1.236725	0.238156	0.620331
H84	H	1.162329	0.394044	0.689345
H85	H	1.100312	0.320947	0.553649
H86	H	1.516858	-0.468866	-0.411803
