data_functionalizedCrystal
_audit_creation_method	'MofGen! by Chris Wilmer'
_symmetry_space_group_name_H-M	'P1'
_symmetry_Int_Tables_number	1
_symmetry_cell_setting	triclinic
loop_
_symmetry_equiv_pos_as_xyz
  x,y,z
_cell_length_a	12.645331
_cell_length_b	18.101395
_cell_length_c	12.645323
_cell_angle_alpha	90.028267
_cell_angle_beta	90.022676
_cell_angle_gamma	90.030083
loop_
_atom_site_label
_atom_site_type_symbol
_atom_site_fract_x
_atom_site_fract_y
_atom_site_fract_z
Zn1	Zn	1.620632	-0.294844	0.599421
Zn2	Zn	1.620473	-0.418694	0.422151
Zn3	Zn	1.443347	-0.294869	0.422166
Zn4	Zn	1.443287	-0.418646	0.599366
O5	O	1.531935	-0.356763	0.510776
O6	O	1.768958	-0.311283	0.575923
O7	O	1.596935	-0.402299	0.273805
O8	O	1.466956	-0.191233	0.445708
O9	O	1.768841	-0.402275	0.445683
O10	O	1.597207	-0.191214	0.575937
O11	O	1.466801	-0.311325	0.273816
O12	O	1.294992	-0.311278	0.445655
O13	O	1.466854	-0.402193	0.747721
O14	O	1.294948	-0.402217	0.575843
O15	O	1.597149	-0.311236	0.747761
O16	O	1.596877	-0.522321	0.445630
O17	O	1.466699	-0.522285	0.575829
C18	C	1.256505	-0.356746	0.510745
C19	C	1.138675	-0.356756	0.510757
C20	C	0.971103	-0.299284	0.429308
C21	C	1.093663	-0.299432	0.428949
C22	C	1.094129	-0.434770	0.480236
C23	C	0.971530	-0.434456	0.479680
C24	C	0.971532	-0.336957	0.623043
C25	C	1.094139	-0.335215	0.622419
C26	C	1.531793	-0.549174	0.510745
C27	C	1.531829	-0.631488	0.510767
C28	C	1.532062	-0.930579	0.510824
C29	C	1.450348	-0.899262	0.592945
C30	C	1.449960	-0.813644	0.592688
C31	C	1.531946	-0.782196	0.510797
C32	C	1.501694	-0.813349	0.399071
C33	C	1.501167	-0.898994	0.399562
C34	C	1.644207	-0.898924	0.539445
C35	C	1.643548	-0.813273	0.541895
C36	C	1.531883	-0.698337	0.510774
C37	C	1.532123	-1.014438	0.510839
C38	C	1.808440	-0.356781	0.510807
C39	C	1.926270	-0.356789	0.510821
C40	C	1.532013	-0.356706	0.787281
C41	C	1.532046	-0.356682	0.905112
C42	C	1.532106	-0.163601	0.510830
C43	C	1.532179	-0.081287	0.510854
C44	C	1.531918	-0.356767	0.235346
C45	C	1.532090	-0.356583	0.117517
C46	C	1.449825	-0.413633	1.072650
C47	C	1.450040	-0.413915	0.950090
C48	C	1.643739	-0.377863	0.949630
C49	C	1.643288	-0.378220	1.072228
C50	C	1.503631	-0.278231	1.072316
C51	C	1.501139	-0.278701	0.949710
H52	H	1.123262	-0.277805	0.645434
H53	H	1.706659	-0.338471	1.101910
C54	C	1.134364	-0.221284	0.454785
H55	H	1.209493	-0.221271	0.454605
H56	H	1.109188	-0.187525	0.403100
H57	H	1.109529	-0.206847	0.522606
H58	H	1.468427	-0.471356	1.103464
H59	H	1.707650	-0.791861	0.486442
H60	H	1.666361	-0.792909	0.624119
C61	C	1.135514	-0.457883	0.370592
H62	H	1.108118	-0.505168	0.352825
H63	H	1.113393	-0.422822	0.319288
H64	H	1.210569	-0.459926	0.372028
C65	C	1.475492	-0.785183	0.704608
H66	H	1.486194	-0.825964	0.750642
H67	H	1.537794	-0.755880	0.702453
H68	H	1.418211	-0.756158	0.729789
C69	C	1.390425	-0.926077	0.366822
H70	H	1.389128	-0.978554	0.366829
H71	H	1.339446	-0.907962	0.415502
H72	H	1.374386	-0.908430	0.297920
C73	C	1.726430	-0.926207	0.458576
H74	H	1.692639	-0.956751	0.407623
H75	H	1.757676	-0.884976	0.424189
H76	H	1.779680	-0.953722	0.494003
C77	C	1.578059	-0.926987	0.314074
H78	H	1.609473	-0.886015	0.279193
H79	H	1.631672	-0.956099	0.346167
H80	H	1.540451	-0.956108	0.264102
H81	H	1.671788	-0.920471	0.619527
C82	C	1.392119	-0.784471	0.365726
H83	H	1.374516	-0.803628	0.298008
H84	H	1.340702	-0.799925	0.415807
H85	H	1.393548	-0.732039	0.362777
C86	C	1.338158	-0.396000	0.909421
H87	H	1.292163	-0.388488	0.967827
H88	H	1.340431	-0.352477	0.867540
H89	H	1.312845	-0.435993	0.867821
H90	H	1.469088	-0.919809	0.676057
H91	H	1.366755	-0.400505	1.102125
C92	C	0.932819	-0.457167	0.368851
H93	H	0.992019	-0.466494	0.324589
H94	H	0.890961	-0.500601	0.374121
H95	H	0.891609	-0.418405	0.339459
C96	C	0.929826	-0.261449	0.660541
H97	H	0.884415	-0.241310	0.608098
H98	H	0.891677	-0.267551	0.724645
H99	H	0.987664	-0.228894	0.671986
C100	C	1.338734	-0.928420	0.567671
H101	H	1.289853	-0.909239	0.617663
H102	H	1.318852	-0.913174	0.498601
H103	H	1.338638	-0.980844	0.571177
C104	C	1.475407	-0.492383	0.910475
H105	H	1.485638	-0.524210	0.969309
H106	H	1.418280	-0.510119	0.868767
H107	H	1.537957	-0.491236	0.868920
H108	H	1.559338	-0.792980	0.336216
H109	H	1.366835	-0.793220	0.573730
C110	C	1.584565	-0.220806	1.111514
H111	H	1.566959	-0.173575	1.083934
H112	H	1.583400	-0.219047	1.186584
H113	H	1.653273	-0.234369	1.088188
C114	C	0.931328	-0.220895	0.454861
H115	H	0.959281	-0.187020	0.404765
H116	H	0.856281	-0.220032	0.451753
H117	H	0.953900	-0.207266	0.523831
C118	C	1.576175	-0.218241	0.908361
H119	H	1.627569	-0.239863	0.863162
H120	H	1.536704	-0.182516	0.870059
H121	H	1.610569	-0.195055	0.966362
C122	C	1.676896	-0.454430	0.908182
H123	H	1.744595	-0.466756	0.935561
H124	H	1.626740	-0.490323	0.930281
H125	H	1.679821	-0.453441	0.833127
H126	H	1.667414	-0.435497	1.100834
C127	C	1.728766	-0.323513	0.910271
H128	H	1.696827	-0.287336	0.866229
H129	H	1.761134	-0.299979	0.969137
H130	H	1.780786	-0.349695	0.871143
C131	C	1.395525	-0.252145	1.114065
H132	H	1.366732	-0.288801	1.159456
H133	H	1.404230	-0.207344	1.152247
H134	H	1.348910	-0.244215	1.056246
H135	H	1.418943	-0.262727	0.920612
H136	H	1.124783	-0.374044	0.686401
H137	H	0.940251	-0.312246	0.346636
H138	H	0.941871	-0.478752	0.536461
C139	C	1.133217	-0.317132	0.316606
H140	H	1.074358	-0.324268	0.271011
H141	H	1.174928	-0.277225	0.291301
H142	H	1.174755	-0.360833	0.318191
H143	H	0.942539	-0.378842	0.683778
H144	H	1.123283	-0.478761	0.537743
