data_functionalizedCrystal
_audit_creation_method	'MofGen! by Chris Wilmer'
_symmetry_space_group_name_H-M	'P1'
_symmetry_Int_Tables_number	1
_symmetry_cell_setting	triclinic
loop_
_symmetry_equiv_pos_as_xyz
  x,y,z
_cell_length_a	10.967819
_cell_length_b	14.519709
_cell_length_c	10.065875
_cell_angle_alpha	98.804604
_cell_angle_beta	69.228723
_cell_angle_gamma	84.206774
loop_
_atom_site_label
_atom_site_type_symbol
_atom_site_fract_x
_atom_site_fract_y
_atom_site_fract_z
O1	O	1.739964	0.067471	-0.522723
O2	O	1.362428	0.090362	-0.433933
O3	O	1.561204	-0.055550	-0.480669
O4	O	1.541188	0.213383	-0.475987
O5	O	1.523300	-0.027618	-0.244769
O6	O	1.324525	0.118294	-0.198032
O7	O	1.702060	0.095403	-0.286823
Zn8	Zn	1.507274	0.111283	-0.204973
Zn9	Zn	1.557214	0.074482	-0.515782
O10	O	1.503285	0.241315	-0.240086
C11	C	1.295159	0.104772	-0.304619
C12	C	1.151189	0.106084	-0.270759
C13	C	0.957848	0.093562	-0.342898
C14	C	1.106648	0.092200	-0.377885
C15	C	1.541319	-0.075922	-0.362499
C16	C	1.538523	-0.178239	-0.361841
C17	C	1.528236	-0.552904	-0.359457
C18	C	1.531093	-0.448660	-0.360119
C19	C	1.533379	-0.365575	-0.360648
C20	C	1.536237	-0.261325	-0.361312
C21	C	1.769330	0.080993	-0.416140
C22	C	1.913301	0.079680	-0.450009
C23	C	1.523170	0.261687	-0.358259
C24	C	1.525967	0.364003	-0.358927
N25	N	1.473201	0.136398	0.007144
N26	N	1.591297	0.049359	-0.727902
C27	C	1.545351	0.083214	0.057959
C28	C	1.519137	0.102551	0.221289
H29	H	0.985323	0.066792	-0.567613
H30	H	1.672474	-0.010496	0.194691
O31	O	1.642062	0.011712	-0.034320
C32	C	1.614693	-0.074804	0.006931
H33	H	1.504307	-0.068035	0.072305
H34	H	1.672716	-0.093436	0.076079
C35	C	1.791107	-0.161597	-0.210020
C36	C	1.655527	-0.153286	-0.129736
H37	H	1.816300	-0.210010	-0.294321
H38	H	1.809550	-0.103310	-0.237810
H39	H	1.839443	-0.177120	-0.152381
H40	H	1.607193	-0.137752	-0.187369
H41	H	1.637076	-0.211573	-0.101959
O42	O	1.422207	0.173847	0.313797
C43	C	1.328142	0.136458	0.418568
H44	H	1.375833	0.065720	0.428611
H45	H	1.241350	0.125707	0.384015
C46	C	1.219635	0.292574	0.553790
C47	C	1.278213	0.205697	0.566133
H48	H	1.188830	0.335285	0.644814
H49	H	1.283004	0.317765	0.483202
H50	H	1.147316	0.283602	0.524990
H51	H	1.350540	0.214668	0.594914
H52	H	1.214854	0.180509	0.636730
O53	O	1.192449	0.076686	-0.518261
C54	C	1.186588	-0.012426	-0.592184
H55	H	1.087309	-0.033934	-0.533788
H56	H	1.269970	-0.067111	-0.594531
C57	C	1.323597	0.019573	-0.820368
C58	C	1.201656	-0.006840	-0.748652
H59	H	1.332897	0.023016	-0.916887
H60	H	1.327551	0.079608	-0.770566
H61	H	1.393069	-0.026002	-0.822310
H62	H	1.132187	0.038741	-0.746695
H63	H	1.197691	-0.066867	-0.798458
H64	H	1.079171	0.118983	-0.153146
H65	H	1.392020	0.196243	0.084558
H66	H	0.885824	0.106459	-0.225294
