data_functionalizedCrystal
_audit_creation_method	'MofGen! by Chris Wilmer'
_symmetry_space_group_name_H-M	'P1'
_symmetry_Int_Tables_number	1
_symmetry_cell_setting	triclinic
loop_
_symmetry_equiv_pos_as_xyz
  x,y,z
_cell_length_a	10.723024
_cell_length_b	10.723024
_cell_length_c	16.776229
_cell_angle_alpha	89.993181
_cell_angle_beta	89.994545
_cell_angle_gamma	84.467869
loop_
_atom_site_label
_atom_site_type_symbol
_atom_site_fract_x
_atom_site_fract_y
_atom_site_fract_z
O1	O	0.175030	1.657193	-0.066281
O2	O	0.191784	1.294041	-0.066283
O3	O	0.001831	1.483993	-0.066279
O4	O	0.364983	1.467240	-0.066285
O5	O	0.001819	1.483968	0.066297
O6	O	0.191772	1.294015	0.066293
O7	O	0.175018	1.657167	0.066296
Zn8	Zn	0.183393	1.475587	0.087344
Zn9	Zn	0.183409	1.475621	-0.087331
O10	O	0.364971	1.467215	0.066291
C11	C	0.190558	1.247528	0.000005
C12	C	0.186911	1.108974	0.000004
C13	C	-0.044675	1.482762	0.000008
C14	C	-0.183229	1.479114	0.000005
C15	C	0.293198	1.033991	0.000001
C16	C	0.289431	0.890788	0.000000
C17	C	-0.258212	1.585401	0.000005
C18	C	-0.401415	1.581634	0.000002
C19	C	0.411477	1.468447	0.000002
C20	C	0.550031	1.472094	-0.000000
C21	C	0.176243	1.703680	0.000006
C22	C	0.179891	1.842234	0.000002
N23	N	0.183381	1.475573	0.206555
N24	N	0.183410	1.475645	-0.206543
C25	C	0.099305	1.559711	0.248274
C26	C	0.099304	1.559718	0.331726
C27	C	0.183386	1.475592	0.373458
C28	C	0.267467	1.391446	0.331733
C29	C	0.267460	1.391434	0.248282
C30	C	0.267491	1.391491	0.668280
C31	C	0.267494	1.391512	0.751737
C32	C	0.099335	1.559775	0.751724
C33	C	0.099329	1.559763	0.668273
C34	C	0.183404	1.475613	0.626556
C35	C	0.183403	1.475605	0.536068
C36	C	0.183395	1.475605	0.463945
H37	H	0.386984	1.075814	0.000004
H38	H	0.030843	1.628228	0.365693
Cl39	Cl	0.042105	1.044415	0.000012
H40	H	0.030866	1.628270	0.634298
Cl41	Cl	0.429921	0.791315	-0.000009
Cl42	Cl	-0.193653	1.730207	0.000001
H43	H	-0.465848	1.672624	0.000005
H44	H	-0.385544	1.381099	0.000006
H45	H	-0.225051	1.385328	-0.000000
Cl46	Cl	-0.006399	1.665481	0.195820
H47	H	0.088896	0.906659	-0.000001
Cl48	Cl	0.373166	1.285680	0.384194
Cl49	Cl	0.373187	1.285711	0.615841
H50	H	0.030873	1.628291	0.785699
H51	H	0.335966	1.323003	0.785713
H52	H	0.335922	1.322919	0.214316
