data_functionalizedCrystal
_audit_creation_method	'MofGen! by Chris Wilmer'
_symmetry_space_group_name_H-M	'P1'
_symmetry_Int_Tables_number	1
_symmetry_cell_setting	triclinic
loop_
_symmetry_equiv_pos_as_xyz
  x,y,z
_cell_length_a	10.654559
_cell_length_b	10.654550
_cell_length_c	9.730223
_cell_angle_alpha	89.998521
_cell_angle_beta	89.996501
_cell_angle_gamma	84.486806
loop_
_atom_site_label
_atom_site_type_symbol
_atom_site_fract_x
_atom_site_fract_y
_atom_site_fract_z
O1	O	1.667832	0.176454	-0.114288
O2	O	1.302355	0.193248	-0.114288
O3	O	1.493497	0.002112	-0.114289
O4	O	1.476691	0.367589	-0.114287
O5	O	1.493484	0.002106	0.114291
O6	O	1.302343	0.193242	0.114292
O7	O	1.667820	0.176448	0.114292
Zn8	Zn	1.485079	0.184844	0.150584
Zn9	Zn	1.485096	0.184851	-0.150580
O10	O	1.476678	0.367584	0.114293
C11	C	1.255551	0.192009	0.000002
C12	C	1.116109	0.188313	0.000002
C13	C	1.064569	0.072301	0.000004
C14	C	0.933547	0.068835	-0.000006
C15	C	0.905614	0.297404	-0.000016
C16	C	1.036634	0.300869	-0.000016
C17	C	1.144043	-0.040255	0.000022
C18	C	1.092504	-0.156277	0.000026
C19	C	0.961482	-0.159742	0.000016
C20	C	0.881999	-0.047186	0.000001
C21	C	1.492257	-0.044689	-0.000002
C22	C	1.488565	-0.184132	-0.000012
C23	C	1.483355	-0.380670	-0.124600
C24	C	1.486836	-0.249650	-0.124608
C25	C	1.486824	-0.249644	0.124602
C26	C	1.483351	-0.380663	0.124609
C27	C	1.714624	0.177686	-0.000001
C28	C	1.854067	0.181383	-0.000009
C29	C	1.477919	0.414385	0.000003
C30	C	1.481611	0.553828	0.000004
N31	N	1.485077	0.184839	0.356121
N32	N	1.485108	0.184847	-0.356116
C33	C	1.569744	0.100240	0.428046
C34	C	1.569757	0.100240	0.571929
C35	C	1.400432	0.269450	0.571948
C36	C	1.400414	0.269442	0.428068
H37	H	0.919523	-0.254212	0.000006
O38	O	1.169656	-0.265641	-0.000211
C39	C	1.146128	-0.336024	-0.118579
H40	H	1.101947	-0.270107	-0.201325
H41	H	1.078783	-0.409294	-0.091819
C42	C	1.325344	-0.483933	-0.070621
C43	C	1.271090	-0.402971	-0.172255
H44	H	1.402425	-0.525234	-0.103729
H45	H	1.341194	-0.436518	0.009129
H46	H	1.269211	-0.544980	-0.048330
H47	H	1.327217	-0.341915	-0.194532
H48	H	1.255253	-0.450377	-0.252011
O49	O	1.488294	-0.185888	-0.245582
C50	C	1.381674	-0.096887	-0.253012
H51	H	1.346058	-0.072802	-0.144810
H52	H	1.304284	-0.138139	-0.314409
C53	C	1.461609	-0.006057	-0.457249
C54	C	1.417870	0.023532	-0.324352
H55	H	1.483932	0.068221	-0.501260
H56	H	1.533438	-0.066022	-0.452247
H57	H	1.397109	-0.040436	-0.508396
H58	H	1.482374	0.057896	-0.273203
H59	H	1.346052	0.083506	-0.329346
H60	H	1.331463	0.338334	0.369502
O61	O	0.828229	0.406615	0.000041
C62	C	0.701536	0.378680	0.000009
H63	H	0.695645	0.279989	0.043284
H64	H	0.663697	0.383115	-0.109652
C65	C	0.629449	0.596702	0.036500
C66	C	0.622213	0.475492	0.089662
H67	H	0.580516	0.656423	0.091796
H68	H	0.714804	0.615525	0.036516
H69	H	0.597919	0.600380	-0.054883
H70	H	0.653757	0.471812	0.181036
H71	H	0.536860	0.456671	0.089663
H72	H	0.775313	-0.050018	-0.000019
O73	O	1.481709	-0.444118	-0.245759
C74	C	1.483951	-0.358197	-0.355738
H75	H	1.526139	-0.269664	-0.319222
H76	H	1.383738	-0.331947	-0.394024
C77	C	1.512966	-0.528130	-0.518330
C78	C	1.564792	-0.419397	-0.473484
H79	H	1.562827	-0.565881	-0.590965
H80	H	1.511450	-0.586017	-0.444237
H81	H	1.429456	-0.506240	-0.550226
H82	H	1.648293	-0.441290	-0.441573
H83	H	1.566323	-0.361514	-0.547575
H84	H	1.488239	-0.196290	0.226051
H85	H	1.638698	0.031351	0.630487
H86	H	1.078598	0.395336	-0.000006
H87	H	1.481935	-0.433996	0.226083
H88	H	1.638680	0.031349	0.369470
H89	H	1.331503	0.338334	0.630542
H90	H	1.250729	-0.037446	0.000034
