data_functionalizedCrystal
_audit_creation_method	'MofGen! by Chris Wilmer'
_symmetry_space_group_name_H-M	'P1'
_symmetry_Int_Tables_number	1
_symmetry_cell_setting	triclinic
loop_
_symmetry_equiv_pos_as_xyz
  x,y,z
_cell_length_a	12.759401
_cell_length_b	19.120786
_cell_length_c	12.759393
_cell_angle_alpha	87.524000
_cell_angle_beta	89.979062
_cell_angle_gamma	92.466720
loop_
_atom_site_label
_atom_site_type_symbol
_atom_site_fract_x
_atom_site_fract_y
_atom_site_fract_z
Zn1	Zn	1.588347	-0.279569	-0.576137
Zn2	Zn	1.580708	-0.397044	-0.392943
Zn3	Zn	1.412643	-0.279607	-0.400470
Zn4	Zn	1.405111	-0.396995	-0.568583
O5	O	1.496702	-0.338304	-0.484533
O6	O	1.734354	-0.295157	-0.551847
O7	O	1.558370	-0.381502	-0.246918
O8	O	1.442300	-0.181311	-0.430084
O9	O	1.728742	-0.381465	-0.417255
O10	O	1.571389	-0.181283	-0.559146
O11	O	1.434893	-0.295221	-0.252448
O12	O	1.264623	-0.295174	-0.422759
O13	O	1.429462	-0.381382	-0.716609
O14	O	1.259089	-0.381418	-0.546271
O15	O	1.564085	-0.295110	-0.722158
O16	O	1.551066	-0.495328	-0.409930
O17	O	1.422055	-0.495292	-0.538972
C18	C	1.223736	-0.338295	-0.484513
C19	C	1.106958	-0.338308	-0.484528
C20	C	1.049238	-0.383284	-0.548731
C21	C	0.939513	-0.383287	-0.548751
C22	C	0.945240	-0.293336	-0.420358
C23	C	1.054962	-0.293330	-0.420343
C24	C	0.788002	-0.408490	-0.671000
C25	C	0.730277	-0.453477	-0.735192
C26	C	0.761481	-0.522024	-0.746755
C27	C	0.850408	-0.545598	-0.694110
C28	C	0.908126	-0.500615	-0.629909
C29	C	0.876925	-0.432058	-0.618366
C30	C	1.206475	-0.268134	-0.298093
C31	C	1.264196	-0.223154	-0.233886
C32	C	1.232994	-0.154606	-0.222312
C33	C	1.144064	-0.131034	-0.274940
C34	C	1.086343	-0.176014	-0.339146
C35	C	1.117553	-0.244562	-0.350722
C36	C	1.484943	-0.520796	-0.472838
C37	C	1.480008	-0.598867	-0.467870
C38	C	1.544849	-0.635470	-0.532786
C39	C	1.540208	-0.708826	-0.528119
C40	C	1.470731	-0.745577	-0.458531
C41	C	1.405883	-0.708969	-0.393612
C42	C	1.410519	-0.635615	-0.398284
C43	C	1.453367	-0.967065	-0.441064
C44	C	1.448738	-1.040425	-0.436394
C45	C	1.583063	-1.040276	-0.570903
C46	C	1.587698	-0.966920	-0.575565
C47	C	1.522846	-0.930318	-0.510650
C48	C	1.465988	-0.820559	-0.453757
C49	C	1.527584	-0.855338	-0.515430
C50	C	1.770735	-0.338313	-0.484554
C51	C	1.887511	-0.338317	-0.484563
C52	C	1.496785	-0.338236	-0.758571
C53	C	1.496821	-0.338207	-0.875349
C54	C	1.508536	-0.155099	-0.496297
C55	C	1.513579	-0.077028	-0.501310
C56	C	1.566924	-0.293278	-0.933103
C57	C	1.566944	-0.293248	-1.042829
C58	C	1.426753	-0.383082	-1.037038
C59	C	1.426729	-0.383108	-0.927314
C60	C	1.609868	-0.210377	-1.198109
C61	C	1.679987	-0.165454	-1.255866
C62	C	1.783190	-0.154683	-1.220963
C63	C	1.816294	-0.188846	-1.128305
C64	C	1.746180	-0.233774	-1.070553
C65	C	1.642963	-0.244531	-1.105455
C66	C	1.383816	-0.465980	-0.772033
C67	C	1.313706	-0.510912	-0.714278
C68	C	1.210501	-0.521690	-0.749178
C69	C	1.177400	-0.487540	-0.841840
C70	C	1.247510	-0.442608	-0.899594
C71	C	1.350714	-0.431829	-0.864686
C72	C	1.496683	-0.338320	-0.211565
C73	C	1.496864	-0.338151	-0.094799
H74	H	1.279995	-0.117986	-0.170020
H75	H	1.336607	-0.242352	-0.191033
H76	H	0.875800	-0.601419	-0.703520
Cl77	Cl	1.104827	-0.044859	-0.260383
Cl78	Cl	1.621713	-0.754838	-0.609747
Cl79	Cl	1.946049	-0.175313	-1.084443
Cl80	Cl	1.245608	-0.354349	-0.312504
H81	H	1.653024	-0.137639	-1.331309
Cl82	Cl	1.614919	-0.809135	-0.602915
Cl83	Cl	0.748779	-0.322309	-0.656485
H84	H	1.601430	-0.605552	-0.589447
Cl85	Cl	1.675043	-0.920724	-0.663053
H86	H	1.635861	-1.070086	-0.623755
Cl87	Cl	1.655035	-0.236829	-0.867781
Cl88	Cl	1.361392	-1.086626	-0.348901
H89	H	1.525830	-0.219137	-1.226530
H90	H	1.400564	-0.937269	-0.388206
H91	H	1.773134	-0.261591	-0.995115
H92	H	1.349308	-0.738898	-0.336956
H93	H	0.902891	-0.256717	-0.368099
H94	H	1.840282	-0.118106	-1.267997
H95	H	1.357717	-0.605813	-0.345424
H96	H	1.220551	-0.414802	-0.975044
Cl97	Cl	1.378641	-0.866767	-0.366283
Cl98	Cl	1.338649	-0.439529	-1.102372
H99	H	1.093363	-0.496318	-0.870259
H100	H	1.153421	-0.558284	-0.702149
Cl101	Cl	0.974540	-0.146382	-0.405302
Cl102	Cl	1.355324	-0.553852	-0.597795
H103	H	1.467853	-0.457203	-0.743603
H104	H	0.980528	-0.519809	-0.587045
Cl105	Cl	1.114600	-0.439825	-0.629424
H106	H	0.714474	-0.558652	-0.799024
H107	H	0.657874	-0.434276	-0.778058
