data_functionalizedCrystal
_audit_creation_method	'MofGen! by Chris Wilmer'
_symmetry_space_group_name_H-M	'P1'
_symmetry_Int_Tables_number	1
_symmetry_cell_setting	triclinic
loop_
_symmetry_equiv_pos_as_xyz
  x,y,z
_cell_length_a	13.897449
_cell_length_b	12.645330
_cell_length_c	13.897441
_cell_angle_alpha	89.973598
_cell_angle_beta	90.020733
_cell_angle_gamma	89.972534
loop_
_atom_site_label
_atom_site_type_symbol
_atom_site_fract_x
_atom_site_fract_y
_atom_site_fract_z
Zn1	Zn	1.474646	0.421969	0.545409
Zn2	Zn	1.474516	0.599265	0.384122
Zn3	Zn	1.313335	0.422020	0.384128
Zn4	Zn	1.313293	0.599195	0.545375
O5	O	1.393947	0.510612	0.464759
O6	O	1.609610	0.445496	0.524026
O7	O	1.453098	0.575803	0.249141
O8	O	1.334805	0.273666	0.405538
O9	O	1.609515	0.575754	0.405530
O10	O	1.453319	0.273629	0.524031
O11	O	1.334679	0.445582	0.249145
O12	O	1.178348	0.445515	0.405505
O13	O	1.334733	0.575636	0.680361
O14	O	1.178317	0.575684	0.523973
O15	O	1.453279	0.445429	0.680386
O16	O	1.453057	0.747603	0.405497
O17	O	1.334607	0.747552	0.523968
C18	C	1.143333	0.510598	0.464737
C19	C	1.036119	0.510618	0.464750
C20	C	0.839824	0.510621	0.464775
C21	C	0.949056	0.510616	0.464759
C22	C	1.393840	0.786042	0.464749
C23	C	1.393882	0.903872	0.464777
C24	C	1.319650	1.071448	0.539540
C25	C	1.319287	0.948889	0.539298
C26	C	1.366357	0.948472	0.363122
C27	C	1.365887	1.071070	0.363578
C28	C	1.496042	1.070958	0.490850
C29	C	1.495433	0.948351	0.493071
C30	C	1.645540	0.510627	0.464781
C31	C	1.752754	0.510634	0.464791
C32	C	1.394016	0.510519	0.716352
C33	C	1.394045	0.510479	0.823566
C34	C	1.394048	1.234107	0.464793
C35	C	1.394004	1.116277	0.464817
C36	C	1.393935	0.510629	0.214144
C37	C	1.394092	0.510370	0.106931
C38	C	1.394071	0.510407	1.019861
C39	C	1.394054	0.510450	0.910628
H40	H	1.336508	0.918731	0.614674
H41	H	1.291297	1.099764	0.341524
C42	C	1.435849	1.111147	0.285783
C43	C	1.491964	1.031593	0.223441
C44	C	1.561912	1.071664	0.145638
C45	C	1.575745	1.191289	0.130177
C46	C	1.519628	1.270850	0.192522
C47	C	1.449680	1.230779	0.270325
H48	H	1.481726	0.943032	0.234884
H49	H	1.603454	1.012766	0.099486
H50	H	1.627525	1.220952	0.072583
H51	H	1.529867	1.359411	0.181079
H52	H	1.408139	1.289677	0.316476
H53	H	1.553756	0.917701	0.442609
C54	C	1.217107	0.909391	0.515990
C55	C	1.169220	0.939679	0.419904
C56	C	1.067035	0.900184	0.396592
C57	C	1.012737	0.830400	0.469366
C58	C	1.060623	0.800108	0.565459
C59	C	1.162808	0.839603	0.588771
H60	H	1.209416	0.991341	0.366026
H61	H	1.031587	0.922609	0.325457
H62	H	0.937093	0.801163	0.452109
H63	H	1.020428	0.748446	0.619336
H64	H	1.198256	0.817178	0.659905
H65	H	1.336705	1.100856	0.615165
C66	C	1.218092	1.113194	0.516547
C67	C	1.202449	1.187738	0.430291
C68	C	1.100893	1.229489	0.407297
C69	C	1.014981	1.196695	0.470560
C70	C	1.030621	1.122146	0.556821
C71	C	1.132177	1.080395	0.579815
H72	H	1.266049	1.212018	0.383455
H73	H	1.089315	1.284675	0.343440
H74	H	0.939803	1.227601	0.453539
H75	H	0.967021	1.097866	0.603657
H76	H	1.143755	1.025209	0.643672
C77	C	1.437199	0.909081	0.285845
C78	C	1.424173	0.942984	0.180198
C79	C	1.495016	0.903590	0.102922
C80	C	1.578886	0.830294	0.131292
C81	C	1.591916	0.796387	0.236944
C82	C	1.521073	0.835780	0.314220
H83	H	1.362084	0.997246	0.159192
H84	H	1.485369	0.928691	0.024711
H85	H	1.631328	0.801132	0.074088
H86	H	1.654005	0.742125	0.257950
H87	H	1.530719	0.810680	0.392431
C88	C	1.266647	0.907138	0.332786
C89	C	1.210117	0.832977	0.400067
C90	C	1.110404	0.791646	0.369737
C91	C	1.067222	0.824477	0.272125
C92	C	1.123752	0.898642	0.204838
C93	C	1.223465	0.939973	0.235168
H94	H	1.242083	0.808670	0.472330
H95	H	1.068557	0.736743	0.419548
H96	H	0.993409	0.793881	0.249673
H97	H	1.091786	0.922949	0.132574
H98	H	1.265312	0.994875	0.185357
H99	H	1.521141	1.101798	0.563718
C100	C	1.523490	0.908955	0.594131
C101	C	1.454545	0.836737	0.650728
C102	C	1.482600	0.797332	0.751787
C103	C	1.579600	0.830144	0.796249
C104	C	1.648551	0.902365	0.739653
C105	C	1.620496	0.941771	0.638594
H106	H	1.382734	0.812444	0.617814
H107	H	1.431558	0.743868	0.793683
H108	H	1.600368	0.800973	0.871059
H109	H	1.720361	0.926658	0.772567
H110	H	1.671538	0.995234	0.596698
H111	H	1.551438	1.099947	0.436426
