data_functionalizedCrystal
_audit_creation_method	'MofGen! by Chris Wilmer'
_symmetry_space_group_name_H-M	'P1'
_symmetry_Int_Tables_number	1
_symmetry_cell_setting	triclinic
loop_
_symmetry_equiv_pos_as_xyz
  x,y,z
_cell_length_a	14.044220
_cell_length_b	17.699083
_cell_length_c	16.776229
_cell_angle_alpha	90.007545
_cell_angle_beta	90.002022
_cell_angle_gamma	88.235946
loop_
_atom_site_label
_atom_site_type_symbol
_atom_site_fract_x
_atom_site_fract_y
_atom_site_fract_z
O1	O	-1.257290	-0.182444	-0.066207
O2	O	-0.757290	0.317556	0.433793
O3	O	-0.981336	-0.175860	-0.066227
O4	O	-0.481336	0.324140	0.433773
O5	O	-1.127109	-0.069500	-0.066209
O6	O	-0.627109	0.430500	0.433791
O7	O	-1.111516	-0.288803	-0.066224
O8	O	-0.611516	0.211197	0.433776
O9	O	-1.127090	-0.069492	0.066367
O10	O	-0.627090	0.430508	0.566367
O11	O	-0.981317	-0.175852	0.066350
O12	O	-0.481317	0.324148	0.566350
O13	O	-1.257271	-0.182435	0.066370
O14	O	-0.757271	0.317565	0.566370
Zn15	Zn	-1.119290	-0.179142	0.087409
Zn16	Zn	-0.619290	0.320858	0.587409
Zn17	Zn	-1.119316	-0.179153	-0.087266
Zn18	Zn	-0.619316	0.320847	0.412734
O19	O	-1.111497	-0.288795	0.066352
O20	O	-0.611497	0.211205	0.566352
C21	C	-1.126541	-0.041261	0.000079
C22	C	-0.626541	0.458739	0.500079
C23	C	-1.124865	0.042873	0.000079
C24	C	-0.624865	0.542873	0.500079
C25	C	-0.946018	-0.172974	0.000059
C26	C	-0.446018	0.327026	0.500059
C27	C	-0.840812	-0.164378	0.000052
C28	C	-0.340812	0.335622	0.500052
C29	C	-1.292588	-0.185321	0.000082
C30	C	-0.792588	0.314679	0.500082
C31	C	-1.397794	-0.193917	0.000085
C32	C	-0.897794	0.306083	0.500085
C33	C	-0.648187	-0.148663	0.000069
C34	C	-0.148187	0.351337	0.500069
C35	C	-0.590414	-0.209629	0.000068
C36	C	-0.090414	0.290371	0.500068
C37	C	-0.483230	-0.200885	0.000077
C38	C	0.016770	0.299115	0.500077
C39	C	-0.755381	-0.157406	0.000059
C40	C	-0.255381	0.342594	0.500059
C41	C	-1.112066	-0.317035	0.000062
C42	C	-0.612066	0.182965	0.500062
C43	C	-1.113742	-0.401168	0.000057
C44	C	-0.613742	0.098832	0.500057
N45	N	-1.119280	-0.179134	0.206620
N46	N	-0.619280	0.320866	0.706620
C47	C	-1.210431	0.085591	0.000087
C48	C	-0.710431	0.585591	0.500087
C49	C	-1.208850	0.164644	0.000080
C50	C	-0.708850	0.664644	0.500080
C51	C	-1.121702	0.200976	0.000071
C52	C	-0.621702	0.700976	0.500071
C53	C	-1.036130	0.158252	0.000061
C54	C	-0.536130	0.658252	0.500061
C55	C	-1.037712	0.079201	0.000063
C56	C	-0.537712	0.579201	0.500063
C57	C	-1.029750	0.477055	0.000054
C58	C	-0.529750	0.977055	0.500054
C59	C	-1.028175	0.556112	0.000055
C60	C	-0.528175	1.056112	0.500055
C61	C	-1.200888	0.562498	0.000071
C62	C	-0.700888	1.062498	0.500071
C63	C	-1.202470	0.483447	0.000073
C64	C	-0.702470	0.983447	0.500073
C65	C	-1.116898	0.440730	0.000059
C66	C	-0.616898	0.940730	0.500059
C67	C	-1.118613	0.355012	0.000065
C68	C	-0.618613	0.855012	0.500065
C69	C	-1.119987	0.286692	0.000070
C70	C	-0.619987	0.786692	0.500070
N71	N	-1.119334	-0.179155	-0.206477
N72	N	-0.619334	0.320845	0.293523
C73	C	-1.183848	-0.132061	0.248345
C74	C	-0.683848	0.367939	0.748345
C75	C	-1.183853	-0.132061	0.331798
C76	C	-0.683853	0.367939	0.831798
C77	C	-1.119294	-0.179138	0.373523
C78	C	-0.619294	0.320862	0.873523
C79	C	-1.054719	-0.226214	0.331793
C80	C	-0.554719	0.273786	0.831793
C81	C	-1.054710	-0.226210	0.248342
C82	C	-0.554710	0.273790	0.748342
C83	C	-1.054754	-0.226231	0.668340
C84	C	-0.554754	0.273769	1.168340
C85	C	-1.054770	-0.226233	0.751796
C86	C	-0.554770	0.273767	1.251796
C87	C	-1.183897	-0.132082	0.751795
C88	C	-0.683897	0.367918	1.251795
C89	C	-1.183888	-0.132078	0.668345
C90	C	-0.683888	0.367922	1.168345
C91	C	-1.119310	-0.179150	0.626621
C92	C	-0.619310	0.320850	1.126621
C93	C	-1.119304	-0.179149	0.536133
C94	C	-0.619304	0.320851	1.036133
C95	C	-1.119304	-0.179144	0.464010
C96	C	-0.619304	0.320856	0.964010
H97	H	-0.617153	-0.089906	0.000077
H98	H	-0.117153	0.410094	0.500077
O99	O	-0.937459	0.430985	0.000060
O100	O	-0.437459	0.930985	0.500060
H101	H	-0.876598	0.469533	0.000067
H102	H	-0.376598	0.969533	0.500067
H103	H	-0.621449	-0.268391	0.000060
H104	H	-0.121449	0.231609	0.500060
O105	O	-0.985114	-0.277011	0.623347
O106	O	-0.485114	0.222989	1.123347
H107	H	-0.939115	-0.242026	0.585344
H108	H	-0.439115	0.257974	1.085344
O109	O	-1.304431	0.046413	0.000091
O110	O	-0.804431	0.546413	0.500091
H111	H	-1.309286	0.010562	0.054131
H112	H	-0.809286	0.510562	0.554131
O113	O	-0.934177	0.595304	0.000044
O114	O	-0.434177	1.095304	0.500044
H115	H	-0.893084	0.578605	-0.054002
H116	H	-0.393084	1.078605	0.445998
H117	H	-1.270565	0.597288	0.000079
H118	H	-0.770565	1.097288	0.500079
O119	O	-1.301138	0.210722	0.000101
O120	O	-0.801138	0.710722	0.500101
H121	H	-1.362002	0.172177	0.000122
H122	H	-0.862002	0.672177	0.500122
O123	O	-1.253549	-0.081310	0.796802
O124	O	-0.753549	0.418690	1.296802
H125	H	-1.298448	-0.048583	0.753766
H126	H	-0.798448	0.451417	1.253766
O127	O	-0.985071	-0.276976	0.203325
O128	O	-0.485071	0.223024	0.703325
H129	H	-0.997005	-0.336795	0.219314
H130	H	-0.497005	0.163205	0.719314
O131	O	-1.296463	0.444258	0.000071
O132	O	-0.796463	0.944258	0.500071
H133	H	-1.355699	0.487244	0.000064
H134	H	-0.855699	0.987244	0.500064
H135	H	-1.002194	-0.264571	0.785768
H136	H	-0.502194	0.235429	1.285768
H137	H	-0.965173	0.187840	0.000049
H138	H	-0.465173	0.687840	0.500049
O139	O	-0.985088	-0.276996	0.376791
O140	O	-0.485088	0.223004	0.876791
H141	H	-0.995949	-0.269099	0.441830
H142	H	-0.495949	0.230901	0.941830
O143	O	-0.945424	0.033120	0.000063
O144	O	-0.445424	0.533120	0.500063
H145	H	-0.884558	0.071663	0.000066
H146	H	-0.384558	0.571663	0.500066
O147	O	-1.253476	-0.081281	0.203342
O148	O	-0.753476	0.418719	0.703342
H149	H	-1.298368	-0.048541	0.246379
H150	H	-0.798368	0.451459	0.746379
O151	O	-1.253511	-0.081304	0.376804
O152	O	-0.753511	0.418696	0.876804
H153	H	-1.298415	-0.048579	0.333770
H154	H	-0.798415	0.451421	0.833770
H155	H	-1.236461	-0.093745	0.634374
H156	H	-0.736461	0.406255	1.134374
