data_functionalizedCrystal
_audit_creation_method	'MofGen! by Chris Wilmer'
_symmetry_space_group_name_H-M	'P1'
_symmetry_Int_Tables_number	1
_symmetry_cell_setting	triclinic
loop_
_symmetry_equiv_pos_as_xyz
  x,y,z
_cell_length_a	19.288864
_cell_length_b	14.044220
_cell_length_c	18.366186
_cell_angle_alpha	89.993222
_cell_angle_beta	89.977106
_cell_angle_gamma	88.162561
loop_
_atom_site_label
_atom_site_type_symbol
_atom_site_fract_x
_atom_site_fract_y
_atom_site_fract_z
O1	O	0.928948	0.118214	-0.060787
O2	O	1.262282	0.451548	0.272546
O3	O	1.595615	0.784881	0.605880
O4	O	0.727712	0.134161	-0.060738
O5	O	1.061046	0.467495	0.272596
O6	O	1.394379	0.800828	0.605929
O7	O	0.825310	-0.011784	-0.060755
O8	O	1.158643	0.321549	0.272579
O9	O	1.491976	0.654883	0.605912
O10	O	0.831351	0.264160	-0.060770
O11	O	1.164684	0.597493	0.272563
O12	O	1.498017	0.930826	0.605896
O13	O	0.825291	-0.011791	0.060345
O14	O	1.158624	0.321542	0.393678
O15	O	1.491958	0.654876	0.727012
O16	O	0.727694	0.134154	0.060362
O17	O	1.061027	0.467488	0.393695
O18	O	1.394360	0.800821	0.727028
O19	O	0.928930	0.118207	0.060312
O20	O	1.262263	0.451541	0.393646
O21	O	1.595596	0.784874	0.726979
Zn22	Zn	0.828309	0.126180	0.079564
Zn23	Zn	1.161642	0.459513	0.412897
Zn24	Zn	1.494975	0.792846	0.746231
Zn25	Zn	0.828333	0.126189	-0.079990
Zn26	Zn	1.161667	0.459522	0.253344
Zn27	Zn	1.495000	0.792856	0.586677
O28	O	0.831332	0.264152	0.060329
O29	O	1.164666	0.597486	0.393662
O30	O	1.497999	0.930819	0.726996
C31	C	0.701794	0.133645	-0.000182
C32	C	1.035127	0.466978	0.333152
C33	C	1.368460	0.800311	0.666485
C34	C	0.624591	0.132104	-0.000163
C35	C	0.957924	0.465438	0.333171
C36	C	1.291258	0.798771	0.666504
C37	C	0.822656	-0.047091	-0.000204
C38	C	1.155989	0.286243	0.333129
C39	C	1.489323	0.619576	0.666463
C40	C	0.814768	-0.152283	-0.000201
C41	C	1.148102	0.181051	0.333132
C42	C	1.481435	0.514384	0.666466
C43	C	0.585397	0.217738	-0.000179
C44	C	0.918730	0.551072	0.333154
C45	C	1.252063	0.884405	0.666488
C46	C	0.512857	0.216291	-0.000187
C47	C	0.846190	0.549625	0.333146
C48	C	1.179523	0.882958	0.666480
C49	C	0.479514	0.129205	-0.000193
C50	C	0.812847	0.462539	0.333140
C51	C	1.146180	0.795872	0.666474
C52	C	0.518717	0.043560	-0.000173
C53	C	0.852050	0.376893	0.333161
C54	C	1.185384	0.710227	0.666494
C55	C	0.591256	0.045010	-0.000157
C56	C	0.924589	0.378343	0.333176
C57	C	1.257922	0.711676	0.666509
C58	C	0.366860	0.060749	-0.042640
C59	C	0.700193	0.394082	0.290693
C60	C	1.033526	0.727415	0.624027
C61	C	0.294322	0.059303	-0.042660
C62	C	0.627656	0.392636	0.290673
C63	C	0.960989	0.725969	0.624007
C64	C	0.255781	0.124731	-0.000237
C65	C	0.589114	0.458064	0.333096
C66	C	0.922447	0.791398	0.666430
C67	C	0.289785	0.191621	0.042196
C68	C	0.623118	0.524955	0.375530
C69	C	0.956452	0.858288	0.708863
C70	C	0.362323	0.193071	0.042212
C71	C	0.695657	0.526404	0.375545
C72	C	1.028990	0.859737	0.708878
C73	C	0.400858	0.127624	-0.000209
C74	C	0.734192	0.460957	0.333124
C75	C	1.067525	0.794291	0.666457
C76	C	0.137930	0.208802	-0.000261
C77	C	0.471263	0.542135	0.333072
C78	C	0.804597	0.875468	0.666406
C79	C	0.065389	0.207351	-0.000264
C80	C	0.398722	0.540684	0.333069
C81	C	0.732056	0.874018	0.666402
C82	C	0.071251	0.034617	-0.000257
C83	C	0.404584	0.367951	0.333076
C84	C	0.737917	0.701284	0.666409
C85	C	0.143790	0.036071	-0.000247
C86	C	0.477124	0.369404	0.333087
C87	C	0.810457	0.702737	0.666420
C88	C	0.177126	0.123165	-0.000252
C89	C	0.510459	0.456499	0.333082
C90	C	0.843792	0.789832	0.666415
C91	C	0.800348	-0.344882	-0.000208
C92	C	1.133681	-0.011549	0.333125
C93	C	1.467014	0.321784	0.666459
C94	C	0.856291	-0.402755	-0.000224
C95	C	1.189624	-0.069421	0.333109
C96	C	1.522958	0.263912	0.666443
C97	C	0.848267	-0.509924	-0.000228
C98	C	1.181601	-0.176590	0.333106
C99	C	1.514934	0.156743	0.666439
C100	C	0.808370	-0.237703	-0.000204
C101	C	1.141704	0.095630	0.333129
C102	C	1.475037	0.428963	0.666463
C103	C	0.954848	0.118724	-0.000245
C104	C	1.288182	0.452057	0.333088
C105	C	1.621515	0.785391	0.666421
C106	C	1.032051	0.120264	-0.000269
C107	C	1.365384	0.453598	0.333064
C108	C	1.698718	0.786931	0.666397
C109	C	0.833986	0.299459	-0.000223
C110	C	1.167319	0.632792	0.333110
C111	C	1.500653	0.966126	0.666443
C112	C	0.841874	0.404651	-0.000231
C113	C	1.175207	0.737985	0.333102
C114	C	1.508540	1.071318	0.666436
N115	N	0.828297	0.126173	0.188455
N116	N	1.161630	0.459506	0.521789
N117	N	1.494964	0.792839	0.855122
N118	N	0.828350	0.126188	-0.188881
N119	N	1.161683	0.459522	0.144453
N120	N	1.495017	0.792855	0.477786
C121	C	0.871531	0.061580	0.226548
C122	C	1.204864	0.394913	0.559882
C123	C	1.538197	0.728246	0.893215
C124	C	0.871535	0.061575	0.302776
C125	C	1.204868	0.394909	0.636109
C126	C	1.538201	0.728242	0.969443
C127	C	0.828313	0.126180	0.340908
C128	C	1.161646	0.459514	0.674241
C129	C	1.494980	0.792847	1.007575
C130	C	0.785071	0.190778	0.302806
C131	C	1.118404	0.524112	0.636139
C132	C	1.451737	0.857445	0.969472
C133	C	0.785063	0.190774	0.226579
C134	C	1.118396	0.524108	0.559913
C135	C	1.451729	0.857441	0.893246
C136	C	0.824562	0.212524	0.461665
C137	C	1.157896	0.545857	0.794998
C138	C	1.491229	0.879190	1.128331
C139	C	0.824575	0.212529	0.537890
C140	C	1.157909	0.545862	0.871223
C141	C	1.491242	0.879196	1.204556
C142	C	0.828333	0.126192	0.576015
C143	C	1.161667	0.459526	0.909349
C144	C	1.495000	0.792859	1.242682
C145	C	0.832093	0.039847	0.537907
C146	C	1.165427	0.373180	0.871240
C147	C	1.498760	0.706513	1.204574
C148	C	0.832085	0.039843	0.461681
C149	C	1.165419	0.373176	0.795014
C150	C	1.498752	0.706509	1.128347
C151	C	0.828316	0.126191	0.423563
C152	C	1.161650	0.459525	0.756896
C153	C	1.494983	0.792858	1.090229
C154	C	0.871574	0.061589	0.696763
C155	C	1.204907	0.394923	1.030097
C156	C	1.538240	0.728256	1.363430
C157	C	0.871573	0.061584	0.772993
C158	C	1.204906	0.394917	1.106326
C159	C	1.538240	0.728251	1.439659
C160	C	0.785113	0.190795	0.773021
C161	C	1.118446	0.524128	1.106354
C162	C	1.451779	0.857462	1.439688
C163	C	0.785110	0.190792	0.696793
C164	C	1.118443	0.524126	1.030126
C165	C	1.451776	0.857459	1.363460
C166	C	0.828344	0.126190	0.658669
C167	C	1.161677	0.459524	0.992002
C168	C	1.495011	0.792857	1.325336
H169	H	0.612534	0.288658	-0.000185
H170	H	0.945867	0.621991	0.333149
H171	H	1.279200	0.955324	0.666482
F172	F	0.739046	0.259526	0.186036
F173	F	1.072379	0.592859	0.519370
F174	F	1.405713	0.926193	0.852703
F175	F	0.729874	-0.385322	-0.000195
F176	F	1.063207	-0.051988	0.333139
F177	F	1.396540	0.281345	0.666472
F178	F	0.917541	-0.007177	0.185975
F179	F	1.250874	0.326156	0.519309
F180	F	1.584208	0.659489	0.852642
H181	H	0.266642	0.004840	-0.077215
H182	H	0.599975	0.338174	0.256119
H183	H	0.933308	0.671507	0.589452
F184	F	0.820579	0.304424	0.578440
F185	F	1.153912	0.637758	0.911774
F186	F	1.487245	0.971091	1.245107
F187	F	0.917552	-0.007177	0.343324
F188	F	1.250886	0.326157	0.676657
F189	F	1.584219	0.659490	1.009991
H190	H	0.398235	0.007467	-0.077190
H191	H	0.731568	0.340800	0.256143
H192	H	1.064901	0.674134	0.589476
H193	H	0.749908	0.243394	0.665776
H194	H	1.083241	0.576727	0.999109
H195	H	1.416575	0.910060	1.332442
F196	F	0.820613	0.304423	0.421096
F197	F	1.153946	0.637757	0.754429
F198	F	1.487280	0.971090	1.087762
H199	H	0.480939	0.286027	-0.000198
H200	H	0.814272	0.619360	0.333135
H201	H	1.147605	0.952694	0.666468
H202	H	0.835145	-0.030463	0.430656
H203	H	1.168478	0.302871	0.763989
H204	H	1.501811	0.636204	1.097322
H205	H	0.175703	-0.033662	-0.000237
H206	H	0.509036	0.299671	0.333096
H207	H	0.842370	0.633005	0.666429
H208	H	0.835153	-0.030457	0.568947
H209	H	1.168486	0.302876	0.902281
H210	H	1.501820	0.636210	1.235614
F211	F	0.173411	0.301494	-0.000261
F212	F	0.506744	0.634827	0.333072
F213	F	0.840077	0.968161	0.666406
F214	F	0.632970	-0.046138	-0.000140
F215	F	0.966304	0.287195	0.333193
F216	F	1.299637	0.620529	0.666527
F217	F	0.926770	-0.362316	-0.000236
F218	F	1.260103	-0.028982	0.333098
F219	F	1.593437	0.304351	0.666431
H220	H	0.390007	0.247532	0.076765
H221	H	0.723340	0.580866	0.410098
H222	H	1.056673	0.914199	0.743431
H223	H	0.906776	0.008984	0.665721
H224	H	1.240109	0.342317	0.999055
H225	H	1.573442	0.675650	1.332388
H226	H	0.491565	-0.027346	-0.000188
H227	H	0.824898	0.305987	0.333146
H228	H	1.158231	0.639321	0.666479
H229	H	0.033478	0.277088	-0.000273
H230	H	0.366811	0.610421	0.333060
H231	H	0.700144	0.943754	0.666393
F232	F	0.035769	-0.058067	-0.000257
F233	F	0.369103	0.275266	0.333076
F234	F	0.702436	0.608600	0.666410
H235	H	0.906777	0.008980	0.804009
H236	H	1.240110	0.342313	1.137342
H237	H	1.573443	0.675646	1.470675
F238	F	0.739068	0.259533	0.343389
F239	F	1.072402	0.592866	0.676722
F240	F	1.405735	0.926199	1.010055
F241	F	0.248772	0.261261	0.087349
F242	F	0.582105	0.594595	0.420683
F243	F	0.915439	0.927928	0.754016
F244	F	0.739108	0.259546	0.813600
F245	F	1.072442	0.592880	1.146933
F246	F	1.405775	0.926213	1.480267
