data_functionalizedCrystal
_audit_creation_method	'MofGen! by Chris Wilmer'
_symmetry_space_group_name_H-M	'P1'
_symmetry_Int_Tables_number	1
_symmetry_cell_setting	triclinic
loop_
_symmetry_equiv_pos_as_xyz
  x,y,z
_cell_length_a	13.897449
_cell_length_b	16.120484
_cell_length_c	13.897441
_cell_angle_alpha	87.134365
_cell_angle_beta	90.023394
_cell_angle_gamma	92.926462
loop_
_atom_site_label
_atom_site_type_symbol
_atom_site_fract_x
_atom_site_fract_y
_atom_site_fract_z
Zn1	Zn	1.455182	-0.331862	0.564892
Zn2	Zn	1.788515	0.001472	0.898225
Zn3	Zn	2.121848	0.334805	1.231558
Zn4	Zn	1.446874	-0.471293	0.411762
Zn5	Zn	1.780207	-0.137960	0.745095
Zn6	Zn	2.113540	0.195373	1.078428
Zn7	Zn	1.293868	-0.331900	0.403605
Zn8	Zn	1.627202	0.001433	0.736938
Zn9	Zn	1.960535	0.334766	1.070272
Zn10	Zn	1.285654	-0.471237	0.573004
Zn11	Zn	1.618987	-0.137904	0.906337
Zn12	Zn	1.952321	0.195429	1.239670
O13	O	1.370394	-0.401573	0.488315
O14	O	1.703728	-0.068240	0.821649
O15	O	2.037061	0.265094	1.154982
O16	O	1.589061	-0.350365	0.544598
O17	O	1.922394	-0.017032	0.877931
O18	O	2.255727	0.316302	1.211264
O19	O	1.426538	-0.452842	0.275700
O20	O	1.759872	-0.119509	0.609034
O21	O	2.093205	0.213825	0.942367
O22	O	1.322182	-0.215230	0.418191
O23	O	1.655515	0.118104	0.751525
O24	O	1.988848	0.451437	1.084858
O25	O	1.582957	-0.452805	0.432094
O26	O	1.916290	-0.119471	0.765427
O27	O	2.249624	0.213862	1.098760
O28	O	1.440698	-0.215201	0.536688
O29	O	1.774031	0.118132	0.870022
O30	O	2.107364	0.451465	1.203355
O31	O	1.314126	-0.350431	0.269708
O32	O	1.647459	-0.017097	0.603041
O33	O	1.980793	0.316236	0.936374
O34	O	1.157798	-0.350376	0.426057
O35	O	1.491131	-0.017043	0.759390
O36	O	1.824464	0.316290	1.092724
O37	O	1.308181	-0.452709	0.706907
O38	O	1.641515	-0.119376	1.040240
O39	O	1.974848	0.213957	1.373574
O40	O	1.151762	-0.452747	0.550514
O41	O	1.485096	-0.119413	0.883847
O42	O	1.818429	0.213920	1.217180
O43	O	1.432732	-0.350311	0.700947
O44	O	1.766066	-0.016977	1.034281
O45	O	2.099399	0.316356	1.367614
O46	O	1.418573	-0.587951	0.439959
O47	O	1.751906	-0.254618	0.773293
O48	O	2.085240	0.078715	1.106626
O49	O	1.300125	-0.587910	0.558423
O50	O	1.633459	-0.254577	0.891756
O51	O	1.966792	0.078756	1.225090
C52	C	1.119781	-0.401560	0.488281
C53	C	1.453114	-0.068227	0.821614
C54	C	1.786448	0.265106	1.154948
C55	C	1.012566	-0.401575	0.488290
C56	C	1.345899	-0.068242	0.821624
C57	C	1.679233	0.265092	1.154957
C58	C	0.925496	-0.401578	0.488307
C59	C	1.258829	-0.068244	0.821640
C60	C	1.592163	0.265089	1.154973
C61	C	0.816263	-0.401584	0.488336
C62	C	1.149597	-0.068250	0.821670
C63	C	1.482930	0.265083	1.155003
C64	C	1.357583	-0.618181	0.500977
C65	C	1.690916	-0.284848	0.834311
C66	C	2.024249	0.048486	1.167644
C67	C	1.352190	-0.710847	0.506427
C68	C	1.685523	-0.377513	0.839760
C69	C	2.018856	-0.044180	1.173093
C70	C	1.342350	-0.880508	0.516395
C71	C	1.675683	-0.547175	0.849728
C72	C	2.009016	-0.213841	1.183062
C73	C	1.398612	-0.921798	0.460252
C74	C	1.731945	-0.588465	0.793585
C75	C	2.065279	-0.255131	1.126918
C76	C	1.393137	-1.016203	0.465798
C77	C	1.726470	-0.682870	0.799132
C78	C	2.059804	-0.349537	1.132465
C79	C	1.347823	-0.786094	0.510850
C80	C	1.681157	-0.452761	0.844183
C81	C	2.014490	-0.119427	1.177516
C82	C	1.621987	-0.401587	0.488351
C83	C	1.955320	-0.068253	0.821684
C84	C	2.288653	0.265080	1.155017
C85	C	1.729200	-0.401592	0.488366
C86	C	2.062533	-0.068259	0.821699
C87	C	2.395867	0.265074	1.155032
C88	C	1.370467	-0.401499	0.739904
C89	C	1.703801	-0.068166	1.073238
C90	C	2.037134	0.265167	1.406571
C91	C	1.370498	-0.401468	0.847116
C92	C	1.703832	-0.068135	1.180450
C93	C	2.037165	0.265199	1.513783
C94	C	1.383283	-0.184120	0.475625
C95	C	1.716616	0.149214	0.808958
C96	C	2.049949	0.482547	1.142292
C97	C	1.388775	-0.091454	0.470217
C98	C	1.722108	0.241880	0.803551
C99	C	2.055441	0.575213	1.136884
C100	C	1.370381	-0.401586	0.237702
C101	C	1.703714	-0.068253	0.571035
C102	C	2.037048	0.265080	0.904369
C103	C	1.370551	-0.401383	0.130477
C104	C	1.703884	-0.068050	0.463810
C105	C	2.037217	0.265284	0.797143
C106	C	1.370528	-0.401412	1.043408
C107	C	1.703861	-0.068078	1.376742
C108	C	2.037194	0.265255	1.710075
C109	C	1.370508	-0.401445	0.934178
C110	C	1.703842	-0.068112	1.267511
C111	C	2.037175	0.265221	1.600844
H112	H	1.450891	-0.886246	0.408020
H113	H	1.784224	-0.552913	0.741353
H114	H	2.117558	-0.219580	1.074686
H115	H	1.290074	-0.916057	0.568622
H116	H	1.623407	-0.582724	0.901955
H117	H	1.956740	-0.249390	1.235288
