data_functionalizedCrystal
_audit_creation_method	'MofGen! by Chris Wilmer'
_symmetry_space_group_name_H-M	'P1'
_symmetry_Int_Tables_number	1
_symmetry_cell_setting	triclinic
loop_
_symmetry_equiv_pos_as_xyz
  x,y,z
_cell_length_a	14.853567
_cell_length_b	16.109301
_cell_length_c	15.186229
_cell_angle_alpha	90.000638
_cell_angle_beta	90.000050
_cell_angle_gamma	96.451795
loop_
_atom_site_label
_atom_site_type_symbol
_atom_site_fract_x
_atom_site_fract_y
_atom_site_fract_z
O1	O	0.115881	-1.103293	-0.073165
O2	O	0.449214	-0.769960	0.260168
O3	O	0.782547	-0.436627	0.593501
O4	O	0.130302	-0.861252	-0.073178
O5	O	0.463635	-0.527918	0.260155
O6	O	0.796968	-0.194585	0.593488
O7	O	-0.008149	-0.988738	-0.073174
O8	O	0.325184	-0.655405	0.260159
O9	O	0.658517	-0.322071	0.593492
O10	O	0.254332	-0.975807	-0.073170
O11	O	0.587665	-0.642474	0.260164
O12	O	0.920998	-0.309141	0.593497
O13	O	-0.008151	-0.988729	0.073283
O14	O	0.325182	-0.655396	0.406616
O15	O	0.658515	-0.322063	0.739950
O16	O	0.130300	-0.861243	0.073279
O17	O	0.463633	-0.527910	0.406612
O18	O	0.796967	-0.194577	0.739945
O19	O	0.115879	-1.103285	0.073292
O20	O	0.449212	-0.769952	0.406625
O21	O	0.782545	-0.436618	0.739959
Zn22	Zn	0.123089	-0.982263	0.096539
Zn23	Zn	0.456422	-0.648929	0.429872
Zn24	Zn	0.789756	-0.315596	0.763205
Zn25	Zn	0.123092	-0.982274	-0.096425
Zn26	Zn	0.456425	-0.648941	0.236908
Zn27	Zn	0.789758	-0.315607	0.570241
O28	O	0.254330	-0.975799	0.073288
O29	O	0.587663	-0.642465	0.406621
O30	O	0.920996	-0.309132	0.739954
C31	C	-0.041738	-0.988148	0.000052
C32	C	0.291595	-0.654814	0.333385
C33	C	0.624929	-0.321481	0.666718
C34	C	-0.141819	-0.986392	0.000044
C35	C	0.191515	-0.653059	0.333377
C36	C	0.524848	-0.319725	0.666711
C37	C	0.129717	-0.830272	0.000048
C38	C	0.463050	-0.496938	0.333382
C39	C	0.796383	-0.163605	0.666715
C40	C	0.127965	-0.737974	0.000043
C41	C	0.461299	-0.404641	0.333376
C42	C	0.794632	-0.071307	0.666710
N43	N	0.123087	-0.982261	0.228231
N44	N	0.456420	-0.648928	0.561565
N45	N	0.789753	-0.315594	0.894898
C46	C	-0.554215	-0.903241	0.000056
C47	C	-0.220882	-0.569907	0.333390
C48	C	0.112451	-0.236574	0.666723
C49	C	-0.575746	-1.054697	0.000064
C50	C	-0.242413	-0.721364	0.333398
C51	C	0.090920	-0.388030	0.666731
C52	C	-0.481715	-1.056348	0.000059
C53	C	-0.148382	-0.723015	0.333393
C54	C	0.184951	-0.389681	0.666726
C55	C	-0.423930	-0.981444	0.000054
C56	C	-0.090596	-0.648111	0.333387
C57	C	0.242737	-0.314777	0.666721
C58	C	-0.460175	-0.904889	0.000054
C59	C	-0.126842	-0.571556	0.333387
C60	C	0.206491	-0.238223	0.666721
C61	C	-0.445463	-1.132901	0.000068
C62	C	-0.112129	-0.799568	0.333402
C63	C	0.221204	-0.466235	0.666735
C64	C	-0.351426	-1.134555	0.000064
C65	C	-0.018093	-0.801222	0.333398
C66	C	0.315240	-0.467889	0.666731
C67	C	-0.293639	-1.059650	0.000053
C68	C	0.039694	-0.726317	0.333386
C69	C	0.373028	-0.392984	0.666719
C70	C	-0.329890	-0.983093	0.000052
C71	C	0.003444	-0.649759	0.333385
C72	C	0.336777	-0.316426	0.666718
C73	C	-0.272104	-0.908189	0.000046
C74	C	0.061229	-0.574855	0.333380
C75	C	0.394563	-0.241522	0.666713
C76	C	-0.308353	-0.831630	0.000039
C77	C	0.024980	-0.498296	0.333372
C78	C	0.358314	-0.164963	0.666706
C79	C	-0.402388	-0.829984	0.000042
C80	C	-0.069054	-0.496651	0.333376
C81	C	0.264279	-0.163318	0.666709
C82	C	-0.199604	-1.061296	0.000049
C83	C	0.133729	-0.727963	0.333383
C84	C	0.467062	-0.394629	0.666716
C85	C	-0.178064	-0.909837	0.000044
C86	C	0.155269	-0.576504	0.333377
C87	C	0.488603	-0.243171	0.666711
C88	C	0.287918	-0.976389	0.000060
C89	C	0.621252	-0.643056	0.333393
C90	C	0.954585	-0.309722	0.666726
C91	C	0.387999	-0.978145	0.000062
C92	C	0.721333	-0.644811	0.333395
C93	C	1.054666	-0.311478	0.666728
C94	C	0.116464	-1.134265	0.000063
C95	C	0.449797	-0.800932	0.333396
C96	C	0.783130	-0.467598	0.666730
C97	C	0.118215	-1.226563	0.000063
C98	C	0.451549	-0.893229	0.333396
C99	C	0.784882	-0.559896	0.666729
C100	C	0.206047	-0.515811	0.000055
C101	C	0.539380	-0.182478	0.333388
C102	C	0.872714	0.150855	0.666721
C103	C	0.204395	-0.429089	0.000060
C104	C	0.537728	-0.095755	0.333394
C105	C	0.871061	0.237578	0.666727
C106	C	0.040127	-0.448732	0.000054
C107	C	0.373460	-0.115399	0.333387
C108	C	0.706794	0.217935	0.666720
C109	C	0.041781	-0.535453	0.000054
C110	C	0.375114	-0.202120	0.333388
C111	C	0.708447	0.131213	0.666721
C112	C	0.124743	-0.568990	0.000050
C113	C	0.458077	-0.235657	0.333384
C114	C	0.791410	0.097677	0.666717
C115	C	0.121437	-0.395546	0.000055
C116	C	0.454770	-0.062213	0.333389
C117	C	0.788104	0.271120	0.666722
C118	C	0.119645	-0.301518	0.000061
C119	C	0.452978	0.031815	0.333395
C120	C	0.786311	0.365149	0.666728
C121	C	0.126536	-0.663025	0.000046
C122	C	0.459870	-0.329691	0.333379
C123	C	0.793203	0.003642	0.666713
N124	N	0.123087	-0.982282	-0.228118
N125	N	0.456420	-0.648949	0.105215
N126	N	0.789753	-0.315615	0.438549
C127	C	0.061801	-1.038731	0.453956
C128	C	0.395134	-0.705398	0.787289
C129	C	0.728468	-0.372065	1.120623
C130	C	0.061799	-1.038734	0.546146
C131	C	0.395132	-0.705400	0.879479
C132	C	0.728466	-0.372067	1.212812
C133	C	0.184375	-0.925806	0.546151
C134	C	0.517708	-0.592473	0.879484
C135	C	0.851042	-0.259139	1.212818
C136	C	0.184372	-0.925800	0.453963
C137	C	0.517706	-0.592467	0.787296
C138	C	0.851039	-0.259133	1.120630
C139	C	0.123086	-0.982267	0.407868
C140	C	0.456420	-0.648934	0.741201
C141	C	0.789753	-0.315601	1.074535
C142	C	0.123087	-0.982276	0.592246
C143	C	0.456420	-0.648943	0.925579
C144	C	0.789754	-0.315609	1.258912
C145	C	0.123085	-0.982278	0.692202
C146	C	0.456419	-0.648945	1.025535
C147	C	0.789752	-0.315612	1.358868
C148	C	0.123087	-0.982264	0.307905
C149	C	0.456420	-0.648931	0.641239
C150	C	0.789753	-0.315597	0.974572
H151	H	-0.131020	-0.848840	0.000036
H152	H	0.202313	-0.515507	0.333369
H153	H	0.535646	-0.182174	0.666702
H154	H	0.273601	-0.543114	0.000058
H155	H	0.606934	-0.209781	0.333391
H156	H	0.940267	0.123553	0.666725
H157	H	-0.024431	-0.578754	0.000053
H158	H	0.308902	-0.245421	0.333387
H159	H	0.642236	0.087913	0.666720
Br160	Br	-0.229919	-0.729979	0.000043
Br161	Br	0.103414	-0.396645	0.333376
Br162	Br	0.436747	-0.063312	0.666710
H163	H	0.270600	-0.385793	0.000066
H164	H	0.603934	-0.052460	0.333399
H165	H	0.937267	0.280874	0.666732
H166	H	-0.431911	-0.767654	0.000037
H167	H	-0.098577	-0.434321	0.333371
H168	H	0.234756	-0.100988	0.666704
Br169	Br	-0.072460	-0.403212	0.000056
Br170	Br	0.260874	-0.069879	0.333389
Br171	Br	0.594207	0.263455	0.666722
Br172	Br	0.267548	-0.849176	0.608712
Br173	Br	0.600881	-0.515843	0.942045
Br174	Br	0.934214	-0.182509	1.275378
H175	H	0.234278	-0.879816	0.416436
H176	H	0.567612	-0.546483	0.749769
H177	H	0.900945	-0.213150	1.083102
H178	H	-0.583733	-0.840908	0.000047
H179	H	-0.250400	-0.507575	0.333380
H180	H	0.082933	-0.174242	0.666713
Br181	Br	-0.021381	-1.115362	0.608692
Br182	Br	0.311952	-0.782029	0.942026
Br183	Br	0.645286	-0.448696	1.275359
Br184	Br	-0.654169	-1.156348	0.000090
Br185	Br	-0.320836	-0.823014	0.333424
Br186	Br	0.012498	-0.489681	0.666757
H187	H	-0.170094	-1.123629	0.000061
H188	H	0.163239	-0.790295	0.333395
H189	H	0.496572	-0.456962	0.666728
Br190	Br	-0.523888	-1.234550	0.000100
Br191	Br	-0.190555	-0.901217	0.333433
Br192	Br	0.142779	-0.567884	0.666766
Br193	Br	-0.302239	-1.238453	0.000061
Br194	Br	0.031094	-0.905120	0.333394
Br195	Br	0.364428	-0.571787	0.666728
H196	H	0.011897	-1.084709	0.416427
H197	H	0.345231	-0.751376	0.749761
H198	H	0.678564	-0.418043	1.083094
