data_functionalizedCrystal
_audit_creation_method	'MofGen! by Chris Wilmer'
_symmetry_space_group_name_H-M	'P1'
_symmetry_Int_Tables_number	1
_symmetry_cell_setting	triclinic
loop_
_symmetry_equiv_pos_as_xyz
  x,y,z
_cell_length_a	12.759401
_cell_length_b	18.050589
_cell_length_c	12.759393
_cell_angle_alpha	90.029546
_cell_angle_beta	90.020938
_cell_angle_gamma	90.029746
loop_
_atom_site_label
_atom_site_type_symbol
_atom_site_fract_x
_atom_site_fract_y
_atom_site_fract_z
Zn1	Zn	1.606168	-0.295593	0.594027
Zn2	Zn	1.606017	-0.419801	0.418350
Zn3	Zn	1.430466	-0.295633	0.418362
Zn4	Zn	1.430417	-0.419749	0.593987
O5	O	1.518267	-0.357694	0.506182
O6	O	1.753169	-0.312075	0.570735
O7	O	1.582688	-0.403368	0.271331
O8	O	1.453857	-0.191703	0.441686
O9	O	1.753058	-0.403330	0.441666
O10	O	1.582944	-0.191674	0.570746
O11	O	1.453711	-0.312142	0.271339
O12	O	1.283439	-0.312092	0.441648
O13	O	1.453773	-0.403241	0.741014
O14	O	1.283402	-0.403280	0.570679
O15	O	1.582896	-0.312025	0.741043
O16	O	1.582640	-0.523719	0.441627
O17	O	1.453627	-0.523681	0.570667
C18	C	1.245300	-0.357685	0.506161
C19	C	1.128523	-0.357699	0.506177
C20	C	1.073670	-0.405253	0.573257
C21	C	0.963946	-0.405256	0.573278
C22	C	0.963938	-0.310149	0.439129
C23	C	1.073660	-0.310143	0.439114
C24	C	1.518140	-0.550646	0.506164
C25	C	1.518182	-0.633192	0.506192
C26	C	1.448094	-0.832649	0.576339
C27	C	1.422478	-0.882097	0.480470
C28	C	1.518285	-0.784322	0.506206
C29	C	1.543953	-0.881956	0.602085
C30	C	1.518383	-0.930307	0.506227
C31	C	1.492619	-0.832683	0.410286
C32	C	1.614139	-0.832538	0.531966
C33	C	1.588559	-0.881964	0.436031
C34	C	1.518226	-0.700224	0.506194
C35	C	1.518442	-1.014404	0.506228
C36	C	1.792300	-0.357704	0.506203
C37	C	1.909077	-0.357708	0.506212
C38	C	1.518346	-0.357623	0.780215
C39	C	1.518379	-0.357592	0.896992
C40	C	1.518423	-0.163989	0.506222
C41	C	1.518489	-0.081443	0.506239
C42	C	1.518249	-0.357712	0.233214
C43	C	1.518419	-0.357533	0.116438
C44	C	1.585619	-0.310088	0.951871
C45	C	1.585637	-0.310056	1.061595
C46	C	1.451172	-0.405039	1.061552
C47	C	1.451150	-0.405067	0.951829
H48	H	0.919289	-0.443978	0.627904
C49	C	0.903579	-0.257844	0.365358
N50	N	0.858117	-0.218448	0.309790
C51	C	1.134002	-0.257828	0.365316
N52	N	1.179452	-0.218424	0.309735
C53	C	1.659563	-0.257859	0.891553
N54	N	1.715257	-0.218515	0.846125
C55	C	1.668803	-0.911039	0.355827
N56	N	1.729238	-0.932940	0.295415
C57	C	1.463211	-0.803566	0.300726
N58	N	1.441055	-0.781634	0.218209
H59	H	1.388648	-0.810995	0.635565
H60	H	1.640388	-0.271372	1.106272
C61	C	1.377222	-0.457257	1.121883
N62	N	1.321521	-0.496588	1.167324
C63	C	1.134015	-0.457560	0.647036
N64	N	1.179464	-0.496958	0.702612
C65	C	1.313026	-0.911505	0.451039
N66	N	1.230584	-0.933653	0.428879
H67	H	1.396388	-0.443750	0.907146
C68	C	1.723552	-0.803095	0.561446
N69	N	1.805959	-0.780913	0.583664
C70	C	1.573231	-0.911196	0.711615
N71	N	1.595275	-0.933217	0.794115
