data_functionalizedCrystal
_audit_creation_method	'MofGen! by Chris Wilmer'
_symmetry_space_group_name_H-M	'P1'
_symmetry_Int_Tables_number	1
_symmetry_cell_setting	triclinic
loop_
_symmetry_equiv_pos_as_xyz
  x,y,z
_cell_length_a	10.654549
_cell_length_b	14.519731
_cell_length_c	9.730217
_cell_angle_alpha	89.995761
_cell_angle_beta	89.997559
_cell_angle_gamma	84.087885
loop_
_atom_site_label
_atom_site_type_symbol
_atom_site_fract_x
_atom_site_fract_y
_atom_site_fract_z
O1	O	1.666601	0.129551	-0.114327
O2	O	1.301006	0.141887	-0.114323
O3	O	1.493483	0.001532	-0.114312
O4	O	1.474124	0.269906	-0.114337
O5	O	1.493477	0.001531	0.114268
O6	O	1.301000	0.141886	0.114257
O7	O	1.666595	0.129550	0.114253
Zn8	Zn	1.483797	0.135718	0.150547
Zn9	Zn	1.483804	0.135719	-0.150617
O10	O	1.474118	0.269905	0.114243
C11	C	1.254214	0.140980	-0.000032
C12	C	1.114796	0.138267	-0.000030
C13	C	0.823264	0.301007	-0.000084
C14	C	0.873991	0.386200	-0.000086
C15	C	1.004984	0.388752	-0.000068
C16	C	1.085256	0.306102	-0.000052
C17	C	1.034529	0.220908	-0.000050
C18	C	0.903531	0.218365	-0.000064
C19	C	1.064070	0.053074	-0.000028
C20	C	0.933076	0.050520	-0.000036
C21	C	1.144341	-0.029577	-0.000012
C22	C	1.093615	-0.114772	0.000000
C23	C	0.962613	-0.117321	-0.000016
C24	C	0.882349	-0.034674	-0.000033
C25	C	1.492573	-0.032833	-0.000022
C26	C	1.489855	-0.135227	-0.000021
C27	C	1.487646	-0.218383	-0.000024
C28	C	1.484886	-0.322706	-0.000035
C29	C	1.482696	-0.405856	-0.000044
C30	C	1.479937	-0.510186	-0.000051
C31	C	1.713387	0.130457	-0.000041
C32	C	1.852805	0.133170	-0.000052
C33	C	1.475028	0.304269	-0.000050
C34	C	1.477746	0.406664	-0.000060
N35	N	1.483800	0.135716	0.356084
N36	N	1.483810	0.135714	-0.356153
C37	C	1.654308	0.011468	0.356084
C38	C	1.739570	-0.050653	0.428023
C39	C	1.739583	-0.050654	0.571903
C40	C	1.654322	0.011472	0.643846
C41	C	1.569060	0.073593	0.571907
C42	C	1.569059	0.073589	0.428024
C43	C	1.398548	0.197835	0.571907
C44	C	1.398539	0.197841	0.428027
C45	C	1.313287	0.259960	0.643850
C46	C	1.228029	0.322088	0.571911
C47	C	1.228020	0.322086	0.428022
C48	C	1.313277	0.259963	0.356087
H49	H	1.191917	0.308187	-0.000054
H50	H	1.158610	0.372662	0.630496
H51	H	1.313282	0.259959	0.238933
H52	H	1.158585	0.372669	0.369456
H53	H	1.158981	-0.182059	0.000004
H54	H	0.716600	0.298937	-0.000074
O55	O	1.054118	0.471563	-0.000254
C56	C	1.069047	0.615767	-0.118733
C57	C	1.013296	0.522026	-0.118677
H58	H	1.036086	0.656585	-0.214482
H59	H	1.035960	0.656716	-0.023148
H60	H	1.176458	0.603365	-0.118649
H61	H	0.905884	0.534344	-0.118809
H62	H	1.046483	0.481107	-0.214253
H63	H	0.921320	-0.186696	-0.000022
H64	H	1.251002	-0.027493	-0.000004
O65	O	0.795886	0.466421	-0.000281
C66	C	0.630911	0.560976	-0.118769
C67	C	0.719265	0.470083	-0.118699
H68	H	0.568959	0.563976	-0.214514
H69	H	0.568744	0.563990	-0.023180
H70	H	0.689694	0.622288	-0.118701
H71	H	0.660582	0.408720	-0.118815
H72	H	0.781436	0.467151	-0.214279
H73	H	1.808987	-0.101237	0.369435
H74	H	1.809006	-0.101241	0.630477
H75	H	0.775686	-0.036741	-0.000035
H76	H	1.654327	0.011460	0.761001
H77	H	1.654317	0.011470	0.238929
H78	H	1.313296	0.259954	0.761005
