data_functionalizedCrystal
_audit_creation_method	'MofGen! by Chris Wilmer'
_symmetry_space_group_name_H-M	'P1'
_symmetry_Int_Tables_number	1
_symmetry_cell_setting	triclinic
loop_
_symmetry_equiv_pos_as_xyz
  x,y,z
_cell_length_a	27.732064
_cell_length_b	27.732048
_cell_length_c	10.065875
_cell_angle_alpha	98.710990
_cell_angle_beta	81.333551
_cell_angle_gamma	82.646040
loop_
_atom_site_label
_atom_site_type_symbol
_atom_site_fract_x
_atom_site_fract_y
_atom_site_fract_z
O1	O	0.648033	0.050412	-0.113260
O2	O	0.981366	0.383745	0.220073
O3	O	1.314700	0.717079	0.553407
O4	O	0.507244	0.059146	-0.113318
O5	O	0.840578	0.392479	0.220015
O6	O	1.173911	0.725812	0.553349
O7	O	0.582009	-0.015616	-0.113261
O8	O	0.915343	0.317717	0.220072
O9	O	1.248676	0.651051	0.553405
O10	O	0.573268	0.125174	-0.113317
O11	O	0.906601	0.458507	0.220017
O12	O	1.239934	0.791840	0.553350
O13	O	0.567752	-0.001303	0.113717
O14	O	0.901086	0.332030	0.447050
O15	O	1.234419	0.665364	0.780383
O16	O	0.492987	0.073458	0.113660
O17	O	0.826320	0.406792	0.446993
O18	O	1.159654	0.740125	0.780326
O19	O	0.633776	0.064725	0.113718
O20	O	0.967109	0.398058	0.447051
O21	O	1.300442	0.731392	0.780385
Zn22	Zn	0.561118	0.071364	0.149726
Zn23	Zn	0.894451	0.404697	0.483060
Zn24	Zn	1.227784	0.738031	0.816393
Zn25	Zn	0.579902	0.052506	-0.149327
Zn26	Zn	0.913236	0.385840	0.184007
Zn27	Zn	1.246569	0.719173	0.517340
O28	O	0.559010	0.139486	0.113661
O29	O	0.892344	0.472820	0.446994
O30	O	1.225677	0.806153	0.780328
C31	C	0.482109	0.066117	0.000164
C32	C	0.815443	0.399450	0.333497
C33	C	1.148776	0.732783	0.666830
C34	C	0.428456	0.065560	0.000143
C35	C	0.761790	0.398893	0.333476
C36	C	1.095123	0.732226	0.666809
C37	C	0.051377	0.017598	0.000239
C38	C	0.384711	0.350932	0.333573
C39	C	0.718044	0.684265	0.666906
C40	C	0.253040	0.019642	0.000203
C41	C	0.586373	0.352976	0.333536
C42	C	0.919707	0.686309	0.666870
O43	O	0.284288	-0.017575	0.000269
O44	O	0.617622	0.315759	0.333602
O45	O	0.950955	0.649092	0.666935
N46	N	0.272169	0.063975	0.000179
N47	N	0.605502	0.397309	0.333513
N48	N	0.938836	0.730642	0.666846
C49	C	0.240878	0.107801	0.000174
C50	C	0.574211	0.441134	0.333507
C51	C	0.907545	0.774467	0.666841
O52	O	0.261775	0.145556	0.000167
O53	O	0.595108	0.478890	0.333500
O54	O	0.928442	0.812223	0.666834
C55	C	0.039216	0.105757	0.000220
C56	C	0.372549	0.439090	0.333553
C57	C	0.705883	0.772424	0.666887
C58	C	0.020091	0.061420	0.000230
C59	C	0.353424	0.394754	0.333563
C60	C	0.686758	0.728087	0.666896
C61	C	0.032252	-0.026734	0.000251
C62	C	0.365585	0.306599	0.333584
C63	C	0.698918	0.639932	0.666917
C64	C	-0.018161	-0.027245	0.000252
C65	C	0.315173	0.306088	0.333586
C66	C	0.648506	0.639421	0.666919
C67	C	-0.049447	0.016576	0.000243
C68	C	0.283886	0.349910	0.333576
C69	C	0.617220	0.683243	0.666909
C70	C	-0.030321	0.060909	0.000231
C71	C	0.303012	0.394243	0.333565
C72	C	0.636345	0.727576	0.666898
C73	C	0.007926	0.149582	0.000224
C74	C	0.341259	0.482916	0.333558
C75	C	0.674592	0.816249	0.666891
C76	C	-0.042493	0.149068	0.000239
C77	C	0.290840	0.482401	0.333573
C78	C	0.624174	0.815734	0.666906
C79	C	-0.061618	0.104731	0.000249
C80	C	0.271715	0.438065	0.333582
C81	C	0.605049	0.771398	0.666916
C82	C	-0.112020	0.104220	0.000223
C83	C	0.221313	0.437554	0.333557
C84	C	0.554647	0.770887	0.666890
N85	N	-0.131149	0.059887	0.000247
N86	N	0.202184	0.393221	0.333580
N87	N	0.535518	0.726554	0.666914
C88	C	-0.099863	0.016066	0.000257
C89	C	0.233471	0.349399	0.333590
C90	C	0.566804	0.682732	0.666923
C91	C	0.346754	0.108870	0.000147
C92	C	0.680088	0.442204	0.333480
C93	C	1.013421	0.775537	0.666814
C94	C	0.397170	0.109381	0.000133
C95	C	0.730503	0.442715	0.333466
C96	C	1.063836	0.776048	0.666800
C97	C	0.409328	0.021223	0.000165
C98	C	0.742661	0.354556	0.333498
C99	C	1.075995	0.687890	0.666831
C100	C	0.358912	0.020712	0.000169
C101	C	0.692245	0.354045	0.333502
C102	C	1.025579	0.687379	0.666836
C103	C	0.327625	0.064538	0.000171
C104	C	0.660959	0.397871	0.333504
C105	C	0.994292	0.731204	0.666837
C106	C	-0.205732	0.014996	0.000259
C107	C	0.127601	0.348329	0.333592
C108	C	0.460934	0.681662	0.666926
C109	C	-0.256149	0.014488	0.000255
C110	C	0.077184	0.347822	0.333588
C111	C	0.410518	0.681155	0.666921
C112	C	-0.268303	0.102647	0.000230
C113	C	0.065030	0.435980	0.333564
C114	C	0.398363	0.769313	0.666897
C115	C	-0.217890	0.103154	0.000227
C116	C	0.115443	0.436487	0.333560
C117	C	0.448776	0.769821	0.666894
C118	C	-0.186606	0.059325	0.000246
C119	C	0.146728	0.392658	0.333579
C120	C	0.480061	0.725992	0.666913
O121	O	-0.143298	0.141418	0.000173
O122	O	0.190035	0.474751	0.333506
O123	O	0.523369	0.808085	0.666840
O124	O	-0.120771	-0.021683	0.000294
O125	O	0.212563	0.311651	0.333627
O126	O	0.545896	0.644984	0.666960
C127	C	0.101790	0.018109	0.000238
C128	C	0.435123	0.351443	0.333571
C129	C	0.768456	0.684776	0.666904
C130	C	0.120915	0.062442	0.000226
C131	C	0.454249	0.395776	0.333560
C132	C	0.787582	0.729109	0.666893
C133	C	0.089629	0.106264	0.000217
C134	C	0.422962	0.439597	0.333550
C135	C	0.756295	0.772931	0.666883
C136	C	0.171331	0.062953	0.000212
C137	C	0.504664	0.396287	0.333546
C138	C	0.837997	0.729620	0.666879
C139	C	0.202617	0.019131	0.000222
C140	C	0.535951	0.352465	0.333555
C141	C	0.869284	0.685798	0.666889
C142	C	0.183488	-0.025201	0.000246
C143	C	0.516822	0.308132	0.333579
C144	C	0.850155	0.641465	0.666912
C145	C	0.133076	-0.025712	0.000247
C146	C	0.466409	0.307621	0.333581
C147	C	0.799743	0.640954	0.666914
C148	C	0.108758	0.150597	0.000193
C149	C	0.442091	0.483930	0.333527
C150	C	0.775424	0.817264	0.666860
C151	C	0.159171	0.151104	0.000190
C152	C	0.492504	0.484438	0.333523
C153	C	0.825837	0.817771	0.666857
C154	C	0.190457	0.107282	0.000200
C155	C	0.523790	0.440616	0.333533
C156	C	0.857124	0.773949	0.666866
C157	C	0.574697	-0.026466	0.000231
C158	C	0.908030	0.306867	0.333565
C159	C	1.241364	0.640200	0.666898
C160	C	0.574144	-0.080120	0.000242
C161	C	0.907477	0.253213	0.333576
C162	C	1.240810	0.586546	0.666909
C163	C	0.614850	-0.418936	0.000189
C164	C	0.948184	-0.085603	0.333522
C165	C	1.281517	0.247730	0.666856
C166	C	0.612801	-0.620597	0.000169
C167	C	0.946134	-0.287264	0.333503
C168	C	1.279467	0.046069	0.666836
O169	O	0.650024	-0.651854	0.000125
O170	O	0.983357	-0.318520	0.333458
O171	O	1.316691	0.014813	0.666792
N172	N	0.568467	-0.639725	0.000152
N173	N	0.901800	-0.306392	0.333486
N174	N	1.235134	0.026942	0.666819
C175	C	0.524643	-0.608434	0.000131
C176	C	0.857976	-0.275101	0.333465
C177	C	1.191310	0.058232	0.666798
O178	O	0.486888	-0.629331	0.000102
O179	O	0.820222	-0.295998	0.333436
O180	O	1.153555	0.037335	0.666769
C181	C	0.526694	-0.406775	0.000141
C182	C	0.860027	-0.073441	0.333475
C183	C	1.193361	0.259892	0.666808
C184	C	0.571030	-0.387649	0.000172
C185	C	0.904363	-0.054316	0.333506
C186	C	1.237696	0.279017	0.666839
C187	C	0.659183	-0.399811	0.000219
C188	C	0.992516	-0.066477	0.333552
C189	C	1.325849	0.266856	0.666885
C190	C	0.659694	-0.349398	0.000231
C191	C	0.993028	-0.016065	0.333564
C192	C	1.326361	0.317269	0.666898
C193	C	0.615873	-0.318111	0.000214
C194	C	0.949207	0.015222	0.333547
C195	C	1.282540	0.348556	0.666881
C196	C	0.571541	-0.337237	0.000185
C197	C	0.904874	-0.003903	0.333518
C198	C	1.238208	0.329430	0.666851
C199	C	0.482871	-0.375486	0.000110
C200	C	0.816204	-0.042152	0.333444
C201	C	1.149538	0.291181	0.666777
C202	C	0.483388	-0.325068	0.000110
C203	C	0.816721	0.008265	0.333443
C204	C	1.150055	0.341598	0.666776
C205	C	0.527724	-0.305943	0.000140
C206	C	0.861057	0.027390	0.333474
C207	C	1.194390	0.360724	0.666807
C208	C	0.528232	-0.255537	0.000180
C209	C	0.861565	0.077796	0.333513
C210	C	1.194899	0.411130	0.666847
N211	N	0.572566	-0.236410	0.000197
N212	N	0.905899	0.096924	0.333530
N213	N	1.239232	0.430257	0.666864
C214	C	0.616386	-0.267696	0.000214
C215	C	0.949720	0.065637	0.333547
C216	C	1.283053	0.398970	0.666881
C217	C	0.523569	-0.714309	0.000129
C218	C	0.856903	-0.380975	0.333462
C219	C	1.190236	-0.047642	0.666795
C220	C	0.523056	-0.764723	0.000129
C221	C	0.856390	-0.431390	0.333462
C222	C	1.189723	-0.098056	0.666795
C223	C	0.611214	-0.776883	0.000164
C224	C	0.944548	-0.443550	0.333497
C225	C	1.277881	-0.110216	0.666831
C226	C	0.611726	-0.726467	0.000174
C227	C	0.945060	-0.393134	0.333507
C228	C	1.278393	-0.059800	0.666841
C229	C	0.567903	-0.695181	0.000146
C230	C	0.901236	-0.361848	0.333479
C231	C	1.234570	-0.028514	0.666812
C232	C	0.617457	-0.161826	0.000241
C233	C	0.950791	0.171508	0.333575
C234	C	1.284124	0.504841	0.666908
C235	C	0.617964	-0.111407	0.000259
C236	C	0.951298	0.221926	0.333593
C237	C	1.284631	0.555259	0.666926
C238	C	0.529807	-0.099252	0.000217
C239	C	0.863140	0.234081	0.333550
C240	C	1.196474	0.567414	0.666883
C241	C	0.529299	-0.149666	0.000206
C242	C	0.862632	0.183668	0.333539
C243	C	1.195966	0.517001	0.666872
C244	C	0.573128	-0.180952	0.000213
C245	C	0.906462	0.152382	0.333547
C246	C	1.239795	0.485715	0.666880
O247	O	0.491030	-0.224253	0.000209
O248	O	0.824363	0.109080	0.333542
O249	O	1.157696	0.442413	0.666876
O250	O	0.654138	-0.246792	0.000213
O251	O	0.987471	0.086542	0.333546
O252	O	1.320804	0.419875	0.666879
C253	C	0.614339	-0.469349	0.000177
C254	C	0.947672	-0.136016	0.333510
C255	C	1.281006	0.197317	0.666843
C256	C	0.570007	-0.488475	0.000147
C257	C	0.903340	-0.155142	0.333481
C258	C	1.236673	0.178192	0.666814
C259	C	0.526186	-0.457188	0.000130
C260	C	0.859519	-0.123855	0.333464
C261	C	1.192853	0.209479	0.666797
C262	C	0.569494	-0.538889	0.000147
C263	C	0.902827	-0.205556	0.333481
C264	C	1.236160	0.127777	0.666814
C265	C	0.613314	-0.570176	0.000164
C266	C	0.946648	-0.236843	0.333498
C267	C	1.279981	0.096490	0.666831
C268	C	0.657648	-0.551049	0.000181
C269	C	0.990982	-0.217716	0.333515
C270	C	1.324315	0.115618	0.666848
C271	C	0.658160	-0.500636	0.000194
C272	C	0.991493	-0.167303	0.333527
C273	C	1.324826	0.166030	0.666860
C274	C	0.481852	-0.476315	0.000113
C275	C	0.815185	-0.142982	0.333447
C276	C	1.148519	0.190351	0.666780
C277	C	0.481344	-0.526729	0.000103
C278	C	0.814677	-0.193395	0.333436
C279	C	1.148011	0.139938	0.666769
C280	C	0.525165	-0.558016	0.000119
C281	C	0.858498	-0.224682	0.333453
C282	C	1.191832	0.108651	0.666786
C283	C	0.658911	0.057753	0.000233
C284	C	0.992244	0.391087	0.333566
C285	C	1.325577	0.724420	0.666900
C286	C	0.712564	0.058310	0.000245
C287	C	1.045898	0.391643	0.333579
C288	C	1.379231	0.724977	0.666912
C289	C	0.566323	0.150336	0.000165
C290	C	0.899656	0.483670	0.333499
C291	C	1.232990	0.817003	0.666832
C292	C	0.566877	0.203990	0.000145
C293	C	0.900210	0.537323	0.333479
C294	C	1.233544	0.870657	0.666812
N295	N	0.548301	0.084234	0.353822
N296	N	0.881635	0.417567	0.687156
N297	N	1.214968	0.750900	1.020489
N298	N	0.592722	0.039633	-0.353422
N299	N	0.926056	0.372966	-0.020089
N300	N	1.259389	0.706300	0.313244
C301	C	0.575440	0.056981	0.421622
C302	C	0.908773	0.390314	0.754955
C303	C	1.242107	0.723648	1.088288
C304	C	0.565580	0.066889	0.578782
C305	C	0.898913	0.400223	0.912115
C306	C	1.232247	0.733556	1.245448
H307	H	-0.271717	-0.021618	0.000259
H308	H	0.061616	0.311716	0.333593
H309	H	0.394949	0.645049	0.666926
C310	C	0.474282	-0.785754	0.000112
C311	C	0.807616	-0.452420	0.333445
C312	C	1.140949	-0.119087	0.666778
N313	N	0.437545	-0.801592	0.000090
N314	N	0.770878	-0.468259	0.333423
N315	N	1.104212	-0.134926	0.666757
H316	H	0.623257	0.008962	0.588280
H317	H	0.956590	0.342295	0.921613
H318	H	1.289923	0.675628	1.254947
C319	C	0.028950	0.198358	0.000236
C320	C	0.362283	0.531692	0.333569
C321	C	0.695617	0.865025	0.666902
N322	N	0.044784	0.235100	0.000254
N323	N	0.378117	0.568433	0.333587
N324	N	0.711450	0.901767	0.666921
C325	C	-0.171326	-0.033219	0.000269
C326	C	0.162008	0.300114	0.333603
C327	C	0.495341	0.633447	0.666936
N328	N	-0.145410	-0.069536	0.000266
N329	N	0.187923	0.263798	0.333600
N330	N	0.521257	0.597131	0.666933
C331	C	0.507049	0.125663	0.432582
C332	C	0.840382	0.458997	0.765915
C333	C	1.173715	0.792330	1.099249
N334	N	0.475976	0.156869	0.491902
N335	N	0.809309	0.490202	0.825236
N336	N	1.142643	0.823536	1.158569
C337	C	0.435177	-0.290656	0.000083
C338	C	0.768511	0.042677	0.333417
C339	C	1.101844	0.376011	0.666750
N340	N	0.398865	-0.264738	0.000069
N341	N	0.732198	0.068596	0.333402
N342	N	1.065531	0.401929	0.666735
C343	C	0.475357	-0.679899	0.000099
C344	C	0.808690	-0.346566	0.333432
C345	C	1.142024	-0.013233	0.666765
N346	N	0.439043	-0.653984	0.000080
N347	N	0.772376	-0.320651	0.333413
N348	N	1.105709	0.012682	0.666747
C349	C	0.660499	-0.705435	0.000196
C350	C	0.993832	-0.372102	0.333529
C351	C	1.327166	-0.038768	0.666863
N352	N	0.697237	-0.689597	0.000208
N353	N	1.030571	-0.356263	0.333541
N354	N	1.363904	-0.022930	0.666874
H355	H	-0.033727	-0.063348	0.000266
H356	H	0.299606	0.269985	0.333599
H357	H	0.632939	0.603318	0.666933
C358	C	0.066660	-0.074947	0.000255
C359	C	0.399994	0.258387	0.333589
C360	C	0.733327	0.591720	0.666922
N361	N	0.092575	-0.111264	0.000248
N362	N	0.425908	0.222069	0.333581
N363	N	0.759241	0.555402	0.666914
H364	H	0.083288	0.186283	0.000187
H365	H	0.416622	0.519616	0.333520
H366	H	0.749955	0.852950	0.666854
H367	H	0.494129	-0.073769	0.000208
H368	H	0.827462	0.259564	0.333541
H369	H	1.160796	0.592897	0.666874
C370	C	0.705851	-0.585475	0.000198
C371	C	1.039185	-0.252141	0.333531
C372	C	1.372518	0.081192	0.666864
N373	N	0.742156	-0.611407	0.000201
N374	N	1.075490	-0.278073	0.333535
N375	N	1.408823	0.055260	0.666868
H376	H	0.535042	0.097557	0.637079
H377	H	0.868375	0.430891	0.970412
H378	H	1.201709	0.764224	1.303746
H379	H	-0.067965	0.184757	0.000247
H380	H	0.265368	0.518091	0.333580
H381	H	0.598702	0.851424	0.666914
C382	C	0.337879	-0.028060	0.000195
C383	C	0.671212	0.305273	0.333529
C384	C	1.004545	0.638607	0.666862
N385	N	0.322039	-0.064797	0.000222
N386	N	0.655372	0.268536	0.333555
N387	N	0.988705	0.601870	0.666888
H388	H	0.434810	-0.014459	0.000168
H389	H	0.768144	0.318875	0.333501
H390	H	1.101477	0.652208	0.666834
H391	H	0.646895	-0.802366	0.000179
H392	H	0.980228	-0.469032	0.333512
H393	H	1.313561	-0.135699	0.666845
H394	H	0.446167	-0.450846	0.000097
H395	H	0.779501	-0.117513	0.333430
H396	H	1.112834	0.215821	0.666763
C397	C	0.217913	-0.073405	0.000264
C398	C	0.551246	0.259928	0.333598
C399	C	0.884579	0.593262	0.666931
N400	N	0.243843	-0.109709	0.000289
N401	N	0.577176	0.223624	0.333622
N402	N	0.910509	0.556957	0.666956
H403	H	0.412738	0.145483	0.000106
H404	H	0.746071	0.478817	0.333439
H405	H	1.079404	0.812150	0.666773
H406	H	0.321284	0.144561	0.000147
H407	H	0.654618	0.477894	0.333480
H408	H	0.987951	0.811227	0.666813
H409	H	0.694262	-0.485069	0.000218
H410	H	1.027596	-0.151736	0.333552
H411	H	1.360929	0.181597	0.666885
C412	C	0.432568	-0.547760	0.000070
C413	C	0.765901	-0.214426	0.333403
C414	C	1.099234	0.118907	0.666736
N415	N	0.395831	-0.563600	0.000032
N416	N	0.729164	-0.230266	0.333365
N417	N	1.062498	0.103067	0.666699
H418	H	0.446769	-0.391049	0.000077
H419	H	0.780102	-0.057715	0.333410
H420	H	1.113435	0.275618	0.666744
H421	H	-0.202318	0.139256	0.000218
H422	H	0.131015	0.472590	0.333551
H423	H	0.464349	0.805923	0.666884
H424	H	0.605972	0.026312	0.363321
H425	H	0.939306	0.359645	0.696654
H426	H	1.272639	0.692978	1.029987
H427	H	-0.293785	0.138325	0.000216
H428	H	0.039548	0.471658	0.333549
H429	H	0.372881	0.804992	0.666882
H430	H	0.493195	-0.165236	0.000219
H431	H	0.826528	0.168098	0.333552
H432	H	1.159862	0.501431	0.666885
H433	H	0.174737	0.187210	0.000172
H434	H	0.508071	0.520544	0.333506
H435	H	0.841404	0.853877	0.666839
C436	C	0.666739	-0.090374	0.000289
C437	C	1.000073	0.242960	0.333623
C438	C	1.333406	0.576293	0.666956
N439	N	0.703476	-0.074533	0.000308
N440	N	1.036809	0.258801	0.333642
N441	N	1.370143	0.592134	0.666975
H442	H	0.653148	-0.187294	0.000242
H443	H	0.986481	0.146040	0.333576
H444	H	1.319814	0.479373	0.666909
C445	C	0.708468	-0.328368	0.000250
C446	C	1.041802	0.004965	0.333584
C447	C	1.375135	0.338299	0.666917
N448	N	0.745208	-0.312532	0.000259
N449	N	1.078541	0.020801	0.333593
N450	N	1.411875	0.354134	0.666926
H451	H	0.694869	-0.425281	0.000227
H452	H	1.028203	-0.091947	0.333561
H453	H	1.361536	0.241386	0.666894
H454	H	0.117509	-0.061816	0.000256
H455	H	0.450843	0.271518	0.333589
H456	H	0.784176	0.604851	0.666922
