data_functionalizedCrystal
_audit_creation_method	'MofGen! by Chris Wilmer'
_symmetry_space_group_name_H-M	'P1'
_symmetry_Int_Tables_number	1
_symmetry_cell_setting	triclinic
loop_
_symmetry_equiv_pos_as_xyz
  x,y,z
_cell_length_a	6.817900
_cell_length_b	11.102233
_cell_length_c	17.078481
_cell_angle_alpha	95.113229
_cell_angle_beta	99.306161
_cell_angle_gamma	108.604738
loop_
_atom_site_label
_atom_site_type_symbol
_atom_site_fract_x
_atom_site_fract_y
_atom_site_fract_z
V1	V	-4.005697	-0.175543	-0.247364
O2	O	-3.966748	0.008741	-0.242653
O3	O	-3.983194	-0.348366	-0.245675
O4	O	-3.936322	-0.172709	-0.355247
O5	O	-4.013944	-0.168132	-0.132322
V6	V	-4.488687	-0.153516	-0.233604
O7	O	-4.268124	-0.223860	-0.277549
O8	O	-4.676457	-0.105199	-0.203420
O9	O	-4.287983	0.019307	-0.235293
O10	O	-4.645033	-0.337800	-0.238316
O11	O	-4.597836	-0.160927	-0.348646
O12	O	-4.334855	-0.156350	-0.125721
C13	C	-3.835174	-0.390500	-0.241774
C14	C	-3.897922	-0.531785	-0.241112
C15	C	-3.804038	-0.724445	-0.236211
C16	C	-3.745081	-0.591696	-0.236840
C17	C	-4.109739	-0.604632	-0.244763
C18	C	-4.168695	-0.737381	-0.244140
C19	C	-3.593504	-0.716975	-0.231633
C20	C	-3.534547	-0.584225	-0.232262
C21	C	-3.775382	-0.166431	-0.381543
C22	C	-3.800115	-0.165257	-0.469738
C23	C	-3.994018	-0.171050	-0.515213
C24	C	-4.017245	-0.169946	-0.598081
C25	C	-3.846572	-0.163059	-0.635473
C26	C	-3.652652	-0.157262	-0.589991
C27	C	-3.629423	-0.158356	-0.507123
C28	C	-3.896494	-0.159097	-0.882876
C29	C	-3.919740	-0.158007	-0.965750
C30	C	-4.284332	-0.170689	-0.973835
C31	C	-4.261089	-0.171791	-0.890966
C32	C	-4.067169	-0.165987	-0.845491
N33	N	-3.870311	-0.161935	-0.720178
N34	N	-4.043428	-0.167102	-0.760786
C35	C	-4.099347	0.061435	-0.239193
C36	C	-4.015836	0.202717	-0.239860
C37	C	-4.159138	-0.162633	-0.099422
C38	C	-4.113643	-0.163800	-0.011226
H39	H	-3.523432	-0.741524	-0.172471
H40	H	-4.234183	-0.555844	-0.248249
H41	H	-4.341160	-0.796683	-0.247122
C42	C	-4.230550	-0.176323	-0.648100
C43	C	-4.325056	-0.070852	-0.629240
C44	C	-4.538372	-0.077226	-0.679256
C45	C	-4.657182	-0.189072	-0.748131
C46	C	-4.562677	-0.294551	-0.766995
C47	C	-4.349361	-0.288177	-0.716979
H48	H	-4.237105	0.011950	-0.578251
H49	H	-4.608330	0.000857	-0.665292
H50	H	-4.815091	-0.193790	-0.785156
H51	H	-4.650628	-0.377353	-0.817983
H52	H	-4.279402	-0.366260	-0.730943
H53	H	-3.780745	-0.152394	-0.996191
C54	C	-3.536111	-0.780517	-0.304385
C55	C	-3.430285	-0.697621	-0.363669
C56	C	-3.372903	-0.761164	-0.436421
C57	C	-3.421346	-0.907604	-0.449888
C58	C	-3.527178	-0.990509	-0.390602
C59	C	-3.584560	-0.926966	-0.317850
H60	H	-3.394420	-0.589209	-0.353702
H61	H	-3.294559	-0.699791	-0.480308
H62	H	-3.378868	-0.954642	-0.503743
H63	H	-3.563044	-1.098920	-0.400569
H64	H	-3.662904	-0.988338	-0.273963
H65	H	-3.738617	-0.154416	-0.845864
H66	H	-3.415378	-0.531461	-0.174899
H67	H	-3.473974	-0.555046	-0.288589
H68	H	-4.133007	-0.176667	-0.484776
H69	H	-4.400073	-0.177398	-0.860528
H70	H	-4.442214	-0.175413	-1.010870
H71	H	-3.513685	-0.151646	-0.620441
H72	H	-3.471514	-0.153608	-0.470094
