data_functionalizedCrystal
_audit_creation_method	'MofGen! by Chris Wilmer'
_symmetry_space_group_name_H-M	'P1'
_symmetry_Int_Tables_number	1
_symmetry_cell_setting	triclinic
loop_
_symmetry_equiv_pos_as_xyz
  x,y,z
_cell_length_a	17.038272
_cell_length_b	17.038272
_cell_length_c	16.176319
_cell_angle_alpha	89.993159
_cell_angle_beta	89.998402
_cell_angle_gamma	91.111556
loop_
_atom_site_label
_atom_site_type_symbol
_atom_site_fract_x
_atom_site_fract_y
_atom_site_fract_z
O1	O	1.048758	0.170539	-0.068644
O2	O	1.548758	0.670539	0.431356
O3	O	0.820946	0.167831	-0.068668
O4	O	1.320946	0.667831	0.431332
O5	O	0.933498	0.055279	-0.068650
O6	O	1.433498	0.555279	0.431350
O7	O	0.936206	0.283091	-0.068662
O8	O	1.436206	0.783091	0.431338
O9	O	0.933481	0.055270	0.068844
O10	O	1.433481	0.555270	0.568844
O11	O	0.820929	0.167822	0.068825
O12	O	1.320929	0.667822	0.568825
O13	O	1.048741	0.170530	0.068849
O14	O	1.548741	0.670530	0.568849
Cu15	Cu	0.934833	0.169175	0.081391
Cu16	Cu	1.434833	0.669175	0.581391
Cu17	Cu	0.934854	0.169186	-0.081210
Cu18	Cu	1.434854	0.669186	0.418790
O19	O	0.936189	0.283082	0.068831
O20	O	1.436189	0.783082	0.568831
C21	C	0.791645	0.165364	0.000075
C22	C	1.291645	0.665364	0.500075
C23	C	0.704361	0.158016	0.000066
C24	C	1.204361	0.658016	0.500066
C25	C	0.658752	0.225479	0.000063
C26	C	1.158752	0.725479	0.500063
C27	C	0.576740	0.218570	0.000075
C28	C	1.076740	0.718570	0.500075
C29	C	0.540339	0.144197	0.000084
C30	C	1.040339	0.644197	0.500084
C31	C	0.585954	0.076728	0.000090
C32	C	1.085954	0.576728	0.500090
C33	C	0.667965	0.083638	0.000084
C34	C	1.167965	0.583638	0.500084
C35	C	0.292951	0.119787	0.000107
C36	C	0.792951	0.619787	0.500107
C37	C	0.210935	0.112882	0.000111
C38	C	0.710935	0.612882	0.500111
C39	C	0.201726	0.254725	0.000098
C40	C	0.701726	0.754725	0.500098
C41	C	0.283739	0.261628	0.000087
C42	C	0.783739	0.761628	0.500087
C43	C	0.329347	0.194159	0.000097
C44	C	0.829347	0.694159	0.500097
C45	C	0.456510	0.137133	0.000093
C46	C	0.956510	0.637133	0.500093
C47	C	0.413174	0.201224	0.000093
C48	C	0.913174	0.701224	0.500093
C49	C	0.931027	0.025982	0.000097
C50	C	1.431027	0.525982	0.500097
C51	C	0.923679	-0.061301	0.000096
C52	C	1.423679	0.438699	0.500096
C53	C	0.991142	-0.106911	0.000104
C54	C	1.491142	0.393089	0.500104
C55	C	0.984233	-0.188923	0.000095
C56	C	1.484233	0.311077	0.500095
C57	C	0.909860	-0.225324	0.000084
C58	C	1.409860	0.274676	0.500084
C59	C	0.842391	-0.179708	0.000074
C60	C	1.342391	0.320292	0.500074
C61	C	0.849301	-0.097698	0.000077
C62	C	1.349301	0.402302	0.500077
C63	C	0.885449	-0.472712	0.000070
C64	C	1.385449	0.027288	0.500070
C65	C	0.878545	-0.554728	0.000070
C66	C	1.378545	-0.054728	0.500070
C67	C	1.020387	-0.563937	0.000090
C68	C	1.520387	-0.063937	0.500090
C69	C	1.027291	-0.481924	0.000098
C70	C	1.527291	0.018076	0.500098
C71	C	0.959822	-0.436316	0.000083
C72	C	1.459822	0.063684	0.500083
C73	C	0.902796	-0.309153	0.000078
C74	C	1.402796	0.190847	0.500078
C75	C	0.966886	-0.352488	0.000083
C76	C	1.466886	0.147512	0.500083
C77	C	1.078042	0.172997	0.000104
C78	C	1.578042	0.672997	0.500104
C79	C	1.165326	0.180346	0.000108
C80	C	1.665326	0.680346	0.500108
C81	C	0.938660	0.312379	0.000083
C82	C	1.438660	0.812379	0.500083
C83	C	0.946008	0.399663	0.000078
C84	C	1.446008	0.899663	0.500078
N85	N	0.934825	0.169168	0.195757
N86	N	1.434825	0.669168	0.695757
N87	N	0.934868	0.169187	-0.195575
N88	N	1.434868	0.669187	0.304425
C89	C	0.984680	0.119353	0.239029
C90	C	1.484680	0.619353	0.739029
C91	C	0.984684	0.119352	0.325576
C92	C	1.484684	0.619352	0.825576
C93	C	0.934836	0.169171	0.368849
C94	C	1.434836	0.669171	0.868849
C95	C	0.884975	0.218989	0.325571
C96	C	1.384975	0.718989	0.825571
C97	C	0.884968	0.218985	0.239025
C98	C	1.384968	0.718985	0.739025
C99	C	0.885003	0.219005	0.674599
C100	C	1.385003	0.719005	1.174599
C101	C	0.885016	0.219007	0.761151
C102	C	1.385016	0.719007	1.261151
C103	C	0.984719	0.119373	0.761150
C104	C	1.484719	0.619373	1.261150
C105	C	0.984712	0.119369	0.674604
C106	C	1.484712	0.619369	1.174604
C107	C	0.934849	0.169183	0.631333
C108	C	1.434849	0.669183	1.131333
C109	C	0.934844	0.169182	0.537489
C110	C	1.434844	0.669182	1.037489
C111	C	0.934844	0.169177	0.462692
C112	C	1.434844	0.669177	0.962692
H113	H	0.181300	0.052315	0.000117
H114	H	0.681300	0.552315	0.500117
H115	H	0.844384	0.259549	0.360809
H116	H	1.344384	0.759549	0.860809
H117	H	0.844421	0.259577	0.796382
H118	H	1.344421	0.759577	1.296382
F119	F	0.716505	0.011834	0.000090
F120	F	1.216505	0.511834	0.500090
F121	F	1.092187	-0.612481	0.000105
F122	F	1.592187	-0.112481	0.500105
H123	H	0.688384	0.286042	0.000055
H124	H	1.188384	0.786042	0.500055
F125	F	0.831902	0.272003	0.192973
F126	F	1.331902	0.772003	0.692973
H127	H	0.817978	-0.584363	0.000075
H128	H	1.317978	-0.084363	0.500075
H129	H	0.426863	0.076578	0.000124
H130	H	0.926863	0.576578	0.500124
H131	H	1.025306	0.078804	0.639374
H132	H	1.525306	0.578804	1.139374
F133	F	0.341480	0.047979	0.000118
F134	F	0.841480	0.547979	0.500118
F135	F	0.451917	0.280375	0.000087
F136	F	0.951917	0.780375	0.500087
H137	H	0.830511	-0.435587	0.000059
H138	H	1.330511	0.064413	0.500059
F139	F	0.777497	-0.049157	0.000065
F140	F	1.277497	0.450843	0.500065
F141	F	0.528203	0.290375	0.000068
F142	F	1.028203	0.790375	0.500068
H143	H	1.027441	-0.322847	0.000073
H144	H	1.527441	0.177153	0.500073
H145	H	0.313370	0.322190	0.000070
H146	H	0.813370	0.822190	0.500070
H147	H	0.844404	0.259567	0.639375
H148	H	1.344404	0.759567	1.139375
F149	F	0.153181	0.326524	0.000089
F150	F	0.653181	0.826524	0.500089
H151	H	1.051705	-0.077279	0.000117
H152	H	1.551705	0.422721	0.500117
F153	F	0.547212	-0.002426	0.000105
F154	F	1.047212	0.497574	0.500105
F155	F	1.056038	-0.237460	0.000105
F156	F	1.556038	0.262540	0.500105
H157	H	1.087853	-0.452293	0.000106
H158	H	1.587853	0.047707	0.500106
H159	H	1.025319	0.078809	0.796390
H160	H	1.525319	0.578809	1.296390
H161	H	1.025276	0.078788	0.203802
H162	H	1.525276	0.578788	0.703802
F163	F	0.763237	-0.218451	0.000053
F164	F	1.263237	0.281549	0.500053
F165	F	0.823644	-0.347901	0.000063
F166	F	1.323644	0.152099	0.500063
H167	H	1.025280	0.078789	0.360808
H168	H	1.525280	0.578789	0.860808
