data_functionalizedCrystal
_audit_creation_method	'MofGen! by Chris Wilmer'
_symmetry_space_group_name_H-M	'P1'
_symmetry_Int_Tables_number	1
_symmetry_cell_setting	triclinic
loop_
_symmetry_equiv_pos_as_xyz
  x,y,z
_cell_length_a	13.033293
_cell_length_b	16.120531
_cell_length_c	13.032268
_cell_angle_alpha	80.361611
_cell_angle_beta	89.079182
_cell_angle_gamma	79.562967
loop_
_atom_site_label
_atom_site_type_symbol
_atom_site_fract_x
_atom_site_fract_y
_atom_site_fract_z
Zn1	Zn	1.479864	0.262706	-0.795768
Zn2	Zn	1.493017	0.384052	-0.630393
Zn3	Zn	1.330040	0.258247	-0.601701
Zn4	Zn	1.296775	0.419252	-0.782348
O5	O	1.399924	0.331064	-0.702553
O6	O	1.626438	0.265938	-0.791455
O7	O	1.490823	0.350766	-0.481776
O8	O	1.358332	0.140674	-0.621053
O9	O	1.636101	0.355090	-0.669955
O10	O	1.468407	0.143950	-0.763633
O11	O	1.371085	0.258338	-0.460696
O12	O	1.180798	0.292470	-0.608040
O13	O	1.301637	0.415084	-0.928939
O14	O	1.156359	0.410760	-0.740760
O15	O	1.436151	0.300070	-0.938799
O16	O	1.458568	0.506886	-0.656942
O17	O	1.314390	0.532748	-0.768582
C18	C	1.131025	0.354952	-0.669831
C19	C	1.015985	0.365194	-0.655858
C20	C	0.959896	0.325740	-0.709846
C21	C	0.840995	0.336325	-0.695406
C22	C	1.384321	0.550456	-0.714445
C23	C	1.377737	0.644308	-0.719579
C24	C	1.365717	0.816138	-0.728974
C25	C	1.434178	0.845140	-0.676077
C26	C	1.427490	0.940752	-0.681305
C27	C	1.372403	0.720518	-0.723748
C28	C	1.669873	0.307085	-0.735403
C29	C	1.784909	0.296866	-0.749401
C30	C	1.363716	0.362001	-0.972467
C31	C	1.348287	0.375184	-1.087488
C32	C	1.415579	1.110817	-0.690616
C33	C	1.422162	1.016964	-0.685469
C34	C	1.407963	0.324155	-1.143646
C35	C	1.392017	0.337779	-1.262527
C36	C	1.436055	0.300182	-0.433693
C37	C	1.451702	0.286743	-0.318683
H38	H	0.800994	0.377940	-0.638488
F39	F	0.837189	0.242462	-0.823788
H40	H	0.975979	0.406806	-0.598944
H41	H	1.497810	0.798163	-0.626864
F42	F	1.282548	0.877537	-0.793292
F43	F	1.012182	0.271343	-0.784232
F44	F	1.266070	0.445469	-1.139674
F45	F	1.533928	0.216458	-1.266504
F46	F	1.490155	0.253851	-1.091455
H47	H	1.329111	0.391553	-1.302453
