data_functionalizedCrystal
_audit_creation_method	'MofGen! by Chris Wilmer'
_symmetry_space_group_name_H-M	'P1'
_symmetry_Int_Tables_number	1
_symmetry_cell_setting	triclinic
loop_
_symmetry_equiv_pos_as_xyz
  x,y,z
_cell_length_a	14.853567
_cell_length_b	10.540539
_cell_length_c	13.930277
_cell_angle_alpha	89.997612
_cell_angle_beta	89.995755
_cell_angle_gamma	84.080211
loop_
_atom_site_label
_atom_site_type_symbol
_atom_site_fract_x
_atom_site_fract_y
_atom_site_fract_z
O1	O	1.197288	0.165727	-0.079760
O2	O	0.934938	0.185470	-0.079776
O3	O	1.072098	-0.009174	-0.079766
O4	O	1.060128	0.360371	-0.079770
O5	O	1.072079	-0.009178	0.079895
O6	O	0.934919	0.185465	0.079886
O7	O	1.197269	0.165723	0.079902
Zn8	Zn	1.066091	0.175594	0.105244
Zn9	Zn	1.066116	0.175599	-0.105118
O10	O	1.060108	0.360367	0.079892
C11	C	0.901335	0.184573	0.000053
C12	C	0.801236	0.181892	0.000047
C13	C	1.071191	-0.056469	0.000063
C14	C	1.068505	-0.197388	0.000057
C15	C	0.387998	0.054938	0.000069
C16	C	0.368000	0.286179	0.000066
C17	C	0.462048	0.288700	0.000063
C18	C	0.519075	0.174338	0.000062
C19	C	0.482055	0.057455	0.000063
C20	C	0.499075	0.405580	0.000052
C21	C	0.593129	0.408105	0.000048
C22	C	0.650158	0.293742	0.000053
C23	C	0.613132	0.176855	0.000056
C24	C	0.670159	0.062493	0.000054
C25	C	0.633135	-0.054396	0.000064
C26	C	0.539084	-0.056908	0.000069
C27	C	0.744209	0.296254	0.000048
C28	C	0.764216	0.065010	0.000048
C29	C	0.965588	-0.379682	-0.000307
C30	C	0.968311	-0.233094	0.000052
C31	C	1.116712	-0.259578	0.091235
C32	C	1.113293	-0.406085	0.091312
C33	C	1.115353	-0.406621	-0.090254
C34	C	1.116276	-0.259649	-0.091459
C35	C	1.230872	0.166620	0.000071
C36	C	1.330971	0.169300	0.000071
C37	C	1.061016	0.407662	0.000061
C38	C	1.063702	0.548580	0.000060
N39	N	1.066080	0.175589	0.248810
N40	N	1.066134	0.175594	-0.248684
C41	C	1.005379	0.261753	0.701075
C42	C	1.126878	0.089435	0.701053
C43	C	1.126867	0.089431	0.600557
C44	C	1.066112	0.175591	0.550315
C45	C	1.005368	0.261755	0.600570
C46	C	1.187617	0.003277	0.550295
C47	C	1.187609	0.003271	0.449793
C48	C	1.126849	0.089426	0.399550
C49	C	1.066102	0.175592	0.449810
C50	C	1.005347	0.261752	0.399569
C51	C	0.944594	0.347913	0.449828
C52	C	0.944608	0.347909	0.550327
C53	C	1.126835	0.089429	0.299051
C54	C	1.005336	0.261753	0.299064
H55	H	0.810642	-0.028119	0.000051
H56	H	1.176347	0.019292	0.741962
N57	N	1.072413	-0.447931	-0.181797
H58	H	1.118278	-0.505037	-0.219666
H59	H	1.019035	-0.496061	-0.165570
H60	H	1.077649	-0.433894	0.159465
N61	N	0.499152	-0.182971	0.000086
H62	H	0.430918	-0.167209	0.000088
H63	H	0.519958	-0.233027	-0.059100
N64	N	0.879087	0.440833	0.604532
H65	H	0.888317	0.427760	0.675821
H66	H	0.890074	0.530912	0.586959
N67	N	0.913364	-0.419110	0.085814
H68	H	0.894193	-0.341728	0.126525
H69	H	0.857966	-0.458805	0.063478
H70	H	1.189326	-0.236231	-0.096960
H71	H	1.176303	0.019284	0.258135
N72	N	0.694646	-0.177741	0.000055
H73	H	0.759843	-0.158401	0.000045
H74	H	0.682582	-0.228672	0.059248
H75	H	0.452638	0.498687	0.000043
H76	H	0.926017	-0.407845	-0.065692
H77	H	0.955913	0.331901	0.741998
N78	N	0.633059	0.534169	0.000031
H79	H	0.582660	0.606233	0.000029
H80	H	0.671644	0.540256	0.059217
N81	N	1.208736	-0.470688	0.096803
H82	H	1.252842	-0.403956	0.099168
H83	H	1.215592	-0.525079	0.156564
N84	N	0.348073	-0.071130	0.000092
H85	H	0.279839	-0.055379	0.000102
H86	H	0.368877	-0.121185	-0.059094
N87	N	0.784145	0.422309	0.000028
H88	H	0.733747	0.494374	0.000023
H89	H	0.822729	0.428398	0.059214
H90	H	0.930378	-0.190072	-0.065308
N91	N	1.069614	-0.204930	-0.180813
H92	H	1.017749	-0.140076	-0.162101
H93	H	1.114281	-0.162403	-0.221272
H94	H	0.321563	0.379287	0.000060
N95	N	0.917703	-0.177211	0.086769
H96	H	0.852783	-0.197566	0.083962
H97	H	0.947228	-0.215008	0.147043
H98	H	1.237076	-0.066887	0.408879
N99	N	1.214188	-0.231092	0.095721
H100	H	1.228067	-0.177463	0.038558
H101	H	1.224523	-0.183095	0.156820
N102	N	1.072352	-0.202657	0.181112
H103	H	1.021037	-0.136603	0.162975
H104	H	1.047968	-0.272227	0.220193
H105	H	1.187723	-0.454643	-0.090862
H106	H	0.955858	0.331910	0.258163
H107	H	0.895131	0.418070	0.408910
H108	H	1.237086	-0.066865	0.591205
