data_functionalizedCrystal
_audit_creation_method	'MofGen! by Chris Wilmer'
_symmetry_space_group_name_H-M	'P1'
_symmetry_Int_Tables_number	1
_symmetry_cell_setting	triclinic
loop_
_symmetry_equiv_pos_as_xyz
  x,y,z
_cell_length_a	13.897449
_cell_length_b	12.645330
_cell_length_c	13.897441
_cell_angle_alpha	90.029436
_cell_angle_beta	90.020733
_cell_angle_gamma	90.013926
loop_
_atom_site_label
_atom_site_type_symbol
_atom_site_fract_x
_atom_site_fract_y
_atom_site_fract_z
Zn1	Zn	1.474736	-0.421969	0.545389
Zn2	Zn	1.808070	-0.088636	0.878722
Zn3	Zn	2.141403	0.244697	1.212056
Zn4	Zn	1.474645	-0.599265	0.384094
Zn5	Zn	1.807978	-0.265931	0.717427
Zn6	Zn	2.141311	0.067402	1.050760
Zn7	Zn	1.313426	-0.422020	0.384107
Zn8	Zn	1.646759	-0.088686	0.717441
Zn9	Zn	1.980092	0.244647	1.050774
Zn10	Zn	1.313421	-0.599195	0.545346
Zn11	Zn	1.646755	-0.265862	0.878680
Zn12	Zn	1.980088	0.067472	1.212013
O13	O	1.394057	-0.510612	0.464734
O14	O	1.727390	-0.177279	0.798067
O15	O	2.060724	0.156054	1.131401
O16	O	1.609706	-0.445496	0.524005
O17	O	1.943039	-0.112163	0.857338
O18	O	2.276373	0.221171	1.190672
O19	O	1.453222	-0.575803	0.249114
O20	O	1.786555	-0.242470	0.582447
O21	O	2.119889	0.090864	0.915780
O22	O	1.334864	-0.273666	0.405525
O23	O	1.668197	0.059667	0.738859
O24	O	2.001531	0.393001	1.072192
O25	O	1.609638	-0.575754	0.405502
O26	O	1.942972	-0.242421	0.738835
O27	O	2.276305	0.090912	1.072169
O28	O	1.453378	-0.273629	0.524018
O29	O	1.786712	0.059705	0.857352
O30	O	2.120045	0.393038	1.190685
O31	O	1.334775	-0.445582	0.249124
O32	O	1.668108	-0.112249	0.582457
O33	O	2.001442	0.221085	0.915790
O34	O	1.178443	-0.445514	0.405484
O35	O	1.511777	-0.112181	0.738817
O36	O	1.845110	0.221152	1.072151
O37	O	1.334857	-0.575635	0.680334
O38	O	1.668190	-0.242302	1.013667
O39	O	2.001524	0.091031	1.347000
O40	O	1.178440	-0.575684	0.523945
O41	O	1.511774	-0.242351	0.857279
O42	O	1.845107	0.090982	1.190612
O43	O	1.453374	-0.445428	0.680365
O44	O	1.786708	-0.112095	1.013698
O45	O	2.120041	0.221238	1.347032
O46	O	1.453218	-0.747603	0.405461
O47	O	1.786551	-0.414269	0.738794
O48	O	2.119885	-0.080936	1.072127
O49	O	1.334768	-0.747552	0.523932
O50	O	1.668101	-0.414218	0.857265
O51	O	2.001435	-0.080885	1.190599
C52	C	1.143443	-0.510598	0.464712
C53	C	1.476776	-0.177265	0.798045
C54	C	1.810109	0.156069	1.131379
C55	C	1.036229	-0.510618	0.464726
C56	C	1.369562	-0.177284	0.798059
C57	C	1.702895	0.156049	1.131392
C58	C	0.839934	-0.510621	0.464751
C59	C	1.173267	-0.177288	0.798084
C60	C	1.506600	0.156045	1.131417
C61	C	0.949166	-0.510616	0.464734
C62	C	1.282499	-0.177283	0.798067
C63	C	1.615833	0.156051	1.131401
C64	C	1.394009	-0.786042	0.464711
C65	C	1.727342	-0.452709	0.798045
C66	C	2.060675	-0.119375	1.131378
C67	C	1.394076	-0.903872	0.464734
C68	C	1.727410	-0.570539	0.798067
C69	C	2.060743	-0.237205	1.131400
C70	C	1.468474	-1.071424	0.390052
C71	C	1.801807	-0.738091	0.723385
C72	C	2.135140	-0.404757	1.056719
C73	C	1.468716	-0.948864	0.390235
C74	C	1.802049	-0.615530	0.723568
C75	C	2.135383	-0.282197	1.056902
C76	C	1.421645	-0.948249	0.566410
C77	C	1.754979	-0.614915	0.899743
C78	C	2.088312	-0.281582	1.233077
C79	C	1.422236	-1.070847	0.566014
C80	C	1.755569	-0.737513	0.899347
C81	C	2.088902	-0.404180	1.232680
C82	C	1.292081	-1.071203	0.438741
C83	C	1.625414	-0.737870	0.772075
C84	C	1.958747	-0.404537	1.105408
C85	C	1.292570	-0.948599	0.436461
C86	C	1.625903	-0.615265	0.769794
C87	C	1.959236	-0.281932	1.103128
C88	C	1.645650	-0.510627	0.464757
C89	C	1.978983	-0.177294	0.798090
C90	C	2.312317	0.156039	1.131423
C91	C	1.752864	-0.510634	0.464766
C92	C	2.086197	-0.177300	0.798100
C93	C	2.419531	0.156033	1.131433
C94	C	1.394125	-0.510519	0.716327
C95	C	1.727459	-0.177185	1.049661
C96	C	2.060792	0.156148	1.382994
C97	C	1.394155	-0.510479	0.823541
C98	C	1.727488	-0.177145	1.156875
C99	C	2.060821	0.156188	1.490208
C100	C	1.394132	-0.234107	0.464778
C101	C	1.727465	0.099226	0.798111
C102	C	2.060798	0.432560	1.131445
C103	C	1.394164	-0.116277	0.464797
C104	C	1.727497	0.217056	0.798130
C105	C	2.060830	0.550390	1.131464
C106	C	1.394044	-0.510629	0.214120
C107	C	1.727378	-0.177296	0.547453
C108	C	2.060711	0.156038	0.880786
C109	C	1.394202	-0.510370	0.106906
C110	C	1.727535	-0.177037	0.440240
C111	C	2.060869	0.156296	0.773573
C112	C	1.394181	-0.510407	1.019836
C113	C	1.727514	-0.177074	1.353170
C114	C	2.060847	0.156260	1.686503
C115	C	1.394163	-0.510450	0.910604
C116	C	1.727497	-0.177116	1.243937
C117	C	2.060830	0.156217	1.577271
H118	H	1.451467	-0.918865	0.314843
H119	H	1.784800	-0.585531	0.648177
H120	H	2.118133	-0.252198	0.981510
H121	H	1.370483	-1.100513	0.623623
H122	H	1.703816	-0.767179	0.956956
H123	H	2.037149	-0.433846	1.290290
Cl124	Cl	1.206597	-1.115989	0.522788
Cl125	Cl	1.539930	-0.782656	0.856121
Cl126	Cl	1.873264	-0.449323	1.189454
H127	H	1.234216	-0.917984	0.486910
H128	H	1.567549	-0.584650	0.820243
H129	H	1.900883	-0.251317	1.153576
Cl130	Cl	1.340621	-0.903263	0.654698
Cl131	Cl	1.673955	-0.569930	0.988032
Cl132	Cl	2.007288	-0.236597	1.321365
Cl133	Cl	1.535549	-0.900716	0.601057
Cl134	Cl	1.868883	-0.567382	0.934390
Cl135	Cl	2.202216	-0.234049	1.267724
H136	H	1.544325	-0.919453	0.407469
H137	H	1.877658	-0.586120	0.740802
H138	H	2.210992	-0.252786	1.074135
H139	H	1.267011	-1.102216	0.365890
H140	H	1.600344	-0.768883	0.699224
H141	H	1.933677	-0.435550	1.032557
Cl142	Cl	1.584585	-1.118858	0.416360
Cl143	Cl	1.917919	-0.785524	0.749694
Cl144	Cl	2.251252	-0.452191	1.083027
Cl145	Cl	1.442184	-1.117063	0.273309
Cl146	Cl	1.775518	-0.783730	0.606642
Cl147	Cl	2.108851	-0.450397	0.939976
Cl148	Cl	1.537440	-1.114869	0.600086
Cl149	Cl	1.870773	-0.781535	0.933419
Cl150	Cl	2.204106	-0.448202	1.266753
Cl151	Cl	1.260467	-0.903830	0.320940
Cl152	Cl	1.593800	-0.570496	0.654273
Cl153	Cl	1.927134	-0.237163	0.987607
