data_functionalizedCrystal
_audit_creation_method	'MofGen! by Chris Wilmer'
_symmetry_space_group_name_H-M	'P1'
_symmetry_Int_Tables_number	1
_symmetry_cell_setting	triclinic
loop_
_symmetry_equiv_pos_as_xyz
  x,y,z
_cell_length_a	16.992694
_cell_length_b	10.540539
_cell_length_c	16.053802
_cell_angle_alpha	92.593658
_cell_angle_beta	87.249047
_cell_angle_gamma	87.596857
loop_
_atom_site_label
_atom_site_type_symbol
_atom_site_fract_x
_atom_site_fract_y
_atom_site_fract_z
O1	O	1.045174	0.264306	-0.069318
O2	O	1.545174	0.764306	0.430682
O3	O	0.816873	0.261349	-0.069343
O4	O	1.316873	0.761349	0.430657
O5	O	0.936232	0.078573	-0.069329
O6	O	1.436232	0.578573	0.430671
O7	O	0.925815	0.447082	-0.069332
O8	O	1.425815	0.947082	0.430668
O9	O	0.929662	0.088589	0.069529
O10	O	1.429662	0.588589	0.569529
O11	O	0.810303	0.271366	0.069516
O12	O	1.310303	0.771366	0.569516
O13	O	1.038604	0.274322	0.069540
O14	O	1.538604	0.774322	0.569540
Zn15	Zn	0.923410	0.274434	0.091575
Zn16	Zn	1.423410	0.774434	0.591575
Zn17	Zn	0.932067	0.261237	-0.091377
Zn18	Zn	1.432067	0.761237	0.408623
O19	O	0.919245	0.457098	0.069526
O20	O	1.419245	0.957098	0.569526
C21	C	0.784355	0.262556	0.000083
C22	C	1.284355	0.762556	0.500083
C23	C	0.697247	0.251215	0.000074
C24	C	1.197247	0.751215	0.500074
C25	C	0.647620	0.360635	0.000073
C26	C	1.147620	0.860635	0.500073
C27	C	0.565773	0.349973	0.000085
C28	C	1.065773	0.849973	0.500085
C29	C	0.533555	0.229889	0.000091
C30	C	1.033555	0.729889	0.500091
C31	C	0.583189	0.120461	0.000094
C32	C	1.083189	0.620461	0.500094
C33	C	0.665034	0.131125	0.000088
C34	C	1.165034	0.631125	0.500088
C35	C	0.289709	0.185691	0.000114
C36	C	0.789709	0.685691	0.500114
C37	C	0.207858	0.175036	0.000117
C38	C	0.707858	0.675036	0.500117
C39	C	0.190447	0.404549	0.000110
C40	C	0.690447	0.904549	0.500110
C41	C	0.272294	0.415202	0.000099
C42	C	0.772294	0.915202	0.500099
C43	C	0.321921	0.305774	0.000106
C44	C	0.821921	0.805774	0.500106
N45	N	0.449895	0.218988	0.000100
N46	N	0.949895	0.718988	0.500100
N47	N	0.405579	0.316677	0.000103
N48	N	0.905579	0.816677	0.500103
C49	C	0.932166	0.036210	0.000099
C50	C	1.432166	0.536210	0.500099
C51	C	0.929829	-0.104941	0.000094
C52	C	1.429829	0.395059	0.500094
C53	C	0.840283	-0.296162	-0.000227
C54	C	1.340283	0.203838	0.499773
C55	C	0.842638	-0.149316	0.000086
C56	C	1.342638	0.350684	0.500086
C57	C	0.968037	-0.157237	0.079393
C58	C	1.468037	0.342763	0.579393
C59	C	0.965058	-0.304035	0.079460
C60	C	1.465058	0.195965	0.579460
C61	C	0.974303	-0.315790	-0.078448
C62	C	1.474303	0.184210	0.421552
C63	C	0.975156	-0.168814	-0.079496
C64	C	1.475156	0.331186	0.420504
C65	C	1.071123	0.273115	0.000112
C66	C	1.571123	0.773115	0.500112
C67	C	1.158230	0.284456	0.000117
C68	C	1.658230	0.784456	0.500117
C69	C	0.923311	0.499461	0.000097
C70	C	1.423311	0.999461	0.500097
C71	C	0.925649	0.640612	0.000096
C72	C	1.425649	1.140612	0.500096
N73	N	0.917508	0.283440	0.216434
N74	N	1.417508	0.783440	0.716434
N75	N	0.937975	0.252222	-0.216237
N76	N	1.437975	0.752222	0.283763
C77	C	0.968315	0.205700	0.260134
C78	C	1.468315	0.705700	0.760134
C79	C	0.964193	0.212013	0.347540
C80	C	1.464193	0.712013	0.847540
C81	C	0.909269	0.296073	0.391245
C82	C	1.409269	0.796073	0.891245
C83	C	0.858458	0.373817	0.347539
C84	C	1.358458	0.873817	0.847539
C85	C	0.862576	0.367497	0.260134
C86	C	1.362576	0.867497	0.760134
C87	C	0.891281	0.323645	0.652653
C88	C	1.391281	0.823645	1.152653
C89	C	0.887169	0.329962	0.740063
C90	C	1.387169	0.829962	1.240063
C91	C	0.992904	0.168156	0.740059
C92	C	1.492904	0.668156	1.240059
C93	C	0.997020	0.161848	0.652652
C94	C	1.497020	0.661848	1.152652
C95	C	0.946206	0.239587	0.608954
C96	C	1.446206	0.739587	1.108954
N97	N	0.905057	0.302531	0.480588
N98	N	1.405057	0.802531	0.980588
N99	N	0.950415	0.233122	0.519612
N100	N	1.450415	0.733122	1.019612
H101	H	0.150032	0.493638	0.000105
H102	H	0.650032	0.993638	0.500105
N103	N	1.047703	0.084302	0.787188
N104	N	1.547703	0.584302	1.287188
H105	H	1.104180	0.103533	0.771967
H106	H	1.604180	0.603533	1.271967
H107	H	1.036695	0.101095	0.849175
H108	H	1.536695	0.601095	1.349175
N109	N	0.173107	0.045511	0.000118
N110	N	0.673107	0.545511	0.500118
H111	H	0.216964	-0.022195	0.000122
H112	H	0.716964	0.477805	0.500122
H113	H	0.137095	0.039807	0.051594
H114	H	0.637095	0.539807	0.551594
H115	H	0.298520	0.512986	0.000084
H116	H	0.798520	1.012986	0.500084
H117	H	0.821203	0.430799	0.224555
H118	H	1.321203	0.930799	0.724555
N119	N	0.799223	0.464490	0.394676
N120	N	1.299223	0.964490	0.894676
H121	H	0.767661	0.512778	0.353727
H122	H	1.267661	1.012778	0.853727
H123	H	0.762561	0.414941	0.430953
H124	H	1.262561	0.914941	0.930953
N125	N	0.512281	0.468033	0.000100
N126	N	1.012281	0.968033	0.500100
H127	H	0.480350	0.465063	-0.051363
H128	H	0.980350	0.965063	0.448637
H129	H	0.475567	0.472397	0.051620
H130	H	0.975567	0.972397	0.551620
H131	H	0.948927	-0.354127	-0.138551
H132	H	1.448927	0.145873	0.361449
H133	H	0.931243	-0.330650	0.138731
H134	H	1.431243	0.169350	0.638731
H135	H	0.673844	0.458420	0.000068
H136	H	1.173844	0.958420	0.500068
H137	H	0.330106	0.096587	0.000120
H138	H	0.830106	0.596587	0.500120
N139	N	0.718563	0.013106	0.000081
N140	N	1.218563	0.513106	0.500081
H141	H	0.775300	0.038081	0.000080
H142	H	1.275300	0.538081	0.500080
H143	H	0.705630	-0.035153	0.051560
H144	H	1.205630	0.464847	0.551560
N145	N	0.548445	-0.009059	0.000114
N146	N	1.048445	0.490941	0.500114
H147	H	0.489066	0.000786	0.000117
H148	H	0.989066	0.500786	0.500117
H149	H	0.568981	-0.061029	-0.051360
H150	H	1.068981	0.438971	0.448640
N151	N	0.802466	-0.102096	-0.075208
N152	N	1.302466	0.397904	0.424792
H153	H	0.783065	-0.176706	-0.108901
H154	H	1.283065	0.323294	0.391099
H155	H	0.756297	-0.042621	-0.056209
H156	H	1.256297	0.457379	0.443791
N157	N	1.047884	-0.360045	0.084259
N158	N	1.547884	0.139955	0.584259
H159	H	1.061514	-0.418228	0.033437
H160	H	1.561514	0.081772	0.533437
H161	H	1.086118	-0.289283	0.086351
H162	H	1.586118	0.210717	0.586351
N163	N	0.798215	-0.343435	-0.075550
N164	N	1.298215	0.156565	0.424450
H165	H	0.834080	-0.406299	-0.110196
H166	H	1.334080	0.093701	0.389804
H167	H	0.748865	-0.386302	-0.056563
H168	H	1.248865	0.113698	0.443437
N169	N	0.791296	-0.334703	0.074666
N170	N	1.291296	0.165297	0.574666
H171	H	0.824160	-0.392942	0.108803
H172	H	1.324160	0.107058	0.608803
H173	H	0.772950	-0.256362	0.110008
H174	H	1.272950	0.243638	0.610008
H175	H	0.842440	0.398419	0.775644
H176	H	1.342440	0.898419	1.275644
H177	H	0.806696	-0.106338	0.057018
H178	H	1.306696	0.393662	0.557018
H179	H	1.031928	-0.129114	0.082349
H180	H	1.531928	0.370886	0.582349
H181	H	0.936097	-0.112911	0.138399
H182	H	1.436097	0.387089	0.638399
H183	H	0.849907	0.386945	0.617080
H184	H	1.349907	0.886945	1.117080
H185	H	1.041744	0.093400	0.617070
H186	H	1.541744	0.593400	1.117070
N187	N	0.938218	-0.123741	-0.157209
N188	N	1.438218	0.376259	0.342791
H189	H	0.892316	-0.062199	-0.140937
H190	H	1.392316	0.437801	0.359063
H191	H	0.978748	-0.079889	-0.192394
H192	H	1.478748	0.420111	0.307606
H193	H	1.038951	-0.139421	-0.084277
H194	H	1.538951	0.360579	0.415723
H195	H	1.005563	0.148710	0.383120
H196	H	1.505563	0.648710	0.883120
H197	H	1.037306	-0.357589	-0.078974
H198	H	1.537306	0.142411	0.421026
H199	H	1.013043	0.137255	0.224555
H200	H	1.513043	0.637255	0.724555
