data_functionalizedCrystal
_audit_creation_method	'MofGen! by Chris Wilmer'
_symmetry_space_group_name_H-M	'P1'
_symmetry_Int_Tables_number	1
_symmetry_cell_setting	triclinic
loop_
_symmetry_equiv_pos_as_xyz
  x,y,z
_cell_length_a	8.497374
_cell_length_b	8.497374
_cell_length_c	13.897449
_cell_angle_alpha	89.997628
_cell_angle_beta	90.002811
_cell_angle_gamma	90.004389
loop_
_atom_site_label
_atom_site_type_symbol
_atom_site_fract_x
_atom_site_fract_y
_atom_site_fract_z
Zn1	Zn	0.892135	0.628262	1.474643
Zn2	Zn	0.628400	0.892012	1.474634
Zn3	Zn	0.628359	0.628246	1.313383
Zn4	Zn	0.892129	0.892000	1.313361
O5	O	0.760256	0.760130	1.394005
O6	O	0.857170	0.663261	1.609624
O7	O	0.407633	0.857021	1.453250
O8	O	0.663335	0.407486	1.334787
O9	O	0.663405	0.857037	1.609617
O10	O	0.857130	0.407498	1.453265
O11	O	0.407602	0.663233	1.334779
O12	O	0.663329	0.663221	1.178398
O13	O	1.112892	0.857017	1.334750
O14	O	0.857119	0.857001	1.178382
O15	O	1.112896	0.663250	1.453243
O16	O	0.663399	1.112773	1.453228
O17	O	0.857160	1.112764	1.334741
C18	C	0.760220	0.760109	1.143391
C19	C	0.760242	0.760138	1.036177
C20	C	1.350376	0.760156	1.394011
C21	C	1.171732	0.760148	1.394001
C22	C	0.760279	1.170010	1.393993
C23	C	0.760253	1.348654	1.394019
C24	C	0.760283	0.760144	0.839882
C25	C	0.760256	0.760136	0.949114
C26	C	0.760293	0.760152	1.645598
C27	C	0.760309	0.760162	1.752812
