data_functionalizedCrystal
_audit_creation_method	'MofGen! by Chris Wilmer'
_symmetry_space_group_name_H-M	'P1'
_symmetry_Int_Tables_number	1
_symmetry_cell_setting	triclinic
loop_
_symmetry_equiv_pos_as_xyz
  x,y,z
_cell_length_a	12.811445
_cell_length_b	12.837942
_cell_length_c	18.366186
_cell_angle_alpha	89.994829
_cell_angle_beta	84.559541
_cell_angle_gamma	89.412982
loop_
_atom_site_label
_atom_site_type_symbol
_atom_site_fract_x
_atom_site_fract_y
_atom_site_fract_z
O1	O	1.406666	0.139722	-0.153427
O2	O	1.102598	0.154903	-0.133352
O3	O	1.247889	-0.003620	-0.142940
O4	O	1.261374	0.298244	-0.143839
O5	O	1.247861	-0.003628	-0.021838
O6	O	1.102570	0.154895	-0.012250
O7	O	1.406638	0.139714	-0.032326
Zn8	Zn	1.254599	0.147303	-0.003061
Zn9	Zn	1.254636	0.147314	-0.162617
O10	O	1.261346	0.298236	-0.022738
C11	C	1.063394	0.154047	-0.070214
C12	C	0.946620	0.151495	-0.062504
C13	C	0.727217	0.146729	-0.180055
C14	C	0.617498	0.144332	-0.172814
C15	C	0.617459	0.144312	-0.040782
C16	C	0.727179	0.146709	-0.048023
C17	C	0.782054	0.147916	-0.117661
C18	C	0.891776	0.150305	-0.124902
C19	C	0.891735	0.150292	0.007129
C20	C	0.782016	0.147895	0.014370
C21	C	1.243320	-0.042264	-0.082089
C22	C	1.229734	-0.157400	-0.081193
C23	C	1.393065	-0.397650	-0.091992
C24	C	1.380304	-0.505831	-0.091150
C25	C	1.191453	-0.481946	-0.078674
C26	C	1.204213	-0.373765	-0.079516
C27	C	1.305023	-0.331621	-0.086173
C28	C	1.317782	-0.223438	-0.087009
C29	C	1.128932	-0.199554	-0.074539
C30	C	1.116171	-0.307736	-0.073697
C31	C	1.445841	0.140570	-0.095465
C32	C	1.562615	0.143122	-0.103180
C33	C	1.265915	0.336881	-0.083590
C34	C	1.279502	0.452017	-0.084491
N35	N	1.254581	0.147295	0.105832
N36	N	1.254661	0.147313	-0.271510
C37	C	1.318943	0.077136	0.139685
C38	C	1.318950	0.077132	0.215912
C39	C	1.254605	0.147304	0.258283
C40	C	1.190231	0.217468	0.224421
C41	C	1.190218	0.217464	0.148196
C42	C	1.250295	0.241695	0.379325
C43	C	1.250314	0.241700	0.455549
C44	C	1.254637	0.147317	0.493388
C45	C	1.258961	0.052924	0.454993
C46	C	1.258949	0.052920	0.378768
C47	C	1.254611	0.147316	0.340937
C48	C	1.319009	0.077147	0.609896
C49	C	1.319007	0.077141	0.686125
C50	C	1.190294	0.217487	0.694632
C51	C	1.190290	0.217484	0.618405
C52	C	1.254653	0.147315	0.576041
H53	H	0.572761	0.143338	0.015914
Cl54	Cl	1.399870	-0.011075	0.258478
H55	H	0.936395	0.151257	0.057935
Cl56	Cl	1.444512	-0.170458	-0.095374
H57	H	1.371415	0.020004	0.713688
H58	H	1.137900	0.274619	0.729130
Cl59	Cl	1.490991	-0.588837	-0.098467
H60	H	1.137839	0.274602	0.258924
H61	H	1.109378	-0.516279	-0.073262
H62	H	0.737321	0.146916	0.071068
H63	H	1.475148	-0.363336	-0.097405
Cl64	Cl	1.109380	0.305694	0.575842
Cl65	Cl	0.989447	-0.360727	-0.065334
Cl66	Cl	1.264374	-0.065740	0.330503
H67	H	1.057241	-0.145781	-0.069795
H68	H	1.371349	0.019999	0.105194
Cl69	Cl	1.264404	-0.065737	0.502554
Cl70	Cl	1.244885	0.360364	0.503808
H71	H	0.572854	0.143368	-0.223621
Cl72	Cl	1.399915	-0.011069	0.556637
Cl73	Cl	1.244959	0.360363	0.331757
H74	H	1.137806	0.274597	0.120633
H75	H	0.936454	0.151287	-0.181605
H76	H	0.771898	0.147707	-0.236757
