data_functionalizedCrystal
_audit_creation_method	'MofGen! by Chris Wilmer'
_symmetry_space_group_name_H-M	'P1'
_symmetry_Int_Tables_number	1
_symmetry_cell_setting	triclinic
loop_
_symmetry_equiv_pos_as_xyz
  x,y,z
_cell_length_a	13.033291
_cell_length_b	18.101395
_cell_length_c	13.032268
_cell_angle_alpha	97.146252
_cell_angle_beta	89.079236
_cell_angle_gamma	97.200752
loop_
_atom_site_label
_atom_site_type_symbol
_atom_site_fract_x
_atom_site_fract_y
_atom_site_fract_z
Zn1	Zn	1.498388	-0.230406	-0.781468
Zn2	Zn	1.998388	0.269594	-0.281468
Zn3	Zn	1.520096	-0.336832	-0.609490
Zn4	Zn	2.020096	0.163168	-0.109490
Zn5	Zn	1.348249	-0.226495	-0.587644
Zn6	Zn	1.848249	0.273505	-0.087644
Zn7	Zn	1.326337	-0.367705	-0.759528
Zn8	Zn	1.826337	0.132295	-0.259528
O9	O	1.423267	-0.290359	-0.684533
O10	O	1.923267	0.209641	-0.184533
O11	O	1.645190	-0.233239	-0.776979
O12	O	2.145190	0.266761	-0.276979
O13	O	1.515556	-0.307639	-0.462684
O14	O	2.015556	0.192361	0.037316
O15	O	1.368251	-0.123377	-0.613395
O16	O	1.868251	0.376623	-0.113395
O17	O	1.661139	-0.311431	-0.650627
O18	O	2.161139	0.188569	-0.150627
O19	O	1.478557	-0.126250	-0.755797
O20	O	1.978557	0.373750	-0.255797
O21	O	1.389301	-0.226574	-0.446635
O22	O	1.889301	0.273426	0.053365
O23	O	1.201420	-0.256510	-0.592121
O24	O	1.701420	0.243490	-0.092121
O25	O	1.330904	-0.364049	-0.906346
O26	O	1.830904	0.135951	-0.406346
O27	O	1.185321	-0.360257	-0.718403
O28	O	1.685321	0.139743	-0.218403
O29	O	1.457309	-0.263176	-0.922466
O30	O	1.957309	0.236824	-0.422466
O31	O	1.494308	-0.444565	-0.629353
O32	O	1.994308	0.055435	-0.129353
O33	O	1.351954	-0.467247	-0.739586
O34	O	1.851954	0.032753	-0.239586
C35	C	1.156053	-0.311310	-0.650511
C36	C	1.656053	0.188690	-0.150511
C37	C	1.041734	-0.320293	-0.635981
C38	C	1.541734	0.179707	-0.135981
C39	C	0.864711	-0.294968	-0.677107
C40	C	1.364711	0.205032	-0.177107
C41	C	0.982866	-0.285685	-0.692124
C42	C	1.482866	0.214315	-0.192124
C43	C	1.423134	-0.482778	-0.684485
C44	C	1.923134	0.017222	-0.184485
C45	C	1.423166	-0.565091	-0.684511
C46	C	1.923166	-0.065091	-0.184511
C47	C	1.423385	-0.864170	-0.684595
C48	C	1.923385	-0.364170	-0.184595
C49	C	1.333979	-0.847152	-0.754171
C50	C	1.833979	-0.347152	-0.254171
C51	C	1.333633	-0.761539	-0.753874
C52	C	1.833633	-0.261539	-0.253874
C53	C	1.423276	-0.715794	-0.684554
C54	C	1.923276	-0.215794	-0.184554
C55	C	1.407705	-0.738260	-0.572443
C56	C	1.907705	-0.238260	-0.072443
C57	C	1.407133	-0.823994	-0.572854
C58	C	1.907133	-0.323994	-0.072854
C59	C	1.528657	-0.826791	-0.726199
C60	C	2.028657	-0.326791	-0.226199
C61	C	1.527715	-0.741431	-0.728494
C62	C	2.027715	-0.241431	-0.228494
C63	C	1.423217	-0.631937	-0.684525
C64	C	1.923217	-0.131937	-0.184525
C65	C	1.423442	-0.948026	-0.684617
C66	C	1.923442	-0.448026	-0.184617
C67	C	1.691525	-0.269328	-0.718687
C68	C	2.191525	0.230672	-0.218687
C69	C	1.805841	-0.260365	-0.733242
C70	C	2.305841	0.239635	-0.233242
C71	C	1.389241	-0.317492	-0.952763
C72	C	1.889241	0.182508	-0.452763
C73	C	1.374741	-0.329055	-1.067067
C74	C	1.874741	0.170945	-0.567067
C75	C	1.423427	-0.097190	-0.684607
C76	C	1.923427	0.402810	-0.184607
C77	C	1.423495	-0.014872	-0.684638
C78	C	1.923495	0.485128	-0.184638
C79	C	1.430819	-0.284300	-1.126002
C80	C	1.930819	0.215700	-0.626002
C81	C	1.415834	-0.296249	-1.244142
C82	C	1.915834	0.203751	-0.744142
C83	C	1.457221	-0.263274	-0.417353
C84	C	1.957221	0.236726	0.082647
C85	C	1.471920	-0.251487	-0.303076
C86	C	1.971920	0.248513	0.196924
H87	H	1.004668	-0.356794	-0.576800
H88	H	1.504668	0.143206	-0.076800
O89	O	0.854934	-0.212011	-0.811624
O90	O	1.354934	0.287989	-0.311624
H91	H	0.824145	-0.234560	-0.889712
H92	H	1.324145	0.265440	-0.389712
H93	H	1.341780	-0.747181	-0.836571
H94	H	1.841780	-0.247181	-0.336571
H95	H	1.341910	-0.874447	-0.837105
H96	H	1.841910	-0.374447	-0.337105
H97	H	1.545538	-0.854115	-0.807285
H98	H	2.045538	-0.354115	-0.307285
O99	O	1.509110	-0.221824	-1.076993
O100	O	2.009110	0.278176	-0.576993
H101	H	1.547905	-0.190854	-1.138134
H102	H	2.047905	0.309146	-0.638134
O103	O	1.543607	-0.722859	-0.837870
O104	O	2.043607	-0.222859	-0.337870
H105	H	1.548758	-0.775255	-0.890828
H106	H	2.048758	-0.275255	-0.390828
O107	O	1.490641	-0.837456	-0.500868
O108	O	1.990641	-0.337456	-0.000868
H109	H	1.490867	-0.898733	-0.500633
H110	H	1.990867	-0.398733	-0.000633
H111	H	1.256131	-0.873187	-0.725816
H112	H	1.756131	-0.373187	-0.225816
O113	O	1.229918	-0.740384	-0.715900
O114	O	1.729918	-0.240384	-0.215900
H115	H	1.179816	-0.791334	-0.697669
H116	H	1.679816	-0.291334	-0.197669
O117	O	1.492043	-0.697279	-0.501088
O118	O	1.992043	-0.197279	-0.001088
H119	H	1.546078	-0.660372	-0.544879
H120	H	2.046078	-0.160372	-0.044879
O121	O	1.550225	-0.189013	-1.254075
O122	O	2.050225	0.310987	-0.754075
H123	H	1.530046	-0.134333	-1.272402
H124	H	2.030046	0.365667	-0.772402
H125	H	0.827640	-0.331462	-0.617926
H126	H	1.327640	0.168538	-0.117926
H127	H	1.596746	-0.709685	-0.682613
H128	H	2.096746	-0.209685	-0.182613
O129	O	1.337528	-0.358724	-1.293138
O130	O	1.837528	0.141276	-0.793138
H131	H	1.377362	-0.397714	-1.347923
H132	H	1.877362	0.102286	-0.847923
O133	O	1.296446	-0.391529	-1.116075
O134	O	1.796446	0.108471	-0.616075
H135	H	1.218327	-0.383085	-1.085249
H136	H	1.718327	0.116915	-0.585249
H137	H	1.019934	-0.249182	-0.751300
H138	H	1.519934	0.250818	-0.251300
O139	O	1.305747	-0.855664	-0.528304
O140	O	1.805747	-0.355664	-0.028304
H141	H	1.240987	-0.844610	-0.576176
H142	H	1.740987	-0.344610	-0.076176
O143	O	1.307499	-0.714908	-0.527463
O144	O	1.807499	-0.214908	-0.027463
H145	H	1.268643	-0.687306	-0.584754
H146	H	1.768643	-0.187306	-0.084754
O147	O	1.616705	-0.839861	-0.659479
O148	O	2.116705	-0.339861	-0.159479
H149	H	1.585702	-0.872790	-0.596973
H150	H	2.085702	-0.372790	-0.096973
