data_functionalizedCrystal
_audit_creation_method	'MofGen! by Chris Wilmer'
_symmetry_space_group_name_H-M	'P1'
_symmetry_Int_Tables_number	1
_symmetry_cell_setting	triclinic
loop_
_symmetry_equiv_pos_as_xyz
  x,y,z
_cell_length_a	19.077068
_cell_length_b	19.077312
_cell_length_c	19.076919
_cell_angle_alpha	94.668947
_cell_angle_beta	94.470751
_cell_angle_gamma	89.941008
loop_
_atom_site_label
_atom_site_type_symbol
_atom_site_fract_x
_atom_site_fract_y
_atom_site_fract_z
Zn1	Zn	-0.337071	1.047525	-0.369357
Zn2	Zn	0.162929	1.547525	0.130643
Zn3	Zn	-0.450221	1.047438	-0.256204
Zn4	Zn	0.049779	1.547438	0.243796
Zn5	Zn	-0.328008	0.934762	-0.255845
Zn6	Zn	0.171992	1.434762	0.244155
Zn7	Zn	-0.450192	0.924870	-0.378786
Zn8	Zn	0.049808	1.424870	0.121214
O9	O	-0.391373	0.988649	-0.315048
O10	O	0.108627	1.488649	0.184952
O11	O	-0.355886	1.146000	-0.350551
O12	O	0.144114	1.646000	0.149449
O13	O	-0.430229	1.036594	-0.157351
O14	O	0.069771	1.536594	0.342649
O15	O	-0.230722	0.953897	-0.266806
O16	O	0.269278	1.453897	0.233194
O17	O	-0.439017	1.145936	-0.267418
O18	O	0.060983	1.645936	0.232582
O19	O	-0.237381	1.036743	-0.350202
O20	O	0.262619	1.536743	0.149798
O21	O	-0.340439	0.953812	-0.157087
O22	O	0.159561	1.453812	0.342913
O23	O	-0.340411	0.834964	-0.275950
O24	O	0.159589	1.334964	0.224050
O25	O	-0.438968	0.937037	-0.476341
O26	O	0.061032	1.437037	0.023659
O27	O	-0.430179	0.827696	-0.366274
O28	O	0.069821	1.327696	0.133726
O29	O	-0.355858	1.027151	-0.469413
O30	O	0.144142	1.527151	0.030587
O31	O	-0.548706	1.027003	-0.276562
O32	O	-0.048706	1.527003	0.223438
O33	O	-0.548685	0.936953	-0.366622
O34	O	-0.048685	1.436953	0.133378
C35	C	-0.384309	0.805793	-0.322096
C36	C	0.115691	1.305793	0.177904
C37	C	-0.381304	0.727566	-0.325129
C38	C	0.118696	1.227566	0.174871
C39	C	-0.359698	0.287231	-0.346886
C40	C	0.140302	0.787231	0.153114
C41	C	-0.362534	0.360734	-0.344033
C42	C	0.137466	0.860734	0.155967
C43	C	-0.407157	0.397449	-0.299247
C44	C	0.092843	0.897449	0.200753
C45	C	-0.448952	0.360657	-0.257318
C46	C	0.051048	0.860657	0.242682
C47	C	-0.446119	0.287155	-0.260175
C48	C	0.053881	0.787155	0.239825
C49	C	-0.420266	0.617272	-0.286057
C50	C	0.079734	1.117272	0.213943
C51	C	-0.423094	0.690779	-0.283201
C52	C	0.076906	1.190779	0.216799
C53	C	-0.336677	0.690851	-0.369917
C54	C	0.163323	1.190851	0.130083
C55	C	-0.333845	0.617348	-0.372768
C56	C	0.166155	1.117348	0.127232
C57	C	-0.375643	0.580562	-0.330841
C58	C	0.124357	1.080562	0.169159
N59	N	-0.410056	0.472581	-0.296329
N60	N	0.089944	0.972581	0.203671
N61	N	-0.372747	0.505431	-0.333764
N62	N	0.127253	1.005431	0.166236
C63	C	-0.574233	0.980914	-0.322669
C64	C	-0.074233	1.480914	0.177331
C65	C	-0.652465	0.977668	-0.325950
C66	C	-0.152465	1.477668	0.174050
C67	C	-0.689209	1.023060	-0.280638
C68	C	-0.189209	1.523060	0.219362
C69	C	-0.762716	1.020011	-0.283728
C70	C	-0.262716	1.520011	0.216272
C71	C	-0.799478	0.971566	-0.332127
C72	C	-0.299478	1.471566	0.167873
C73	C	-0.762729	0.926172	-0.377444
C74	C	-0.262729	1.426172	0.122556
C75	C	-0.689223	0.929224	-0.374357
C76	C	-0.189223	1.429224	0.125643
C77	C	-1.019318	0.957408	-0.346388
C78	C	-0.519318	1.457408	0.153612
C79	C	-1.092829	0.954357	-0.349471
C80	C	-0.592829	1.454357	0.150529
C81	C	-1.092811	1.048198	-0.255755
C82	C	-0.592811	1.548198	0.244245
C83	C	-1.019304	1.051244	-0.252669
C84	C	-0.519304	1.551244	0.247331
C85	C	-0.982561	1.005852	-0.297989
C86	C	-0.482561	1.505852	0.202011
N87	N	-0.874614	0.968447	-0.335286
N88	N	-0.374614	1.468447	0.164714
N89	N	-0.907427	1.008975	-0.294833
N90	N	-0.407427	1.508975	0.205167
C91	C	-0.207800	0.996433	-0.307413
C92	C	0.292200	1.496433	0.192587
C93	C	-0.129573	0.999750	-0.304159
C94	C	0.370427	1.499750	0.195841
C95	C	-0.398421	0.981001	-0.499212
C96	C	0.101579	1.481001	0.000788
C97	C	-0.401424	0.977741	-0.577692
C98	C	0.098576	1.477741	-0.077692
C99	C	-0.398466	1.172218	-0.307973
C100	C	0.101534	1.672218	0.192027
C101	C	-0.401488	1.250444	-0.304958
C102	C	0.098512	1.750444	0.195042
C103	C	-0.359566	1.023125	-0.610957
C104	C	0.140434	1.523125	-0.110957
C105	C	-0.362385	1.020054	-0.684697
C106	C	0.137615	1.520054	-0.184697
C107	C	-0.407065	0.971603	-0.725172
C108	C	0.092935	1.471603	-0.225172
C109	C	-0.448925	0.926214	-0.691903
C110	C	0.051075	1.426214	-0.191903
C111	C	-0.446102	0.929282	-0.618164
C112	C	0.053898	1.429282	-0.118164
C113	C	-0.420145	0.957393	-0.946095
C114	C	0.079855	1.457393	-0.446095
C115	C	-0.422966	0.954330	-1.019839
C116	C	0.077034	1.454330	-0.519839
C117	C	-0.336424	1.048170	-1.012629
C118	C	0.163576	1.548170	-0.512629
C119	C	-0.333609	1.051236	-0.938888
C120	C	0.166391	1.551236	-0.438888
C121	C	-0.375465	1.005845	-0.905626
C122	C	0.124535	1.505845	-0.405626
N123	N	-0.409949	0.968464	-0.800547
N124	N	0.090051	1.468464	-0.300547
N125	N	-0.372577	1.008981	-0.830252
N126	N	0.127423	1.508981	-0.330252
C127	C	-0.384304	0.996310	-0.131597
C128	C	0.115696	1.496310	0.368403
C129	C	-0.381108	0.999714	-0.053104
C130	C	0.118892	1.499714	0.446896
H131	H	-0.485288	0.390556	-0.220855
H132	H	0.014712	0.890556	0.279145
O133	O	-1.128614	1.092268	-0.211816
O134	O	-0.628614	1.592268	0.288184
C135	C	-1.201374	1.079179	-0.224906
C136	C	-0.701374	1.579179	0.275094
H137	H	-1.212602	1.053398	-0.280686
H138	H	-0.712602	1.553398	0.219314
H139	H	-1.231117	1.130942	-0.219308
H140	H	-0.731117	1.630942	0.280692
H141	H	-1.219239	1.042615	-0.185311
H142	H	-0.719239	1.542615	0.314689
H143	H	-0.480151	0.257205	-0.226034
H144	H	0.019849	0.757205	0.273966
H145	H	-0.659282	1.062507	-0.241223
H146	H	-0.159282	1.562507	0.258777
O147	O	-0.296152	0.726691	-0.410623
O148	O	0.203848	1.226691	0.089377
C149	C	-0.308205	0.799440	-0.398488
C150	C	0.191795	1.299440	0.101512
H151	H	-0.361980	0.808140	-0.377141
H152	H	0.138020	1.308140	0.122859
H153	H	-0.306619	0.825391	-0.450103
H154	H	0.193381	1.325391	0.049897
H155	H	-0.265764	0.823614	-0.358408
H156	H	0.234236	1.323614	0.141592
O157	O	-0.466443	0.907352	-1.059192
O158	O	0.033557	1.407352	-0.559192
C159	C	-0.515072	0.943714	-1.102209
C160	C	-0.015072	1.443714	-0.602209
H161	H	-0.520725	0.999880	-1.078030
H162	H	-0.020725	1.499880	-0.578030
H163	H	-0.568279	0.915917	-1.106287
H164	H	-0.068279	1.415917	-0.606287
H165	H	-0.495538	0.944747	-1.157092
H166	H	0.004462	1.444747	-0.657092
O167	O	-0.460863	0.913264	-0.913902
O168	O	0.039137	1.413264	-0.413902
C169	C	-0.500886	0.869828	-0.965441
C170	C	-0.000886	1.369828	-0.465441
H171	H	-0.506464	0.896375	-1.016991
H172	H	-0.006464	1.396375	-0.516991
H173	H	-0.555226	0.860833	-0.946727
H174	H	-0.055226	1.360833	-0.446727
H175	H	-0.473332	0.817153	-0.974281
H176	H	0.026668	1.317153	-0.474281
H177	H	-0.297227	1.090693	-0.905938
H178	H	0.202773	1.590693	-0.405938
H179	H	-0.792667	0.886729	-0.416855
H180	H	-0.292667	1.386729	0.083145
H181	H	-0.323184	1.062582	-0.578007
H182	H	0.176816	1.562582	-0.078007
O183	O	-0.295787	1.092183	-1.045053
O184	O	0.204213	1.592183	-0.545053
C185	C	-0.307869	1.079101	-1.118816
C186	C	0.192131	1.579101	-0.618816
H187	H	-0.329208	1.023392	-1.131937
H188	H	0.170792	1.523392	-0.631937
H189	H	-0.256407	1.084942	-1.144464
H190	H	0.243593	1.584942	-0.644464
H191	H	-0.347760	1.118389	-1.139695
H192	H	0.152240	1.618389	-0.639695
H193	H	-0.989408	0.920447	-0.383287
H194	H	-0.489408	1.420447	0.116713
H195	H	-0.459434	0.720671	-0.246730
H196	H	0.040566	1.220671	0.253270
H197	H	-0.454299	0.587330	-0.251915
H198	H	0.045701	1.087330	0.248085
O199	O	-0.653635	0.885060	-0.418404
O200	O	-0.153635	1.385060	0.081596
C201	C	-0.701843	0.841659	-0.461799
C202	C	-0.201843	1.341659	0.038201
H203	H	-0.753054	0.838263	-0.435168
H204	H	-0.253054	1.338263	0.064832
H205	H	-0.678792	0.786773	-0.470541
H206	H	-0.178792	1.286773	0.029459
H207	H	-0.712666	0.864844	-0.514775
H208	H	-0.212666	1.364844	-0.014775
H209	H	-0.323357	0.257343	-0.383350
H210	H	0.176643	0.757343	0.116650
H211	H	-0.989374	1.090692	-0.213259
H212	H	-0.489374	1.590692	0.286741
H213	H	-0.792630	1.056974	-0.246830
H214	H	-0.292630	1.556974	0.253170
H215	H	-1.122759	0.914915	-0.388895
H216	H	-0.622759	1.414915	0.111105
O217	O	-0.321903	0.396554	-0.384656
O218	O	0.178097	0.896554	0.115344
C219	C	-0.276477	0.442640	-0.340982
C220	C	0.223523	0.942640	0.159018
H221	H	-0.299592	0.454810	-0.288037
H222	H	0.200408	0.954810	0.211963
H223	H	-0.270186	0.493539	-0.367357
H224	H	0.229814	0.993539	0.132643
H225	H	-0.222921	0.416840	-0.332237
H226	H	0.277079	0.916840	0.167763
H227	H	-0.328301	1.057012	-0.711777
H228	H	0.171699	1.557012	-0.211777
O229	O	-0.492407	0.879243	-0.731249
O230	O	0.007593	1.379243	-0.231249
C231	C	-0.541035	0.915609	-0.774263
C232	C	-0.041035	1.415609	-0.274263
H233	H	-0.546675	0.971779	-0.750088
H234	H	-0.046675	1.471779	-0.250088
H235	H	-0.594246	0.887822	-0.778332
H236	H	-0.094246	1.387822	-0.278332
H237	H	-0.521508	0.916633	-0.829151
H238	H	-0.021508	1.416633	-0.329151
O239	O	-0.486842	0.885175	-0.585961
O240	O	0.013158	1.385175	-0.085961
C241	C	-0.526876	0.841744	-0.637495
C242	C	-0.026876	1.341744	-0.137495
H243	H	-0.532431	0.868278	-0.689053
H244	H	-0.032431	1.368278	-0.189053
H245	H	-0.581225	0.832783	-0.618786
H246	H	-0.081225	1.332783	-0.118786
H247	H	-0.499346	0.789055	-0.646317
H248	H	0.000654	1.289055	-0.146317
H249	H	-0.297511	0.587459	-0.409239
H250	H	0.202489	1.087459	0.090761
