data_functionalizedCrystal
_audit_creation_method	'MofGen! by Chris Wilmer'
_symmetry_space_group_name_H-M	'P1'
_symmetry_Int_Tables_number	1
_symmetry_cell_setting	triclinic
loop_
_symmetry_equiv_pos_as_xyz
  x,y,z
_cell_length_a	18.050591
_cell_length_b	25.639239
_cell_length_c	18.050583
_cell_angle_alpha	89.961658
_cell_angle_beta	89.977979
_cell_angle_gamma	90.034692
loop_
_atom_site_label
_atom_site_type_symbol
_atom_site_fract_x
_atom_site_fract_y
_atom_site_fract_z
Zn1	Zn	1.135247	-0.208169	-0.420021
Zn2	Zn	1.468580	0.125164	-0.086687
Zn3	Zn	1.801913	0.458498	0.246646
Zn4	Zn	1.135132	-0.295618	-0.295826
Zn5	Zn	1.468466	0.037716	0.037507
Zn6	Zn	1.801799	0.371049	0.370840
Zn7	Zn	1.011063	-0.208192	-0.295832
Zn8	Zn	1.344397	0.125141	0.037501
Zn9	Zn	1.677730	0.458475	0.370835
Zn10	Zn	1.010991	-0.295569	-0.419962
Zn11	Zn	1.344324	0.037764	-0.086628
Zn12	Zn	1.677658	0.371098	0.246705
O13	O	1.073108	-0.251887	-0.357910
O14	O	1.406442	0.081446	-0.024577
O15	O	1.739775	0.414780	0.308757
O16	O	1.239156	-0.219780	-0.403568
O17	O	1.572489	0.113553	-0.070235
O18	O	1.905823	0.446887	0.263098
O19	O	1.118657	-0.284050	-0.191902
O20	O	1.451990	0.049283	0.141431
O21	O	1.785323	0.382616	0.474764
O22	O	1.027615	-0.135024	-0.312333
O23	O	1.360948	0.198310	0.021001
O24	O	1.694281	0.531643	0.354334
O25	O	1.239072	-0.284028	-0.312323
O26	O	1.572405	0.049305	0.021010
O27	O	1.905739	0.382639	0.354343
O28	O	1.118852	-0.135007	-0.403574
O29	O	1.452185	0.198327	-0.070241
O30	O	1.785518	0.531660	0.263093
O31	O	1.027504	-0.219819	-0.191906
O32	O	1.360837	0.113514	0.141427
O33	O	1.694170	0.446848	0.474760
O34	O	0.907129	-0.219772	-0.312276
O35	O	1.240463	0.113561	0.021058
O36	O	1.573796	0.446895	0.354391
O37	O	1.027491	-0.283945	-0.523894
O38	O	1.360825	0.049388	-0.190561
O39	O	1.694158	0.382721	0.142772
O40	O	0.907076	-0.283968	-0.403473
O41	O	1.240409	0.049366	-0.070140
O42	O	1.573743	0.382699	0.263193
O43	O	1.118781	-0.219733	-0.523938
O44	O	1.452115	0.113600	-0.190604
O45	O	1.785448	0.446934	0.142729
O46	O	1.118587	-0.368776	-0.312266
O47	O	1.451920	-0.035443	0.021067
O48	O	1.785253	0.297890	0.354401
O49	O	1.027381	-0.368741	-0.403468
O50	O	1.360714	-0.035407	-0.070135
O51	O	1.694047	0.297926	0.263199
C52	C	0.880156	-0.251867	-0.357869
C53	C	1.213490	0.081466	-0.024536
C54	C	1.546823	0.414799	0.308798
C55	C	0.797610	-0.251872	-0.357869
C56	C	1.130944	0.081462	-0.024536
C57	C	1.464277	0.414795	0.308798
C58	C	1.072983	-0.387730	-0.357876
C59	C	1.406317	-0.054396	-0.024543
C60	C	1.739650	0.278937	0.308791
C61	C	1.072998	-0.445844	-0.357886
C62	C	1.406331	-0.112510	-0.024553
C63	C	1.739665	0.220823	0.308780
C64	C	0.598167	-0.216922	-0.308390
C65	C	0.931500	0.116412	0.024943
C66	C	1.264834	0.449745	0.358277
C67	C	0.548735	-0.264612	-0.290112
C68	C	0.882068	0.068721	0.043222
C69	C	1.215401	0.402054	0.376555
C70	C	0.646480	-0.251888	-0.357903
C71	C	0.979813	0.081446	-0.024569
C72	C	1.313147	0.414779	0.308764
C73	C	0.548831	-0.204213	-0.376179
C74	C	0.882164	0.129120	-0.042846
C75	C	1.215497	0.462453	0.290487
C76	C	0.500495	-0.251899	-0.357934
C77	C	0.833828	0.081435	-0.024600
C78	C	1.167162	0.414768	0.308733
C79	C	0.598135	-0.299603	-0.339589
C80	C	0.931468	0.033730	-0.006255
C81	C	1.264802	0.367063	0.327078
C82	C	0.598235	-0.239172	-0.425688
C83	C	0.931569	0.094161	-0.092355
C84	C	1.264902	0.427494	0.240979
C85	C	0.548825	-0.286896	-0.407435
C86	C	0.882158	0.046437	-0.074102
C87	C	1.215492	0.379771	0.259231
C88	C	0.730578	-0.251880	-0.357883
C89	C	1.063912	0.081453	-0.024550
C90	C	1.397245	0.414786	0.308784
C91	C	0.416398	-0.251911	-0.357954
C92	C	0.749732	0.081422	-0.024620
C93	C	1.083065	0.414755	0.308713
C94	C	1.120723	-0.806213	-0.310502
C95	C	1.454057	-0.472879	0.022831
C96	C	1.787390	-0.139546	0.356164
C97	C	1.120752	-0.860817	-0.310512
C98	C	1.454085	-0.527484	0.022821
C99	C	1.787419	-0.194150	0.356154
O100	O	1.161200	-0.889059	-0.270187
O101	O	1.494533	-0.555725	0.063146
O102	O	1.827867	-0.222392	0.396479
N103	N	1.073239	-0.888126	-0.357959
N104	N	1.406572	-0.554793	-0.024626
N105	N	1.739906	-0.221459	0.308707
C106	C	1.025699	-0.860828	-0.405405
C107	C	1.359033	-0.527495	-0.072072
C108	C	1.692366	-0.194161	0.261262
O109	O	0.985289	-0.889070	-0.445764
O110	O	1.318622	-0.555737	-0.112431
O111	O	1.651955	-0.222404	0.220903
C112	C	1.025675	-0.806225	-0.405398
C113	C	1.359008	-0.472891	-0.072065
C114	C	1.692341	-0.139558	0.261268
C115	C	1.073186	-0.778918	-0.357943
C116	C	1.406519	-0.445585	-0.024609
C117	C	1.739852	-0.112252	0.308724
C118	C	1.168231	-0.778906	-0.263051
C119	C	1.501564	-0.445573	0.070282
C120	C	1.834897	-0.112240	0.403615
C121	C	1.168201	-0.724306	-0.263040
C122	C	1.501534	-0.390972	0.070293
C123	C	1.834867	-0.057639	0.403626
C124	C	1.120663	-0.697011	-0.310481
C125	C	1.453997	-0.363678	0.022852
C126	C	1.787330	-0.030345	0.356186
C127	C	1.073156	-0.724318	-0.357932
C128	C	1.406489	-0.390984	-0.024599
C129	C	1.739822	-0.057651	0.308735
C130	C	0.978139	-0.778928	-0.452847
C131	C	1.311473	-0.445594	-0.119514
C132	C	1.644806	-0.112261	0.213820
C133	C	0.978119	-0.724321	-0.452837
C134	C	1.311453	-0.390987	-0.119503
C135	C	1.644786	-0.057654	0.213830
C136	C	1.025630	-0.697014	-0.405381
C137	C	1.358964	-0.363681	-0.072048
C138	C	1.692297	-0.030348	0.261286
C139	C	1.025588	-0.642423	-0.405362
C140	C	1.358921	-0.309090	-0.072028
C141	C	1.692255	0.024244	0.261305
N142	N	1.073101	-0.615114	-0.357914
N143	N	1.406435	-0.281781	-0.024581
N144	N	1.739768	0.051553	0.308752
C145	C	1.120639	-0.642408	-0.310474
C146	C	1.453972	-0.309075	0.022859
C147	C	1.787305	0.024258	0.356193
C148	C	1.025755	-0.975499	-0.405416
C149	C	1.359089	-0.642165	-0.072083
C150	C	1.692422	-0.308832	0.261250
C151	C	1.025775	-1.030101	-0.405420
C152	C	1.359109	-0.696768	-0.072087
C153	C	1.692442	-0.363434	0.261247
C154	C	1.120829	-1.030086	-0.310528
C155	C	1.454163	-0.696753	0.022805
C156	C	1.787496	-0.363419	0.356139
C157	C	1.120805	-0.975483	-0.310521
C158	C	1.454138	-0.642149	0.022812
C159	C	1.787471	-0.308816	0.356145
C160	C	1.073268	-0.948189	-0.357969
C161	C	1.406602	-0.614856	-0.024636
C162	C	1.739935	-0.281523	0.308697
C163	C	1.120572	-0.527743	-0.310455
C164	C	1.453905	-0.194410	0.022879
C165	C	1.787239	0.138924	0.356212
C166	C	1.120536	-0.473138	-0.310446
C167	C	1.453869	-0.139804	0.022887
C168	C	1.787202	0.193529	0.356221
C169	C	1.025485	-0.473157	-0.405340
C170	C	1.358818	-0.139824	-0.072007
C171	C	1.692151	0.193509	0.261326
C172	C	1.025518	-0.527758	-0.405347
C173	C	1.358851	-0.194425	-0.072013
C174	C	1.692185	0.138909	0.261320
C175	C	1.073068	-0.555049	-0.357901
C176	C	1.406401	-0.221716	-0.024568
C177	C	1.739734	0.111617	0.308765
O178	O	0.985163	-0.614147	-0.445668
O179	O	1.318496	-0.280813	-0.112335
O180	O	1.651829	0.052520	0.220998
O181	O	1.161049	-0.614159	-0.270129
O182	O	1.494383	-0.280826	0.063204
O183	O	1.827716	0.052508	0.396538
C184	C	1.266814	-0.251907	-0.357952
C185	C	1.600147	0.081426	-0.024618
C186	C	1.933481	0.414760	0.308715
C187	C	1.349360	-0.251915	-0.357970
C188	C	1.682693	0.081418	-0.024636
C189	C	2.016026	0.414751	0.308697
C190	C	1.073141	-0.251831	-0.551616
C191	C	1.406475	0.081502	-0.218283
C192	C	1.739808	0.414836	0.115051
C193	C	1.073155	-0.251807	-0.634162
C194	C	1.406489	0.081526	-0.300828
C195	C	1.739822	0.414859	0.032505
C196	C	1.073254	-0.115514	-0.357961
C197	C	1.406587	0.217819	-0.024627
C198	C	1.739921	0.551153	0.308706
C199	C	1.073316	-0.057400	-0.357982
C200	C	1.406649	0.275934	-0.024649
C201	C	1.739983	0.609267	0.308685
C202	C	1.122848	-0.216872	-0.833636
C203	C	1.456182	0.116462	-0.500303
C204	C	1.789515	0.449795	-0.166969
C205	C	1.055118	-0.204072	-0.883024
C206	C	1.388451	0.129261	-0.549691
C207	C	1.721785	0.462595	-0.216358
C208	C	1.073185	-0.251798	-0.785292
C209	C	1.406518	0.081535	-0.451959
C210	C	1.739852	0.414868	-0.118625
C211	C	1.140943	-0.264565	-0.882986
C212	C	1.474276	0.068768	-0.549652
C213	C	1.807609	0.402102	-0.216319
C214	C	1.073220	-0.251789	-0.931277
C215	C	1.406553	0.081545	-0.597944
C216	C	1.739886	0.414878	-0.264611
C217	C	1.005419	-0.238974	-0.833593
C218	C	1.338752	0.094359	-0.500260
C219	C	1.672085	0.427693	-0.166927
C220	C	1.091289	-0.299489	-0.833550
C221	C	1.424622	0.033844	-0.500217
C222	C	1.757956	0.367177	-0.166883
C223	C	1.023512	-0.286708	-0.882916
C224	C	1.356845	0.046626	-0.549583
C225	C	1.690179	0.379959	-0.216249
C226	C	1.073166	-0.251803	-0.701194
C227	C	1.406499	0.081531	-0.367860
C228	C	1.739833	0.414864	-0.034527
C229	C	1.073231	-0.251785	-1.015374
C230	C	1.406564	0.081549	-0.682041
C231	C	1.739898	0.414882	-0.348707
C232	C	1.073118	-0.251905	-0.164958
C233	C	1.406452	0.081429	0.168375
C234	C	1.739785	0.414762	0.501709
C235	C	1.073248	-0.251781	-0.082413
C236	C	1.406582	0.081552	0.250921
C237	C	1.739915	0.414885	0.584254
H238	H	0.619832	-0.187384	-0.266473
H239	H	0.953165	0.145949	0.066860
H240	H	1.286498	0.479283	0.400193
C241	C	1.173118	-1.060117	-0.258342
C242	C	1.506452	-0.726783	0.074992
C243	C	1.839785	-0.393450	0.408325
H244	H	1.166328	-1.096546	-0.265150
H245	H	1.499661	-0.763213	0.068184
H246	H	1.832995	-0.429880	0.401517
H247	H	1.162276	-1.051204	-0.208431
H248	H	1.495610	-0.717870	0.124902
H249	H	1.828943	-0.384537	0.458236
H250	H	1.223010	-1.051133	-0.269261
H251	H	1.556344	-0.717800	0.064072
H252	H	1.889677	-0.384466	0.397406
C253	C	0.519575	-0.149744	-0.397051
C254	C	0.852909	0.183590	-0.063718
C255	C	1.186242	0.516923	0.269616
H256	H	0.536480	-0.124941	-0.361812
H257	H	0.869813	0.208392	-0.028478
H258	H	1.203146	0.541726	0.304855
H259	H	0.466954	-0.150213	-0.397358
H260	H	0.800287	0.183120	-0.064024
H261	H	1.133621	0.516453	0.269309
H262	H	0.537260	-0.140468	-0.444856
H263	H	0.870593	0.192866	-0.111523
H264	H	1.203927	0.526199	0.221810
H265	H	1.164778	-0.187317	-0.811995
H266	H	1.498112	0.146017	-0.478662
H267	H	1.831445	0.479350	-0.145328
H268	H	0.939447	-0.801151	-0.491487
H269	H	1.272781	-0.467818	-0.158154
H270	H	1.606114	-0.134484	0.175180
C271	C	0.519356	-0.279152	-0.212693
C272	C	0.852690	0.054182	0.120640
C273	C	1.186023	0.387515	0.453973
H274	H	0.536246	-0.254270	-0.177558
H275	H	0.869579	0.079063	0.155775
H276	H	1.202912	0.412396	0.489108
H277	H	0.536962	-0.312782	-0.199379
H278	H	0.870296	0.020551	0.133955
H279	H	1.203629	0.353885	0.467288
H280	H	0.466732	-0.279359	-0.213379
H281	H	0.800065	0.053974	0.119955
H282	H	1.133398	0.387307	0.453288
C283	C	1.220516	-0.808924	-0.210854
C284	C	1.553849	-0.475591	0.122480
C285	C	1.887182	-0.142257	0.455813
H286	H	1.213735	-0.845356	-0.217645
H287	H	1.547069	-0.512023	0.115688
H288	H	1.880402	-0.178690	0.449021
H289	H	1.209663	-0.800001	-0.160949
H290	H	1.542997	-0.466667	0.172384
H291	H	1.876330	-0.133334	0.505718
H292	H	1.270407	-0.799937	-0.221769
H293	H	1.603741	-0.466604	0.111564
H294	H	1.937074	-0.133270	0.444897
C295	C	1.172803	-0.443104	-0.258246
C296	C	1.506136	-0.109770	0.075087
C297	C	1.839470	0.223563	0.408420
H298	H	1.201123	-0.467183	-0.230001
H299	H	1.534457	-0.133849	0.103332
H300	H	1.867790	0.199484	0.436665
H301	H	1.144408	-0.421840	-0.225853
H302	H	1.477741	-0.088507	0.107481
H303	H	1.811075	0.244827	0.440814
H304	H	1.205135	-0.421766	-0.286690
H305	H	1.538468	-0.088433	0.046644
H306	H	1.871802	0.244901	0.379977
C307	C	0.925828	-0.694301	-0.505031
C308	C	1.259162	-0.360968	-0.171698
C309	C	1.592495	-0.027634	0.161635
H310	H	0.897537	-0.718387	-0.533289
H311	H	1.230870	-0.385054	-0.199955
H312	H	1.564203	-0.051721	0.133378
H313	H	0.954206	-0.672963	-0.537414
H314	H	1.287539	-0.339629	-0.204080
H315	H	1.620873	-0.006296	0.129253
H316	H	0.893470	-0.673039	-0.476586
H317	H	1.226803	-0.339706	-0.143252
H318	H	1.560137	-0.006372	0.190081
H319	H	1.106611	-0.339813	-0.811804
H320	H	1.439944	-0.006480	-0.478470
H321	H	1.773278	0.326854	-0.145137
C322	C	0.519736	-0.326889	-0.464019
C323	C	0.853069	0.006445	-0.130686
C324	C	1.186402	0.339778	0.202647
H325	H	0.490799	-0.309497	-0.500380
H326	H	0.824133	0.023836	-0.167046
H327	H	1.157466	0.357170	0.166287
H328	H	0.490069	-0.352090	-0.439299
H329	H	0.823403	-0.018756	-0.105966
H330	H	1.156736	0.314577	0.227367
H331	H	0.560398	-0.343747	-0.487298
H332	H	0.893731	-0.010414	-0.153964
H333	H	1.227065	0.322919	0.179369
H334	H	0.948115	-0.228125	-0.811988
H335	H	1.281449	0.105208	-0.478655
H336	H	1.614782	0.438542	-0.145322
C337	C	1.173072	-0.945451	-0.258327
C338	C	1.506405	-0.612117	0.075007
C339	C	1.839739	-0.278784	0.408340
H340	H	1.201387	-0.969531	-0.230079
H341	H	1.534721	-0.636198	0.103254
H342	H	1.868054	-0.302865	0.436587
H343	H	1.144680	-0.924183	-0.225935
H344	H	1.478013	-0.590850	0.107398
H345	H	1.811347	-0.257517	0.440732
H346	H	1.205408	-0.924117	-0.286771
H347	H	1.538742	-0.590784	0.046563
H348	H	1.872075	-0.257450	0.379896
H349	H	1.039816	-0.163737	-0.904756
H350	H	1.373150	0.169597	-0.571423
H351	H	1.706483	0.502930	-0.238090
C352	C	0.973509	-1.060132	-0.457616
C353	C	1.306842	-0.726799	-0.124283
C354	C	1.640176	-0.393465	0.209050
H355	H	0.945200	-1.036051	-0.485870
H356	H	1.278533	-0.702718	-0.152536
H357	H	1.611866	-0.369385	0.180797
H358	H	0.941178	-1.081472	-0.429184
H359	H	1.274511	-0.748139	-0.095850
H360	H	1.607845	-0.414806	0.237483
H361	H	1.001912	-1.081393	-0.490014
H362	H	1.335245	-0.748059	-0.156680
H363	H	1.668579	-0.414726	0.176653
C364	C	0.973257	-0.557796	-0.457545
C365	C	1.306590	-0.224463	-0.124212
C366	C	1.639923	0.108871	0.209122
H367	H	0.944944	-0.533718	-0.485799
H368	H	1.278277	-0.200385	-0.152466
H369	H	1.611611	0.132949	0.180867
H370	H	0.940928	-0.579140	-0.429114
H371	H	1.274262	-0.245807	-0.095781
H372	H	1.607595	0.087527	0.237552
H373	H	1.001666	-0.579053	-0.489941
H374	H	1.334999	-0.245720	-0.156608
H375	H	1.668333	0.087613	0.176726
H376	H	0.619703	-0.339937	-0.324080
H377	H	0.953036	-0.006604	0.009254
H378	H	1.286369	0.326729	0.342587
C379	C	0.627637	-0.224613	-0.503085
C380	C	0.960971	0.108720	-0.169752
C381	C	1.294304	0.442053	0.163582
H382	H	0.610788	-0.190708	-0.515988
H383	H	0.944121	0.142626	-0.182654
H384	H	1.277455	0.475959	0.150679
H385	H	0.610010	-0.249109	-0.538395
H386	H	0.943343	0.084224	-0.205061
H387	H	1.276676	0.417558	0.128272
H388	H	0.680261	-0.225028	-0.502616
H389	H	1.013595	0.108305	-0.169282
H390	H	1.346928	0.441638	0.164051
H391	H	1.159293	-0.549957	-0.271822
H392	H	1.492626	-0.216624	0.061511
H393	H	1.825960	0.116709	0.394845
H394	H	1.198229	-0.275366	-0.904684
H395	H	1.531563	0.057967	-0.571351
H396	H	1.864896	0.391300	-0.238017
H397	H	1.206890	-0.702076	-0.224400
H398	H	1.540224	-0.368743	0.108933
H399	H	1.873557	-0.035409	0.442266
C400	C	0.973453	-0.945480	-0.457604
C401	C	1.306786	-0.612147	-0.124270
C402	C	1.640119	-0.278814	0.209063
H403	H	0.945158	-0.969569	-0.485854
H404	H	1.278491	-0.636235	-0.152521
H405	H	1.611825	-0.302902	0.180812
H406	H	1.001824	-0.924143	-0.489993
H407	H	1.335157	-0.590809	-0.156659
H408	H	1.668491	-0.257476	0.176674
H409	H	0.941098	-0.924218	-0.429155
H410	H	1.274431	-0.590885	-0.095821
H411	H	1.607765	-0.257552	0.237512
C412	C	0.973201	-0.443127	-0.457524
C413	C	1.306534	-0.109793	-0.124191
C414	C	1.639868	0.223540	0.209142
H415	H	0.979999	-0.406697	-0.450724
H416	H	1.313332	-0.073364	-0.117390
H417	H	1.646665	0.259970	0.215943
H418	H	0.923311	-0.452111	-0.446615
H419	H	1.256644	-0.118778	-0.113282
H420	H	1.589978	0.214556	0.220052
H421	H	0.984053	-0.452039	-0.507437
H422	H	1.317386	-0.118706	-0.174104
H423	H	1.650720	0.214627	0.159230
C424	C	0.966734	-0.326601	-0.911973
C425	C	1.300067	0.006732	-0.578639
C426	C	1.633401	0.340066	-0.245306
H427	H	0.918658	-0.317443	-0.894969
H428	H	1.251991	0.015891	-0.561636
H429	H	1.585325	0.349224	-0.228302
H430	H	0.979171	-0.360380	-0.894284
H431	H	1.312505	-0.027047	-0.560951
H432	H	1.645838	0.306286	-0.227617
H433	H	0.967336	-0.326581	-0.964600
H434	H	1.300669	0.006752	-0.631266
H435	H	1.634003	0.340086	-0.297933
