data_functionalizedCrystal
_audit_creation_method	'MofGen! by Chris Wilmer'
_symmetry_space_group_name_H-M	'P1'
_symmetry_Int_Tables_number	1
_symmetry_cell_setting	triclinic
loop_
_symmetry_equiv_pos_as_xyz
  x,y,z
_cell_length_a	21.295419
_cell_length_b	21.295417
_cell_length_c	18.101390
_cell_angle_alpha	89.962939
_cell_angle_beta	89.980651
_cell_angle_gamma	90.045308
loop_
_atom_site_label
_atom_site_type_symbol
_atom_site_fract_x
_atom_site_fract_y
_atom_site_fract_z
Zn1	Zn	0.962323	-0.250337	-0.418712
Zn2	Zn	1.295657	0.082997	-0.085379
Zn3	Zn	1.628990	0.416330	0.247954
Zn4	Zn	0.962235	-0.355617	-0.294862
Zn5	Zn	1.295569	-0.022283	0.038472
Zn6	Zn	1.628902	0.311050	0.371805
Zn7	Zn	0.857056	-0.250393	-0.294885
Zn8	Zn	1.190389	0.082941	0.038448
Zn9	Zn	1.523723	0.416274	0.371782
Zn10	Zn	0.857016	-0.355599	-0.418662
Zn11	Zn	1.190349	-0.022266	-0.085329
Zn12	Zn	1.523683	0.311068	0.248005
O13	O	0.909658	-0.302986	-0.356780
O14	O	1.242991	0.030347	-0.023447
O15	O	1.576324	0.363680	0.309886
O16	O	1.050401	-0.264286	-0.402295
O17	O	1.383734	0.069047	-0.068961
O18	O	1.717068	0.402380	0.264372
O19	O	0.948263	-0.341689	-0.191232
O20	O	1.281596	-0.008356	0.142101
O21	O	1.614930	0.324977	0.475435
O22	O	0.871074	-0.162296	-0.311342
O23	O	1.204407	0.171038	0.021992
O24	O	1.537740	0.504371	0.355325
O25	O	1.050336	-0.341635	-0.311302
O26	O	1.383670	-0.008302	0.022031
O27	O	1.717003	0.325032	0.355364
O28	O	0.948413	-0.162255	-0.402317
O29	O	1.281746	0.171079	-0.068984
O30	O	1.615080	0.504412	0.264350
O31	O	0.870988	-0.264382	-0.191249
O32	O	1.204322	0.068952	0.142084
O33	O	1.537655	0.402285	0.475418
O34	O	0.768961	-0.264364	-0.311293
O35	O	1.102295	0.068969	0.022041
O36	O	1.435628	0.402302	0.355374
O37	O	0.871005	-0.341605	-0.522302
O38	O	1.204339	-0.008272	-0.188968
O39	O	1.537672	0.325062	0.144365
O40	O	0.768932	-0.341659	-0.402231
O41	O	1.102265	-0.008326	-0.068898
O42	O	1.435599	0.325007	0.264435
O43	O	0.948374	-0.264269	-0.522339
O44	O	1.281708	0.069064	-0.189005
O45	O	1.615041	0.402398	0.144328
O46	O	0.948224	-0.443704	-0.311253
O47	O	1.281557	-0.110371	0.022080
O48	O	1.614891	0.222963	0.355413
O49	O	0.870920	-0.443691	-0.402209
O50	O	1.204253	-0.110358	-0.068875
O51	O	1.537587	0.222976	0.264458
C52	C	0.746106	-0.303016	-0.356759
C53	C	1.079439	0.030317	-0.023426
C54	C	1.412773	0.363650	0.309907
C55	C	0.676138	-0.303045	-0.356768
C56	C	1.009471	0.030289	-0.023435
C57	C	1.342805	0.363622	0.309899
C58	C	0.643327	-0.262835	-0.404221
C59	C	0.976661	0.070499	-0.070888
C60	C	1.309994	0.403832	0.262446
C61	C	0.577585	-0.262818	-0.404224
C62	C	0.910918	0.070515	-0.070891
C63	C	1.244252	0.403849	0.262443
C64	C	0.544655	-0.303022	-0.356782
C65	C	0.877989	0.030311	-0.023448
C66	C	1.211322	0.363645	0.309885
C67	C	0.577474	-0.343235	-0.309319
C68	C	0.910807	-0.009901	0.024014
C69	C	1.244141	0.323432	0.357347
C70	C	0.643215	-0.343246	-0.309313
C71	C	0.976548	-0.009912	0.024021
C72	C	1.309882	0.323421	0.357354
N73	N	0.441380	-0.358101	-0.350994
N74	N	0.774714	-0.024767	-0.017660
N75	N	1.108047	0.308566	0.315673
N76	N	0.378929	-0.358088	-0.351005
N77	N	0.712262	-0.024755	-0.017671
N78	N	1.045596	0.308579	0.315662
C79	C	0.346581	-0.302989	-0.356798
C80	C	0.679914	0.030344	-0.023465
C81	C	1.013247	0.363677	0.309869
N82	N	0.379043	-0.247903	-0.362595
N83	N	0.712376	0.085431	-0.029261
N84	N	1.045710	0.418764	0.304072
N85	N	0.441500	-0.247916	-0.362588
N86	N	0.774834	0.085418	-0.029255
N87	N	1.108167	0.418751	0.304079
C88	C	0.473370	-0.303014	-0.356783
C89	C	0.806703	0.030319	-0.023450
C90	C	1.140037	0.363653	0.309883
C91	C	0.242485	-0.262758	-0.404257
C92	C	0.575818	0.070575	-0.070923
C93	C	0.909151	0.403909	0.262410
C94	C	0.176741	-0.262740	-0.404254
C95	C	0.510074	0.070593	-0.070921
C96	C	0.843408	0.403927	0.262412
C97	C	0.176631	-0.343162	-0.309354
C98	C	0.509965	-0.009829	0.023980
C99	C	0.843298	0.323504	0.357313
C100	C	0.242374	-0.343175	-0.309352
C101	C	0.575707	-0.009841	0.023981
C102	C	0.909040	0.323492	0.357315
C103	C	0.275296	-0.302973	-0.356807
C104	C	0.608630	0.030360	-0.023474
C105	C	0.941963	0.363693	0.309859
C106	C	0.909575	-0.466538	-0.356739
C107	C	1.242908	-0.133205	-0.023406
C108	C	1.576242	0.200129	0.309927
C109	C	0.909597	-0.536506	-0.356746
C110	C	1.242931	-0.203173	-0.023413
C111	C	1.576264	0.130161	0.309920
C112	C	0.949885	-0.569358	-0.309434
C113	C	1.283219	-0.236025	0.023899
C114	C	1.616552	0.097308	0.357232
C115	C	0.949915	-0.635101	-0.309451
C116	C	1.283248	-0.301768	0.023882
C117	C	1.616582	0.031566	0.357216
C118	C	0.909645	-0.667988	-0.356772
C119	C	1.242979	-0.334655	-0.023439
C120	C	1.576312	-0.001322	0.309895
C121	C	0.869354	-0.635128	-0.404093
C122	C	1.202688	-0.301795	-0.070760
C123	C	1.536021	0.031539	0.262574
C124	C	0.869330	-0.569387	-0.404080
C125	C	1.202664	-0.236053	-0.070747
C126	C	1.535997	0.097280	0.262586
N127	N	0.854578	-0.771268	-0.362411
N128	N	1.187911	-0.437935	-0.029077
N129	N	1.521244	-0.104601	0.304256
N130	N	0.854602	-0.833719	-0.362418
N131	N	1.187936	-0.500386	-0.029085
N132	N	1.521269	-0.167053	0.304248
C133	C	0.909716	-0.866063	-0.356814
C134	C	1.243049	-0.532730	-0.023481
C135	C	1.576382	-0.199396	0.309852
N136	N	0.964805	-0.833596	-0.351188
N137	N	1.298138	-0.500263	-0.017854
N138	N	1.631472	-0.166929	0.315479
N139	N	0.964780	-0.771139	-0.351176
N140	N	1.298113	-0.437806	-0.017843
N141	N	1.631446	-0.104472	0.315491
C142	C	0.909667	-0.739274	-0.356791
C143	C	1.243000	-0.405940	-0.023458
C144	C	1.576334	-0.072607	0.309875
C145	C	0.950039	-0.970201	-0.309518
C146	C	1.283372	-0.636868	0.023815
C147	C	1.616706	-0.303534	0.357149
C148	C	0.950070	-1.035945	-0.309540
C149	C	1.283403	-0.702611	0.023793
C150	C	1.616736	-0.369278	0.357127
C151	C	0.869503	-1.035971	-0.404178
C152	C	1.202837	-0.702637	-0.070845
C153	C	1.536170	-0.369304	0.262489
C154	C	0.869478	-0.970228	-0.404160
C155	C	1.202812	-0.636895	-0.070827
C156	C	1.536145	-0.303562	0.262507
C157	C	0.909745	-0.937347	-0.356826
C158	C	1.243079	-0.604014	-0.023493
C159	C	1.576412	-0.270681	0.309841
C160	C	1.073848	-0.302956	-0.356802
C161	C	1.407181	0.030377	-0.023468
C162	C	1.740515	0.363710	0.309865
C163	C	1.143816	-0.302944	-0.356811
C164	C	1.477149	0.030390	-0.023477
C165	C	1.810483	0.363723	0.309856
C166	C	0.909695	-0.302929	-0.549942
C167	C	1.243028	0.030405	-0.216609
C168	C	1.576362	0.363738	0.116724
C169	C	0.909711	-0.302904	-0.632256
C170	C	1.243044	0.030429	-0.298923
C171	C	1.576378	0.363762	0.034410
C172	C	0.909758	-0.138796	-0.356838
C173	C	1.243091	0.194537	-0.023504
C174	C	1.576424	0.527871	0.309829
C175	C	0.909800	-0.068828	-0.356862
C176	C	1.243134	0.264506	-0.023529
C177	C	1.576467	0.597839	0.309805
C178	C	0.909745	-0.302865	-0.931348
C179	C	1.243078	0.030468	-0.598014
C180	C	1.576412	0.363802	-0.264681
C181	C	0.958584	-0.254379	-0.900046
C182	C	1.291917	0.078955	-0.566712
C183	C	1.625250	0.412288	-0.233379
C184	C	0.958431	-0.254199	-0.814427
C185	C	1.291765	0.079135	-0.481094
C186	C	1.625098	0.412468	-0.147761
C187	C	0.909729	-0.302884	-0.782965
C188	C	1.243062	0.030449	-0.449632
C189	C	1.576395	0.363782	-0.116298
C190	C	0.843413	-0.284879	-0.814040
C191	C	1.176747	0.048455	-0.480707
C192	C	1.510080	0.381788	-0.147374
C193	C	0.843706	-0.284515	-0.899685
C194	C	1.177039	0.048818	-0.566352
C195	C	1.510372	0.382152	-0.233019
C196	C	0.926638	-0.369482	-0.899754
C197	C	1.259971	-0.036149	-0.566421
C198	C	1.593304	0.297184	-0.233087
C199	C	0.928093	-0.369142	-0.814104
C200	C	1.261426	-0.035809	-0.480771
C201	C	1.594760	0.297525	-0.147437
C202	C	0.909715	-0.302897	-0.699105
C203	C	1.243049	0.030437	-0.365772
C204	C	1.576382	0.363770	-0.032439
C205	C	0.909754	-0.302851	-1.015207
C206	C	1.243087	0.030482	-0.681874
C207	C	1.576421	0.363815	-0.348540
C208	C	0.909657	-0.302998	-0.164370
C209	C	1.242990	0.030335	0.168964
C210	C	1.576323	0.363669	0.502297
C211	C	0.909763	-0.302845	-0.082056
C212	C	1.243096	0.030488	0.251277
C213	C	1.576429	0.363821	0.584611
H214	H	0.550658	-0.375968	-0.270691
H215	H	0.883992	-0.042635	0.062642
H216	H	1.217325	0.290698	0.395976
H217	H	0.947250	-0.204847	-0.793959
H218	H	1.280583	0.128486	-0.460626
H219	H	1.613916	0.461820	-0.127292
H220	H	0.269292	-0.230020	-0.442893
H221	H	0.602625	0.103314	-0.109560
H222	H	0.935959	0.436647	0.223774
C223	C	0.679308	-0.387485	-0.257112
C224	C	1.012641	-0.054151	0.076222
C225	C	1.345974	0.279182	0.409555
N226	N	0.706494	-0.420807	-0.217795
N227	N	1.039827	-0.087474	0.115538
N228	N	1.373160	0.245859	0.448872
H229	H	0.982829	-0.943429	-0.270978
H230	H	1.316162	-0.610095	0.062355
H231	H	1.649496	-0.276762	0.395689
H232	H	0.550865	-0.230071	-0.442865
H233	H	0.884199	0.103262	-0.109531
H234	H	1.217532	0.436596	0.223802
C235	C	1.025236	-0.269423	-0.927870
C236	C	1.358570	0.063910	-0.594537
C237	C	1.691903	0.397244	-0.261204
N238	N	1.075442	-0.280757	-0.948829
N239	N	1.408775	0.052576	-0.615496
N240	N	1.742108	0.385909	-0.282163
H241	H	0.670129	-0.230099	-0.442863
H242	H	1.003462	0.103234	-0.109529
H243	H	1.336796	0.436567	0.223804
C244	C	0.140650	-0.218503	-0.456458
C245	C	0.473983	0.114831	-0.123125
C246	C	0.807316	0.448164	0.210208
N247	N	0.113465	-0.185183	-0.495781
N248	N	0.446798	0.148150	-0.162447
N249	N	0.780132	0.481483	0.170886
H250	H	0.149821	-0.375897	-0.270725
H251	H	0.483154	-0.042564	0.062608
H252	H	0.816487	0.290770	0.395942
C253	C	0.994233	-0.671246	-0.257398
C254	C	1.327567	-0.337913	0.075935
C255	C	1.660900	-0.004579	0.409268
N256	N	1.027613	-0.698469	-0.218190
N257	N	1.360946	-0.365135	0.115143
N258	N	1.694279	-0.031802	0.448476
H259	H	0.976895	-0.382720	-0.793793
H260	H	1.310229	-0.049387	-0.460459
H261	H	1.643562	0.283947	-0.127126
H262	H	0.836718	-1.062747	-0.442711
H263	H	1.170051	-0.729414	-0.109377
H264	H	1.503384	-0.396080	0.223956
H265	H	0.269088	-0.375920	-0.270714
H266	H	0.602422	-0.042587	0.062620
H267	H	0.935755	0.290746	0.395953
H268	H	0.947543	-0.205302	-0.921588
H269	H	1.280877	0.128031	-0.588254
H270	H	1.614210	0.461365	-0.254921
H271	H	0.829385	-0.235819	-0.919681
H272	H	1.162718	0.097514	-0.586347
H273	H	1.496052	0.430848	-0.253014
H274	H	0.836522	-0.542638	-0.442608
H275	H	1.169856	-0.209304	-0.109275
H276	H	1.503189	0.124029	0.224058
C277	C	0.825171	-0.934089	-0.456223
C278	C	1.158504	-0.600756	-0.122889
C279	C	1.491837	-0.267422	0.210444
N280	N	0.791803	-0.906869	-0.495447
N281	N	1.125136	-0.573536	-0.162114
N282	N	1.458470	-0.240203	0.171219
H283	H	0.982881	-1.062692	-0.271014
H284	H	1.316214	-0.729359	0.062319
H285	H	1.649548	-0.396026	0.395652
C286	C	0.792916	-0.331114	-0.786499
C287	C	1.126250	0.002219	-0.453166
C288	C	1.459583	0.335552	-0.119833
N289	N	0.754883	-0.365939	-0.765752
N290	N	1.088216	-0.032606	-0.432419
N291	N	1.421549	0.300728	-0.099086
C292	C	0.792872	-0.330146	-0.927659
C293	C	1.126205	0.003187	-0.594326
C294	C	1.459539	0.336521	-0.260992
N295	N	0.754581	-0.364511	-0.948725
N296	N	1.087914	-0.031178	-0.615392
N297	N	1.421248	0.302156	-0.282059
H298	H	1.007606	-0.265473	-0.793418
H299	H	1.340939	0.067861	-0.460085
H300	H	1.674272	0.401194	-0.126751
H301	H	0.828832	-0.236724	-0.792606
H302	H	1.162165	0.096610	-0.459273
H303	H	1.495499	0.429943	-0.125939
H304	H	0.974147	-0.385881	-0.921397
H305	H	1.307480	-0.052548	-0.588063
H306	H	1.640814	0.280785	-0.254730
C307	C	0.883527	-0.420568	-0.785174
C308	C	1.216860	-0.087235	-0.451840
C309	C	1.550194	0.246098	-0.118507
N310	N	0.849954	-0.459301	-0.763385
N311	N	1.183287	-0.125967	-0.430052
N312	N	1.516621	0.207366	-0.096719
H313	H	0.891069	-0.405610	-0.920001
H314	H	1.224402	-0.072276	-0.586668
H315	H	1.557736	0.261057	-0.253334
H316	H	0.836568	-0.661909	-0.442623
H317	H	1.169901	-0.328576	-0.109290
H318	H	1.503234	0.004757	0.224043
H319	H	0.982675	-0.542589	-0.270894
H320	H	1.316008	-0.209256	0.062439
H321	H	1.649341	0.124078	0.395772
