data_functionalizedCrystal
_audit_creation_method	'MofGen! by Chris Wilmer'
_symmetry_space_group_name_H-M	'P1'
_symmetry_Int_Tables_number	1
_symmetry_cell_setting	triclinic
loop_
_symmetry_equiv_pos_as_xyz
  x,y,z
_cell_length_a	10.489741
_cell_length_b	16.109301
_cell_length_c	15.186229
_cell_angle_alpha	89.994833
_cell_angle_beta	89.999333
_cell_angle_gamma	84.000327
loop_
_atom_site_label
_atom_site_type_symbol
_atom_site_fract_x
_atom_site_fract_y
_atom_site_fract_z
O1	O	1.692350	0.117298	-0.073177
O2	O	2.192350	0.617298	0.426823
O3	O	1.320995	0.128308	-0.073191
O4	O	1.820995	0.628308	0.426809
O5	O	1.516874	0.001835	-0.073175
O6	O	2.016874	0.501835	0.426825
O7	O	1.496471	0.243771	-0.073194
O8	O	1.996471	0.743771	0.426806
O9	O	1.516861	0.001833	0.073282
O10	O	2.016861	0.501833	0.573282
O11	O	1.320981	0.128306	0.073266
O12	O	1.820981	0.628306	0.573266
O13	O	1.692337	0.117296	0.073280
O14	O	2.192337	0.617296	0.573280
Zn15	Zn	1.506657	0.122801	0.096526
Zn16	Zn	2.006657	0.622801	0.596526
Zn17	Zn	1.506674	0.122803	-0.096438
Zn18	Zn	2.006674	0.622803	0.403562
O19	O	1.496458	0.243769	0.073264
O20	O	1.996458	0.743769	0.573264
C21	C	1.516041	-0.029146	0.000054
C22	C	2.016041	0.470854	0.500054
C23	C	1.513563	-0.121457	0.000055
C24	C	2.013563	0.378543	0.500055
C25	C	1.273468	0.127475	0.000036
C26	C	1.773468	0.627475	0.500036
C27	C	1.131875	0.124987	0.000031
C28	C	1.631875	0.624987	0.500031
C29	C	1.624032	-0.343048	0.000045
C30	C	2.124032	0.156952	0.500045
C31	C	1.621694	-0.429783	0.000038
C32	C	2.121694	0.070217	0.500038
C33	C	1.389290	-0.411341	0.000033
C34	C	1.889290	0.088659	0.500033
C35	C	1.391630	-0.324608	0.000034
C36	C	1.891630	0.175392	0.500034
C37	C	1.509004	-0.290464	0.000045
C38	C	2.009004	0.209536	0.500045
C39	C	1.504327	-0.463932	0.000036
C40	C	2.004327	0.036068	0.500036
C41	C	1.501791	-0.557974	0.000028
C42	C	2.001791	-0.057974	0.500028
C43	C	1.511541	-0.196417	0.000051
C44	C	2.011541	0.303583	0.500051
C45	C	1.064902	0.044516	0.000045
C46	C	1.564902	0.544516	0.500045
C47	C	0.972231	0.082531	-0.072167
C48	C	1.472231	0.582531	0.427833
C49	C	0.972251	0.082548	0.072228
C50	C	1.472251	0.582548	0.572228
C51	C	1.041068	0.163035	-0.072241
C52	C	1.541068	0.663035	0.427759
C53	C	1.041099	0.163041	0.072219
C54	C	1.541099	0.663041	0.572219
C55	C	0.948453	0.201115	-0.000011
C56	C	1.448453	0.701115	0.499989
C57	C	1.739863	0.118128	0.000051
C58	C	2.239863	0.618128	0.500051
C59	C	1.881456	0.120616	0.000050
C60	C	2.381456	0.620616	0.500050
C61	C	1.497291	0.274750	0.000033
C62	C	1.997291	0.774750	0.500033
C63	C	1.499769	0.367060	0.000026
C64	C	1.999769	0.867060	0.500026
N65	N	1.506655	0.122798	0.228219
N66	N	2.006655	0.622798	0.728219
N67	N	1.506687	0.122799	-0.228130
N68	N	2.006687	0.622799	0.271870
C69	C	1.593419	0.066815	0.453949
C70	C	2.093419	0.566815	0.953949
C71	C	1.593423	0.066813	0.546139
C72	C	2.093423	0.566813	1.046139
C73	C	1.419913	0.178784	0.546133
C74	C	1.919913	0.678784	1.046133
C75	C	1.419904	0.178782	0.453945
C76	C	1.919904	0.678782	0.953945
C77	C	1.506664	0.122798	0.407856
C78	C	2.006664	0.622798	0.907856
C79	C	1.506677	0.122799	0.592233
C80	C	2.006677	0.622799	1.092233
C81	C	1.506681	0.122797	0.692189
C82	C	2.006681	0.622797	1.192189
C83	C	1.506659	0.122799	0.307893
C84	C	2.006659	0.622799	0.807893
H85	H	1.719606	-0.315251	0.000052
H86	H	2.219606	0.184749	0.500052
H87	H	0.941716	0.048483	-0.133213
H88	H	1.441716	0.548483	0.366787
Br89	Br	1.777811	-0.501145	0.000034
Br90	Br	2.277811	-0.001145	0.500034
Br91	Br	1.711163	-0.009164	0.391402
Br92	Br	2.211163	0.490836	0.891402
H93	H	1.349276	0.224366	0.583669
H94	H	1.849276	0.724366	1.083669
H95	H	1.297954	-0.281792	0.000031
H96	H	1.797954	0.218208	0.500031
H97	H	1.071408	0.197059	-0.133360
H98	H	1.571408	0.697059	0.366640
Br99	Br	1.149258	-0.065758	-0.000061
Br100	Br	1.649258	0.434242	0.499939
H101	H	1.349251	0.224370	0.416413
H102	H	1.849251	0.724370	0.916413
H103	H	0.898069	0.267337	-0.000055
H104	H	1.398069	0.767337	0.499945
H105	H	1.071646	0.197062	0.133268
H106	H	1.571646	0.697062	0.633268
Br107	Br	0.921433	0.025775	0.173983
Br108	Br	1.421433	0.525775	0.673983
Br109	Br	1.711161	-0.009170	0.608693
Br110	Br	2.211161	0.490830	1.108693
Br111	Br	1.230004	-0.457685	0.000016
Br112	Br	1.730004	0.042315	0.500016
