data_functionalizedCrystal
_audit_creation_method	'MofGen! by Chris Wilmer'
_symmetry_space_group_name_H-M	'P1'
_symmetry_Int_Tables_number	1
_symmetry_cell_setting	triclinic
loop_
_symmetry_equiv_pos_as_xyz
  x,y,z
_cell_length_a	15.297475
_cell_length_b	16.959454
_cell_length_c	15.298431
_cell_angle_alpha	80.291033
_cell_angle_beta	88.369029
_cell_angle_gamma	80.323279
loop_
_atom_site_label
_atom_site_type_symbol
_atom_site_fract_x
_atom_site_fract_y
_atom_site_fract_z
Zn1	Zn	1.253544	-0.394808	-0.726685
Zn2	Zn	1.753544	0.105192	-0.226685
Zn3	Zn	1.278785	-0.553050	-0.580197
Zn4	Zn	1.778785	-0.053050	-0.080197
Zn5	Zn	1.132391	-0.402494	-0.554911
Zn6	Zn	1.632391	0.097506	-0.054911
Zn7	Zn	1.107032	-0.508545	-0.701333
Zn8	Zn	1.607032	-0.008545	-0.201333
O9	O	1.192938	-0.464724	-0.640782
O10	O	1.692938	0.035276	-0.140782
O11	O	1.379474	-0.431208	-0.728445
O12	O	1.879474	0.068792	-0.228445
O13	O	1.280543	-0.554921	-0.454259
O14	O	1.780543	-0.054921	0.045741
O15	O	1.148511	-0.290867	-0.577725
O16	O	1.648511	0.209133	-0.077725
O17	O	1.398019	-0.547468	-0.620821
O18	O	1.898019	-0.047468	-0.120821
O19	O	1.237522	-0.285220	-0.703926
O20	O	1.737522	0.214780	-0.203926
O21	O	1.172987	-0.444308	-0.435681
O22	O	1.672987	0.055692	0.064319
O23	O	1.006445	-0.401153	-0.553142
O24	O	1.506445	0.098847	-0.053142
O25	O	1.105290	-0.471615	-0.827280
O26	O	1.605290	0.028385	-0.327280
O27	O	0.987814	-0.479068	-0.660718
O28	O	1.487814	0.020932	-0.160718
O29	O	1.212932	-0.388053	-0.845906
O30	O	1.712932	0.111947	-0.345906
O31	O	1.255953	-0.657754	-0.596239
O32	O	1.755953	-0.157754	-0.096239
O33	O	1.129766	-0.625056	-0.685237
O34	O	1.629766	-0.125056	-0.185237
C35	C	0.965345	-0.436116	-0.601436
C36	C	1.465345	0.063884	-0.101436
C37	C	0.867976	-0.423892	-0.584625
C38	C	1.367976	0.076108	-0.084625
C39	C	1.192867	-0.670084	-0.640754
C40	C	1.692867	-0.170084	-0.140754
C41	C	1.192912	-0.757943	-0.640785
C42	C	1.692912	-0.257943	-0.140785
C43	C	0.554866	-0.552093	-0.760938
C44	C	1.054866	-0.052093	-0.260938
C45	C	0.646349	-0.563584	-0.776730
C46	C	1.146349	-0.063584	-0.276730
C47	C	0.701760	-0.528662	-0.728706
C48	C	1.201760	-0.028662	-0.228706
C49	C	0.665679	-0.482247	-0.664885
C50	C	1.165679	0.017753	-0.164885
C51	C	0.574188	-0.470760	-0.649086
C52	C	1.074188	0.029240	-0.149086
C53	C	0.721082	-0.447329	-0.616854
C54	C	1.221082	0.052671	-0.116854
C55	C	0.685001	-0.400915	-0.553033
C56	C	1.185001	0.099085	-0.053033
C57	C	0.593518	-0.389430	-0.537237
C58	C	1.093518	0.110570	-0.037237
C59	C	0.538107	-0.424352	-0.585262
C60	C	1.038107	0.075648	-0.085262
C61	C	0.812574	-0.458816	-0.632653
C62	C	1.312574	0.041184	-0.132653
C63	C	0.831896	-0.377484	-0.520801
C64	C	1.331896	0.122516	-0.020801
C65	C	0.740412	-0.365993	-0.505008
C66	C	1.240412	0.134007	-0.005008
C67	C	1.127315	-1.112438	-0.687131
C68	C	1.627315	-0.612438	-0.187131
C69	C	1.258790	-1.146422	-0.594563
C70	C	1.758790	-0.646422	-0.094563
C71	C	1.258760	-1.063874	-0.594550
C72	C	1.758760	-0.563874	-0.094550
C73	C	1.193007	-1.005604	-0.640827
C74	C	1.693007	-0.505604	-0.140827
C75	C	1.127282	-1.029882	-0.687117
C76	C	1.627282	-0.529882	-0.187117
C77	C	1.324479	-1.039590	-0.548253
C78	C	1.824479	-0.539590	-0.048253
C79	C	1.324451	-0.957037	-0.548237
C80	C	1.824451	-0.457037	-0.048237
C81	C	1.258701	-0.898765	-0.594520
C82	C	1.758701	-0.398765	-0.094520
C83	C	1.192974	-0.923047	-0.640813
C84	C	1.692974	-0.423047	-0.140813
C85	C	1.127220	-0.864777	-0.687090
C86	C	1.627220	-0.364777	-0.187090
C87	C	1.061496	-0.889058	-0.733388
C88	C	1.561496	-0.389058	-0.233388
C89	C	1.061531	-0.971610	-0.733400
C90	C	1.561531	-0.471610	-0.233400
C91	C	1.258666	-0.816213	-0.594509
C92	C	1.758666	-0.316213	-0.094509
C93	C	1.127187	-0.782221	-0.687075
C94	C	1.627187	-0.282221	-0.187075
C95	C	1.421420	-0.493445	-0.680281
C96	C	1.921420	0.006555	-0.180281
C97	C	1.518785	-0.505684	-0.697114
C98	C	2.018785	-0.005684	-0.197114
C99	C	1.153467	-0.424012	-0.869266
C100	C	1.653467	0.075988	-0.369266
C101	C	1.136646	-0.406663	-0.966633
C102	C	1.636646	0.093337	-0.466633
C103	C	1.193030	-0.258562	-0.640833
C104	C	1.693030	0.241438	-0.140833
C105	C	1.193069	-0.170708	-0.640854
C106	C	1.693069	0.329292	-0.140854
C107	C	1.072744	-0.340919	-1.002697
C108	C	1.572744	0.159081	-0.502697
C109	C	1.056929	-0.324618	-1.094175
C110	C	1.556929	0.175382	-0.594175
C111	C	1.105020	-0.374056	-1.149600
C112	C	1.605020	0.125944	-0.649600
C113	C	1.168928	-0.439798	-1.113538
C114	C	1.668928	0.060202	-0.613538
C115	C	1.184739	-0.456104	-1.022049
C116	C	1.684739	0.043896	-0.522049
C117	C	1.217015	-0.489241	-1.168953
C118	C	1.717015	0.010759	-0.668953
C119	C	1.280923	-0.554983	-1.132890
C120	C	1.780923	-0.054983	-0.632890
C121	C	1.296732	-0.571285	-1.041410
C122	C	1.796732	-0.071285	-0.541410
C123	C	1.248642	-0.521848	-0.985986
C124	C	1.748642	-0.021848	-0.485986
C125	C	1.201203	-0.472934	-1.260441
C126	C	1.701203	0.027066	-0.760441
C127	C	1.313198	-0.588119	-1.279794
C128	C	1.813198	-0.088119	-0.779794
C129	C	1.329013	-0.604420	-1.188315
C130	C	1.829013	-0.104420	-0.688315
C131	C	1.232306	-0.505228	-0.413194
C132	C	1.732306	-0.005228	0.086806
C133	C	1.249296	-0.522375	-0.315858
C134	C	1.749296	-0.022375	0.184142
H135	H	0.841941	-0.496607	-0.684617
H136	H	1.341941	0.003393	-0.184617
H137	H	1.312319	-1.193870	-0.556881
H138	H	1.812319	-0.693870	-0.056881
H139	H	1.352360	-0.628374	-1.324922
H140	H	1.852360	-0.128374	-0.824922
C141	C	0.437466	-0.411700	-0.567906
C142	C	0.937466	0.088300	-0.067906
N143	N	0.361661	-0.402167	-0.554840
N144	N	0.861661	0.097833	-0.054840
C145	C	1.399306	-0.676739	-1.148633
C146	C	1.899306	-0.176739	-0.648633
N147	N	1.452249	-0.731210	-1.118743
N148	N	1.952249	-0.231210	-0.618743
C149	C	1.087623	-0.356120	-1.250230
C150	C	1.587623	0.143880	-0.750230
N151	N	1.074521	-0.342605	-1.326028
N152	N	1.574521	0.157395	-0.826028
H153	H	0.776249	-0.538020	-0.741568
H154	H	1.276249	-0.038020	-0.241568
C155	C	0.686032	-0.614640	-0.846929
C156	C	1.186032	-0.114640	-0.346929
N157	N	0.715921	-0.653099	-0.899807
N158	N	1.215921	-0.153099	-0.399807
H159	H	1.007956	-0.841605	-0.771062
H160	H	1.507956	-0.341605	-0.271062
C161	C	0.493909	-0.590505	-0.813754
C162	C	0.993909	-0.090505	-0.313754
N163	N	0.447995	-0.619439	-0.853538
N164	N	0.947995	-0.119439	-0.353538
C165	C	0.892844	-0.339064	-0.467972
C166	C	1.392844	0.160936	0.032028
N167	N	0.938756	-0.310130	-0.428185
N168	N	1.438756	0.189870	0.071815
C169	C	1.019859	-0.286541	-0.941726
C170	C	1.519859	0.213459	-0.441726
N171	N	0.980025	-0.245577	-0.895801
N172	N	1.480025	0.254423	-0.395801
C173	C	0.553832	-0.338374	-0.467031
C174	C	1.053832	0.161626	0.032969
N175	N	0.523942	-0.299916	-0.414153
N176	N	1.023942	0.200084	0.085847
C177	C	1.055019	-1.139148	-0.738053
C178	C	1.555019	-0.639148	-0.238053
N179	N	1.000564	-1.159267	-0.776405
N180	N	1.500564	-0.659267	-0.276405
H181	H	0.711022	-0.328202	-0.453044
H182	H	1.211022	0.171798	0.046956
H183	H	1.008022	-0.991387	-0.771092
H184	H	1.508022	-0.491387	-0.271092
H185	H	1.073645	-0.734780	-0.724764
H186	H	1.573645	-0.234780	-0.224764
C187	C	1.396792	-1.103691	-0.497338
C188	C	1.896792	-0.603691	0.002662
N189	N	1.451259	-1.151976	-0.458983
N190	N	1.951259	-0.651976	0.041017
H191	H	1.261518	-0.535114	-0.911496
H192	H	1.761518	-0.035114	-0.411496
C193	C	1.396744	-0.930336	-0.497302
C194	C	1.896744	-0.430336	0.002698
N195	N	1.451194	-0.910225	-0.458936
N196	N	1.951194	-0.410225	0.041064
C197	C	1.330958	-0.789507	-0.543585
C198	C	1.830958	-0.289507	-0.043585
N199	N	1.385415	-0.769394	-0.505229
N200	N	1.885415	-0.269394	-0.005229
C201	C	0.986641	-0.252298	-1.133839
C202	C	1.486641	0.247702	-0.633839
N203	N	0.933700	-0.197819	-1.163715
N204	N	1.433700	0.302181	-0.663715
C205	C	1.367056	-0.643586	-1.001748
C206	C	1.867056	-0.143586	-0.501748
N207	N	1.420035	-0.698034	-0.971878
N208	N	1.920035	-0.198034	-0.471878
H209	H	1.149170	-0.419406	-1.289795
H210	H	1.649170	0.080594	-0.789795
