data_functionalizedCrystal
_audit_creation_method	'MofGen! by Chris Wilmer'
_symmetry_space_group_name_H-M	'P1'
_symmetry_Int_Tables_number	1
_symmetry_cell_setting	triclinic
loop_
_symmetry_equiv_pos_as_xyz
  x,y,z
_cell_length_a	17.699083
_cell_length_b	15.944551
_cell_length_c	16.776229
_cell_angle_alpha	89.992397
_cell_angle_beta	89.998886
_cell_angle_gamma	83.390877
loop_
_atom_site_label
_atom_site_type_symbol
_atom_site_fract_x
_atom_site_fract_y
_atom_site_fract_z
O1	O	1.004260	0.106222	-0.066178
O2	O	1.504260	0.606222	0.433822
O3	O	0.783905	0.120042	-0.066204
O4	O	1.283905	0.620042	0.433796
O5	O	0.900100	-0.009156	-0.066183
O6	O	1.400100	0.490844	0.433817
O7	O	0.888065	0.235419	-0.066199
O8	O	1.388065	0.735419	0.433801
O9	O	0.900084	-0.009164	0.066393
O10	O	1.400084	0.490836	0.566393
O11	O	0.783890	0.120034	0.066372
O12	O	1.283890	0.620034	0.566372
O13	O	1.004244	0.106214	0.066398
O14	O	1.504244	0.606214	0.566398
Zn15	Zn	0.894065	0.113123	0.087435
Zn16	Zn	1.394065	0.613123	0.587435
Zn17	Zn	0.894085	0.113133	-0.087241
Zn18	Zn	1.394085	0.613133	0.412759
O19	O	0.888050	0.235411	0.066377
O20	O	1.388050	0.735411	0.566377
C21	C	0.755700	0.119542	0.000080
C22	C	1.255700	0.619542	0.500080
C23	C	0.671679	0.118057	0.000071
C24	C	1.171679	0.618057	0.500071
C25	C	0.899593	-0.040453	0.000105
C26	C	1.399593	0.459547	0.500105
C27	C	0.898095	-0.133696	0.000105
C28	C	1.398095	0.366304	0.500105
C29	C	0.623187	0.193893	0.000066
C30	C	1.123187	0.693893	0.500066
C31	C	0.544242	0.192492	0.000076
C32	C	1.044242	0.692492	0.500076
C33	C	0.513789	0.115254	0.000086
C34	C	1.013789	0.615254	0.500086
C35	C	0.562287	0.039412	0.000093
C36	C	1.062287	0.539412	0.500093
C37	C	0.641231	0.040814	0.000088
C38	C	1.141231	0.540814	0.500088
C39	C	0.243914	0.033758	0.000113
C40	C	0.743914	0.533758	0.500113
C41	C	0.164964	0.032362	0.000115
C42	C	0.664964	0.532362	0.500115
C43	C	0.146925	0.185436	0.000101
C44	C	0.646925	0.685436	0.500101
C45	C	0.225869	0.186837	0.000096
C46	C	0.725869	0.686837	0.500096
C47	C	0.274360	0.110996	0.000108
C48	C	0.774360	0.610996	0.500108
C49	C	0.359962	0.112516	0.000098
C50	C	0.859962	0.612516	0.500098
C51	C	0.428189	0.113733	0.000090
C52	C	0.928189	0.613733	0.500090
C53	C	0.822492	-0.348393	0.000085
C54	C	1.322492	0.151607	0.500085
C55	C	0.857592	-0.409488	0.065458
C56	C	1.357592	0.090512	0.565458
C57	C	0.895385	-0.304416	0.000099
C58	C	1.395385	0.195584	0.500099
C59	C	0.857624	-0.409464	-0.065252
C60	C	1.357624	0.090536	0.434748
C61	C	0.892762	-0.469323	0.000089
C62	C	1.392762	0.030677	0.500089
C63	C	0.930505	-0.364283	0.065525
C64	C	1.430505	0.135717	0.565525
C65	C	0.930527	-0.364252	-0.065244
C66	C	1.430527	0.135748	0.434756
C67	C	0.965680	-0.425329	0.000145
C68	C	1.465680	0.074671	0.500145
C69	C	0.896894	-0.209417	0.000105
C70	C	1.396894	0.290583	0.500105
C71	C	0.891259	-0.564321	0.000089
C72	C	1.391259	-0.064321	0.500089
C73	C	1.032450	0.106713	0.000112
C74	C	1.532450	0.606713	0.500112
C75	C	1.116471	0.108199	0.000116
C76	C	1.616471	0.608199	0.500116
C77	C	0.888557	0.266708	0.000087
C78	C	1.388557	0.766708	0.500087
C79	C	0.890055	0.359951	0.000082
C80	C	1.390055	0.859951	0.500082
N81	N	0.894056	0.113115	0.206646
N82	N	1.394056	0.613115	0.706646
N83	N	0.894099	0.113134	-0.206452
N84	N	1.394099	0.613134	0.293548
C85	C	0.945523	0.055930	0.248372
C86	C	1.445523	0.555930	0.748372
C87	C	0.945527	0.055929	0.331824
C88	C	1.445527	0.555929	0.831824
C89	C	0.894068	0.113118	0.373549
C90	C	1.394068	0.613118	0.873549
C91	C	0.842595	0.170306	0.331816
C92	C	1.342595	0.670306	0.831816
C93	C	0.842588	0.170302	0.248366
C94	C	1.342588	0.670302	0.748366
C95	C	0.842623	0.170323	0.668364
C96	C	1.342623	0.670323	1.168364
C97	C	0.842636	0.170324	0.751820
C98	C	1.342636	0.670324	1.251820
C99	C	0.945562	0.055949	0.751822
C100	C	1.445562	0.555949	1.251822
C101	C	0.945555	0.055945	0.668372
C102	C	1.445555	0.555945	1.168372
C103	C	0.894080	0.113130	0.626647
C104	C	1.394080	0.613130	1.126647
C105	C	0.894075	0.113129	0.536158
C106	C	1.394075	0.613129	1.036158
C107	C	0.894076	0.113124	0.464036
C108	C	1.394076	0.613124	0.964036
H109	H	0.504763	0.254246	0.000072
H110	H	1.004763	0.754246	0.500072
H111	H	0.250659	0.249732	0.000085
H112	H	0.750659	0.749732	0.500085
C113	C	0.961796	-0.058526	0.574711
C114	C	1.461796	0.441474	1.074711
C115	C	1.002050	-0.007066	0.622586
C116	C	1.502050	0.492934	1.122586
H117	H	0.996655	-0.097468	0.546466
H118	H	1.496655	0.402532	1.046466
H119	H	0.930228	-0.088540	0.607331
H120	H	1.430228	0.411460	1.107331
H121	H	0.931215	-0.024466	0.537857
H122	H	1.431215	0.475534	1.037857
H123	H	1.032627	-0.041125	0.659445
H124	H	1.532627	0.458875	1.159445
H125	H	1.033632	0.022951	0.589963
H126	H	1.533632	0.522951	1.089963
H127	H	0.826790	-0.429473	-0.120524
H128	H	1.326790	0.070527	0.379476
H129	H	0.800712	0.216886	0.634398
H130	H	1.300712	0.716886	1.134398
H131	H	1.026238	-0.458615	0.000189
H132	H	1.526238	0.041385	0.500189
H133	H	0.800692	0.216868	0.365793
H134	H	1.300692	0.716868	0.865793
C135	C	0.740998	-0.397334	0.139929
C136	C	1.240998	0.102666	0.639929
C137	C	0.815965	-0.436559	0.140055
C138	C	1.315965	0.063441	0.640055
H139	H	0.715297	-0.414049	0.185978
H140	H	1.215297	0.085951	0.685978
H141	H	0.741247	-0.337797	0.140223
H142	H	1.241247	0.162203	0.640223
H143	H	0.715606	-0.413568	0.093504
H144	H	1.215606	0.086432	0.593504
H145	H	0.841360	-0.420321	0.186477
H146	H	1.341360	0.079679	0.686477
H147	H	0.815721	-0.496109	0.139768
H148	H	1.315721	0.003891	0.639768
H149	H	0.961304	-0.344360	0.120853
H150	H	1.461304	0.155640	0.620853
H151	H	0.800678	0.216867	0.214393
H152	H	1.300678	0.716867	0.714393
H153	H	0.961338	-0.344183	-0.120506
H154	H	1.461338	0.155817	0.379494
H155	H	0.647975	0.256789	0.000058
H156	H	1.147975	0.756789	0.500058
C157	C	1.047260	-0.057133	0.256765
C158	C	1.547260	0.442867	0.756765
C159	C	1.002089	-0.006937	0.202513
C160	C	1.502089	0.493063	0.702513
H161	H	1.082177	-0.095950	0.228453
H162	H	1.582177	0.404050	0.728453
H163	H	1.074486	-0.022205	0.289302
H164	H	1.574486	0.477795	0.789302
H165	H	1.015749	-0.087298	0.289325
H166	H	1.515749	0.412702	0.789325
H167	H	1.033599	0.023233	0.169956
H168	H	1.533599	0.523233	0.669956
H169	H	0.974861	-0.041870	0.169963
H170	H	1.474861	0.458130	0.669963
C171	C	0.017897	0.251270	0.000112
C172	C	0.517897	0.751270	0.500112
C173	C	0.093621	0.268805	0.000100
C174	C	0.593621	0.768805	0.500100
H175	H	-0.015007	0.302738	0.000114
H176	H	0.484993	0.802738	0.500114
H177	H	0.008665	0.219600	-0.046112
H178	H	0.508665	0.719600	0.453888
H179	H	0.008676	0.219592	0.046353
H180	H	0.508676	0.719592	0.546353
H181	H	0.102843	0.300478	-0.046144
H182	H	0.602843	0.800478	0.453856
H183	H	0.102856	0.300489	0.046329
H184	H	0.602856	0.800489	0.546329
H185	H	0.987435	0.009364	0.365798
H186	H	1.487435	0.509364	0.865798
H187	H	0.987473	0.009384	0.785804
H188	H	1.487473	0.509384	1.285804
C189	C	0.190721	-0.118818	0.000148
C190	C	0.690721	0.381182	0.500148
C191	C	0.131489	-0.052545	0.000134
C192	C	0.631489	0.447455	0.500134
H193	H	0.170053	-0.171231	0.000164
H194	H	0.670053	0.328769	0.500164
H195	H	0.221136	-0.115095	-0.046083
H196	H	0.721136	0.384905	0.453917
H197	H	0.221138	-0.115081	0.046382
H198	H	0.721138	0.384919	0.546382
H199	H	0.101075	-0.056278	-0.046104
H200	H	0.601075	0.443722	0.453896
H201	H	0.101061	-0.056270	0.046369
H202	H	0.601061	0.443730	0.546369
H203	H	0.800728	0.216896	0.785791
H204	H	1.300728	0.716896	1.285791
C205	C	0.729284	-0.253219	-0.068336
C206	C	1.229284	0.246781	0.431664
C207	C	0.740813	-0.303256	0.000154
C208	C	1.240813	0.196744	0.500154
H209	H	0.678859	-0.225359	-0.068293
H210	H	1.178859	0.274641	0.431707
H211	H	0.764402	-0.212441	-0.068835
H212	H	1.264402	0.287559	0.431165
H213	H	0.736761	-0.287926	-0.114330
H214	H	1.236761	0.212074	0.385670
H215	H	0.733342	-0.268548	0.046149
H216	H	1.233342	0.231452	0.546149
H217	H	0.705685	-0.344039	0.000660
H218	H	1.205685	0.155961	0.500660
C219	C	0.343148	-0.053472	-0.068039
C220	C	0.843148	0.446528	0.431961
C221	C	0.297207	-0.049607	0.000114
C222	C	0.797207	0.450393	0.500114
H223	H	0.376053	-0.104940	-0.068036
H224	H	0.876053	0.395060	0.431964
H225	H	0.311974	-0.050831	-0.114261
H226	H	0.811974	0.449169	0.385739
H227	H	0.372584	-0.007273	-0.068033
H228	H	0.872584	0.492727	0.431967
H229	H	0.267767	-0.095804	0.000105
H230	H	0.767767	0.404196	0.500105
H231	H	0.328385	-0.052256	0.046348
H232	H	0.828385	0.447744	0.546348
H233	H	0.537486	-0.023476	0.000112
H234	H	1.037486	0.476524	0.500112
H235	H	0.680713	-0.020940	0.000091
H236	H	1.180713	0.479060	0.500091
