data_functionalizedCrystal
_audit_creation_method	'MofGen! by Chris Wilmer'
_symmetry_space_group_name_H-M	'P1'
_symmetry_Int_Tables_number	1
_symmetry_cell_setting	triclinic
loop_
_symmetry_equiv_pos_as_xyz
  x,y,z
_cell_length_a	15.944499
_cell_length_b	15.944551
_cell_length_c	16.176319
_cell_angle_alpha	90.001553
_cell_angle_beta	90.010001
_cell_angle_gamma	83.488174
loop_
_atom_site_label
_atom_site_type_symbol
_atom_site_fract_x
_atom_site_fract_y
_atom_site_fract_z
O1	O	1.114555	0.108120	0.068798
O2	O	0.870000	0.121521	0.068789
O3	O	0.998956	-0.007456	0.068786
O4	O	0.985599	0.237097	0.068801
O5	O	0.998936	-0.007449	-0.068707
O6	O	0.869980	0.121528	-0.068704
O7	O	1.114536	0.108127	-0.068695
Cu8	Cu	0.992256	0.114828	-0.081254
Cu9	Cu	0.992279	0.114820	0.081348
O10	O	0.985580	0.237104	-0.068693
C11	C	0.838695	0.120976	0.000041
C12	C	0.745447	0.119331	0.000037
C13	C	0.453911	0.194263	0.000054
C14	C	0.514950	0.155308	0.067845
C15	C	0.409810	0.113355	0.000056
C16	C	0.514917	0.155293	-0.067713
C17	C	0.574719	0.116296	0.000046
C18	C	0.469621	0.074377	0.067903
C19	C	0.469581	0.074374	-0.067716
C20	C	0.530603	0.035360	0.000091
C21	C	0.314810	0.111663	0.000063
C22	C	0.669718	0.117981	0.000045
C23	C	0.998392	-0.038746	0.000039
C24	C	0.996729	-0.131992	0.000039
C25	C	0.912823	-0.346833	0.000047
C26	C	0.951777	-0.407854	-0.067744
C27	C	0.993722	-0.302717	0.000045
C28	C	0.951815	-0.407844	0.067814
C29	C	0.990811	-0.467629	0.000055
C30	C	1.032698	-0.362510	-0.067802
C31	C	1.032725	-0.362494	0.067817
C32	C	1.071737	-0.423497	0.000009
C33	C	0.995397	-0.207715	0.000039
C34	C	0.989143	-0.562630	0.000055
C35	C	1.145840	0.108672	0.000054
C36	C	1.239089	0.110317	0.000063
C37	C	0.986144	0.268394	0.000056
C38	C	0.987806	0.361640	0.000062
N39	N	0.992246	0.114834	-0.195619
C40	C	1.049405	0.057717	-0.761003
C41	C	1.049401	0.057723	-0.674456
C42	C	0.992284	0.114816	-0.631195
C43	C	0.935172	0.171912	-0.674485
C44	C	0.935181	0.171910	-0.761030
C45	C	0.935138	0.171924	-0.325457
C46	C	0.935133	0.171921	-0.238905
C47	C	1.049359	0.057737	-0.238882
C48	C	1.049367	0.057735	-0.325428
C49	C	0.992259	0.114834	-0.368710
C50	C	0.992265	0.114828	-0.462555
C51	C	0.992274	0.114819	-0.537352
N52	N	0.992296	0.114808	0.195713
H53	H	0.420581	0.261409	0.000124
N54	N	1.077957	-0.336028	-0.143807
H55	H	1.047618	-0.352908	-0.194944
H56	H	1.137800	-0.364656	-0.143977
H57	H	0.449457	0.040184	-0.125033
N58	N	0.541498	0.200643	-0.143625
H59	H	0.524189	0.170693	-0.194830
H60	H	0.604803	0.200956	-0.143269
H61	H	0.888637	0.218415	-0.360691
H62	H	0.535056	0.189529	0.125157
H63	H	0.845673	-0.313513	-0.000023
H64	H	0.888619	0.218416	-0.203683
H65	H	0.888678	0.218400	-0.796272
H66	H	1.138946	-0.456668	-0.000027
H67	H	0.449650	0.040185	0.125279
H68	H	0.563780	-0.031846	0.000123
H69	H	0.917551	-0.427953	-0.125058
H70	H	1.095913	0.011223	-0.796221
H71	H	1.095904	0.011237	-0.639214
N72	N	1.078028	-0.335840	0.143735
H73	H	1.047423	-0.352140	0.194918
H74	H	1.079283	-0.272660	0.142805
H75	H	0.917595	-0.427918	0.125130
N76	N	1.110948	-0.003859	-0.192199
H77	H	1.102278	0.004800	-0.130808
H78	H	1.170541	0.005855	-0.207308
N79	N	1.110983	-0.003832	-0.372088
H80	H	1.147168	-0.039992	-0.331534
H81	H	1.148111	0.028361	-0.407977
H82	H	0.888669	0.218403	-0.639256
