data_functionalizedCrystal
_audit_creation_method	'MofGen! by Chris Wilmer'
_symmetry_space_group_name_H-M	'P1'
_symmetry_Int_Tables_number	1
_symmetry_cell_setting	triclinic
loop_
_symmetry_equiv_pos_as_xyz
  x,y,z
_cell_length_a	23.532407
_cell_length_b	23.532407
_cell_length_c	9.016244
_cell_angle_alpha	89.993097
_cell_angle_beta	89.998017
_cell_angle_gamma	82.848678
loop_
_atom_site_label
_atom_site_type_symbol
_atom_site_fract_x
_atom_site_fract_y
_atom_site_fract_z
O1	O	0.755262	0.069132	-0.123170
O2	O	0.589399	0.079136	-0.123216
O3	O	0.677332	-0.008798	-0.123164
O4	O	0.667329	0.157066	-0.123221
O5	O	0.677319	-0.008796	0.123516
O6	O	0.589386	0.079138	0.123465
O7	O	0.755249	0.069135	0.123511
Cu8	Cu	0.672316	0.074136	0.146012
Cu9	Cu	0.672332	0.074134	-0.145717
O10	O	0.667316	0.157068	0.123459
C11	C	0.568176	0.078882	0.000119
C12	C	0.504959	0.078116	0.000103
C13	C	0.105856	0.125350	0.000154
C14	C	0.046456	0.124638	0.000163
O15	O	0.009711	0.168424	0.000202
N16	N	0.023830	0.072362	0.000179
C17	C	0.060607	0.020794	0.000200
O18	O	0.035908	-0.023737	0.000215
C19	C	0.120006	0.021506	0.000201
C20	C	0.142629	0.073785	0.000171
C21	C	0.128479	0.177625	0.000125
C22	C	0.187876	0.178336	0.000113
C23	C	0.224649	0.126772	0.000130
C24	C	0.202025	0.074497	0.000159
C25	C	0.156783	-0.030062	0.000233
C26	C	0.216185	-0.029345	0.000236
C27	C	0.238808	0.022934	0.000205
C28	C	0.298194	0.023643	0.000163
N29	N	0.320820	0.075920	0.000148
C30	C	0.284048	0.127484	0.000131
C31	C	-0.064135	0.019302	0.000200
C32	C	-0.123533	0.018589	0.000188
C33	C	-0.137680	0.122434	0.000154
C34	C	-0.078281	0.123146	0.000155
C35	C	-0.041509	0.071578	0.000184
C36	C	0.408784	0.128974	0.000104
C37	C	0.468186	0.129680	0.000086
C38	C	0.482329	0.025836	0.000128
C39	C	0.422932	0.025129	0.000138
C40	C	0.386160	0.076702	0.000132
O41	O	0.334974	-0.020119	0.000131
O42	O	0.308755	0.172007	0.000135
C43	C	0.677071	-0.030013	0.000180
C44	C	0.676305	-0.093230	0.000191
C45	C	0.723539	-0.492333	0.000123
C46	C	0.722827	-0.551733	0.000111
O47	O	0.766613	-0.588478	0.000068
N48	N	0.670551	-0.574359	0.000098
C49	C	0.618983	-0.537582	0.000081
O50	O	0.574452	-0.562281	0.000067
C51	C	0.619695	-0.478182	0.000082
C52	C	0.671974	-0.455560	0.000110
C53	C	0.775814	-0.469710	0.000149
C54	C	0.776525	-0.410313	0.000164
C55	C	0.724961	-0.373540	0.000151
C56	C	0.672685	-0.396164	0.000124
C57	C	0.568127	-0.441406	0.000054
C58	C	0.568844	-0.382004	0.000054
C59	C	0.621123	-0.359381	0.000082
C60	C	0.621832	-0.299995	0.000126
N61	N	0.674109	-0.277368	0.000139
C62	C	0.725673	-0.314141	0.000152
C63	C	0.617491	-0.662324	0.000077
C64	C	0.616778	-0.721722	0.000086
C65	C	0.720623	-0.735869	0.000114
C66	C	0.721335	-0.676470	0.000115
C67	C	0.669767	-0.639698	0.000090
C68	C	0.727163	-0.189405	0.000183
C69	C	0.727869	-0.130003	0.000203
C70	C	0.624025	-0.115860	0.000168
C71	C	0.623318	-0.175257	0.000156
C72	C	0.674891	-0.212029	0.000158
O73	O	0.578070	-0.263215	0.000163
O74	O	0.770196	-0.289433	0.000146
C75	C	0.776472	0.069388	0.000172
C76	C	0.839689	0.070154	0.000179
C77	C	0.667577	0.178283	0.000112
C78	C	0.668343	0.241500	0.000091
N79	N	0.672310	0.074138	0.351198
N80	N	0.672343	0.074128	-0.350903
C81	C	0.625132	0.121023	0.586203
C82	C	0.625232	0.121194	0.414312
C83	C	0.731662	0.086782	0.413547
C84	C	0.731404	0.087113	0.585492
C85	C	0.660730	0.014449	0.585758
C86	C	0.659358	0.014857	0.413803
H87	H	0.098544	0.219617	0.000117
H88	H	0.582043	-0.085909	0.000163
H89	H	0.742198	0.129798	0.370458
H90	H	0.767614	0.054285	0.627095
H91	H	-0.167632	0.164421	0.000147
H92	H	0.769159	-0.219337	0.000179
H93	H	0.817806	-0.499645	0.000154
H94	H	0.767616	0.053521	0.372663
H95	H	0.691533	-0.021648	0.370848
C96	C	0.707239	-0.032691	0.640712
H97	H	0.733609	-0.016115	0.701960
H98	H	0.726916	-0.050784	0.558032
H99	H	0.689883	-0.060250	0.696082
H100	H	0.770443	-0.111587	0.000230
H101	H	0.618411	0.002206	0.629199
C102	C	0.600379	0.001881	0.358764
H103	H	0.583715	0.032458	0.297876
H104	H	0.576180	-0.002179	0.441426
H105	H	0.604858	-0.032637	0.303002
H106	H	0.581103	0.113710	0.372159
H107	H	0.632408	0.165068	0.629384
C108	C	0.493068	0.187190	0.000061
H109	H	0.462657	0.217797	0.000069
H110	H	0.515945	0.189629	-0.085965
H111	H	0.515945	0.189627	0.086092
C112	C	0.212753	0.235844	0.000108
H113	H	0.182339	0.266448	0.000117
H114	H	0.235633	0.238290	-0.085910
H115	H	0.235626	0.238280	0.086147
H116	H	0.378851	0.170970	0.000103
H117	H	0.580748	-0.193677	0.000174
C118	C	0.565327	0.111093	0.642123
H119	H	0.568613	0.078262	0.704337
H120	H	0.541493	0.105276	0.559880
H121	H	0.548984	0.143616	0.696691
H122	H	-0.059867	0.165717	0.000139
C123	C	-0.148412	-0.038918	0.000207
H124	H	-0.117999	-0.069523	0.000226
H125	H	-0.171290	-0.041359	-0.085809
H126	H	-0.171286	-0.041355	0.086248
C127	C	0.131911	-0.087571	0.000287
H128	H	0.162326	-0.118173	0.000319
H129	H	0.109033	-0.090020	-0.085726
H130	H	0.109037	-0.090003	0.086331
C131	C	0.256632	-0.086072	0.000251
H132	H	0.234647	-0.117306	0.000255
H133	H	0.280101	-0.087955	0.086266
H134	H	0.280094	-0.087953	-0.085791
C135	C	-0.023690	-0.037426	0.000200
H136	H	-0.045677	-0.068658	0.000193
H137	H	-0.000222	-0.039314	0.086218
H138	H	-0.000227	-0.039307	-0.085839
H139	H	0.819097	-0.391900	0.000181
H140	H	0.574207	-0.740136	0.000089
H141	H	0.763906	-0.658056	0.000136
C142	C	0.398045	-0.032377	0.000156
H143	H	0.428456	-0.062984	0.000168
H144	H	0.375164	-0.034815	-0.085856
H145	H	0.375173	-0.034812	0.086201
H146	H	0.512280	-0.016146	0.000136
C147	C	0.510618	-0.466278	0.000010
H148	H	0.480016	-0.435863	-0.000017
H149	H	0.508167	-0.489161	0.086025
H150	H	0.508188	-0.489147	-0.086032
C151	C	0.512117	-0.341557	0.000033
H152	H	0.480883	-0.363542	0.000026
H153	H	0.510240	-0.318085	-0.085985
H154	H	0.510229	-0.318098	0.086072
C155	C	0.777344	-0.776327	0.000100
H156	H	0.769428	-0.814942	0.000075
H157	H	0.798797	-0.769512	0.086122
H158	H	0.798792	-0.769494	-0.085935
C159	C	0.560763	-0.621879	0.000077
H160	H	0.529531	-0.643866	0.000083
H161	H	0.558879	-0.598407	-0.085941
H162	H	0.558877	-0.598420	0.086115
H163	H	0.632609	0.165489	0.373153
C164	C	0.745290	0.145896	0.639641
H165	H	0.751033	0.169351	0.556555
H166	H	0.779075	0.140906	0.698300
H167	H	0.714318	0.163703	0.697454
