data_functionalizedCrystal
_audit_creation_method	'MofGen! by Chris Wilmer'
_symmetry_space_group_name_H-M	'P1'
_symmetry_Int_Tables_number	1
_symmetry_cell_setting	triclinic
loop_
_symmetry_equiv_pos_as_xyz
  x,y,z
_cell_length_a	10.967926
_cell_length_b	23.532357
_cell_length_c	9.482900
_cell_angle_alpha	99.268091
_cell_angle_beta	92.549900
_cell_angle_gamma	83.791997
loop_
_atom_site_label
_atom_site_type_symbol
_atom_site_fract_x
_atom_site_fract_y
_atom_site_fract_z
O1	O	1.608976	0.100502	0.282181
O2	O	1.259748	0.101751	0.194685
O3	O	1.444919	0.018460	0.241108
O4	O	1.423804	0.183793	0.235758
O5	O	1.407306	0.035449	0.473470
O6	O	1.222134	0.118740	0.427047
O7	O	1.571363	0.117492	0.514544
Cu8	Cu	1.393314	0.119667	0.492012
Cu9	Cu	1.437796	0.099575	0.217216
O10	O	1.386191	0.200783	0.468120
C11	C	1.196270	0.108871	0.299675
C12	C	1.063167	0.104768	0.266328
C13	C	0.984341	0.111740	0.371832
C14	C	0.846771	0.107500	0.337369
C15	C	1.425584	0.005725	0.357161
C16	C	1.423993	-0.057532	0.356776
C17	C	1.434535	-0.459060	0.227541
C18	C	1.433026	-0.518498	0.227155
O19	O	1.449642	-0.557111	0.119229
N20	N	1.411774	-0.538967	0.353626
C21	C	1.392018	-0.499994	0.480489
O22	O	1.373802	-0.522863	0.588028
C23	C	1.393519	-0.440557	0.480872
C24	C	1.414784	-0.420092	0.354395
C25	C	1.455797	-0.438595	0.101074
C26	C	1.457308	-0.379161	0.101462
C27	C	1.437557	-0.340193	0.228316
C28	C	1.416295	-0.360659	0.354783
C29	C	1.373754	-0.401585	0.607732
C30	C	1.375255	-0.342145	0.608103
C31	C	1.396520	-0.321680	0.481626
C32	C	1.398054	-0.262257	0.482024
N33	N	1.419306	-0.241788	0.355553
C34	C	1.439057	-0.280756	0.228699
C35	C	1.388867	-0.624817	0.479676
C36	C	1.387374	-0.684253	0.479297
C37	C	1.428380	-0.702753	0.225961
C38	C	1.429881	-0.643316	0.226344
C39	C	1.410118	-0.604348	0.353204
C40	C	1.442230	-0.155940	0.229522
C41	C	1.443744	-0.096500	0.229922
C42	C	1.402732	-0.078006	0.483255
C43	C	1.401224	-0.137440	0.482858
C44	C	1.420971	-0.176407	0.355979
O45	O	1.381444	-0.223610	0.589894
O46	O	1.457255	-0.257878	0.121175
C47	C	1.634840	0.110371	0.409551
C48	C	1.767945	0.114473	0.442888
C49	C	1.405527	0.213517	0.352064
C50	C	1.407119	0.276774	0.352440
N51	N	1.362036	0.133799	0.685291
N52	N	1.469084	0.085439	0.023940
C53	C	1.428562	0.103740	0.774168
C54	C	1.402548	0.115502	0.935064
H55	H	0.802298	0.123580	0.558736
C56	C	1.467004	-0.074240	0.092705
C57	C	1.572243	-0.044760	0.111312
C58	C	1.593683	-0.024246	-0.015060
H59	H	1.398584	-0.048628	0.070017
H60	H	1.478602	-0.105940	0.017048
H61	H	1.560636	-0.013064	0.186946
H62	H	1.640684	-0.070361	0.133981
H63	H	1.605282	-0.055947	-0.090718
H64	H	1.525257	0.001364	-0.037739
H65	H	1.665095	-0.004247	-0.002457
C66	C	1.017118	0.092657	0.111953
C67	C	0.889818	0.090879	0.108461
C68	C	0.847358	0.079730	-0.033727
H69	H	1.055406	0.056501	0.067260
H70	H	1.036364	0.122466	0.062565
H71	H	0.870584	0.061072	0.157828
H72	H	0.851499	0.127029	0.153125
H73	H	0.866603	0.109539	-0.083115
H74	H	0.885654	0.043575	-0.078409
H75	H	0.760980	0.078528	-0.036116
H76	H	1.504774	0.069295	0.731147
H77	H	0.812417	0.098390	0.221522
C78	C	1.378418	-0.159702	0.620206
C79	C	1.479546	-0.197377	0.653252
C80	C	1.458584	-0.217882	0.779780
H81	H	1.307098	-0.179760	0.607976
H82	H	1.366942	-0.127994	0.695862
H83	H	1.491009	-0.229080	0.577614
H84	H	1.550879	-0.177332	0.665510
H85	H	1.447107	-0.186174	0.855436
H86	H	1.387261	-0.237938	0.767538
H87	H	1.527199	-0.243443	0.802225
H88	H	1.326323	0.149945	0.978078
H89	H	1.018702	0.120845	0.487671
H90	H	1.458304	-0.187660	0.126204
H91	H	1.545299	0.050993	0.980923
C92	C	1.381055	-0.035742	0.621019
C93	C	1.265141	-0.040527	0.671476
C94	C	1.245117	-0.001604	0.798382
H95	H	1.384898	0.002609	0.603289
H96	H	1.442254	-0.044454	0.690621
H97	H	1.203959	-0.031811	0.601890
H98	H	1.261271	-0.078870	0.689237
H99	H	1.306316	-0.010316	0.867984
H100	H	1.248965	0.036745	0.780639
H101	H	1.166474	-0.004849	0.832640
C102	C	1.364108	-0.706536	0.616470
C103	C	1.258876	-0.736020	0.597785
C104	C	1.237398	-0.756556	0.724115
H105	H	1.352477	-0.674862	0.692162
H106	H	1.432554	-0.732151	0.639136
H107	H	1.190446	-0.710407	0.575137
H108	H	1.270481	-0.767702	0.522117
H109	H	1.305844	-0.782171	0.746780
H110	H	1.225772	-0.724879	0.799797
H111	H	1.166004	-0.776568	0.711449
H112	H	1.285817	0.168239	0.728312
H113	H	1.474620	-0.362504	-0.001530
C114	C	1.476995	-0.480914	-0.036686
C115	C	1.374151	-0.511471	-0.070209
C116	C	1.393639	-0.550451	-0.197119
H117	H	1.547140	-0.507317	-0.024739
H118	H	1.489812	-0.460222	-0.111994
H119	H	1.361348	-0.532162	0.005082
H120	H	1.303992	-0.485084	-0.082185
H121	H	1.406456	-0.529760	-0.272428
H122	H	1.463787	-0.576850	-0.185160
H123	H	1.323860	-0.571185	-0.219888
C124	C	1.452918	-0.621210	0.088861
C125	C	1.469866	-0.668064	-0.022311
C126	C	1.491072	-0.647725	-0.148990
H127	H	1.524303	-0.601198	0.101056
H128	H	1.384402	-0.595647	0.066132
H129	H	1.538375	-0.693616	0.000413
H130	H	1.398494	-0.688080	-0.034551
H131	H	1.422557	-0.622163	-0.171719
H132	H	1.562456	-0.627714	-0.136781
H133	H	1.502563	-0.679512	-0.224438
C134	C	1.367187	-0.582473	0.617320
C135	C	1.263654	-0.543716	0.599119
C136	C	1.243634	-0.504710	0.725888
H137	H	1.436753	-0.561623	0.640377
H138	H	1.354247	-0.603157	0.692605
H139	H	1.276601	-0.523035	0.523858
H140	H	1.194067	-0.564550	0.576082
H141	H	1.230694	-0.525393	0.801173
H142	H	1.313207	-0.483864	0.748935
H143	H	1.173379	-0.478412	0.713560
H144	H	1.444459	-0.734491	0.122668
H145	H	1.356439	-0.418237	0.710723
H146	H	1.359144	-0.310418	0.711406
