data_functionalizedCrystal
_audit_creation_method	'MofGen! by Chris Wilmer'
_symmetry_space_group_name_H-M	'P1'
_symmetry_Int_Tables_number	1
_symmetry_cell_setting	triclinic
loop_
_symmetry_equiv_pos_as_xyz
  x,y,z
_cell_length_a	18.101395
_cell_length_b	18.101398
_cell_length_c	12.645324
_cell_angle_alpha	90.018144
_cell_angle_beta	89.964837
_cell_angle_gamma	89.970320
loop_
_atom_site_label
_atom_site_type_symbol
_atom_site_fract_x
_atom_site_fract_y
_atom_site_fract_z
Zn1	Zn	-0.294802	-1.132149	-0.599285
Zn2	Zn	-0.418667	-1.132036	-0.422014
Zn3	Zn	-0.294841	-1.008299	-0.422044
Zn4	Zn	-0.418603	-1.008258	-0.599245
O5	O	-0.356728	-1.070186	-0.510647
O6	O	-0.311243	-1.235767	-0.575774
O7	O	-0.402284	-1.115592	-0.273671
O8	O	-0.191203	-1.024792	-0.445585
O9	O	-0.402246	-1.235684	-0.445534
O10	O	-0.191174	-1.115784	-0.575803
O11	O	-0.311310	-1.024683	-0.273693
O12	O	-0.311247	-0.904661	-0.445546
O13	O	-0.402137	-1.024722	-0.747597
O14	O	-0.402175	-0.904631	-0.575734
O15	O	-0.311181	-1.115744	-0.747627
O16	O	-0.522291	-1.115553	-0.445495
O17	O	-0.522244	-1.024613	-0.575706
C18	C	-0.356709	-0.877775	-0.510640
C19	C	-0.356719	-0.795461	-0.510662
C20	C	-0.549139	-1.070086	-0.510616
C21	C	-0.631453	-1.070112	-0.510638
C22	C	-0.356734	-0.644753	-0.510660
C23	C	-0.414031	-0.613405	-0.592444
C24	C	-0.414264	-0.527786	-0.592202
C25	C	-0.356748	-0.496370	-0.510660
C26	C	-0.377586	-0.527418	-0.398803
C27	C	-0.377994	-0.613063	-0.399276
C28	C	-0.278456	-0.613233	-0.539756
C29	C	-0.278886	-0.527583	-0.542219
C30	C	-0.356755	-0.412510	-0.510653
C31	C	-0.356728	-0.728612	-0.510659
C32	C	-0.930543	-1.070274	-0.510695
C33	C	-0.899219	-1.013191	-0.592823
C34	C	-0.813602	-1.012919	-0.592566
C35	C	-0.782161	-1.070194	-0.510668
C36	C	-0.813323	-1.049059	-0.398945
C37	C	-0.898968	-1.048691	-0.399436
C38	C	-0.898886	-1.148617	-0.539307
C39	C	-0.813235	-1.148157	-0.541757
C40	C	-0.698302	-1.070149	-0.510645
C41	C	-1.014403	-1.070317	-0.510710
C42	C	-0.163566	-1.070305	-0.510702
C43	C	-0.081252	-1.070356	-0.510725
C44	C	-0.356647	-1.070241	-0.787153
C45	C	-0.356613	-1.070265	-0.904983
C46	C	-0.356749	-0.263347	-0.510655
C47	C	-0.356763	-0.345662	-0.510658
C48	C	-0.299558	-1.127749	-1.072565
C49	C	-0.299352	-1.127565	-0.950005
C50	C	-0.335404	-0.992251	-0.949472
C51	C	-0.334970	-0.992600	-1.072070
C52	C	-0.434961	-1.090161	-1.072172
C53	C	-0.434567	-1.091868	-0.949566
C54	C	-0.356755	-1.070173	-0.235217
C55	C	-0.356580	-1.070293	-0.117388
H56	H	-0.401263	-0.506795	-0.675128
Br57	Br	-0.246727	-0.649282	-0.673414
Br58	Br	-0.202577	-1.105642	-0.901149
Br59	Br	-0.473351	-0.646303	-0.358313
H60	H	-0.241817	-1.114765	-1.103395
H61	H	-0.277675	-0.975755	-1.100687
H62	H	-0.278748	-0.975097	-0.918784
H63	H	-0.920806	-0.955474	-0.574110
H64	H	-0.454269	-1.146054	-1.103149
H65	H	-0.472271	-0.507263	-0.572898
H66	H	-0.374696	-0.948334	-1.101720
H67	H	-0.792530	-1.026142	-0.675408
H68	H	-0.793179	-0.954850	-0.573615
Br69	Br	-0.933455	-1.035006	-0.731352
H70	H	-0.235770	-0.633507	-0.480194
Br71	Br	-0.461223	-1.187563	-0.901112
H72	H	-0.401182	-0.634029	-0.675628
H73	H	-0.263166	-0.507294	-0.624540
Br74	Br	-0.779387	-1.116175	-0.294168
Br75	Br	-0.777551	-1.222800	-0.449332
Br76	Br	-0.311438	-0.647630	-0.294198
H77	H	-0.919011	-0.991423	-0.375198
Br78	Br	-0.310164	-0.493505	-0.294444
Br79	Br	-0.471897	-0.491612	-0.357106
H80	H	-0.233942	-0.506199	-0.487042
H81	H	-0.919692	-1.088465	-0.336158
Br82	Br	-0.777687	-0.954618	-0.357818
Br83	Br	-0.934788	-1.180733	-0.672778
H84	H	-0.792865	-1.164094	-0.623979
H85	H	-0.479339	-1.053060	-0.918914
Br86	Br	-0.932663	-1.219507	-0.439626
Br87	Br	-0.321480	-1.223988	-0.899866
Br88	Br	-0.402504	-0.918955	-0.900881
Br89	Br	-0.505774	-1.020408	-1.120475
H90	H	-0.312674	-1.185791	-1.102050
H91	H	-0.471705	-0.634892	-0.573374
