data_functionalizedCrystal
_audit_creation_method	'MofGen! by Chris Wilmer'
_symmetry_space_group_name_H-M	'P1'
_symmetry_Int_Tables_number	1
_symmetry_cell_setting	triclinic
loop_
_symmetry_equiv_pos_as_xyz
  x,y,z
_cell_length_a	33.359863
_cell_length_b	33.359482
_cell_length_c	33.359725
_cell_angle_alpha	120.002639
_cell_angle_beta	89.996550
_cell_angle_gamma	119.999756
loop_
_atom_site_label
_atom_site_type_symbol
_atom_site_fract_x
_atom_site_fract_y
_atom_site_fract_z
O1	O	0.275022	-0.353555	-0.011918
O2	O	0.216723	-0.271477	0.011874
O3	O	0.216728	-0.353557	-0.070210
O4	O	0.275017	-0.271475	0.070166
O5	O	0.283397	-0.286883	-0.070209
O6	O	0.283391	-0.204803	0.011875
O7	O	0.341691	-0.286882	-0.011917
Zn8	Zn	0.323126	-0.235256	-0.000021
Zn9	Zn	0.235287	-0.323102	-0.000022
O10	O	0.341686	-0.204802	0.070167
C11	C	0.146357	-0.117470	0.028824
C12	C	0.098114	-0.141365	0.029163
C13	C	0.146360	-0.044880	0.028821
C14	C	0.098117	-0.068886	0.029159
C15	C	0.073770	-0.117467	0.028821
C16	C	0.170595	-0.068888	0.029162
C17	C	0.219108	-0.123174	0.022937
C18	C	0.242114	-0.149743	0.019221
C19	C	0.217308	-0.199410	0.017357
C20	C	0.242249	-0.228222	0.013326
C21	C	0.169498	-0.222513	0.019213
C22	C	0.146494	-0.195944	0.022931
C23	C	0.171300	-0.146277	0.024791
C24	C	-0.004686	-0.196108	0.022931
C25	C	-0.054260	-0.222831	0.019212
C26	C	-0.079121	-0.199891	0.017345
C27	C	-0.132873	-0.228865	0.013310
C28	C	-0.054413	-0.150224	0.019200
C29	C	-0.004842	-0.123501	0.022921
C30	C	0.020020	-0.146445	0.024785
C31	C	0.219115	0.027681	0.022930
C32	C	0.242121	0.073533	0.019205
C33	C	0.217319	0.096532	0.017337
C34	C	0.242263	0.146249	0.013302
C35	C	0.169510	0.073684	0.019191
C36	C	0.146502	0.027832	0.022914
C37	C	0.171306	0.004833	0.024784
O38	O	-0.208899	-0.271457	0.070153
O39	O	-0.232675	-0.353545	-0.070223
O40	O	-0.150600	-0.271461	0.011860
O41	O	-0.290974	-0.353541	-0.011930
O42	O	-0.150599	-0.204790	0.011856
O43	O	-0.232674	-0.286874	-0.070226
O44	O	-0.208898	-0.204787	0.070150
Zn45	Zn	-0.220786	-0.235245	-0.000039
Zn46	Zn	-0.220787	-0.323086	-0.000035
O47	O	-0.290973	-0.286871	-0.011933
C48	C	0.146362	-0.440888	-0.367169
C49	C	0.098121	-0.489471	-0.391404
C50	C	0.146362	-0.440888	-0.294579
C51	C	0.098121	-0.489471	-0.318925
C52	C	0.073776	-0.513479	-0.367168
C53	C	0.170597	-0.416990	-0.318926
C54	C	0.219111	-0.362243	-0.366981
C55	C	0.242117	-0.335517	-0.389830
C56	C	0.217314	-0.358457	-0.437632
C57	C	0.242254	-0.329481	-0.462409
C58	C	0.169505	-0.408126	-0.462593
C59	C	0.146502	-0.434851	-0.439745
C60	C	0.171305	-0.411907	-0.391939
C61	C	-0.004675	-0.586046	-0.439920
C62	C	-0.054247	-0.631903	-0.462926
C63	C	-0.079110	-0.654902	-0.438121
C64	C	-0.132860	-0.704622	-0.463063
C65	C	-0.054404	-0.632052	-0.390311
C66	C	-0.004834	-0.586198	-0.367307
C67	C	0.020028	-0.563195	-0.392111
C68	C	0.219111	-0.362243	-0.216126
C69	C	0.242115	-0.335513	-0.166549
C70	C	0.217311	-0.358453	-0.141686
C71	C	0.242252	-0.329476	-0.087934
C72	C	0.169505	-0.408117	-0.166390
C73	C	0.146500	-0.434847	-0.215964
C74	C	0.171305	-0.411907	-0.240830
C75	C	0.412073	-0.513470	-0.028888
C76	C	0.460315	-0.489461	-0.029228
C77	C	0.412069	-0.440880	-0.028885
C78	C	0.460312	-0.416982	-0.029225
C79	C	0.484660	-0.440878	-0.028888
C80	C	0.387835	-0.489464	-0.029226
C81	C	0.339323	-0.586037	-0.022998
C82	C	0.316318	-0.631894	-0.019282
C83	C	0.341123	-0.654892	-0.017418
C84	C	0.316183	-0.704611	-0.013386
C85	C	0.388933	-0.632040	-0.019276
C86	C	0.411936	-0.586187	-0.022995
C87	C	0.387131	-0.563185	-0.024854
C88	C	0.563114	-0.435174	-0.023000
C89	C	0.612688	-0.408605	-0.019283
C90	C	0.637549	-0.358936	-0.017416
C91	C	0.691300	-0.330124	-0.013383
C92	C	0.612841	-0.335833	-0.019271
C93	C	0.563270	-0.362402	-0.022990
C94	C	0.538409	-0.412070	-0.024853
C95	C	0.339316	-0.435181	-0.022992
C96	C	0.316310	-0.408610	-0.019266
C97	C	0.341112	-0.358941	-0.017399
C98	C	0.316168	-0.330132	-0.013364
C99	C	0.388920	-0.335836	-0.019255
C100	C	0.411928	-0.362403	-0.022979
C101	C	0.387124	-0.412075	-0.024847
O102	O	0.341710	0.279113	-0.011933
O103	O	0.283409	0.162526	0.011857
O104	O	0.283417	0.162522	-0.070226
O105	O	0.341702	0.279117	0.070150
O106	O	0.216747	0.162525	-0.070229
O107	O	0.216739	0.162529	0.011855
O108	O	0.275040	0.279115	-0.011936
Zn109	Zn	0.235305	0.220823	-0.000041
Zn110	Zn	0.323145	0.220819	-0.000037
O111	O	0.275032	0.279120	0.070147
O112	O	-0.290955	-0.837490	-0.495825
O113	O	-0.150584	-0.720897	-0.437535
O114	O	-0.232667	-0.720900	-0.437531
O115	O	-0.208873	-0.837487	-0.495830
O116	O	-0.232668	-0.720901	-0.504203
O117	O	-0.150586	-0.720898	-0.504207
O118	O	-0.290957	-0.837492	-0.562497
Zn119	Zn	-0.220772	-0.779195	-0.543938
Zn120	Zn	-0.220770	-0.779193	-0.456095
O121	O	-0.208875	-0.837489	-0.562502
O122	O	0.275022	-0.271471	-0.562502
O123	O	0.216729	-0.353556	-0.504210
O124	O	0.216725	-0.271474	-0.504206
O125	O	0.275025	-0.353552	-0.562506
O126	O	0.283393	-0.204802	-0.437535
O127	O	0.283396	-0.286884	-0.437539
O128	O	0.341689	-0.204798	-0.495830
Zn129	Zn	0.323128	-0.235255	-0.456099
Zn130	Zn	0.235290	-0.323099	-0.543942
O131	O	0.341693	-0.286880	-0.495834
C132	C	0.484640	-0.044877	0.367125
C133	C	0.460295	-0.068884	0.391361
C134	C	0.412053	-0.117469	0.294537
C135	C	0.387819	-0.141366	0.318883
C136	C	0.412054	-0.117468	0.367126
C137	C	0.460294	-0.068885	0.318882
C138	C	0.563091	0.027689	0.366935
C139	C	0.612663	0.073547	0.389783
C140	C	0.637526	0.096546	0.437585
C141	C	0.691275	0.146266	0.462361
C142	C	0.612820	0.073696	0.462547
C143	C	0.563250	0.027842	0.439700
C144	C	0.538387	0.004839	0.391894
C145	C	0.412244	-0.123169	0.439879
C146	C	0.389395	-0.149737	0.462886
C147	C	0.341596	-0.199406	0.438083
C148	C	0.316821	-0.228216	0.463025
C149	C	0.316635	-0.222511	0.390272
C150	C	0.339481	-0.195943	0.367267
C151	C	0.387285	-0.146274	0.392071
C152	C	0.412241	-0.123171	0.216082
C153	C	0.389395	-0.149744	0.166505
C154	C	0.341595	-0.199413	0.141643
C155	C	0.316819	-0.228225	0.087891
C156	C	0.316637	-0.222518	0.166348
C157	C	0.339482	-0.195949	0.215922
C158	C	0.387284	-0.146276	0.240787
C159	C	-0.249580	-0.513457	-0.367175
C160	C	-0.249914	-0.489449	-0.391411
C161	C	-0.249593	-0.440870	-0.294590
C162	C	-0.249927	-0.416972	-0.318937
C163	C	-0.249579	-0.440868	-0.367178
C164	C	-0.249928	-0.489451	-0.318933
C165	C	-0.243691	-0.586020	-0.366981
C166	C	-0.239969	-0.631875	-0.389828
C167	C	-0.238095	-0.654872	-0.437628
C168	C	-0.234057	-0.704589	-0.462402
C169	C	-0.239946	-0.632022	-0.462590
C170	C	-0.243670	-0.586171	-0.439746
C171	C	-0.245540	-0.563170	-0.391941
C172	C	-0.243674	-0.435164	-0.439929
C173	C	-0.239951	-0.408596	-0.462936
C174	C	-0.238089	-0.358929	-0.438134
C175	C	-0.234050	-0.330118	-0.463077
C176	C	-0.239955	-0.335827	-0.390326
C177	C	-0.243680	-0.362395	-0.367321
C178	C	-0.245537	-0.412061	-0.392122
C179	C	-0.243717	-0.435169	-0.216136
C180	C	-0.240002	-0.408598	-0.166560
C181	C	-0.238141	-0.358932	-0.141699
C182	C	-0.234117	-0.330123	-0.087949
C183	C	-0.239990	-0.335827	-0.166405
C184	C	-0.243703	-0.362394	-0.215978
C185	C	-0.245567	-0.412065	-0.240841
C186	C	-0.191993	-0.117463	0.367105
C187	C	-0.191659	-0.068883	0.391338
C188	C	-0.191980	-0.117462	0.294516
C189	C	-0.191646	-0.068881	0.318860
C190	C	-0.191994	-0.044876	0.367101
C191	C	-0.191645	-0.141359	0.318863
C192	C	-0.197884	-0.196105	0.366919
C193	C	-0.201606	-0.222830	0.389770
C194	C	-0.203480	-0.199892	0.437570
C195	C	-0.207518	-0.228868	0.462347
C196	C	-0.201628	-0.150226	0.462528
C197	C	-0.197904	-0.123502	0.439680
C198	C	-0.196034	-0.146443	0.391876
C199	C	-0.197898	0.027685	0.439848
C200	C	-0.201621	0.073539	0.462851
C201	C	-0.203482	0.096537	0.438046
C202	C	-0.207520	0.146254	0.462984
C203	C	-0.201616	0.073689	0.390237
C204	C	-0.197891	0.027839	0.367236
C205	C	-0.196035	0.004837	0.392041
C206	C	-0.197856	-0.196102	0.216066
C207	C	-0.201571	-0.222830	0.166491
C208	C	-0.203432	-0.199892	0.141626
C209	C	-0.207456	-0.228866	0.087875
C210	C	-0.201582	-0.150230	0.166328
C211	C	-0.197869	-0.123502	0.215901
C212	C	-0.196006	-0.146441	0.240768
C213	C	0.073804	-0.117487	-0.367188
C214	C	0.098150	-0.141386	-0.391423
C215	C	0.146388	-0.044897	-0.294598
C216	C	0.170624	-0.068907	-0.318943
C217	C	0.146391	-0.117491	-0.367186
C218	C	0.098147	-0.068903	-0.318945
C219	C	-0.004648	-0.123184	-0.367001
C220	C	-0.054221	-0.149751	-0.389852
C221	C	-0.079082	-0.199420	-0.437654
C222	C	-0.132831	-0.228229	-0.462432
C223	C	-0.054375	-0.222527	-0.462614
C224	C	-0.004805	-0.195961	-0.439766
C225	C	0.020056	-0.146291	-0.391959
C226	C	0.146204	-0.196139	-0.439938
C227	C	0.169054	-0.222866	-0.462943
C228	C	0.216853	-0.199928	-0.438138
C229	C	0.241630	-0.228907	-0.463079
C230	C	0.241812	-0.150259	-0.390328
C231	C	0.218965	-0.123532	-0.367324
C232	C	0.171161	-0.146474	-0.392129
C233	C	0.146197	0.027672	-0.216145
C234	C	0.169042	0.073526	-0.166568
C235	C	0.216841	0.096524	-0.141704
C236	C	0.241615	0.146244	-0.087952
C237	C	0.241800	0.073671	-0.166407
C238	C	0.218957	0.027817	-0.215982
C239	C	0.171156	0.004820	-0.240848
O240	O	-0.208787	-0.204774	-0.495840
O241	O	-0.232602	-0.286866	-0.437552
O242	O	-0.150511	-0.204780	-0.437537
O243	O	-0.290878	-0.286859	-0.495855
O244	O	-0.150499	-0.271450	-0.504204
O245	O	-0.232590	-0.353535	-0.504219
O246	O	-0.208775	-0.271443	-0.562507
Zn247	Zn	-0.220681	-0.323074	-0.543948
Zn248	Zn	-0.220696	-0.235235	-0.456111
O249	O	-0.290866	-0.353529	-0.562522
C250	C	0.412061	0.559133	0.367109
C251	C	0.460302	0.583028	0.391345
C252	C	0.412063	0.486538	0.294520
C253	C	0.460303	0.510544	0.318867
C254	C	0.484648	0.559128	0.367110
C255	C	0.387827	0.510549	0.318865
C256	C	0.339311	0.564839	0.366919
C257	C	0.316305	0.591410	0.389768
C258	C	0.341108	0.641079	0.437570
C259	C	0.316166	0.669893	0.462346
C260	C	0.388916	0.664182	0.462531
C261	C	0.411920	0.637611	0.439684
C262	C	0.387118	0.587942	0.391878
C263	C	0.563098	0.637771	0.439863
C264	C	0.612670	0.664494	0.462870
C265	C	0.637533	0.641552	0.438066
C266	C	0.691283	0.670526	0.463008
C267	C	0.612828	0.591883	0.390255
C268	C	0.563258	0.565160	0.367251
C269	C	0.538395	0.588106	0.392054
C270	C	0.339315	0.413974	0.216065
C271	C	0.316313	0.368120	0.166488
C272	C	0.341117	0.345118	0.141625
C273	C	0.316177	0.295398	0.087873
C274	C	0.388923	0.367967	0.166331
C275	C	0.411927	0.413821	0.215905
C276	C	0.387121	0.436822	0.240770
H277	H	0.149314	0.092412	0.017669
H278	H	0.409128	-0.650772	-0.017757
H279	H	0.633071	0.092430	0.501473
C280	C	0.334279	0.483405	0.292460
N281	N	0.293947	0.462959	0.272572
C282	C	0.071716	-0.516614	-0.292518
N283	N	0.051828	-0.537057	-0.272629
C284	C	-0.203665	0.098991	0.362951
N285	N	-0.205208	0.118047	0.342398
C286	C	0.294397	-0.125029	-0.363043
N287	N	0.334004	-0.106023	-0.342490
C288	C	0.071745	-0.194203	-0.444972
N289	N	0.051858	-0.233984	-0.485303
C290	C	-0.245754	-0.560725	-0.314398
N291	N	-0.247306	-0.541672	-0.274790
C292	C	0.142221	-0.433356	-0.515179
N293	N	0.121669	-0.452361	-0.554786
H294	H	0.239316	0.008959	0.024455
H295	H	0.281048	0.092132	0.017696
H296	H	-0.238439	-0.295382	-0.370134
H297	H	0.239313	-0.343563	-0.236370
C298	C	-0.195840	0.002705	0.314648
N299	N	-0.194297	-0.016227	0.275037
C300	C	-0.081768	-0.124991	0.017147
N301	N	-0.102369	-0.105984	0.015601
C302	C	0.263720	0.565997	0.362308
N303	N	0.224111	0.546855	0.341626
H304	H	0.542848	0.008964	0.328010
H305	H	-0.250476	-0.509544	-0.299387
H306	H	0.210263	-0.048809	-0.299397
C307	C	-0.203693	-0.124998	0.515113
N308	N	-0.205248	-0.105994	0.554719
H309	H	0.277383	-0.427428	-0.017757
H310	H	0.479839	-0.048783	0.431003
C311	C	0.142219	-0.433353	-0.139037
N312	N	0.121671	-0.452361	-0.118434
H313	H	0.450857	-0.343585	-0.024487
C314	C	-0.081418	-0.657033	-0.515515
N315	N	-0.101887	-0.675962	-0.555125
H316	H	-0.238498	-0.427416	-0.146450
C317	C	0.141596	-0.277500	-0.515533
N318	N	0.120917	-0.318651	-0.555144
C319	C	0.486715	-0.364170	-0.029963
N320	N	0.506601	-0.324394	-0.030520
H321	H	0.239311	-0.343559	-0.328055
C322	C	0.416199	0.718826	0.515118
N323	N	0.436750	0.759985	0.554725
C324	C	-0.203596	-0.277451	0.139325
N325	N	-0.205120	-0.318593	0.118863
H326	H	-0.245237	-0.475615	-0.236378
C327	C	0.071717	-0.516616	-0.444954
N328	N	0.051829	-0.537061	-0.485286
C329	C	0.639840	0.719129	0.515459
N330	N	0.660308	0.760282	0.555069
H331	H	-0.074371	-0.263268	0.017704
C332	C	0.312030	-0.221364	0.314674
N333	N	0.291355	-0.240514	0.275059
C334	C	0.264052	-0.277159	0.138996
N335	N	0.224444	-0.318313	0.118393
H336	H	0.543135	0.009243	0.460027
H337	H	0.210229	-0.377886	-0.299377
H338	H	0.107281	-0.214820	-0.460140
C339	C	0.071740	-0.041758	-0.292539
N340	N	0.051851	-0.021313	-0.272651
C341	C	0.640185	0.566649	0.362971
N342	N	0.660788	0.547642	0.342419
H343	H	0.319159	-0.214764	0.236036
H344	H	0.149303	-0.262957	0.017695
H345	H	-0.238453	-0.650468	-0.369498
H346	H	0.015592	-0.082739	-0.328076
H347	H	0.632773	0.092148	0.369457
C348	C	-0.203644	-0.277460	0.362314
N349	N	-0.205179	-0.318608	0.341634
H350	H	-0.196336	-0.214782	0.236311
C351	C	-0.190933	-0.041742	0.444885
N352	N	-0.190389	-0.021301	0.485215
H353	H	0.281041	-0.295078	-0.146440
H354	H	0.450848	0.656427	0.460006
H355	H	-0.245195	-0.343581	-0.328393
H356	H	0.239312	-0.082729	0.024457
C357	C	0.535749	0.663012	0.467152
N358	N	0.515150	0.682025	0.487706
C359	C	0.141586	0.098666	-0.139400
N360	N	0.120906	0.117602	-0.118935
H361	H	-0.238434	-0.427413	-0.501863
H362	H	0.450863	-0.567583	-0.024508
H363	H	0.015275	-0.083061	0.024435
C364	C	0.536084	0.510525	0.314661
N365	N	0.515616	0.469375	0.275050
C366	C	-0.081394	-0.124333	-0.362394
N367	N	-0.101862	-0.105187	-0.341713
C368	C	0.246416	-0.068900	-0.314733
N369	N	0.267091	-0.027753	-0.275119
H370	H	-0.196358	-0.214787	0.327996
C371	C	0.416210	0.342662	0.138978
N372	N	0.436759	0.323600	0.118375
C373	C	-0.245739	-0.336979	-0.243154
N374	N	-0.247274	-0.317835	-0.263623
C375	C	-0.203673	0.098667	0.515439
N376	N	-0.205220	0.117596	0.555048
H377	H	0.107275	0.008951	-0.236389
C378	C	-0.250649	-0.516597	-0.444962
N379	N	-0.251205	-0.537044	-0.485295
H380	H	0.078575	-0.048788	0.029707
H381	H	0.277387	0.349517	0.146379
H382	H	0.451167	-0.082724	0.460080
C383	C	0.486699	-0.041742	0.292475
N384	N	0.506586	-0.021298	0.272586
H385	H	-0.238470	-0.295380	-0.146158
C386	C	0.263731	-0.657025	-0.017237
N387	N	0.224120	-0.675956	-0.015698
H388	H	-0.074625	-0.262976	-0.501540
H389	H	-0.238421	-0.650753	-0.501515
H390	H	0.479844	0.622122	0.430984
C391	C	0.294385	0.098971	-0.139053
N392	N	0.333993	0.118030	-0.118450
C393	C	0.334287	-0.516608	-0.029960
N394	N	0.293956	-0.537051	-0.030513
C395	C	0.093912	0.002701	0.024955
N396	N	0.054300	-0.016227	0.026493
H397	H	0.078570	-0.180454	0.029714
H398	H	0.015310	-0.214775	-0.460089
H399	H	0.210233	-0.048800	0.029708
H400	H	-0.245179	-0.567568	-0.460072
C401	C	-0.203628	-0.124994	0.138974
N402	N	-0.205166	-0.105987	0.118370
H403	H	0.479848	0.490447	0.299319
H404	H	-0.250471	-0.377877	-0.299389
C405	C	0.294702	-0.124330	0.017178
N406	N	0.334313	-0.105189	0.015640
H407	H	0.239281	0.009209	-0.236094
H408	H	-0.191108	-0.180459	0.299317
H409	H	0.409723	-0.130917	0.501814
H410	H	0.107568	-0.214753	0.024445
H411	H	-0.196363	-0.083065	0.236012
H412	H	-0.191098	-0.048792	0.299310
C413	C	0.022660	-0.221350	0.024981
N414	N	0.043255	-0.240366	0.026519
H415	H	0.348182	-0.180461	0.299335
H416	H	0.281041	-0.295079	-0.369504
H417	H	0.107577	-0.475292	-0.460069
H418	H	0.319113	0.432698	0.236309
C419	C	0.264053	-0.277157	0.362987
N420	N	0.224448	-0.318318	0.342433
H421	H	0.409720	-0.130927	0.146395
H422	H	-0.245189	-0.475607	-0.460128
H423	H	0.319111	0.524393	0.327994
H424	H	0.451164	-0.082724	0.236325
C425	C	0.535767	-0.489815	-0.025056
N426	N	0.515170	-0.530971	-0.026602
H427	H	-0.074655	-0.650786	-0.370117
C428	C	0.639860	-0.434026	-0.017248
N429	N	0.660328	-0.453171	-0.015717
C430	C	0.640196	-0.281189	-0.017214
N431	N	0.660798	-0.240032	-0.015664
H432	H	0.015567	-0.567321	-0.460121
H433	H	0.450854	0.432424	0.236018
H434	H	0.015281	-0.567595	-0.328381
H435	H	0.107572	-0.475284	-0.236076
H436	H	0.543155	-0.343588	-0.024498
H437	H	0.479861	-0.509555	-0.029775
C438	C	0.416205	-0.281194	-0.017201
N439	N	0.436753	-0.240041	-0.015657
H440	H	-0.196392	-0.083061	0.460004
H441	H	0.319115	-0.475629	-0.024516
H442	H	0.319120	-0.567313	-0.024515
H443	H	-0.196379	0.008964	0.460052
