data_functionalizedCrystal
_audit_creation_method	'MofGen! by Chris Wilmer'
_symmetry_space_group_name_H-M	'P1'
_symmetry_Int_Tables_number	1
_symmetry_cell_setting	triclinic
loop_
_symmetry_equiv_pos_as_xyz
  x,y,z
_cell_length_a	21.295418
_cell_length_b	25.639239
_cell_length_c	21.295412
_cell_angle_alpha	89.971450
_cell_angle_beta	89.957310
_cell_angle_gamma	90.054499
loop_
_atom_site_label
_atom_site_type_symbol
_atom_site_fract_x
_atom_site_fract_y
_atom_site_fract_z
Zn1	Zn	0.962314	-0.207943	-0.356243
Zn2	Zn	0.962203	-0.295377	-0.250972
Zn3	Zn	0.857039	-0.207981	-0.250953
Zn4	Zn	0.856991	-0.295373	-0.356169
O5	O	0.909637	-0.251669	-0.303584
O6	O	1.050388	-0.219527	-0.342318
O7	O	0.948226	-0.283801	-0.162880
O8	O	0.871070	-0.134811	-0.264943
O9	O	1.050307	-0.283764	-0.264976
O10	O	0.948415	-0.134783	-0.342299
O11	O	0.870962	-0.219592	-0.162866
O12	O	0.768943	-0.219589	-0.264871
O13	O	0.870989	-0.283758	-0.444268
O14	O	0.768908	-0.283795	-0.342172
O15	O	0.948369	-0.219523	-0.444322
O16	O	0.948180	-0.368542	-0.264904
O17	O	0.870881	-0.368539	-0.342191
C18	C	0.746085	-0.251696	-0.303512
C19	C	0.676117	-0.251721	-0.303496
C20	C	0.643248	-0.285197	-0.343686
C21	C	0.577506	-0.285184	-0.343715
C22	C	0.544634	-0.251700	-0.303541
C23	C	0.577511	-0.218217	-0.263347
C24	C	0.643252	-0.218227	-0.263325
N25	N	0.441360	-0.247615	-0.248483
N26	N	0.378909	-0.247609	-0.248506
C27	C	0.346560	-0.251667	-0.303608
N28	N	0.379021	-0.255742	-0.358686
N29	N	0.441479	-0.255752	-0.358662
C30	C	0.473349	-0.251685	-0.303561
C31	C	0.242406	-0.285131	-0.343832
C32	C	0.176662	-0.285115	-0.343862
C33	C	0.176668	-0.218150	-0.263489
C34	C	0.242410	-0.218164	-0.263465
C35	C	0.275275	-0.251657	-0.303636
C36	C	0.909531	-0.387511	-0.303555
C37	C	0.909543	-0.445625	-0.303564
C38	C	0.949991	-0.805977	-0.263409
C39	C	0.950015	-0.860581	-0.263418
O40	O	0.984296	-0.888808	-0.229245
N41	N	0.909747	-0.887908	-0.303626
C42	C	0.869456	-0.860627	-0.343833
O43	O	0.835208	-0.888884	-0.378034
C44	C	0.869436	-0.806024	-0.343827
C45	C	0.909702	-0.778700	-0.303612
C46	C	0.990255	-0.778653	-0.223198
C47	C	0.990229	-0.724053	-0.223188
C48	C	0.949940	-0.696776	-0.263391
C49	C	0.909677	-0.724100	-0.303603
C50	C	0.829149	-0.778744	-0.384037
C51	C	0.829132	-0.724137	-0.384028
C52	C	0.869398	-0.696813	-0.343812
C53	C	0.869362	-0.642222	-0.343796
N54	N	0.909631	-0.614896	-0.303588
C55	C	0.949919	-0.642173	-0.263385
C56	C	0.869504	-0.975298	-0.343842
C57	C	0.869521	-1.029900	-0.343845
C58	C	0.950081	-1.029850	-0.263431
C59	C	0.950060	-0.975247	-0.263425
C60	C	0.909772	-0.947971	-0.303634
C61	C	0.949863	-0.527508	-0.263369
C62	C	0.949832	-0.472902	-0.263361
C63	C	0.869275	-0.472956	-0.343778
C64	C	0.869303	-0.527557	-0.343783
C65	C	0.909602	-0.554831	-0.303577
O66	O	0.835101	-0.613960	-0.377953
O67	O	0.984168	-0.613909	-0.229195
C68	C	1.073827	-0.251641	-0.303657
C69	C	1.143795	-0.251630	-0.303688
C70	C	0.909686	-0.251636	-0.467774
C71	C	0.909707	-0.251622	-0.537743
C72	C	0.909760	-0.115296	-0.303627
C73	C	0.909813	-0.057182	-0.303645
C74	C	0.869486	-0.218185	-0.570592
C75	C	0.869484	-0.218175	-0.636334
C76	C	0.909714	-0.251597	-0.669225
C77	C	0.949937	-0.285041	-0.636368
C78	C	0.949934	-0.285054	-0.570627
N79	N	0.964817	-0.255578	-0.772482
N80	N	0.964819	-0.255563	-0.834933
C81	C	0.909725	-0.251563	-0.867300
N82	N	0.854629	-0.247567	-0.834856
N83	N	0.854628	-0.247580	-0.772398
C84	C	0.909721	-0.251588	-0.740511
C85	C	0.869499	-0.218113	-0.971435
C86	C	0.869496	-0.218107	-1.037179
C87	C	0.949954	-0.284970	-1.037211
C88	C	0.949952	-0.284979	-0.971468
C89	C	0.909725	-0.251547	-0.938584
C90	C	0.909624	-0.251663	-0.140032
C91	C	0.909725	-0.251530	-0.070065
H92	H	0.550739	-0.312445	-0.376445
H93	H	1.023019	-0.701809	-0.190444
H94	H	0.269166	-0.312401	-0.376545
H95	H	0.836739	-0.190880	-1.063923
C96	C	0.156511	-0.310711	-0.450404
C97	C	0.140533	-0.321917	-0.388043
H98	H	0.134209	-0.333434	-0.477678
H99	H	0.145792	-0.275595	-0.459699
H100	H	0.200370	-0.315511	-0.456128
H101	H	0.096675	-0.317113	-0.382318
H102	H	0.151247	-0.357041	-0.378745
H103	H	0.982692	-0.312254	-0.663152
C104	C	0.784833	-0.210878	-0.897438
C105	C	0.825279	-0.181373	-0.935280
H106	H	0.757537	-0.188196	-0.875115
H107	H	0.760736	-0.233653	-0.923059
H108	H	0.808800	-0.230791	-0.868467
H109	H	0.801312	-0.161463	-0.964253
H110	H	0.849378	-0.158589	-0.909656
H111	H	0.982711	-0.312182	-1.063990
C112	C	0.985651	-0.314761	-0.469866
C113	C	0.994149	-0.321809	-0.534514
H114	H	1.012946	-0.337454	-0.447572
H115	H	0.994898	-0.279636	-0.459116
H116	H	0.943346	-0.322421	-0.459066
H117	H	1.036453	-0.314145	-0.545315
H118	H	0.984906	-0.356942	-0.545268
C119	C	1.029486	-0.351061	-0.978106
C120	C	0.994172	-0.321728	-0.935356
H121	H	1.056789	-0.373747	-0.955810
H122	H	1.002044	-0.371061	-1.003718
H123	H	1.053583	-0.328266	-1.003774
H124	H	0.970072	-0.344523	-0.909690
H125	H	1.021618	-0.301726	-0.909733
H126	H	0.836733	-0.190944	-0.663086
C127	C	0.663561	-0.310785	-0.450218
C128	C	0.679372	-0.322007	-0.387849
H129	H	0.685866	-0.333508	-0.477482
H130	H	0.619709	-0.315571	-0.455976
H131	H	0.674397	-0.275666	-0.459496
H132	H	0.668532	-0.357125	-0.378570
H133	H	0.723234	-0.317226	-0.382088
C134	C	0.503506	-0.210856	-0.178704
C135	C	0.541384	-0.181413	-0.219181
H136	H	0.481208	-0.188133	-0.151435
H137	H	0.474521	-0.230786	-0.202645
H138	H	0.529105	-0.233613	-0.154573
H139	H	0.515784	-0.158659	-0.243316
H140	H	0.570373	-0.161475	-0.195238
C141	C	0.636653	-0.152037	-0.183880
C142	C	0.679385	-0.181432	-0.219138
H143	H	0.658962	-0.129325	-0.156598
H144	H	0.611074	-0.132062	-0.211360
H145	H	0.610949	-0.174791	-0.159764
H146	H	0.705085	-0.158677	-0.243258
H147	H	0.704975	-0.201408	-0.191655
H148	H	1.023066	-0.800857	-0.190460
H149	H	0.269172	-0.190906	-0.230734
C150	C	0.075898	-0.188426	-0.227806
C151	C	0.140543	-0.181360	-0.219309
H152	H	0.053595	-0.165718	-0.200523
H153	H	0.065175	-0.180802	-0.270110
H154	H	0.065081	-0.223551	-0.218538
H155	H	0.151360	-0.146236	-0.228581
H156	H	0.151270	-0.188980	-0.176995
H157	H	0.836726	-1.052142	-0.376587
C158	C	1.029468	-0.478347	-0.183876
C159	C	0.994099	-0.442869	-0.219156
H160	H	1.056798	-0.459806	-0.156591
H161	H	1.002063	-0.499685	-0.159768
H162	H	1.053539	-0.499604	-0.211345
H163	H	0.970024	-0.421614	-0.191687
H164	H	1.021507	-0.421522	-0.243266
H165	H	0.982679	-0.549708	-0.230630
H166	H	0.982889	-1.052069	-0.230698
C167	C	1.029689	-0.980696	-0.183940
C168	C	0.994326	-0.945216	-0.219224
H169	H	1.057020	-0.962156	-0.156654
H170	H	1.002280	-1.002031	-0.159832
H171	H	1.053758	-1.001956	-0.211407
H172	H	0.970253	-0.923958	-0.191756
H173	H	1.021738	-0.923872	-0.243334
H174	H	0.796356	-0.800981	-0.416781
C175	C	0.789869	-0.980840	-0.423324
C176	C	0.825207	-0.945318	-0.388037
H177	H	0.762521	-0.962333	-0.450604
H178	H	0.817293	-1.002094	-0.447438
H179	H	0.765819	-1.002177	-0.395858
H180	H	0.849261	-0.923983	-0.415502
H181	H	0.797780	-0.924055	-0.363921
H182	H	0.796325	-0.701931	-0.416773
H183	H	0.836517	-0.549805	-0.376532
H184	H	0.836470	-0.450739	-0.376509
H185	H	0.836728	-0.190964	-0.543822
