data_functionalizedCrystal
_audit_creation_method	'MofGen! by Chris Wilmer'
_symmetry_space_group_name_H-M	'P1'
_symmetry_Int_Tables_number	1
_symmetry_cell_setting	triclinic
loop_
_symmetry_equiv_pos_as_xyz
  x,y,z
_cell_length_a	16.120490
_cell_length_b	16.120256
_cell_length_c	16.625546
_cell_angle_alpha	92.872129
_cell_angle_beta	87.114737
_cell_angle_gamma	90.129807
loop_
_atom_site_label
_atom_site_type_symbol
_atom_site_fract_x
_atom_site_fract_y
_atom_site_fract_z
Zn1	Zn	1.247455	-0.534520	-0.408579
Zn2	Zn	1.254409	-0.395457	-0.536934
Zn3	Zn	1.115444	-0.388441	-0.394943
Zn4	Zn	1.108364	-0.527430	-0.536187
O5	O	1.181418	-0.461462	-0.469161
O6	O	1.364744	-0.521976	-0.431625
O7	O	1.241848	-0.278160	-0.512704
O8	O	1.133009	-0.407850	-0.283923
O9	O	1.369853	-0.419807	-0.525926
O10	O	1.229997	-0.515174	-0.293942
O11	O	1.139752	-0.273006	-0.408384
O12	O	0.998138	-0.400975	-0.407660
O13	O	1.120942	-0.644737	-0.524654
O14	O	0.992936	-0.503090	-0.511432
O15	O	1.223131	-0.649946	-0.430901
O16	O	1.234982	-0.412932	-0.649663
O17	O	1.127684	-0.509892	-0.649115
C18	C	0.965365	-0.450502	-0.457986
C19	C	0.872935	-0.445834	-0.453225
C20	C	0.659974	-0.485682	-0.493847
C21	C	0.703710	-0.437308	-0.444542
C22	C	0.797875	-0.442053	-0.449375
C23	C	0.565800	-0.480938	-0.489015
C24	C	1.170471	-0.678357	-0.479216
C25	C	1.165806	-0.770785	-0.483500
C26	C	1.205744	-0.983769	-0.446795
C27	C	1.157261	-0.940005	-0.491289
C28	C	1.162017	-0.845842	-0.486954
C29	C	1.200989	-1.077941	-0.451129
C30	C	1.398315	-0.472465	-0.480380
C31	C	1.490744	-0.477154	-0.485161
C32	C	1.181341	-0.461423	-0.678646
C33	C	1.181383	-0.461438	-0.768270
C34	C	1.192370	-0.245413	-0.459089
C35	C	1.197197	-0.152994	-0.454586
C36	C	1.181524	-0.461532	-1.096457
C37	C	1.181482	-0.461508	-1.005145
C38	C	1.181453	-0.461485	-0.932366
C39	C	1.181412	-0.461462	-0.841049
C40	C	1.181517	-0.461520	-0.258860
C41	C	1.181559	-0.461545	-0.169242
H42	H	0.693249	-0.530655	-0.539686
H43	H	1.112177	-0.973255	-0.532631
C44	C	1.247665	-0.958888	-0.311148
C45	C	1.266602	-0.938887	-0.390986
H46	H	1.285235	-0.931167	-0.276697
H47	H	1.252420	-1.017188	-0.306775
H48	H	1.192500	-0.941858	-0.295823
H49	H	1.321765	-0.955923	-0.406313
H50	H	1.261855	-0.880574	-0.395362
C51	C	0.572854	-0.383530	-0.389830
C52	C	0.658796	-0.376554	-0.382687
H53	H	0.545126	-0.346011	-0.351657
H54	H	0.555852	-0.438705	-0.379957
H55	H	0.559300	-0.370592	-0.442721
H56	H	0.672351	-0.389499	-0.329798
H57	H	0.675804	-0.321367	-0.392554
