data_functionalizedCrystal
_audit_creation_method	'MofGen! by Chris Wilmer'
_symmetry_space_group_name_H-M	'P1'
_symmetry_Int_Tables_number	1
_symmetry_cell_setting	triclinic
loop_
_symmetry_equiv_pos_as_xyz
  x,y,z
_cell_length_a	10.723024
_cell_length_b	12.837942
_cell_length_c	9.198806
_cell_angle_alpha	89.997396
_cell_angle_beta	89.996352
_cell_angle_gamma	89.648405
loop_
_atom_site_label
_atom_site_type_symbol
_atom_site_fract_x
_atom_site_fract_y
_atom_site_fract_z
O1	O	1.672992	0.145513	-0.120882
O2	O	1.311352	0.159441	-0.120887
O3	O	1.484153	0.001517	-0.120876
O4	O	1.500191	0.303437	-0.120894
O5	O	1.484138	0.001517	0.120909
O6	O	1.311337	0.159441	0.120898
O7	O	1.672977	0.145512	0.120903
Cu8	Cu	1.492155	0.152477	0.142977
Cu9	Cu	1.492173	0.152477	-0.142962
O10	O	1.500176	0.303436	0.120892
C11	C	1.264735	0.158427	0.000005
C12	C	1.125851	0.155395	0.000003
C13	C	1.060466	0.243761	-0.000003
C14	C	0.916922	0.240629	-0.000005
C15	C	1.478728	-0.037142	0.000016
C16	C	1.462569	-0.152334	0.000013
C17	C	1.656825	-0.391911	-0.000015
C18	C	1.641648	-0.500145	-0.000017
C19	C	1.417040	-0.477037	-0.000005
C20	C	1.432217	-0.368804	-0.000002
C21	C	1.552113	-0.326245	-0.000005
C22	C	1.567289	-0.218009	0.000008
C23	C	1.342681	-0.194904	0.000010
C24	C	1.327505	-0.303137	0.000007
C25	C	1.719594	0.146526	0.000008
C26	C	1.858478	0.149559	-0.000000
C27	C	1.505601	0.342096	-0.000003
C28	C	1.521760	0.457288	-0.000010
N29	N	1.492152	0.152476	0.344091
N30	N	1.492186	0.152470	-0.344076
C31	C	1.564674	0.085875	0.416293
C32	C	1.564693	0.085872	0.583705
H33	H	1.075561	0.077423	-0.000030
H34	H	1.110757	0.321733	0.000001
C35	C	1.648536	0.008845	0.332388
H36	H	1.694032	-0.032944	0.399396
H37	H	1.705033	0.046470	0.272992
H38	H	1.598271	-0.034530	0.273029
H39	H	1.430098	0.209496	0.593843
C40	C	1.756831	-0.572375	-0.000020
H41	H	1.830406	-0.531522	-0.000010
H42	H	1.755584	-0.615076	-0.084334
H43	H	1.755576	-0.615077	0.084308
H44	H	1.754449	-0.357259	-0.000002
C45	C	1.195630	-0.349959	0.000019
H46	H	1.201586	-0.423824	0.000026
H47	H	1.151967	-0.327469	-0.084287
H48	H	1.151983	-0.327479	0.084355
C49	C	1.699167	-0.171194	0.000000
H50	H	1.759354	-0.225808	-0.000021
H51	H	1.709761	-0.129456	0.084315
H52	H	1.709753	-0.129450	-0.084327
H53	H	0.860706	0.316277	-0.000016
H54	H	0.914686	0.073907	-0.000004
C55	C	1.408269	0.229490	0.427996
H56	H	1.362755	0.271266	0.360988
H57	H	1.458505	0.272865	0.487376
H58	H	1.351769	0.191841	0.487371
H59	H	1.626788	0.028856	0.645796
C60	C	1.227489	-0.122673	0.000026
H61	H	1.153915	-0.163525	0.000040
H62	H	1.228736	-0.079959	-0.084282
H63	H	1.228745	-0.079983	0.084360
C64	C	1.285169	-0.523866	-0.000003
H65	H	1.291133	-0.597731	0.000000
H66	H	1.241509	-0.501376	-0.084312
H67	H	1.241514	-0.501392	0.084330
