data_functionalizedCrystal
_audit_creation_method	'MofGen! by Chris Wilmer'
_symmetry_space_group_name_H-M	'P1'
_symmetry_Int_Tables_number	1
_symmetry_cell_setting	triclinic
loop_
_symmetry_equiv_pos_as_xyz
  x,y,z
_cell_length_a	12.837942
_cell_length_b	17.699097
_cell_length_c	16.776229
_cell_angle_alpha	89.989262
_cell_angle_beta	89.994225
_cell_angle_gamma	89.058685
loop_
_atom_site_label
_atom_site_type_symbol
_atom_site_fract_x
_atom_site_fract_y
_atom_site_fract_z
O1	O	0.131133	1.013706	-0.066355
O2	O	0.148171	0.794580	-0.066342
O3	O	-0.011239	0.899284	-0.066343
O4	O	0.290543	0.909002	-0.066353
O5	O	-0.011248	0.899268	0.066233
O6	O	0.148161	0.794564	0.066235
O7	O	0.131123	1.013690	0.066222
Zn8	Zn	0.139641	0.904124	0.087278
Zn9	Zn	0.139654	0.904146	-0.087398
O10	O	0.290533	0.908986	0.066223
C11	C	0.147553	0.766330	-0.000052
C12	C	0.145715	0.682178	-0.000047
C13	C	-0.049856	0.895993	-0.000055
C14	C	-0.164909	0.886202	-0.000056
C15	C	0.134451	0.165641	-0.072346
C16	C	0.136171	0.244711	-0.072342
C17	C	0.137028	0.284231	-0.000071
C18	C	0.136153	0.244678	0.072200
C19	C	0.134426	0.165609	0.072195
C20	C	0.143120	0.563554	0.072221
C21	C	0.144851	0.642628	0.072220
C22	C	0.144866	0.642656	-0.072317
C23	C	0.143138	0.563587	-0.072321
C24	C	0.142258	0.524040	-0.000050
C25	C	0.140391	0.438303	-0.000056
C26	C	0.138903	0.369967	-0.000066
C27	C	-0.406156	1.003906	-0.000079
C28	C	-0.514260	0.994711	-0.000080
C29	C	-0.489221	0.858616	-0.000064
C30	C	-0.381118	0.867811	-0.000063
C31	C	-0.339590	0.940459	-0.000070
C32	C	-0.231484	0.949654	-0.000063
C33	C	-0.206448	0.813560	-0.000053
C34	C	-0.314551	0.804364	-0.000053
C35	C	0.329151	0.912277	-0.000067
C36	C	0.444204	0.922068	-0.000071
C37	C	0.131741	1.041940	-0.000070
C38	C	0.133580	1.126092	-0.000080
N39	N	0.139631	0.904115	0.206489
N40	N	0.139655	0.904160	-0.206609
C41	C	0.069074	0.950496	0.248205
C42	C	0.069073	0.950500	0.331658
C43	C	0.139635	0.904127	0.373392
C44	C	0.210197	0.857741	0.331669
C45	C	0.210192	0.857734	0.248219
C46	C	0.210217	0.857770	0.668217
C47	C	0.210218	0.857783	0.751673
C48	C	0.069098	0.950537	0.751655
C49	C	0.069093	0.950529	0.668205
C50	C	0.139650	0.904140	0.626490
C51	C	0.139649	0.904135	0.536001
C52	C	0.139642	0.904136	0.463879
H53	H	0.136874	0.276908	-0.131188
H54	H	-0.152237	0.761897	-0.000038
O55	O	0.286344	0.807777	0.796692
H56	H	0.335407	0.775519	0.753666
H57	H	0.011618	0.988262	0.214231
H58	H	0.136844	0.276862	0.131044
H59	H	0.142446	0.531413	-0.131172
H60	H	0.011638	0.988293	0.634227
H61	H	0.267669	0.820000	0.634259
O62	O	-0.361363	1.082260	-0.000087
H63	H	-0.312724	1.089701	0.053952
O64	O	0.145771	0.685257	0.150173
H65	H	0.217180	0.719618	0.153629
H66	H	0.267647	0.819979	0.365654
O67	O	0.286297	0.807713	0.203218
H68	H	0.335373	0.775474	0.246256
O69	O	-0.186691	1.028008	-0.000082
H70	H	-0.213460	1.058876	0.053943
H71	H	-0.568455	1.046376	-0.000091
H72	H	-0.348379	0.745216	-0.000051
O73	O	0.133507	0.123024	-0.150301
H74	H	0.204444	0.136561	-0.184968
O75	O	0.145787	0.685309	-0.150271
H76	H	0.147115	0.746931	-0.138132
O77	O	0.133494	0.122947	0.150138
H78	H	0.134391	0.163709	0.200394
H79	H	-0.523053	0.799469	-0.000067
H80	H	0.142388	0.531364	0.131068
H81	H	0.011619	0.988266	0.365623
O82	O	-0.007017	1.000565	0.796646
H83	H	0.004827	0.992776	0.861687
