data_functionalizedCrystal
_audit_creation_method	'MofGen! by Chris Wilmer'
_symmetry_space_group_name_H-M	'P1'
_symmetry_Int_Tables_number	1
_symmetry_cell_setting	triclinic
loop_
_symmetry_equiv_pos_as_xyz
  x,y,z
_cell_length_a	18.050591
_cell_length_b	12.759394
_cell_length_c	12.759387
_cell_angle_alpha	89.968340
_cell_angle_beta	89.971092
_cell_angle_gamma	90.010843
loop_
_atom_site_label
_atom_site_type_symbol
_atom_site_fract_x
_atom_site_fract_y
_atom_site_fract_z
Zn1	Zn	1.135420	-0.418323	-0.594234
Zn2	Zn	1.135343	-0.594040	-0.418552
Zn3	Zn	1.011222	-0.418363	-0.418545
Zn4	Zn	1.011216	-0.593948	-0.594165
O5	O	1.073300	-0.506169	-0.506374
O6	O	1.239334	-0.441654	-0.570961
O7	O	1.118848	-0.570791	-0.271530
O8	O	1.027732	-0.271337	-0.441877
O9	O	1.239277	-0.570752	-0.441888
O10	O	1.118980	-0.271307	-0.570955
O11	O	1.027657	-0.441722	-0.271525
O12	O	0.907297	-0.441634	-0.441810
O13	O	1.027722	-0.570596	-0.741196
O14	O	0.907293	-0.570635	-0.570837
O15	O	1.118974	-0.441565	-0.741246
O16	O	1.118842	-0.741049	-0.441821
O17	O	1.027647	-0.740982	-0.570844
C18	C	1.073256	-0.779136	-0.506349
C19	C	1.073305	-0.895913	-0.506373
C20	C	0.880348	-0.506129	-0.506316
C21	C	0.797802	-0.506138	-0.506316
C22	C	1.168337	-0.895930	-0.372123
C23	C	1.215873	-0.950799	-0.305010
C24	C	1.215916	-1.060520	-0.305039
C25	C	1.168421	-1.115375	-0.372189
C26	C	1.120885	-1.060506	-0.439302
C27	C	1.120845	-0.950782	-0.439264
C28	C	1.025857	-1.060489	-0.573556
C29	C	1.025809	-0.950768	-0.573524
C30	C	0.978362	-1.115344	-0.640707
C31	C	0.930821	-1.060475	-0.707816
C32	C	0.930779	-0.950747	-0.707784
C33	C	0.978273	-0.895899	-0.640637
C34	C	0.598332	-0.435906	-0.436313
C35	C	0.548926	-0.531736	-0.410462
C36	C	0.646672	-0.506170	-0.506364
C37	C	0.548997	-0.410373	-0.532211
C38	C	0.500687	-0.506192	-0.506408
C39	C	0.598353	-0.602051	-0.480463
C40	C	0.598428	-0.480623	-0.602257
C41	C	0.549044	-0.576519	-0.576443
C42	C	0.730770	-0.506156	-0.506336
C43	C	0.416590	-0.506217	-0.506436
C44	C	1.267006	-0.506209	-0.506433
C45	C	1.349552	-0.506226	-0.506458
C46	C	1.073356	-0.506066	-0.780408
C47	C	1.073380	-0.506022	-0.897185
C48	C	1.073365	-0.232135	-0.506423
C49	C	1.073393	-0.115358	-0.506443
C50	C	1.168407	-0.371670	-0.897257
C51	C	1.215931	-0.304479	-0.952154
C52	C	1.215949	-0.304441	-1.061876
C53	C	1.168437	-0.371599	-1.116703
C54	C	1.120913	-0.438790	-1.061806
C55	C	1.120902	-0.438823	-0.952082
C56	C	1.025883	-0.573135	-1.061734
C57	C	1.025868	-0.573180	-0.952012
C58	C	0.978371	-0.640293	-1.116561
C59	C	0.930849	-0.707491	-1.061664
C60	C	0.930834	-0.707527	-0.951935
C61	C	0.978344	-0.640371	-0.897115
C62	C	1.073287	-0.506195	-0.233407
C63	C	1.073407	-0.505943	-0.116631
H64	H	1.168297	-0.806588	-0.372079
O65	O	0.523042	-0.313796	-0.558403
C66	C	0.480154	-0.321137	-0.650432
H67	H	0.458862	-0.404749	-0.659603
H68	H	0.431195	-0.264971	-0.645005
H69	H	0.515723	-0.299629	-0.721102
O70	O	0.522889	-0.557658	-0.313826
C71	C	0.479892	-0.649640	-0.320951
H72	H	0.496827	-0.695554	-0.393739
H73	H	0.489302	-0.699921	-0.248286
H74	H	0.418779	-0.627827	-0.326589
H75	H	0.620188	-0.458968	-0.683309
H76	H	1.168404	-0.371705	-0.807916
O77	O	1.262063	-0.239349	-0.898732
C78	C	1.251850	-0.253771	-0.790117
H79	H	1.227495	-0.334844	-0.775103
H80	H	1.307476	-0.246687	-0.748445
H81	H	1.212322	-0.191445	-0.758972
O82	O	0.624227	-0.698667	-0.454260
C83	C	0.702332	-0.697484	-0.454538
H84	H	0.722776	-0.613745	-0.442988
H85	H	0.723864	-0.748976	-0.388170
H86	H	0.723515	-0.728774	-0.532675
O87	O	0.978541	-1.221927	-0.640741
C88	C	1.049719	-1.258489	-0.667847
H89	H	1.092477	-1.195230	-0.649935
H90	H	1.062960	-1.331920	-0.620495
H91	H	1.051276	-1.277884	-0.755029
H92	H	1.254643	-0.249721	-1.106573
H93	H	0.978386	-0.640253	-1.205902
O94	O	0.884692	-0.772700	-0.898449
C95	C	0.894876	-0.758360	-0.789848
H96	H	0.919224	-0.677296	-0.774884
H97	H	0.839240	-0.765481	-0.748123
H98	H	0.934399	-0.820706	-0.758718
O99	O	1.168566	-0.371455	-1.223286
C100	C	1.220680	-0.297725	-1.259983
H101	H	1.264069	-0.283049	-1.196777
H102	H	1.248859	-0.329406	-1.333398
H103	H	1.191256	-0.221100	-1.279447
H104	H	0.892165	-0.762160	-1.106312
O105	O	0.978471	-0.640407	-0.790532
C106	C	1.049631	-0.667451	-0.753909
H107	H	1.092418	-0.649504	-0.817171
H108	H	1.062844	-0.620085	-0.680527
H109	H	1.051175	-0.754631	-0.734414
O110	O	0.523414	-0.647637	-0.647019
C111	C	0.548715	-0.748476	-0.619415
H112	H	0.562460	-0.750368	-0.532242
H113	H	0.503654	-0.808563	-0.636957
H114	H	0.600487	-0.768037	-0.666725
H115	H	1.254545	-0.906126	-0.250338
H116	H	1.254628	-1.105195	-0.250395
O117	O	0.884793	-1.113875	-0.773092
C118	C	0.927084	-1.177213	-0.841043
H119	H	0.983384	-1.193614	-0.804070
H120	H	0.896866	-1.254395	-0.855106
H121	H	0.935199	-1.134850	-0.918900
O122	O	1.168331	-1.221958	-0.372225
C123	C	1.097186	-1.258725	-0.345136
H124	H	1.054374	-1.195526	-0.363000
H125	H	1.084002	-1.332099	-0.392538
H126	H	1.095649	-1.278280	-0.257968
O127	O	0.884535	-0.897613	-0.773017
C128	C	0.842645	-0.969562	-0.832308
H129	H	0.840115	-1.047813	-0.789291
H130	H	0.784116	-0.937914	-0.843440
H131	H	0.869828	-0.981137	-0.912135
O132	O	0.978230	-0.789316	-0.640411
C133	C	0.959155	-0.752764	-0.539690
H134	H	0.971881	-0.816035	-0.479210
H135	H	0.992633	-0.679343	-0.521034
H136	H	0.897529	-0.733356	-0.537379
O137	O	0.624122	-0.365211	-0.365427
C138	C	0.598878	-0.392543	-0.264455
H139	H	0.585022	-0.479689	-0.262325
H140	H	0.644018	-0.374937	-0.204535
H141	H	0.547186	-0.345104	-0.244856
