data_functionalizedCrystal
_audit_creation_method	'MofGen! by Chris Wilmer'
_symmetry_space_group_name_H-M	'P1'
_symmetry_Int_Tables_number	1
_symmetry_cell_setting	triclinic
loop_
_symmetry_equiv_pos_as_xyz
  x,y,z
_cell_length_a	16.625545
_cell_length_b	16.625548
_cell_length_c	16.625539
_cell_angle_alpha	89.979432
_cell_angle_beta	90.028107
_cell_angle_gamma	89.973374
loop_
_atom_site_label
_atom_site_type_symbol
_atom_site_fract_x
_atom_site_fract_y
_atom_site_fract_z
Zn1	Zn	-0.320977	-1.232663	0.455910
Zn2	Zn	0.012356	-0.899330	0.789244
Zn3	Zn	0.345689	-0.565996	1.122577
Zn4	Zn	-0.455820	-1.232559	0.321078
Zn5	Zn	-0.122487	-0.899226	0.654411
Zn6	Zn	0.210846	-0.565892	0.987745
Zn7	Zn	-0.321008	-1.097825	0.321091
Zn8	Zn	0.012325	-0.764492	0.654424
Zn9	Zn	0.345659	-0.431158	0.987758
Zn10	Zn	-0.455774	-1.097788	0.455868
Zn11	Zn	-0.122441	-0.764455	0.789201
Zn12	Zn	0.210893	-0.431121	1.122535
O13	O	-0.388395	-1.165209	0.388487
O14	O	-0.055062	-0.831875	0.721820
O15	O	0.278272	-0.498542	1.055154
O16	O	-0.338871	-1.345482	0.438037
O17	O	-0.005538	-1.012148	0.771370
O18	O	0.327796	-0.678815	1.104704
O19	O	-0.437969	-1.214658	0.208247
O20	O	-0.104636	-0.881325	0.541581
O21	O	0.228697	-0.547992	0.874914
O22	O	-0.208171	-1.115771	0.338998
O23	O	0.125162	-0.782437	0.672332
O24	O	0.458495	-0.449104	1.005665
O25	O	-0.437940	-1.345405	0.338976
O26	O	-0.104606	-1.012072	0.672310
O27	O	0.228727	-0.678739	1.005643
O28	O	-0.208149	-1.214836	0.438050
O29	O	0.125184	-0.881502	0.771383
O30	O	0.458518	-0.548169	1.104716
O31	O	-0.338923	-1.115670	0.208257
O32	O	-0.005590	-0.782336	0.541590
O33	O	0.327743	-0.449003	0.874923
O34	O	-0.338878	-0.984988	0.338957
O35	O	-0.005545	-0.651654	0.672290
O36	O	0.327788	-0.318321	1.005624
O37	O	-0.437861	-1.115708	0.568706
O38	O	-0.104527	-0.782374	0.902039
O39	O	0.228806	-0.449041	1.235373
O40	O	-0.437891	-0.984961	0.437977
O41	O	-0.104557	-0.651627	0.771310
O42	O	0.228776	-0.318294	1.104644
O43	O	-0.338826	-1.214800	0.568737
O44	O	-0.005493	-0.881466	0.902071
O45	O	0.327841	-0.548133	1.235404
O46	O	-0.568647	-1.214622	0.338935
O47	O	-0.235313	-0.881289	0.672268
O48	O	0.098020	-0.547956	1.005602
O49	O	-0.568613	-1.115607	0.437965
O50	O	-0.235279	-0.782273	0.771298
O51	O	0.098054	-0.448940	1.104631
C52	C	-0.597886	-1.165121	0.388462
C53	C	-0.264552	-0.831788	0.721795
C54	C	0.068781	-0.498455	1.055128
C55	C	-0.687507	-1.165158	0.388478
C56	C	-0.354174	-0.831824	0.721811
C57	C	-0.020840	-0.498491	1.055144
C58	C	-0.388383	-0.955718	0.388464
C59	C	-0.055050	-0.622385	0.721798
C60	C	0.278283	-0.289051	1.055131
C61	C	-0.388398	-0.866097	0.388474
C62	C	-0.055065	-0.532764	0.721807
C63	C	0.278269	-0.199430	1.055140
C64	C	-0.388335	-1.165261	0.598796
C65	C	-0.055001	-0.831928	0.932129
C66	C	0.278332	-0.498595	1.265463
C67	C	-0.388309	-1.165284	0.688417
C68	C	-0.054976	-0.831950	1.021750
C69	C	0.278357	-0.498617	1.355084
C70	C	-0.760289	-1.165189	0.388494
C71	C	-0.426956	-0.831855	0.721827
C72	C	-0.093623	-0.498522	1.055160
C73	C	-0.851598	-1.165236	0.388511
C74	C	-0.518264	-0.831902	0.721845
C75	C	-0.184931	-0.498569	1.055178
C76	C	-0.924374	-1.165278	0.388522
C77	C	-0.591041	-0.831944	0.721855
C78	C	-0.257707	-0.498611	1.055188
C79	C	-1.015688	-1.165324	0.388538
C80	C	-0.682355	-0.831990	0.721872
C81	C	-0.349022	-0.498657	1.055205
C82	C	-0.178086	-1.165319	0.388530
C83	C	0.155247	-0.831985	0.721863
C84	C	0.488581	-0.498652	1.055197
C85	C	-0.088465	-1.165366	0.388548
C86	C	0.244869	-0.832032	0.721882
C87	C	0.578202	-0.498699	1.055215
C88	C	-0.388407	-1.375518	0.388510
C89	C	-0.055074	-1.042184	0.721843
C90	C	0.278260	-0.708851	1.055177
C91	C	-0.388412	-1.465139	0.388520
C92	C	-0.055079	-1.131805	0.721853
C93	C	0.278254	-0.798472	1.055186
C94	C	-0.388403	-0.537921	0.388508
C95	C	-0.055070	-0.204588	0.721842
C96	C	0.278264	0.128745	1.055175
C97	C	-0.388399	-0.629230	0.388496
C98	C	-0.055066	-0.295896	0.721829
C99	C	0.278267	0.037437	1.055163
C100	C	-0.388401	-0.702006	0.388490
C101	C	-0.055068	-0.368673	0.721824
C102	C	0.278266	-0.035339	1.055157
C103	C	-0.388396	-0.793320	0.388480
C104	C	-0.055063	-0.459987	0.721813
C105	C	0.278270	-0.126654	1.055146
C106	C	-0.388397	-1.165203	0.178996
C107	C	-0.055063	-0.831870	0.512329
C108	C	0.278270	-0.498536	0.845663
C109	C	-0.388195	-1.165337	0.089375
C110	C	-0.054862	-0.832004	0.422709
C111	C	0.278472	-0.498670	0.756042
C112	C	-0.388219	-1.165321	1.016593
C113	C	-0.054886	-0.831987	1.349926
C114	C	0.278448	-0.498654	1.683260
C115	C	-0.388247	-1.165308	0.925284
C116	C	-0.054913	-0.831975	1.258618
C117	C	0.278420	-0.498642	1.591951
C118	C	-0.388265	-1.165303	0.852508
C119	C	-0.054931	-0.831969	1.185841
C120	C	0.278402	-0.498636	1.519175
C121	C	-0.388291	-1.165289	0.761194
C122	C	-0.054958	-0.831956	1.094527
C123	C	0.278376	-0.498623	1.427860
