data_functionalizedCrystal
_audit_creation_method	'MofGen! by Chris Wilmer'
_symmetry_space_group_name_H-M	'P1'
_symmetry_Int_Tables_number	1
_symmetry_cell_setting	triclinic
loop_
_symmetry_equiv_pos_as_xyz
  x,y,z
_cell_length_a	21.295420
_cell_length_b	21.295417
_cell_length_c	16.120297
_cell_angle_alpha	87.132998
_cell_angle_beta	87.121576
_cell_angle_gamma	90.026289
loop_
_atom_site_label
_atom_site_type_symbol
_atom_site_fract_x
_atom_site_fract_y
_atom_site_fract_z
Zn1	Zn	0.944276	-0.268741	0.471357
Zn2	Zn	0.949526	-0.368672	0.331935
Zn3	Zn	0.844346	-0.263414	0.331961
Zn4	Zn	0.838971	-0.373967	0.471300
O5	O	0.894280	-0.318699	0.401638
O6	O	1.033062	-0.282011	0.452875
O7	O	0.940021	-0.350264	0.215276
O8	O	0.857654	-0.176033	0.350486
O9	O	1.036919	-0.355430	0.350442
O10	O	0.931073	-0.179947	0.452900
O11	O	0.862745	-0.272931	0.215295
O12	O	0.755544	-0.278065	0.350431
O13	O	0.848494	-0.364454	0.587970
O14	O	0.751595	-0.359288	0.452803
O15	O	0.925861	-0.287145	0.588011
O16	O	0.934809	-0.457462	0.350387
O17	O	0.853584	-0.461352	0.452778
C18	C	0.730729	-0.318674	0.401614
C19	C	0.660761	-0.318679	0.401624
C20	C	0.159290	-0.280568	0.455074
C21	C	0.225032	-0.280563	0.455074
C22	C	0.259920	-0.318718	0.401657
C23	C	0.229060	-0.356893	0.348252
C24	C	0.163318	-0.356901	0.348260
N25	N	0.365910	-0.320668	0.328659
N26	N	0.428362	-0.320657	0.328654
C27	C	0.457996	-0.318697	0.401633
N28	N	0.422819	-0.316737	0.474618
N29	N	0.360362	-0.316745	0.474622
C30	C	0.331206	-0.318714	0.401644
C31	C	0.560134	-0.280523	0.455039
C32	C	0.625877	-0.280523	0.455040
C33	C	0.629904	-0.356848	0.348211
C34	C	0.564162	-0.356852	0.348217
C35	C	0.529280	-0.318686	0.401630
C36	C	0.894199	-0.482248	0.401592
C37	C	0.894221	-0.552217	0.401600
C38	C	0.936548	-0.583039	0.348340
C39	C	0.936577	-0.648782	0.348358
C40	C	0.894268	-0.683700	0.401629
C41	C	0.851938	-0.652870	0.454899
C42	C	0.851914	-0.587129	0.454885
N43	N	0.838957	-0.787205	0.407976
N44	N	0.838982	-0.849657	0.407985
C45	C	0.894337	-0.881777	0.401676
N46	N	0.949668	-0.849085	0.395342
N47	N	0.949644	-0.786627	0.395329
C48	C	0.894289	-0.754987	0.401650
C49	C	0.936699	-0.983885	0.348434
C50	C	0.936728	-1.049630	0.348458
C51	C	0.852083	-1.053717	0.454995
C52	C	0.852059	-0.987974	0.454975
C53	C	0.894366	-0.953062	0.401690
C54	C	1.058469	-0.318724	0.401662
C55	C	1.128437	-0.318735	0.401672
C56	C	0.885992	-0.326984	0.619085
C57	C	0.882460	-0.330515	0.711749
C58	C	0.894378	-0.154511	0.401702
C59	C	0.894419	-0.084544	0.401730
C60	C	0.902572	-0.310400	0.185036
C61	C	0.906226	-0.306691	0.092374
C62	C	0.875989	-0.336948	0.881405
C63	C	0.912695	-0.300261	0.922722
C64	C	0.909095	-0.303840	1.017125
C65	C	0.879589	-0.333369	0.786994
H66	H	0.138199	-0.387982	0.304773
H67	H	0.841863	-0.371042	0.916930
H68	H	0.130893	-0.249493	0.498570
H69	H	0.817637	-1.082147	0.498372
H70	H	0.531732	-0.249446	0.498530
O71	O	0.953327	-0.259542	0.880263
C72	C	0.965516	-0.170859	0.781906
C73	C	0.919438	-0.216942	0.829924
H74	H	0.938134	-0.136398	0.741209
H75	H	0.999935	-0.198204	0.741083
H76	H	0.992595	-0.143833	0.827932
H77	H	0.892316	-0.243981	0.783958
H78	H	0.885060	-0.189562	0.870760
O79	O	0.655751	-0.243387	0.506944
C80	C	0.644815	-0.167702	0.612924
C81	C	0.610904	-0.209718	0.554172
H82	H	0.608571	-0.140479	0.651136
H83	H	0.677039	-0.133247	0.574761
H84	H	0.673948	-0.198313	0.656413
H85	H	0.581737	-0.179157	0.510672
H86	H	0.578718	-0.244176	0.592388
O87	O	0.977674	-0.549061	0.296703
C88	C	1.063093	-0.474377	0.285578
C89	C	1.016545	-0.512813	0.344147
H90	H	1.094541	-0.445071	0.323914
H91	H	1.035905	-0.441932	0.241959
H92	H	1.093324	-0.507714	0.247495
H93	H	0.986302	-0.479524	0.382285
H94	H	1.043771	-0.545266	0.387711
O95	O	0.254913	-0.243428	0.506977
C96	C	0.243985	-0.167749	0.612965
C97	C	0.210068	-0.209761	0.554213
H98	H	0.207743	-0.140528	0.651183
H99	H	0.276206	-0.133293	0.574801
H100	H	0.273120	-0.198362	0.656448
H101	H	0.180900	-0.179198	0.510719
H102	H	0.177885	-0.244221	0.592429
H103	H	0.817490	-0.681305	0.498274
O104	O	0.262916	-0.394050	0.296452
C105	C	0.284517	-0.499525	0.255698
C106	C	0.246145	-0.457515	0.314423
H107	H	0.270962	-0.550843	0.270195
H108	H	0.336812	-0.493016	0.264868
H109	H	0.274152	-0.485805	0.188508
H110	H	0.256456	-0.471208	0.381636
H111	H	0.193862	-0.464028	0.305182
O112	O	0.663883	-0.393856	0.296351
C113	C	0.766944	-0.427706	0.249037
C114	C	0.728538	-0.385749	0.307794
H115	H	0.819224	-0.421175	0.258281
H116	H	0.756623	-0.414016	0.181823
H117	H	0.753410	-0.479028	0.263551
H118	H	0.742050	-0.334415	0.293356
H119	H	0.738862	-0.399492	0.374992
O120	O	0.810820	-0.557258	0.506737
C121	C	0.774792	-0.542485	0.648506
C122	C	0.821358	-0.576369	0.589879
H123	H	0.783305	-0.557913	0.715740
H124	H	0.724594	-0.554914	0.633878
H125	H	0.782033	-0.489502	0.639299
H126	H	0.814175	-0.629359	0.599054
H127	H	0.871539	-0.563888	0.604522
O128	O	0.534288	-0.393939	0.296256
C129	C	0.545221	-0.469668	0.190331
C130	C	0.579132	-0.427684	0.249121
H131	H	0.581461	-0.496972	0.152220
H132	H	0.516125	-0.439090	0.146757
H133	H	0.512963	-0.504060	0.228544
H134	H	0.611422	-0.393286	0.210976
H135	H	0.608188	-0.458301	0.292698
H136	H	0.971200	-1.074724	0.305089
O137	O	0.977716	-0.678632	0.296537
C138	C	1.061684	-0.667646	0.190888
C139	C	1.015120	-0.633764	0.249520
H140	H	1.091946	-0.631386	0.152872
H141	H	1.034509	-0.696780	0.147218
H142	H	1.093100	-0.699864	0.229219
H143	H	0.983692	-0.601515	0.211256
H144	H	1.042334	-0.604670	0.293193
H145	H	0.971150	-0.955459	0.305048
H146	H	0.817589	-0.962876	0.498341
