data_functionalizedCrystal
_audit_creation_method	'MofGen! by Chris Wilmer'
_symmetry_space_group_name_H-M	'P1'
_symmetry_Int_Tables_number	1
_symmetry_cell_setting	triclinic
loop_
_symmetry_equiv_pos_as_xyz
  x,y,z
_cell_length_a	16.992694
_cell_length_b	8.559649
_cell_length_c	15.455313
_cell_angle_alpha	92.289439
_cell_angle_beta	87.142206
_cell_angle_gamma	80.223444
loop_
_atom_site_label
_atom_site_type_symbol
_atom_site_fract_x
_atom_site_fract_y
_atom_site_fract_z
O1	O	1.023967	0.329735	-0.072017
O2	O	0.795905	0.326044	-0.072043
O3	O	0.930028	0.097853	-0.072027
O4	O	0.889844	0.557925	-0.072033
O5	O	0.922362	0.110845	0.072234
O6	O	0.788239	0.339035	0.072218
O7	O	1.016301	0.342726	0.072244
Cu8	Cu	0.901570	0.342067	0.085403
Cu9	Cu	0.910636	0.326703	-0.085202
O10	O	0.882177	0.570917	0.072228
C11	C	0.763145	0.327794	0.000084
C12	C	0.676954	0.313635	0.000075
C13	C	0.618488	0.450242	0.000073
C14	C	0.537502	0.436931	0.000086
C15	C	0.514985	0.287010	0.000093
C16	C	0.573459	0.150392	0.000096
C17	C	0.654442	0.163706	0.000090
C18	C	0.274709	0.231831	0.000117
C19	C	0.193718	0.218527	0.000120
C20	C	0.157767	0.505067	0.000111
C21	C	0.238755	0.518367	0.000099
C22	C	0.297221	0.381750	0.000108
N23	N	0.432205	0.273400	0.000102
N24	N	0.379998	0.395362	0.000104
C25	C	0.929241	0.045208	0.000102
C26	C	0.938306	-0.131015	0.000099
C27	C	1.049061	0.340976	0.000115
C28	C	1.135252	0.355134	0.000119
C29	C	0.882965	0.623562	0.000097
C30	C	0.873900	0.799784	0.000095
N31	N	0.895199	0.352873	0.205398
N32	N	0.917014	0.315885	-0.205197
C33	C	0.952194	0.255970	0.250799
C34	C	0.947382	0.264158	0.341606
C35	C	0.885578	0.369258	0.387011
C36	C	0.828576	0.466164	0.341604
C37	C	0.833386	0.457968	0.250798
C38	C	0.864822	0.404595	0.658590
C39	C	0.860018	0.412788	0.749402
C40	C	0.978824	0.210778	0.749398
C41	C	0.983631	0.202598	0.658591
C42	C	0.926627	0.299499	0.613191
N43	N	0.880659	0.377633	0.479831
N44	N	0.931543	0.291114	0.520373
H45	H	0.636813	0.572324	0.000067
H46	H	1.000384	-0.206593	0.000112
H47	H	0.778250	0.551733	0.378578
O48	O	0.799807	-0.110252	-0.000034
C49	C	0.678092	-0.049121	-0.074818
C50	C	0.761978	-0.151147	-0.074769
H51	H	0.647490	-0.082124	-0.135244
H52	H	0.640963	-0.071310	-0.014489
H53	H	0.683748	0.081700	-0.074780
H54	H	0.756398	-0.282001	-0.074837
H55	H	0.799076	-0.128823	-0.135092
H56	H	0.257081	0.640447	0.000084
H57	H	0.555118	0.028324	0.000115
H58	H	0.489900	0.548172	0.000084
O59	O	0.101041	0.637894	0.000225
C60	C	0.041543	0.885412	0.074988
C61	C	0.105833	0.735070	0.074953
H62	H	0.045385	0.964005	0.135408
H63	H	0.051801	0.953357	0.014654
H64	H	-0.020196	0.850112	0.074951
H65	H	0.167599	0.770232	0.075020
H66	H	0.095505	0.667163	0.135282
O67	O	1.012264	0.153738	0.206831
C68	C	1.129619	-0.045701	0.216422
C69	C	1.061621	0.069986	0.266320
H70	H	1.169552	-0.113422	0.264497
H71	H	1.103098	-0.133186	0.173944
H72	H	1.166579	0.023953	0.173875
H73	H	1.024636	0.000464	0.308914
H74	H	1.088194	0.157470	0.308743
H75	H	0.786973	0.536874	0.213833
H76	H	0.175390	0.096437	0.000125
O77	O	0.809400	0.498507	0.614453
C78	C	0.706578	0.509353	0.511898
C79	C	0.769297	0.402801	0.561851
H80	H	0.674149	0.432019	0.469343
H81	H	0.661529	0.585860	0.559906
H82	H	0.737670	0.589083	0.469416
H83	H	0.738275	0.322975	0.604335
H84	H	0.814342	0.326401	0.513796
O85	O	1.002654	0.169863	0.385743
C86	C	1.026848	-0.035254	0.488307
C87	C	0.964168	0.071420	0.438365
H88	H	0.995754	-0.114848	0.530878
H89	H	1.071842	-0.111878	0.440291
H90	H	1.059351	0.042086	0.530771
H91	H	0.931605	-0.005798	0.395900
H92	H	0.919226	0.148054	0.486428
H93	H	1.025233	0.131884	0.786371
O94	O	0.331395	0.098961	0.000083
C95	C	0.358497	-0.186647	0.000146
C96	C	0.294214	-0.036297	0.000163
H97	H	0.328460	-0.296039	0.000230
H98	H	0.400507	-0.193139	-0.060241
H99	H	0.394118	-0.182052	0.060506
H100	H	0.258535	-0.040789	-0.060155
H101	H	0.252259	-0.029860	0.060590
H102	H	0.702046	0.052465	0.000091
O103	O	1.043697	0.100360	0.614622
C104	C	1.161055	-0.099076	0.624204
C105	C	1.093058	0.016605	0.674107
H106	H	1.200991	-0.166799	0.672276
H107	H	1.134533	-0.186559	0.581725
H108	H	1.198012	-0.029417	0.581657
H109	H	1.056076	-0.052922	0.716701
H110	H	1.119631	0.104088	0.716530
O111	O	0.799899	0.514909	0.793375
C112	C	0.682578	0.714440	0.783802
C113	C	0.750607	0.598847	0.733894
H114	H	0.642718	0.782359	0.735734
H115	H	0.645538	0.644856	0.826301
H116	H	0.709155	0.801763	0.826330
H117	H	0.724099	0.511498	0.691320
H118	H	0.787638	0.668534	0.691450
