data_functionalizedCrystal
_audit_creation_method	'MofGen! by Chris Wilmer'
_symmetry_space_group_name_H-M	'P1'
_symmetry_Int_Tables_number	1
_symmetry_cell_setting	triclinic
loop_
_symmetry_equiv_pos_as_xyz
  x,y,z
_cell_length_a	14.809374
_cell_length_b	20.016444
_cell_length_c	20.016444
_cell_angle_alpha	90.002879
_cell_angle_beta	67.428343
_cell_angle_gamma	52.849667
loop_
_atom_site_label
_atom_site_type_symbol
_atom_site_fract_x
_atom_site_fract_y
_atom_site_fract_z
Zr1	Zr	1.000612	-0.169129	0.725037
O2	O	1.191303	-0.291325	0.633888
O3	O	0.809911	-0.120904	0.742213
O4	O	1.000607	-0.275801	0.757737
O5	O	1.000614	-0.026488	0.618365
O6	O	1.000614	-0.275802	0.867677
O7	O	1.000607	-0.136428	0.618364
O8	O	0.659494	0.001281	0.839909
O9	O	1.341735	-0.303571	0.646134
O10	O	0.888358	-0.113343	0.844593
O11	O	0.888358	-0.031296	0.762546
O12	O	1.112878	-0.213668	0.780823
O13	O	1.112878	-0.131621	0.698777
Zr14	Zr	1.000635	0.006210	0.900381
Zr15	Zr	1.000623	-0.169130	0.900379
Zr16	Zr	1.000623	0.006212	0.725038
Zr17	Zr	1.240533	-0.188660	0.744568
Zr18	Zr	0.760714	0.025742	0.880849
O19	O	1.191336	-0.042015	0.883204
O20	O	1.191319	-0.291326	0.883202
O21	O	1.191319	-0.042013	0.633890
O22	O	0.809944	0.128406	0.991530
O23	O	0.809927	-0.120905	0.991528
O24	O	0.809927	0.128408	0.742216
O25	O	1.000633	-0.136430	1.007052
O26	O	1.000640	0.112882	0.867681
O27	O	1.000633	0.112883	0.757740
O28	O	1.000640	-0.026491	1.007053
O29	O	1.341744	-0.303572	0.785508
O30	O	0.659503	0.140653	0.839910
O31	O	0.659512	0.140652	0.979284
O32	O	0.659503	0.001280	0.979282
O33	O	1.341744	-0.164199	0.646135
O34	O	1.341753	-0.164200	0.785509
O35	O	0.888369	0.050749	0.844594
O36	O	0.888369	-0.031298	0.926641
O37	O	1.112889	-0.131622	0.862871
O38	O	1.112889	-0.049575	0.780825
C39	C	0.700519	-0.057028	0.788278
C40	C	0.598666	-0.048737	0.779987
C41	C	1.000609	-0.081458	0.593382
C42	C	1.000604	-0.081457	0.518945
C43	C	1.000638	0.137865	0.812711
C44	C	1.000643	0.212302	0.812711
C45	C	0.553257	-0.085741	0.816991
C46	C	0.447987	-0.077172	0.808422
C47	C	1.300728	-0.105890	0.837139
C48	C	1.402580	-0.114182	0.845431
C49	C	1.000609	-0.300783	0.812707
C50	C	1.000604	-0.375220	0.812706
C51	C	1.117825	0.331202	0.779420
C52	C	1.117819	0.401147	0.779417
C53	C	0.883413	0.505879	0.845998
C54	C	0.883420	0.435934	0.845996
C55	C	1.000630	0.348596	0.812709
C56	C	1.000617	0.488486	0.812708
C57	C	1.000611	0.564325	0.812705
C58	C	1.000637	0.272752	0.812711
C59	C	0.883422	-0.029088	0.380966
C60	C	0.883427	-0.029087	0.311021
C61	C	1.117834	-0.133832	0.244454
C62	C	1.117827	-0.133828	0.314398
C63	C	1.000617	-0.081458	0.382653
C64	C	1.000630	-0.081460	0.242765
C65	C	1.000636	-0.081459	0.166927
C66	C	1.000610	-0.081458	0.458495
C67	C	1.000638	-0.081461	1.032035
C68	C	1.000643	-0.081461	1.106473
C69	C	0.700533	-0.057030	1.007605
C70	C	0.598686	-0.048739	1.073751
C71	C	0.700533	0.162296	0.788280
C72	C	0.598686	0.245024	0.779989
C73	C	0.700548	0.162294	1.007607
C74	C	0.598705	0.245022	1.073753
C75	C	1.300699	-0.325213	0.617811
C76	C	1.402542	-0.407940	0.551664
C77	C	1.300713	-0.105889	0.617813
C78	C	1.402561	-0.114180	0.551667
C79	C	1.300713	-0.325214	0.837137
C80	C	1.402561	-0.407942	0.845428
C81	C	0.550851	-0.087680	1.061985
C82	C	0.455168	-0.079907	1.124131
C83	C	0.407314	-0.033187	1.198040
C84	C	0.455157	0.005754	1.209805
C85	C	0.550846	-0.002025	1.147661
C86	C	0.550862	0.326708	0.818924
C87	C	0.455179	0.404446	0.811132
C88	C	0.407314	0.400498	0.764409
C89	C	0.455147	0.318804	0.725470
C90	C	0.550835	0.241068	0.733258
C91	C	0.550878	0.241044	1.147651
C92	C	0.455199	0.318768	1.209811
C93	C	0.407342	0.400469	1.198070
C94	C	0.455178	0.404444	1.124165
C95	C	0.550862	0.326721	1.062007
C96	C	1.450380	-0.403963	0.477767
C97	C	1.546089	-0.481690	0.415610
C98	C	1.593951	-0.563391	0.427351
C99	C	1.546109	-0.567366	0.501256
C100	C	1.450409	-0.489642	0.563412
C101	C	1.450406	-0.075247	0.563433
C102	C	1.546116	-0.083041	0.501290
C103	C	1.593973	-0.129763	0.427380
C104	C	1.546125	-0.168701	0.415616
C105	C	1.450423	-0.160912	0.477759
C106	C	1.450396	-0.403965	0.892157
C107	C	1.546080	-0.481689	0.899962
C108	C	1.593934	-0.563390	0.861034
C109	C	1.546090	-0.567365	0.814303
C110	C	1.450401	-0.489641	0.806502
H111	H	0.592308	-0.123762	0.855019
F112	F	0.305471	-0.024915	1.264173
H113	H	1.671851	-0.626671	0.867391
H114	H	0.416245	0.470956	0.842845
F115	F	0.758678	0.454450	0.881424
F116	F	0.396937	-0.027462	0.758722
H117	H	0.329430	0.463750	1.248689
F118	F	0.404262	-0.121354	1.111594
H119	H	1.585025	-0.478436	0.938014
F120	F	0.758677	0.026651	0.453607
H121	H	0.441629	-0.152205	0.883461
H122	H	0.589824	0.329940	0.856970
F123	F	0.404302	0.314518	1.288459
F124	F	0.404211	0.055477	1.288471
F125	F	0.404232	0.491405	1.111681
H126	H	1.411471	-0.192614	0.468167
H127	H	1.213267	-0.176473	0.315766
F128	F	0.305472	0.483240	0.756128
H129	H	1.411448	-0.337448	0.923859
F130	F	0.601800	0.154099	1.160164
F131	F	0.601738	0.039431	1.160194
H132	H	1.585026	-0.478436	0.355439
F133	F	1.597018	-0.041592	0.513827
H134	H	0.787985	0.576997	0.873100
F135	F	0.547613	0.000970	0.730289
F136	F	0.601767	-0.137409	0.983330
H137	H	1.213251	0.386977	0.752308
F138	F	0.404191	0.314616	0.675746
H139	H	1.213262	-0.176471	0.188873
F140	F	0.601716	0.154136	0.691818
F141	F	1.597042	-0.654326	0.772871
F142	F	0.601746	0.330969	0.983360
F143	F	1.399498	-0.493887	0.642057
H144	H	0.787995	0.013559	0.309654
F145	F	1.399456	-0.317018	0.465254
H146	H	1.671876	-0.626673	0.376733
H147	H	1.411447	-0.037196	0.623609
F148	F	1.597058	-0.654327	0.513740
F149	F	1.695827	-0.138045	0.361249
F150	F	1.597068	-0.218422	0.336950
H151	H	1.411465	-0.492892	0.768448
H152	H	1.213265	0.260089	0.752314
