data_functionalizedCrystal
_audit_creation_method	'MofGen! by Chris Wilmer'
_symmetry_space_group_name_H-M	'P1'
_symmetry_Int_Tables_number	1
_symmetry_cell_setting	triclinic
loop_
_symmetry_equiv_pos_as_xyz
  x,y,z
_cell_length_a	19.288864
_cell_length_b	19.288859
_cell_length_c	18.366186
_cell_angle_alpha	89.995122
_cell_angle_beta	90.022929
_cell_angle_gamma	96.865014
loop_
_atom_site_label
_atom_site_type_symbol
_atom_site_fract_x
_atom_site_fract_y
_atom_site_fract_z
O1	O	0.921351	-0.086648	0.060783
O2	O	0.719090	-0.098337	0.060733
O3	O	0.826067	0.008638	0.060755
O4	O	0.814374	-0.193623	0.060761
O5	O	0.826049	0.008641	-0.060344
O6	O	0.719072	-0.098334	-0.060367
O7	O	0.921333	-0.086645	-0.060317
Zn8	Zn	0.820199	-0.092489	-0.079569
Zn9	Zn	0.820224	-0.092493	0.079985
O10	O	0.814355	-0.193620	-0.060339
C11	C	0.693204	-0.097959	0.000177
C12	C	0.616101	-0.096830	0.000158
C13	C	0.571403	-0.159598	0.000171
C14	C	0.498956	-0.158537	0.000179
C15	C	0.471210	-0.094705	0.000188
C16	C	0.515918	-0.031929	0.000171
C17	C	0.588363	-0.032991	0.000156
C18	C	0.362956	-0.044527	0.042638
C19	C	0.290511	-0.043467	0.042658
C20	C	0.247765	-0.091425	0.000232
C21	C	0.277470	-0.140455	-0.042203
C22	C	0.349915	-0.141518	-0.042219
C23	C	0.392656	-0.093546	0.000204
C24	C	0.124511	-0.153048	0.000253
C25	C	0.052063	-0.151984	0.000257
C26	C	0.069026	-0.025374	0.000256
C27	C	0.141472	-0.026439	0.000245
C28	C	0.169210	-0.090278	0.000247
C29	C	0.825682	0.034516	0.000206
C30	C	0.824555	0.111620	0.000207
C31	C	0.947218	-0.087022	0.000241
C32	C	1.024322	-0.088151	0.000265
N33	N	0.820188	-0.092486	-0.188460
C34	C	0.814740	-0.219498	0.000212
C35	C	0.815868	-0.296602	0.000216
C36	C	0.879698	0.675661	0.000239
C37	C	0.880764	0.603214	0.000233
C38	C	0.817994	0.558508	0.000218
C39	C	0.754155	0.586253	0.000190
C40	C	0.753092	0.658698	0.000189
C41	C	0.771188	0.437233	0.042632
C42	C	0.772254	0.364789	0.042637
C43	C	0.821272	0.335062	0.000218
C44	C	0.869235	0.377789	-0.042197
C45	C	0.868172	0.450234	-0.042198
C46	C	0.819141	0.479952	0.000219
C47	C	0.886262	0.228770	0.000234
C48	C	0.887325	0.156322	0.000223
C49	C	0.760715	0.139362	0.000188
C50	C	0.759654	0.211809	0.000191
C51	C	0.822430	0.256509	0.000218
C52	C	0.862174	-0.134510	-0.226542
C53	C	0.862186	-0.134508	-0.302770
C54	C	0.820197	-0.092490	-0.340913
C55	C	0.778208	-0.050457	-0.302821
C56	C	0.778203	-0.050455	-0.226595
C57	C	0.757586	-0.090733	-0.461709
C58	C	0.757589	-0.090740	-0.537934
C59	C	0.820213	-0.092492	-0.576020
C60	C	0.882835	-0.094252	-0.537872
C61	C	0.882830	-0.094250	-0.461645
C62	C	0.820198	-0.092487	-0.423567
C63	C	0.862216	-0.134516	-0.696757
C64	C	0.862228	-0.134509	-0.772986
C65	C	0.778244	-0.050463	-0.773036
C66	C	0.778238	-0.050466	-0.696809
C67	C	0.820222	-0.092496	-0.658674
N68	N	0.820241	-0.092490	0.188876
H69	H	0.015670	-0.203100	0.000263
H70	H	0.733203	0.330007	0.077178
Br71	Br	0.649029	0.052201	0.000136
Br72	Br	0.971456	0.289439	0.000268
Br73	Br	0.704652	0.477568	0.100198
Br74	Br	0.031379	0.061258	0.000257
H75	H	0.707676	0.234392	0.000177
H76	H	0.703048	0.549848	0.000176
H77	H	0.896402	-0.168739	-0.665706
H78	H	0.896364	-0.168731	-0.195497
Br79	Br	0.202138	0.058751	0.000229
Br80	Br	0.666457	0.696344	0.000157
H81	H	0.744011	-0.016233	-0.195589
Br82	Br	0.967398	0.565561	0.000253
Br83	Br	0.162160	-0.239684	0.000251
H84	H	0.709607	0.102962	0.000169
Br85	Br	0.672598	-0.088289	-0.410029
H86	H	0.939306	0.133741	0.000238
H87	H	0.896377	-0.168731	-0.333782
H88	H	0.933818	-0.095681	-0.430588
H89	H	0.266331	-0.003546	0.077214
Br90	Br	0.721239	0.006557	-0.645122
H91	H	0.909146	0.353586	-0.076744
H92	H	0.744022	-0.016245	-0.333882
Br93	Br	0.967830	-0.096632	-0.589550
H94	H	0.397755	-0.005472	0.077190
Br95	Br	0.919221	-0.191542	-0.824671
Br96	Br	0.721270	0.006573	-0.824793
H97	H	0.907224	0.485019	-0.076736
Br98	Br	0.478264	0.054702	0.000176
H99	H	0.593982	-0.211581	0.000174
Br100	Br	0.438283	-0.243729	0.000192
H101	H	0.374098	-0.181438	-0.076774
Br102	Br	0.219465	-0.205549	-0.099783
H103	H	0.706599	-0.089311	-0.568989
H104	H	0.930816	0.712052	0.000257
