data_functionalizedCrystal
_audit_creation_method	'MofGen! by Chris Wilmer'
_symmetry_space_group_name_H-M	'P1'
_symmetry_Int_Tables_number	1
_symmetry_cell_setting	triclinic
loop_
_symmetry_equiv_pos_as_xyz
  x,y,z
_cell_length_a	29.839131
_cell_length_b	12.759395
_cell_length_c	12.759387
_cell_angle_alpha	90.020509
_cell_angle_beta	89.962744
_cell_angle_gamma	89.957043
loop_
_atom_site_label
_atom_site_type_symbol
_atom_site_fract_x
_atom_site_fract_y
_atom_site_fract_z
Zn1	Zn	-0.178811	-1.606074	-0.593958
Zn2	Zn	-0.253949	-1.605882	-0.418259
Zn3	Zn	-0.178836	-1.430372	-0.418295
Zn4	Zn	-0.253917	-1.430282	-0.593898
O5	O	-0.216378	-1.518153	-0.506102
O6	O	-0.188782	-1.753069	-0.570661
O7	O	-0.244009	-1.582558	-0.271242
O8	O	-0.115965	-1.453797	-0.441637
O9	O	-0.243985	-1.752929	-0.441575
O10	O	-0.115947	-1.582884	-0.570696
O11	O	-0.188823	-1.453611	-0.271269
O12	O	-0.188792	-1.283339	-0.441579
O13	O	-0.243930	-1.453644	-0.740927
O14	O	-0.243954	-1.283273	-0.570593
O15	O	-0.188751	-1.582797	-0.740971
O16	O	-0.316812	-1.582471	-0.441517
O17	O	-0.316788	-1.453458	-0.570558
C18	C	-0.216373	-1.245185	-0.506084
C19	C	-0.216381	-1.128408	-0.506101
C20	C	-0.333101	-1.517963	-0.506050
C21	C	-0.383035	-1.517978	-0.506063
C22	C	-0.216334	-1.518232	-0.780136
C23	C	-0.216315	-1.518266	-0.896913
C24	C	-0.692678	-1.585452	-0.439009
C25	C	-0.880351	-1.585581	-0.439049
O26	O	-0.904616	-1.642799	-0.381997
N27	N	-0.903820	-1.518370	-0.506181
C28	C	-0.880368	-1.451127	-0.573313
O29	O	-0.904636	-1.393971	-0.630421
C30	C	-0.692696	-1.451004	-0.573277
C31	C	-0.669229	-1.518211	-0.506133
C32	C	-0.669211	-1.652655	-0.371871
C33	C	-0.622296	-1.652617	-0.371857
C34	C	-0.598847	-1.585377	-0.438981
C35	C	-0.622314	-1.518174	-0.506119
C36	C	-0.669245	-1.383766	-0.640413
C37	C	-0.622324	-1.383743	-0.640400
C38	C	-0.598857	-1.450951	-0.573256
C39	C	-0.551950	-1.450897	-0.573230
N40	N	-0.528481	-1.518108	-0.506098
C41	C	-0.551929	-1.585348	-0.438974
C42	C	-0.978899	-1.451195	-0.573326
C43	C	-1.025817	-1.451225	-0.573334
C44	C	-1.025796	-1.585680	-0.439071
C45	C	-0.978878	-1.585645	-0.439059
C46	C	-0.955430	-1.518406	-0.506194
C47	C	-0.453404	-1.585264	-0.438949
C48	C	-0.406484	-1.585218	-0.438939
C49	C	-0.406508	-1.450767	-0.573205
C50	C	-0.453424	-1.450808	-0.573212
C51	C	-0.476870	-1.518066	-0.506081
O52	O	-0.527656	-1.393717	-0.630260
O53	O	-0.527653	-1.642512	-0.381890
C54	C	-0.739594	-1.585489	-0.439022
C55	C	-0.763060	-1.518286	-0.506160
C56	C	-0.739611	-1.451045	-0.573284
C57	C	-0.809978	-1.518315	-0.506168
C58	C	-0.833427	-1.585555	-0.439044
C59	C	-0.809958	-1.652766	-0.371912
C60	C	-0.763042	-1.652729	-0.371898
C61	C	-0.763081	-1.383835	-0.640416
C62	C	-0.809996	-1.383876	-0.640423
C63	C	-0.833445	-1.451117	-0.573299
C64	C	-0.099200	-1.518372	-0.506177
C65	C	-0.049265	-1.518465	-0.506210
C66	C	-0.216384	-1.792186	-0.506121
C67	C	-0.216387	-1.908963	-0.506129
C68	C	-0.273914	-1.128378	-0.640227
C69	C	-0.302684	-1.073502	-0.707293
C70	C	-0.302690	-0.963781	-0.707306
C71	C	-0.273921	-0.908933	-0.640248
C72	C	-0.245151	-0.963808	-0.573182
C73	C	-0.245150	-1.073532	-0.573174
C74	C	-0.187617	-0.963838	-0.439063
C75	C	-0.187613	-1.073560	-0.439043
C76	C	-0.158848	-0.908990	-0.372005
C77	C	-0.130079	-0.963866	-0.304933
C78	C	-0.130076	-1.073594	-0.304922
C79	C	-0.158843	-1.128436	-0.371978
C80	C	-0.158860	-1.652762	-0.896978
C81	C	-0.130126	-1.720025	-0.951872
C82	C	-0.130110	-1.720050	-1.061594
C83	C	-0.158830	-1.652804	-1.116424
C84	C	-0.187564	-1.585541	-1.061531
C85	C	-0.187578	-1.585525	-0.951806
C86	C	-0.245016	-1.451041	-1.061465
C87	C	-0.245035	-1.451019	-0.951743
C88	C	-0.273736	-1.383794	-1.116295
C89	C	-0.302473	-1.316535	-1.061401
C90	C	-0.302489	-1.316513	-0.951673
C91	C	-0.273770	-1.383756	-0.896849
C92	C	-0.216390	-1.518134	-0.233135
C93	C	-0.216282	-1.518304	-0.116359
H94	H	-0.387379	-1.639946	-0.384258
C95	C	-0.334099	-1.242516	-0.891299
N96	N	-0.357908	-1.186780	-0.845828
C97	C	-0.596534	-1.309774	-0.714256
N98	N	-0.577110	-1.254058	-0.769883
C99	C	-0.273721	-1.383833	-1.236992
N100	N	-0.273713	-1.383867	-1.327903
C101	C	-0.273922	-0.788236	-0.640283
N102	N	-0.273921	-0.697325	-0.640311
C103	C	-0.835804	-1.309935	-0.714291
N104	N	-0.855241	-1.254251	-0.769933
H105	H	-0.688343	-1.329034	-0.695084
C106	C	-0.479188	-1.659244	-0.365096
N107	N	-0.498608	-1.714960	-0.309463
C108	C	-0.158810	-1.652837	-1.237121
N109	N	-0.158798	-1.652864	-1.328032
C110	C	-0.158879	-1.652747	-0.776282
N111	N	-0.158892	-1.652737	-0.685371
C112	C	-0.273783	-1.383737	-0.776152
N113	N	-0.273791	-1.383721	-0.685242
H114	H	-0.325852	-1.261783	-1.106053
H115	H	-0.106709	-1.774815	-1.106288
C116	C	-0.737293	-1.309889	-0.714291
N117	N	-0.717872	-1.254195	-0.769945
H118	H	-0.158852	-0.819649	-0.372025
C119	C	-0.098535	-1.793992	-0.891551
N120	N	-0.074740	-1.849702	-0.846119
C121	C	-0.596489	-1.726544	-0.297984
N122	N	-0.577054	-1.782226	-0.242337
H123	H	-0.688299	-1.707415	-0.317210
C124	C	-0.737235	-1.726660	-0.298030
N125	N	-0.717800	-1.782348	-0.242387
H126	H	-0.959774	-1.640372	-0.384385
H127	H	-0.106644	-1.118268	-0.250316
C128	C	-0.158844	-1.249133	-0.371965
N129	N	-0.158846	-1.340043	-0.371959
C130	C	-0.334338	-0.903416	-0.781080
N131	N	-0.358177	-0.857949	-0.836645
H132	H	-0.959811	-1.396439	-0.627997
H133	H	-1.044896	-1.640430	-0.384416
C134	C	-1.051625	-1.377281	-0.647187
N135	N	-1.071062	-1.321588	-0.702821
H136	H	-0.472531	-1.396086	-0.627889
C137	C	-0.380706	-1.376810	-0.647042
N138	N	-0.361270	-1.321112	-0.702663
C139	C	-0.835761	-1.726729	-0.298074
N140	N	-0.855197	-1.782439	-0.242466
H141	H	-0.326106	-1.118172	-0.761892
C142	C	-0.098436	-0.903526	-0.231180
N143	N	-0.074603	-0.858074	-0.175627
H144	H	-0.273916	-1.217719	-0.640215
