data_functionalizedCrystal
_audit_creation_method	'MofGen! by Chris Wilmer'
_symmetry_space_group_name_H-M	'P1'
_symmetry_Int_Tables_number	1
_symmetry_cell_setting	triclinic
loop_
_symmetry_equiv_pos_as_xyz
  x,y,z
_cell_length_a	10.654545
_cell_length_b	9.130313
_cell_length_c	10.654550
_cell_angle_alpha	90.001126
_cell_angle_beta	84.484005
_cell_angle_gamma	89.999803
loop_
_atom_site_label
_atom_site_type_symbol
_atom_site_fract_x
_atom_site_fract_y
_atom_site_fract_z
O1	O	1.667837	0.121784	0.176366
O2	O	1.302358	0.121790	0.193178
O3	O	1.493501	0.121778	0.002033
O4	O	1.476695	0.121797	0.367512
O5	O	1.493498	-0.121821	0.002038
O6	O	1.302356	-0.121808	0.193183
O7	O	1.667835	-0.121814	0.176371
Cu8	Cu	1.485095	-0.144054	0.184778
Cu9	Cu	1.485098	0.144030	0.184772
O10	O	1.476692	-0.121802	0.367517
C11	C	1.255559	-0.000008	0.191948
C12	C	1.116115	-0.000006	0.188258
N13	N	1.485102	-0.346677	0.184782
C14	C	1.050610	-0.132793	0.186524
C15	C	0.919590	-0.132793	0.183036
C16	C	0.919593	0.132792	0.183022
C17	C	1.050611	0.132791	0.186501
C18	C	1.569762	-0.423334	0.100171
C19	C	1.569759	-0.576671	0.100156
C20	C	1.400432	-0.576679	0.269373
C21	C	1.400430	-0.423345	0.269381
C22	C	1.654435	-0.346665	0.015572
C23	C	1.739102	-0.423323	-0.069044
C24	C	1.739099	-0.576660	-0.069059
C25	C	1.654428	-0.653339	0.015542
C26	C	1.714634	-0.000013	0.177602
C27	C	1.854078	-0.000005	0.181292
C28	C	1.492266	-0.000021	-0.044762
C29	C	1.488574	-0.000018	-0.184206
N30	N	1.485101	0.346653	0.184758
C31	C	1.601115	-0.000020	-0.263693
C32	C	1.597639	-0.000002	-0.394714
C33	C	1.369069	0.000013	-0.366747
C34	C	1.372547	0.000005	-0.235729
C35	C	1.477927	-0.000000	0.414312
C36	C	1.481619	0.000007	0.553755
H37	H	1.103939	-0.240924	0.187955
H38	H	0.866244	0.240910	0.181593
H39	H	1.274604	0.000029	-0.408713
Cl40	Cl	1.654448	-0.153900	0.015591
H41	H	0.866261	-0.240921	0.181625
H42	H	1.689282	0.000000	-0.459428
H43	H	1.280896	0.000011	-0.171006
H44	H	1.103948	0.240928	0.187910
H45	H	1.808030	-0.639073	-0.137965
H46	H	1.331491	-0.360930	0.338277
Cl47	Cl	1.845529	-0.326931	-0.175404
H48	H	1.654424	-0.778196	0.015514
Cl49	Cl	1.294000	-0.673076	0.375725
H50	H	1.695592	-0.000036	-0.221748
