data_functionalizedCrystal
_audit_creation_method	'MofGen! by Chris Wilmer'
_symmetry_space_group_name_H-M	'P1'
_symmetry_Int_Tables_number	1
_symmetry_cell_setting	triclinic
loop_
_symmetry_equiv_pos_as_xyz
  x,y,z
_cell_length_a	19.319731
_cell_length_b	19.318970
_cell_length_c	19.315557
_cell_angle_alpha	60.007379
_cell_angle_beta	60.014690
_cell_angle_gamma	59.991495
loop_
_atom_site_label
_atom_site_type_symbol
_atom_site_fract_x
_atom_site_fract_y
_atom_site_fract_z
O1	O	0.095954	-1.011347	0.845684
O2	O	0.036156	-0.787405	0.681392
O3	O	0.177960	-0.929104	0.681276
O4	O	-0.045850	-0.869648	0.845799
O5	O	0.225008	-0.882072	0.728208
O6	O	0.083204	-0.740373	0.728324
O7	O	0.143002	-0.964315	0.892616
Cu8	Cu	0.117399	-0.848050	0.814755
Cu9	Cu	0.061759	-0.903670	0.759252
O10	O	0.001198	-0.822616	0.892732
N11	N	0.156535	-0.808935	0.853797
N12	N	0.022631	-0.942793	0.720211
C13	C	0.182113	-0.653200	0.879374
C14	C	0.182221	-0.783395	1.009518
C15	C	0.312319	-0.783375	0.879314
C16	C	0.182127	-0.783371	0.879357
C17	C	0.214696	-0.750836	0.911890
C18	C	-0.132988	-0.968144	0.694232
C19	C	-0.002674	-0.968326	0.564242
C20	C	-0.002907	-1.098444	0.694459
C21	C	-0.002887	-0.968321	0.694542
C22	C	-0.035363	-1.000810	0.661869
N23	N	0.389025	-0.808944	0.853717
O24	O	0.660019	-0.816766	0.651282
O25	O	0.660312	-0.981573	0.874999
O26	O	0.660193	-0.981192	0.733108
O27	O	0.660138	-0.817147	0.793174
O28	O	0.519202	-0.934278	0.780210
O29	O	0.519321	-0.934658	0.922102
O30	O	0.519028	-0.769852	0.698384
Cu31	Cu	0.506300	-0.847971	0.814544
Cu32	Cu	0.673039	-0.903453	0.758840
O33	O	0.519147	-0.770232	0.840276
N34	N	0.790314	-0.942480	0.719658
N35	N	0.156514	-0.576494	0.853827
O36	O	-0.045823	-0.305328	0.845846
O37	O	0.177892	-0.305317	0.681053
O38	O	0.035967	-0.305340	0.681465
O39	O	0.096102	-0.305306	0.845434
O40	O	0.083020	-0.446347	0.728459
O41	O	0.224945	-0.446325	0.728047
O42	O	0.001230	-0.446335	0.892839
Cu43	Cu	0.117383	-0.459205	0.814734
Cu44	Cu	0.061738	-0.292448	0.759159
O45	O	0.143154	-0.446313	0.892428
N46	N	0.022597	-0.175159	0.720067
N47	N	0.156703	-0.808977	1.086224
O48	O	0.148753	-1.011298	1.357359
O49	O	-0.016009	-0.787491	1.357400
O50	O	-0.015627	-0.929387	1.357339
O51	O	0.148372	-0.869401	1.357420
O52	O	0.031342	-0.882367	1.216340
O53	O	0.030961	-0.740471	1.216400
O54	O	0.195723	-0.964278	1.216360
Cu55	Cu	0.117631	-0.848081	1.203506
Cu56	Cu	0.062083	-0.903688	1.370254
O57	O	0.195341	-0.822381	1.216420
N58	N	0.023010	-0.942801	1.487536
C59	C	0.054075	-0.735670	0.682223
C60	C	0.229681	-0.911148	0.682079
C61	C	0.125082	-1.016051	0.891784
C62	C	-0.050524	-0.840572	0.891928
C63	C	0.589851	-0.980810	0.926735
C64	C	0.589706	-0.980340	0.751019
C65	C	0.589484	-0.770613	0.646650
C66	C	0.589634	-0.771085	0.822364
C67	C	0.229543	-0.375646	0.681799
C68	C	0.053845	-0.375847	0.682366
C69	C	-0.050480	-0.375832	0.892036
C70	C	0.125277	-0.375807	0.891527
C71	C	-0.015214	-0.735785	1.286905
C72	C	-0.014732	-0.911497	1.286802
C73	C	0.194928	-1.015984	1.286855
C74	C	0.194457	-0.840261	1.286926
H75	H	0.293962	-0.923825	0.630414
O76	O	-0.076069	-0.926900	1.286663
C77	C	-0.045188	-1.010240	1.286636
H78	H	0.027023	-1.032576	1.259994
H79	H	-0.066654	-1.054108	1.354259
C80	C	-0.168694	-0.984414	1.263969
C81	C	-0.080003	-1.011845	1.231240
H82	H	-0.190172	-0.985406	1.229802
H83	H	-0.189501	-0.928267	1.263991
H84	H	-0.186571	-1.020974	1.320321
H85	H	-0.062128	-0.975279	1.174894
H86	H	-0.059194	-1.067986	1.231208
O87	O	0.589767	-1.041929	0.735818
C88	C	0.589851	-1.115102	0.808604
H89	H	0.616580	-1.114370	0.849069
H90	H	0.522237	-1.116158	0.846905
C91	C	0.612342	-1.195496	0.732014
C92	C	0.645178	-1.194600	0.781709
H93	H	0.646466	-1.244534	0.715425
H94	H	0.612282	-1.146197	0.682977
H95	H	0.555997	-1.196372	0.763938
H96	H	0.701516	-1.193713	0.749781
H97	H	0.645248	-1.243900	0.830741
O98	O	0.589653	-0.709522	0.837538
C99	C	0.589526	-0.636334	0.764767
H100	H	0.616176	-0.654832	0.706469
H101	H	0.521858	-0.590255	0.771663
C102	C	0.612064	-0.570927	0.826314
C103	C	0.644803	-0.593647	0.754710
H104	H	0.646158	-0.544592	0.820111
H105	H	0.612147	-0.620233	0.875343
H106	H	0.555675	-0.532532	0.832053
H107	H	0.701186	-0.632049	0.748978
H108	H	0.644731	-0.544346	0.705679
O109	O	0.256616	-1.092659	1.286726
C110	C	0.276313	-1.107854	1.213669
H111	H	0.220271	-1.068284	1.189317
H112	H	0.334430	-1.089605	1.162549
C113	C	0.363856	-1.251155	1.265727
C114	C	0.295022	-1.202560	1.235822
H115	H	0.375401	-1.309575	1.279389
H116	H	0.350589	-1.240918	1.314946
H117	H	0.412279	-1.235938	1.223122
H118	H	0.246598	-1.217770	1.278430
H119	H	0.308281	-1.212802	1.186611
H120	H	0.137858	-1.080380	0.943384
H121	H	0.589926	-1.032546	0.990990
O122	O	0.306064	-0.375134	0.619999
C123	C	0.358801	-0.374982	0.650453
H124	H	0.318028	-0.348563	0.705073
H125	H	0.401939	-0.442540	0.673693
C126	C	0.463294	-0.351690	0.511458
C127	C	0.413215	-0.319235	0.578539
H128	H	0.496862	-0.317306	0.467098
H129	H	0.427765	-0.351795	0.490941
H130	H	0.499234	-0.407988	0.530835
H131	H	0.377268	-0.262942	0.559163
H132	H	0.448739	-0.319119	0.599051
O133	O	0.038994	-0.658964	0.620578
C134	C	0.111821	-0.658775	0.547465
H135	H	0.170067	-0.708920	0.566065
H136	H	0.104976	-0.673534	0.501394
C137	C	0.050403	-0.509308	0.481861
C138	C	0.121943	-0.570892	0.504708
H139	H	0.056646	-0.455097	0.455483
H140	H	0.001337	-0.509435	0.531117
H141	H	0.044706	-0.521618	0.443473
H142	H	0.127633	-0.558587	0.543103
H143	H	0.171011	-0.570761	0.455457
H144	H	-0.114808	-0.827900	0.943589
O145	O	0.038371	-0.375920	0.621023
C146	C	-0.044965	-0.375918	0.651914
H147	H	-0.067243	-0.402586	0.724129
H148	H	-0.088848	-0.308280	0.630458
C149	C	-0.019259	-0.398510	0.528396
C150	C	-0.046619	-0.431270	0.617091
H151	H	-0.020282	-0.432649	0.506913
H152	H	0.036885	-0.398507	0.507582
H153	H	-0.055833	-0.342145	0.510528
H154	H	-0.010040	-0.487629	0.634958
H155	H	-0.102757	-0.431283	0.637908
H156	H	0.589389	-0.718870	0.582402
O157	O	-0.127190	-0.375782	0.953649
C158	C	-0.179969	-0.375810	0.923154
H159	H	-0.157036	-0.349133	0.850938
H160	H	-0.177677	-0.443458	0.944723
C161	C	-0.299865	-0.353258	1.046956
C162	C	-0.271702	-0.320487	0.958259
H163	H	-0.356451	-0.319136	1.068613
H164	H	-0.264306	-0.353242	1.067503
H165	H	-0.297948	-0.409631	1.064919
H166	H	-0.273610	-0.264119	0.940298
H167	H	-0.307263	-0.320492	0.937710
H168	H	0.138154	-0.375795	0.943037
H169	H	-0.066941	-0.671507	1.286916
O170	O	0.255846	-0.824805	1.286905
C171	C	0.224960	-0.741470	1.286950
H172	H	0.170530	-0.701345	1.260255
H173	H	0.201328	-0.742723	1.354602
C174	C	0.363521	-0.752234	1.264458
C175	C	0.296674	-0.702950	1.231665
H176	H	0.407757	-0.728473	1.230359
H177	H	0.384330	-0.808379	1.264431
H178	H	0.343817	-0.753273	1.320834
H179	H	0.316375	-0.701920	1.175294
H180	H	0.275869	-0.646803	1.231681
