data_functionalizedCrystal
_audit_creation_method	'MofGen! by Chris Wilmer'
_symmetry_space_group_name_H-M	'P1'
_symmetry_Int_Tables_number	1
_symmetry_cell_setting	triclinic
loop_
_symmetry_equiv_pos_as_xyz
  x,y,z
_cell_length_a	17.077404
_cell_length_b	10.686285
_cell_length_c	17.077396
_cell_angle_alpha	94.391882
_cell_angle_beta	90.019501
_cell_angle_gamma	85.631810
loop_
_atom_site_label
_atom_site_type_symbol
_atom_site_fract_x
_atom_site_fract_y
_atom_site_fract_z
Zn1	Zn	1.224115	-0.502339	0.419935
Zn2	Zn	1.724115	-0.002339	0.919935
Zn3	Zn	1.234129	-0.713359	0.278625
Zn4	Zn	1.734129	-0.213359	0.778625
Zn5	Zn	1.092848	-0.502383	0.288680
Zn6	Zn	1.592848	-0.002383	0.788680
Zn7	Zn	1.102918	-0.713284	0.409853
Zn8	Zn	1.602918	-0.213284	0.909853
O9	O	1.163502	-0.607841	0.349273
O10	O	1.663502	-0.107841	0.849273
O11	O	1.335290	-0.530344	0.401201
O12	O	1.835290	-0.030344	0.901201
O13	O	1.215364	-0.685422	0.170110
O14	O	1.715364	-0.185422	0.670110
O15	O	1.101856	-0.325802	0.314519
O16	O	1.601856	0.174198	0.814519
O17	O	1.342648	-0.685379	0.297382
O18	O	1.842648	-0.185379	0.797382
O19	O	1.198297	-0.325769	0.410951
O20	O	1.698297	0.174231	0.910951
O21	O	1.111566	-0.530419	0.177497
O22	O	1.611566	-0.030419	0.677497
O23	O	0.984337	-0.530347	0.304743
O24	O	1.484337	-0.030347	0.804743
O25	O	1.119018	-0.685252	0.521039
O26	O	1.619018	-0.185252	1.021039
O27	O	0.991734	-0.685295	0.393768
O28	O	1.491734	-0.185295	0.893768
O29	O	1.208061	-0.530271	0.528447
O30	O	1.708061	-0.030271	1.028447
O31	O	1.225128	-0.889924	0.287606
O32	O	1.725128	-0.389924	0.787606
O33	O	1.128728	-0.889869	0.384018
O34	O	1.628728	-0.389869	0.884018
C35	C	0.959553	-0.607818	0.349253
C36	C	1.459553	-0.107818	0.849253
C37	C	0.872305	-0.607839	0.349261
C38	C	1.372305	-0.107839	0.849261
C39	C	0.835193	-0.688642	0.395530
C40	C	1.335193	-0.188642	0.895530
C41	C	0.753212	-0.688645	0.395542
C42	C	1.253212	-0.188645	0.895542
C43	C	0.708346	-0.607850	0.349281
C44	C	1.208346	-0.107850	0.849281
C45	C	0.745463	-0.527038	0.303011
C46	C	1.245463	-0.027038	0.803011
C47	C	0.827441	-0.527030	0.303003
C48	C	1.327441	-0.027030	0.803003
C49	C	0.574594	-0.527063	0.303028
C50	C	1.074594	-0.027063	0.803028
C51	C	0.492610	-0.527072	0.303035
C52	C	0.992610	-0.027072	0.803035
C53	C	0.500365	-0.688678	0.395568
C54	C	1.000365	-0.188678	0.895568
C55	C	0.582344	-0.688670	0.395560
C56	C	1.082344	-0.188670	0.895560
C57	C	0.619455	-0.607859	0.349288
C58	C	1.119455	-0.107859	0.849288
C59	C	1.179129	-0.935681	0.333644
C60	C	1.679129	-0.435681	0.833644
C61	C	1.185885	-1.075932	0.326983
C62	C	1.685885	-0.575932	0.826983
C63	C	1.368248	-0.607865	0.349294
C64	C	1.868248	-0.107865	0.849294
C65	C	1.455498	-0.607875	0.349303
C66	C	1.955498	-0.107875	0.849303
C67	C	1.163545	-0.607748	0.554022
C68	C	1.663545	-0.107748	1.054022
C69	C	1.163564	-0.607709	0.641274
C70	C	1.663564	-0.107709	1.141274
C71	C	1.147836	-0.278722	0.364981
C72	C	1.647836	0.221278	0.864981
C73	C	1.141160	-0.138470	0.371675
C74	C	1.641160	0.361530	0.871675
C75	C	1.163500	-0.607843	0.145325
C76	C	1.663500	-0.107843	0.645325
C77	C	1.163617	-0.607527	0.058091
C78	C	1.663617	-0.107527	0.558091
C79	C	1.209930	-0.527004	0.686123
C80	C	1.709930	-0.027004	1.186123
C81	C	1.209937	-0.526962	0.768105
C82	C	1.709937	-0.026962	1.268105
C83	C	1.163582	-0.607632	0.805237
C84	C	1.663582	-0.107632	1.305237
C85	C	1.117211	-0.688341	0.760382
C86	C	1.617211	-0.188341	1.260382
C87	C	1.117200	-0.688375	0.678402
C88	C	1.617200	-0.188375	1.178402
C89	C	1.117239	-0.688265	0.931256
C90	C	1.617239	-0.188265	1.431256
C91	C	1.117251	-0.688232	1.013242
C92	C	1.617251	-0.188232	1.513242
C93	C	1.209976	-0.526851	1.020959
C94	C	1.709976	-0.026851	1.520959
C95	C	1.209965	-0.526886	0.938979
C96	C	1.709965	-0.026886	1.438979
C97	C	1.163595	-0.607596	0.894130
C98	C	1.663595	-0.107596	1.394130
H99	H	0.604807	-0.461247	0.265356
H100	H	1.104807	0.038753	0.765356
H101	H	1.229342	-1.129693	0.283617
H102	H	1.729342	-0.629693	0.783617
H103	H	1.247680	-0.461316	0.655896
H104	H	1.747680	0.038684	1.155896
Cl105	Cl	1.058933	-0.789751	0.807063
Cl106	Cl	1.558933	-0.289751	1.307063
H107	H	1.247695	-0.461247	0.804617
H108	H	1.747695	0.038753	1.304617
H109	H	1.247716	-0.461204	0.908748
H110	H	1.747716	0.038796	1.408748
H111	H	1.247732	-0.461131	1.057480
H112	H	1.747732	0.038869	1.557480
H113	H	0.708925	-0.461248	0.265348
H114	H	1.208925	0.038752	0.765348
Cl115	Cl	1.058966	-0.789634	1.059922
Cl116	Cl	1.558966	-0.289634	1.559922
Cl117	Cl	0.638747	-0.790251	0.453712
Cl118	Cl	1.138747	-0.290251	0.953712
H119	H	1.097701	-1.084717	0.415034
H120	H	1.597701	-0.584717	0.915034
Cl121	Cl	1.058942	-0.789730	0.874876
Cl122	Cl	1.558942	-0.289730	1.374876
Cl123	Cl	1.058906	-0.789834	0.622020
Cl124	Cl	1.558906	-0.289834	1.122020
H125	H	0.470145	-0.754473	0.433246
H126	H	0.970145	-0.254473	0.933246
H127	H	0.723000	-0.754444	0.433218
H128	H	1.223000	-0.254444	0.933218
Cl129	Cl	0.891589	-0.790225	0.453686
Cl130	Cl	1.391589	-0.290225	0.953686
Cl131	Cl	0.436207	-0.425506	0.244873
Cl132	Cl	0.936207	0.074494	0.744873
Cl133	Cl	0.874096	-0.425441	0.244836
Cl134	Cl	1.374096	0.074559	0.744836
