data_functionalizedCrystal
_audit_creation_method	'MofGen! by Chris Wilmer'
_symmetry_space_group_name_H-M	'P1'
_symmetry_Int_Tables_number	1
_symmetry_cell_setting	triclinic
loop_
_symmetry_equiv_pos_as_xyz
  x,y,z
_cell_length_a	29.839135
_cell_length_b	29.839131
_cell_length_c	21.395355
_cell_angle_alpha	90.020172
_cell_angle_beta	90.027781
_cell_angle_gamma	90.043950
loop_
_atom_site_label
_atom_site_type_symbol
_atom_site_fract_x
_atom_site_fract_y
_atom_site_fract_z
Zn1	Zn	0.686774	-0.178875	0.354308
Zn2	Zn	1.186774	0.321125	0.854308
Zn3	Zn	0.686690	-0.253990	0.249528
Zn4	Zn	1.186690	0.246010	0.749528
Zn5	Zn	0.611641	-0.178878	0.249539
Zn6	Zn	1.111641	0.321122	0.749539
Zn7	Zn	0.611605	-0.253982	0.354262
Zn8	Zn	1.111605	0.246018	0.854262
O9	O	0.649177	-0.216431	0.301909
O10	O	1.149177	0.283569	0.801909
O11	O	0.749630	-0.188841	0.340423
O12	O	1.249630	0.311159	0.840423
O13	O	0.676715	-0.244031	0.161851
O14	O	1.176715	0.255969	0.661851
O15	O	0.621658	-0.116011	0.263461
O16	O	1.121658	0.383989	0.763461
O17	O	0.749568	-0.244028	0.263442
O18	O	1.249568	0.255972	0.763442
O19	O	0.676858	-0.116008	0.340434
O20	O	1.176858	0.383992	0.840434
O21	O	0.621576	-0.188847	0.161860
O22	O	1.121576	0.311153	0.661860
O23	O	0.548769	-0.188839	0.263416
O24	O	1.048769	0.311161	0.763416
O25	O	0.621596	-0.244014	0.441946
O26	O	1.121596	0.255986	0.941946
O27	O	0.548742	-0.244017	0.340356
O28	O	1.048742	0.255983	0.840356
O29	O	0.676823	-0.188833	0.441980
O30	O	1.176823	0.311167	0.941980
O31	O	0.676680	-0.316856	0.263397
O32	O	1.176680	0.183144	0.763397
O33	O	0.621515	-0.316850	0.340345
O34	O	1.121515	0.183150	0.840345
C35	C	0.649096	-0.333154	0.301878
C36	C	1.149096	0.166846	0.801878
C37	C	0.649103	-0.383088	0.301886
C38	C	1.149103	0.116912	0.801886
C39	C	0.532455	-0.216428	0.301882
C40	C	1.032455	0.283572	0.801882
C41	C	0.482520	-0.216437	0.301886
C42	C	0.982520	0.283563	0.801886
C43	C	0.677954	-0.692722	0.261901
C44	C	1.177954	-0.192722	0.761901
C45	C	0.678010	-0.880395	0.261925
C46	C	1.178010	-0.380395	0.761925
O47	O	0.702476	-0.904652	0.227905
O48	O	1.202476	-0.404652	0.727905
N49	N	0.649271	-0.903873	0.301956
N50	N	1.149271	-0.403873	0.801956
C51	C	0.620518	-0.880430	0.341987
C52	C	1.120518	-0.380430	0.841987
O53	O	0.596078	-0.904706	0.376041
O54	O	1.096078	-0.404706	0.876041
C55	C	0.620465	-0.692758	0.341966
C56	C	1.120465	-0.192758	0.841966
C57	C	0.649203	-0.669283	0.301927
C58	C	1.149203	-0.169283	0.801927
C59	C	0.706690	-0.669247	0.221867
C60	C	1.206690	-0.169247	0.721867
C61	C	0.706674	-0.622331	0.221858
C62	C	1.206674	-0.122331	0.721858
C63	C	0.677922	-0.598891	0.261885
C64	C	1.177922	-0.098891	0.761885
C65	C	0.649187	-0.622367	0.301919
C66	C	1.149187	-0.122367	0.801919
C67	C	0.591715	-0.669316	0.381999
C68	C	1.091715	-0.169316	0.881999
C69	C	0.591705	-0.622395	0.381991
C70	C	1.091705	-0.122395	0.881991
C71	C	0.620443	-0.598919	0.341953
C72	C	1.120443	-0.098919	0.841953
C73	C	0.620419	-0.552012	0.341938
C74	C	1.120419	-0.052012	0.841938
N75	N	0.649158	-0.528534	0.301906
N76	N	1.149158	-0.028534	0.801906
C77	C	0.677910	-0.551974	0.261880
C78	C	1.177910	-0.051974	0.761880
C79	C	0.620547	-0.978961	0.341995
C80	C	1.120547	-0.478961	0.841995
C81	C	0.620560	-1.025879	0.342000
C82	C	1.120560	-0.525879	0.842000
C83	C	0.678052	-1.025841	0.261938
C84	C	1.178052	-0.525841	0.761938
C85	C	0.678037	-0.978922	0.261931
C86	C	1.178037	-0.478922	0.761931
C87	C	0.649286	-0.955483	0.301964
C88	C	1.149286	-0.455483	0.801964
C89	C	0.677874	-0.453448	0.261866
C90	C	1.177874	0.046552	0.761866
C91	C	0.677854	-0.406528	0.261859
C92	C	1.177854	0.093472	0.761859
C93	C	0.620364	-0.406571	0.341923
C94	C	1.120364	0.093429	0.841923
C95	C	0.620382	-0.453486	0.341927
C96	C	1.120382	0.046514	0.841927
C97	C	0.649140	-0.476924	0.301896
C98	C	1.149140	0.023076	0.801896
O99	O	0.595970	-0.527726	0.375945
O100	O	1.095970	-0.027726	0.875945
O101	O	0.702353	-0.527690	0.227841
O102	O	1.202353	-0.027690	0.727841
C103	C	0.677970	-0.739638	0.261909
C104	C	1.177970	-0.239638	0.761909
C105	C	0.649234	-0.763114	0.301944
C106	C	1.149234	-0.263114	0.801944
C107	C	0.620483	-0.739674	0.341970
C108	C	1.120483	-0.239674	0.841970
C109	C	0.649247	-0.810031	0.301948
C110	C	1.149247	-0.310031	0.801948
C111	C	0.677998	-0.833471	0.261922
C112	C	1.177998	-0.333471	0.761922
C113	C	0.706737	-0.809993	0.221891
C114	C	1.206737	-0.309993	0.721891
C115	C	0.706721	-0.763078	0.221883
C116	C	1.206721	-0.263078	0.721883
C117	C	0.591744	-0.763152	0.382001
C118	C	1.091744	-0.263152	0.882001
C119	C	0.591762	-0.810067	0.382005
C120	C	1.091762	-0.310067	0.882005
C121	C	0.620513	-0.833507	0.341979
C122	C	1.120513	-0.333507	0.841979
C123	C	0.172906	-0.187739	0.342053
C124	C	0.672906	0.312261	0.842053
C125	C	-0.014767	-0.187742	0.342070
C126	C	0.485233	0.312258	0.842070
O127	O	-0.039007	-0.163332	0.376192
O128	O	0.460993	0.336668	0.876192
N129	N	-0.038265	-0.216432	0.301932
N130	N	0.461735	0.283568	0.801932
C131	C	-0.014841	-0.245121	0.261784
C132	C	0.485159	0.254879	0.761784
O133	O	-0.039134	-0.269520	0.227639
O134	O	0.460866	0.230480	0.727639
C135	C	0.172831	-0.245115	0.261763
C136	C	0.672831	0.254885	0.761763
C137	C	0.196326	-0.216427	0.301909
C138	C	0.696326	0.283573	0.801909
C139	C	0.196402	-0.159053	0.382194
C140	C	0.696402	0.340947	0.882194
C141	C	0.243317	-0.159054	0.382192
C142	C	0.743317	0.340946	0.882192
C143	C	0.266737	-0.187742	0.342048
C144	C	0.766737	0.312258	0.842048
C145	C	0.243242	-0.216428	0.301906
C146	C	0.743242	0.283572	0.801906
C147	C	0.196253	-0.273801	0.221612
C148	C	0.696253	0.226199	0.721612
C149	C	0.243174	-0.273797	0.221609
C150	C	0.743174	0.226203	0.721609
C151	C	0.266670	-0.245108	0.261755
C152	C	0.766670	0.254892	0.761755
C153	C	0.313577	-0.245117	0.261760
C154	C	0.813577	0.254883	0.761760
N155	N	0.337075	-0.216427	0.301898
N156	N	0.837075	0.283573	0.801898
C157	C	0.313655	-0.187740	0.342042
C158	C	0.813655	0.312260	0.842042
C159	C	-0.113372	-0.245122	0.261798
C160	C	0.386628	0.254878	0.761798
C161	C	-0.160290	-0.245124	0.261804
C162	C	0.339710	0.254876	0.761804
C163	C	-0.160212	-0.187745	0.342090
C164	C	0.339788	0.312255	0.842090
C165	C	-0.113293	-0.187746	0.342087
C166	C	0.386707	0.312254	0.842087
C167	C	-0.089874	-0.216433	0.301936
C168	C	0.410126	0.283567	0.801936
C169	C	0.412181	-0.187745	0.342034
C170	C	0.912181	0.312255	0.842034
C171	C	0.459100	-0.187750	0.342030
C172	C	0.959100	0.312250	0.842030
C173	C	0.459019	-0.245127	0.261742
C174	C	0.959019	0.254873	0.761742
C175	C	0.412103	-0.245124	0.261748
C176	C	0.912103	0.254876	0.761748
C177	C	0.388685	-0.216429	0.301896
C178	C	0.888685	0.283571	0.801896
O179	O	0.337846	-0.269511	0.227651
O180	O	0.837846	0.230489	0.727651
O181	O	0.337956	-0.163337	0.376171
O182	O	0.837956	0.336663	0.876171
C183	C	0.125991	-0.187738	0.342055
C184	C	0.625991	0.312262	0.842055
C185	C	0.102495	-0.216424	0.301913
C186	C	0.602495	0.283576	0.801913
C187	C	0.125915	-0.245112	0.261769
C188	C	0.625915	0.254888	0.761769
C189	C	0.055578	-0.216426	0.301919
C190	C	0.555578	0.283574	0.801919
C191	C	0.032157	-0.187739	0.342063
C192	C	0.532157	0.312261	0.842063
C193	C	0.055655	-0.159049	0.382202
C194	C	0.555655	0.340951	0.882202
C195	C	0.102571	-0.159050	0.382199
C196	C	0.602571	0.340950	0.882199
C197	C	0.102418	-0.273801	0.221631
C198	C	0.602418	0.226199	0.721631
C199	C	0.055502	-0.273798	0.221637
C200	C	0.555502	0.226202	0.721637
C201	C	0.032082	-0.245111	0.261781
C202	C	0.532082	0.254889	0.761781
C203	C	0.766356	-0.216435	0.301936
C204	C	1.266356	0.283565	0.801936
C205	C	0.816290	-0.216437	0.301948
C206	C	1.316290	0.283563	0.801948
C207	C	0.649215	-0.216422	0.465333
C208	C	1.149215	0.283578	0.965333
C209	C	0.649231	-0.216418	0.534974
C210	C	1.149231	0.283582	1.034974
C211	C	0.649271	-0.099253	0.301954
C212	C	1.149271	0.400747	0.801954
C213	C	0.649311	-0.049319	0.301973
C214	C	1.149311	0.450681	0.801973
C215	C	0.649166	-0.216408	0.139122
C216	C	1.149166	0.283592	0.639122
C217	C	0.649237	-0.216285	0.069481
C218	C	1.149237	0.283715	0.569481
C219	C	0.677986	-0.187685	0.567706
C220	C	1.177986	0.312315	1.067706
C221	C	0.677985	-0.187665	0.633141
C222	C	1.177985	0.312335	1.133141
C223	C	0.649234	-0.216388	0.665842
C224	C	1.149234	0.283612	1.165842
C225	C	0.620473	-0.245124	0.633102
C226	C	1.120473	0.254876	1.133102
C227	C	0.620472	-0.245139	0.567668
C228	C	1.120472	0.254861	1.067668
C229	C	0.645659	-0.256839	0.769506
C230	C	1.145659	0.243161	1.269506
C231	C	0.645664	-0.256825	0.834939
C232	C	1.145664	0.243175	1.334939
C233	C	0.649237	-0.216340	0.867663
C234	C	1.149237	0.283660	1.367663
C235	C	0.652815	-0.175870	0.834946
C236	C	1.152815	0.324130	1.334946
C237	C	0.652813	-0.175885	0.769512
C238	C	1.152813	0.324115	1.269512
C239	C	0.649233	-0.216374	0.736795
C240	C	1.149233	0.283626	1.236795
C241	C	0.677993	-0.187583	0.971347
C242	C	1.177993	0.312417	1.471347
C243	C	0.677989	-0.187563	1.036784
C244	C	1.177989	0.312437	1.536784
C245	C	0.620480	-0.245026	1.036744
C246	C	1.120480	0.254974	1.536744
C247	C	0.620481	-0.245042	0.971309
C248	C	1.120481	0.254958	1.471309
C249	C	0.649240	-0.216321	0.938614
C250	C	1.149240	0.283679	1.438614
H251	H	0.701256	-0.387416	0.229253
H252	H	1.201256	0.112584	0.729253
F253	F	0.589865	-0.275723	0.532832
F254	F	1.089865	0.224277	1.032832
F255	F	0.589877	-0.275626	0.936472
F256	F	1.089877	0.224374	1.436472
F257	F	0.641860	-0.299897	0.869752
F258	F	1.141860	0.200103	1.369752
F259	F	0.268317	-0.128519	0.424919
F260	F	0.768317	0.371481	0.924919
H261	H	0.642629	-0.289798	0.742867
H262	H	1.142629	0.210202	1.242867
H263	H	0.478228	-0.164388	0.374723
H264	H	0.978228	0.335612	0.874723
H265	H	0.393120	-0.164377	0.374725
H266	H	0.893120	0.335623	0.874725
H267	H	-0.179416	-0.268490	0.229120
H268	H	0.320584	0.231510	0.729120
H269	H	0.568311	-0.688422	0.414600
H270	H	1.068311	-0.188422	0.914600
F271	F	-0.088453	-0.275654	0.219057
F272	F	0.411547	0.224346	0.719057
H273	H	-0.094167	-0.164384	0.374776
H274	H	0.405833	0.335616	0.874776
F275	F	0.708592	-0.157116	0.532913
F276	F	1.208592	0.342884	1.032913
H277	H	0.730076	-0.603220	0.189258
H278	H	1.230076	-0.103220	0.689258
H279	H	0.655725	-0.142932	0.742877
H280	H	1.155725	0.357068	1.242877
H281	H	0.392972	-0.268489	0.229066
H282	H	0.892972	0.231511	0.729066
H283	H	0.596982	-0.472601	0.374531
H284	H	1.096982	0.027399	0.874531
H285	H	0.730105	-0.688326	0.189272
H286	H	1.230105	-0.188326	0.689272
H287	H	0.701438	-0.959811	0.229329
H288	H	1.201438	-0.459811	0.729329
F289	F	0.737310	-0.738099	0.179270
F290	F	1.237310	-0.238099	0.679270
H291	H	0.568293	-0.603313	0.414593
H292	H	1.068293	-0.103313	0.914593
H293	H	0.701463	-1.044933	0.229347
H294	H	1.201463	-0.544933	0.729347
H295	H	0.568331	-0.744071	0.414596
H296	H	1.068331	-0.244071	0.914596
H297	H	0.177338	-0.135690	0.414885
H298	H	0.677338	0.364310	0.914885
H299	H	0.701400	-0.164264	0.659797
H300	H	1.201400	0.335736	1.159797
H301	H	0.730147	-0.829086	0.189298
H302	H	1.230147	-0.329086	0.689298
H303	H	0.701408	-0.164195	0.944726
H304	H	1.201408	0.335805	1.444726
H305	H	0.568356	-0.829177	0.414609
H306	H	1.068356	-0.329177	0.914609
F307	F	0.030722	-0.128519	0.424928
F308	F	0.530722	0.371481	0.924928
F309	F	-0.185145	-0.157213	0.384814
F310	F	0.314855	0.342787	0.884814
F311	F	0.171258	-0.304329	0.178873
F312	F	0.671258	0.195671	0.678873
H313	H	0.596953	-0.387479	0.374510
H314	H	1.096953	0.112521	0.874510
H315	H	0.701405	-0.164162	1.063433
H316	H	1.201405	0.335838	1.563433
H317	H	0.597062	-0.268508	0.659732
H318	H	1.097062	0.231492	1.159732
H319	H	0.597065	-0.268407	1.063369
H320	H	1.097065	0.231593	1.563369
H321	H	0.262240	-0.297157	0.188912
H322	H	0.762240	0.202843	0.688912
H323	H	0.478096	-0.268485	0.229059
H324	H	0.978096	0.231515	0.729059
H325	H	0.655725	-0.142903	0.861589
H326	H	1.155725	0.357097	1.361589
H327	H	0.701293	-0.472525	0.229270
H328	H	1.201293	0.027475	0.729270
H329	H	0.597154	-1.044989	0.374597
H330	H	1.097154	-0.544989	0.874597
H331	H	0.121696	-0.135689	0.414889
H332	H	0.621696	0.364311	0.914889
H333	H	0.597133	-0.959880	0.374595
H334	H	1.097133	-0.459880	0.874595
F335	F	0.127337	-0.304332	0.178896
F336	F	0.627337	0.195668	0.678896
F337	F	0.030502	-0.304335	0.178906
F338	F	0.530502	0.195665	0.678906
