data_functionalizedCrystal
_audit_creation_method	'MofGen! by Chris Wilmer'
_symmetry_space_group_name_H-M	'P1'
_symmetry_Int_Tables_number	1
_symmetry_cell_setting	triclinic
loop_
_symmetry_equiv_pos_as_xyz
  x,y,z
_cell_length_a	16.959455
_cell_length_b	18.101397
_cell_length_c	16.959447
_cell_angle_alpha	89.966244
_cell_angle_beta	89.983056
_cell_angle_gamma	90.017413
loop_
_atom_site_label
_atom_site_type_symbol
_atom_site_fract_x
_atom_site_fract_y
_atom_site_fract_z
Zn1	Zn	1.208402	-0.294875	-0.446890
Zn2	Zn	1.708402	0.205125	0.053110
Zn3	Zn	1.208318	-0.418728	-0.314704
Zn4	Zn	1.708318	0.081272	0.185296
Zn5	Zn	1.076224	-0.294898	-0.314728
Zn6	Zn	1.576224	0.205102	0.185272
Zn7	Zn	1.076194	-0.418672	-0.446843
Zn8	Zn	1.576194	0.081328	0.053157
O9	O	1.142285	-0.356793	-0.380791
O10	O	1.642285	0.143207	0.119209
O11	O	1.319002	-0.311318	-0.429365
O12	O	1.819002	0.188682	0.070635
O13	O	1.190772	-0.402335	-0.204096
O14	O	1.690772	0.097665	0.295904
O15	O	1.093806	-0.191262	-0.332289
O16	O	1.593806	0.308738	0.167711
O17	O	1.318940	-0.402312	-0.332249
O18	O	1.818940	0.097688	0.167751
O19	O	1.190916	-0.191245	-0.429389
O20	O	1.690916	0.308755	0.070611
O21	O	1.093724	-0.311357	-0.204114
O22	O	1.593724	0.188643	0.295886
O23	O	0.965610	-0.311304	-0.332243
O24	O	1.465610	0.188696	0.167757
O25	O	1.093755	-0.402217	-0.557460
O26	O	1.593755	0.097783	-0.057460
O27	O	0.965587	-0.402240	-0.429307
O28	O	1.465587	0.097760	0.070693
O29	O	1.190887	-0.311264	-0.557495
O30	O	1.690887	0.188736	-0.057495
O31	O	1.190743	-0.522353	-0.332203
O32	O	1.690743	-0.022353	0.167797
O33	O	1.093673	-0.522313	-0.429284
O34	O	1.593673	-0.022313	0.070716
C35	C	0.936918	-0.356769	-0.380773
C36	C	1.436918	0.143231	0.119227
C37	C	0.849062	-0.356776	-0.380784
C38	C	1.349062	0.143224	0.119216
C39	C	1.142217	-0.549204	-0.380753
C40	C	1.642217	-0.049204	0.119247
C41	C	1.142260	-0.631518	-0.380763
C42	C	1.642260	-0.131518	0.119237
C43	C	0.477573	-0.309404	-0.330355
C44	C	0.977573	0.190596	0.169645
C45	C	0.477599	-0.404244	-0.431272
C46	C	0.977599	0.095756	0.068728
C47	C	0.560145	-0.404233	-0.431267
C48	C	1.060145	0.095767	0.068733
C49	C	0.601409	-0.356808	-0.380805
C50	C	1.101409	0.143192	0.119195
C51	C	0.560127	-0.309393	-0.330347
C52	C	1.060127	0.190607	0.169653
C53	C	0.601433	-0.451652	-0.481718
C54	C	1.101433	0.048348	0.018282
C55	C	0.683984	-0.451644	-0.481715
C56	C	1.183984	0.048356	0.018285
C57	C	0.725249	-0.404214	-0.431256
C58	C	1.225249	0.095786	0.068744
C59	C	0.683962	-0.356797	-0.380797
C60	C	1.183962	0.143203	0.119203
C61	C	0.725226	-0.309372	-0.330334
C62	C	1.225226	0.190628	0.169666
C63	C	0.683941	-0.261951	-0.279879
C64	C	1.183941	0.238049	0.220121
C65	C	0.601392	-0.261964	-0.279888
C66	C	1.101392	0.238036	0.220112
C67	C	0.807798	-0.404201	-0.431246
C68	C	1.307798	0.095799	0.068754
C69	C	0.807780	-0.309362	-0.330326
C70	C	1.307780	0.190638	0.169674
C71	C	1.142361	-0.930609	-0.380835
C72	C	1.642361	-0.430609	0.119165
C73	C	1.203265	-0.899278	-0.319590
C74	C	1.703265	-0.399278	0.180410
C75	C	1.203476	-0.813660	-0.319749
C76	C	1.703476	-0.313660	0.180251
C77	C	1.142311	-0.782226	-0.380799
C78	C	1.642311	-0.282226	0.119201
C79	C	1.164890	-0.813230	-0.464115
C80	C	1.664890	-0.313230	0.035885
C81	C	1.165362	-0.898875	-0.463781
C82	C	1.665362	-0.398875	0.036219
C83	C	1.058716	-0.899115	-0.359484
C84	C	1.558716	-0.399115	0.140516
C85	C	1.059129	-0.813465	-0.357625
C86	C	1.559129	-0.313465	0.142375
C87	C	1.142282	-0.698367	-0.380783
C88	C	1.642282	-0.198367	0.119217
C89	C	1.142393	-1.014468	-0.380856
C90	C	1.642393	-0.514468	0.119144
C91	C	1.348453	-0.356818	-0.380810
C92	C	1.848453	0.143182	0.119190
C93	C	1.436309	-0.356829	-0.380818
C94	C	1.936309	0.143171	0.119182
C95	C	1.142327	-0.356732	-0.586959
C96	C	1.642327	0.143268	-0.086959
C97	C	1.142345	-0.356705	-0.674816
C98	C	1.642345	0.143295	-0.174816
C99	C	1.142374	-0.163631	-0.380847
C100	C	1.642374	0.336369	0.119153
C101	C	1.142412	-0.081317	-0.380871
C102	C	1.642412	0.418683	0.119129
C103	C	1.091886	-0.309260	-1.046307
C104	C	1.591886	0.190740	-0.546307
C105	C	1.192943	-0.403995	-1.046277
C106	C	1.692943	0.096005	-0.546277
C107	C	1.192929	-0.404012	-0.963731
C108	C	1.692929	0.095988	-0.463731
C109	C	1.142392	-0.356653	-0.922469
C110	C	1.642392	0.143347	-0.422469
C111	C	1.091869	-0.309277	-0.963754
C112	C	1.591869	0.190723	-0.463754
C113	C	1.243446	-0.451393	-0.922440
C114	C	1.743446	0.048607	-0.422440
C115	C	1.243434	-0.451413	-0.839889
C116	C	1.743434	0.048587	-0.339889
C117	C	1.192900	-0.404050	-0.798626
C118	C	1.692900	0.095950	-0.298626
C119	C	1.142376	-0.356671	-0.839916
C120	C	1.642376	0.143329	-0.339916
C121	C	1.091839	-0.309312	-0.798654
C122	C	1.591839	0.190688	-0.298654
C123	C	1.041317	-0.261929	-0.839942
C124	C	1.541317	0.238071	-0.339942
C125	C	1.041336	-0.261914	-0.922491
C126	C	1.541336	0.238086	-0.422491
C127	C	1.192882	-0.404064	-0.716078
C128	C	1.692882	0.095936	-0.216078
C129	C	1.091822	-0.309329	-0.716101
C130	C	1.591822	0.190671	-0.216101
C131	C	1.142288	-0.356801	-0.175425
C132	C	1.642288	0.143199	0.324575
C133	C	1.142423	-0.356619	-0.087569
C134	C	1.642423	0.143381	0.412431
H135	H	0.841371	-0.270737	-0.289238
H136	H	1.341371	0.229263	0.210762
H137	H	0.443997	-0.442859	-0.472352
H138	H	0.943997	0.057141	0.027648
Br139	Br	1.261432	-0.468372	-0.660047
Br140	Br	1.761432	0.031628	-0.160047
H141	H	1.284582	-0.489959	-0.956041
H142	H	1.784582	0.010041	-0.456041
H143	H	0.717548	-0.223341	-0.238789
H144	H	1.217548	0.276659	0.261211
H145	H	1.050755	-0.270680	-1.079928
H146	H	1.550755	0.229320	-0.579928
Br147	Br	0.421547	-0.245043	-0.261889
Br148	Br	0.921547	0.254957	0.238111
H149	H	0.567770	-0.223357	-0.238809
H150	H	1.067770	0.276643	0.261191
H151	H	1.011310	-0.792075	-0.398966
H152	H	1.511310	-0.292075	0.101034
H153	H	1.234082	-0.442558	-1.079877
H154	H	1.734082	0.057442	-0.579877
H155	H	0.567830	-0.490268	-0.522796
H156	H	1.067830	0.009732	-0.022796
Br157	Br	1.024476	-0.935221	-0.259980
Br158	Br	1.524476	-0.435221	0.240020
H159	H	0.717592	-0.490256	-0.522799
H160	H	1.217592	0.009744	-0.022799
H161	H	1.042104	-0.793209	-0.296311
H162	H	1.542104	-0.293209	0.203689
H163	H	1.013338	-0.919376	-0.404092
H164	H	1.513338	-0.419376	0.095908
H165	H	1.284571	-0.489996	-0.806279
H166	H	1.784571	0.010004	-0.306279
H167	H	0.841409	-0.442813	-0.472324
H168	H	1.341409	0.057187	0.027676
H169	H	1.189350	-0.792701	-0.257971
H170	H	1.689350	-0.292701	0.242029
Br171	Br	0.972776	-0.197616	-0.978529
Br172	Br	1.472776	0.302384	-0.478529
Br173	Br	1.180013	-0.933691	-0.216310
Br174	Br	1.680013	-0.433691	0.283690
Br175	Br	1.305974	-0.935060	-0.342860
Br176	Br	1.805974	-0.435060	0.157140
Br177	Br	1.306746	-0.779416	-0.343297
Br178	Br	1.806746	-0.279416	0.156703
H179	H	1.050671	-0.270760	-0.682511
H180	H	1.550671	0.229240	-0.182511
H181	H	1.226502	-0.918796	-0.481867
H182	H	1.726502	-0.418796	0.018133
Br183	Br	1.094628	-0.933418	-0.542421
Br184	Br	1.594628	-0.433418	-0.042421
Br185	Br	1.093210	-0.779304	-0.542219
Br186	Br	1.593210	-0.279304	-0.042219
H187	H	1.225347	-0.791725	-0.482506
H188	H	1.725347	-0.291725	0.017494
Br189	Br	0.972734	-0.197659	-0.783935
Br190	Br	1.472734	0.302341	-0.283935
