data_functionalizedCrystal
_audit_creation_method	'MofGen! by Chris Wilmer'
_symmetry_space_group_name_H-M	'P1'
_symmetry_Int_Tables_number	1
_symmetry_cell_setting	triclinic
loop_
_symmetry_equiv_pos_as_xyz
  x,y,z
_cell_length_a	6.817900
_cell_length_b	16.305550
_cell_length_c	10.992723
_cell_angle_alpha	93.824391
_cell_angle_beta	108.770285
_cell_angle_gamma	103.455250
loop_
_atom_site_label
_atom_site_type_symbol
_atom_site_fract_x
_atom_site_fract_y
_atom_site_fract_z
V1	V	-4.053454	-0.263024	-0.178847
O2	O	-4.012703	-0.258025	0.007479
O3	O	-4.031483	-0.261218	-0.353550
O4	O	-4.004516	-0.377741	-0.176585
O5	O	-4.039857	-0.140695	-0.170711
V6	V	-4.533727	-0.248393	-0.156502
O7	O	-4.321842	-0.295118	-0.227861
O8	O	-4.715537	-0.216300	-0.107488
O9	O	-4.332492	-0.250199	0.018201
O10	O	-4.691875	-0.253393	-0.342828
O11	O	-4.664721	-0.370723	-0.164638
O12	O	-4.359459	-0.133676	-0.158764
C13	C	-3.882931	-0.257067	-0.396124
C14	C	-3.946250	-0.256354	-0.538949
C15	C	-4.257314	-0.260105	-0.749906
C16	C	-4.191791	-0.261172	-0.601430
C17	C	-3.905254	-0.334491	-0.608483
C18	C	-3.972567	-0.333847	-0.757154
C19	C	-3.878486	-0.172572	-0.718215
C20	C	-3.816186	-0.172342	-0.569493
C21	C	-3.848530	-0.405703	-0.170386
C22	C	-3.889977	-0.499484	-0.169693
C23	C	-4.040655	-0.840230	-0.167008
C24	C	-3.803394	-0.799302	-0.159035
C25	C	-3.760391	-0.701807	-0.160288
C26	C	-3.965900	-0.671182	-0.168339
C27	C	-4.152237	-0.721803	-0.295228
C28	C	-4.193991	-0.819353	-0.294510
C29	C	-4.077474	-0.794392	-0.049105
C30	C	-4.029391	-0.696549	-0.048101
C31	C	-3.923666	-0.575644	-0.169096
C32	C	-4.082900	-0.935769	-0.166260
C33	C	-4.144387	-0.254348	0.060768
C34	C	-4.060306	-0.255066	0.203592
C35	C	-4.178787	-0.105710	-0.164967
C36	C	-4.116578	-0.011928	-0.165654
H37	H	-3.828212	-0.333631	-0.788185
O38	O	-4.418703	-0.331043	-0.814709
C39	C	-4.594202	-0.334718	-0.771983
H40	H	-4.586136	-0.267897	-0.729066
H41	H	-4.750987	-0.361005	-0.857754
H42	H	-4.587398	-0.378221	-0.694582
O43	O	-3.702022	-0.167123	-0.752831
C44	C	-3.540041	-0.092915	-0.682150
H45	H	-3.568189	-0.072674	-0.589239
H46	H	-3.376149	-0.106630	-0.656185
H47	H	-3.544800	-0.039437	-0.743871
O48	O	-4.167449	-0.855659	-0.401083
C49	C	-4.360879	-0.915736	-0.478445
H50	H	-4.501473	-0.899590	-0.456891
H51	H	-4.384172	-0.913869	-0.585572
H52	H	-4.353404	-0.982328	-0.455431
H53	H	-4.250255	-0.821207	-0.053817
O54	O	-3.697077	-0.682423	-0.262662
C55	C	-3.860470	-0.726389	-0.379431
H56	H	-4.021405	-0.743351	-0.363535
H57	H	-3.869047	-0.684043	-0.458390
H58	H	-3.823084	-0.787323	-0.410791
H59	H	-3.635511	-0.163921	-0.525379
O60	O	-4.403307	-0.852886	-0.307714
C61	C	-4.443187	-0.941657	-0.307229
H62	H	-4.285643	-0.957657	-0.256021
H63	H	-4.559968	-0.962682	-0.253673
H64	H	-4.516199	-0.976414	-0.411597
O65	O	-3.765350	-0.836947	-0.260201
C66	C	-3.952202	-0.900159	-0.338126
H67	H	-4.099087	-0.885553	-0.323055
H68	H	-3.968733	-0.900822	-0.444761
H69	H	-3.939881	-0.965214	-0.309576
O70	O	-4.102207	-0.701595	-0.401651
C71	C	-4.072879	-0.613329	-0.404367
H72	H	-4.030374	-0.578756	-0.301907
H73	H	-3.936872	-0.588160	-0.442477
H74	H	-4.227668	-0.601694	-0.470911
H75	H	-3.728505	-0.333934	-0.568044
H76	H	-4.229608	-0.205324	-0.554050
O77	O	-4.016365	-0.408740	-0.584805
C78	C	-3.977829	-0.478276	-0.647981
H79	H	-3.819126	-0.456301	-0.665535
H80	H	-3.969016	-0.530719	-0.584421
H81	H	-4.114181	-0.504038	-0.745070
H82	H	-3.971446	-0.807763	0.047037
H83	H	-3.620014	-0.666787	-0.069056
O84	O	-3.867788	-0.655453	0.063748
C85	C	-3.697958	-0.604015	0.033489
H86	H	-3.762657	-0.588541	-0.069097
H87	H	-3.623249	-0.542237	0.105780
H88	H	-3.570638	-0.639672	0.039316
O89	O	-4.341143	-0.193004	-0.779676
C90	C	-4.222813	-0.140451	-0.842954
H91	H	-4.138671	-0.179304	-0.888979
H92	H	-4.336474	-0.114518	-0.921794
H93	H	-4.097614	-0.085038	-0.769260
H94	H	-4.295097	-0.321461	-0.583033
H95	H	-4.306988	-0.702890	-0.305708
H96	H	-4.176439	-0.675201	-0.046522
H97	H	-3.931811	-0.112670	-0.743425
H98	H	-4.099657	-0.395967	-0.809232
O99	O	-3.660410	-0.814169	-0.049661
C100	C	-3.772782	-0.861773	0.021357
H101	H	-3.941362	-0.897772	-0.046729
H102	H	-3.683275	-0.909263	0.067147
H103	H	-3.784575	-0.816781	0.101077
H104	H	-3.847406	-0.114487	-0.522660
