data_functionalizedCrystal
_audit_creation_method	'MofGen! by Chris Wilmer'
_symmetry_space_group_name_H-M	'P1'
_symmetry_Int_Tables_number	1
_symmetry_cell_setting	triclinic
loop_
_symmetry_equiv_pos_as_xyz
  x,y,z
_cell_length_a	10.654549
_cell_length_b	9.482944
_cell_length_c	10.654550
_cell_angle_alpha	100.343857
_cell_angle_beta	84.484854
_cell_angle_gamma	100.390496
loop_
_atom_site_label
_atom_site_type_symbol
_atom_site_fract_x
_atom_site_fract_y
_atom_site_fract_z
O1	O	1.685544	0.120862	0.194002
O2	O	1.320067	0.120873	0.210810
O3	O	1.511208	0.120858	0.019666
O4	O	1.494404	0.120877	0.385147
O5	O	1.475775	-0.120935	-0.015561
O6	O	1.284635	-0.120920	0.175583
O7	O	1.650112	-0.120930	0.158775
Cu8	Cu	1.464138	-0.143003	0.163963
Cu9	Cu	1.506041	0.142945	0.205623
O10	O	1.458972	-0.120916	0.349920
C11	C	1.255553	-0.000022	0.191963
C12	C	1.116111	-0.000019	0.188272
C13	C	0.905596	-0.000019	0.297335
C14	C	1.036618	-0.000010	0.300815
C15	C	1.064578	-0.000021	0.072244
C16	C	0.933560	-0.000020	0.068767
N17	N	1.434675	-0.344123	0.134661
C18	C	1.497342	-0.416322	0.196979
C19	C	1.472838	-0.583740	0.172588
C20	C	1.714626	-0.000032	0.177623
C21	C	1.854071	-0.000026	0.181316
C22	C	1.492257	-0.000037	-0.044746
C23	C	1.488566	-0.000035	-0.184189
N24	N	1.535514	0.344066	0.234915
C25	C	1.601107	-0.000038	-0.263675
C26	C	1.597633	-0.000020	-0.394693
C27	C	1.369066	-0.000003	-0.366727
C28	C	1.372543	-0.000010	-0.235710
C29	C	1.477922	-0.000017	0.414332
C30	C	1.481615	-0.000010	0.553776
H31	H	1.569139	-0.354190	0.268384
H32	H	1.274604	0.000014	-0.408692
O33	O	0.883678	0.000166	-0.043991
C34	C	0.885782	0.125471	-0.222120
C35	C	0.942403	0.125416	-0.094464
H36	H	0.933218	0.226741	-0.262953
H37	H	0.903649	0.024347	-0.292616
H38	H	0.778479	0.125407	-0.205249
H39	H	1.049715	0.125532	-0.111213
H40	H	0.924435	0.226532	-0.024012
H41	H	1.401045	-0.645866	0.101169
O42	O	1.141635	-0.000218	-0.037195
C43	C	1.187305	-0.125537	-0.249713
C44	C	1.099927	-0.125475	-0.125856
H45	H	1.153633	-0.226811	-0.321419
H46	H	1.183241	-0.024417	-0.292107
H47	H	1.289800	-0.125469	-0.227265
H48	H	0.997394	-0.125594	-0.148198
H49	H	1.104101	-0.226585	-0.083496
H50	H	1.695581	-0.000055	-0.221730
H51	H	1.280893	-0.000004	-0.170988
H52	H	1.078563	-0.000003	0.395290
O53	O	1.621078	-0.581608	0.320119
C54	C	1.723600	-0.346975	0.422029
C55	C	1.626651	-0.430967	0.325522
H56	H	1.728157	-0.225167	0.426409
H57	H	1.692430	-0.376712	0.520660
H58	H	1.822064	-0.376882	0.390395
H59	H	1.528156	-0.401105	0.357037
H60	H	1.657930	-0.401223	0.226913
O61	O	0.828471	0.000248	0.406733
C62	C	0.782896	0.125496	0.619302
C63	C	0.870314	0.125384	0.495468
H64	H	0.816710	0.226642	0.691087
H65	H	0.680391	0.125587	0.596980
H66	H	0.786922	0.024267	0.661547
H67	H	0.866399	0.226596	0.453161
H68	H	0.972780	0.125217	0.517868
O69	O	1.349027	-0.418456	0.049551
C70	C	1.246396	-0.653090	-0.052248
C71	C	1.343406	-0.569097	0.044198
H72	H	1.241840	-0.774898	-0.056626
H73	H	1.147911	-0.623178	-0.020737
H74	H	1.277690	-0.623360	-0.150858
H75	H	1.312231	-0.598782	0.142839
H76	H	1.441869	-0.599016	0.012580
H77	H	1.689276	-0.000019	-0.459406
