data_functionalizedCrystal
_audit_creation_method	'MofGen! by Chris Wilmer'
_symmetry_space_group_name_H-M	'P1'
_symmetry_Int_Tables_number	1
_symmetry_cell_setting	triclinic
loop_
_symmetry_equiv_pos_as_xyz
  x,y,z
_cell_length_a	17.699077
_cell_length_b	19.188930
_cell_length_c	18.266242
_cell_angle_alpha	90.010255
_cell_angle_beta	90.008383
_cell_angle_gamma	83.212679
loop_
_atom_site_label
_atom_site_type_symbol
_atom_site_fract_x
_atom_site_fract_y
_atom_site_fract_z
O1	O	1.003967	0.088273	0.060879
O2	O	0.783573	0.099764	0.060884
O3	O	0.900130	-0.007630	0.060867
O4	O	0.887410	0.195667	0.060896
O5	O	0.900111	-0.007633	-0.060895
O6	O	0.783553	0.099761	-0.060878
O7	O	1.003948	0.088270	-0.060882
Zn8	Zn	0.893747	0.094015	-0.080212
Zn9	Zn	0.893773	0.094019	0.080214
O10	O	0.887390	0.195664	-0.060866
C11	C	0.755367	0.099352	0.000004
C12	C	0.671350	0.098119	0.000005
C13	C	0.631873	0.097536	-0.066369
C14	C	0.552932	0.096366	-0.066370
C15	C	0.513469	0.095784	0.000004
C16	C	0.552952	0.096365	0.066382
C17	C	0.631892	0.097529	0.066382
C18	C	0.234595	0.091666	0.066383
C19	C	0.155649	0.090503	0.066377
C20	C	0.155634	0.090503	-0.066369
C21	C	0.234574	0.091667	-0.066369
C22	C	0.274051	0.092244	0.000009
C23	C	0.359648	0.093512	0.000009
C24	C	0.427872	0.094522	0.000004
C25	C	0.899708	-0.033643	-0.000016
C26	C	0.898472	-0.111149	-0.000022
C27	C	0.966864	-0.155998	-0.000027
C28	C	0.965702	-0.228823	-0.000015
C29	C	0.896145	-0.256796	-0.000013
C30	C	0.827744	-0.211937	-0.000004
C31	C	0.828907	-0.139114	-0.000008
N32	N	0.842969	-0.364860	-0.041450
N33	N	0.841869	-0.434040	-0.041447
C34	C	0.892634	-0.476208	0.000002
N35	N	0.944554	-0.446585	0.041439
N36	N	0.945657	-0.377399	0.041433
C37	C	0.894875	-0.335760	-0.000008
C38	C	0.959771	-0.600023	0.000011
C39	C	0.958607	-0.672849	0.000027
C40	C	0.820646	-0.655962	0.000031
C41	C	0.821813	-0.583137	0.000022
C42	C	0.891378	-0.555173	0.000008
C43	C	1.032154	0.088682	-0.000000
C44	C	1.116171	0.089915	0.000003
C45	C	0.887812	0.221677	0.000019
C46	C	0.889049	0.299183	0.000030
N47	N	0.893735	0.094012	-0.189699
C48	C	0.939491	0.136308	-0.227997
C49	C	0.939503	0.136306	-0.304642
C50	C	0.893746	0.094016	-0.342986
C51	C	0.847987	0.051712	-0.304680
C52	C	0.847982	0.051710	-0.228036
N53	N	0.827460	0.092223	-0.463338
N54	N	0.827468	0.092229	-0.536146
C55	C	0.893761	0.094019	-0.573909
N56	N	0.960048	0.095816	-0.536113
N57	N	0.960039	0.095813	-0.463298
C58	C	0.893747	0.094013	-0.426093
C59	C	0.939534	0.136315	-0.695313
C60	C	0.939548	0.136308	-0.771960
C61	C	0.848026	0.051718	-0.771996
C62	C	0.848018	0.051720	-0.695351
C63	C	0.893772	0.094023	-0.657014
N64	N	0.893792	0.094017	0.189701
H65	H	0.123520	0.090029	0.120430
Cl66	Cl	0.790478	-0.001441	-0.647203
H67	H	0.976763	0.170750	-0.335830
H68	H	0.810770	0.017284	-0.803215
H69	H	0.771109	-0.234718	-0.000001
H70	H	0.266728	0.092134	0.120432
H71	H	0.976790	0.170759	-0.664098
Cl72	Cl	0.790466	-0.001455	-0.352883
H73	H	0.520816	0.095886	0.120424
H74	H	0.773213	-0.102597	-0.000005
H75	H	0.766121	-0.546620	0.000022
Cl76	Cl	0.790451	-0.001462	-0.179888
H77	H	0.520794	0.095880	-0.120417
Cl78	Cl	0.996994	0.189501	-0.179806
Cl79	Cl	0.997079	0.189481	-0.820106
H80	H	0.664034	0.098005	0.120430
Cl81	Cl	1.047222	-0.564863	-0.000011
Cl82	Cl	1.044594	-0.729232	0.000026
H83	H	0.123483	0.090030	-0.120417
H84	H	0.764011	-0.678737	0.000036
Cl85	Cl	1.051687	-0.285214	-0.000021
Cl86	Cl	1.054316	-0.120845	-0.000023
Cl87	Cl	0.681475	0.098272	-0.149814
H88	H	0.266701	0.092145	-0.120417
