data_functionalizedCrystal
_audit_creation_method	'MofGen! by Chris Wilmer'
_symmetry_space_group_name_H-M	'P1'
_symmetry_Int_Tables_number	1
_symmetry_cell_setting	triclinic
loop_
_symmetry_equiv_pos_as_xyz
  x,y,z
_cell_length_a	10.540539
_cell_length_b	17.038272
_cell_length_c	9.016244
_cell_angle_alpha	89.997742
_cell_angle_beta	89.994699
_cell_angle_gamma	87.818524
loop_
_atom_site_label
_atom_site_type_symbol
_atom_site_fract_x
_atom_site_fract_y
_atom_site_fract_z
O1	O	1.696177	0.110247	-0.123272
O2	O	2.196177	0.610247	0.376728
O3	O	1.327733	0.120634	-0.123290
O4	O	1.827733	0.620634	0.376710
O5	O	1.509765	0.001613	-0.123269
O6	O	2.009765	0.501613	0.376731
O7	O	1.514144	0.229268	-0.123293
O8	O	2.014144	0.729268	0.376707
O9	O	1.509737	0.001615	0.123411
O10	O	2.009737	0.501615	0.623411
O11	O	1.327704	0.120637	0.123390
O12	O	1.827704	0.620637	0.623390
O13	O	1.696149	0.110249	0.123409
O14	O	2.196149	0.610249	0.623409
Cu15	Cu	1.511924	0.115443	0.145924
Cu16	Cu	2.011924	0.615443	0.645924
Cu17	Cu	1.511957	0.115440	-0.145805
Cu18	Cu	2.011957	0.615440	0.354195
O19	O	1.514116	0.229271	0.123388
O20	O	2.014116	0.729271	0.623388
C21	C	1.280343	0.119857	0.000048
C22	C	1.780343	0.619857	0.500048
C23	C	1.139177	0.117526	0.000041
C24	C	1.639177	0.617526	0.500041
C25	C	0.947420	0.028219	0.000626
C26	C	1.447420	0.528219	0.500626
C27	C	1.094259	0.030581	0.000055
C28	C	1.594259	0.530581	0.500055
C29	C	1.081424	0.159366	-0.140824
C30	C	1.581424	0.659366	0.359176
C31	C	0.934603	0.156399	-0.140927
C32	C	1.434603	0.656399	0.359073
C33	C	0.934247	0.158170	0.139595
C34	C	1.434247	0.658170	0.639595
C35	C	1.081304	0.158971	0.141442
C36	C	1.581304	0.658971	0.641442
C37	C	1.505768	-0.027537	0.000071
C38	C	2.005768	0.472463	0.500071
C39	C	1.493883	-0.114398	0.000070
C40	C	1.993883	0.385602	0.500070
C41	C	1.602994	-0.163886	0.000077
C42	C	2.102994	0.336114	0.500077
C43	C	1.591820	-0.245501	0.000062
C44	C	2.091820	0.254499	0.500062
C45	C	1.471534	-0.277626	0.000051
C46	C	1.971534	0.222374	0.500051
C47	C	1.362416	-0.228133	0.000039
C48	C	1.862416	0.271867	0.500039
C49	C	1.373591	-0.146519	0.000044
C50	C	1.873591	0.353481	0.500044
C51	C	1.432055	-0.523611	0.000029
C52	C	1.932055	-0.023611	0.500029
C53	C	1.420888	-0.605231	0.000029
C54	C	1.920888	-0.105231	0.500029
C55	C	1.650293	-0.622593	0.000049
C56	C	2.150293	-0.122593	0.500049
C57	C	1.661457	-0.540977	0.000062
C58	C	2.161457	-0.040977	0.500062
C59	C	1.552339	-0.491491	0.000042
C60	C	2.052339	0.008509	0.500042
C61	C	1.460110	-0.361050	0.000041
C62	C	1.960110	0.138950	0.500041
C63	C	1.563764	-0.408069	0.000042
C64	C	2.063764	0.091931	0.500042
C65	C	1.743538	0.111027	0.000068
C66	C	2.243538	0.611027	0.500068
C67	C	1.884704	0.113358	0.000065
C68	C	2.384704	0.613358	0.500065
C69	C	1.518114	0.258421	0.000045
C70	C	2.018114	0.758421	0.500045
C71	C	1.529998	0.345282	0.000036
C72	C	2.029998	0.845282	0.500036
N73	N	1.511910	0.115445	0.351110
N74	N	2.011910	0.615445	0.851110
N75	N	1.511981	0.115432	-0.350991
N76	N	2.011981	0.615432	0.149009
C77	C	1.414197	0.178900	0.586131
C78	C	1.914197	0.678900	1.086131
C79	C	1.414449	0.179138	0.414240
C80	C	1.914449	0.679138	0.914240
C81	C	1.646365	0.134015	0.413453
C82	C	2.146365	0.634015	0.913453
C83	C	1.645841	0.134465	0.585397
C84	C	2.145841	0.634465	1.085397
C85	C	1.476465	0.033212	0.585660
C86	C	1.976465	0.533212	1.085660
C87	C	1.473470	0.033745	0.413706
C88	C	1.973470	0.533745	0.913706
H89	H	0.900064	0.130034	0.246370
H90	H	1.400064	0.630034	0.746370
H91	H	1.284741	-0.106227	0.000037
H92	H	1.784741	0.393773	0.500037
H93	H	1.111442	0.222360	0.149940
H94	H	1.611442	0.722360	0.649940
H95	H	0.892878	0.220970	0.140540
H96	H	1.392878	0.720970	0.640540
H97	H	0.892467	0.218928	-0.147327
H98	H	1.392467	0.718928	0.352673
H99	H	1.661700	-0.381909	0.000018
H100	H	2.161700	0.118091	0.500018
H101	H	1.121313	0.130299	-0.245654
H102	H	1.621313	0.630299	0.254346
H103	H	1.132923	-0.002574	-0.101092
H104	H	1.632923	0.497426	0.398908
H105	H	1.362173	-0.387215	0.000035
H106	H	1.862173	0.112785	0.500035
H107	H	1.133790	-0.002340	0.101034
H108	H	1.633790	0.497660	0.601034
H109	H	1.343202	-0.483328	0.000013
H110	H	1.843202	0.016672	0.500013
H111	H	1.539380	-0.015754	0.370738
H112	H	2.039380	0.484246	0.870738
H113	H	0.915619	-0.006128	0.101649
H114	H	1.415619	0.493872	0.601649
H115	H	1.676795	0.193323	0.370370
H116	H	2.176795	0.693323	0.870370
H117	H	0.903520	0.125473	-0.246219
H118	H	1.403520	0.625473	0.253781
H119	H	1.119403	0.128406	0.245654
H120	H	1.619403	0.628406	0.745654
H121	H	1.374519	0.019669	0.372961
H122	H	1.874519	0.519669	0.872961
H123	H	1.680669	-0.285790	0.000071
H124	H	2.180669	0.214210	0.500071
H125	H	1.739130	-0.662893	0.000062
H126	H	2.239130	-0.162893	0.500062
H127	H	1.721345	0.090100	0.626988
H128	H	2.221345	0.590100	1.126988
H129	H	1.759406	-0.514827	0.000071
H130	H	2.259406	-0.014827	0.500071
H131	H	1.109733	0.223216	-0.146072
H132	H	1.609733	0.723216	0.353928
H133	H	1.322932	-0.631384	0.000044
H134	H	1.822932	-0.131384	0.500044
H135	H	1.700943	-0.137736	0.000095
H136	H	2.200943	0.362264	0.500095
H137	H	1.264477	-0.254296	0.000021
H138	H	1.764477	0.245704	0.500021
H139	H	1.314790	0.167964	0.372092
H140	H	1.814790	0.667964	0.872092
H141	H	0.914034	-0.005985	-0.099827
H142	H	1.414034	0.494015	0.400173
H143	H	1.314246	0.167898	0.627521
H144	H	1.814246	0.667898	1.127521
H145	H	1.437522	0.239555	0.629319
H146	H	1.937522	0.739555	1.129319
H147	H	1.547671	-0.014028	0.626321
H148	H	2.047671	0.485972	1.126321
H149	H	1.438038	0.240138	0.373088
H150	H	1.938038	0.740138	0.873088
H151	H	1.675791	0.194450	0.625482
H152	H	2.175791	0.694450	1.125482
H153	H	1.721226	0.089051	0.372556
H154	H	2.221226	0.589051	0.872556
H155	H	1.380079	0.015538	0.629105
H156	H	1.880079	0.515538	1.129105
