data_functionalizedCrystal
_audit_creation_method	'MofGen! by Chris Wilmer'
_symmetry_space_group_name_H-M	'P1'
_symmetry_Int_Tables_number	1
_symmetry_cell_setting	triclinic
loop_
_symmetry_equiv_pos_as_xyz
  x,y,z
_cell_length_a	19.805407
_cell_length_b	12.827892
_cell_length_c	19.805399
_cell_angle_alpha	90.022529
_cell_angle_beta	90.019573
_cell_angle_gamma	90.015392
loop_
_atom_site_label
_atom_site_type_symbol
_atom_site_fract_x
_atom_site_fract_y
_atom_site_fract_z
Zn1	Zn	1.034788	-0.416057	0.382743
Zn2	Zn	1.034724	-0.590812	0.269565
Zn3	Zn	0.921602	-0.416086	0.269568
Zn4	Zn	0.921587	-0.590757	0.382712
O5	O	0.978175	-0.503428	0.326147
O6	O	1.129496	-0.439250	0.367742
O7	O	1.019698	-0.567670	0.174849
O8	O	0.936649	-0.269846	0.284595
O9	O	1.129449	-0.567642	0.284590
O10	O	1.019806	-0.269825	0.367745
O11	O	0.936588	-0.439299	0.174851
O12	O	0.826884	-0.439245	0.284565
O13	O	0.936624	-0.567547	0.477433
O14	O	0.826873	-0.567575	0.367691
O15	O	1.019792	-0.439196	0.477456
O16	O	1.019684	-0.737041	0.284560
O17	O	0.936563	-0.737000	0.367688
C18	C	0.802319	-0.503408	0.326125
C19	C	0.727087	-0.503425	0.326132
C20	C	0.691755	-0.570347	0.369346
C21	C	0.621067	-0.570349	0.369355
C22	C	0.585712	-0.503433	0.326147
C23	C	0.621049	-0.436504	0.282931
C24	C	0.691736	-0.436497	0.282926
C25	C	0.335975	-0.436527	0.282954
C26	C	0.265283	-0.436540	0.282961
C27	C	0.265306	-0.570378	0.369383
C28	C	0.335993	-0.570372	0.369378
C29	C	0.371324	-0.503439	0.326165
C30	C	0.447973	-0.503436	0.326156
C31	C	0.509065	-0.503440	0.326152
C32	C	0.978133	-0.774938	0.326135
C33	C	0.978177	-0.891091	0.326153
C34	C	1.019357	-0.942862	0.285064
C35	C	1.019403	-1.062912	0.285081
C36	C	1.154718	-0.503449	0.326169
C37	C	1.229950	-0.503458	0.326179
C38	C	0.978213	-0.503362	0.502690
C39	C	0.978229	-0.503334	0.577922
C40	C	0.978236	-0.230858	0.326174
C41	C	0.978262	-0.114705	0.326185
C42	C	0.978176	-0.503418	0.150291
C43	C	0.978291	-0.503152	0.075060
C44	C	1.021536	-0.436499	0.613279
C45	C	1.021543	-0.436468	0.683968
C46	C	0.978246	-0.503280	0.719298
C47	C	0.934935	-0.570118	0.683935
C48	C	0.934925	-0.570143	0.613248
C49	C	0.934973	-0.570021	0.969009
C50	C	0.934988	-0.569994	1.039701
C51	C	1.021591	-0.436347	1.039728
C52	C	1.021581	-0.436371	0.969041
C53	C	0.978268	-0.503205	0.933685
C54	C	0.978260	-0.503236	0.857037
C55	C	0.978257	-0.503255	0.795945
H56	H	0.592303	-0.624844	0.404544
C57	C	0.227030	-0.642976	0.416420
C58	C	0.244274	-0.620373	0.483410
C59	C	0.209036	-0.687235	0.526755
H60	H	0.179858	-0.633461	0.410331
H61	H	0.238613	-0.713188	0.406476
H62	H	0.232687	-0.550178	0.493350
H63	H	0.291440	-0.629894	0.489520
H64	H	0.220619	-0.757447	0.516812
H65	H	0.161865	-0.677715	0.520660
H66	H	0.220736	-0.671914	0.572212
H67	H	0.720502	-0.381997	0.247740
C68	C	1.068661	-0.363995	0.930642
C69	C	1.112037	-0.423171	0.890068
C70	C	1.155416	-0.356526	0.854691
H71	H	1.042842	-0.318459	0.903016
H72	H	1.094494	-0.324193	0.961798
H73	H	1.086207	-0.462955	0.858915
H74	H	1.137871	-0.468704	0.917677
H75	H	1.181249	-0.316724	0.885847
H76	H	1.129591	-0.310993	0.827069
H77	H	1.184856	-0.396667	0.827162
C78	C	0.887933	-0.642597	0.574735
C79	C	0.897177	-0.628298	0.505269
C80	C	0.853890	-0.695012	0.469772
H81	H	0.897780	-0.712851	0.586231
H82	H	0.842447	-0.627281	0.586274
H83	H	0.942653	-0.643621	0.493735
H84	H	0.887325	-0.558057	0.493753
H85	H	0.808404	-0.679696	0.481311
H86	H	0.863741	-0.765263	0.481273
H87	H	0.860152	-0.685313	0.422635
C88	C	0.374368	-0.363740	0.236148
C89	C	0.414960	-0.296813	0.274542
C90	C	0.450335	-0.229738	0.231446
H91	H	0.401982	-0.403532	0.206598
H92	H	0.343211	-0.323830	0.210424
H93	H	0.446114	-0.336719	0.300254
H94	H	0.387364	-0.256998	0.304090
H95	H	0.419177	-0.189828	0.205723
H96	H	0.477945	-0.269539	0.201899
H97	H	0.477876	-0.184314	0.257491
H98	H	0.236499	-0.382043	0.247776
C99	C	0.931320	-0.950621	0.373118
C100	C	0.969680	-1.013209	0.416498
C101	C	0.926537	-1.068069	0.459768
H102	H	0.905463	-0.902694	0.398959
H103	H	0.901897	-0.993326	0.347199
H104	H	0.999091	-0.970508	0.442415
H105	H	0.995536	-1.061156	0.390676
H106	H	0.897114	-1.110774	0.433848
H107	H	0.900682	-1.020134	0.485604
H108	H	0.952557	-1.110549	0.489202
H109	H	1.056856	-0.381923	1.068524
H110	H	1.054581	-0.898310	0.249875
C111	C	0.887899	-0.642570	1.077939
C112	C	0.849951	-0.701086	1.031847
C113	C	0.806563	-0.767940	1.067047
H114	H	0.913708	-0.688192	1.105516
H115	H	0.858390	-0.602598	1.105499
H116	H	0.879457	-0.741055	1.004298
H117	H	0.824128	-0.655492	1.004269
H118	H	0.777054	-0.727968	1.094607
H119	H	0.832378	-0.813555	1.094622
H120	H	0.780806	-0.807644	1.035779
C121	C	1.066414	-1.122455	0.238270
C122	C	1.057145	-1.229688	0.247626
C123	C	1.100458	-1.284573	0.204531
H124	H	1.056606	-1.104820	0.192735
H125	H	1.111895	-1.104590	0.248237
H126	H	1.011674	-1.247546	0.237654
H127	H	1.066957	-1.247354	0.293152
H128	H	1.145940	-1.266708	0.214498
H129	H	1.090648	-1.266930	0.158999
H130	H	1.094180	-1.357337	0.210878
H131	H	0.899680	-0.624514	0.712707
C132	C	0.888057	-0.642651	0.930550
C133	C	0.926348	-0.709642	0.889953
C134	C	0.883148	-0.776558	0.854509
H135	H	0.862264	-0.682531	0.961646
H136	H	0.858576	-0.602714	0.902937
H137	H	0.955817	-0.749576	0.917563
H138	H	0.952140	-0.669791	0.858844
H139	H	0.853667	-0.736621	0.826896
H140	H	0.857357	-0.816431	0.885609
H141	H	0.909122	-0.822014	0.826955
C142	C	0.582750	-0.363911	0.235910
C143	C	0.599926	-0.386507	0.168916
C144	C	0.564666	-0.319648	0.125580
H145	H	0.535580	-0.373435	0.242010
H146	H	0.594361	-0.293698	0.245853
H147	H	0.588310	-0.456703	0.158976
H148	H	0.647089	-0.376976	0.162795
H149	H	0.576277	-0.249435	0.135523
H150	H	0.517498	-0.329177	0.131686
H151	H	0.576320	-0.334963	0.080120
C152	C	0.374415	-0.643148	0.416179
C153	C	0.414960	-0.710066	0.377780
C154	C	0.450356	-0.777127	0.420873
H155	H	0.402062	-0.603346	0.445723
H156	H	0.343270	-0.683066	0.441908
H157	H	0.446102	-0.670152	0.352063
H158	H	0.387330	-0.749891	0.348238
H159	H	0.419211	-0.817045	0.446602
H160	H	0.477999	-0.737316	0.450415
H161	H	0.477865	-0.822544	0.394826
H162	H	1.056795	-0.382096	0.584519
H163	H	0.943002	-1.070191	0.361363
C164	C	1.068639	-0.363868	0.722234
C165	C	1.106570	-0.305388	0.676164
C166	C	1.149970	-0.238505	0.711389
H167	H	1.042840	-0.318225	0.749810
H168	H	1.098159	-0.403817	0.749796
H169	H	1.077054	-0.265442	0.648613
H170	H	1.132383	-0.351004	0.648586
H171	H	1.179490	-0.278455	0.738952
H172	H	1.124166	-0.192869	0.738965
H173	H	1.175716	-0.198826	0.680136
H174	H	0.720536	-0.624841	0.404529
