data_functionalizedCrystal
_audit_creation_method	'MofGen! by Chris Wilmer'
_symmetry_space_group_name_H-M	'P1'
_symmetry_Int_Tables_number	1
_symmetry_cell_setting	triclinic
loop_
_symmetry_equiv_pos_as_xyz
  x,y,z
_cell_length_a	15.944551
_cell_length_b	17.699083
_cell_length_c	16.176319
_cell_angle_alpha	90.001389
_cell_angle_beta	89.992246
_cell_angle_gamma	96.609123
loop_
_atom_site_label
_atom_site_type_symbol
_atom_site_fract_x
_atom_site_fract_y
_atom_site_fract_z
O1	O	0.106222	-1.004260	-0.068632
O2	O	0.439555	-0.670927	0.264701
O3	O	0.772889	-0.337594	0.598034
O4	O	0.120042	-0.783905	-0.068660
O5	O	0.453375	-0.450572	0.264674
O6	O	0.786708	-0.117239	0.598007
O7	O	-0.009156	-0.900100	-0.068638
O8	O	0.324178	-0.566767	0.264695
O9	O	0.657511	-0.233434	0.598029
O10	O	0.235419	-0.888065	-0.068654
O11	O	0.568753	-0.554732	0.264679
O12	O	0.902086	-0.221399	0.598012
O13	O	-0.009164	-0.900084	0.068855
O14	O	0.324169	-0.566751	0.402189
O15	O	0.657503	-0.233418	0.735522
O16	O	0.120033	-0.783889	0.068833
O17	O	0.453367	-0.450556	0.402167
O18	O	0.786700	-0.117223	0.735500
O19	O	0.106214	-1.004244	0.068861
O20	O	0.439547	-0.670911	0.402194
O21	O	0.772880	-0.337578	0.735527
Cu22	Cu	0.113123	-0.894065	0.081401
Cu23	Cu	0.446456	-0.560732	0.414735
Cu24	Cu	0.779790	-0.227399	0.748068
Cu25	Cu	0.113133	-0.894084	-0.081200
Cu26	Cu	0.446466	-0.560751	0.252133
Cu27	Cu	0.779799	-0.227418	0.585466
O28	O	0.235411	-0.888049	0.068839
O29	O	0.568744	-0.554716	0.402172
O30	O	0.902078	-0.221383	0.735506
C31	C	0.119542	-0.755700	0.000083
C32	C	0.452876	-0.422366	0.333417
C33	C	0.786209	-0.089033	0.666750
C34	C	0.118057	-0.671679	0.000073
C35	C	0.451390	-0.338346	0.333407
C36	C	0.784723	-0.005012	0.666740
C37	C	-0.040453	-0.899593	0.000109
C38	C	0.292881	-0.566259	0.333442
C39	C	0.626214	-0.232926	0.666775
C40	C	-0.133696	-0.898095	0.000109
C41	C	0.199638	-0.564761	0.333442
C42	C	0.532971	-0.231428	0.666776
N43	N	0.113116	-0.894058	0.195767
N44	N	0.446449	-0.560724	0.529100
N45	N	0.779782	-0.227391	0.862433
C46	C	-0.348393	-0.822492	0.000088
C47	C	-0.015060	-0.489158	0.333422
C48	C	0.318273	-0.155825	0.666755
C49	C	-0.409488	-0.857591	0.067885
C50	C	-0.076155	-0.524258	0.401218
C51	C	0.257178	-0.190925	0.734552
C52	C	-0.304416	-0.895385	0.000102
C53	C	0.028918	-0.562052	0.333436
C54	C	0.362251	-0.228718	0.666769
C55	C	-0.409464	-0.857624	-0.067672
C56	C	-0.076130	-0.524291	0.265661
C57	C	0.257203	-0.190958	0.598994
C58	C	-0.469323	-0.892762	0.000092
C59	C	-0.135990	-0.559429	0.333426
C60	C	0.197344	-0.226096	0.666759
C61	C	-0.364283	-0.930505	0.067955
C62	C	-0.030949	-0.597171	0.401289
C63	C	0.302384	-0.263838	0.734622
C64	C	-0.364252	-0.930527	-0.067663
C65	C	-0.030918	-0.597194	0.265670
C66	C	0.302415	-0.263861	0.599003
C67	C	-0.425329	-0.965680	0.000150
C68	C	-0.091996	-0.632347	0.333483
C69	C	0.241337	-0.299014	0.666817
C70	C	-0.209417	-0.896894	0.000109
C71	C	0.123917	-0.563561	0.333442
C72	C	0.457250	-0.230227	0.666776
C73	C	-0.564321	-0.891259	0.000092
C74	C	-0.230988	-0.557926	0.333425
C75	C	0.102346	-0.224592	0.666758
C76	C	0.266708	-0.888557	0.000090
C77	C	0.600041	-0.555224	0.333424
C78	C	0.933375	-0.221890	0.666757
C79	C	0.359951	-0.890055	0.000085
C80	C	0.693284	-0.556721	0.333418
C81	C	1.026618	-0.223388	0.666751
C82	C	0.106713	-1.032450	0.000116
C83	C	0.440046	-0.699117	0.333449
C84	C	0.773380	-0.365783	0.666782
C85	C	0.108199	-1.116471	0.000121
C86	C	0.441532	-0.783137	0.333454
C87	C	0.774865	-0.449804	0.666787
C88	C	0.193893	-0.623187	0.000068
C89	C	0.527226	-0.289854	0.333402
C90	C	0.860560	0.043479	0.666735
C91	C	0.192492	-0.544242	0.000079
C92	C	0.525825	-0.210908	0.333413
C93	C	0.859159	0.122425	0.666746
C94	C	0.115254	-0.513789	0.000089
C95	C	0.448588	-0.180456	0.333422
C96	C	0.781921	0.152878	0.666756
C97	C	0.039412	-0.562287	0.000096
C98	C	0.372746	-0.228953	0.333430
C99	C	0.706079	0.104380	0.666763
C100	C	0.040814	-0.641231	0.000091
C101	C	0.374147	-0.307898	0.333425
C102	C	0.707481	0.025436	0.666758
C103	C	0.033758	-0.243914	0.000117
C104	C	0.367091	0.089419	0.333450
C105	C	0.700424	0.422753	0.666784
C106	C	0.032362	-0.164964	0.000119
C107	C	0.365695	0.168370	0.333453
C108	C	0.699028	0.501703	0.666786
C109	C	0.185436	-0.146925	0.000105
C110	C	0.518769	0.186408	0.333438
C111	C	0.852102	0.519742	0.666772
C112	C	0.186837	-0.225869	0.000100
C113	C	0.520171	0.107464	0.333433
C114	C	0.853504	0.440798	0.666767
C115	C	0.110996	-0.274360	0.000112
C116	C	0.444329	0.058974	0.333445
C117	C	0.777663	0.392307	0.666778
C118	C	0.112516	-0.359962	0.000102
C119	C	0.445849	-0.026628	0.333435
C120	C	0.779182	0.306705	0.666768
C121	C	0.113733	-0.428189	0.000093
C122	C	0.447067	-0.094855	0.333427
C123	C	0.780400	0.238478	0.666760
N124	N	0.113133	-0.894098	-0.195565
N125	N	0.446467	-0.560765	0.137768
N126	N	0.779800	-0.227431	0.471101
C127	C	0.055930	-0.945524	0.239040
C128	C	0.389264	-0.612191	0.572374
C129	C	0.722597	-0.278857	0.905707
C130	C	0.055929	-0.945528	0.325588
C131	C	0.389263	-0.612195	0.658921
C132	C	0.722596	-0.278861	0.992254
C133	C	0.113118	-0.894068	0.368859
C134	C	0.446452	-0.560735	0.702192
C135	C	0.779785	-0.227402	1.035526
C136	C	0.170306	-0.842596	0.325579
C137	C	0.503640	-0.509263	0.658913
C138	C	0.836973	-0.175930	0.992246
C139	C	0.170303	-0.842589	0.239034
C140	C	0.503636	-0.509256	0.572367
C141	C	0.836969	-0.175923	0.905700
C142	C	0.170322	-0.842622	0.674608
C143	C	0.503655	-0.509289	1.007941
C144	C	0.836989	-0.175955	1.341274
C145	C	0.170323	-0.842634	0.761159
C146	C	0.503657	-0.509301	1.094492
C147	C	0.836990	-0.175968	1.427826
C148	C	0.055949	-0.945561	0.761161
C149	C	0.389282	-0.612227	1.094495
C150	C	0.722616	-0.278894	1.427828
C151	C	0.055945	-0.945554	0.674616
C152	C	0.389278	-0.612221	1.007949
C153	C	0.722612	-0.278887	1.341282
C154	C	0.113130	-0.894080	0.631343
C155	C	0.446463	-0.560746	0.964677
C156	C	0.779796	-0.227413	1.298010
C157	C	0.113129	-0.894075	0.537499
C158	C	0.446462	-0.560742	0.870833
C159	C	0.779796	-0.227408	1.204166
C160	C	0.113124	-0.894076	0.462702
C161	C	0.446457	-0.560742	0.796035
C162	C	0.779791	-0.227409	1.129368
H163	H	-0.314958	-0.761987	0.000149
H164	H	0.018375	-0.428653	0.333482
H165	H	0.351708	-0.095320	0.666815
H166	H	-0.344183	-0.961339	-0.124975
H167	H	-0.010849	-0.628005	0.208358
H168	H	0.322484	-0.294672	0.541691
H169	H	-0.429535	-0.826754	0.125194
H170	H	-0.096202	-0.493420	0.458528
H171	H	0.237131	-0.160087	0.791861
H172	H	0.009379	-0.987460	0.639387
H173	H	0.342713	-0.654126	0.972720
H174	H	0.676046	-0.320793	1.306053
H175	H	0.009383	-0.987472	0.796403
H176	H	0.342717	-0.654139	1.129736
H177	H	0.676050	-0.320805	1.463070
H178	H	-0.030538	-0.140173	0.000128
H179	H	0.302795	0.193161	0.333462
H180	H	0.636128	0.526494	0.666795
H181	H	0.216885	-0.800711	0.639382
H182	H	0.550219	-0.467378	0.972715
H183	H	0.883552	-0.134045	1.306049
H184	H	0.216868	-0.800693	0.360816
H185	H	0.550201	-0.467360	0.694149
H186	H	0.883535	-0.134026	1.027483
H187	H	0.256789	-0.647975	0.000060
H188	H	0.590122	-0.314642	0.333393
H189	H	0.923456	0.018691	0.666727
H190	H	0.254246	-0.504763	0.000074
H191	H	0.587579	-0.171429	0.333408
H192	H	0.920912	0.161904	0.666741
H193	H	0.009364	-0.987435	0.360821
H194	H	0.342698	-0.654102	0.694154
H195	H	0.676031	-0.320769	1.027487
H196	H	-0.458615	-1.026238	0.000196
H197	H	-0.125282	-0.692905	0.333529
H198	H	0.208051	-0.359571	0.666863
H199	H	-0.020940	-0.680713	0.000095
H200	H	0.312394	-0.347379	0.333428
H201	H	0.645727	-0.014046	0.666761
H202	H	0.216895	-0.800727	0.796389
H203	H	0.550228	-0.467394	1.129723
H204	H	0.883562	-0.134060	1.463056
H205	H	0.216868	-0.800679	0.203801
H206	H	0.550201	-0.467346	0.537134
H207	H	0.883534	-0.134012	0.870468
H208	H	0.249732	-0.250659	0.000088
H209	H	0.583066	0.082675	0.333422
H210	H	0.916399	0.416008	0.666755
H211	H	-0.023476	-0.537486	0.000116
H212	H	0.309857	-0.204153	0.333449
H213	H	0.643190	0.129181	0.666783
H214	H	0.247189	-0.107434	0.000100
H215	H	0.580523	0.225900	0.333433
H216	H	0.913856	0.559233	0.666767
H217	H	-0.429472	-0.826790	-0.124993
H218	H	-0.096139	-0.493457	0.208340
H219	H	0.237194	-0.160124	0.541673
H220	H	-0.344360	-0.961303	0.125335
H221	H	-0.011027	-0.627970	0.458668
H222	H	0.322306	-0.294636	0.792002
H223	H	-0.027997	-0.283386	0.000127
H224	H	0.305336	0.049947	0.333461
H225	H	0.638669	0.383280	0.666794
H226	H	0.009364	-0.987432	0.203814
H227	H	0.342697	-0.654098	0.537148
H228	H	0.676031	-0.320765	0.870481
