data_functionalizedCrystal
_audit_creation_method	'MofGen! by Chris Wilmer'
_symmetry_space_group_name_H-M	'P1'
_symmetry_Int_Tables_number	1
_symmetry_cell_setting	triclinic
loop_
_symmetry_equiv_pos_as_xyz
  x,y,z
_cell_length_a	13.897448
_cell_length_b	13.897449
_cell_length_c	19.805399
_cell_angle_alpha	90.022808
_cell_angle_beta	89.974981
_cell_angle_gamma	89.982380
loop_
_atom_site_label
_atom_site_type_symbol
_atom_site_fract_x
_atom_site_fract_y
_atom_site_fract_z
Zn1	Zn	-0.384039	-1.474672	-0.382790
Zn2	Zn	-0.134039	-1.224672	-0.132790
Zn3	Zn	0.115961	-0.974672	0.117210
Zn4	Zn	0.365961	-0.724672	0.367210
Zn5	Zn	-0.545345	-1.474575	-0.269607
Zn6	Zn	-0.295345	-1.224575	-0.019607
Zn7	Zn	-0.045345	-0.974575	0.230393
Zn8	Zn	0.204655	-0.724575	0.480393
Zn9	Zn	-0.384065	-1.313370	-0.269608
Zn10	Zn	-0.134065	-1.063370	-0.019608
Zn11	Zn	0.115935	-0.813370	0.230392
Zn12	Zn	0.365935	-0.563370	0.480392
Zn13	Zn	-0.545294	-1.313342	-0.382747
Zn14	Zn	-0.295294	-1.063342	-0.132747
Zn15	Zn	-0.045294	-0.813342	0.117253
Zn16	Zn	0.204706	-0.563342	0.367253
O17	O	-0.464686	-1.393990	-0.326188
O18	O	-0.214686	-1.143990	-0.076188
O19	O	0.035314	-0.893990	0.173812
O20	O	0.285314	-0.643990	0.423812
O21	O	-0.405447	-1.609640	-0.367793
O22	O	-0.155447	-1.359640	-0.117793
O23	O	0.094553	-1.109640	0.132207
O24	O	0.344553	-0.859640	0.382207
O25	O	-0.523984	-1.453162	-0.174891
O26	O	-0.273984	-1.203162	0.075109
O27	O	-0.023984	-0.953162	0.325109
O28	O	0.226016	-0.703162	0.575109
O29	O	-0.249080	-1.334819	-0.284641
O30	O	0.000920	-1.084819	-0.034641
O31	O	0.250920	-0.834819	0.215359
O32	O	0.500920	-0.584819	0.465359
O33	O	-0.523958	-1.609569	-0.284638
O34	O	-0.273958	-1.359569	-0.034638
O35	O	-0.023958	-1.109569	0.215362
O36	O	0.226042	-0.859569	0.465362
O37	O	-0.249061	-1.453327	-0.367795
O38	O	0.000939	-1.203327	-0.117795
O39	O	0.250939	-0.953327	0.132205
O40	O	0.500939	-0.703327	0.382205
O41	O	-0.405492	-1.334725	-0.174892
O42	O	-0.155492	-1.084725	0.075108
O43	O	0.094508	-0.834725	0.325108
O44	O	0.344508	-0.584725	0.575108
O45	O	-0.405442	-1.178385	-0.284599
O46	O	-0.155442	-0.928385	-0.034599
O47	O	0.094558	-0.678385	0.215401
O48	O	0.344558	-0.428385	0.465401
O49	O	-0.523870	-1.334772	-0.477470
O50	O	-0.273870	-1.084772	-0.227470
O51	O	-0.023870	-0.834772	0.022530
O52	O	0.226130	-0.584772	0.272530
O53	O	-0.523896	-1.178364	-0.367722
O54	O	-0.273896	-0.928364	-0.117722
O55	O	-0.023896	-0.678364	0.132278
O56	O	0.226104	-0.428364	0.382278
O57	O	-0.405397	-1.453300	-0.477501
O58	O	-0.155397	-1.203300	-0.227501
O59	O	0.094603	-0.953300	0.022499
O60	O	0.344603	-0.703300	0.272499
O61	O	-0.680320	-1.453135	-0.284597
O62	O	-0.430320	-1.203135	-0.034597
O63	O	-0.180320	-0.953135	0.215403
O64	O	0.069680	-0.703135	0.465403
O65	O	-0.680282	-1.334678	-0.367720
O66	O	-0.430282	-1.084678	-0.117720
O67	O	-0.180282	-0.834678	0.132280
O68	O	0.069718	-0.584678	0.382280
C69	C	-0.464667	-1.143375	-0.326156
C70	C	-0.214667	-0.893375	-0.076156
C71	C	0.035333	-0.643375	0.173844
C72	C	0.285333	-0.393375	0.423844
C73	C	-0.464682	-1.036161	-0.326159
C74	C	-0.214682	-0.786161	-0.076159
C75	C	0.035318	-0.536161	0.173841
C76	C	0.285318	-0.286161	0.423841
C77	C	-0.464684	-0.949092	-0.326167
C78	C	-0.214684	-0.699092	-0.076167
C79	C	0.035316	-0.449092	0.173833
C80	C	0.285316	-0.199092	0.423833
C81	C	-0.464689	-0.839859	-0.326184
C82	C	-0.214689	-0.589859	-0.076184
C83	C	0.035311	-0.339859	0.173816
C84	C	0.285311	-0.089859	0.423816
C85	C	-0.715300	-1.393919	-0.326169
C86	C	-0.465300	-1.143919	-0.076169
C87	C	-0.215300	-0.893919	0.173831
C88	C	0.034700	-0.643919	0.423831
C89	C	-0.822514	-1.393977	-0.326183
C90	C	-0.572514	-1.143977	-0.076183
C91	C	-0.322514	-0.893977	0.173817
C92	C	-0.072514	-0.643977	0.423817
C93	C	-1.018809	-1.394079	-0.326225
C94	C	-0.768809	-1.144079	-0.076225
C95	C	-0.518809	-0.894079	0.173775
C96	C	-0.268809	-0.644079	0.423775
C97	C	-0.909577	-1.394020	-0.326204
C98	C	-0.659577	-1.144020	-0.076204
C99	C	-0.409577	-0.894020	0.173796
C100	C	-0.159577	-0.644020	0.423796
C101	C	-0.213093	-1.394087	-0.326223
C102	C	0.036907	-1.144087	-0.076223
C103	C	0.286907	-0.894087	0.173777
C104	C	0.536907	-0.644087	0.423777
C105	C	-0.105879	-1.394128	-0.326237
C106	C	0.144121	-1.144128	-0.076237
C107	C	0.394121	-0.894128	0.173763
C108	C	0.644121	-0.644128	0.423763
C109	C	-0.464625	-1.394044	-0.502731
C110	C	-0.214625	-1.144044	-0.252731
C111	C	0.035375	-0.894044	-0.002731
C112	C	0.285375	-0.644044	0.247269
C113	C	-0.464599	-1.394067	-0.577963
C114	C	-0.214599	-1.144067	-0.327963
C115	C	0.035401	-0.894067	-0.077963
C116	C	0.285401	-0.644067	0.172037
C117	C	-0.464701	-0.645583	-0.326212
C118	C	-0.214701	-0.395583	-0.076212
C119	C	0.035299	-0.145583	0.173788
C120	C	0.285299	0.104417	0.423788
C121	C	-0.464698	-0.752797	-0.326202
C122	C	-0.214698	-0.502797	-0.076202
C123	C	0.035302	-0.252797	0.173798
C124	C	0.285302	-0.002797	0.423798
C125	C	-0.402907	-1.455786	-0.613325
C126	C	-0.152907	-1.205786	-0.363325
C127	C	0.097093	-0.955786	-0.113325
C128	C	0.347093	-0.705786	0.136675
C129	C	-0.402879	-1.455796	-0.684013
C130	C	-0.152879	-1.205796	-0.434013
C131	C	0.097121	-0.955796	-0.184013
C132	C	0.347121	-0.705796	0.065987
C133	C	-0.464549	-1.394091	-0.719339
C134	C	-0.214549	-1.144091	-0.469339
C135	C	0.035451	-0.894091	-0.219339
C136	C	0.285451	-0.644091	0.030661
C137	C	-0.526243	-1.332365	-0.683972
C138	C	-0.276243	-1.082365	-0.433972
C139	C	-0.026243	-0.832365	-0.183972
C140	C	0.223757	-0.582365	0.066028
C141	C	-0.526266	-1.332351	-0.613285
C142	C	-0.276266	-1.082351	-0.363285
C143	C	-0.026266	-0.832351	-0.113285
C144	C	0.223734	-0.582351	0.136715
C145	C	-0.526154	-1.332420	-0.969046
C146	C	-0.276154	-1.082420	-0.719046
C147	C	-0.026154	-0.832420	-0.469046
C148	C	0.223846	-0.582420	-0.219046
C149	C	-0.526128	-1.332440	-1.039738
C150	C	-0.276128	-1.082440	-0.789738
C151	C	-0.026128	-0.832440	-0.539738
C152	C	0.223872	-0.582440	-0.289738
C153	C	-0.402767	-1.455864	-1.039774
C154	C	-0.152767	-1.205864	-0.789774
C155	C	0.097233	-0.955864	-0.539774
C156	C	0.347233	-0.705864	-0.289774
C157	C	-0.402789	-1.455850	-0.969087
C158	C	-0.152789	-1.205850	-0.719087
C159	C	0.097211	-0.955850	-0.469087
C160	C	0.347211	-0.705850	-0.219087
C161	C	-0.464480	-1.394121	-0.933726
C162	C	-0.214480	-1.144121	-0.683726
C163	C	0.035520	-0.894121	-0.433726
C164	C	0.285520	-0.644121	-0.183726
C165	C	-0.464508	-1.394110	-0.857078
C166	C	-0.214508	-1.144110	-0.607078
C167	C	0.035492	-0.894110	-0.357078
C168	C	0.285492	-0.644110	-0.107078
C169	C	-0.464526	-1.394106	-0.795986
C170	C	-0.214526	-1.144106	-0.545986
C171	C	0.035474	-0.894106	-0.295986
C172	C	0.285474	-0.644106	-0.045986
C173	C	-0.464677	-1.393991	-0.150332
C174	C	-0.214677	-1.143991	0.099668
C175	C	0.035323	-0.893991	0.349668
C176	C	0.285323	-0.643991	0.599668
C177	C	-0.464431	-1.394155	-0.075101
C178	C	-0.214431	-1.144155	0.174899
C179	C	0.035569	-0.894155	0.424899
C180	C	0.285569	-0.644155	0.674899
H181	H	-0.352692	-1.506036	-0.584568
H182	H	-0.102692	-1.256036	-0.334568
H183	H	0.147308	-1.006036	-0.084568
H184	H	0.397308	-0.756036	0.165432
Br185	Br	-0.609830	-1.248694	-1.087680
Br186	Br	-0.359830	-0.998694	-0.837680
Br187	Br	-0.109830	-0.748694	-0.587680
Br188	Br	0.140170	-0.498694	-0.337680
Br189	Br	-0.319196	-1.539605	-0.732002
Br190	Br	-0.069196	-1.289605	-0.482002
Br191	Br	0.180804	-1.039605	-0.232002
Br192	Br	0.430804	-0.789605	0.017998
Br193	Br	-0.319097	-1.539600	-0.921148
Br194	Br	-0.069097	-1.289600	-0.671148
Br195	Br	0.180903	-1.039600	-0.421148
Br196	Br	0.430903	-0.789600	-0.171148
H197	H	-0.576492	-1.282084	-0.584494
H198	H	-0.326492	-1.032084	-0.334494
H199	H	-0.076492	-0.782084	-0.084494
H200	H	0.173508	-0.532084	0.165506
H201	H	-0.576400	-1.282170	-0.940264
H202	H	-0.326400	-1.032170	-0.690264
H203	H	-0.076400	-0.782170	-0.440264
H204	H	0.173600	-0.532170	-0.190264
H205	H	-0.576452	-1.282121	-0.712740
H206	H	-0.326452	-1.032121	-0.462740
H207	H	-0.076452	-0.782121	-0.212740
H208	H	0.173548	-0.532121	0.037260
H209	H	-0.352532	-1.506123	-1.068573
H210	H	-0.102532	-1.256123	-0.818573
H211	H	0.147468	-1.006123	-0.568573
H212	H	0.397468	-0.756123	-0.318573
