data_functionalizedCrystal
_audit_creation_method	'MofGen! by Chris Wilmer'
_symmetry_space_group_name_H-M	'P1'
_symmetry_Int_Tables_number	1
_symmetry_cell_setting	triclinic
loop_
_symmetry_equiv_pos_as_xyz
  x,y,z
_cell_length_a	9.065218
_cell_length_b	16.109304
_cell_length_c	15.186229
_cell_angle_alpha	89.997472
_cell_angle_beta	90.005739
_cell_angle_gamma	84.239262
loop_
_atom_site_label
_atom_site_type_symbol
_atom_site_fract_x
_atom_site_fract_y
_atom_site_fract_z
O1	O	1.957458	0.121901	0.073225
O2	O	2.457458	0.621901	0.573225
O3	O	1.527931	0.131900	0.073225
O4	O	2.027931	0.631900	0.573225
O5	O	1.754492	0.005960	0.073225
O6	O	2.254492	0.505960	0.573225
O7	O	1.730897	0.247840	0.073225
O8	O	2.230897	0.747840	0.573225
O9	O	1.754465	0.005967	-0.073232
O10	O	2.254465	0.505967	0.426768
O11	O	1.527904	0.131907	-0.073232
O12	O	2.027904	0.631907	0.426768
O13	O	1.957431	0.121908	-0.073233
O14	O	2.457431	0.621908	0.426767
Zn15	Zn	1.742664	0.126908	-0.096486
Zn16	Zn	2.242664	0.626908	0.403514
Zn17	Zn	1.742699	0.126899	0.096478
Zn18	Zn	2.242699	0.626899	0.596478
O19	O	1.730870	0.247847	-0.073233
O20	O	2.230870	0.747847	0.426767
C21	C	1.472954	0.130942	-0.000003
C22	C	1.972954	0.630942	0.499997
C23	C	1.309181	0.128069	-0.000003
C24	C	1.809181	0.628069	0.499997
C25	C	1.753522	-0.025019	-0.000001
C26	C	2.253522	0.474981	0.499999
C27	C	1.750654	-0.117336	0.000005
C28	C	2.250654	0.382664	0.500005
C29	C	1.744044	-0.329728	0.079835
C30	C	2.244044	0.170272	0.579835
C31	C	1.741336	-0.416469	0.079835
C32	C	2.241336	0.083531	0.579835
C33	C	1.741314	-0.416458	-0.079841
C34	C	2.241314	0.083542	0.420159
C35	C	1.744011	-0.329718	-0.079839
C36	C	2.244011	0.170282	0.420161
C37	C	1.745384	-0.286356	0.000001
C38	C	2.245384	0.213644	0.500001
C39	C	1.739978	-0.459837	-0.000001
C40	C	2.239978	0.040163	0.499999
C41	C	1.737042	-0.553885	-0.000003
C42	C	2.237042	-0.053885	0.499997
C43	C	1.748317	-0.192301	0.000003
C44	C	2.248317	0.307699	0.500003
C45	C	2.012408	0.122865	-0.000002
C46	C	2.512408	0.622865	0.499998
C47	C	2.176181	0.125739	0.000003
C48	C	2.676181	0.625739	0.500003
C49	C	1.731840	0.278826	-0.000004
C50	C	2.231840	0.778826	0.499996
C51	C	1.734708	0.371143	-0.000004
C52	C	2.234708	0.871143	0.499996
N53	N	1.742650	0.126914	-0.228178
N54	N	2.242650	0.626914	0.271822
C55	C	1.832126	0.178030	-0.453901
C56	C	2.332126	0.678030	0.046099
C57	C	1.832142	0.178024	-0.546091
C58	C	2.332142	0.678024	-0.046091
C59	C	1.653244	0.075765	-0.546099
C60	C	2.153244	0.575765	-0.046099
C61	C	1.653237	0.075767	-0.453912
C62	C	2.153237	0.575767	0.046088
C63	C	1.742675	0.126904	-0.407815
C64	C	2.242675	0.626904	0.092185
C65	C	1.742699	0.126897	-0.592192
C66	C	2.242699	0.626897	-0.092192
C67	C	1.742715	0.126890	-0.692149
C68	C	2.242715	0.626890	-0.192149
C69	C	1.742661	0.126910	-0.307852
C70	C	2.242661	0.626910	0.192148
N71	N	1.742723	0.126887	0.228171
N72	N	2.242723	0.626887	0.728171
H73	H	1.745157	-0.294425	0.144847
H74	H	2.245157	0.205575	0.644847
C75	C	1.745484	-0.282006	-0.167668
C76	C	2.245484	0.217994	0.332332
N77	N	1.746589	-0.246069	-0.233817
N78	N	2.246589	0.253931	0.266183
H79	H	1.904983	0.219654	-0.583611
H80	H	2.404983	0.719654	-0.083611
H81	H	1.904952	0.219669	-0.416372
H82	H	2.404952	0.719669	0.083628
C83	C	1.554852	0.019526	-0.596814
C84	C	2.054852	0.519526	-0.096814
N85	N	1.480735	-0.022831	-0.635012
N86	N	1.980735	0.477169	-0.135012
H87	H	1.740241	-0.451778	0.144843
H88	H	2.240241	0.048222	0.644843
C89	C	1.739810	-0.464165	-0.167661
C90	C	2.239810	0.035835	0.332339
N91	N	1.738681	-0.500098	-0.233810
N92	N	2.238681	-0.000098	0.266190
H93	H	1.580395	0.034131	-0.416387
H94	H	2.080395	0.534131	0.083613
