data_functionalizedCrystal
_audit_creation_method	'MofGen! by Chris Wilmer'
_symmetry_space_group_name_H-M	'P1'
_symmetry_Int_Tables_number	1
_symmetry_cell_setting	triclinic
loop_
_symmetry_equiv_pos_as_xyz
  x,y,z
_cell_length_a	23.532407
_cell_length_b	15.021413
_cell_length_c	15.944545
_cell_angle_alpha	89.989346
_cell_angle_beta	83.172425
_cell_angle_gamma	90.000307
loop_
_atom_site_label
_atom_site_type_symbol
_atom_site_fract_x
_atom_site_fract_y
_atom_site_fract_z
O1	O	0.755653	-0.073925	0.101969
O2	O	0.589847	-0.073952	0.116723
O3	O	0.677279	-0.073927	-0.012967
O4	O	0.668220	-0.073950	0.231659
O5	O	0.677272	0.074137	-0.012980
O6	O	0.589839	0.074112	0.116710
O7	O	0.755645	0.074139	0.101956
Zn8	Zn	0.672741	0.097634	0.109331
Zn9	Zn	0.672751	-0.097447	0.109348
O10	O	0.668212	0.074114	0.231646
C11	C	0.568625	0.000077	0.116341
C12	C	0.505404	0.000067	0.115211
C13	C	0.676900	0.000106	-0.044265
C14	C	0.675775	0.000108	-0.137502
N15	N	0.672738	0.230772	0.109318
C16	C	0.106570	0.000101	0.184874
C17	C	0.047165	0.000107	0.183825
O18	O	0.010670	0.000133	0.248403
N19	N	0.024242	0.000112	0.106724
C20	C	0.060726	0.000121	0.030668
O21	O	0.035773	0.000128	-0.035009
C22	C	0.120129	0.000122	0.031718
C23	C	0.143049	0.000108	0.108824
C24	C	0.129490	0.000087	0.261974
C25	C	0.188890	0.000080	0.263022
C26	C	0.225370	0.000087	0.186972
C27	C	0.202449	0.000100	0.109873
C28	C	0.156612	0.000138	-0.044338
C29	C	0.216018	0.000139	-0.043281
C30	C	0.238939	0.000125	0.033825
C31	C	0.298329	0.000100	0.034871
N32	N	0.321253	0.000094	0.111972
C33	C	0.284773	0.000088	0.188022
C34	C	-0.064025	0.000121	0.028468
C35	C	-0.123427	0.000114	0.027417
C36	C	-0.136984	0.000101	0.180574
C37	C	-0.077581	0.000102	0.181625
C38	C	-0.041102	0.000116	0.105569
C39	C	0.409518	0.000072	0.190219
C40	C	0.468924	0.000061	0.191261
C41	C	0.482476	0.000079	0.038105
C42	C	0.423075	0.000085	0.037062
C43	C	0.386597	0.000084	0.113126
O44	O	0.334859	0.000077	-0.029674
O45	O	0.309734	0.000093	0.253688
C46	C	0.776867	0.000108	0.102338
C47	C	0.840088	0.000112	0.103468
N48	N	0.672758	-0.230584	0.109354
C49	C	0.712864	0.529774	0.048879
C50	C	0.724381	0.470403	0.124452
C51	C	0.672752	0.587809	0.109344
C52	C	0.661256	0.470439	0.033759
C53	C	0.672747	0.412385	0.109327
C54	C	0.684294	0.529744	0.184955
C55	C	0.621146	0.529784	0.094213
C56	C	0.632641	0.470440	0.169842
C57	C	0.672756	0.688866	0.109352
C58	C	0.672742	0.311329	0.109327
C59	C	0.618216	0.000081	-0.407649
C60	C	0.645970	-0.072919	-0.357291
C61	C	0.671760	0.000082	-0.473112
C62	C	0.645977	0.073061	-0.357331
C63	C	0.673730	0.000096	-0.308215
C64	C	0.699500	-0.072977	-0.423982
C65	C	0.699499	0.073068	-0.424025
C66	C	0.727292	0.000051	-0.373700
C67	C	0.670624	0.000073	-0.568104
C68	C	0.674870	0.000099	-0.213225
C69	C	0.668592	0.000080	0.262944
C70	C	0.669717	0.000071	0.356181
H71	H	0.487582	0.000048	0.254053
H72	H	0.572103	0.000002	-0.422913
H73	H	0.722099	-0.134761	-0.452973
H74	H	0.722089	0.134793	-0.453171
C75	C	0.369401	0.000059	0.273888
H76	H	0.391567	0.000041	0.319950
H77	H	0.345945	0.051691	0.276672
H78	H	0.345948	-0.051582	0.276664
H79	H	0.773441	0.000017	-0.358598
C80	C	0.615439	-0.156322	-0.317967
H81	H	0.641610	-0.190697	-0.290453
H82	H	0.584224	-0.138815	-0.278069
H83	H	0.601653	-0.190924	-0.361141
C84	C	0.615418	0.156433	-0.318020
H85	H	0.641576	0.190818	-0.290498
H86	H	0.601611	0.191033	-0.361183
H87	H	0.584214	0.138874	-0.278112
C88	C	0.214095	0.000081	0.347839
H89	H	0.183855	0.000089	0.392975
H90	H	0.236987	-0.051549	0.351451
H91	H	0.236984	0.051724	0.351425
H92	H	0.694062	0.555685	0.248884
H93	H	-0.166696	0.000100	0.242499
H94	H	0.746811	0.555826	-0.002191
H95	H	0.099794	0.000085	0.323907
C96	C	0.522610	0.000093	-0.045544
H97	H	0.561270	0.000098	-0.033870
H98	H	0.515664	-0.051532	-0.077187
H99	H	0.515662	0.051741	-0.077177
H100	H	-0.142083	0.000112	-0.035370
C101	C	-0.052374	0.000093	0.266440
H102	H	-0.082612	0.000094	0.311578
H103	H	-0.029481	-0.051537	0.270042
H104	H	-0.029485	0.051736	0.270031
H105	H	-0.034327	0.000125	-0.033470
C106	C	0.783330	0.435158	0.141739
H107	H	0.811791	0.455468	0.098734
H108	H	0.791772	0.456335	0.195012
H109	H	0.782797	0.371920	0.142116
H110	H	0.245717	0.000151	-0.105216
C111	C	0.586812	0.435457	0.238978
H112	H	0.595072	0.455873	0.292605
H113	H	0.550251	0.456688	0.228691
H114	H	0.586850	0.372218	0.238300
H115	H	0.137961	0.000151	-0.107125
H116	H	0.577520	0.555887	0.081392
H117	H	0.404412	0.000084	-0.025724
H118	H	0.651534	0.444387	-0.030154
