data_functionalizedCrystal
_audit_creation_method	'MofGen! by Chris Wilmer'
_symmetry_space_group_name_H-M	'P1'
_symmetry_Int_Tables_number	1
_symmetry_cell_setting	triclinic
loop_
_symmetry_equiv_pos_as_xyz
  x,y,z
_cell_length_a	13.262533
_cell_length_b	13.185407
_cell_length_c	11.804365
_cell_angle_alpha	97.750215
_cell_angle_beta	93.582318
_cell_angle_gamma	68.868741
loop_
_atom_site_label
_atom_site_type_symbol
_atom_site_fract_x
_atom_site_fract_y
_atom_site_fract_z
O1	O	1.265232	0.215419	0.310758
O2	O	0.980648	0.210988	0.218585
O3	O	1.171697	0.058189	0.280467
O4	O	1.074184	0.368218	0.248876
O5	O	1.121412	0.098371	0.462236
O6	O	0.930364	0.251170	0.400354
O7	O	1.214948	0.255602	0.492527
Cu8	Cu	1.068065	0.257055	0.463037
Cu9	Cu	1.127532	0.209535	0.248075
O10	O	1.023899	0.408401	0.430644
C11	C	0.919850	0.227631	0.297921
C12	C	0.813610	0.217346	0.263511
C13	C	1.156441	0.038408	0.374552
C14	C	1.185888	-0.080398	0.384085
C15	C	0.404484	0.275981	0.562844
C16	C	0.504298	0.285651	0.595178
C17	C	0.581631	0.268575	0.512264
C18	C	0.559140	0.241828	0.397010
C19	C	0.459312	0.232165	0.364672
C20	C	0.636459	0.224759	0.314092
C21	C	0.613968	0.198012	0.198838
C22	C	0.514150	0.188350	0.166505
C23	C	0.436817	0.205426	0.249419
C24	C	0.736287	0.234422	0.346431
C25	C	0.791115	0.190607	0.148259
C26	C	0.691301	0.180936	0.115924
C27	C	0.904871	-0.391172	0.293057
C28	C	0.877205	-0.279550	0.284088
C29	C	0.954373	-0.229756	0.309087
C30	C	1.059213	-0.291597	0.343056
C31	C	1.086885	-0.403232	0.352017
C32	C	1.136386	-0.241816	0.368047
C33	C	1.241226	-0.303656	0.402015
C34	C	1.268893	-0.415280	0.410975
C35	C	1.191725	-0.465074	0.385976
C36	C	1.108714	-0.130181	0.359086
C37	C	1.290728	-0.142240	0.418045
C38	C	1.318394	-0.253863	0.427014
C39	C	1.275747	0.238958	0.413189
C40	C	1.381989	0.249242	0.447591
C41	C	1.039156	0.428181	0.336557
C42	C	1.009711	0.546986	0.327017
N43	N	1.026246	0.290478	0.614232
N44	N	1.169360	0.176103	0.096883
C45	C	1.269788	0.095821	1.067066
C46	C	1.301424	0.070532	0.952652
C47	C	1.232632	0.125516	0.868041
C48	C	1.132199	0.205794	0.897856
C49	C	1.100563	0.231092	1.012283
C50	C	1.063407	0.260787	0.813259
C51	C	0.962975	0.341066	0.843074
C52	C	0.931344	0.366359	0.957490
C53	C	1.000136	0.311374	1.042100
C54	C	1.095043	0.235489	0.698832
C55	C	0.925818	0.370760	0.644049
C56	C	0.894183	0.396050	0.758464
H57	H	0.754587	0.256202	0.440271
Cl58	Cl	1.226500	-0.605404	0.397257
Cl59	Cl	0.960360	0.343164	1.185941
Cl60	Cl	0.707114	0.280730	0.552916
H61	H	1.353580	-0.101712	0.438345
H62	H	0.341510	0.289889	0.630338
H63	H	0.849571	0.431734	0.981765
Cl64	Cl	0.767928	0.496970	0.795959
Cl65	Cl	0.919588	-0.089428	0.297815
H66	H	0.869803	0.415536	0.575159
H67	H	0.672973	0.159160	0.022083
Cl68	Cl	1.221295	0.134571	0.661364
H69	H	0.854079	0.176706	0.080743
Cl70	Cl	0.745414	-0.201818	0.241380
Cl71	Cl	0.532565	0.319278	0.740061
H72	H	1.325793	0.051066	1.135962
H73	H	0.355542	0.197544	0.223099
Cl74	Cl	1.272402	0.093720	0.724204
H75	H	1.023352	-0.079841	0.331429
Cl76	Cl	1.427674	-0.030383	0.915170
H77	H	0.842055	-0.431727	0.272698
H78	H	1.354263	-0.465631	0.438624
H79	H	0.495838	0.166583	0.072657
H80	H	1.403757	-0.304229	0.454671
