data_functionalizedCrystal
_audit_creation_method	'MofGen! by Chris Wilmer'
_symmetry_space_group_name_H-M	'P1'
_symmetry_Int_Tables_number	1
_symmetry_cell_setting	triclinic
loop_
_symmetry_equiv_pos_as_xyz
  x,y,z
_cell_length_a	18.050591
_cell_length_b	19.121063
_cell_length_c	18.050582
_cell_angle_alpha	92.415032
_cell_angle_beta	89.979078
_cell_angle_gamma	92.465257
loop_
_atom_site_label
_atom_site_type_symbol
_atom_site_fract_x
_atom_site_fract_y
_atom_site_fract_z
Zn1	Zn	1.122676	-0.279734	-0.432630
Zn2	Zn	1.622676	0.220266	0.067370
Zn3	Zn	1.117290	-0.397178	-0.313729
Zn4	Zn	1.617290	0.102822	0.186271
Zn5	Zn	0.998495	-0.279737	-0.308441
Zn6	Zn	1.498495	0.220263	0.191559
Zn7	Zn	0.993148	-0.397141	-0.437863
Zn8	Zn	1.493148	0.102859	0.062137
O9	O	1.057903	-0.338447	-0.373166
O10	O	1.557903	0.161553	0.126834
O11	O	1.225886	-0.295327	-0.416880
O12	O	1.725886	0.204673	0.083120
O13	O	1.101515	-0.381616	-0.209104
O14	O	1.601515	0.118384	0.290896
O15	O	1.019460	-0.181452	-0.320512
O16	O	1.519460	0.318548	0.179488
O17	O	1.221929	-0.381613	-0.329524
O18	O	1.721929	0.118387	0.170476
O19	O	1.110695	-0.181449	-0.411753
O20	O	1.610695	0.318551	0.088247
O21	O	1.014237	-0.295332	-0.205219
O22	O	1.514237	0.204668	0.294781
O23	O	0.893862	-0.295296	-0.325586
O24	O	1.393862	0.204704	0.174414
O25	O	1.010347	-0.381550	-0.541093
O26	O	1.510347	0.118450	-0.041093
O27	O	0.889934	-0.381552	-0.420672
O28	O	1.389934	0.118448	0.079328
O29	O	1.105510	-0.295291	-0.537248
O30	O	1.605510	0.204709	-0.037248
O31	O	1.096331	-0.495458	-0.334599
O32	O	1.596331	0.004542	0.165401
O33	O	1.005124	-0.495430	-0.425799
O34	O	1.505124	0.004570	0.074201
C35	C	0.864952	-0.338421	-0.373123
C36	C	1.364952	0.161579	0.126877
C37	C	0.782406	-0.338427	-0.373124
C38	C	1.282406	0.161573	0.126876
C39	C	0.585072	-0.291466	-0.321528
C40	C	1.085072	0.208534	0.178472
C41	C	0.532763	-0.355526	-0.306137
C42	C	1.032763	0.144474	0.193863
C43	C	0.631274	-0.338448	-0.373158
C44	C	1.131274	0.161552	0.126842
C45	C	0.536500	-0.274410	-0.388548
C46	C	1.036500	0.225590	0.111452
C47	C	0.485288	-0.338463	-0.373190
C48	C	0.985288	0.161537	0.126810
C49	C	0.580051	-0.402542	-0.357733
C50	C	1.080051	0.097458	0.142267
C51	C	0.583794	-0.321383	-0.440174
C52	C	1.083794	0.178617	0.059826
C53	C	0.531506	-0.385487	-0.424811
C54	C	1.031506	0.114513	0.075189
C55	C	0.715373	-0.338439	-0.373138
C56	C	1.215373	0.161561	0.126862
C57	C	0.401191	-0.338480	-0.373211
C58	C	0.901191	0.161520	0.126789
C59	C	1.049583	-0.520928	-0.381357
C60	C	1.549583	-0.020928	0.118643
C61	C	1.046092	-0.598994	-0.384886
C62	C	1.546092	-0.098994	0.115114
C63	C	1.091975	-0.635661	-0.339100
C64	C	1.591975	-0.135661	0.160900
C65	C	1.088695	-0.709012	-0.342424
C66	C	1.588695	-0.209012	0.157576
C67	C	1.039529	-0.745696	-0.391530
C68	C	1.539529	-0.245696	0.108470
C69	C	0.993644	-0.709024	-0.437321
C70	C	1.493644	-0.209024	0.062679
C71	C	0.996928	-0.635674	-0.434001
C72	C	1.496928	-0.135674	0.065999
C73	C	1.027241	-0.967166	-0.403932
C74	C	1.527241	-0.467166	0.096068
C75	C	1.023960	-1.040521	-0.407247
C76	C	1.523960	-0.540521	0.092753
C77	C	1.119012	-1.040504	-0.312351
C78	C	1.619012	-0.540504	0.187649
C79	C	1.122288	-0.967153	-0.309032
C80	C	1.622288	-0.467153	0.190968
C81	C	1.076406	-0.930487	-0.354825
C82	C	1.576406	-0.430487	0.145175
C83	C	1.036174	-0.820673	-0.394927
C84	C	1.536174	-0.320673	0.105073
C85	C	1.079765	-0.855512	-0.351432
C86	C	1.579765	-0.355512	0.148568
C87	C	1.251607	-0.338474	-0.373208
C88	C	1.751607	0.161526	0.126792
C89	C	1.334152	-0.338485	-0.373227
C90	C	1.834152	0.161515	0.126773
C91	C	1.057933	-0.338416	-0.566870
C92	C	1.557933	0.161584	-0.066870
C93	C	1.057946	-0.338403	-0.649415
C94	C	1.557946	0.161597	-0.149415
C95	C	1.066275	-0.155254	-0.364959
C96	C	1.566275	0.344746	0.135041
C97	C	1.069843	-0.077188	-0.361461
C98	C	1.569843	0.422812	0.138539
C99	C	1.006237	-0.385246	-0.850954
C100	C	1.506237	0.114754	-0.350954
C101	C	1.073218	-0.402419	-0.901126
C102	C	1.573218	0.097581	-0.401126
C103	C	1.057985	-0.338349	-0.800543
C104	C	1.557985	0.161651	-0.300543
C105	C	0.991042	-0.321157	-0.897452
C106	C	1.491042	0.178843	-0.397452
C107	C	1.058017	-0.338299	-0.946526
C108	C	1.558017	0.161701	-0.446526
C109	C	1.125000	-0.355556	-0.849629
C110	C	1.625000	0.144444	-0.349629
C111	C	1.042780	-0.274264	-0.845950
C112	C	1.542780	0.225736	-0.345950
C113	C	1.109809	-0.291412	-0.896099
C114	C	1.609809	0.208588	-0.396099
C115	C	1.057966	-0.338380	-0.716446
C116	C	1.557966	0.161620	-0.216446
C117	C	1.058044	-0.338268	-1.030621
C118	C	1.558044	0.161732	-0.530621
C119	C	1.057917	-0.338428	-0.180213
C120	C	1.557917	0.161572	0.319787
C121	C	1.058057	-0.338243	-0.097659
C122	C	1.558057	0.161757	0.402341
H123	H	0.517235	-0.220255	-0.401527
H124	H	1.017235	0.279745	0.098473
H125	H	0.934417	-0.306637	-0.918486
H126	H	1.434417	0.193363	-0.418486
C127	C	1.168926	-1.080347	-0.262769
C128	C	1.668926	-0.580347	0.237231
C129	C	1.214630	-1.122381	-0.306776
C130	C	1.714630	-0.622381	0.193224
C131	C	1.260634	-1.159085	-0.261129
C132	C	1.760634	-0.659085	0.238871
H133	H	1.139348	-1.109059	-0.231662
H134	H	1.639348	-0.609059	0.268338
H135	H	1.198721	-1.048013	-0.233065
H136	H	1.698721	-0.548013	0.266935
H137	H	1.184838	-1.154711	-0.336466
H138	H	1.684838	-0.654711	0.163534
H139	H	1.244223	-1.093686	-0.337882
H140	H	1.744223	-0.593686	0.162118
H141	H	1.290428	-1.126752	-0.231426
H142	H	1.790428	-0.626752	0.268574
H143	H	1.231050	-1.187794	-0.230024
H144	H	1.731050	-0.687794	0.269976
H145	H	1.291653	-1.187605	-0.290981
H146	H	1.791653	-0.687605	0.209019
C147	C	0.500552	-0.438591	-0.483062
C148	C	1.000552	0.061409	0.016938
C149	C	0.559113	-0.471888	-0.518739
C150	C	1.059113	0.028112	-0.018739
C151	C	0.530625	-0.520820	-0.572393
C152	C	1.030625	-0.020820	-0.072393
H153	H	0.472672	-0.415324	-0.518435
H154	H	0.972672	0.084676	-0.018435
H155	H	0.469389	-0.472473	-0.459878
H156	H	0.969389	0.027527	0.040122
H157	H	0.590264	-0.438011	-0.541923
H158	H	1.090264	0.061989	-0.041923
H159	H	0.586998	-0.495169	-0.483386
H160	H	1.086998	0.004831	0.016614
H161	H	0.499462	-0.554702	-0.549209
H162	H	0.999462	-0.054702	-0.049209
H163	H	0.502746	-0.497547	-0.607760
H164	H	1.002746	0.002453	-0.107760
H165	H	0.570354	-0.543422	-0.596602
H166	H	1.070354	-0.043422	-0.096602
H167	H	1.086097	-0.456593	-0.925266
H168	H	1.586097	0.043407	-0.425266
H169	H	0.996142	-0.850549	-0.434907
H170	H	1.496142	-0.350549	0.065093
H171	H	1.181639	-0.370137	-0.828690
H172	H	1.681639	0.129863	-0.328690
H173	H	0.510374	-0.369971	-0.249476
H174	H	1.010374	0.130029	0.250524
H175	H	1.162323	-0.937286	-0.269045
H176	H	1.662323	-0.437286	0.230955
C177	C	0.970559	-1.080224	-0.460647
C178	C	1.470559	-0.580224	0.039353
C179	C	0.931095	-1.032416	-0.500057
C180	C	1.431095	-0.532416	-0.000057
C181	C	0.881907	-1.068964	-0.549259
C182	C	1.381907	-0.568964	-0.049259
H183	H	0.936869	-1.108880	-0.433588
H184	H	1.436869	-0.608880	0.066412
H185	H	0.997658	-1.108785	-0.494361
H186	H	1.497658	-0.608785	0.005639
H187	H	0.903998	-1.003867	-0.466348
H188	H	1.403998	-0.503867	0.033652
H189	H	0.964766	-1.003759	-0.527132
H190	H	1.464766	-0.503759	-0.027132
H191	H	0.909006	-1.097525	-0.582973
H192	H	1.409006	-0.597525	-0.082973
H193	H	0.848221	-1.097619	-0.522194
H194	H	1.348221	-0.597619	-0.022194
H195	H	0.855130	-1.036532	-0.576010
H196	H	1.355130	-0.536532	-0.076010
C197	C	1.138448	-0.748974	-0.292794
C198	C	1.638448	-0.248974	0.207206
C199	C	1.094628	-0.791232	-0.247074
C200	C	1.594628	-0.291232	0.252926
C201	C	1.140466	-0.828088	-0.201406
C202	C	1.640466	-0.328088	0.298594
H203	H	1.168270	-0.716753	-0.263001
H204	H	1.668270	-0.216753	0.236999
H205	H	1.169439	-0.777543	-0.322626
H206	H	1.669439	-0.277543	0.177374
H207	H	1.063650	-0.762664	-0.217245
H208	H	1.563650	-0.262664	0.282755
H209	H	1.064808	-0.823465	-0.276846
H210	H	1.564808	-0.323465	0.223154
H211	H	1.171457	-0.856658	-0.231238
H212	H	1.671457	-0.356658	0.268762
H213	H	1.170285	-0.795863	-0.171619
H214	H	1.670285	-0.295863	0.328381
H215	H	1.110741	-0.856769	-0.170385
H216	H	1.610741	-0.356769	0.329615
C217	C	1.145430	-0.595963	-0.285759
C218	C	1.645430	-0.095963	0.214241
C219	C	1.184924	-0.643778	-0.246388
C220	C	1.684924	-0.143778	0.253612
C221	C	1.234183	-0.607236	-0.197250
C222	C	1.734183	-0.107236	0.302750
H223	H	1.118405	-0.567386	-0.252012
H224	H	1.618405	-0.067386	0.247988
H225	H	1.179092	-0.567324	-0.312887
H226	H	1.679092	-0.067324	0.187113
H227	H	1.151267	-0.672404	-0.219261
H228	H	1.651267	-0.172404	0.280739
H229	H	1.211965	-0.672356	-0.280115
H230	H	1.711965	-0.172356	0.219885
H231	H	1.267845	-0.578597	-0.224378
H232	H	1.767845	-0.078597	0.275622
H233	H	1.207151	-0.578660	-0.163508
H234	H	1.707151	-0.078660	0.336492
H235	H	1.260990	-0.639672	-0.170536
H236	H	1.760990	-0.139672	0.329464
H237	H	0.599186	-0.456720	-0.344666
H238	H	1.099186	0.043280	0.155334
H239	H	0.962512	-0.424957	-0.831065
H240	H	1.462512	0.075043	-0.331065
C241	C	1.168352	-0.238595	-0.922410
C242	C	1.668352	0.261405	-0.422410
C243	C	1.238296	-0.256893	-0.898097
C244	C	1.738296	0.243107	-0.398097
C245	C	1.292246	-0.208264	-0.922330
C246	C	1.792246	0.291736	-0.422330
H247	H	1.158045	-0.193198	-0.902718
H248	H	1.658045	0.306802	-0.402718
H249	H	1.167819	-0.238602	-0.975040
H250	H	1.667819	0.261398	-0.475040
H251	H	1.238828	-0.256879	-0.845477
H252	H	1.738828	0.243121	-0.345477
H253	H	1.248627	-0.302282	-0.917786
H254	H	1.748627	0.197718	-0.417786
H255	H	1.291713	-0.208270	-0.974961
H256	H	1.791713	0.291730	-0.474961
H257	H	1.281932	-0.162870	-0.902637
H258	H	1.781932	0.337130	-0.402637
H259	H	1.339710	-0.220676	-0.905844
H260	H	1.839710	0.279324	-0.405844
H261	H	0.989881	-0.937319	-0.441218
H262	H	1.489881	-0.437319	0.058782
C263	C	1.025428	-0.202076	-0.813772
C264	C	1.525428	0.297924	-0.313772
C265	C	0.955224	-0.184372	-0.837930
C266	C	1.455224	0.315628	-0.337930
C267	C	0.939201	-0.117883	-0.808292
C268	C	1.439201	0.382117	-0.308292
H269	H	1.061644	-0.168553	-0.829883
H270	H	1.561644	0.331447	-0.329883
H271	H	1.025953	-0.202509	-0.761163
H272	H	1.525953	0.297491	-0.261163
H273	H	0.954705	-0.183933	-0.890528
H274	H	1.454705	0.316067	-0.390528
H275	H	0.918994	-0.217876	-0.821820
H276	H	1.418994	0.282124	-0.321820
H277	H	0.939725	-0.118316	-0.755684
H278	H	1.439725	0.381684	-0.255684
H279	H	0.975421	-0.084366	-0.824405
H280	H	1.475421	0.415634	-0.324405
H281	H	0.891564	-0.105865	-0.824674
H282	H	1.391564	0.394135	-0.324674
C283	C	0.940285	-0.748976	-0.490561
C284	C	1.440285	-0.248976	0.009439
C285	C	0.947212	-0.821062	-0.483655
C286	C	1.447212	-0.321062	0.016345
C287	C	0.898060	-0.857885	-0.532680
C288	C	1.398060	-0.357885	-0.032680
H289	H	0.951608	-0.737005	-0.539960
H290	H	1.451608	-0.237005	-0.039960
H291	H	0.890912	-0.737035	-0.479093
H292	H	1.390912	-0.237035	0.020907
H293	H	0.996574	-0.832998	-0.495129
H294	H	1.496574	-0.332998	0.004871
H295	H	0.935882	-0.833053	-0.434268
H296	H	1.435882	-0.333053	0.065732
H297	H	0.848687	-0.845944	-0.521212
H298	H	1.348687	-0.345944	-0.021212
H299	H	0.909388	-0.845909	-0.582076
H300	H	1.409388	-0.345909	-0.082076
H301	H	0.902749	-0.906799	-0.527996
H302	H	1.402749	-0.406799	-0.027996
H303	H	0.959566	-0.605821	-0.471285
H304	H	1.459566	-0.105821	0.028715
H305	H	1.119799	-0.825642	-0.311452
H306	H	1.619799	-0.325642	0.188548
C307	C	0.616298	-0.238637	-0.263142
C308	C	1.116298	0.261363	0.236858
C309	C	0.590410	-0.256844	-0.193107
C310	C	1.090410	0.243156	0.306893
C311	C	0.619167	-0.208203	-0.139304
C312	C	1.119167	0.291797	0.360696
H313	H	0.600746	-0.193229	-0.273498
H314	H	1.100746	0.306771	0.226502
H315	H	0.668924	-0.238710	-0.263789
H316	H	1.168924	0.261290	0.236211
H317	H	0.537795	-0.256764	-0.192463
H318	H	1.037795	0.243236	0.307537
H319	H	0.605961	-0.302244	-0.182728
H320	H	1.105961	0.197756	0.317272
H321	H	0.671793	-0.208275	-0.139950
H322	H	1.171793	0.291725	0.360050
H323	H	0.603613	-0.162798	-0.149667
H324	H	1.103613	0.337202	0.350333
H325	H	0.601612	-0.220553	-0.091779
H326	H	1.101612	0.279447	0.408221
H327	H	0.606202	-0.306918	-0.496817
H328	H	1.106202	0.193082	0.003183
