data_functionalizedCrystal
_audit_creation_method	'MofGen! by Chris Wilmer'
_symmetry_space_group_name_H-M	'P1'
_symmetry_Int_Tables_number	1
_symmetry_cell_setting	triclinic
loop_
_symmetry_equiv_pos_as_xyz
  x,y,z
_cell_length_a	14.628931
_cell_length_b	14.628931
_cell_length_c	14.628931
_cell_angle_alpha	89.999882
_cell_angle_beta	119.999807
_cell_angle_gamma	120.000164
loop_
_atom_site_label
_atom_site_type_symbol
_atom_site_fract_x
_atom_site_fract_y
_atom_site_fract_z
Zr1	Zr	-1.000578	0.880616	-0.119961
O2	O	-1.191283	0.734656	-0.265921
O3	O	-0.809873	0.925361	-0.075217
O4	O	-1.000578	0.925361	-0.265922
O5	O	-1.000579	0.734655	0.075216
O6	O	-1.000578	1.075793	-0.265922
O7	O	-1.000578	0.734656	-0.075216
O8	O	-0.659441	1.075793	0.075215
O9	O	-1.341715	0.734655	-0.265921
O10	O	-0.888313	1.056710	-0.056134
O11	O	-0.888313	0.944444	0.056132
O12	O	-1.112844	0.944444	-0.168399
O13	O	-1.112844	0.832178	-0.056133
Zr14	Zr	-1.000579	1.120538	0.119960
Zr15	Zr	-1.000578	1.120538	-0.119961
Zr16	Zr	-1.000579	0.880616	0.119960
Zr17	Zr	-1.240500	0.880616	-0.119961
Zr18	Zr	-0.760657	1.120538	0.119959
O19	O	-1.191284	1.075793	0.075215
O20	O	-1.191283	1.075793	-0.265922
O21	O	-1.191284	0.734655	0.075216
O22	O	-0.809874	1.266498	0.265920
O23	O	-0.809873	1.266499	-0.075217
O24	O	-0.809874	0.925361	0.265920
O25	O	-1.000578	1.266499	-0.075217
O26	O	-1.000579	1.075793	0.265920
O27	O	-1.000579	0.925361	0.265921
O28	O	-1.000579	1.266498	0.075215
O29	O	-1.341715	0.925361	-0.265921
O30	O	-0.659442	1.075793	0.265920
O31	O	-0.659442	1.266499	0.265920
O32	O	-0.659441	1.266499	0.075214
O33	O	-1.341716	0.734655	-0.075215
O34	O	-1.341716	0.925361	-0.075216
O35	O	-0.888313	1.056710	0.168397
O36	O	-0.888313	1.168976	0.056132
O37	O	-1.112844	1.056710	-0.056133
O38	O	-1.112844	0.944444	0.056132
C39	C	-0.700473	1.000577	-0.000001
C40	C	-0.598620	1.000578	-0.000001
C41	C	-0.553211	0.944886	0.055690
C42	C	-0.447941	0.944885	0.055691
C43	C	-1.000578	0.700472	0.000000
C44	C	-1.000578	0.598619	0.000000
C45	C	-0.300684	1.000577	-0.000000
C46	C	-0.402537	1.000576	-0.000000
C47	C	-1.000578	0.553210	-0.078759
C48	C	-1.000578	0.447939	-0.078761
C49	C	-1.000578	1.000577	-0.300105
C50	C	-1.000577	1.000578	-0.401958
C51	C	-1.000578	1.300682	-0.000001
C52	C	-1.000578	1.402535	-0.000001
C53	C	-1.111960	0.944886	-0.503058
C54	C	-1.111962	0.944885	-0.608330
C55	C	-1.000579	1.000577	0.300104
C56	C	-1.000580	1.000576	0.401957
C57	C	-0.700473	1.300683	-0.000002
C58	C	-0.598620	1.402536	-0.000002
C59	C	-0.700474	1.000577	0.300104
C60	C	-0.598621	1.000577	0.401956
C61	C	-0.700474	1.300682	0.300103
C62	C	-0.598621	1.402535	0.401956
C63	C	-1.300683	0.700472	-0.300104
C64	C	-1.402536	0.598619	-0.401957
C65	C	-1.300684	0.700471	0.000000
C66	C	-1.402537	0.598618	0.000001
C67	C	-1.300683	1.000577	-0.300105
C68	C	-1.402536	1.000577	-0.401958
C69	C	-0.553211	1.392254	-0.055693
C70	C	-0.447941	1.497523	-0.055695
C71	C	-0.553213	1.056268	0.503057
C72	C	-0.447942	1.056270	0.608328
C73	C	-0.553212	1.503636	0.391673
C74	C	-0.447942	1.608908	0.496942
H75	H	-0.408887	0.897208	0.103373
H76	H	-1.000572	0.559565	0.067432
Cl77	Cl	-1.259196	0.871261	-0.742233
Cl78	Cl	-0.387647	1.484192	-0.129305
H79	H	-0.559568	0.952894	0.393336
Cl80	Cl	-0.387649	1.129894	0.742231
H81	H	-0.559568	1.048252	-0.047685
Cl82	Cl	-0.462811	1.464720	0.611377
Cl83	Cl	-1.259191	0.871277	-0.516379
Cl84	Cl	-0.853340	1.074189	-0.464143
Cl85	Cl	-0.853346	1.074201	-0.388638
H86	H	-1.000586	0.441576	0.067428
H87	H	-0.441573	1.607255	0.047686
H88	H	-0.559568	1.393915	0.488692
H89	H	-1.000571	0.592269	-0.146184
Cl90	Cl	-0.538333	1.536447	0.073606
H91	H	-0.592274	1.305517	-0.103376
H92	H	-0.592275	1.103942	0.511677
H93	H	-0.441577	0.952903	0.511314
Cl94	Cl	-0.387649	1.742811	0.483610
Cl95	Cl	-0.613511	0.871265	0.129301
Cl96	Cl	-0.462810	1.074204	-0.073613
Cl97	Cl	-0.613513	1.516957	0.257763
H98	H	-1.000585	0.408886	-0.146193
