data_functionalizedCrystal
_audit_creation_method	'MofGen! by Chris Wilmer'
_symmetry_space_group_name_H-M	'P1'
_symmetry_Int_Tables_number	1
_symmetry_cell_setting	triclinic
loop_
_symmetry_equiv_pos_as_xyz
  x,y,z
_cell_length_a	8.597340
_cell_length_b	10.654550
_cell_length_c	7.681481
_cell_angle_alpha	84.203385
_cell_angle_beta	103.474906
_cell_angle_gamma	84.910291
loop_
_atom_site_label
_atom_site_type_symbol
_atom_site_fract_x
_atom_site_fract_y
_atom_site_fract_z
O1	O	2.101767	0.173671	0.172451
O2	O	1.637927	0.193681	0.102076
O3	O	1.880512	0.000862	0.138888
O4	O	1.859181	0.366489	0.135639
O5	O	1.910370	-0.022924	0.436277
O6	O	1.667785	0.169894	0.399464
O7	O	2.131624	0.149885	0.469840
Zn8	Zn	1.904445	0.156113	0.481869
Zn9	Zn	1.865106	0.187452	0.090047
O10	O	1.889039	0.342703	0.433027
C11	C	1.593463	0.180964	0.241759
C12	C	1.416491	0.178494	0.214908
C13	C	1.893875	-0.057818	0.287343
C14	C	1.889188	-0.197228	0.286626
C15	C	2.032019	-0.277701	0.308302
C16	C	2.027605	-0.408690	0.307620
C17	C	1.737519	-0.378722	0.263591
C18	C	1.741933	-0.247734	0.264261
C19	C	2.179274	-0.227195	0.330667
C20	C	2.322116	-0.307669	0.352347
C21	C	2.317703	-0.438658	0.351665
C22	C	2.170447	-0.489174	0.329303
C23	C	2.176088	0.162602	0.330153
C24	C	2.353058	0.165072	0.356992
C25	C	1.875676	0.401383	0.284569
C26	C	1.880361	0.540795	0.285274
N27	N	1.931304	0.134724	0.749279
N28	N	1.838259	0.208832	-0.177362
H29	H	2.442002	-0.266527	0.370509
H30	H	2.026302	0.059085	0.838901
H31	H	1.335401	0.188096	0.072704
O32	O	1.603320	-0.169450	0.243465
C33	C	1.612637	-0.105127	0.396572
H34	H	1.744381	-0.102623	0.467134
H35	H	1.550183	-0.156840	0.493302
C36	C	1.367405	0.028533	0.251169
C37	C	1.529216	0.031618	0.337826
H38	H	1.315941	0.112881	0.214936
H39	H	1.361123	-0.014805	0.148020
H40	H	1.315381	-0.014567	0.331791
H41	H	1.581241	0.074702	0.257197
H42	H	1.535504	0.074966	0.440961
O43	O	1.594561	-0.427921	0.241661
C44	C	1.567849	-0.490448	0.085915
H45	H	1.687962	-0.518969	0.053573
H46	H	1.487143	-0.423948	-0.032539
C47	C	1.337914	-0.575023	0.159213
C48	C	1.485440	-0.610062	0.119499
H49	H	1.287073	-0.648804	0.179923
H50	H	1.355905	-0.532894	0.264139
H51	H	1.270678	-0.519604	0.060493
H52	H	1.552679	-0.665467	0.218226
H53	H	1.467458	-0.652204	0.014590
O54	O	1.449745	0.153384	0.526676
C55	C	1.435938	0.036246	0.621779
H56	H	1.392379	-0.032782	0.521826
H57	H	1.345882	0.051384	0.707787
C58	C	1.654848	0.065868	0.867263
C59	C	1.601361	-0.018916	0.744500
H60	H	1.756885	0.031843	0.942971
H61	H	1.664147	0.144789	0.803195
H62	H	1.579787	0.078476	0.938919
H63	H	1.676411	-0.031510	0.672833
H64	H	1.592079	-0.097840	0.808559
O65	O	1.725107	0.299237	0.715850
C66	C	1.757131	0.419897	0.765655
H67	H	1.889906	0.416334	0.836571
H68	H	1.680068	0.448227	0.860852
C69	C	1.553779	0.522619	0.508566
C70	C	1.716858	0.518246	0.595653
H71	H	1.528930	0.583288	0.403704
H72	H	1.532198	0.441329	0.475014
H73	H	1.489579	0.546223	0.587916
H74	H	1.781055	0.494626	0.516311
H75	H	1.738448	0.599535	0.629188
H76	H	2.182884	-0.120539	0.331230
H77	H	2.434010	-0.504176	0.369300
H78	H	2.166863	-0.595834	0.328731
