data_functionalizedCrystal
_audit_creation_method	'MofGen! by Chris Wilmer'
_symmetry_space_group_name_H-M	'P1'
_symmetry_Int_Tables_number	1
_symmetry_cell_setting	triclinic
loop_
_symmetry_equiv_pos_as_xyz
  x,y,z
_cell_length_a	6.817900
_cell_length_b	10.943632
_cell_length_c	17.458048
_cell_angle_alpha	92.966903
_cell_angle_beta	106.367677
_cell_angle_gamma	108.838880
loop_
_atom_site_label
_atom_site_type_symbol
_atom_site_fract_x
_atom_site_fract_y
_atom_site_fract_z
V1	V	-4.087986	-0.181193	-0.249138
O2	O	-4.046216	0.006069	-0.244416
O3	O	-4.066126	-0.356738	-0.247415
O4	O	-4.053950	-0.179563	-0.357805
O5	O	-4.058477	-0.172332	-0.133262
V6	V	-4.566314	-0.158658	-0.235281
O7	O	-4.360641	-0.230626	-0.279536
O8	O	-4.743856	-0.109224	-0.204883
O9	O	-4.364967	0.016888	-0.237004
O10	O	-4.725480	-0.345920	-0.240004
O11	O	-4.713219	-0.167518	-0.351157
O12	O	-4.377143	-0.160287	-0.126614
C13	C	-3.917119	-0.399496	-0.243480
C14	C	-3.980629	-0.543015	-0.242796
C15	C	-3.901585	-0.173490	-0.384292
C16	C	-3.955216	-0.173319	-0.473127
C17	C	-4.276905	-0.173095	-0.973618
C18	C	-4.226497	-0.173255	-0.890147
C19	C	-4.017636	-0.166841	-0.844347
C20	C	-3.859179	-0.160278	-0.882022
C21	C	-3.909592	-0.160127	-0.965492
C22	C	-3.847172	-0.166606	-0.594272
C23	C	-3.796768	-0.166753	-0.510796
C24	C	-4.164092	-0.179733	-0.518928
C25	C	-4.214485	-0.179573	-0.602399
C26	C	-4.056028	-0.173018	-0.640067
N27	N	-3.966105	-0.167001	-0.759026
N28	N	-4.107565	-0.172867	-0.725387
C29	C	-3.825978	-0.620120	-0.238245
C30	C	-3.911936	-0.692103	-0.173735
C31	C	-4.007860	-0.726758	-0.306095
C32	C	-4.065712	-0.613093	-0.178240
C33	C	-4.161647	-0.647754	-0.310659
C34	C	-4.247717	-0.719699	-0.246136
C35	C	-4.177317	0.059639	-0.240937
C36	C	-4.093046	0.203156	-0.241626
C37	C	-4.192850	-0.166364	-0.100123
C38	C	-4.118456	-0.166529	-0.011287
H39	H	-4.446976	-0.178314	-1.010903
H40	H	-4.384553	-0.184788	-0.639683
N41	N	-4.484681	-0.777007	-0.250535
H42	H	-4.506729	-0.735090	-0.202231
H43	H	-4.526802	-0.874369	-0.250560
N44	N	-3.588950	-0.562481	-0.233713
H45	H	-3.547716	-0.465388	-0.234705
H46	H	-3.566137	-0.605490	-0.281450
H47	H	-4.266481	-0.627559	-0.368557
H48	H	-4.355527	-0.178602	-0.859481
H49	H	-4.293095	-0.185074	-0.488250
N50	N	-3.571484	-0.159831	-0.461393
H51	H	-3.478751	-0.155658	-0.497922
H52	H	-3.583265	-0.240096	-0.434331
N53	N	-3.976277	-0.792272	-0.377664
H54	H	-4.021097	-0.889550	-0.376987
H55	H	-3.817489	-0.755739	-0.374565
N56	N	-3.633901	-0.153355	-0.832629
H57	H	-3.645473	-0.233609	-0.805562
H58	H	-3.564236	-0.072590	-0.790113
H59	H	-3.780564	-0.154781	-0.996160
N60	N	-3.676336	-0.159662	-0.634907
H61	H	-3.536398	-0.155659	-0.593228
H62	H	-3.648461	-0.078869	-0.661647
H63	H	-3.807023	-0.712265	-0.115837
H64	H	-4.089518	-0.563768	-0.124153
