data_functionalizedCrystal
_audit_creation_method	'MofGen! by Chris Wilmer'
_symmetry_space_group_name_H-M	'P1'
_symmetry_Int_Tables_number	1
_symmetry_cell_setting	triclinic
loop_
_symmetry_equiv_pos_as_xyz
  x,y,z
_cell_length_a	10.540539
_cell_length_b	13.448316
_cell_length_c	14.971486
_cell_angle_alpha	89.993189
_cell_angle_beta	84.069810
_cell_angle_gamma	89.995318
loop_
_atom_site_label
_atom_site_type_symbol
_atom_site_fract_x
_atom_site_fract_y
_atom_site_fract_z
O1	O	1.684461	-0.082646	0.126055
O2	O	2.184461	0.417354	0.626055
O3	O	1.314913	-0.082658	0.137932
O4	O	1.814913	0.417342	0.637932
O5	O	1.509592	-0.082644	0.001850
O6	O	2.009592	0.417356	0.501850
O7	O	1.489782	-0.082659	0.262138
O8	O	1.989782	0.417341	0.762138
O9	O	1.509567	0.082739	0.001841
O10	O	2.009567	0.582739	0.501841
O11	O	1.314888	0.082726	0.137924
O12	O	1.814888	0.582726	0.637924
O13	O	1.684436	0.082738	0.126047
O14	O	2.184436	0.582738	0.626047
Cu15	Cu	1.499660	0.097833	0.131984
Cu16	Cu	1.999660	0.597833	0.631984
Cu17	Cu	1.499689	-0.097753	0.131995
Cu18	Cu	1.999689	0.402247	0.631995
O19	O	1.489757	0.082725	0.262129
O20	O	1.989757	0.582725	0.762129
C21	C	1.267608	0.000032	0.137037
C22	C	1.767608	0.500032	0.637037
C23	C	1.126690	0.000028	0.134372
C24	C	1.626690	0.500028	0.634372
N25	N	1.499649	0.235397	0.131977
N26	N	1.999649	0.735397	0.631977
N27	N	1.499710	-0.235317	0.131995
N28	N	1.999710	0.264683	0.631995
C29	C	0.944422	0.000420	0.032264
C30	C	1.444422	0.500420	0.532264
C31	C	1.091009	0.000037	0.034965
C32	C	1.591009	0.500037	0.534965
C33	C	1.064488	-0.094413	0.182216
C34	C	1.564488	0.405587	0.682216
C35	C	0.917982	-0.094482	0.178824
C36	C	1.417982	0.405518	0.678824
C37	C	0.917443	0.093590	0.180836
C38	C	1.417443	0.593590	0.680836
C39	C	1.064415	0.094828	0.181752
C40	C	1.564415	0.594828	0.681752
C41	C	1.731741	0.000046	0.126942
C42	C	2.231741	0.500046	0.626942
C43	C	1.872659	0.000044	0.129607
C44	C	2.372659	0.500044	0.629607
C45	C	1.508693	0.000047	-0.031484
C46	C	2.008693	0.500047	0.468516
C47	C	1.506039	0.000046	-0.130797
C48	C	2.006039	0.500046	0.369203
C49	C	1.585879	0.287444	0.071745
C50	C	2.085879	0.787444	0.571745
C51	C	1.585887	0.391547	0.071744
C52	C	2.085887	0.891547	0.571744
C53	C	1.499670	0.443602	0.131980
C54	C	1.999670	0.943602	0.631980
C55	C	1.413430	0.391548	0.192215
C56	C	1.913430	0.891548	0.692215
C57	C	1.413417	0.287447	0.192211
C58	C	1.913417	0.787447	0.692211
C59	C	1.413465	0.608528	0.192222
C60	C	1.913465	1.108528	0.692222
C61	C	1.413480	0.712637	0.192227
C62	C	1.913480	1.212637	0.692227
C63	C	1.585936	0.712628	0.071754
C64	C	2.085936	1.212628	0.571754
C65	C	1.585923	0.608527	0.071750
C66	C	2.085923	1.108527	0.571750
C67	C	1.499684	0.556480	0.131987
C68	C	1.999684	1.056480	0.631987
C69	C	1.620407	0.000051	-0.187377
C70	C	2.120407	0.500051	0.312623
C71	C	1.617905	0.000041	-0.280691
C72	C	2.117905	0.500041	0.219309
C73	C	1.501033	0.000033	-0.317422
C74	C	2.001033	0.500033	0.182578
C75	C	1.386656	0.000026	-0.260834
C76	C	1.886656	0.500026	0.239166
C77	C	1.389159	0.000029	-0.167522
C78	C	1.889159	0.500029	0.332478
C79	C	1.381446	0.000022	-0.455325
C80	C	1.881446	0.500022	0.044675
C81	C	1.378942	0.000021	-0.548644
C82	C	1.878942	0.500021	-0.048644
C83	C	1.610192	0.000034	-0.568495
C84	C	2.110192	0.500034	-0.068495
C85	C	1.612695	0.000037	-0.475183
C86	C	2.112695	0.500037	0.024817
C87	C	1.498317	0.000031	-0.418601
C88	C	1.998317	0.500031	0.081399
C89	C	1.490656	0.000031	0.295463
C90	C	1.990656	0.500031	0.795463
C91	C	1.493310	0.000025	0.394775
C92	C	1.993310	0.500025	0.894775
H93	H	1.134040	0.067737	-0.002680
H94	H	1.634040	0.567737	0.497320
H95	H	0.869203	-0.098772	0.250316
H96	H	1.369203	0.401228	0.750316
F97	F	1.321663	0.446950	0.256320
F98	F	1.821663	0.946950	0.756320
F99	F	1.120657	-0.186278	0.138786
F100	F	1.620657	0.313722	0.638786
H101	H	1.703322	0.000035	-0.614568
H102	H	2.203322	0.500035	-0.114568
F103	F	1.254554	0.000014	-0.587733
F104	F	1.754554	0.500014	-0.087733
F105	F	1.321635	0.232057	0.256316
F106	F	1.821635	0.732057	0.756316
H107	H	1.343236	0.566155	0.241270
H108	H	1.843236	1.066155	0.741270
F109	F	1.677691	0.553126	0.007646
F110	F	2.177691	1.053126	0.507646
H111	H	0.916272	0.068149	-0.007011
H112	H	1.416272	0.568149	0.492989
F113	F	0.905526	-0.087603	-0.018851
F114	F	1.405526	0.412397	0.481149
H115	H	1.087818	0.100526	0.254226
H116	H	1.587818	0.600526	0.754226
H117	H	1.715578	0.000063	-0.157479
H118	H	2.215578	0.500063	0.342521
F119	F	1.259711	0.000014	-0.395109
F120	F	1.759711	0.500014	0.104891
H121	H	1.291496	0.000013	-0.290747
H122	H	1.791496	0.500013	0.209253
F123	F	1.677717	0.768024	0.007648
F124	F	2.177717	1.268024	0.507648
H125	H	1.656102	0.433923	0.022698
H126	H	2.156102	0.933923	0.522698
F127	F	1.739632	0.000047	-0.340905
F128	F	2.239632	0.500047	0.159095
H129	H	1.656093	0.245067	0.022697
H130	H	2.156093	0.745067	0.522697
H131	H	1.343271	0.755015	0.241277
H132	H	1.843271	1.255015	0.741277
F133	F	1.267433	0.000021	-0.107304
F134	F	1.767433	0.500021	0.392696
H135	H	1.707862	0.000050	-0.445280
H136	H	2.207862	0.500050	0.054720
H137	H	1.133195	-0.067776	-0.002938
H138	H	1.633195	0.432224	0.497062
H139	H	1.086013	-0.097931	0.255219
H140	H	1.586013	0.402069	0.755219
F141	F	0.881644	-0.186750	0.132613
F142	F	1.381644	0.313250	0.632613
F143	F	0.876680	0.187159	0.138780
F144	F	1.376680	0.687159	0.638780
H145	H	1.105763	0.164696	0.146800
H146	H	1.605763	0.664696	0.646800
H147	H	0.869401	0.094224	0.252637
H148	H	1.369401	0.594224	0.752637
