data_functionalizedCrystal
_audit_creation_method	'MofGen! by Chris Wilmer'
_symmetry_space_group_name_H-M	'P1'
_symmetry_Int_Tables_number	1
_symmetry_cell_setting	triclinic
loop_
_symmetry_equiv_pos_as_xyz
  x,y,z
_cell_length_a	17.766277
_cell_length_b	19.288862
_cell_length_c	19.288857
_cell_angle_alpha	96.865805
_cell_angle_beta	89.991474
_cell_angle_gamma	90.026014
loop_
_atom_site_label
_atom_site_type_symbol
_atom_site_fract_x
_atom_site_fract_y
_atom_site_fract_z
O1	O	-0.062888	-0.921352	0.086641
O2	O	0.270445	-0.588018	0.419975
O3	O	0.603779	-0.254685	0.753308
O4	O	-0.062826	-0.719091	0.098332
O5	O	0.270507	-0.385757	0.431665
O6	O	0.603840	-0.052424	0.764998
O7	O	-0.062850	-0.826068	-0.008644
O8	O	0.270483	-0.492735	0.324689
O9	O	0.603817	-0.159402	0.658022
O10	O	-0.062864	-0.814374	0.193617
O11	O	0.270469	-0.481041	0.526951
O12	O	0.603802	-0.147707	0.860284
O13	O	0.062339	-0.826050	-0.008650
O14	O	0.395672	-0.492716	0.324684
O15	O	0.729005	-0.159383	0.658017
O16	O	0.062362	-0.719072	0.098326
O17	O	0.395696	-0.385738	0.431660
O18	O	0.729029	-0.052405	0.764993
O19	O	0.062300	-0.921333	0.086636
O20	O	0.395634	-0.588000	0.419969
O21	O	0.728967	-0.254666	0.753303
Cu22	Cu	0.073762	-0.820201	0.092481
Cu23	Cu	0.407095	-0.486867	0.425814
Cu24	Cu	0.740429	-0.153534	0.759147
Cu25	Cu	-0.074288	-0.820223	0.092487
Cu26	Cu	0.259045	-0.486890	0.425820
Cu27	Cu	0.592379	-0.153556	0.759154
O28	O	0.062324	-0.814355	0.193612
O29	O	0.395657	-0.481022	0.526945
O30	O	0.728991	-0.147689	0.860279
C31	C	-0.000224	-0.693205	0.097953
C32	C	0.333109	-0.359871	0.431287
C33	C	0.666443	-0.026538	0.764620
C34	C	-0.000200	-0.616101	0.096825
C35	C	0.333133	-0.282768	0.430158
C36	C	0.666466	0.050566	0.763491
C37	C	-0.000255	-0.825684	-0.034523
C38	C	0.333078	-0.492350	0.298810
C39	C	0.666412	-0.159017	0.632143
C40	C	-0.000252	-0.824557	-0.111627
C41	C	0.333081	-0.491223	0.221706
C42	C	0.666414	-0.157890	0.555039
N43	N	0.177892	-0.820190	0.092476
N44	N	0.511226	-0.486857	0.425809
N45	N	0.844559	-0.153524	0.759142
N46	N	-0.178418	-0.820239	0.092486
N47	N	0.154915	-0.486906	0.425820
N48	N	0.488248	-0.153572	0.759153
C49	C	0.217269	-0.867575	0.045130
C50	C	0.550602	-0.534242	0.378463
C51	C	0.883935	-0.200909	0.711797
C52	C	0.296071	-0.867579	0.045127
C53	C	0.629404	-0.534246	0.378460
C54	C	0.962737	-0.200913	0.711793
C55	C	0.335493	-0.820205	0.092481
C56	C	0.668826	-0.486871	0.425815
C57	C	1.002160	-0.153538	0.759148
C58	C	0.296107	-0.772811	0.139831
C59	C	0.629440	-0.439478	0.473164
C60	C	0.962774	-0.106144	0.806497
C61	C	0.217307	-0.772804	0.139828
C62	C	0.550640	-0.439470	0.473161
C63	C	0.883973	-0.106137	0.806495
C64	C	0.460328	-0.810904	0.155769
C65	C	0.793661	-0.477571	0.489103
C66	C	1.126995	-0.144238	0.822436
C67	C	0.539127	-0.810916	0.155773
C68	C	0.872460	-0.477583	0.489106
C69	C	1.205794	-0.144250	0.822439
C70	C	0.578539	-0.820223	0.092490
C71	C	0.911873	-0.486890	0.425823
C72	C	1.245206	-0.153557	0.759156
C73	C	0.539143	-0.829533	0.029200
C74	C	0.872476	-0.496200	0.362533
C75	C	1.205810	-0.162866	0.695866
C76	C	0.460343	-0.829526	0.029197
C77	C	0.793676	-0.496192	0.362530
C78	C	1.127009	-0.162859	0.695864
C79	C	0.420939	-0.820207	0.092489
C80	C	0.754272	-0.486874	0.425822
C81	C	1.087605	-0.153541	0.759156
C82	C	0.703362	-0.867615	0.045136
C83	C	1.036695	-0.534282	0.378470
C84	C	1.370028	-0.200949	0.711803
C85	C	0.782165	-0.867615	0.045132
C86	C	1.115498	-0.534281	0.378465
C87	C	1.448832	-0.200948	0.711799
C88	C	0.782200	-0.772850	0.139842
C89	C	1.115533	-0.439516	0.473176
C90	C	1.448866	-0.106183	0.806509
C91	C	0.703398	-0.772847	0.139840
C92	C	1.036731	-0.439514	0.473174
C93	C	1.370065	-0.106180	0.806507
C94	C	0.663984	-0.820234	0.092488
C95	C	0.997317	-0.486900	0.425821
C96	C	1.330650	-0.153567	0.759155
C97	C	-0.000214	-0.571403	0.159593
C98	C	0.333119	-0.238070	0.492927
C99	C	0.666452	0.095264	0.826260
C100	C	-0.000219	-0.498956	0.158533
C101	C	0.333115	-0.165623	0.491867
C102	C	0.666448	0.167711	0.825200
C103	C	-0.000224	-0.471210	0.094701
C104	C	0.333109	-0.137877	0.428034
C105	C	0.666443	0.195457	0.761368
C106	C	-0.000206	-0.515918	0.031924
C107	C	0.333128	-0.182585	0.365258
C108	C	0.666461	0.150749	0.698591
C109	C	-0.000194	-0.588363	0.032986
C110	C	0.333140	-0.255030	0.366320
C111	C	0.666473	0.078303	0.699653
C112	C	-0.044099	-0.362956	0.044525
C113	C	0.289234	-0.029623	0.377858
C114	C	0.622568	0.303711	0.711191
C115	C	-0.044116	-0.290511	0.043465
C116	C	0.289218	0.042822	0.376799
C117	C	0.622551	0.376155	0.710132
C118	C	-0.000257	-0.247764	0.091423
C119	C	0.333076	0.085569	0.424757
C120	C	0.666409	0.418902	0.758090
C121	C	0.043607	-0.277469	0.140452
C122	C	0.376941	0.055864	0.473786
C123	C	0.710274	0.389198	0.807119
C124	C	0.043619	-0.349915	0.141514
C125	C	0.376953	-0.016581	0.474848
C126	C	0.710286	0.316752	0.808181
C127	C	-0.000237	-0.392656	0.093543
C128	C	0.333097	-0.059323	0.426876
C129	C	0.666430	0.274011	0.760209
C130	C	-0.000275	-0.124510	0.153047
C131	C	0.333058	0.208823	0.486380
C132	C	0.666391	0.542156	0.819713
C133	C	-0.000275	-0.052062	0.151984
C134	C	0.333058	0.281271	0.485317
C135	C	0.666392	0.614605	0.818651
C136	C	-0.000270	-0.069026	0.025373
C137	C	0.333064	0.264308	0.358707
C138	C	0.666397	0.597641	0.692040
C139	C	-0.000262	-0.141472	0.026438
C140	C	0.333071	0.191861	0.359771
C141	C	0.666404	0.525194	0.693104
C142	C	-0.000269	-0.169210	0.090276
C143	C	0.333065	0.164123	0.423610
C144	C	0.666398	0.497457	0.756943
C145	C	-0.000290	0.052781	0.087017
C146	C	0.333043	0.386115	0.420350
C147	C	0.666377	0.719448	0.753683
C148	C	-0.000279	-0.024321	0.088151
C149	C	0.333054	0.309012	0.421485
C150	C	0.666388	0.642345	0.754818
C151	C	-0.068493	-0.824041	-0.147835
C152	C	0.264841	-0.490708	0.185498
C153	C	0.598174	-0.157374	0.518832
C154	C	-0.068498	-0.822972	-0.220281
C155	C	0.264835	-0.489639	0.113052
C156	C	0.598169	-0.156306	0.446386
C157	C	-0.000259	-0.822433	-0.256518
C158	C	0.333074	-0.489100	0.076815
C159	C	0.666408	-0.155767	0.410148
C160	C	0.067990	-0.822945	-0.220302
C161	C	0.401324	-0.489612	0.113032
C162	C	0.734657	-0.156278	0.446365
C163	C	0.067994	-0.824007	-0.147856
C164	C	0.401327	-0.490674	0.185477
C165	C	0.734660	-0.157340	0.518811
C166	C	0.052004	-0.861427	-0.376752
C167	C	0.385337	-0.528094	-0.043419
C168	C	0.718671	-0.194760	0.289914
C169	C	0.051998	-0.860370	-0.449197
C170	C	0.385331	-0.527036	-0.115864
C171	C	0.718664	-0.193703	0.217469
C172	C	-0.000267	-0.819156	-0.479964
C173	C	0.333067	-0.485822	-0.146631
C174	C	0.666400	-0.152489	0.186702
C175	C	-0.052537	-0.779008	-0.438279
C176	C	0.280796	-0.445674	-0.104945
C177	C	0.614129	-0.112341	0.228388
C178	C	-0.052534	-0.780069	-0.365833
C179	C	0.280799	-0.446736	-0.032500
C180	C	0.614133	-0.113403	0.300834
C181	C	-0.000255	-0.821282	-0.335073
C182	C	0.333078	-0.487948	-0.001740
C183	C	0.666412	-0.154615	0.331593
C184	C	-0.068517	-0.817480	-0.594726
C185	C	0.264816	-0.484147	-0.261393
C186	C	0.598149	-0.150813	0.071941
C187	C	-0.068520	-0.816407	-0.667173
C188	C	0.264814	-0.483074	-0.333839
C189	C	0.598147	-0.149740	-0.000506
C190	C	0.067970	-0.816387	-0.667193
C191	C	0.401304	-0.483054	-0.333859
C192	C	0.734637	-0.149720	-0.000526
C193	C	0.067971	-0.817453	-0.594747
C194	C	0.401304	-0.484120	-0.261413
C195	C	0.734638	-0.150786	0.071920
C196	C	-0.000275	-0.818003	-0.558518
C197	C	0.333058	-0.484669	-0.225185
C198	C	0.666392	-0.151336	0.108149
C199	C	-0.000273	-0.814740	0.219491
C200	C	0.333061	-0.481407	0.552824
C201	C	0.666394	-0.148073	0.886158
C202	C	-0.000280	-0.815867	0.296595
C203	C	0.333053	-0.482534	0.629928
C204	C	0.666387	-0.149200	0.963262
H205	H	0.185180	-0.906158	0.006571
H206	H	0.518513	-0.572825	0.339905
H207	H	0.851847	-0.239492	0.673238
F208	F	-0.000277	-0.154033	0.220988
F209	F	0.333057	0.179300	0.554322
F210	F	0.666390	0.512634	0.887655
F211	F	-0.000208	-0.486388	-0.036010
F212	F	0.333126	-0.153055	0.297323
F213	F	0.666459	0.180279	0.630656
F214	F	0.337985	-0.918016	-0.005268
F215	F	0.671318	-0.584682	0.328065
F216	F	1.004651	-0.251349	0.661399
H217	H	-0.095093	-0.747378	-0.331895
H218	H	0.238240	-0.414045	0.001438
H219	H	0.571573	-0.080712	0.334771
F220	F	0.140627	-0.824554	-0.109320
F221	F	0.473961	-0.491221	0.224014
F222	F	0.807294	-0.157888	0.557347
F223	F	0.661413	-0.918045	-0.005263
F224	F	0.994746	-0.584712	0.328071
F225	F	1.328080	-0.251379	0.661404
F226	F	0.418417	-0.839428	-0.038158
F227	F	0.751751	-0.506094	0.295175
F228	F	1.085084	-0.172761	0.628508
F229	F	0.107626	-0.903101	-0.493556
F230	F	0.440959	-0.569767	-0.160222
F231	F	0.774292	-0.236434	0.173111
H232	H	0.094570	-0.894988	-0.351709
H233	H	0.427903	-0.561655	-0.018375
H234	H	0.761236	-0.228321	0.314958
H235	H	-0.000221	-0.593982	0.211576
H236	H	0.333112	-0.260648	0.544909
H237	H	0.666446	0.072685	0.878242
F238	F	-0.000268	-0.039502	-0.042562
F239	F	0.333065	0.293832	0.290771
F240	F	0.666399	0.627165	0.624104
H241	H	0.571231	-0.837111	-0.022332
H242	H	0.904564	-0.503778	0.311002
H243	H	1.237897	-0.170445	0.644335
H244	H	-0.079836	-0.266331	0.003546
H245	H	0.253497	0.067002	0.336879
H246	H	0.586831	0.400335	0.670212
H247	H	0.814297	-0.734274	0.178396
H248	H	1.147630	-0.400940	0.511730
H249	H	1.480963	-0.067607	0.845063
H250	H	-0.124091	-0.815984	-0.696651
H251	H	0.209242	-0.482650	-0.363318
H252	H	0.542575	-0.149317	-0.029985
H253	H	0.123532	-0.815943	-0.696696
H254	H	0.456865	-0.482609	-0.363363
H255	H	0.790198	-0.149276	-0.030029
F256	F	0.661487	-0.722416	0.190235
F257	F	0.994821	-0.389083	0.523569
F258	F	1.328154	-0.055750	0.856902
H259	H	0.814226	-0.906199	0.006574
H260	H	1.147559	-0.572866	0.339907
H261	H	1.480892	-0.239532	0.673240
F262	F	-0.000179	-0.635937	-0.033824
F263	F	0.333155	-0.302603	0.299510
F264	F	0.666488	0.030730	0.632843
H265	H	0.571197	-0.803341	0.207307
H266	H	0.904531	-0.470007	0.540640
H267	H	1.237864	-0.136674	0.873974
H268	H	0.428245	-0.803313	0.207305
H269	H	0.761578	-0.469980	0.540639
H270	H	1.094912	-0.136647	0.873972
H271	H	-0.095096	-0.745447	-0.463327
H272	H	0.238237	-0.412114	-0.129994
H273	H	0.571571	-0.078781	0.203340
H274	H	-0.124064	-0.824487	-0.118342
H275	H	0.209270	-0.491153	0.214991
H276	H	0.542603	-0.157820	0.548325
F277	F	0.140615	-0.822367	-0.258868
F278	F	0.473948	-0.489034	0.074465
F279	F	0.807281	-0.155700	0.407798
F280	F	-0.090781	-0.408444	-0.006523
F281	F	0.242552	-0.075111	0.326810
F282	F	0.575885	0.258222	0.660144
H283	H	0.123540	-0.817879	-0.565267
H284	H	0.456873	-0.484545	-0.231933
H285	H	0.790206	-0.151212	0.101400
H286	H	0.328209	-0.734237	0.178386
H287	H	0.661542	-0.400904	0.511720
H288	H	0.994875	-0.067570	0.845053
H289	H	0.185246	-0.734216	0.178383
H290	H	0.518579	-0.400883	0.511717
H291	H	0.851912	-0.067550	0.845050
H292	H	-0.000282	-0.015669	0.203100
H293	H	0.333051	0.317665	0.536433
H294	H	0.666384	0.650998	0.869767
H295	H	0.079338	-0.374097	0.181433
H296	H	0.412671	-0.040764	0.514767
H297	H	0.746005	0.292569	0.848100
F298	F	-0.000232	-0.451376	0.225343
F299	F	0.333102	-0.118043	0.558676
F300	F	0.666435	0.215291	0.892009
H301	H	-0.124069	-0.822548	-0.249766
H302	H	0.209264	-0.489215	0.083567
H303	H	0.542598	-0.155881	0.416900
H304	H	-0.124087	-0.817924	-0.565227
H305	H	0.209246	-0.484590	-0.231893
H306	H	0.542580	-0.151257	0.101440
H307	H	0.079321	-0.242666	0.179504
H308	H	0.412655	0.090668	0.512837
H309	H	0.745988	0.424001	0.846171
F310	F	-0.000251	-0.189045	-0.040370
F311	F	0.333082	0.144288	0.292963
F312	F	0.666416	0.477621	0.626297
