data_functionalizedCrystal
_audit_creation_method	'MofGen! by Chris Wilmer'
_symmetry_space_group_name_H-M	'P1'
_symmetry_Int_Tables_number	1
_symmetry_cell_setting	triclinic
loop_
_symmetry_equiv_pos_as_xyz
  x,y,z
_cell_length_a	18.215407
_cell_length_b	15.299816
_cell_length_c	18.215399
_cell_angle_alpha	99.657378
_cell_angle_beta	89.980167
_cell_angle_gamma	80.351325
loop_
_atom_site_label
_atom_site_type_symbol
_atom_site_fract_x
_atom_site_fract_y
_atom_site_fract_z
Zn1	Zn	1.175767	-0.359060	-0.466870
Zn2	Zn	1.196971	-0.509888	-0.365123
Zn3	Zn	1.052704	-0.359090	-0.343821
Zn4	Zn	1.073954	-0.509838	-0.488141
O5	O	1.124849	-0.434469	-0.415989
O6	O	1.281565	-0.379077	-0.453386
O7	O	1.177814	-0.489918	-0.259318
O8	O	1.051262	-0.232875	-0.342327
O9	O	1.297144	-0.489889	-0.378633
O10	O	1.141676	-0.232854	-0.432730
O11	O	1.071822	-0.379127	-0.243667
O12	O	0.952537	-0.379078	-0.362953
O13	O	1.087479	-0.489804	-0.588299
O14	O	0.968149	-0.489832	-0.468984
O15	O	1.162281	-0.379028	-0.572671
O16	O	1.198419	-0.636092	-0.399259
O17	O	1.108039	-0.636055	-0.489639
C18	C	0.933640	-0.434454	-0.415965
C19	C	0.851844	-0.434469	-0.415976
C20	C	0.671811	-0.492229	-0.471140
C21	C	0.594953	-0.492232	-0.471150
C22	C	0.578641	-0.376725	-0.360856
C23	C	0.655497	-0.376719	-0.360850
C24	C	0.702081	-0.434476	-0.415992
C25	C	0.548366	-0.434485	-0.416007
C26	C	0.465033	-0.434488	-0.416017
C27	C	0.785420	-0.434472	-0.415983
C28	C	1.157856	-0.668798	-0.449085
C29	C	1.172044	-0.769046	-0.463268
C30	C	1.023929	-1.051970	-0.314869
C31	C	1.010595	-0.957782	-0.301545
C32	C	1.050956	-0.910594	-0.341974
C33	C	1.104653	-0.957601	-0.395730
C34	C	1.117984	-1.051798	-0.409060
C35	C	1.145012	-0.910422	-0.436165
C36	C	1.198709	-0.957429	-0.489922
C37	C	1.212038	-1.051616	-0.503248
C38	C	1.171677	-1.098805	-0.462819
C39	C	1.131680	-0.816225	-0.422836
C40	C	1.225736	-0.816053	-0.517027
C41	C	1.239070	-0.910240	-0.530351
C42	C	1.316804	-0.434485	-0.416013
C43	C	1.398604	-0.434492	-0.416023
C44	C	1.124885	-0.434407	-0.607933
C45	C	1.124900	-0.434380	-0.689728
C46	C	1.091733	-0.199224	-0.382779
C47	C	1.077621	-0.098977	-0.368628
C48	C	1.163859	-0.376645	-0.869778
C49	C	1.163864	-0.376619	-0.946633
C50	C	1.085974	-0.491976	-0.962896
C51	C	1.085965	-0.491997	-0.886042
C52	C	1.124912	-0.434333	-0.839485
C53	C	1.124926	-0.434286	-0.993194
C54	C	1.124931	-0.434258	-1.076524
C55	C	1.124906	-0.434360	-0.756150
C56	C	1.124846	-0.434466	-0.224782
C57	C	1.124938	-0.434238	-0.142951
H58	H	0.540704	-0.329703	-0.315960
C59	C	0.722515	-0.554892	-0.530927
C60	C	0.796305	-0.542545	-0.519109
C61	C	0.843033	-0.600262	-0.574167
H62	H	0.708186	-0.541823	-0.578575
H63	H	0.718495	-0.615496	-0.528633
H64	H	0.800322	-0.481956	-0.521411
H65	H	0.810657	-0.555620	-0.471472
H66	H	0.839012	-0.660866	-0.571873
H67	H	0.828697	-0.587189	-0.621812
H68	H	0.893105	-0.591899	-0.566153
H69	H	0.570311	-0.539259	-0.516058
H70	H	0.966874	-0.919512	-0.257777
C71	C	1.043761	-0.554732	-1.013374
C72	C	1.072336	-0.643972	-1.007260
C73	C	1.033463	-0.701810	-1.053741
H74	H	1.049316	-0.546583	-1.063513
H75	H	0.992448	-0.541589	-0.998899
H76	H	1.123636	-0.657111	-1.021739
H77	H	1.066780	-0.652150	-0.957132
H78	H	0.982150	-0.688667	-1.039266
H79	H	1.039021	-0.693653	-1.103877
H80	H	1.052841	-0.762365	-1.049594
H81	H	0.680142	-0.329683	-0.315940
H82	H	1.195570	-0.329689	-0.831873
C83	C	1.043692	-0.554536	-0.853000
C84	C	1.052003	-0.542191	-0.775727
C85	C	1.013063	-0.599772	-0.745262
H86	H	1.062953	-0.615169	-0.874064
H87	H	0.992370	-0.541322	-0.863678
H88	H	1.103314	-0.555412	-0.765055
H89	H	1.032738	-0.481570	-0.754643
H90	H	0.961742	-0.586558	-0.755941
H91	H	1.032328	-0.660402	-0.766332
H92	H	1.018692	-0.591398	-0.692829
C93	C	1.206072	-0.314017	-0.979660
C94	C	1.197726	-0.326316	-1.056928
C95	C	1.236588	-0.268648	-1.087374
H96	H	1.257399	-0.327162	-0.969021
H97	H	1.186755	-0.253404	-0.958545
H98	H	1.217046	-0.386915	-1.078036
H99	H	1.146408	-0.313164	-1.067587
H100	H	1.217271	-0.208035	-1.066259
H101	H	1.287913	-0.281798	-1.076731
H102	H	1.230925	-0.276979	-1.139802
H103	H	1.087960	-0.777960	-0.379067
C104	C	0.980216	-1.103365	-0.271030
C105	C	1.003397	-1.195913	-0.294199
C106	C	0.963150	-1.243287	-0.253821
H107	H	0.928570	-1.088082	-0.279545
H108	H	0.988849	-1.088014	-0.219404
H109	H	0.994759	-1.211258	-0.345813
H110	H	1.055038	-1.211223	-0.285682
H111	H	0.971782	-1.227936	-0.202195
H112	H	0.911505	-1.227997	-0.262339
H113	H	0.978877	-1.306086	-0.269531
C114	C	1.036403	-0.808333	-0.327371
C115	C	0.980754	-0.777265	-0.271627
C116	C	0.967335	-0.683064	-0.258142
H117	H	1.020592	-0.786883	-0.371771
H118	H	1.080863	-0.786955	-0.311622
H119	H	0.936303	-0.798633	-0.287378
H120	H	0.996549	-0.798690	-0.227215
H121	H	1.011795	-0.661687	-0.242394
H122	H	0.951527	-0.661623	-0.302547
H123	H	0.929582	-0.661972	-0.220314
H124	H	1.182533	-1.175500	-0.473662
H125	H	1.255759	-1.089887	-0.547024
C126	C	1.297307	-0.961446	-0.588713
C127	C	1.300327	-1.054032	-0.591741
C128	C	1.353958	-1.101230	-0.645501
H129	H	1.344616	-0.946077	-0.575861
H130	H	1.284321	-0.946035	-0.635986
H131	H	1.313317	-1.069436	-0.544478
H132	H	1.253032	-1.069427	-0.604603
H133	H	1.340972	-1.085819	-0.692775
H134	H	1.401262	-1.085854	-0.632644
H135	H	1.356009	-1.164054	-0.647568
H136	H	1.258600	-0.777633	-0.549950
