data_functionalizedCrystal
_audit_creation_method	'MofGen! by Chris Wilmer'
_symmetry_space_group_name_H-M	'P1'
_symmetry_Int_Tables_number	1
_symmetry_cell_setting	triclinic
loop_
_symmetry_equiv_pos_as_xyz
  x,y,z
_cell_length_a	11.026660
_cell_length_b	11.026607
_cell_length_c	15.455313
_cell_angle_alpha	93.255562
_cell_angle_beta	86.732596
_cell_angle_gamma	108.585426
loop_
_atom_site_label
_atom_site_type_symbol
_atom_site_fract_x
_atom_site_fract_y
_atom_site_fract_z
O1	O	1.731087	0.529251	-0.072132
O2	O	1.364510	0.468491	-0.072132
O3	O	1.517417	0.315582	-0.072129
O4	O	1.578180	0.682161	-0.072135
O5	O	1.508663	0.324280	0.072133
O6	O	1.355756	0.477189	0.072130
O7	O	1.722333	0.537949	0.072130
Cu8	Cu	1.538245	0.508363	0.085302
Cu9	Cu	1.548598	0.498077	-0.085304
O10	O	1.569426	0.690859	0.072127
C11	C	1.312474	0.461631	-0.000002
C12	C	1.170461	0.428216	-0.000002
C13	C	0.970035	0.485957	-0.000005
C14	C	1.116813	0.520496	-0.000004
C15	C	1.501830	0.272271	0.000001
C16	C	1.468414	0.130257	-0.000002
C17	C	1.560683	0.076607	-0.000003
C18	C	1.526147	-0.070172	-0.000006
C19	C	1.774369	0.544809	-0.000002
C20	C	1.916382	0.578224	-0.000008
C21	C	1.585013	0.734169	-0.000005
C22	C	1.618430	0.876182	-0.000008
N23	N	1.530973	0.515599	0.205298
N24	N	1.555878	0.490833	-0.205300
C25	C	1.595969	0.450675	0.250693
C26	C	1.590483	0.456162	0.341501
C27	C	1.520009	0.526581	0.386911
C28	C	1.455005	0.591507	0.341509
C29	C	1.460484	0.586012	0.250703
C30	C	1.496353	0.550264	0.658492
C31	C	1.490882	0.555757	0.749305
C32	C	1.626359	0.420409	0.749290
C33	C	1.631838	0.414927	0.658482
C34	C	1.566829	0.479848	0.613088
N35	N	1.514403	0.532194	0.479732
N36	N	1.572427	0.474226	0.520270
H37	H	1.107741	0.323642	-0.000058
H38	H	0.907305	0.381395	0.000009
H39	H	1.397616	0.648839	0.378488
O40	O	1.397513	0.649290	0.206642
C41	C	1.372846	0.852822	0.178883
C42	C	1.444288	0.781328	0.228820
H43	H	1.410617	0.959583	0.196810
H44	H	1.388887	0.836906	0.106172
H45	H	1.266067	0.814877	0.196746
H46	H	1.551088	0.819227	0.211030
H47	H	1.428140	0.797241	0.301519
O48	O	1.401333	-0.144810	-0.000048
C49	C	1.180845	-0.151195	0.000004
C50	C	1.322141	-0.066519	0.000031
H51	H	1.116778	-0.087931	0.000086
H52	H	1.164174	-0.217781	-0.060386
H53	H	1.156981	-0.210572	0.060361
H54	H	1.346103	-0.007063	-0.060285
H55	H	1.338739	-0.000016	0.060461
H56	H	1.179538	0.625066	-0.000000
H57	H	0.979112	0.682788	-0.000004
O58	O	1.685455	0.151373	-0.000158
C59	C	1.892392	0.205284	-0.074875
C60	C	1.751112	0.120553	-0.074815
H61	H	1.945522	0.180378	-0.135219
H62	H	1.898095	0.310346	-0.074931
H63	H	1.938171	0.187794	-0.014475
H64	H	1.705244	0.137931	-0.135205
H65	H	1.745498	0.015520	-0.074714
H66	H	1.433491	0.613106	0.786274
H67	H	1.723003	-0.061095	-0.000072
O68	O	1.343659	0.055475	-0.000159
C69	C	1.145788	-0.007428	-0.074873
C70	C	1.287063	0.077305	-0.074813
H71	H	1.099981	0.010212	-0.135215
H72	H	1.140088	-0.112498	-0.074932
H73	H	1.092682	0.017340	-0.014471
H74	H	1.340257	0.052650	-0.135204
H75	H	1.292669	0.182352	-0.074708
H76	H	1.653363	0.393338	0.213726
O77	O	1.653758	0.393082	0.385463
C78	C	1.788688	0.258233	0.375866
C79	C	1.717103	0.329631	0.325971
H80	H	1.839898	0.206893	0.327788
H81	H	1.861872	0.329733	0.418336
H82	H	1.717201	0.185141	0.418421
H83	H	1.788494	0.402722	0.283369
H84	H	1.643899	0.258055	0.283556
O85	O	1.700305	0.346411	0.614508
C86	C	1.834160	0.212804	0.624079
C87	C	1.756640	0.290321	0.673988
H88	H	1.879750	0.167456	0.672147
H89	H	1.767845	0.134450	0.581604
H90	H	1.912354	0.279204	0.581527
H91	H	1.678442	0.224023	0.716587
H92	H	1.823038	0.368688	0.716408
O93	O	1.433184	0.613454	0.614539
C94	C	1.298176	0.748224	0.624145
C95	C	1.369680	0.676742	0.674034
H96	H	1.246792	0.799388	0.672225
H97	H	1.369613	0.821437	0.581638
H98	H	1.225108	0.676679	0.581626
H99	H	1.442746	0.748190	0.716600
H100	H	1.298167	0.603509	0.716486
H101	H	1.679285	0.367552	0.786258
