data_functionalizedCrystal
_audit_creation_method	'MofGen! by Chris Wilmer'
_symmetry_space_group_name_H-M	'P1'
_symmetry_Int_Tables_number	1
_symmetry_cell_setting	triclinic
loop_
_symmetry_equiv_pos_as_xyz
  x,y,z
_cell_length_a	10.654550
_cell_length_b	14.971486
_cell_length_c	9.730223
_cell_angle_alpha	89.994218
_cell_angle_beta	90.009372
_cell_angle_gamma	95.950484
loop_
_atom_site_label
_atom_site_type_symbol
_atom_site_fract_x
_atom_site_fract_y
_atom_site_fract_z
O1	O	1.666496	-0.125632	0.114404
O2	O	1.300889	-0.137601	0.114382
O3	O	1.493492	-0.001470	0.114383
O4	O	1.473893	-0.261763	0.114402
O5	O	1.493470	-0.001464	-0.114196
O6	O	1.300868	-0.137595	-0.114198
O7	O	1.666475	-0.125626	-0.114176
Zn8	Zn	1.483668	-0.131609	-0.150479
Zn9	Zn	1.483696	-0.131618	0.150685
O10	O	1.473872	-0.261757	-0.114178
C11	C	1.254090	-0.136719	0.000089
C12	C	1.114675	-0.134090	0.000080
C13	C	1.492605	0.031863	0.000094
C14	C	1.489978	0.131174	0.000095
N15	N	1.483658	-0.131603	-0.356016
C16	C	1.034329	-0.214242	0.000106
C17	C	0.903335	-0.211766	0.000130
C18	C	0.933045	-0.048979	0.000107
C19	C	1.064036	-0.051456	0.000074
C20	C	1.084968	-0.296876	0.000112
C21	C	1.004621	-0.377035	0.000139
C22	C	0.873626	-0.374559	0.000163
C23	C	0.822979	-0.291924	0.000159
C24	C	1.713274	-0.126508	0.000120
C25	C	1.852689	-0.129137	0.000137
C26	C	1.474759	-0.295090	0.000115
C27	C	1.477386	-0.394401	0.000123
C28	C	1.603127	0.187784	0.000101
C29	C	1.600651	0.281097	0.000114
C30	C	1.485026	0.317798	0.000112
C31	C	1.371868	0.261181	0.000111
C32	C	1.374345	0.167870	0.000107
C33	C	1.366714	0.455672	0.000115
C34	C	1.364237	0.548989	0.000117
C35	C	1.593020	0.568898	0.000123
C36	C	1.595497	0.475587	0.000119
C37	C	1.482339	0.418977	0.000115
C38	C	1.398401	-0.191872	-0.571862
C39	C	1.398369	-0.191864	-0.427979
C40	C	1.568976	-0.071341	-0.427943
C41	C	1.569002	-0.071346	-0.571823
C42	C	1.313115	-0.252142	-0.643817
C43	C	1.227794	-0.312403	-0.571900
C44	C	1.227762	-0.312395	-0.428017
C45	C	1.313050	-0.252126	-0.356051
N46	N	1.483716	-0.131617	0.356221
H47	H	1.045867	-0.444313	0.000131
H48	H	1.282207	0.121779	0.000102
H49	H	1.313136	-0.252156	-0.760974
H50	H	0.716313	-0.289914	0.000157
N51	N	1.727841	0.148205	0.000090
H52	H	1.777430	0.168788	0.084827
H53	H	1.712138	0.080510	0.000029
H54	H	1.638416	-0.022273	-0.369339
H55	H	1.158348	-0.361468	-0.630502
N56	N	0.786995	-0.461023	0.000125
H57	H	0.803318	-0.497055	0.084845
H58	H	0.696353	-0.446868	0.000070
N59	N	1.722690	0.342155	0.000113
H60	H	1.796313	0.304746	0.000101
H61	H	1.726626	0.381309	-0.084624
H62	H	0.891796	0.018298	0.000127
H63	H	1.158282	-0.361456	-0.369463
H64	H	1.129456	0.013811	0.000057
N65	N	1.313001	-0.252113	-0.200863
H66	H	1.331346	-0.313005	-0.166175
H67	H	1.379968	-0.204753	-0.166299
H68	H	1.270084	0.578868	0.000093
H69	H	1.638472	-0.022280	-0.630379
H70	H	1.191628	-0.298901	0.000099
H71	H	1.689650	0.445708	0.000111
H72	H	1.277724	0.291071	0.000118
N73	N	1.715068	0.629956	0.000132
H74	H	1.765525	0.618060	0.084861
H75	H	1.765391	0.618048	-0.084664
N76	N	1.244668	0.394611	0.000120
H77	H	1.171043	0.432018	0.000115
H78	H	1.240706	0.355468	-0.084619
