data_functionalizedCrystal
_audit_creation_method	'MofGen! by Chris Wilmer'
_symmetry_space_group_name_H-M	'P1'
_symmetry_Int_Tables_number	1
_symmetry_cell_setting	triclinic
loop_
_symmetry_equiv_pos_as_xyz
  x,y,z
_cell_length_a	25.639243
_cell_length_b	25.639240
_cell_length_c	12.759401
_cell_angle_alpha	90.022218
_cell_angle_beta	90.008873
_cell_angle_gamma	90.035481
loop_
_atom_site_label
_atom_site_type_symbol
_atom_site_fract_x
_atom_site_fract_y
_atom_site_fract_z
Zn1	Zn	0.799210	-0.208196	0.594050
Zn2	Zn	1.132543	0.125138	0.927383
Zn3	Zn	1.465877	0.458471	1.260716
Zn4	Zn	0.799153	-0.295609	0.418331
Zn5	Zn	1.132487	0.037725	0.751664
Zn6	Zn	1.465820	0.371058	1.084998
Zn7	Zn	0.711797	-0.208193	0.418371
Zn8	Zn	1.045130	0.125140	0.751705
Zn9	Zn	1.378464	0.458473	1.085038
Zn10	Zn	0.711740	-0.295606	0.593955
Zn11	Zn	1.045074	0.037727	0.927288
Zn12	Zn	1.378407	0.371061	1.260621
O13	O	0.755475	-0.251901	0.506177
O14	O	1.088809	0.081432	0.839510
O15	O	1.422142	0.414766	1.172843
O16	O	0.872368	-0.219793	0.570763
O17	O	1.205701	0.113540	0.904096
O18	O	1.539034	0.446873	1.237430
O19	O	0.787565	-0.284013	0.271315
O20	O	1.120899	0.049320	0.604649
O21	O	1.454232	0.382654	0.937982
O22	O	0.723440	-0.135028	0.441732
O23	O	1.056773	0.198305	0.775066
O24	O	1.390107	0.531638	1.108399
O25	O	0.872326	-0.284015	0.441663
O26	O	1.205659	0.049318	0.774997
O27	O	1.538993	0.382651	1.108330
O28	O	0.787662	-0.135030	0.570802
O29	O	1.120995	0.198303	0.904136
O30	O	1.454329	0.531637	1.237469
O31	O	0.723385	-0.219789	0.271345
O32	O	1.056718	0.113544	0.604678
O33	O	1.390052	0.446877	0.938012
O34	O	0.638624	-0.219787	0.441640
O35	O	0.971958	0.113547	0.774974
O36	O	1.305291	0.446880	1.108307
O37	O	0.723344	-0.284011	0.740988
O38	O	1.056677	0.049323	1.074322
O39	O	1.390010	0.382656	1.407655
O40	O	0.638583	-0.284008	0.570640
O41	O	0.971916	0.049325	0.903974
O42	O	1.305249	0.382658	1.237307
O43	O	0.787607	-0.219791	0.741058
O44	O	1.120940	0.113543	1.074391
O45	O	1.454274	0.446876	1.407725
O46	O	0.787510	-0.368774	0.441571
O47	O	1.120844	-0.035440	0.774905
O48	O	1.454177	0.297893	1.108238
O49	O	0.723289	-0.368772	0.570601
O50	O	1.056622	-0.035438	0.903934
O51	O	1.389955	0.297895	1.237268
C52	C	0.755401	-0.387743	0.506094
C53	C	1.088735	-0.054410	0.839428
C54	C	1.422068	0.278923	1.172761
C55	C	0.755418	-0.445857	0.506094
C56	C	1.088751	-0.112524	0.839428
C57	C	1.422084	0.220809	1.172761
C58	C	0.619633	-0.251897	0.506135
C59	C	0.952966	0.081436	0.839468
C60	C	1.286299	0.414769	1.172802
C61	C	0.561519	-0.251908	0.506142
C62	C	0.894852	0.081425	0.839475
C63	C	1.228185	0.414758	1.172809
C64	C	0.788932	-0.806183	0.573505
C65	C	1.122266	-0.472850	0.906838
C66	C	1.455599	-0.139516	1.240171
C67	C	0.788948	-0.860787	0.573526
C68	C	1.122281	-0.527454	0.906859
C69	C	1.455614	-0.194121	1.240193
O70	O	0.817355	-0.888992	0.630756
O71	O	1.150688	-0.555659	0.964089
O72	O	1.484022	-0.222325	1.297423
N73	N	0.755548	-0.888140	0.506278
N74	N	1.088881	-0.554807	0.839612
N75	N	1.422214	-0.221473	1.172945
C76	C	0.722127	-0.860885	0.439012
C77	C	1.055460	-0.527552	0.772346
C78	C	1.388793	-0.194219	1.105679
O79	O	0.693719	-0.889165	0.381815
O80	O	1.027052	-0.555832	0.715149
O81	O	1.360385	-0.222498	1.048482
C82	C	0.722109	-0.806282	0.438997
C83	C	1.055442	-0.472949	0.772330
C84	C	1.388776	-0.139615	1.105664
C85	C	0.755515	-0.778932	0.506242
C86	C	1.088848	-0.445599	0.839575
C87	C	1.422181	-0.112266	1.172908
C88	C	0.822335	-0.778833	0.640745
C89	C	1.155668	-0.445500	0.974078
C90	C	1.489001	-0.112166	1.307411
C91	C	0.822320	-0.724233	0.640722
C92	C	1.155653	-0.390899	0.974055
C93	C	1.488987	-0.057566	1.307388
C94	C	0.788902	-0.696982	0.573459
C95	C	1.122236	-0.363649	0.906792
C96	C	1.455569	-0.030315	1.240125
C97	C	0.755500	-0.724332	0.506219
C98	C	1.088833	-0.390998	0.839552
C99	C	1.422167	-0.057665	1.172885
C100	C	0.688686	-0.779029	0.371737
C101	C	1.022019	-0.445695	0.705070
C102	C	1.355352	-0.112362	1.038404
C103	C	0.688671	-0.724422	0.371728
C104	C	1.022004	-0.391088	0.705062
C105	C	1.355337	-0.057755	1.038395
C106	C	0.722076	-0.697072	0.438973
C107	C	1.055410	-0.363738	0.772306
C108	C	1.388743	-0.030405	1.105639
C109	C	0.722068	-0.642481	0.438933
C110	C	1.055401	-0.309147	0.772266
C111	C	1.388734	0.024186	1.105599
N112	N	0.755467	-0.615128	0.506180
N113	N	1.088801	-0.281795	0.839514
N114	N	1.422134	0.051539	1.172847
C115	C	0.788885	-0.642379	0.573443
C116	C	1.122218	-0.309045	0.906777
C117	C	1.455551	0.024288	1.240110
C118	C	0.722166	-0.975556	0.439051
C119	C	1.055499	-0.642223	0.772384
C120	C	1.388832	-0.308889	1.105717
C121	C	0.722186	-1.030158	0.439060
C122	C	1.055519	-0.696825	0.772393
C123	C	1.388852	-0.363492	1.105727
C124	C	0.789006	-1.030056	0.573575
C125	C	1.122339	-0.696723	0.906909
C126	C	1.455673	-0.363390	1.240242
C127	C	0.788988	-0.975453	0.573560
C128	C	1.122322	-0.642120	0.906893
C129	C	1.455655	-0.308786	1.240227
C130	C	0.755565	-0.948203	0.506299
C131	C	1.088899	-0.614870	0.839632
C132	C	1.422232	-0.281537	1.172965
C133	C	0.788851	-0.527713	0.573389
C134	C	1.122185	-0.194380	0.906723
C135	C	1.455518	0.138953	1.240056
C136	C	0.788835	-0.473108	0.573357
C137	C	1.122168	-0.139775	0.906691
C138	C	1.455502	0.193559	1.240024
C139	C	0.722013	-0.473215	0.438846
C140	C	1.055346	-0.139882	0.772180
C141	C	1.388680	0.193452	1.105513
C142	C	0.722031	-0.527815	0.438874
C143	C	1.055364	-0.194482	0.772207
C144	C	1.388698	0.138851	1.105541
C145	C	0.755452	-0.555063	0.506154
C146	C	1.088785	-0.221730	0.839487
C147	C	1.422119	0.111603	1.172821
O148	O	0.693673	-0.614241	0.381735
O149	O	1.027006	-0.280908	0.715068
O150	O	1.360340	0.052426	1.048401
O151	O	0.817283	-0.614092	0.630640
O152	O	1.150617	-0.280759	0.963974
O153	O	1.483950	0.052574	1.297307
C154	C	0.201172	-0.218513	0.573511
C155	C	0.534505	0.114820	0.906844
C156	C	0.867838	0.448154	1.240178
C157	C	0.146567	-0.218513	0.573517
C158	C	0.479901	0.114821	0.906851
C159	C	0.813234	0.448154	1.240184
O160	O	0.118344	-0.190109	0.630745
O161	O	0.451678	0.143225	0.964078
O162	O	0.785011	0.476558	1.297412
N163	N	0.119236	-0.251899	0.506206
N164	N	0.452570	0.081434	0.839539
N165	N	0.785903	0.414767	1.172872
C166	C	0.146512	-0.285285	0.438875
C167	C	0.479845	0.048048	0.772209
C168	C	0.813179	0.381382	1.105542
O169	O	0.118251	-0.313683	0.381621
O170	O	0.451584	0.019651	0.714954
O171	O	0.784918	0.352984	1.048288
C172	C	0.201115	-0.285282	0.438864
C173	C	0.534449	0.048051	0.772198
C174	C	0.867782	0.381384	1.105531
C175	C	0.228444	-0.251897	0.506188
C176	C	0.561777	0.081436	0.839521
C177	C	0.895110	0.414769	1.172855
C178	C	0.228500	-0.185130	0.640828
C179	C	0.561833	0.148203	0.974162
C180	C	0.895167	0.481537	1.307495
C181	C	0.283101	-0.185131	0.640823
C182	C	0.616434	0.148202	0.974156
C183	C	0.949767	0.481535	1.307490
C184	C	0.310373	-0.218516	0.573500
C185	C	0.643706	0.114818	0.906833
C186	C	0.977039	0.448151	1.240167
C187	C	0.283044	-0.251898	0.506183
C188	C	0.616378	0.081435	0.839516
C189	C	0.949711	0.414768	1.172849
C190	C	0.228390	-0.318665	0.371529
C191	C	0.561724	0.014668	0.704863
C192	C	0.895057	0.348002	1.038196
C193	C	0.282997	-0.318659	0.371524
C194	C	0.616331	0.014674	0.704857
C195	C	0.949664	0.348007	1.038190
C196	C	0.310326	-0.285274	0.438847
C197	C	0.643659	0.048059	0.772181
C198	C	0.976992	0.381393	1.105514
C199	C	0.364917	-0.285284	0.438854
C200	C	0.698250	0.048049	0.772188
C201	C	1.031584	0.381383	1.105521
N202	N	0.392248	-0.251897	0.506166
N203	N	0.725582	0.081436	0.839500
N204	N	1.058915	0.414770	1.172833
C205	C	0.364976	-0.218513	0.573489
C206	C	0.698309	0.114820	0.906822
C207	C	1.031643	0.448154	1.240156
C208	C	0.031842	-0.285287	0.438902
C209	C	0.365175	0.048046	0.772236
C210	C	0.698508	0.381379	1.105569
C211	C	-0.022761	-0.285293	0.438918
C212	C	0.310573	0.048040	0.772251
C213	C	0.643906	0.381374	1.105584
C214	C	-0.022702	-0.218520	0.573559
C215	C	0.310632	0.114814	0.906892
C216	C	0.643965	0.448147	1.240225
C217	C	0.031901	-0.218517	0.573548
C218	C	0.365235	0.114816	0.906881
C219	C	0.698568	0.448150	1.240214
C220	C	0.059173	-0.251900	0.506214
C221	C	0.392506	0.081433	0.839547
C222	C	0.725839	0.414766	1.172881
C223	C	0.479641	-0.218518	0.573473
C224	C	0.812974	0.114815	0.906807
C225	C	1.146308	0.448148	1.240140
C226	C	0.534247	-0.218524	0.573465
C227	C	0.867580	0.114809	0.906798
C228	C	1.200913	0.448142	1.240132
C229	C	0.534183	-0.285295	0.438820
C230	C	0.867516	0.048038	0.772154
C231	C	1.200849	0.381371	1.105487
C232	C	0.479582	-0.285292	0.438832
C233	C	0.812916	0.048042	0.772166
C234	C	1.146249	0.381375	1.105499
C235	C	0.452313	-0.251899	0.506162
C236	C	0.785646	0.081434	0.839495
C237	C	1.118979	0.414768	1.172829
O238	O	0.393175	-0.313672	0.381653
O239	O	0.726508	0.019662	0.714986
O240	O	1.059841	0.352995	1.048320
O241	O	0.393244	-0.190115	0.630724
O242	O	0.726577	0.143218	0.964057
O243	O	1.059911	0.476551	1.297391
C244	C	0.891848	-0.251905	0.506219
C245	C	1.225182	0.081429	0.839552
C246	C	1.558515	0.414762	1.172886
C247	C	0.949962	-0.251906	0.506237
C248	C	1.283296	0.081427	0.839571
C249	C	1.616629	0.414760	1.172904
C250	C	0.755475	-0.251901	0.780210
C251	C	1.088809	0.081433	1.113543
C252	C	1.422142	0.414766	1.446877
C253	C	0.755475	-0.251900	0.896987
C254	C	1.088809	0.081433	1.230320
C255	C	1.422142	0.414766	1.563653
C256	C	0.755564	-0.115528	0.506282
C257	C	1.088897	0.217805	0.839616
C258	C	1.422230	0.551139	1.172949
C259	C	0.755601	-0.057414	0.506327
C260	C	1.088935	0.275920	0.839661
C261	C	1.422268	0.609253	1.172994
C262	C	0.788935	-0.218468	0.951887
C263	C	1.122268	0.114865	1.285220
C264	C	1.455601	0.448198	1.618553
C265	C	0.788932	-0.218470	1.061611
C266	C	1.122266	0.114863	1.394944
C267	C	1.455599	0.448196	1.728277
C268	C	0.722010	-0.285341	1.061525
C269	C	1.055343	0.047992	1.394858
C270	C	1.388677	0.381325	1.728192
C271	C	0.722010	-0.285336	0.951803
C272	C	1.055343	0.047997	1.285136
C273	C	1.388677	0.381331	1.618470
C274	C	0.822400	-0.185033	0.897070
C275	C	1.155733	0.148301	1.230404
C276	C	1.489066	0.481634	1.563737
C277	C	0.855862	-0.151598	0.951970
C278	C	1.189195	0.181735	1.285304
C279	C	1.522529	0.515068	1.618637
C280	C	0.855860	-0.151600	1.061694
C281	C	1.189193	0.181733	1.395028
C282	C	1.522527	0.515066	1.728361
C283	C	0.822395	-0.185037	1.116518
C284	C	1.155729	0.148296	1.449852
C285	C	1.489062	0.481630	1.783185
C286	C	0.755472	-0.251912	1.233209
C287	C	1.088805	0.081422	1.566543
C288	C	1.422138	0.414755	1.899876
C289	C	0.755473	-0.251908	1.116433
C290	C	1.088806	0.081426	1.449766
C291	C	1.422140	0.414759	1.783099
H292	H	0.816040	-0.450842	0.628116
H293	H	1.149373	-0.117508	0.961449
H294	H	1.482707	0.215825	1.294782
H295	H	0.883105	-0.124372	0.907325
H296	H	1.216438	0.208961	1.240659
H297	H	1.549771	0.542294	1.573992
H298	H	0.883103	-0.124373	1.106391
H299	H	1.216436	0.208961	1.439724
H300	H	1.549769	0.542294	1.773058
H301	H	0.822406	-0.185028	0.807727
H302	H	1.155740	0.148305	1.141061
H303	H	1.489073	0.481638	1.474394
H304	H	0.206149	-0.345850	0.316706
H305	H	0.539482	-0.012517	0.650039
H306	H	0.872816	0.320816	0.983373
H307	H	0.305199	-0.345844	0.316689
H308	H	0.638532	-0.012511	0.650023
H309	H	0.971865	0.320823	0.983356
H310	H	0.822390	-0.185030	1.205863
H311	H	1.155723	0.148304	1.539196
H312	H	1.489057	0.481637	1.872530
H313	H	0.206301	-0.157942	0.695651
H314	H	0.539634	0.175392	1.028984
H315	H	0.872968	0.508725	1.362318
H316	H	0.694806	-0.451019	0.384078
H317	H	1.028140	-0.117686	0.717412
H318	H	1.361473	0.215648	1.050745
H319	H	0.556398	-0.312477	0.384010
H320	H	0.889731	0.020856	0.717343
H321	H	1.223064	0.354190	1.050677
H322	H	0.694765	-0.312563	1.106171
H323	H	1.028098	0.020770	1.439505
H324	H	1.361431	0.354103	1.772838
H325	H	0.694756	-0.312551	0.907102
H326	H	1.028090	0.020782	1.240436
H327	H	1.361423	0.354115	1.573769
H328	H	0.457330	-0.312483	0.384024
H329	H	0.790664	0.020851	0.717357
H330	H	1.123997	0.354184	1.050690
H331	H	0.054149	-0.191331	0.628367
H332	H	0.387482	0.142003	0.961700
H333	H	0.720815	0.475336	1.295033
H334	H	-0.044917	-0.191335	0.628374
H335	H	0.288417	0.141998	0.961708
H336	H	0.621750	0.475332	1.295041
H337	H	0.694950	-0.953372	0.384270
H338	H	1.028284	-0.620039	0.717603
H339	H	1.361617	-0.286705	1.050936
H340	H	0.816062	-0.549892	0.628182
H341	H	1.149396	-0.216559	0.961516
H342	H	1.482729	0.116774	1.294849
H343	H	0.849520	-0.701967	0.695481
H344	H	1.182853	-0.368634	1.028814
H345	H	1.516187	-0.035301	1.362148
H346	H	0.849547	-0.801015	0.695524
H347	H	1.182881	-0.467681	1.028858
H348	H	1.516214	-0.134348	1.362191
H349	H	0.816215	-1.052254	0.628346
H350	H	1.149549	-0.718920	0.961680
H351	H	1.482882	-0.385587	1.295013
H352	H	0.816190	-0.953188	0.628317
H353	H	1.149523	-0.619855	0.961650
H354	H	1.482856	-0.286521	1.294984
H355	H	0.694989	-1.052422	0.384291
H356	H	1.028322	-0.719089	0.717625
H357	H	1.361656	-0.385755	1.050958
H358	H	0.661483	-0.801288	0.316979
H359	H	0.994817	-0.467954	0.650312
H360	H	1.328150	-0.134621	0.983645
H361	H	0.661452	-0.702238	0.316957
H362	H	0.994785	-0.368904	0.650290
H363	H	1.328119	-0.035571	0.983624
H364	H	0.054042	-0.312477	0.384074
H365	H	0.387376	0.020857	0.717407
H366	H	0.720709	0.354190	1.050740
H367	H	-0.045007	-0.312484	0.384108
H368	H	0.288326	0.020849	0.717441
H369	H	0.621660	0.354182	1.050774
H370	H	0.694833	-0.550085	0.384110
H371	H	1.028167	-0.216752	0.717443
H372	H	1.361500	0.116582	1.050776
H373	H	0.556495	-0.191337	0.628292
H374	H	0.889828	0.141996	0.961625
H375	H	1.223162	0.475329	1.294958
H376	H	0.305347	-0.157945	0.695643
H377	H	0.638680	0.175388	1.028977
H378	H	0.972013	0.508722	1.362310
H379	H	0.457445	-0.191325	0.628297
H380	H	0.790778	0.142008	0.961630
H381	H	1.124111	0.475341	1.294963
