data_functionalizedCrystal
_audit_creation_method	'MofGen! by Chris Wilmer'
_symmetry_space_group_name_H-M	'P1'
_symmetry_Int_Tables_number	1
_symmetry_cell_setting	triclinic
loop_
_symmetry_equiv_pos_as_xyz
  x,y,z
_cell_length_a	10.685980
_cell_length_b	12.594516
_cell_length_c	10.686551
_cell_angle_alpha	85.596700
_cell_angle_beta	81.591741
_cell_angle_gamma	94.382996
loop_
_atom_site_label
_atom_site_type_symbol
_atom_site_fract_x
_atom_site_fract_y
_atom_site_fract_z
Zn1	Zn	1.995784	-0.238568	-0.866716
Zn2	Zn	1.979357	-0.431389	-0.654462
Zn3	Zn	1.767210	-0.268192	-0.638182
Zn4	Zn	1.783481	-0.431285	-0.850372
O5	O	1.881458	-0.342358	-0.752433
O6	O	2.171238	-0.251791	-0.852213
O7	O	1.937532	-0.422181	-0.474671
O8	O	1.797596	-0.115310	-0.668524
O9	O	2.159170	-0.393456	-0.696271
O10	O	1.965528	-0.093546	-0.836427
O11	O	1.781668	-0.302281	-0.462710
O12	O	1.591735	-0.302181	-0.652676
O13	O	1.825327	-0.393280	-1.030172
O14	O	1.603689	-0.422005	-0.808572
O15	O	1.981305	-0.251691	-1.042179
O16	O	1.953309	-0.580327	-0.680423
O17	O	1.809399	-0.580251	-0.824358
C18	C	1.551653	-0.365297	-0.727085
C19	C	1.410564	-0.375134	-0.716270
C20	C	1.881374	-0.618906	-0.752414
C21	C	1.881457	-0.737203	-0.752457
C22	C	1.803172	-0.806458	-0.830683
C23	C	1.763351	-0.887554	-0.712484
C24	C	1.921396	-0.866897	-0.870686
C25	C	1.841570	-0.816750	-0.634192
C26	C	1.999675	-0.796077	-0.792476
C27	C	1.959891	-0.877143	-0.674200
C28	C	2.212550	-0.319331	-0.777881
C29	C	2.353642	-0.309518	-0.788726
C30	C	1.906963	-0.319169	-1.083521
C31	C	1.917832	-0.309288	-1.224611
C32	C	1.881579	-0.064726	-0.752482
C33	C	1.881631	0.053584	-0.752503
C34	C	1.856125	-0.365375	-0.422638
C35	C	1.845502	-0.374940	-0.281568
H36	H	1.412847	-0.245809	-0.859029
H37	H	1.807746	-0.794518	-0.534190
H38	H	1.351352	-0.438840	-0.645955
H39	H	1.663458	-0.927421	-0.678670
H40	H	2.099550	-0.756211	-0.826344
N41	N	1.752435	-0.459403	-1.203206
H42	H	1.773859	-0.532494	-1.227711
H43	H	1.757628	-0.454635	-1.110168
N44	N	2.010892	-0.224818	-1.302990
H45	H	2.005734	-0.229494	-1.396052
H46	H	1.989409	-0.151772	-1.278379
H47	H	2.026162	-0.907987	-0.607984
N48	N	1.715312	-0.765356	-0.918167
H49	H	1.626085	-0.798931	-0.887784
H50	H	1.716585	-0.685094	-0.918116
N51	N	1.966050	-0.896540	-1.003093
H52	H	1.906781	-0.870840	-1.062085
H53	H	2.054720	-0.861868	-1.033807
