data_functionalizedCrystal
_audit_creation_method	'MofGen! by Chris Wilmer'
_symmetry_space_group_name_H-M	'P1'
_symmetry_Int_Tables_number	1
_symmetry_cell_setting	triclinic
loop_
_symmetry_equiv_pos_as_xyz
  x,y,z
_cell_length_a	23.532407
_cell_length_b	23.532361
_cell_length_c	22.010155
_cell_angle_alpha	89.989489
_cell_angle_beta	89.997764
_cell_angle_gamma	82.839173
loop_
_atom_site_label
_atom_site_type_symbol
_atom_site_fract_x
_atom_site_fract_y
_atom_site_fract_z
O1	O	0.069001	0.755286	-0.050470
O2	O	0.079032	0.589419	-0.050486
O3	O	-0.008916	0.677354	-0.050466
O4	O	0.156949	0.667351	-0.050490
O5	O	-0.008904	0.677328	0.050584
O6	O	0.079044	0.589393	0.050565
O7	O	0.069013	0.755260	0.050580
Cu8	Cu	0.074029	0.672324	0.059799
Cu9	Cu	0.074016	0.672355	-0.059705
O10	O	0.156961	0.667325	0.050561
C11	C	0.078787	0.568189	0.000038
C12	C	0.078032	0.504971	0.000032
C13	C	0.074722	0.231741	-0.055046
C14	C	0.075437	0.291141	-0.055048
O15	O	0.075782	0.321879	-0.101892
N16	N	0.075804	0.320832	0.000035
C17	C	0.075451	0.291122	0.055123
O18	O	0.075829	0.321831	0.101975
C19	C	0.074732	0.231724	0.055124
C20	C	0.074370	0.202035	0.000037
C21	C	0.074360	0.202052	-0.110128
C22	C	0.073646	0.142657	-0.110126
C23	C	0.073294	0.112950	-0.055043
C24	C	0.073657	0.142639	0.000039
C25	C	0.074374	0.202015	0.110211
C26	C	0.073655	0.142612	0.110207
C27	C	0.073293	0.112923	0.055121
C28	C	0.072591	0.053536	0.055125
N29	N	0.072224	0.023845	0.000042
C30	C	0.072575	0.053552	-0.055042
C31	C	0.076960	0.415862	0.055117
C32	C	0.077683	0.475258	0.055116
C33	C	0.077668	0.475274	-0.055055
C34	C	0.076949	0.415876	-0.055054
C35	C	0.076593	0.386171	0.000034
C36	C	0.071077	-0.071184	-0.055034
C37	C	0.070365	-0.130585	-0.055027
C38	C	0.070377	-0.130595	0.055144
C39	C	0.071092	-0.071199	0.055137
C40	C	0.071440	-0.041495	0.000044
O41	O	0.072244	0.022761	0.101945
O42	O	0.072190	0.022836	-0.101886
C43	C	-0.030126	0.677086	0.000060
C44	C	-0.093343	0.676320	0.000065
C45	C	-0.492454	0.723555	0.000036
C46	C	-0.551854	0.722844	0.000031
O47	O	-0.588606	0.766630	0.000013
N48	N	-0.574471	0.670566	0.000027
C49	C	-0.537685	0.618997	0.000021
O50	O	-0.562377	0.574465	0.000016
C51	C	-0.478286	0.619709	0.000021
C52	C	-0.455672	0.671990	0.000032
C53	C	-0.469839	0.775832	0.000046
C54	C	-0.410443	0.776543	0.000052
C55	C	-0.373662	0.724977	0.000048
C56	C	-0.396276	0.672701	0.000038
C57	C	-0.441501	0.568140	0.000011
C58	C	-0.382099	0.568857	0.000011
C59	C	-0.359485	0.621137	0.000021
C60	C	-0.300099	0.621847	0.000039
N61	N	-0.277481	0.674124	0.000044
C62	C	-0.314263	0.725690	0.000048
C63	C	-0.662427	0.617505	0.000019
C64	C	-0.721825	0.616793	0.000023
C65	C	-0.735990	0.720640	0.000032
C66	C	-0.676591	0.721352	0.000033
C67	C	-0.639810	0.669783	0.000024
C68	C	-0.189526	0.727179	0.000061
C69	C	-0.130124	0.727886	0.000069
C70	C	-0.115965	0.624039	0.000057
C71	C	-0.175361	0.623332	0.000051
C72	C	-0.212141	0.674907	0.000051
O73	O	-0.263312	0.578083	0.000055
O74	O	-0.289562	0.770214	0.000045
C75	C	0.178171	0.667592	0.000033
C76	C	0.241388	0.668358	0.000024
C77	C	0.069258	0.776489	0.000055
C78	C	0.070014	0.839708	0.000057
N79	N	0.074039	0.672306	0.143851
C80	C	0.039656	0.637994	0.436458
C81	C	0.039658	0.637989	0.372851
O82	O	0.010423	0.608796	0.339955
N83	N	0.074023	0.672327	0.341036
C84	C	0.108384	0.706676	0.372832
O85	O	0.137614	0.735883	0.339930
C86	C	0.108379	0.706683	0.436438
C87	C	0.074016	0.672339	0.468250
C88	C	0.005296	0.603652	0.468270
C89	C	0.005295	0.603656	0.531873
C90	C	0.039654	0.638001	0.563665
C91	C	0.074015	0.672343	0.531853
C92	C	0.142737	0.741035	0.468233
C93	C	0.142728	0.741040	0.531844
C94	C	0.108365	0.706695	0.563655
C95	C	0.108374	0.706691	0.627248
N96	N	0.074009	0.672354	0.659063
C97	C	0.039649	0.638008	0.627271
C98	C	0.108392	0.706659	0.239254
C99	C	0.108401	0.706649	0.175649
C100	C	0.039674	0.637963	0.175672
C101	C	0.039668	0.637970	0.239278
C102	C	0.074027	0.672321	0.271069
C103	C	0.039650	0.638019	0.760842
C104	C	0.039654	0.638024	0.824451
C105	C	0.108379	0.706712	0.824422
C106	C	0.108377	0.706705	0.760819
C107	C	0.074008	0.672357	0.729031
O108	O	0.137592	0.735872	0.660184
O109	O	0.010418	0.608812	0.660180
N110	N	0.074014	0.672369	0.856243
H111	H	0.076654	0.391707	-0.099910
H112	H	-0.111716	0.770461	0.000079
N113	N	0.074742	0.232337	0.166478
N114	N	0.115289	0.260000	0.178780
H115	H	0.115548	0.281414	0.218522
H116	H	-0.022689	0.575691	0.557768
N117	N	0.073273	0.112324	-0.166390
N118	N	0.113019	0.073699	-0.178694
H119	H	0.112754	0.052278	-0.218432
H120	H	-0.499782	0.817825	0.000047
N121	N	0.177826	0.776136	0.564306
N122	N	0.208500	0.806796	0.535891
H123	H	0.233289	0.831583	0.558816
N124	N	0.004552	0.602922	0.728382
N125	N	0.026987	0.565133	0.692904
H126	H	0.002201	0.540342	0.669980
H127	H	-0.193774	0.580761	0.000060
H128	H	0.070093	-0.154793	0.099991
N129	N	-0.227082	0.779866	0.000059
N130	N	-0.206873	0.826534	0.000068
H131	H	-0.233396	0.863744	0.000070
H132	H	0.071361	-0.047006	-0.099896
H133	H	0.073370	0.118429	0.155067
N134	N	-0.029811	0.568565	0.435811
N135	N	-0.060486	0.537911	0.464234
H136	H	-0.085280	0.513125	0.441315
N137	N	0.004566	0.602883	0.271761
N138	N	-0.026105	0.572219	0.243360
H139	H	-0.050898	0.547437	0.266297
H140	H	-0.392037	0.819115	0.000058
N141	N	-0.344519	0.516184	-0.000003
N142	N	-0.309791	0.505010	-0.042598
H143	H	-0.283250	0.467811	-0.042607
H144	H	0.074644	0.226234	-0.154986
H145	H	-0.632483	0.575509	0.000017
N146	N	0.078019	0.505635	-0.111318
N147	N	0.078652	0.558669	-0.111304
H148	H	0.078898	0.580115	-0.151037
N149	N	0.078066	0.505571	0.111391
N150	N	0.077756	0.479032	0.160566
H151	H	0.078025	0.500438	0.200313
H152	H	0.071398	-0.047027	0.099993
N153	N	-0.773560	0.773319	0.000024
N154	N	-0.753367	0.819996	0.000025
H155	H	-0.779901	0.857199	0.000018
H156	H	0.011696	0.609997	0.149776
H157	H	0.070073	-0.154756	-0.099887
N158	N	0.177852	0.776111	0.435758
N159	N	0.208527	0.806768	0.464164
H160	H	0.233332	0.831540	0.441230
N161	N	-0.653504	0.774760	0.000046
N162	N	-0.686358	0.820794	0.000055
H163	H	-0.670056	0.858516	0.000064
H164	H	0.136366	0.734663	0.734917
H165	H	0.076677	0.391679	0.099978
H166	H	-0.740232	0.574220	0.000025
N167	N	-0.464581	0.514730	-0.000001
N168	N	-0.431723	0.468699	-0.000012
H169	H	-0.448021	0.430975	-0.000022
H170	H	-0.086007	0.582056	0.000055
N171	N	0.004551	0.602933	0.856936
N172	N	-0.026124	0.572272	0.828538
H173	H	-0.050915	0.547489	0.851477
H174	H	0.136390	0.734609	0.149753
N175	N	0.143497	0.741752	0.271715
N176	N	0.174174	0.772406	0.243296
H177	H	0.198967	0.797191	0.266218
N178	N	0.143472	0.741789	0.856913
N179	N	0.143459	0.741786	0.913704
H180	H	0.168241	0.766562	0.936653
