data_functionalizedCrystal
_audit_creation_method	'MofGen! by Chris Wilmer'
_symmetry_space_group_name_H-M	'P1'
_symmetry_Int_Tables_number	1
_symmetry_cell_setting	triclinic
loop_
_symmetry_equiv_pos_as_xyz
  x,y,z
_cell_length_a	16.956995
_cell_length_b	10.723024
_cell_length_c	16.053802
_cell_angle_alpha	92.591250
_cell_angle_beta	87.607939
_cell_angle_gamma	80.261170
loop_
_atom_site_label
_atom_site_type_symbol
_atom_site_fract_x
_atom_site_fract_y
_atom_site_fract_z
O1	O	1.061656	0.046085	-0.069486
O2	O	1.561656	0.546085	0.430514
O3	O	0.829738	0.089868	-0.069475
O4	O	1.329738	0.589868	0.430525
O5	O	0.951046	-0.114223	-0.069478
O6	O	1.451046	0.385777	0.430522
O7	O	0.940347	0.250176	-0.069483
O8	O	1.440347	0.750176	0.430517
O9	O	0.944369	-0.103033	0.069381
O10	O	1.444369	0.396967	0.569381
O11	O	0.823060	0.101058	0.069384
O12	O	1.323060	0.601058	0.569384
O13	O	1.054978	0.057275	0.069373
O14	O	1.554978	0.557275	0.569373
Zn15	Zn	0.937959	0.080943	0.091426
Zn16	Zn	1.437959	0.580943	0.591426
Zn17	Zn	0.946757	0.066200	-0.091527
Zn18	Zn	1.446757	0.566200	0.408473
O19	O	0.933670	0.261366	0.069376
O20	O	1.433670	0.761366	0.569376
C21	C	0.796703	0.097705	-0.000044
C22	C	1.296703	0.597705	0.499956
C23	C	0.708219	0.104369	-0.000039
C24	C	1.208219	0.604369	0.499961
C25	C	0.209193	0.154225	-0.000071
C26	C	0.709193	0.654225	0.499929
C27	C	0.292334	0.147953	-0.000070
C28	C	0.792334	0.647953	0.499930
C29	C	0.342778	0.030229	-0.000062
C30	C	0.842778	0.530229	0.499938
C31	C	0.310077	-0.081232	-0.000063
C32	C	0.810077	0.418768	0.499937
C33	C	0.226938	-0.074960	-0.000070
C34	C	0.726938	0.425040	0.499930
C35	C	0.592379	-0.000819	-0.000047
C36	C	1.092379	0.499181	0.499953
C37	C	0.675524	-0.007083	-0.000038
C38	C	1.175524	0.492917	0.499962
C39	C	0.657774	0.222104	-0.000047
C40	C	1.157774	0.722104	0.499953
C41	C	0.574634	0.228366	-0.000048
C42	C	1.074634	0.728366	0.499952
C43	C	0.541941	0.116905	-0.000054
C44	C	1.041941	0.616905	0.499946
N45	N	0.427761	0.023815	-0.000059
N46	N	0.927761	0.523815	0.499941
N47	N	0.456960	0.123319	-0.000063
N48	N	0.956960	0.623319	0.499937
C49	C	0.946929	-0.155037	-0.000049
C50	C	1.446929	0.344963	0.499951
C51	C	0.944599	-0.293320	-0.000052
C52	C	1.444599	0.206680	0.499948
C53	C	1.012478	-0.376214	-0.000056
C54	C	1.512478	0.123786	0.499944
C55	C	1.010072	-0.519137	-0.000059
C56	C	1.510072	-0.019137	0.499941
C57	C	1.088013	0.049438	-0.000060
C58	C	1.588013	0.549438	0.499940
C59	C	1.176498	0.042773	-0.000070
C60	C	1.676498	0.542773	0.499930
C61	C	0.937787	0.302180	-0.000055
C62	C	1.437787	0.802180	0.499945
C63	C	0.940117	0.440462	-0.000057
C64	C	1.440117	0.940462	0.499943
N65	N	0.931961	0.091004	0.216286
N66	N	1.431961	0.591004	0.716286
N67	N	0.952762	0.056128	-0.216388
N68	N	1.452762	0.556128	0.283612
C69	C	0.983597	0.004190	0.259979
C70	C	1.483597	0.504190	0.759979
C71	C	0.979408	0.011239	0.347386
C72	C	1.479408	0.511239	0.847386
C73	C	0.923587	0.105108	0.391098
C74	C	1.423587	0.605108	0.891098
C75	C	0.871945	0.191926	0.347399
C76	C	1.371945	0.691926	0.847399
C77	C	0.876131	0.184871	0.259994
C78	C	1.376131	0.684871	0.759994
C79	C	0.905305	0.135891	0.652508
C80	C	1.405305	0.635891	1.152508
C81	C	0.901125	0.142942	0.739920
C82	C	1.401125	0.642942	1.239920
C83	C	1.008588	-0.037747	0.739900
C84	C	1.508588	0.462253	1.239900
C85	C	1.012771	-0.044790	0.652493
C86	C	1.512771	0.455210	1.152493
C87	C	0.961127	0.042024	0.608802
C88	C	1.461127	0.542024	1.108802
N89	N	0.919306	0.112318	0.480442
N90	N	1.419306	0.612318	0.980442
N91	N	0.965405	0.034808	0.519459
N92	N	1.465405	0.534808	1.019459
H93	H	0.533567	0.324230	-0.000057
H94	H	1.033567	0.824230	0.499943
F95	F	0.557597	-0.119448	-0.000069
F96	F	1.057597	0.380552	0.499931
F97	F	1.072183	-0.144694	0.605972
F98	F	1.572183	0.355306	1.105972
F99	F	0.812531	0.291825	0.393922
F100	F	1.312531	0.791825	0.893922
H101	H	0.318950	0.238709	-0.000079
H102	H	0.818950	0.738709	0.499921
F103	F	1.063546	-0.130137	0.786404
F104	F	1.563546	0.369863	1.286404
F105	F	0.864158	-0.466478	-0.000046
F106	F	1.364158	0.033522	0.499954
F107	F	0.692575	0.340719	-0.000045
F108	F	1.192575	0.840719	0.499955
F109	F	0.866311	-0.338854	-0.000056
F110	F	1.366311	0.161146	0.499944
H111	H	1.021454	-0.059452	0.382960
H112	H	1.521454	0.440548	0.882960
H113	H	0.351156	-0.177087	-0.000062
H114	H	0.851156	0.322913	0.499938
H115	H	0.834082	0.255563	0.224420
H116	H	1.334082	0.755563	0.724420
H117	H	0.855667	0.219387	0.775506
H118	H	1.355667	0.719387	1.275506
H119	H	0.168126	0.250090	-0.000071
H120	H	0.668126	0.750090	0.499929
F121	F	1.090766	-0.330681	-0.000065
F122	F	1.590766	0.169319	0.499935
H123	H	0.716594	-0.102954	-0.000035
H124	H	1.216594	0.397046	0.499965
H125	H	0.200320	-0.165716	-0.000071
H126	H	0.700320	0.334284	0.499929
H127	H	1.068180	-0.590342	-0.000059
H128	H	1.568180	-0.090342	0.499941
H129	H	0.863256	0.206581	0.616942
H130	H	1.363256	0.706581	1.116942
H131	H	1.029056	-0.072243	0.224394
H132	H	1.529056	0.427757	0.724394
