data_functionalizedCrystal
_audit_creation_method	'MofGen! by Chris Wilmer'
_symmetry_space_group_name_H-M	'P1'
_symmetry_Int_Tables_number	1
_symmetry_cell_setting	triclinic
loop_
_symmetry_equiv_pos_as_xyz
  x,y,z
_cell_length_a	11.792241
_cell_length_b	12.811457
_cell_length_c	11.892095
_cell_angle_alpha	91.498327
_cell_angle_beta	93.915739
_cell_angle_gamma	84.118185
loop_
_atom_site_label
_atom_site_type_symbol
_atom_site_fract_x
_atom_site_fract_y
_atom_site_fract_z
O1	O	0.156591	1.390087	0.048503
O2	O	0.170827	1.086807	0.017409
O3	O	-0.001417	1.245806	0.033718
O4	O	0.328835	1.231088	0.032194
O5	O	0.012922	1.232549	0.220366
O6	O	0.185166	1.073550	0.204057
O7	O	0.170930	1.376830	0.235150
Zn8	Zn	0.180325	1.223085	0.249238
Zn9	Zn	0.161432	1.240552	0.003322
O10	O	0.343174	1.217830	0.218841
C11	C	0.176760	1.041352	0.106752
C12	C	0.173060	0.925661	0.094892
C13	C	0.181720	0.693812	0.276110
C14	C	0.178244	0.585110	0.264971
C15	C	0.162623	0.599553	0.061477
C16	C	0.166099	0.708256	0.072615
C17	C	0.175649	0.755380	0.179935
C18	C	0.179134	0.864084	0.191073
C19	C	0.163505	0.878526	-0.012420
C20	C	0.160028	0.769824	-0.023559
C21	C	-0.036544	1.238253	0.126947
C22	C	-0.162574	1.235485	0.126662
C23	C	-0.393318	1.230398	0.126122
C24	C	-0.264915	1.233225	0.126422
C25	C	0.378301	1.225384	0.125610
C26	C	0.504331	1.228152	0.125887
C27	C	0.164997	1.422285	0.145805
C28	C	0.168697	1.537976	0.157658
N29	N	0.193218	1.211172	0.417070
N30	N	0.148531	1.252473	-0.164510
C31	C	0.058751	1.335369	0.666457
C32	C	0.067771	1.327050	0.783946
C33	C	0.220273	1.186209	0.769537
C34	C	0.211252	1.194528	0.652049
C35	C	0.130490	1.269112	0.600513
C36	C	0.121476	1.277436	0.483023
C37	C	0.273971	1.136591	0.468616
C38	C	0.282991	1.128271	0.586105
H39	H	0.158569	0.928667	-0.090733
O40	O	0.042930	1.349908	0.433136
C41	C	-0.107338	1.488760	0.459837
C42	C	-0.018449	1.406717	0.516473
H43	H	-0.156971	1.534727	0.527190
H44	H	-0.168932	1.447396	0.400235
H45	H	-0.061855	1.544945	0.410148
H46	H	-0.063835	1.350508	0.566221
H47	H	0.043140	1.448151	0.576011
O48	O	0.184284	0.525173	0.358309
C49	C	0.287579	0.382854	0.462717
C50	C	0.280865	0.450637	0.356947
H51	H	0.365672	0.322590	0.461664
H52	H	0.207130	0.340612	0.463525
H53	H	0.294944	0.435238	0.541315
H54	H	0.273538	0.398328	0.278293
H55	H	0.361315	0.492888	0.356239
H56	H	0.009353	1.381002	0.837635
O57	O	0.298587	1.113615	0.819550
C58	C	0.365474	0.930259	0.836970
C59	C	0.276703	1.012362	0.780265
H60	H	0.347827	0.848378	0.805212
H61	H	0.359580	0.935606	0.932271
H62	H	0.454794	0.946025	0.815347
H63	H	0.187343	0.996650	0.801798
H64	H	0.282698	1.006995	0.684977
O65	O	0.150557	0.724116	-0.127827
C66	C	0.038077	0.714501	-0.304048
C67	C	0.048639	0.766327	-0.185985
H68	H	-0.044307	0.748623	-0.351111
H69	H	0.036556	0.626232	-0.295562
H70	H	0.114219	0.730330	-0.352905
H71	H	-0.027483	0.750579	-0.137062
H72	H	0.050212	0.854580	-0.194552
H73	H	-0.007001	1.396105	0.624497
H74	H	0.189511	0.732180	0.363494
O75	O	0.153543	0.553689	-0.042740
C76	C	0.238628	0.428021	-0.174523
C77	C	0.249067	0.479899	-0.056478
H78	H	0.315835	0.368336	-0.185659
H79	H	0.234954	0.490638	-0.241412
H80	H	0.157309	0.386632	-0.183862
H81	H	0.330381	0.521284	-0.047030
H82	H	0.252675	0.417237	0.010352
O83	O	0.361465	1.055734	0.635987
C84	C	0.511818	0.916959	0.609298
C85	C	0.422978	0.999045	0.552664
H86	H	0.561592	0.871118	0.541959
H87	H	0.466402	0.860661	0.658908
H88	H	0.573288	0.958387	0.668973
H89	H	0.361483	0.957707	0.492936
H90	H	0.468470	1.055338	0.503124
O91	O	0.188359	0.909702	0.295403
C92	C	0.203539	0.883892	0.496064
C93	C	0.193073	0.832101	0.377977
H94	H	0.207377	0.821172	0.562857
H95	H	0.126278	0.943478	0.507367
H96	H	0.284798	0.925370	0.505385
H97	H	0.111860	0.790566	0.368575
H98	H	0.270392	0.772571	0.366727
H99	H	0.332389	1.082642	0.414911
