data_functionalizedCrystal
_audit_creation_method	'MofGen! by Chris Wilmer'
_symmetry_space_group_name_H-M	'P1'
_symmetry_Int_Tables_number	1
_symmetry_cell_setting	triclinic
loop_
_symmetry_equiv_pos_as_xyz
  x,y,z
_cell_length_a	17.077404
_cell_length_b	19.805405
_cell_length_c	17.077396
_cell_angle_alpha	90.028963
_cell_angle_beta	90.019501
_cell_angle_gamma	90.026951
loop_
_atom_site_label
_atom_site_type_symbol
_atom_site_fract_x
_atom_site_fract_y
_atom_site_fract_z
Zn1	Zn	1.200034	-0.269459	0.443840
Zn2	Zn	1.199932	-0.382652	0.312573
Zn3	Zn	1.068765	-0.269483	0.312588
Zn4	Zn	1.068725	-0.382612	0.443797
O5	O	1.134364	-0.326052	0.378199
O6	O	1.309867	-0.284481	0.426439
O7	O	1.182507	-0.367667	0.202728
O8	O	1.086238	-0.174763	0.330023
O9	O	1.309792	-0.367644	0.329998
O10	O	1.182680	-0.174746	0.426454
O11	O	1.086140	-0.284522	0.202739
O12	O	0.958913	-0.284483	0.329981
O13	O	1.086169	-0.367575	0.553649
O14	O	0.958883	-0.367598	0.426380
O15	O	1.182641	-0.284442	0.553681
O16	O	1.182467	-0.477363	0.329956
O17	O	1.086070	-0.477334	0.426365
C18	C	0.930416	-0.326039	0.378178
C19	C	0.843166	-0.326050	0.378187
C20	C	0.802181	-0.369394	0.428301
C21	C	0.720201	-0.369395	0.428314
C22	C	0.679207	-0.326056	0.378208
C23	C	0.720198	-0.282708	0.328091
C24	C	0.802177	-0.282703	0.328083
C25	C	0.549328	-0.282721	0.328110
C26	C	0.467343	-0.282726	0.328117
C27	C	0.467352	-0.369413	0.428341
C28	C	0.549331	-0.369409	0.428333
C29	C	0.590316	-0.326061	0.378215
C30	C	1.134275	-0.501908	0.378171
C31	C	1.134308	-0.577140	0.378185
C32	C	1.184496	-0.612416	0.428436
C33	C	1.184524	-0.683105	0.428450
C34	C	1.134368	-0.718515	0.378210
C35	C	1.084175	-0.683233	0.327957
C36	C	1.084143	-0.612546	0.327947
C37	C	1.084301	-0.968307	0.327997
C38	C	1.084338	-1.038999	0.328009
C39	C	1.184682	-1.038865	0.428501
C40	C	1.184650	-0.968178	0.428491
C41	C	1.134454	-0.932902	0.378241
C42	C	1.134423	-0.856254	0.378227
C43	C	1.134403	-0.795162	0.378219
C44	C	1.339108	-0.326064	0.378222
C45	C	1.426358	-0.326070	0.378231
C46	C	1.134411	-0.326002	0.582944
C47	C	1.134432	-0.325980	0.670194
C48	C	1.134475	-0.149509	0.378245
C49	C	1.134523	-0.074277	0.378265
C50	C	1.134362	-0.326052	0.174252
C51	C	1.134494	-0.325883	0.087002
C52	C	1.184667	-0.282689	0.711202
C53	C	1.184676	-0.282667	0.793182
C54	C	1.134454	-0.325939	0.834153
C55	C	1.084214	-0.369232	0.793139
C56	C	1.084201	-0.369251	0.711160
C57	C	1.084245	-0.369191	0.964009
C58	C	1.084259	-0.369174	1.045994
C59	C	1.184720	-0.282608	1.046031
C60	C	1.184708	-0.282626	0.964052
C61	C	1.134468	-0.325920	0.923044
H62	H	0.686834	-0.404691	0.469121
H63	H	0.835552	-0.404688	0.469101
C64	C	1.029003	-0.722181	0.272688
C65	C	0.939758	-0.712527	0.279007
C66	C	0.884588	-0.751472	0.223733
C67	C	0.918663	-0.800070	0.162139
C68	C	1.007913	-0.809726	0.155817
C69	C	1.063083	-0.770781	0.211091
H70	H	0.914529	-0.676550	0.324605
H71	H	0.818519	-0.744324	0.228413
H72	H	0.877823	-0.828899	0.121222
H73	H	1.033142	-0.845703	0.110219
H74	H	1.129152	-0.777929	0.206411
C75	C	1.028936	-0.573740	0.272669
C76	C	0.967264	-0.525175	0.306624
C77	C	0.912052	-0.486370	0.251348
C78	C	0.918510	-0.496129	0.162118
C79	C	0.980184	-0.544696	0.128159
C80	C	1.035397	-0.583501	0.183435
H81	H	0.962481	-0.517948	0.372681
H82	H	0.866396	-0.450417	0.276487
H83	H	0.877638	-0.467403	0.121199
H84	H	0.984968	-0.551923	0.062101
H85	H	1.081052	-0.619454	0.158295
C86	C	1.028973	-0.416833	0.838211
C87	C	1.062974	-0.469960	0.894557
C88	C	1.007737	-0.517564	0.939630
C89	C	0.918500	-0.512042	0.928357
C90	C	0.884495	-0.458913	0.872008
C91	C	0.939732	-0.411309	0.826935
H92	H	1.129037	-0.474050	0.902905
H93	H	1.032910	-0.556894	0.981343
H94	H	0.877610	-0.547281	0.961723
H95	H	0.818432	-0.454823	0.863661
H96	H	0.914559	-0.371979	0.785222
H97	H	1.043322	-0.404435	0.930623
H98	H	1.225566	-0.247454	0.677849
H99	H	0.686814	-0.247417	0.287297
C100	C	1.239670	-0.573468	0.483701
C101	C	1.328914	-0.583127	0.477382
C102	C	1.384088	-0.544180	0.532651
C103	C	1.350017	-0.495575	0.594240
C104	C	1.260768	-0.485914	0.600562
C105	C	1.205594	-0.524860	0.545293
H106	H	1.354140	-0.619109	0.431788
H107	H	1.450156	-0.551332	0.527970
H108	H	1.390860	-0.466744	0.635153
H109	H	1.235542	-0.449931	0.646156
H110	H	1.139526	-0.517708	0.549973
H111	H	1.043286	-0.404496	0.677773
C112	C	1.239822	-0.929227	0.483757
C113	C	1.239788	-0.851474	0.483746
C114	C	1.294958	-0.812525	0.539016
C115	C	1.350162	-0.851328	0.594296
C116	C	1.350197	-0.929086	0.594309
C117	C	1.295027	-0.968035	0.539039
H118	H	1.198921	-0.822746	0.442823
H119	H	1.294931	-0.754963	0.539007
H120	H	1.391002	-0.822495	0.635210
H121	H	1.391064	-0.957814	0.635232
H122	H	1.295054	-1.025597	0.539048
C123	C	1.239950	-0.235027	0.918980
C124	C	1.301547	-0.264375	0.862622
C125	C	1.356787	-0.216773	0.817549
C126	C	1.350429	-0.139824	0.828833
C127	C	1.288829	-0.110473	0.885194
C128	C	1.233590	-0.158074	0.930268
H129	H	1.306255	-0.321340	0.854266
H130	H	1.402387	-0.238501	0.775827
H131	H	1.391321	-0.104587	0.795467
H132	H	1.284121	-0.053507	0.893550
H133	H	1.187989	-0.136346	0.971990
H134	H	0.582705	-0.404703	0.469129
H135	H	0.582696	-0.247417	0.287306
H136	H	1.225626	-0.247355	1.079424
H137	H	1.043362	-0.404408	1.079350
C138	C	0.847262	-0.235025	0.272955
C139	C	0.903583	-0.264279	0.211261
C140	C	0.948667	-0.216596	0.156135
C141	C	0.937429	-0.139659	0.162702
C142	C	0.881106	-0.110401	0.224399
C143	C	0.836022	-0.158084	0.279525
H144	H	0.911904	-0.321236	0.206397
H145	H	0.990361	-0.238255	0.110463
H146	H	0.970803	-0.104361	0.121894
H147	H	0.872785	-0.053444	0.229262
H148	H	0.794328	-0.136425	0.325197
H149	H	0.433968	-0.247428	0.287326
C150	C	1.239893	-1.077670	0.483784
C151	C	1.329129	-1.067890	0.477454
C152	C	1.384340	-1.106693	0.532734
C153	C	1.350315	-1.155277	0.594344
C154	C	1.261074	-1.165059	0.600676
C155	C	1.205863	-1.126256	0.545397
H156	H	1.354320	-1.031924	0.431844
H157	H	1.450401	-1.099451	0.528045
H158	H	1.391185	-1.184001	0.635265
H159	H	1.235882	-1.201025	0.646286
H160	H	1.139801	-1.133498	0.550085
H161	H	0.433977	-0.404706	0.469150
H162	H	1.225398	-0.711824	0.469363
H163	H	1.043491	-1.067828	0.287096
H164	H	1.043431	-0.939591	0.287081
H165	H	1.225584	-0.247417	0.826567
