data_functionalizedCrystal
_audit_creation_method	'MofGen! by Chris Wilmer'
_symmetry_space_group_name_H-M	'P1'
_symmetry_Int_Tables_number	1
_symmetry_cell_setting	triclinic
loop_
_symmetry_equiv_pos_as_xyz
  x,y,z
_cell_length_a	8.497374
_cell_length_b	19.077105
_cell_length_c	19.077356
_cell_angle_alpha	89.903992
_cell_angle_beta	92.299056
_cell_angle_gamma	92.300019
loop_
_atom_site_label
_atom_site_type_symbol
_atom_site_fract_x
_atom_site_fract_y
_atom_site_fract_z
Zn1	Zn	0.958653	1.063015	-0.323108
Zn2	Zn	0.683889	1.058291	-0.440584
Zn3	Zn	0.684731	0.945540	-0.318368
Zn4	Zn	0.937469	0.940804	-0.435849
O5	O	0.816185	1.001912	-0.379477
O6	O	0.930718	1.160720	-0.342657
O7	O	0.463239	1.043339	-0.424370
O8	O	0.730285	0.965083	-0.220666
O9	O	0.728850	1.157249	-0.428966
O10	O	0.931534	1.051391	-0.224149
O11	O	0.463857	0.960502	-0.334578
O12	O	0.709744	0.846580	-0.329986
O13	O	1.161041	0.957011	-0.420896
O14	O	0.895430	0.843100	-0.416299
O15	O	1.176605	1.046799	-0.338066
O16	O	0.708309	1.038747	-0.538287
O17	O	0.894613	0.952430	-0.534808
C18	C	0.800380	0.819344	-0.372115
C19	C	0.793655	0.741239	-0.368982
C20	C	0.833367	1.009292	-0.196198
C21	C	0.840688	1.012437	-0.118096
C22	C	0.887007	0.702750	-0.412517
C23	C	0.880696	0.629363	-0.409564
C24	C	0.781023	0.594466	-0.363080
C25	C	0.687668	0.632961	-0.319541
C26	C	0.693988	0.706347	-0.322490
C27	C	0.751779	0.375179	-0.349429
C28	C	0.745463	0.301788	-0.346484
C29	C	0.938494	0.298194	-0.436507
C30	C	0.944798	0.371582	-0.439455
C31	C	0.851449	0.410070	-0.395914
N32	N	0.774567	0.519453	-0.360062
N33	N	0.857915	0.485082	-0.398928
C34	C	1.227665	1.001907	-0.379478
C35	C	1.406309	1.001908	-0.379486
C36	C	0.799107	0.994581	-0.562044
C37	C	0.791859	0.991509	-0.640149
C38	C	0.832053	1.185194	-0.386869
C39	C	0.838815	1.263298	-0.390018
C40	C	0.739352	0.968981	-0.079589
C41	C	0.746247	0.971934	-0.006203
C42	C	0.854472	1.018348	0.028674
C43	C	0.955819	1.061806	-0.009838
C44	C	0.948931	1.058848	-0.083223
C45	C	0.886317	1.032009	0.247954
C46	C	0.893195	1.034964	0.321344
C47	C	0.683624	0.945092	0.324974
C48	C	0.676739	0.942141	0.251588
C49	C	0.778091	0.985596	0.213082
N50	N	0.861519	1.021370	0.103686
N51	N	0.771051	0.982571	0.138072
H52	H	0.968165	0.731157	-0.450372
C53	C	0.635730	0.924542	-0.190468
C54	C	0.620386	0.917961	-0.117923
H55	H	0.562278	0.893045	-0.214131
H56	H	0.739694	0.913770	-0.202079
H57	H	0.615595	0.971272	-0.204393
H58	H	0.640533	0.871231	-0.103997
H59	H	0.516398	0.928728	-0.106307
C60	C	0.489938	0.399123	-0.315915
C61	C	0.649162	0.417477	-0.301570
H62	H	0.426586	0.425242	-0.286369
H63	H	0.471927	0.350428	-0.307511
H64	H	0.463312	0.409266	-0.363594
H65	H	0.675791	0.407330	-0.253891
H66	H	0.667182	0.466183	-0.309968
H67	H	0.664308	0.273377	-0.308623
C68	C	0.931071	1.132818	0.400048
C69	C	1.012176	1.085985	0.359677
H70	H	1.004522	1.164317	0.423708
H71	H	0.871715	1.107364	0.433483
H72	H	0.861988	1.158543	0.370328
H73	H	1.081250	1.060256	0.389398
H74	H	1.071558	1.111442	0.326238
C75	C	0.601136	0.909713	0.439078
C76	C	0.572237	0.897321	0.367301
H77	H	0.532375	0.880215	0.465208
H78	H	0.583253	0.957405	0.449198
H79	H	0.707376	0.899912	0.451509
H80	H	0.466000	0.907127	0.354870
H81	H	0.590107	0.849619	0.357177
H82	H	0.606520	0.604543	-0.281689
H83	H	0.588607	0.904348	0.223196
H84	H	0.968829	1.067401	0.216611
H85	H	1.043947	1.099594	0.018563
C86	C	1.156783	1.147974	-0.079444
C87	C	1.060333	1.106611	-0.125552
H88	H	1.225560	1.177461	-0.105578
H89	H	1.217144	1.118509	-0.049585
H90	H	1.093052	1.176014	-0.051908
H91	H	1.124064	1.078567	-0.153085
H92	H	0.999967	1.136080	-0.155424
C93	C	0.502527	0.702532	-0.233222
C94	C	0.591358	0.748657	-0.274642
H95	H	0.439161	0.728653	-0.203685
H96	H	0.571402	0.674993	-0.205240
H97	H	0.436753	0.672674	-0.262653
H98	H	0.657141	0.778511	-0.245211
H99	H	0.522475	0.776208	-0.302626
H100	H	0.663732	0.936549	0.025149
H101	H	0.956711	0.598027	-0.445015
C102	C	1.040210	0.482480	-0.483940
C103	C	1.054377	0.409939	-0.490545
H104	H	1.107856	0.506159	-0.515484
H105	H	1.068914	0.496395	-0.437231
H106	H	0.934253	0.494084	-0.494638
H107	H	1.160333	0.398334	-0.479842
H108	H	1.025683	0.396019	-0.537265
C109	C	1.014531	0.184104	-0.471955
C110	C	1.041115	0.255886	-0.484359
H111	H	1.077900	0.157987	-0.501494
H112	H	0.906520	0.171662	-0.481685
H113	H	1.041170	0.173980	-0.424273
H114	H	1.014464	0.266011	-0.532040
H115	H	1.149149	0.268333	-0.474634
