data_functionalizedCrystal
_audit_creation_method	'MofGen! by Chris Wilmer'
_symmetry_space_group_name_H-M	'P1'
_symmetry_Int_Tables_number	1
_symmetry_cell_setting	triclinic
loop_
_symmetry_equiv_pos_as_xyz
  x,y,z
_cell_length_a	27.780848
_cell_length_b	27.780884
_cell_length_c	27.780936
_cell_angle_alpha	59.997472
_cell_angle_beta	90.001479
_cell_angle_gamma	119.999668
loop_
_atom_site_label
_atom_site_type_symbol
_atom_site_fract_x
_atom_site_fract_y
_atom_site_fract_z
O1	O	0.410270	-0.344535	0.014321
O2	O	0.340273	-0.245965	-0.014251
O3	O	0.340270	-0.344534	0.084319
O4	O	0.410274	-0.245966	-0.084248
O5	O	0.260210	-0.424593	0.084318
O6	O	0.260214	-0.326024	-0.014251
O7	O	0.330211	-0.424595	0.014321
Cu8	Cu	0.287902	-0.382619	0.000035
Cu9	Cu	0.382582	-0.287940	0.000035
O10	O	0.330214	-0.326025	-0.084249
C11	C	0.207596	-0.090568	-0.029862
C12	C	0.237299	-0.031162	-0.025773
C13	C	0.149664	-0.119397	-0.030268
C14	C	0.207598	-0.177731	-0.029868
C15	C	0.237303	-0.211520	-0.025784
C16	C	0.149666	-0.206427	-0.030273
C17	C	0.120430	-0.177734	-0.029862
C18	C	0.056934	-0.211527	-0.025772
C19	C	0.236700	-0.119394	-0.030273
C20	C	0.005636	-0.238828	-0.022467
C21	C	0.261296	0.016830	-0.022467
C22	C	0.261301	-0.238819	-0.022483
C23	C	-0.058720	-0.273079	-0.018321
C24	C	0.291401	0.077040	-0.018322
C25	C	0.291408	-0.273067	-0.018343
O26	O	-0.150488	-0.245978	-0.084224
O27	O	-0.179045	-0.344553	0.084344
O28	O	-0.080484	-0.245980	-0.014225
O29	O	-0.249049	-0.344551	0.014345
O30	O	-0.080480	-0.326035	-0.014230
O31	O	-0.179042	-0.424609	0.084339
O32	O	-0.150484	-0.326033	-0.084229
Cu33	Cu	-0.164763	-0.382631	0.000054
Cu34	Cu	-0.164767	-0.287956	0.000060
O35	O	-0.249046	-0.424607	0.014340
C36	C	0.462884	-0.177728	-0.372327
C37	C	0.433180	-0.211520	-0.402029
C38	C	0.520815	-0.119390	-0.401431
C39	C	0.462885	-0.177727	-0.285161
C40	C	0.433181	-0.211518	-0.221665
C41	C	0.520816	-0.119389	-0.314397
C42	C	0.550051	-0.090561	-0.372329
C43	C	0.613546	-0.031154	-0.402033
C44	C	0.433781	-0.206423	-0.314395
C45	C	0.664844	0.016840	-0.426031
C46	C	0.409182	-0.238821	-0.426025
C47	C	0.409184	-0.238819	-0.170367
C48	C	0.729200	0.077052	-0.456138
C49	C	0.379076	-0.273071	-0.456130
C50	C	0.379079	-0.273068	-0.106011
C51	C	0.550044	-0.492845	0.029965
C52	C	0.613538	-0.459054	0.025879
C53	C	0.520808	-0.551184	0.030373
C54	C	0.462879	-0.492841	0.029960
C55	C	0.433176	-0.459048	0.025869
C56	C	0.433776	-0.551180	0.030369
C57	C	0.462878	-0.580010	0.029964
C58	C	0.433174	-0.639418	0.025878
C59	C	0.520809	-0.464147	0.030369
C60	C	0.409177	-0.687413	0.022575
C61	C	0.664836	-0.431755	0.022576
C62	C	0.409180	-0.431745	0.022562
C63	C	0.379071	-0.747625	0.018433
C64	C	0.729190	-0.397506	0.018434
C65	C	0.379075	-0.397493	0.018415
O66	O	0.330206	0.234704	0.014343
O67	O	0.260205	0.094708	-0.014226
O68	O	0.260208	0.094699	0.084342
O69	O	0.330203	0.234712	-0.084225
O70	O	0.340270	0.094702	0.084337
O71	O	0.340266	0.094710	-0.014231
O72	O	0.410267	0.234706	0.014338
Cu73	Cu	0.382577	0.164709	0.000053
Cu74	Cu	0.287895	0.164706	0.000059
O75	O	0.410264	0.234715	-0.084231
O76	O	0.919528	0.234722	-0.494947
O77	O	0.750963	0.094722	-0.424943
O78	O	0.849525	0.094718	-0.424940
O79	O	0.820966	0.234726	-0.494951
O80	O	0.849523	0.094716	-0.504999
O81	O	0.750961	0.094720	-0.505002
O82	O	0.919526	0.234720	-0.575006
Cu83	Cu	0.835243	0.164720	-0.547314
Cu84	Cu	0.835246	0.164722	-0.452635
O85	O	0.820964	0.234724	-0.575009
O86	O	0.340270	-0.344534	-0.574994
O87	O	0.410271	-0.245969	-0.504995
O88	O	0.410269	-0.344537	-0.504989
O89	O	0.340272	-0.245966	-0.574999
O90	O	0.330209	-0.424597	-0.424929
O91	O	0.330210	-0.326029	-0.424934
O92	O	0.260210	-0.424594	-0.494933
Cu93	Cu	0.287900	-0.382622	-0.452624
Cu94	Cu	0.382580	-0.287941	-0.547304
O95	O	0.260211	-0.326026	-0.494939
C96	C	0.120431	-0.580000	0.372398
C97	C	0.056936	-0.639407	0.402102
C98	C	0.149667	-0.551172	0.401501
C99	C	0.207598	-0.492833	0.285231
C100	C	0.237302	-0.459042	0.221736
C101	C	0.236701	-0.464138	0.314466
C102	C	0.207598	-0.492834	0.372397
C103	C	0.237302	-0.459042	0.402100
C104	C	0.149667	-0.551172	0.314467
C105	C	0.261299	-0.431741	0.426097
C106	C	0.005638	-0.687401	0.426100
C107	C	0.261299	-0.431741	0.170437
C108	C	0.291405	-0.397492	0.456202
C109	C	-0.058718	-0.747612	0.456206
C110	C	0.291405	-0.397491	0.106081
C111	C	-0.194663	-0.492867	0.372424
C112	C	-0.190576	-0.459079	0.402130
C113	C	-0.195067	-0.551205	0.401525
C114	C	-0.194664	-0.492861	0.285255
C115	C	-0.190579	-0.459066	0.221759
C116	C	-0.195068	-0.551198	0.314488
C117	C	-0.194659	-0.580029	0.372420
C118	C	-0.190568	-0.639436	0.402122
C119	C	-0.195072	-0.464168	0.314492
C120	C	-0.187261	-0.687429	0.426117
C121	C	-0.187273	-0.431781	0.426129
C122	C	-0.187277	-0.431763	0.170460
C123	C	-0.183114	-0.747640	0.456221
C124	C	-0.183130	-0.397535	0.456237
C125	C	-0.183135	-0.397510	0.106104
C126	C	-0.134871	-0.090559	-0.372306
C127	C	-0.138962	-0.031152	-0.402008
C128	C	-0.134463	-0.119384	-0.401410
C129	C	-0.134866	-0.177727	-0.285140
C130	C	-0.138951	-0.211521	-0.221644
C131	C	-0.134458	-0.206420	-0.314377
C132	C	-0.134867	-0.177722	-0.372309
C133	C	-0.138954	-0.211510	-0.402014
C134	C	-0.134461	-0.119389	-0.314374
C135	C	-0.142257	-0.238809	-0.426013
C136	C	-0.142268	0.016841	-0.426004
C137	C	-0.142253	-0.238825	-0.170345
C138	C	-0.146400	-0.273055	-0.456120
C139	C	-0.146415	0.077052	-0.456108
C140	C	-0.146394	-0.273077	-0.105989
C141	C	0.207598	-0.177788	0.372409
C142	C	0.237303	-0.211582	0.402109
C143	C	0.149666	-0.206489	0.401514
C144	C	0.207597	-0.090611	0.285248
C145	C	0.237301	-0.031195	0.221754
C146	C	0.149665	-0.119445	0.314485
C147	C	0.120430	-0.177791	0.372415
C148	C	0.056934	-0.211588	0.402120
C149	C	0.236701	-0.119442	0.314480
C150	C	0.005636	-0.238893	0.426118
C151	C	0.261301	-0.238884	0.426102
C152	C	0.261298	0.016807	0.170457
C153	C	-0.058720	-0.273148	0.456225
C154	C	0.291407	-0.273136	0.456204
C155	C	0.291404	0.077028	0.106102
O156	O	-0.150455	-0.326071	0.575100
O157	O	-0.179034	-0.424638	0.505102
O158	O	-0.080463	-0.326071	0.505091
O159	O	-0.249025	-0.424639	0.575110
O160	O	-0.080471	-0.246011	0.425033
O161	O	-0.179041	-0.344578	0.425044
O162	O	-0.150462	-0.246011	0.495042
Cu163	Cu	-0.164752	-0.287984	0.452733
Cu164	Cu	-0.164743	-0.382665	0.547411
O165	O	-0.249032	-0.344578	0.495052
C166	C	0.550043	0.507205	-0.372303
C167	C	0.613538	0.541001	-0.402008
C168	C	0.520807	0.535904	-0.401402
C169	C	0.462876	0.420026	-0.285136
C170	C	0.433172	0.360609	-0.221642
C171	C	0.433772	0.448857	-0.314368
C172	C	0.462875	0.507203	-0.372297
C173	C	0.433171	0.540997	-0.401996
C174	C	0.520807	0.448859	-0.314373
C175	C	0.409173	0.568300	-0.425990
C176	C	0.664837	0.568306	-0.426006
C177	C	0.409174	0.312607	-0.170345
C178	C	0.379066	0.602552	-0.456091
C179	C	0.729192	0.602561	-0.456114
C180	C	0.379069	0.252386	-0.105990
H181	H	0.284300	-0.095262	-0.030933
H182	H	0.284297	-0.417189	0.290989
O183	O	0.299751	-0.087474	0.283387
H184	H	0.302336	-0.087206	0.243375
H185	H	0.544279	0.582851	-0.449001
H186	H	-0.133808	-0.095252	-0.449010
O187	O	0.118569	-0.268682	0.464560
H188	H	0.143375	-0.256765	0.492808
O189	O	0.370721	0.416896	-0.283281
H190	H	0.355305	0.371398	-0.238002
H191	H	0.126193	-0.095317	0.291012
O192	O	0.551897	-0.583145	0.031244
H193	H	0.521813	-0.628642	0.031466
H194	H	0.126197	-0.253370	-0.030929
O195	O	0.551893	0.416891	-0.283282
H196	H	0.597174	0.446760	-0.313359
O197	O	0.118573	-0.087439	-0.031135
H198	H	0.073297	-0.117302	-0.031356
H199	H	0.126193	-0.575302	0.449100
H200	H	0.544286	-0.095264	-0.290924
O201	O	0.118582	-0.583127	0.283373
H202	H	0.073302	-0.628619	0.313449
O203	O	0.551899	-0.401963	0.031232
H204	H	0.527094	-0.413895	0.071405
O205	O	0.370741	-0.583134	0.031194
H206	H	0.368187	-0.545696	-0.008575
O207	O	0.551911	-0.087428	-0.464479
H208	H	0.521839	-0.117298	-0.479892
H209	H	-0.195731	-0.575326	0.291015
O210	O	0.370731	-0.268601	-0.283300
H211	H	0.355314	-0.283806	-0.313375
H212	H	-0.195712	-0.575326	0.449122
O213	O	-0.195946	-0.401990	0.283399
H214	H	-0.196157	-0.386788	0.313477
H215	H	-0.133854	-0.095293	-0.290887
O216	O	-0.133597	-0.268607	-0.283290
H217	H	-0.133389	-0.283818	-0.238007
