data_functionalizedCrystal
_audit_creation_method	'MofGen! by Chris Wilmer'
_symmetry_space_group_name_H-M	'P1'
_symmetry_Int_Tables_number	1
_symmetry_cell_setting	triclinic
loop_
_symmetry_equiv_pos_as_xyz
  x,y,z
_cell_length_a	14.628931
_cell_length_b	12.970454
_cell_length_c	12.970454
_cell_angle_alpha	59.999776
_cell_angle_beta	89.999753
_cell_angle_gamma	59.999998
loop_
_atom_site_label
_atom_site_type_symbol
_atom_site_fract_x
_atom_site_fract_y
_atom_site_fract_z
Zr1	Zr	0.880620	1.128517	-0.135304
O2	O	0.734660	1.343608	-0.299929
O3	O	0.925365	0.913427	-0.084836
O4	O	0.925366	1.128516	-0.299927
O5	O	0.734658	1.128519	0.084829
O6	O	1.075798	1.128516	-0.299927
O7	O	0.734659	1.128518	-0.084838
O8	O	1.075796	0.743760	0.084831
O9	O	0.734660	1.513275	-0.299930
O10	O	1.056713	1.001896	-0.063313
O11	O	0.944447	1.001897	0.063307
O12	O	0.944448	1.255138	-0.189935
O13	O	0.832182	1.255139	-0.063315
Zr14	Zr	1.120540	1.128518	0.135295
Zr15	Zr	1.120542	1.128517	-0.135303
Zr16	Zr	0.880618	1.128519	0.135295
Zr17	Zr	0.880620	1.399117	-0.135305
Zr18	Zr	1.120540	0.857918	0.135297
O19	O	1.075796	1.343609	0.084828
O20	O	1.075798	1.343607	-0.299928
O21	O	0.734658	1.343610	0.084828
O22	O	1.266500	0.913428	0.299920
O23	O	1.266503	0.913425	-0.084836
O24	O	0.925362	0.913429	0.299920
O25	O	1.266503	1.128516	-0.084837
O26	O	1.075794	1.128519	0.299919
O27	O	0.925362	1.128519	0.299919
O28	O	1.266502	1.128517	0.084830
O29	O	0.925366	1.513275	-0.299929
O30	O	1.075794	0.743761	0.299921
O31	O	1.266500	0.743760	0.299921
O32	O	1.266501	0.743759	0.084832
O33	O	0.734659	1.513276	-0.084840
O34	O	0.925365	1.513276	-0.084839
O35	O	1.056712	1.001898	0.189927
O36	O	1.168978	1.001897	0.063307
O37	O	1.056713	1.255138	-0.063315
O38	O	0.944447	1.255139	0.063305
C39	C	1.000580	0.790038	-0.000002
C40	C	1.000580	0.675162	-0.000002
C41	C	0.700474	1.128519	-0.000005
C42	C	0.598621	1.128519	-0.000005
C43	C	0.608903	1.002894	0.062808
C44	C	0.503634	1.002892	0.062809
C45	C	1.300686	1.128517	-0.000004
C46	C	1.402539	1.128516	-0.000003
C47	C	1.000582	1.128516	-0.338482
C48	C	1.000583	1.128515	-0.453358
C49	C	1.000580	1.466997	-0.000006
C50	C	1.000580	1.581874	-0.000006
C51	C	1.000578	1.128519	0.338473
C52	C	1.000577	1.128520	0.453350
C53	C	1.300686	0.790037	-0.000002
C54	C	1.402539	0.675160	-0.000001
C55	C	1.000578	0.790040	0.338475
C56	C	1.000577	0.675164	0.453352
C57	C	1.300684	0.790039	0.338476
C58	C	1.402536	0.675163	0.453353
C59	C	0.700477	1.466996	-0.338484
C60	C	0.598624	1.581873	-0.453361
C61	C	0.700475	1.466998	-0.000006
C62	C	0.598621	1.581875	-0.000007
C63	C	1.000582	1.466995	-0.338483
C64	C	1.000583	1.581871	-0.453360
C65	C	1.450371	0.527728	0.093475
C66	C	1.546063	0.419773	0.093480
C67	C	1.593926	0.459255	0.000013
C68	C	1.546086	0.606702	-0.093473
C69	C	1.450391	0.714653	-0.093482
C70	C	1.450375	0.527730	0.507299
C71	C	1.546087	0.419775	0.615226
C72	C	1.593953	0.459255	0.669210
C73	C	1.546110	0.606702	0.615253
C74	C	1.450405	0.714654	0.507323
C75	C	0.550794	1.729305	-0.507317
C76	C	0.455103	1.837260	-0.615268
C77	C	0.407240	1.797780	-0.669255
C78	C	0.455079	1.650332	-0.615293
C79	C	0.550773	1.542380	-0.507350
C80	C	0.550788	1.542348	0.093477
C81	C	0.455096	1.650272	0.093502
C82	C	0.407234	1.797723	0.000037
C83	C	0.455076	1.837249	-0.093452
C84	C	0.550771	1.729326	-0.093471
H85	H	0.512262	0.895340	0.116577
O86	O	0.408742	1.611606	0.184375
C87	C	0.471521	1.458320	0.266865
H88	H	0.519375	1.408817	0.216479
H89	H	0.412665	1.424118	0.297034
H90	H	0.533284	1.418076	0.353783
H91	H	0.695639	0.895344	0.116589
H92	H	1.411413	0.495553	0.169591
O93	O	0.392283	1.256801	-0.063962
C94	C	0.444214	1.264582	0.020943
H95	H	0.448546	1.189621	0.120496
H96	H	0.393562	1.381497	-0.007702
H97	H	0.532523	1.228922	0.018693
H98	H	1.585002	0.299723	0.169612
O99	O	0.597465	1.399072	0.184311
C100	C	0.708492	1.331065	0.252708
H101	H	0.741383	1.396059	0.192470
H102	H	0.763270	1.215599	0.278152
H103	H	0.710604	1.326543	0.342806
H104	H	1.585070	0.638829	-0.169572
O105	O	1.404054	0.489108	0.455006
C106	C	1.466801	0.335825	0.525801
H107	H	1.555375	0.286293	0.579773
H108	H	1.470353	0.301637	0.459412
H109	H	1.425414	0.295594	0.595464
H110	H	1.671845	0.371339	0.000032
H111	H	0.329312	1.885586	0.000066
O112	O	0.408401	1.980552	-0.184186
C113	C	0.313695	2.067312	-0.164093
H114	H	0.280301	2.001686	-0.106696
H115	H	0.246091	2.168029	-0.258980
H116	H	0.338110	2.102380	-0.110357
O117	O	1.403786	0.857889	-0.184382
C118	C	1.292737	0.925970	-0.252777
H119	H	1.282631	0.840423	-0.243634
H120	H	1.272987	1.009856	-0.356525
H121	H	1.232799	0.982683	-0.213479
O122	O	0.495126	1.256794	-0.064326
C123	C	0.436298	1.264568	-0.157009
H124	H	0.498430	1.189611	-0.181602
H125	H	0.383285	1.381483	-0.245279
H126	H	0.379611	1.228900	-0.119095
O127	O	0.597053	1.767986	-0.184420
C128	C	0.534293	1.921272	-0.266885
H129	H	0.445733	1.970781	-0.262403
H130	H	0.530702	1.955490	-0.367476
H131	H	0.575693	1.961496	-0.237464
H132	H	1.585023	0.299725	0.659148
O133	O	1.686830	0.354512	0.774157
C134	C	1.663124	0.369678	0.873039
H135	H	1.589426	0.486464	0.831787
H136	H	1.739681	0.343383	0.931145
H137	H	1.641096	0.291452	0.936141
O138	O	0.597093	1.767854	-0.454906
C139	C	0.518038	1.851081	-0.418467
H140	H	0.429991	1.902875	-0.475903
H141	H	0.527293	1.940285	-0.436291
H142	H	0.532904	1.777387	-0.313745
O143	O	0.408524	1.980548	-0.667857
C144	C	0.313784	2.067382	-0.774695
H145	H	0.321059	2.001818	-0.812421
H146	H	0.308639	2.168100	-0.850894
H147	H	0.235045	2.102444	-0.747162
O148	O	0.597376	1.399144	-0.455010
C149	C	0.708426	1.331058	-0.455319
H150	H	0.718536	1.416601	-0.531724
H151	H	0.728178	1.247169	-0.475177
H152	H	0.768362	1.274348	-0.359307
O153	O	0.314395	1.902601	-0.774239
C154	C	0.338080	1.887389	-0.873102
H155	H	0.432147	1.826812	-0.854789
H156	H	0.292759	1.999883	-0.966380
H157	H	0.308487	1.823173	-0.878081
O158	O	1.403744	0.857918	0.454918
C159	C	1.292725	0.925930	0.455333
H160	H	1.259813	0.860962	0.460074
H161	H	1.237948	1.041410	0.365329
H162	H	1.290641	0.930416	0.540928
H163	H	1.585098	0.638827	0.659222
H164	H	0.416094	1.618207	-0.659265
