data_functionalizedCrystal
_audit_creation_method	'MofGen! by Chris Wilmer'
_symmetry_space_group_name_H-M	'P1'
_symmetry_Int_Tables_number	1
_symmetry_cell_setting	triclinic
loop_
_symmetry_equiv_pos_as_xyz
  x,y,z
_cell_length_a	18.627212
_cell_length_b	18.627372
_cell_length_c	18.627297
_cell_angle_alpha	120.001380
_cell_angle_beta	89.999172
_cell_angle_gamma	60.000045
loop_
_atom_site_label
_atom_site_type_symbol
_atom_site_fract_x
_atom_site_fract_y
_atom_site_fract_z
O1	O	-1.125721	0.633241	0.021350
O2	O	-0.874317	0.486233	-0.021260
O3	O	-1.021319	0.633237	0.125747
O4	O	-0.978719	0.486237	-0.125657
O5	O	-1.021319	0.513834	0.125742
O6	O	-0.874317	0.366830	-0.021265
O7	O	-1.125721	0.513838	0.021346
Zn8	Zn	-1.000019	0.421376	0.000040
Zn9	Zn	-1.000019	0.578695	0.000046
O10	O	-0.978719	0.366834	-0.125662
C11	C	-0.613025	0.226051	-0.030932
C12	C	-0.568729	0.137460	-0.024824
C13	C	-0.699422	0.269041	-0.031546
C14	C	-0.613020	0.356041	-0.030948
C15	C	-0.568718	0.406435	-0.024856
C16	C	-0.699417	0.398833	-0.031561
C17	C	-0.743020	0.356040	-0.030949
C18	C	-0.837716	0.406432	-0.024859
C19	C	-0.569619	0.269042	-0.031544
O20	O	-0.492518	0.366839	-0.021251
O21	O	-0.388129	0.513853	0.021364
O22	O	-0.388104	0.366833	-0.125646
O23	O	-0.492543	0.513860	0.125758
O24	O	-0.507501	0.486223	-0.125662
O25	O	-0.507526	0.633243	0.021347
O26	O	-0.611915	0.486230	-0.021267
Zn27	Zn	-0.578678	0.578692	0.000037
Zn28	Zn	-0.421367	0.421390	0.000059
O29	O	-0.611940	0.633250	0.125742
C30	C	-0.257022	0.644041	0.031049
C31	C	-0.162324	0.593641	0.024948
C32	C	-0.300625	0.731050	0.031661
C33	C	-0.387025	0.644045	0.031052
C34	C	-0.431326	0.593648	0.024955
C35	C	-0.430430	0.731053	0.031664
C36	C	-0.387025	0.774047	0.031057
C37	C	-0.431326	0.862650	0.024965
C38	C	-0.300625	0.601244	0.031656
O39	O	-0.507530	0.895656	0.021369
O40	O	-0.611931	1.104462	-0.021219
O41	O	-0.611931	1.104461	0.125779
O42	O	-0.507530	0.895658	-0.125629
O43	O	-0.492527	1.104457	0.125777
O44	O	-0.492527	1.104459	-0.021222
O45	O	-0.388126	0.895652	0.021367
Zn46	Zn	-0.421368	1.000055	0.000072
Zn47	Zn	-0.578689	1.000060	0.000076
O48	O	-0.388126	0.895654	-0.125632
C49	C	-1.031015	0.644034	0.387047
C50	C	-1.024918	0.593637	0.431345
C51	C	-1.031622	0.731041	0.430453
C52	C	-1.031015	0.644034	0.257046
C53	C	-1.024918	0.593636	0.162347
C54	C	-1.031622	0.731041	0.300650
C55	C	-1.031014	0.774036	0.387050
C56	C	-1.024918	0.862637	0.431352
C57	C	-1.031622	0.601237	0.300647
C58	C	-0.386978	0.356014	-0.256954
C59	C	-0.431295	0.406423	-0.162256
C60	C	-0.430372	0.398799	-0.300567
C61	C	-0.256959	0.226005	-0.386945
C62	C	-0.162258	0.137407	-0.431234
C63	C	-0.300549	0.268987	-0.430360
C64	C	-0.386952	0.355991	-0.386966
C65	C	-0.431241	0.406375	-0.431278
C66	C	-0.300575	0.269010	-0.300546
C67	C	-0.969024	0.226034	-0.386964
C68	C	-0.975121	0.137433	-0.431265
C69	C	-0.968417	0.269028	-0.430368
C70	C	-0.969024	0.356036	-0.256961
C71	C	-0.975120	0.406435	-0.162262
C72	C	-0.968416	0.398833	-0.300562
C73	C	-0.969024	0.356034	-0.386962
C74	C	-0.975120	0.406431	-0.431262
C75	C	-0.968417	0.269029	-0.300564
O76	O	-0.978719	0.486232	0.611940
O77	O	-1.021319	0.633237	0.507550
O78	O	-0.874317	0.486231	0.507540
O79	O	-1.125721	0.633238	0.611950
O80	O	-0.874318	0.366829	0.388133
O81	O	-1.021320	0.513836	0.388143
O82	O	-0.978719	0.366830	0.492534
Zn83	Zn	-1.000019	0.421376	0.421380
Zn84	Zn	-1.000019	0.578692	0.578703
O85	O	-1.125721	0.513837	0.492544
O86	O	-0.978718	1.104438	0.492551
O87	O	-1.021319	0.895638	0.388152
O88	O	-0.874317	0.895634	0.388145
O89	O	-1.125721	1.104443	0.492558
O90	O	-0.874317	0.895637	0.507549
O91	O	-1.021319	0.895642	0.507556
O92	O	-0.978718	1.104442	0.611955
Zn93	Zn	-1.000018	1.000042	0.578713
Zn94	Zn	-1.000019	1.000038	0.421394
O95	O	-1.125720	1.104446	0.611961
C96	C	-0.743092	0.774055	0.387034
C97	C	-0.837794	0.862649	0.431323
C98	C	-0.699501	0.731068	0.430446
C99	C	-0.613069	0.644057	0.257046
C100	C	-0.568751	0.593657	0.162351
C101	C	-0.569676	0.601267	0.300656
C102	C	-0.613097	0.644066	0.387052
C103	C	-0.568808	0.593677	0.431359
C104	C	-0.699474	0.731058	0.300638
C105	C	-0.613028	1.356064	0.387086
C106	C	-0.568726	1.406458	0.431386
C107	C	-0.699428	1.398865	0.430495
C108	C	-0.613030	1.226064	0.257082
C109	C	-0.568731	1.137462	0.162381
C110	C	-0.699431	1.269062	0.300688
C111	C	-0.743032	1.356070	0.387091
C112	C	-0.837731	1.406471	0.431396
C113	C	-0.569624	1.269056	0.300683
O114	O	-0.492397	0.513728	-0.611911
O115	O	-0.388028	0.366765	-0.507479
O116	O	-0.388024	0.513759	-0.507485
O117	O	-0.492401	0.366734	-0.611906
O118	O	-0.507445	0.633170	-0.388093
O119	O	-0.507449	0.486176	-0.388088
O120	O	-0.611817	0.633140	-0.492519
Zn121	Zn	-0.578594	0.578617	-0.421347
Zn122	Zn	-0.421252	0.421287	-0.578651
O123	O	-0.611821	0.486146	-0.492514
C124	C	-0.257026	0.644044	-0.386944
C125	C	-0.162328	0.593643	-0.431250
C126	C	-0.300631	0.601250	-0.430347
C127	C	-0.387028	0.774051	-0.256934
C128	C	-0.431327	0.862652	-0.162234
C129	C	-0.430435	0.731059	-0.300535
C130	C	-0.387031	0.644051	-0.386938
C131	C	-0.431334	0.593658	-0.431237
C132	C	-0.300627	0.731052	-0.300541
H133	H	-0.498629	0.233054	-0.032524
H134	H	-0.265614	0.767027	0.032635
O135	O	-0.967102	0.225982	-0.258876
C136	C	-0.890990	0.125478	-0.305928
H137	H	-0.838741	0.117099	-0.347544
H138	H	-0.864769	0.107187	-0.257744
H139	H	-0.907911	0.070878	-0.350541
O140	O	-0.484973	1.226290	0.258961
C141	C	-0.480163	1.297234	0.254559
H142	H	-0.538503	1.377388	0.308771
H143	H	-0.416367	1.288413	0.263564
H144	H	-0.481730	1.283271	0.187784
O145	O	-0.258938	0.517822	-0.515084
C146	C	-0.305968	0.540476	-0.568549
H147	H	-0.347573	0.625960	-0.535316
H148	H	-0.257769	0.500206	-0.635023
H149	H	-0.350590	0.513579	-0.578541
O150	O	-0.258656	0.226043	-0.515014
C151	C	-0.182901	0.225636	-0.519830
H152	H	-0.161091	0.229777	-0.461487
H153	H	-0.127923	0.152827	-0.583625
H154	H	-0.198431	0.293972	-0.518272
H155	H	-0.501425	0.767049	-0.265521
H156	H	-0.734421	0.233049	-0.032532
H157	H	-1.032573	0.531206	0.265633
O158	O	-0.258894	0.517835	0.032986
C159	C	-0.234519	0.540528	0.109108
H160	H	-0.278396	0.626019	0.161340
H161	H	-0.242453	0.500292	0.135348
H162	H	-0.162998	0.513623	0.092191
H163	H	-0.501418	0.767031	0.032637
H164	H	-0.734430	1.233069	0.265684
O165	O	-0.741087	0.773949	0.258806
C166	C	-0.694054	0.803068	0.234485
H167	H	-0.622710	0.756301	0.229855
H168	H	-0.696569	0.789357	0.167932
H169	H	-0.724851	0.887091	0.286000
O170	O	-1.032641	0.773798	0.258767
C171	C	-0.957277	0.702835	0.183022
H172	H	-0.931358	0.622688	0.161206
H173	H	-0.975075	0.711656	0.128040
H174	H	-0.904457	0.716779	0.198568
O175	O	-0.258889	0.774053	-0.258866
C176	C	-0.234508	0.803105	-0.305932
H177	H	-0.278388	0.813734	-0.347538
H178	H	-0.242433	0.877511	-0.257758
H179	H	-0.162989	0.741565	-0.350556
H180	H	-0.734415	0.468836	-0.032551
H181	H	-1.032602	0.767023	0.501444
H182	H	-0.501365	0.468806	-0.265567
O183	O	-0.484931	0.517859	0.258929
C184	C	-0.431497	0.540551	0.234562
H185	H	-0.464758	0.626042	0.278444
H186	H	-0.365023	0.500313	0.242500
H187	H	-0.421501	0.513648	0.163042
H188	H	-0.265581	0.233042	-0.265527
H189	H	-0.734521	0.767063	0.501436
O190	O	-0.967101	0.482254	-0.258828
C191	C	-0.890989	0.459594	-0.234440
H192	H	-0.838741	0.374108	-0.278314
H193	H	-0.864768	0.499849	-0.242370
H194	H	-0.907909	0.486503	-0.162919
H195	H	-0.967423	0.233029	-0.501363
O196	O	-0.741216	1.482500	0.515134
C197	C	-0.745577	1.562639	0.519947
H198	H	-0.739911	1.549018	0.452710
H199	H	-0.811020	1.637415	0.570102
H200	H	-0.689329	1.566287	0.540922
