data_functionalizedCrystal
_audit_creation_method	'MofGen! by Chris Wilmer'
_symmetry_space_group_name_H-M	'P1'
_symmetry_Int_Tables_number	1
_symmetry_cell_setting	triclinic
loop_
_symmetry_equiv_pos_as_xyz
  x,y,z
_cell_length_a	14.519709
_cell_length_b	10.654550
_cell_length_c	9.730223
_cell_angle_alpha	90.000043
_cell_angle_beta	89.994652
_cell_angle_gamma	95.917462
loop_
_atom_site_label
_atom_site_type_symbol
_atom_site_fract_x
_atom_site_fract_y
_atom_site_fract_z
O1	O	0.129532	-1.666594	-0.114191
O2	O	0.141873	-1.300996	-0.114216
O3	O	0.001514	-1.493488	-0.114190
O4	O	0.269891	-1.474102	-0.114216
O5	O	0.001511	-1.493476	0.114390
O6	O	0.141869	-1.300984	0.114364
O7	O	0.129528	-1.666581	0.114389
Zn8	Zn	0.135698	-1.483781	0.150669
Zn9	Zn	0.135703	-1.483797	-0.150495
O10	O	0.269887	-1.474089	0.114363
C11	C	-0.032852	-1.492579	0.000100
C12	C	-0.135247	-1.489871	0.000100
C13	C	0.140965	-1.254201	0.000071
C14	C	0.138254	-1.114784	0.000061
C15	C	0.130436	-1.713377	0.000099
C16	C	0.133147	-1.852794	0.000100
C17	C	-0.510195	-1.479904	0.000064
C18	C	-0.405872	-1.482672	0.000075
C19	C	-0.322724	-1.484887	0.000083
C20	C	-0.218395	-1.487656	0.000091
C21	C	0.304253	-1.474999	0.000070
C22	C	0.406649	-1.477706	0.000061
N23	N	0.135694	-1.483779	0.356205
C24	C	0.220895	-1.034504	0.000057
C25	C	0.218342	-0.903507	0.000081
C26	C	0.050500	-0.933084	0.000108
C27	C	0.053054	-1.064078	0.000094
N28	N	0.135700	-1.483809	-0.356032
C29	C	0.073570	-1.569043	0.428142
C30	C	0.073570	-1.569056	0.572025
C31	C	0.197827	-1.398535	0.572021
C32	C	0.197822	-1.398518	0.428140
H33	H	0.290270	-1.075783	0.000041
O34	O	0.298706	-0.825703	0.000012
C35	C	0.465452	-0.810200	0.000059
C36	C	0.374506	-0.898456	0.000103
H37	H	0.526759	-0.868985	0.000161
H38	H	0.468515	-0.748143	-0.095615
H39	H	0.468405	-0.748119	0.095706
H40	H	0.371492	-0.960616	-0.095480
H41	H	0.371480	-0.960426	0.095840
O42	O	-0.032180	-0.883617	0.000067
C43	C	-0.110501	-0.694923	0.000176
C44	C	-0.016801	-0.750772	0.000195
H45	H	-0.098100	-0.587512	0.000309
H46	H	-0.151397	-0.727874	-0.095503
H47	H	-0.151381	-0.728053	0.095818
H48	H	0.024154	-0.717668	-0.095381
H49	H	0.024024	-0.717828	0.095938
O50	O	0.013070	-1.651729	0.358356
C51	C	-0.146811	-1.724975	0.314529
C52	C	-0.078381	-1.631245	0.393597
H53	H	-0.220764	-1.708465	0.343014
H54	H	-0.136253	-1.710349	0.199310
H55	H	-0.134066	-1.825574	0.342799
H56	H	-0.091085	-1.530610	0.365441
H57	H	-0.088955	-1.645981	0.508796
O58	O	-0.027315	-1.141892	0.000035
C59	C	-0.194061	-1.157416	0.000147
C60	C	-0.103120	-1.069149	0.000174
H61	H	-0.255373	-1.098639	0.000289
H62	H	-0.197125	-1.219454	-0.095540
H63	H	-0.197006	-1.219515	0.095781
H64	H	-0.100115	-1.006972	-0.095394
H65	H	-0.100094	-1.007197	0.095925
H66	H	0.022982	-1.638484	0.630593
H67	H	0.248412	-1.329120	0.630605
H68	H	0.248411	-1.329079	0.369565
