data_functionalizedCrystal
_audit_creation_method	'MofGen! by Chris Wilmer'
_symmetry_space_group_name_H-M	'P1'
_symmetry_Int_Tables_number	1
_symmetry_cell_setting	triclinic
loop_
_symmetry_equiv_pos_as_xyz
  x,y,z
_cell_length_a	6.817900
_cell_length_b	10.992469
_cell_length_c	10.992410
_cell_angle_alpha	91.830594
_cell_angle_beta	108.764651
_cell_angle_gamma	108.765624
loop_
_atom_site_label
_atom_site_type_symbol
_atom_site_fract_x
_atom_site_fract_y
_atom_site_fract_z
V1	V	-4.114252	-0.177761	-0.400575
O2	O	-4.072376	0.008542	-0.392968
O3	O	-4.091835	-0.352470	-0.397817
O4	O	-4.091844	-0.175026	-0.575288
O5	O	-4.072367	-0.170130	-0.214269
V6	V	-4.591146	-0.155477	-0.378293
O7	O	-4.390054	-0.226642	-0.449451
O8	O	-4.765541	-0.106595	-0.329417
O9	O	-4.390356	0.019232	-0.381051
O10	O	-4.750419	-0.341780	-0.385900
O11	O	-4.750428	-0.163108	-0.564599
O12	O	-4.390347	-0.158211	-0.203581
C13	C	-3.942316	-0.395060	-0.391493
C14	C	-4.005448	-0.537887	-0.390403
C15	C	-3.807069	-0.584385	-0.382247
C16	C	-3.872923	-0.733022	-0.381616
C17	C	-4.270158	-0.764535	-0.515760
C18	C	-4.203032	-0.615889	-0.516930
C19	C	-4.079366	-0.577587	-0.271579
C20	C	-4.140104	-0.725808	-0.268700
C21	C	-3.942326	-0.168712	-0.617873
C22	C	-4.005461	-0.167632	-0.760701
C23	C	-3.872583	-0.157796	-0.955826
C24	C	-3.807033	-0.159451	-0.807342
C25	C	-4.203480	-0.294312	-0.837792
C26	C	-4.267793	-0.293192	-0.986359
C27	C	-4.145553	-0.047893	-0.948352
C28	C	-4.074844	-0.047293	-0.799339
C29	C	-4.203218	0.061816	-0.387371
C30	C	-4.119326	0.204641	-0.388470
C31	C	-4.203207	-0.164530	-0.160989
C32	C	-4.119310	-0.165603	-0.018159
H33	H	-4.157387	-0.592854	-0.606780
F34	F	-3.612948	-0.040410	-0.737632
F35	F	-3.993118	-0.749598	-0.145708
H36	H	-3.847648	-0.242371	-1.003809
H37	H	-4.353047	-0.586514	-0.528115
F38	F	-3.719351	-0.037817	-0.980277
F39	F	-4.507333	-0.819136	-0.528391
F40	F	-3.732311	-0.271538	-0.774891
H41	H	-3.756357	-0.752659	-0.290140
H42	H	-4.314806	-0.767458	-0.266277
H43	H	-4.252233	-0.382320	-1.032620
H44	H	-3.847754	-0.779329	-0.467026
H45	H	-4.449795	-0.304208	-1.028989
F46	F	-4.254125	-0.828376	-0.632039
F47	F	-3.732122	-0.549598	-0.493857
H48	H	-4.216957	-0.045805	-0.766828
F49	F	-4.400039	-0.308120	-0.800149
H50	H	-4.157720	-0.383659	-0.812178
F51	F	-4.011041	0.077845	-0.974978
F52	F	-3.900996	-0.506267	-0.146776
H53	H	-4.227052	-0.548039	-0.276362
F54	F	-3.887595	0.075199	-0.730926
F55	F	-4.379494	-0.053906	-1.001736
H56	H	-3.657894	-0.531792	-0.291257
