data_functionalizedCrystal
_audit_creation_method	'MofGen! by Chris Wilmer'
_symmetry_space_group_name_H-M	'P1'
_symmetry_Int_Tables_number	1
_symmetry_cell_setting	triclinic
loop_
_symmetry_equiv_pos_as_xyz
  x,y,z
_cell_length_a	13.897447
_cell_length_b	19.805407
_cell_length_c	13.897441
_cell_angle_alpha	90.022189
_cell_angle_beta	89.971646
_cell_angle_gamma	89.981485
loop_
_atom_site_label
_atom_site_type_symbol
_atom_site_fract_x
_atom_site_fract_y
_atom_site_fract_z
Zn1	Zn	-0.384019	-1.034776	-0.545482
Zn2	Zn	-0.545338	-1.034702	-0.384187
Zn3	Zn	-0.384056	-0.921588	-0.384190
Zn4	Zn	-0.545271	-0.921567	-0.545430
O5	O	-0.464671	-0.978158	-0.464822
O6	O	-0.405431	-1.129482	-0.524107
O7	O	-0.523987	-1.019675	-0.249206
O8	O	-0.249070	-0.936642	-0.405609
O9	O	-0.523952	-1.129428	-0.405604
O10	O	-0.249043	-1.019801	-0.524110
O11	O	-0.405494	-0.936571	-0.249208
O12	O	-0.405429	-0.826869	-0.405559
O13	O	-0.523837	-0.936607	-0.680418
O14	O	-0.523873	-0.826853	-0.524020
O15	O	-0.405366	-1.019780	-0.680457
O16	O	-0.680311	-1.019655	-0.405553
O17	O	-0.680262	-0.936535	-0.524017
C18	C	-0.464648	-0.802302	-0.464785
C19	C	-0.464662	-0.727070	-0.464791
C20	C	-0.526428	-0.691736	-0.526373
C21	C	-0.526428	-0.621047	-0.526384
C22	C	-0.464666	-0.585695	-0.464808
C23	C	-0.402893	-0.621034	-0.403223
C24	C	-0.402889	-0.691721	-0.403218
C25	C	-0.402907	-0.335961	-0.403244
C26	C	-0.402918	-0.265268	-0.403253
C27	C	-0.526446	-0.265287	-0.526411
C28	C	-0.526442	-0.335974	-0.526406
C29	C	-0.464666	-0.371307	-0.464825
C30	C	-0.464666	-0.447956	-0.464815
C31	C	-0.464670	-0.509047	-0.464812
C32	C	-0.715286	-0.978103	-0.464800
C33	C	-0.822500	-0.978142	-0.464823
C34	C	-0.909569	-0.978174	-0.464845
C35	C	-1.018802	-0.978222	-0.464869
C36	C	-0.213078	-0.978232	-0.464866
C37	C	-0.105864	-0.978263	-0.464884
C38	C	-0.464590	-0.978200	-0.716415
C39	C	-0.464556	-0.978217	-0.823629
C40	C	-0.464689	-0.154701	-0.464851
C41	C	-0.464680	-0.229933	-0.464840
C42	C	-0.464529	-0.978231	-0.910699
C43	C	-0.464485	-0.978251	-1.019932
C44	C	-0.464682	-0.978156	-0.214208
C45	C	-0.464445	-0.978269	-0.106995
H46	H	-0.352613	-0.364720	-0.353094
H47	H	-0.352602	-0.592244	-0.353091
H48	H	-0.352618	-0.236486	-0.353109
H49	H	-0.576738	-0.364755	-0.576544
C50	C	-0.648525	-0.684646	-0.648123
C51	C	-0.594316	-0.730592	-0.594065
H52	H	-0.690430	-0.708635	-0.689920
H53	H	-0.685372	-0.657058	-0.606036
H54	H	-0.606532	-0.657093	-0.685089
H55	H	-0.636309	-0.758142	-0.557094
H56	H	-0.557466	-0.758192	-0.636157
C57	C	-0.540012	-0.541603	-0.656128
C58	C	-0.594329	-0.582213	-0.594076
H59	H	-0.581937	-0.517634	-0.697924
H60	H	-0.503240	-0.510431	-0.619464
H61	H	-0.498034	-0.569207	-0.693091
H62	H	-0.636303	-0.554608	-0.557108
H63	H	-0.631118	-0.613388	-0.630745
H64	H	-0.576743	-0.236510	-0.576556
H65	H	-0.352588	-0.720489	-0.353077
