data_functionalizedCrystal
_audit_creation_method	'MofGen! by Chris Wilmer'
_symmetry_space_group_name_H-M	'P1'
_symmetry_Int_Tables_number	1
_symmetry_cell_setting	triclinic
loop_
_symmetry_equiv_pos_as_xyz
  x,y,z
_cell_length_a	13.033409
_cell_length_b	13.032721
_cell_length_c	12.827885
_cell_angle_alpha	97.149059
_cell_angle_beta	97.170920
_cell_angle_gamma	89.138002
loop_
_atom_site_label
_atom_site_type_symbol
_atom_site_fract_x
_atom_site_fract_y
_atom_site_fract_z
Zn1	Zn	1.520147	-0.608848	-0.474704
Zn2	Zn	1.498183	-0.780840	-0.324588
Zn3	Zn	1.348170	-0.587080	-0.319097
Zn4	Zn	1.326313	-0.758957	-0.518378
O5	O	1.423203	-0.683931	-0.409192
O6	O	1.661134	-0.649931	-0.438811
O7	O	1.478239	-0.755185	-0.177635
O8	O	1.389323	-0.446057	-0.319163
O9	O	1.644997	-0.776293	-0.328521
O10	O	1.515674	-0.462049	-0.433487
O11	O	1.368025	-0.612831	-0.173601
O12	O	1.201370	-0.591612	-0.361512
O13	O	1.352070	-0.738997	-0.658809
O14	O	1.185312	-0.717889	-0.507923
O15	O	1.494479	-0.628712	-0.626722
O16	O	1.457044	-0.921848	-0.370870
O17	O	1.330772	-0.905771	-0.513247
C18	C	1.156029	-0.650015	-0.438861
C19	C	1.041727	-0.635530	-0.451582
C20	C	1.389181	-0.951127	-0.447413
C21	C	1.374720	-1.065447	-0.463789
C22	C	0.864656	-0.676527	-0.415721
C23	C	0.982792	-0.691501	-0.402569
C24	C	1.430805	-1.124341	-0.400686
C25	C	1.415861	-1.242496	-0.417610
C26	C	1.691421	-0.717981	-0.379407
C27	C	1.805719	-0.732491	-0.366714
C28	C	1.423287	-0.683841	-0.681740
C29	C	1.423322	-0.683803	-0.797884
C30	C	1.457387	-0.415695	-0.370841
C31	C	1.471953	-0.301389	-0.354498
C32	C	1.368807	-0.613352	-0.847668
C33	C	1.368842	-0.613311	-0.967709
C34	C	1.423189	-0.683954	-0.137686
C35	C	1.423389	-0.683728	-0.021480
H36	H	0.827654	-0.617532	-0.467420
H37	H	1.322103	-0.553070	-0.801422
H38	H	1.019789	-0.750510	-0.350878
H39	H	1.470020	-0.744090	-0.844131
H40	H	1.004731	-0.576529	-0.503283
O41	O	0.850022	-0.802802	-0.305045
C42	C	1.008150	-0.881911	-0.235796
C43	C	0.958118	-0.802229	-0.305649
H44	H	1.095551	-0.881490	-0.236279
H45	H	0.989437	-0.861107	-0.151265
H46	H	0.976483	-0.962190	-0.268195
H47	H	0.989757	-0.721922	-0.273345
H48	H	0.976825	-0.823122	-0.390170
O49	O	1.501214	-1.079978	-0.321307
C50	C	1.580381	-0.921775	-0.232132
C51	C	1.500589	-0.971876	-0.322055
H52	H	1.579917	-0.834370	-0.232722
H53	H	1.559722	-0.940551	-0.152825
H54	H	1.660637	-0.953334	-0.244326
H55	H	1.420305	-0.940346	-0.309963
H56	H	1.521336	-0.953106	-0.401330
H57	H	1.356780	-1.279545	-0.484172
O58	O	1.542365	-1.257032	-0.275111
C59	C	1.621531	-1.098832	-0.185929
C60	C	1.541741	-1.148929	-0.275856
H61	H	1.621068	-1.011426	-0.186515
H62	H	1.600868	-1.117610	-0.106624
H63	H	1.701787	-1.130391	-0.198120
H64	H	1.461457	-1.117399	-0.263766
H65	H	1.562492	-1.130157	-0.355129
H66	H	1.322175	-0.552991	-1.010529
O67	O	1.304250	-1.109803	-0.543112
C68	C	1.225178	-1.268017	-0.632373
C69	C	1.305006	-1.217921	-0.542482
H70	H	1.225779	-1.355439	-0.631908
H71	H	1.144870	-1.236597	-0.620191
H72	H	1.245843	-1.249097	-0.711626
H73	H	1.284438	-1.236821	-0.463190
H74	H	1.385292	-1.249343	-0.554757
O75	O	1.478913	-0.755783	-0.970395
C76	C	1.474926	-0.896259	-0.865304
C77	C	1.411919	-0.814723	-0.923145
H78	H	1.420791	-0.943920	-0.827068
H79	H	1.515972	-0.949345	-0.924430
H80	H	1.534681	-0.855818	-0.801526
H81	H	1.352111	-0.855078	-0.986920
H82	H	1.370945	-0.761643	-0.863953
