data_functionalizedCrystal
_audit_creation_method	'MofGen! by Chris Wilmer'
_symmetry_space_group_name_H-M	'P1'
_symmetry_Int_Tables_number	1
_symmetry_cell_setting	triclinic
loop_
_symmetry_equiv_pos_as_xyz
  x,y,z
_cell_length_a	10.489711
_cell_length_b	10.489716
_cell_length_c	8.965430
_cell_angle_alpha	90.004464
_cell_angle_beta	89.994616
_cell_angle_gamma	84.528072
loop_
_atom_site_label
_atom_site_type_symbol
_atom_site_fract_x
_atom_site_fract_y
_atom_site_fract_z
O1	O	1.694060	0.179780	-0.124079
O2	O	1.322858	0.196712	-0.124068
O3	O	1.516921	0.002645	-0.124079
O4	O	1.499996	0.373847	-0.124068
O5	O	1.516905	0.002658	0.124000
O6	O	1.322841	0.196725	0.124010
O7	O	1.694043	0.179793	0.124000
Cu8	Cu	1.508441	0.188260	0.146657
Cu9	Cu	1.508460	0.188245	-0.146725
O10	O	1.499979	0.373860	0.124011
C11	C	1.275317	0.195448	-0.000028
C12	C	1.133686	0.191646	-0.000025
C13	C	1.515642	-0.044880	-0.000044
C14	C	1.511837	-0.186511	-0.000058
C15	C	0.951289	0.308352	-0.000038
C16	C	1.043448	0.250049	-0.122354
C17	C	1.043405	0.250031	0.122233
C18	C	0.973508	0.126505	-0.122473
C19	C	0.973455	0.126504	0.122223
C20	C	1.065587	0.068111	-0.000122
C21	C	1.630843	-0.284198	-0.000047
C22	C	1.567965	-0.361558	-0.122358
C23	C	1.567922	-0.361509	0.122229
C24	C	1.449009	-0.262006	-0.122469
C25	C	1.448983	-0.261952	0.122227
C26	C	1.386018	-0.339263	-0.000113
C27	C	1.741584	0.181057	-0.000044
C28	C	1.883215	0.184859	-0.000057
C29	C	1.501259	0.421385	-0.000027
C30	C	1.505064	0.563016	-0.000024
N31	N	1.508436	0.188270	0.353006
N32	N	1.508474	0.188225	-0.353074
C33	C	1.418660	0.277990	0.450317
C34	C	1.534156	0.303788	0.549728
C35	C	1.392989	0.162482	0.549722
C36	C	1.623991	0.214127	0.450229
C37	C	1.482748	0.072770	0.450213
C38	C	1.598326	0.098520	0.549580
H39	H	0.901590	0.409854	-0.000157
H40	H	1.398783	-0.218423	0.225640
F41	F	1.083857	0.318362	0.257394
F42	F	1.265359	0.133997	0.606848
H43	H	1.342810	0.353933	0.406732
H44	H	1.618177	-0.404982	0.225630
F45	F	1.250616	-0.371185	-0.000191
H46	H	1.074445	0.302300	-0.225755
F47	F	1.454268	-0.054834	0.393031
F48	F	1.633636	-0.418427	-0.257520
F49	F	0.933260	0.058251	-0.257787
H50	H	1.115053	-0.033485	-0.000187
H51	H	1.398806	-0.218702	-0.225988
H52	H	0.942430	0.074299	0.225634
H53	H	1.555910	0.401445	0.593439
F54	F	1.766142	-0.251955	-0.000209
F55	F	1.697687	-0.000680	0.606199
H56	H	1.721661	0.236035	0.406709
