data_functionalizedCrystal
_audit_creation_method	'MofGen! by Chris Wilmer'
_symmetry_space_group_name_H-M	'P1'
_symmetry_Int_Tables_number	1
_symmetry_cell_setting	triclinic
loop_
_symmetry_equiv_pos_as_xyz
  x,y,z
_cell_length_a	16.109296
_cell_length_b	14.853567
_cell_length_c	15.186229
_cell_angle_alpha	89.996484
_cell_angle_beta	89.996416
_cell_angle_gamma	96.452890
loop_
_atom_site_label
_atom_site_type_symbol
_atom_site_fract_x
_atom_site_fract_y
_atom_site_fract_z
O1	O	-1.103299	0.115853	0.073180
O2	O	-0.861257	0.130279	0.073190
O3	O	-0.988744	-0.008175	0.073187
O4	O	-0.975813	0.254306	0.073182
O5	O	-0.988729	-0.008167	-0.073270
O6	O	-0.861242	0.130287	-0.073268
O7	O	-1.103284	0.115861	-0.073278
Zn8	Zn	-0.982261	0.123075	-0.096526
Zn9	Zn	-0.982281	0.123065	0.096438
O10	O	-0.975798	0.254314	-0.073275
C11	C	-0.830274	0.129699	-0.000038
C12	C	-0.737976	0.127950	-0.000034
C13	C	-0.429084	0.204385	-0.000052
C14	C	-0.515807	0.206037	-0.000047
C15	C	-0.535449	0.041770	-0.000032
C16	C	-0.448728	0.040118	-0.000031
C17	C	-0.395547	0.121429	-0.000046
C18	C	-0.568991	0.124732	-0.000041
C19	C	-0.663020	0.126523	-0.000035
C20	C	-0.301513	0.119639	-0.000050
C21	C	-0.988150	-0.041759	-0.000039
C22	C	-0.986394	-0.141839	-0.000031
C23	C	-0.903243	-0.554234	-0.000045
C24	C	-1.054700	-0.575768	-0.000051
C25	C	-1.056351	-0.481737	-0.000046
C26	C	-0.981446	-0.423950	-0.000041
C27	C	-0.904891	-0.460194	-0.000042
C28	C	-1.132904	-0.445486	-0.000054
C29	C	-1.134558	-0.351450	-0.000050
C30	C	-1.059653	-0.293661	-0.000039
C31	C	-0.983095	-0.329910	-0.000039
C32	C	-0.908191	-0.272123	-0.000035
C33	C	-0.831632	-0.308370	-0.000028
C34	C	-0.829986	-0.402405	-0.000032
C35	C	-1.061299	-0.199626	-0.000036
C36	C	-0.909839	-0.178083	-0.000032
C37	C	-0.134267	0.116446	-0.000050
C38	C	-0.226563	0.118211	-0.000053
C39	C	-0.976391	0.287898	-0.000047
C40	C	-0.978147	0.387979	-0.000049
N41	N	-0.982253	0.123081	-0.228219
C42	C	-1.032754	0.177762	-0.453945
C43	C	-1.032763	0.177756	-0.546134
C44	C	-0.931792	0.068364	-0.546137
C45	C	-0.931788	0.068366	-0.453949
C46	C	-0.982267	0.123071	-0.407855
C47	C	-0.982281	0.123062	-0.592233
C48	C	-0.982290	0.123054	-0.692189
C49	C	-0.982259	0.123077	-0.307893
N50	N	-0.982295	0.123051	0.228130
H51	H	-0.421423	-0.027439	-0.000023
C52	C	-1.088294	0.237922	-0.596829
H53	H	-1.118351	0.270504	-0.556171
H54	H	-1.126518	0.200991	-0.632784
H55	H	-1.054268	0.279404	-0.632798
H56	H	-1.073858	0.222306	-0.416418
C57	C	-1.137087	-0.639330	-0.000058
H58	H	-1.125141	-0.700525	-0.000056
H59	H	-1.168470	-0.628338	-0.051129
H60	H	-1.168475	-0.628353	0.051023
C61	C	-0.819035	-0.594101	-0.000041
H62	H	-0.828776	-0.658381	-0.000048
H63	H	-0.788193	-0.574267	0.051031
H64	H	-0.788188	-0.574261	-0.051121
H65	H	-1.196897	-0.321946	-0.000054
H66	H	-0.890675	0.023825	-0.416422
C67	C	-1.215290	-0.509050	-0.000065
H68	H	-1.203342	-0.570244	-0.000056
H69	H	-1.246668	-0.498062	-0.051141
H70	H	-1.246684	-0.498071	0.051011
H71	H	-0.385786	0.270594	-0.000064
C72	C	-0.827445	-0.114520	-0.000023
H73	H	-0.839389	-0.053324	-0.000018
H74	H	-0.796049	-0.125502	-0.051091
H75	H	-0.796071	-0.125512	0.051061
C76	C	-0.552694	0.297289	-0.000059
H77	H	-0.508599	0.345474	-0.000074
H78	H	-0.586118	0.301354	0.051013
H79	H	-0.586112	0.301344	-0.051139
C80	C	-0.593950	-0.047664	-0.000028
H81	H	-0.650402	-0.034801	-0.000039
H82	H	-0.583779	-0.081685	0.051046
H83	H	-0.583766	-0.081677	-0.051106
H84	H	-0.770645	-0.261308	-0.000031
C85	C	-1.145500	-0.159752	-0.000046
H86	H	-1.135755	-0.095472	-0.000048
H87	H	-1.176356	-0.179595	0.051021
H88	H	-1.176333	-0.179580	-0.051131
C89	C	-0.745782	-0.442279	-0.000037
H90	H	-0.755530	-0.506559	-0.000051
H91	H	-0.714935	-0.422455	0.051035
H92	H	-0.714937	-0.422436	-0.051117
C93	C	-0.876260	0.008203	-0.596843
H94	H	-0.883486	0.016041	-0.658348
H95	H	-0.891633	-0.053478	-0.581731
H96	H	-0.819393	0.024948	-0.581740
