data_functionalizedCrystal
_audit_creation_method	'MofGen! by Chris Wilmer'
_symmetry_space_group_name_H-M	'P1'
_symmetry_Int_Tables_number	1
_symmetry_cell_setting	triclinic
loop_
_symmetry_equiv_pos_as_xyz
  x,y,z
_cell_length_a	12.759401
_cell_length_b	25.639239
_cell_length_c	12.759393
_cell_angle_alpha	89.962948
_cell_angle_beta	89.981504
_cell_angle_gamma	90.038847
loop_
_atom_site_label
_atom_site_type_symbol
_atom_site_fract_x
_atom_site_fract_y
_atom_site_fract_z
Zn1	Zn	1.606080	-0.208118	-0.593941
Zn2	Zn	1.605901	-0.295564	-0.418245
Zn3	Zn	1.430382	-0.208145	-0.418281
Zn4	Zn	1.430297	-0.295524	-0.593886
O5	O	1.518165	-0.251838	-0.506088
O6	O	1.753078	-0.219723	-0.570643
O7	O	1.582579	-0.283996	-0.271228
O8	O	1.453799	-0.134976	-0.441621
O9	O	1.752946	-0.283970	-0.441559
O10	O	1.582884	-0.134956	-0.570678
O11	O	1.453626	-0.219770	-0.271255
O12	O	1.283350	-0.219731	-0.441567
O13	O	1.453655	-0.283901	-0.740914
O14	O	1.283288	-0.283928	-0.570584
O15	O	1.582802	-0.219684	-0.740955
O16	O	1.582496	-0.368724	-0.441505
O17	O	1.453481	-0.368695	-0.570549
C18	C	1.245198	-0.251828	-0.506074
C19	C	1.128421	-0.251837	-0.506093
C20	C	1.517989	-0.387680	-0.506040
C21	C	1.518009	-0.445795	-0.506055
C22	C	1.073554	-0.285318	-0.573160
C23	C	0.963830	-0.285324	-0.573172
C24	C	0.963850	-0.218368	-0.439039
C25	C	1.073572	-0.218359	-0.439033
C26	C	1.128404	-0.318796	-0.640220
C27	C	1.073536	-0.352280	-0.707292
C28	C	0.963812	-0.352286	-0.707303
C29	C	0.908955	-0.318809	-0.640242
C30	C	1.585519	-0.806160	-0.439010
C31	C	1.585560	-0.860765	-0.439024
O32	O	1.642775	-0.889004	-0.381967
N33	N	1.518350	-0.888077	-0.506158
C34	C	1.451103	-0.860782	-0.573289
O35	O	1.393940	-0.889027	-0.630394
C36	C	1.451068	-0.806179	-0.573280
C37	C	1.518275	-0.778869	-0.506134
C38	C	1.652721	-0.778851	-0.371870
C39	C	1.652678	-0.724250	-0.371855
C40	C	1.585434	-0.696959	-0.438980
C41	C	1.518232	-0.724269	-0.506119
C42	C	1.383827	-0.778885	-0.640416
C43	C	1.383799	-0.724278	-0.640401
C44	C	1.451005	-0.696968	-0.573256
C45	C	1.450946	-0.642377	-0.573228
N46	N	1.518155	-0.615065	-0.506094
C47	C	1.585399	-0.642356	-0.438970
C48	C	1.451182	-0.975453	-0.573306
C49	C	1.451210	-1.030055	-0.573311
C50	C	1.585669	-1.030034	-0.439046
C51	C	1.585634	-0.975430	-0.439037
C52	C	1.518391	-0.948140	-0.506172
C53	C	1.585305	-0.527691	-0.438943
C54	C	1.585253	-0.473086	-0.438930
C55	C	1.450799	-0.473111	-0.573198
C56	C	1.450846	-0.527712	-0.573207
C57	C	1.518108	-0.555000	-0.506076
O58	O	1.393762	-0.614103	-0.630258
O59	O	1.642562	-0.614104	-0.381885
C60	C	1.792198	-0.251848	-0.506103
C61	C	1.908975	-0.251852	-0.506109
C62	C	1.518239	-0.251785	-0.780122
C63	C	1.518270	-0.251763	-0.896898
C64	C	1.518371	-0.115465	-0.506159
C65	C	1.518459	-0.057351	-0.506190
C66	C	1.585526	-0.218322	-0.951783
C67	C	1.585551	-0.218303	-1.061507
C68	C	1.451061	-0.285170	-1.061452
C69	C	1.451032	-0.285186	-0.951730
C70	C	1.652765	-0.184898	-0.896952
C71	C	1.720027	-0.151455	-0.951837
C72	C	1.720052	-0.151436	-1.061561
C73	C	1.652815	-0.184860	-1.116400
C74	C	1.518152	-0.251853	-0.233121
C75	C	1.518325	-0.251728	-0.116345
H76	H	1.118208	-0.379532	-0.761897
O77	O	1.318512	-0.805324	-0.705745
C78	C	1.259149	-0.769516	-0.764965
H79	H	1.302163	-0.730572	-0.768612
H80	H	1.247914	-0.785259	-0.847744
H81	H	1.179370	-0.763763	-0.726429
H82	H	1.396046	-0.450883	-0.627847
H83	H	1.774813	-0.124201	-1.106245
H84	H	1.329043	-0.702061	-0.695074
H85	H	1.640078	-0.549903	-0.384280
O86	O	1.785298	-0.119034	-0.898409
C87	C	1.770836	-0.126210	-0.789795
H88	H	1.736366	-0.166561	-0.774779
H89	H	1.849527	-0.122671	-0.748103
H90	H	1.714924	-0.095201	-0.758675
O91	O	0.910675	-0.384858	-0.772490
C92	C	0.982620	-0.414392	-0.831693
H93	H	1.060813	-0.416170	-0.788646
H94	H	0.950878	-0.455596	-0.842749
H95	H	0.994343	-0.395294	-0.911557
O96	O	0.802369	-0.318881	-0.640385
C97	C	0.765701	-0.355591	-0.714002
H98	H	0.828882	-0.386157	-0.728570
H99	H	0.692228	-0.375400	-0.682267
H100	H	0.746340	-0.334901	-0.790696
H101	H	0.919177	-0.191112	-0.384440
H102	H	1.652828	-0.184836	-1.205745
O103	O	1.385527	-0.554163	-0.638526
C104	C	1.326145	-0.518363	-0.697745
H105	H	1.369141	-0.479414	-0.701398
H106	H	1.314912	-0.534109	-0.780522
H107	H	1.246365	-0.512618	-0.659205
H108	H	1.118246	-0.191092	-0.384429
O109	O	1.385660	-0.317657	-1.114557
C110	C	1.326309	-0.347187	-1.042585
H111	H	1.322678	-0.325783	-0.964386
H112	H	1.243533	-0.352758	-1.074282
H113	H	1.364721	-0.386899	-1.030887
O114	O	1.385795	-0.948888	-0.638369
C115	C	1.317927	-0.917370	-0.578490
H116	H	1.355021	-0.909194	-0.498905
H117	H	1.303787	-0.878967	-0.621272
H118	H	1.240095	-0.938461	-0.566875
O119	O	1.651177	-1.056474	-0.373900
C120	C	1.755846	-1.043055	-0.397012
H121	H	1.757919	-1.003396	-0.437409
H122	H	1.803024	-1.041172	-0.321247
H123	H	1.791235	-1.073745	-0.451066
O124	O	1.650642	-0.446639	-0.373670
C125	C	1.709983	-0.482440	-0.314414
H126	H	1.713624	-0.521343	-0.357465
H127	H	1.792756	-0.466626	-0.303272
H128	H	1.671557	-0.488300	-0.234590
O129	O	1.718073	-0.697807	-0.306607
C130	C	1.777411	-0.733613	-0.247358
H131	H	1.781032	-0.772516	-0.290409
H132	H	1.860191	-0.717806	-0.236228
H133	H	1.738993	-0.739469	-0.167529
O134	O	1.385858	-0.317698	-0.898282
C135	C	1.445622	-0.351481	-0.834815
H136	H	1.525267	-0.333043	-0.818416
H137	H	1.402813	-0.358493	-0.757640
H138	H	1.457114	-0.390224	-0.877065
H139	H	1.217746	-0.318795	-0.640216
O140	O	1.718218	-0.805362	-0.306842
C141	C	1.786056	-0.836879	-0.366756
H142	H	1.792398	-0.820398	-0.449519
H143	H	1.866961	-0.837432	-0.328890
H144	H	1.753668	-0.878292	-0.370308
H145	H	1.396474	-1.052286	-0.627977
O146	O	1.650870	-0.948961	-0.373671
C147	C	1.627953	-0.962345	-0.268942
H148	H	1.587584	-1.002010	-0.266741
H149	H	1.703803	-0.964198	-0.221897
H150	H	1.573943	-0.931652	-0.233501
O151	O	1.652878	-0.185005	-0.790367
C152	C	1.679762	-0.235130	-0.753718
H153	H	1.725500	-0.256733	-0.816979
H154	H	1.730177	-0.231411	-0.680352
H155	H	1.605350	-0.257780	-0.734188
