data_functionalizedCrystal
_audit_creation_method	'MofGen! by Chris Wilmer'
_symmetry_space_group_name_H-M	'P1'
_symmetry_Int_Tables_number	1
_symmetry_cell_setting	triclinic
loop_
_symmetry_equiv_pos_as_xyz
  x,y,z
_cell_length_a	14.971486
_cell_length_b	14.048226
_cell_length_c	23.532409
_cell_angle_alpha	90.003987
_cell_angle_beta	96.768156
_cell_angle_gamma	90.003623
loop_
_atom_site_label
_atom_site_type_symbol
_atom_site_fract_x
_atom_site_fract_y
_atom_site_fract_z
O1	O	-1.186157	0.079044	0.074217
O2	O	-0.852824	0.412378	0.407551
O3	O	-0.519490	0.745711	0.740884
O4	O	-0.925663	0.079070	0.083105
O5	O	-0.592330	0.412403	0.416438
O6	O	-0.258996	0.745736	0.749771
O7	O	-1.063764	0.079058	-0.004237
O8	O	-0.730431	0.412391	0.329096
O9	O	-0.397098	0.745724	0.662430
O10	O	-1.048056	0.079057	0.161559
O11	O	-0.714723	0.412390	0.494892
O12	O	-0.381389	0.745723	0.828226
O13	O	-1.063761	-0.079264	-0.004244
O14	O	-0.730428	0.254070	0.329089
O15	O	-0.397095	0.587403	0.662423
O16	O	-0.925660	-0.079252	0.083098
O17	O	-0.592327	0.254082	0.416431
O18	O	-0.258994	0.587415	0.749764
O19	O	-1.186154	-0.079277	0.074210
O20	O	-0.852821	0.254057	0.407543
O21	O	-0.519488	0.587390	0.740877
Zn22	Zn	-1.055907	-0.104401	0.078653
Zn23	Zn	-0.722573	0.228932	0.411986
Zn24	Zn	-0.389240	0.562265	0.745319
Zn25	Zn	-1.055910	0.104194	0.078662
Zn26	Zn	-0.722577	0.437527	0.411996
Zn27	Zn	-0.389244	0.770861	0.745329
O28	O	-1.048053	-0.079265	0.161552
O29	O	-0.714720	0.254069	0.494885
O30	O	-0.381386	0.587402	0.828219
C31	C	-0.892341	-0.000088	0.082704
C32	C	-0.559008	0.333246	0.416037
C33	C	-0.225674	0.666579	0.749370
C34	C	-0.793057	-0.000078	0.081513
C35	C	-0.459723	0.333255	0.414846
C36	C	-0.126390	0.666589	0.748179
N37	N	-1.055914	0.246555	0.078665
N38	N	-0.722580	0.579888	0.411998
N39	N	-0.389247	0.913221	0.745331
C40	C	-1.219476	-0.000117	0.074611
C41	C	-0.886143	0.333216	0.407944
C42	C	-0.552809	0.666549	0.741278
C43	C	-1.318761	-0.000121	0.075802
C44	C	-0.985427	0.333212	0.409136
C45	C	-0.652094	0.666546	0.742469
C46	C	-1.063363	-0.000101	-0.025458
C47	C	-0.730029	0.333233	0.307875
C48	C	-0.396696	0.666566	0.641208
C49	C	-1.062159	-0.000094	-0.088680
C50	C	-0.728826	0.333240	0.244653
C51	C	-0.395492	0.666573	0.577986
C52	C	-0.735290	-0.000079	0.132824
C53	C	-0.401957	0.333254	0.466157
C54	C	-0.068623	0.666587	0.799490
C55	C	-0.642002	-0.000094	0.131701
C56	C	-0.308669	0.333240	0.465034
C57	C	0.024664	0.666573	0.798368
C58	C	-0.606483	-0.000099	0.079267
C59	C	-0.273150	0.333234	0.412600
C60	C	0.060183	0.666567	0.745934
C61	C	-0.664257	-0.000101	0.027952
C62	C	-0.330924	0.333233	0.361285
C63	C	0.002409	0.666566	0.694619
C64	C	-0.757543	-0.000093	0.029075
C65	C	-0.424210	0.333240	0.362409
C66	C	-0.090877	0.666573	0.695742
C67	C	-0.469820	-0.000114	0.025615
C68	C	-0.136486	0.333220	0.358948
C69	C	0.196847	0.666553	0.692281
C70	C	-0.376527	-0.000119	0.024491
C71	C	-0.043194	0.333214	0.357825
C72	C	0.290139	0.666547	0.691158
C73	C	-0.354279	-0.000114	0.128241
C74	C	-0.020945	0.333219	0.461574
C75	C	0.312388	0.666553	0.794907
C76	C	-0.447564	-0.000107	0.129364
C77	C	-0.114231	0.333227	0.462697
C78	C	0.219102	0.666560	0.796030
C79	C	-0.505332	-0.000106	0.078049
C80	C	-0.171999	0.333227	0.411382
C81	C	0.161334	0.666560	0.744715
N82	N	-1.055911	-0.246762	0.078646
N83	N	-0.722577	0.086571	0.411979
N84	N	-0.389244	0.419905	0.745313
C85	C	-1.117177	0.296367	0.040066
C86	C	-0.783844	0.629701	0.373399
C87	C	-0.450511	0.963034	0.706732
C88	C	-1.117181	0.396025	0.040064
C89	C	-0.783848	0.729358	0.373397
C90	C	-0.450514	1.062692	0.706731
C91	C	-1.055916	0.445868	0.078659
C92	C	-0.722583	0.779201	0.411992
C93	C	-0.389249	1.112535	0.745325
C94	C	-0.994649	0.396048	0.117261
C95	C	-0.661316	0.729382	0.450595
C96	C	-0.327983	1.062715	0.783928
C97	C	-0.994651	0.296393	0.117266
C98	C	-0.661317	0.629726	0.450599
C99	C	-0.327984	0.963059	0.783932
C100	C	-0.994650	0.603763	0.117249
C101	C	-0.661316	0.937096	0.450583
C102	C	-0.327983	1.270429	0.783916
C103	C	-0.994647	0.703425	0.117245
C104	C	-0.661314	1.036759	0.450578
C105	C	-0.327980	1.370092	0.783911
C106	C	-1.117180	0.703395	0.040048
C107	C	-0.783847	1.036728	0.373381
C108	C	-0.450513	1.370062	0.706714
C109	C	-1.117181	0.603739	0.040052
C110	C	-0.783848	0.937073	0.373385
C111	C	-0.450515	1.270406	0.706718
C112	C	-1.055913	0.553926	0.078654
C113	C	-0.722580	0.887260	0.411987
C114	C	-0.389247	1.220593	0.745321
C115	C	-1.057042	0.086212	-0.361943
C116	C	-0.723709	0.419545	-0.028610
C117	C	-0.390375	0.752879	0.304723
C118	C	-1.058160	0.086212	-0.302538
C119	C	-0.724826	0.419545	0.030795
C120	C	-0.391493	0.752879	0.364128
O121	O	-1.058770	0.159605	-0.271808
O122	O	-0.725437	0.492938	0.061526
O123	O	-0.392104	0.826272	0.394859
N124	N	-1.058711	-0.000090	-0.272838
N125	N	-0.725378	0.333243	0.060496
N126	N	-0.392045	0.666576	0.393829
C127	C	-1.058155	-0.086399	-0.302546
C128	C	-0.724821	0.246935	0.030787
C129	C	-0.391488	0.580268	0.364121
O130	O	-1.058727	-0.159806	-0.271829
O131	O	-0.725394	0.173528	0.061505
O132	O	-0.392061	0.506861	0.394838
C133	C	-1.057043	-0.086398	-0.361951
C134	C	-0.723710	0.246936	-0.028617
C135	C	-0.390377	0.580269	0.304716
C136	C	-1.056483	-0.000090	-0.391647
C137	C	-0.723149	0.333244	-0.058314
C138	C	-0.389816	0.666577	0.275019
C139	C	-1.056482	0.172513	-0.391640
C140	C	-0.723149	0.505846	-0.058307
C141	C	-0.389816	0.839180	0.275026
C142	C	-1.055363	0.172513	-0.451041
C143	C	-0.722030	0.505846	-0.117708
C144	C	-0.388696	0.839179	0.215626
C145	C	-1.054804	0.086211	-0.480745
C146	C	-0.721470	0.419544	-0.147412
C147	C	-0.388137	0.752878	0.185922
C148	C	-1.055363	-0.000090	-0.451048
C149	C	-0.722030	0.333243	-0.117715
C150	C	-0.388697	0.666577	0.215619
C151	C	-1.056493	-0.172705	-0.391658
C152	C	-0.723160	0.160628	-0.058325
C153	C	-0.389826	0.493962	0.275008
C154	C	-1.055382	-0.172697	-0.451067
C155	C	-0.722049	0.160637	-0.117733
C156	C	-0.388716	0.493970	0.215600
C157	C	-1.054821	-0.086388	-0.480763
C158	C	-0.721488	0.246945	-0.147430
C159	C	-0.388155	0.580278	0.185903
C160	C	-1.053684	-0.086392	-0.540153
C161	C	-0.720351	0.246941	-0.206819
C162	C	-0.387018	0.580275	0.126514
N163	N	-1.053133	-0.000090	-0.569853
N164	N	-0.719799	0.333244	-0.236520
N165	N	-0.386466	0.666577	0.096813
C166	C	-1.053692	0.086212	-0.540149
C167	C	-0.720359	0.419545	-0.206816
C168	C	-0.387026	0.752879	0.126517
C169	C	-1.060490	-0.086394	-0.177793
C170	C	-0.727156	0.246939	0.155540
C171	C	-0.393823	0.580273	0.488874
C172	C	-1.061595	-0.086396	-0.118389
C173	C	-0.728261	0.246937	0.214944
C174	C	-0.394928	0.580271	0.548278
C175	C	-1.061601	0.086215	-0.118386
C176	C	-0.728268	0.419548	0.214948
C177	C	-0.394935	0.752882	0.548281
C178	C	-1.060490	0.086216	-0.177790
C179	C	-0.727157	0.419549	0.155543
C180	C	-0.393824	0.752883	0.488877
C181	C	-1.059938	-0.000091	-0.207493
C182	C	-0.726605	0.333242	0.125840
C183	C	-0.393271	0.666575	0.459173
C184	C	-1.051341	0.086204	-0.664895
C185	C	-0.718008	0.419538	-0.331562
C186	C	-0.384674	0.752871	0.001772
C187	C	-1.050218	0.086196	-0.724301
C188	C	-0.716885	0.419530	-0.390968
C189	C	-0.383551	0.752863	-0.057634
C190	C	-1.050216	-0.086414	-0.724299
C191	C	-0.716883	0.246919	-0.390966
C192	C	-0.383549	0.580253	-0.057633
C193	C	-1.051334	-0.086406	-0.664899
C194	C	-0.718001	0.246927	-0.331565
C195	C	-0.384667	0.580260	0.001768
C196	C	-1.051900	-0.000090	-0.635198
C197	C	-0.718566	0.333244	-0.301865
C198	C	-0.385233	0.666577	0.031469
O199	O	-1.053077	-0.159747	-0.570921
O200	O	-0.719744	0.173586	-0.237588
O201	O	-0.386410	0.506919	0.095745
O202	O	-1.053131	0.159607	-0.570875
O203	O	-0.719798	0.492940	-0.237542
O204	O	-0.386465	0.826273	0.095792
C205	C	-1.048455	-0.000104	0.182773
C206	C	-0.715121	0.333229	0.516107
C207	C	-0.381788	0.666562	0.849440
C208	C	-1.049658	-0.000105	0.245995
C209	C	-0.716325	0.333228	0.579329
C210	C	-0.382992	0.666562	0.912662
H211	H	-0.764201	-0.000074	0.175521
H212	H	-0.430868	0.333259	0.508855
H213	H	-0.097535	0.666593	0.842188
H214	H	-0.594972	-0.000094	0.173484
H215	H	-0.261638	0.333239	0.506817
H216	H	0.071695	0.666573	0.840150
H217	H	-0.944769	0.436637	0.148689
H218	H	-0.611436	0.769970	0.482022
H219	H	-0.278102	1.103303	0.815355
F220	F	-1.051927	-0.178264	-0.633292
F221	F	-0.718594	0.155069	-0.299958
F222	F	-0.385261	0.488402	0.033375
H223	H	-1.051802	0.156492	-0.640720
H224	H	-0.718469	0.489825	-0.307387
H225	H	-0.385136	0.823159	0.025947
F226	F	-0.819023	-0.000095	-0.025537
F227	F	-0.485690	0.333238	0.307797
F228	F	-0.152356	0.666572	0.641130
H229	H	-1.167067	0.436582	0.008634
H230	H	-0.833734	0.769915	0.341968
H231	H	-0.500400	1.103249	0.675301
F232	F	-1.049613	-0.178258	-0.755922
F233	F	-0.716280	0.155076	-0.422589
F234	F	-0.382946	0.488409	-0.089256
F235	F	-0.338728	-0.000150	-0.031315
F236	F	-0.005394	0.333183	0.302019
F237	F	0.327939	0.666517	0.635352
F238	F	-1.059895	0.178076	-0.209390
F239	F	-0.726562	0.511409	0.123943
F240	F	-0.393228	0.844743	0.457276
H241	H	-0.476481	-0.000093	0.172060
H242	H	-0.143147	0.333240	0.505393
H243	H	0.190186	0.666574	0.838727
H244	H	-0.944761	0.563208	0.148685
H245	H	-0.611428	0.896542	0.482019
H246	H	-0.278095	1.229875	0.815352
F247	F	-1.182380	0.550692	-0.001028
F248	F	-0.849047	0.884025	0.332306
F249	F	-0.515714	1.217359	0.665639
H250	H	-1.049758	0.156482	-0.748477
H251	H	-0.716425	0.489815	-0.415144
H252	H	-0.383091	0.823149	-0.081810
F253	F	-0.292797	-0.000117	0.182854
F254	F	0.040536	0.333217	0.516188
F255	F	0.373870	0.666550	0.849521
F256	F	-1.054774	0.264374	-0.482640
F257	F	-0.721441	0.597708	-0.149306
F258	F	-0.388108	0.931041	0.184027
H259	H	-0.944765	0.255836	0.148697
H260	H	-0.611431	0.589169	0.482031
H261	H	-0.278098	0.922503	0.815364
H262	H	-1.056941	0.242794	-0.367462
H263	H	-0.723608	0.576127	-0.034129
H264	H	-0.390274	0.909461	0.299205
H265	H	-1.062054	0.156487	-0.094190
H266	H	-0.728721	0.489820	0.239144
H267	H	-0.395387	0.823153	0.572477
H268	H	-1.062034	-0.156677	-0.094214
H269	H	-0.728701	0.176657	0.239120
H270	H	-0.395367	0.509990	0.572453
H271	H	-1.060032	-0.156680	-0.201973
H272	H	-0.726699	0.176653	0.131360
H273	H	-0.393366	0.509986	0.464694
F274	F	-1.054798	-0.264560	-0.482676
F275	F	-0.721465	0.068774	-0.149343
F276	F	-0.388131	0.402107	0.183991
F277	F	-0.531299	-0.000116	-0.029001
F278	F	-0.197965	0.333217	0.304332
F279	F	0.135368	0.666550	0.637666
F280	F	-0.626453	-0.000113	-0.027852
F281	F	-0.293120	0.333220	0.305481
F282	F	0.040214	0.666554	0.638814
F283	F	-1.182384	0.756413	-0.001036
F284	F	-0.849051	1.089747	0.332297
F285	F	-0.515718	1.423080	0.665631
F286	F	-1.182381	0.243330	-0.001016
F287	F	-0.849048	0.576663	0.332318
F288	F	-0.515714	0.909997	0.665651
H289	H	-0.944760	0.744003	0.148673
H290	H	-0.611426	1.077336	0.482006
H291	H	-0.278093	1.410669	0.815340
H292	H	-1.056959	-0.242986	-0.367490
H293	H	-0.723626	0.090347	-0.034157
H294	H	-0.390292	0.423680	0.299177
