data_functionalizedCrystal
_audit_creation_method	'MofGen! by Chris Wilmer'
_symmetry_space_group_name_H-M	'P1'
_symmetry_Int_Tables_number	1
_symmetry_cell_setting	triclinic
loop_
_symmetry_equiv_pos_as_xyz
  x,y,z
_cell_length_a	10.685980
_cell_length_b	12.759394
_cell_length_c	10.686551
_cell_angle_alpha	85.593446
_cell_angle_beta	81.591741
_cell_angle_gamma	94.381541
loop_
_atom_site_label
_atom_site_type_symbol
_atom_site_fract_x
_atom_site_fract_y
_atom_site_fract_z
Zn1	Zn	1.995788	-0.235485	-0.866701
Zn2	Zn	1.979366	-0.425816	-0.654434
Zn3	Zn	1.767215	-0.264727	-0.638165
Zn4	Zn	1.783490	-0.425714	-0.850345
O5	O	1.881465	-0.337935	-0.752411
O6	O	2.171243	-0.248538	-0.852197
O7	O	1.937540	-0.416727	-0.474644
O8	O	1.797598	-0.113821	-0.668516
O9	O	2.159178	-0.388373	-0.696246
O10	O	1.965530	-0.092337	-0.836421
O11	O	1.781674	-0.298376	-0.462691
O12	O	1.591741	-0.298277	-0.652657
O13	O	1.825335	-0.388199	-1.030147
O14	O	1.603697	-0.416553	-0.808545
O15	O	1.981310	-0.248439	-1.042163
O16	O	1.953321	-0.572829	-0.680386
O17	O	1.809411	-0.572754	-0.824321
C18	C	1.551661	-0.360578	-0.727061
C19	C	1.410571	-0.370287	-0.716246
C20	C	1.881386	-0.610910	-0.752375
C21	C	1.881472	-0.727679	-0.752410
C22	C	2.031456	-0.727687	-0.602662
C23	C	2.106482	-0.782549	-0.527806
C24	C	2.106559	-0.892263	-0.527846
C25	C	2.031605	-0.947117	-0.602754
C26	C	1.956579	-0.892256	-0.677610
C27	C	1.956507	-0.782540	-0.677559
C28	C	1.806603	-0.892247	-0.827363
C29	C	1.806518	-0.782534	-0.827318
C30	C	1.731649	-0.947102	-0.902271
C31	C	1.656614	-0.892241	-0.977122
C32	C	1.656539	-0.782521	-0.977078
C33	C	1.731491	-0.727672	-0.902174
C34	C	2.212557	-0.315205	-0.777861
C35	C	2.353649	-0.305519	-0.788706
C36	C	1.906970	-0.315046	-1.083501
C37	C	1.917839	-0.305292	-1.224591
C38	C	1.881580	-0.063890	-0.752478
C39	C	1.881630	0.052891	-0.752507
C40	C	1.856132	-0.360655	-0.422615
C41	C	1.845509	-0.370096	-0.281544
H42	H	1.351361	-0.433171	-0.645927
H43	H	2.031383	-0.638354	-0.602604
H44	H	1.775274	-0.433043	-1.222365
H45	H	2.167659	-0.936930	-0.466898
H46	H	1.988088	-0.242348	-1.283778
H47	H	1.412852	-0.242634	-0.859013
H48	H	1.731723	-1.036436	-0.902304
Br49	Br	2.208212	-0.708099	-0.426160
H50	H	2.031686	-1.036451	-0.602791
H51	H	1.595599	-0.936912	-1.038112
Br52	Br	1.554723	-0.708073	-1.078687
H53	H	1.731429	-0.638339	-0.902122
