data_functionalizedCrystal
_audit_creation_method	'MofGen! by Chris Wilmer'
_symmetry_space_group_name_H-M	'P1'
_symmetry_Int_Tables_number	1
_symmetry_cell_setting	triclinic
loop_
_symmetry_equiv_pos_as_xyz
  x,y,z
_cell_length_a	13.635800
_cell_length_b	19.453103
_cell_length_c	12.908943
_cell_angle_alpha	83.885421
_cell_angle_beta	100.860631
_cell_angle_gamma	78.290822
loop_
_atom_site_label
_atom_site_type_symbol
_atom_site_fract_x
_atom_site_fract_y
_atom_site_fract_z
V1	V	1.993747	-0.096303	0.329167
O2	O	1.992405	0.005530	0.322397
O3	O	1.965285	-0.191821	0.327401
O4	O	1.962970	-0.094426	0.472508
O5	O	1.994736	-0.092539	0.176286
V6	V	2.236965	-0.084170	0.310823
O7	O	2.121180	-0.122919	0.369408
O8	O	2.334631	-0.057553	0.270582
O9	O	2.153824	0.011348	0.312589
O10	O	2.297005	-0.186003	0.317593
O11	O	2.294675	-0.087934	0.463704
O12	O	2.156139	-0.086047	0.167483
V13	V	2.493747	-0.096303	0.329167
O14	O	2.492405	0.005530	0.322397
O15	O	2.465285	-0.191821	0.327401
O16	O	2.462970	-0.094426	0.472508
O17	O	2.494736	-0.092539	0.176286
V18	V	2.736965	-0.084170	0.310823
O19	O	2.621180	-0.122919	0.369408
O20	O	2.834631	-0.057553	0.270582
O21	O	2.653824	0.011348	0.312589
O22	O	2.797005	-0.186003	0.317593
O23	O	2.794675	-0.087934	0.463704
O24	O	2.656139	-0.086047	0.167483
C25	C	1.886961	-0.215118	0.322333
C26	C	1.904290	-0.293203	0.321845
C27	C	2.003076	-0.333445	0.326886
C28	C	2.019359	-0.406814	0.326438
C29	C	1.936848	-0.439937	0.320926
C30	C	1.838049	-0.399686	0.315890
C31	C	1.821770	-0.326319	0.316349
N32	N	1.885445	-0.546374	0.255963
N33	N	1.900915	-0.616070	0.255525
C34	C	1.985891	-0.660987	0.319544
N35	N	2.054826	-0.633575	0.384006
N36	N	2.039356	-0.563873	0.384440
C37	C	1.954490	-0.519491	0.320428
C38	C	2.102341	-0.780786	0.324102
C39	C	2.118622	-0.854157	0.323660
C40	C	1.937307	-0.847026	0.313100
C41	C	1.921030	-0.773657	0.313553
C42	C	2.003550	-0.740541	0.319049
C43	C	1.884008	-0.090881	0.507430
C44	C	1.899459	-0.089978	0.624614
C45	C	2.063819	0.034642	0.317654
C46	C	2.036109	0.112725	0.318149
C47	C	2.066772	-0.089594	0.132555
C48	C	2.040941	-0.090494	0.015369
C49	C	2.386961	-0.215118	0.322333
C50	C	2.404290	-0.293203	0.321845
C51	C	2.384008	-0.090881	0.507430
C52	C	2.399459	-0.089978	0.624614
C53	C	2.109806	-0.095252	0.855587
C54	C	2.124328	-0.094404	0.965693
C55	C	1.943024	-0.087429	0.954932
C56	C	1.928502	-0.088277	0.844826
C57	C	2.011897	-0.092189	0.795158
C58	C	1.997376	-0.093042	0.685052
C59	C	1.816072	-0.086063	0.674292
C60	C	1.830594	-0.085215	0.784397
C61	C	2.563819	0.034642	0.317654
C62	C	2.536109	0.112725	0.318149
C63	C	2.566772	-0.089594	0.132555
C64	C	2.540941	-0.090494	0.015369
C65	C	2.503087	-0.333439	0.326900
C66	C	2.519386	-0.406810	0.326457
C67	C	2.436884	-0.439942	0.320951
C68	C	2.338079	-0.399700	0.315898
C69	C	2.321783	-0.326331	0.316349
C70	C	2.609806	-0.095252	0.855587
C71	C	2.624328	-0.094404	0.965693
C72	C	2.443024	-0.087429	0.954932
C73	C	2.428502	-0.088277	0.844826
C74	C	2.511897	-0.092189	0.795158
C75	C	2.497376	-0.093042	0.685052
C76	C	2.316072	-0.086063	0.674292
C77	C	2.330594	-0.085215	0.784397
C78	C	2.609805	0.152962	0.313097
C79	C	2.583778	0.226332	0.313545
C80	C	2.484056	0.259463	0.319054
C81	C	2.410355	0.219222	0.324103
C82	C	2.436380	0.145854	0.323648
H83	H	2.099805	-0.439586	0.330543
H84	H	2.204053	-0.096898	1.014891
O85	O	2.220902	-0.083006	0.615650
C86	C	2.153587	-0.019601	0.624592
H87	H	2.184624	0.000406	0.701194
H88	H	2.074683	-0.030138	0.626683
H89	H	2.147020	0.022198	0.553131
O90	O	2.583182	-0.301201	0.332392
C91	C	2.593637	-0.268273	0.424754
H92	H	2.517298	-0.257277	0.450825
H93	H	2.617319	-0.216104	0.406673
H94	H	2.654748	-0.304810	0.491450
O95	O	2.257946	-0.431903	0.310354
C96	C	2.247551	-0.464860	0.218018
H97	H	2.283995	-0.438270	0.157018
H98	H	2.162719	-0.459442	0.182527
H99	H	2.287533	-0.523515	0.239840
H100	H	1.875131	-0.084239	0.995390
H101	H	2.565282	-0.096231	0.644615
H102	H	2.177712	-0.098445	0.815149
O103	O	2.225732	-0.287348	0.311372
C104	C	2.156423	-0.332334	0.306439
H105	H	2.189354	-0.382283	0.274128
H106	H	2.080222	-0.303455	0.251423
H107	H	2.143646	-0.347639	0.389773
H108	H	2.677712	-0.098445	0.815149
H109	H	2.704053	-0.096898	1.014891
O110	O	2.458869	0.330752	0.319353
C111	C	2.474037	0.366499	0.224830
H112	H	2.531763	0.329386	0.190882
H113	H	2.504592	0.415236	0.243184
H114	H	2.398025	0.383779	0.163990
H115	H	1.840588	-0.740891	0.309441
O116	O	2.362080	-0.083532	1.003290
C117	C	2.349378	-0.021745	1.052014
H118	H	2.425036	-0.004284	1.068293
H119	H	2.324760	-0.033403	1.130458
H120	H	2.288068	0.022416	0.996695
O121	O	2.615306	-0.445999	0.331386
C122	C	2.612010	-0.517860	0.329781
H123	H	2.541621	-0.528229	0.358752
H124	H	2.684205	-0.553212	0.384406
H125	H	2.607539	-0.530247	0.244891
O126	O	2.706641	0.120838	0.307550
C127	C	2.729342	0.150234	0.212687
H128	H	2.654894	0.174806	0.151769
H129	H	2.777844	0.106720	0.179179
H130	H	2.773644	0.192945	0.230403
O131	O	2.249646	-0.081323	0.832748
C132	C	2.236928	-0.019538	0.881477
H133	H	2.312581	-0.002073	0.897768
H134	H	2.212302	-0.031203	0.959915
H135	H	2.175618	0.024621	0.826156
H136	H	2.643803	0.259086	0.309434
H137	H	1.770869	-0.426659	0.311405
H138	H	2.329160	0.246209	0.328587
H139	H	2.450167	-0.499683	0.320585
O140	O	1.725730	-0.287324	0.311391
C141	C	1.656395	-0.332290	0.306463
H142	H	1.689297	-0.382242	0.274142
H143	H	1.580196	-0.303395	0.251458
H144	H	1.643625	-0.347594	0.389800
H145	H	2.376365	0.113098	0.327771
O146	O	2.182430	-0.748558	0.329260
C147	C	2.163988	-0.697039	0.238081
H148	H	2.107365	-0.710642	0.170806
H149	H	2.239136	-0.696239	0.211953
H150	H	2.130552	-0.642576	0.257752
H151	H	2.070272	-0.306487	0.331369
H152	H	2.199068	-0.886922	0.327772
H153	H	2.065282	-0.096231	0.644615
O154	O	1.749646	-0.081323	0.832748
C155	C	1.736928	-0.019538	0.881477
H156	H	1.812581	-0.002073	0.897768
H157	H	1.712302	-0.031203	0.959915
H158	H	1.675618	0.024621	0.826156
O159	O	1.857150	-0.879180	0.307934
C160	C	1.812443	-0.868353	0.396590
H161	H	1.871100	-0.856757	0.463946
H162	H	1.786875	-0.918102	0.424700
H163	H	1.743203	-0.821445	0.372815
H164	H	1.736347	-0.083572	0.625079
