data_functionalizedCrystal
_audit_creation_method	'MofGen! by Chris Wilmer'
_symmetry_space_group_name_H-M	'P1'
_symmetry_Int_Tables_number	1
_symmetry_cell_setting	triclinic
loop_
_symmetry_equiv_pos_as_xyz
  x,y,z
_cell_length_a	17.639054
_cell_length_b	18.050590
_cell_length_c	17.640968
_cell_angle_alpha	78.766172
_cell_angle_beta	70.330395
_cell_angle_gamma	101.206423
loop_
_atom_site_label
_atom_site_type_symbol
_atom_site_fract_x
_atom_site_fract_y
_atom_site_fract_z
Zn1	Zn	1.354484	0.098333	-0.721370
Zn2	Zn	1.854484	0.598333	-0.221370
Zn3	Zn	1.326522	-0.057356	-0.583516
Zn4	Zn	1.826522	0.442644	-0.083516
Zn5	Zn	1.188765	0.035383	-0.555623
Zn6	Zn	1.688765	0.535383	-0.055623
Zn7	Zn	1.216603	-0.057292	-0.693389
Zn8	Zn	1.716603	0.442708	-0.193389
O9	O	1.271594	0.004767	-0.638474
O10	O	1.771594	0.504767	-0.138474
O11	O	1.466131	0.103999	-0.726467
O12	O	1.966131	0.603999	-0.226467
O13	O	1.284896	-0.071426	-0.464468
O14	O	1.784896	0.428574	0.035532
O15	O	1.210799	0.147675	-0.577646
O16	O	1.710799	0.647675	-0.077646
O17	O	1.445587	-0.010386	-0.625186
O18	O	1.945587	0.489614	-0.125186
O19	O	1.332553	0.193924	-0.699420
O20	O	1.832553	0.693924	-0.199420
O21	O	1.183686	-0.003291	-0.443975
O22	O	1.683686	0.496709	0.056025
O23	O	1.077102	-0.003229	-0.550514
O24	O	1.577102	0.496771	-0.050514
O25	O	1.258246	-0.010277	-0.812448
O26	O	1.758246	0.489723	-0.312448
O27	O	1.097555	-0.071317	-0.651730
O28	O	1.597555	0.428683	-0.151730
O29	O	1.359547	0.104061	-0.833006
O30	O	1.859547	0.604061	-0.333006
O31	O	1.311890	-0.161289	-0.598054
O32	O	1.811890	0.338711	-0.098054
O33	O	1.231133	-0.161242	-0.678777
O34	O	1.731133	0.338758	-0.178777
C35	C	1.057418	-0.044097	-0.595059
C36	C	1.557418	0.455903	-0.095059
C37	C	0.965796	-0.065015	-0.576506
C38	C	1.465796	0.434985	-0.076506
C39	C	1.271524	-0.188207	-0.638428
C40	C	1.771524	0.311793	-0.138428
C41	C	1.271575	-0.270739	-0.638452
C42	C	1.771575	0.229261	-0.138452
C43	C	0.825948	-0.153991	-0.497548
C44	C	1.325948	0.346009	0.002452
C45	C	0.912041	-0.134329	-0.514988
C46	C	1.412041	0.365671	-0.014988
C47	C	0.933473	-0.015338	-0.620612
C48	C	1.433473	0.484662	-0.120612
C49	C	0.847380	-0.034992	-0.603184
C50	C	1.347380	0.465008	-0.103184
C51	C	0.793624	-0.104320	-0.541650
C52	C	1.293624	0.395680	-0.041650
C53	C	0.815057	0.014679	-0.647286
C54	C	1.315057	0.514679	-0.147286
C55	C	0.728971	-0.004972	-0.629856
C56	C	1.228971	0.495028	-0.129856
C57	C	0.675208	-0.074294	-0.568324
C58	C	1.175208	0.425706	-0.068324
C59	C	0.707538	-0.123971	-0.524220
C60	C	1.207538	0.376029	-0.024220
C61	C	0.868814	0.084009	-0.708815
C62	C	1.368814	0.584009	-0.208815
C63	C	0.836490	0.133681	-0.752918
C64	C	1.336490	0.633681	-0.252918
C65	C	0.750403	0.114027	-0.735492
C66	C	1.250403	0.614027	-0.235492
C67	C	0.696641	0.044705	-0.673960
C68	C	1.196641	0.544705	-0.173960
C69	C	0.718074	0.163703	-0.779596
C70	C	1.218074	0.663703	-0.279596
C71	C	0.631988	0.144052	-0.762166
C72	C	1.131988	0.644052	-0.262166
C73	C	0.610555	0.025053	-0.656530
C74	C	1.110555	0.525053	-0.156530
C75	C	1.315620	-0.470145	-0.594655
C76	C	1.815620	0.029855	-0.094655
C77	C	1.350970	-0.497704	-0.673961
C78	C	1.850970	0.002296	-0.173961
C79	C	1.271628	-0.421851	-0.638494
C80	C	1.771628	0.078149	-0.138494
C81	C	1.236369	-0.541347	-0.559238
C82	C	1.736369	-0.041347	-0.059238
C83	C	1.271680	-0.567820	-0.638529
C84	C	1.771680	-0.067820	-0.138529
C85	C	1.307024	-0.448305	-0.717848
C86	C	1.807024	0.051695	-0.217848
C87	C	1.192379	-0.491963	-0.603067
C88	C	1.692379	0.008037	-0.103067
C89	C	1.227710	-0.519495	-0.682420
C90	C	1.727710	-0.019495	-0.182420
C91	C	1.271600	-0.337762	-0.638474
C92	C	1.771600	0.162238	-0.138474
C93	C	1.271710	-0.651905	-0.638558
C94	C	1.771710	-0.151905	-0.138558
C95	C	1.486606	0.053821	-0.682059
C96	C	1.986606	0.553821	-0.182059
C97	C	1.578231	0.074725	-0.700632
C98	C	2.078231	0.574725	-0.200632
C99	C	1.315121	0.053921	-0.853472
C100	C	1.815121	0.553921	-0.353472
C101	C	1.333670	0.074868	-0.945091
C102	C	1.833670	0.574868	-0.445091
C103	C	1.271690	0.198504	-0.638543
C104	C	1.771690	0.698504	-0.138543
C105	C	1.271731	0.281063	-0.638572
C106	C	1.771731	0.781063	-0.138572
C107	C	1.130997	-0.153887	-1.192905
C108	C	1.630997	0.346113	-0.692905
C109	C	1.148444	-0.134191	-1.278999
C110	C	1.648444	0.365809	-0.778999
C111	C	1.253919	-0.015142	-1.300393
C112	C	1.753919	0.484858	-0.800393
C113	C	1.236478	-0.034826	-1.214299
C114	C	1.736478	0.465174	-0.714299
C115	C	1.175017	-0.104200	-1.160562
C116	C	1.675017	0.395800	-0.660562
C117	C	1.280498	0.014861	-1.181956
C118	C	1.780498	0.514861	-0.681956
C119	C	1.263062	-0.004823	-1.095869
C120	C	1.763062	0.495177	-0.595869
C121	C	1.201605	-0.074195	-1.042127
C122	C	1.701605	0.425805	-0.542127
C123	C	1.157580	-0.123885	-1.074476
C124	C	1.657580	0.376115	-0.574476
C125	C	1.341964	0.084232	-1.235695
C126	C	1.841964	0.584232	-0.735695
C127	C	1.385984	0.133919	-1.203352
C128	C	1.885984	0.633919	-0.703352
C129	C	1.368543	0.114238	-1.117263
C130	C	1.868543	0.614238	-0.617263
C131	C	1.307086	0.044866	-1.063521
C132	C	1.807086	0.544866	-0.563521
C133	C	1.412568	0.163927	-1.084915
C134	C	1.912568	0.663927	-0.584915
C135	C	1.395131	0.144242	-0.998829
C136	C	1.895131	0.644242	-0.498829
C137	C	1.289650	0.025181	-0.977435
C138	C	1.789650	0.525181	-0.477435
C139	C	1.228283	-0.044132	-0.424322
C140	C	1.728283	0.455868	0.075678
C141	C	1.209894	-0.064833	-0.332736
C142	C	1.709894	0.435167	0.167264
H143	H	0.566784	-0.031404	-0.606430
H144	H	1.066784	0.468596	-0.106430
H145	H	1.436028	0.190402	-1.247117
H146	H	1.936028	0.690402	-0.747117
Br147	Br	1.206227	-0.068964	-0.904495
Br148	Br	1.706227	0.431036	-0.404495
H149	H	1.187413	-0.090224	-0.972031
H150	H	1.687413	0.409776	-0.472031
H151	H	1.107512	-0.180363	-1.030715
H152	H	1.607512	0.319637	-0.530715
H153	H	0.977253	0.041110	-0.670710
H154	H	1.477253	0.541110	-0.170710
Br155	Br	1.165755	-0.555379	-0.744321
Br156	Br	1.665755	-0.055379	-0.244321
H157	H	1.430976	0.184703	-0.972494
H158	H	1.930976	0.684703	-0.472494
H159	H	0.782177	-0.210449	-0.447448
H160	H	1.282177	0.289551	0.052552
Br161	Br	1.186632	-0.608256	-0.447503
Br162	Br	1.686632	-0.108256	0.052497
Br163	Br	0.558374	-0.100962	-0.544660
Br164	Br	1.058374	0.399038	-0.044660
H165	H	0.880269	0.190128	-0.803016
H166	H	1.380269	0.690128	-0.303016
Br167	Br	0.955908	-0.201756	-0.455139
Br168	Br	1.455908	0.298244	0.044861
Br169	Br	1.088694	-0.201631	-1.322891
Br170	Br	1.588694	0.298369	-0.822891
Br171	Br	1.377664	-0.433981	-0.532944
Br172	Br	1.877664	0.066019	-0.032944
H173	H	0.761854	0.220153	-0.829690
H174	H	1.261854	0.720153	-0.329690
Br175	Br	0.634579	-0.218076	-0.440736
Br176	Br	1.134579	0.281924	0.059264
H177	H	1.462615	0.220407	-1.128681
H178	H	1.962615	0.720407	-0.628681
H179	H	0.938909	0.100009	-0.723001
H180	H	1.438909	0.600009	-0.223001
Br181	Br	1.462720	-0.503080	-0.723953
Br182	Br	1.962720	-0.003080	-0.223953
H183	H	1.080929	-0.210365	-1.149145
H184	H	1.580929	0.289635	-0.649145
Br185	Br	0.588113	0.211469	-0.822012
Br186	Br	1.088113	0.711469	-0.322012
Br187	Br	1.356903	-0.381521	-0.829643
Br188	Br	1.856903	0.118479	-0.329643
Br189	Br	1.080653	-0.486542	-0.553067
Br190	Br	1.580653	0.013458	-0.053067
H191	H	1.356160	0.100256	-1.305792
H192	H	1.856160	0.600256	-0.805792
Br193	Br	1.337332	0.079003	-1.373330
Br194	Br	1.837332	0.579003	-0.873330
