data_functionalizedCrystal
_audit_creation_method	'MofGen! by Chris Wilmer'
_symmetry_space_group_name_H-M	'P1'
_symmetry_Int_Tables_number	1
_symmetry_cell_setting	triclinic
loop_
_symmetry_equiv_pos_as_xyz
  x,y,z
_cell_length_a	13.339070
_cell_length_b	9.798715
_cell_length_c	10.723024
_cell_angle_alpha	90.001978
_cell_angle_beta	79.951418
_cell_angle_gamma	89.995656
loop_
_atom_site_label
_atom_site_type_symbol
_atom_site_fract_x
_atom_site_fract_y
_atom_site_fract_z
O1	O	1.346633	-0.113527	-0.627072
O2	O	1.051535	-0.113521	-0.544765
O3	O	1.205891	-0.113519	-0.406627
O4	O	1.192277	-0.113529	-0.765209
O5	O	1.205880	0.113463	-0.406623
O6	O	1.051524	0.113461	-0.544760
O7	O	1.346622	0.113455	-0.627068
Zn8	Zn	1.199071	0.149497	-0.585913
Zn9	Zn	1.199086	-0.149562	-0.585919
O10	O	1.192266	0.113453	-0.765205
C11	C	1.013744	-0.000029	-0.530859
C12	C	0.901154	-0.000026	-0.489417
N13	N	1.199068	0.353596	-0.585911
N14	N	1.199097	-0.353662	-0.585914
C15	C	0.538598	-0.000057	-0.811651
C16	C	0.644381	-0.000063	-0.850593
C17	C	0.708579	-0.000054	-0.760302
C18	C	0.666985	-0.000038	-0.631063
C19	C	0.561191	-0.000043	-0.592118
C20	C	0.731173	-0.000039	-0.540769
C21	C	0.689578	-0.000024	-0.411530
C22	C	0.583795	-0.000027	-0.372592
C23	C	0.519596	-0.000037	-0.462882
C24	C	0.836966	-0.000035	-0.579714
C25	C	0.859559	-0.000021	-0.360181
C26	C	0.753777	-0.000014	-0.321240
C27	C	1.384413	-0.000040	-0.640973
C28	C	1.497003	-0.000051	-0.682416
C29	C	1.204895	-0.000030	-0.359793
C30	C	1.201931	-0.000034	-0.220243
C31	C	1.263878	0.421374	-0.527559
C32	C	1.263894	0.578537	-0.527561
C33	C	1.193262	-0.000039	-0.812039
C34	C	1.196226	-0.000043	-0.951589
C35	C	1.288300	-0.000038	-0.174254
C36	C	1.285239	-0.000043	-0.030023
H37	H	0.870822	-0.000042	-0.684940
H38	H	1.359178	-0.000040	0.009589
H39	H	1.319349	0.363052	-0.477595
H40	H	0.794712	-0.000062	-0.792016
H41	H	1.125720	-0.000042	-0.152838
H42	H	0.719895	-0.000013	-0.216011
H43	H	1.122283	-0.000031	0.008808
H44	H	0.678239	-0.000086	-0.955818
H45	H	1.143611	0.588061	-0.635880
H46	H	1.319384	0.636822	-0.477609
H47	H	1.364511	-0.000031	-0.241659
H48	H	0.911830	-0.000019	-0.286658
H49	H	0.433458	-0.000031	-0.431183
H50	H	0.486319	-0.000076	-0.885152
H51	H	0.549932	-0.000030	-0.267358
H52	H	1.143590	0.411920	-0.635863
