data_functionalizedCrystal
_audit_creation_method	'MofGen! by Chris Wilmer'
_symmetry_space_group_name_H-M	'P1'
_symmetry_Int_Tables_number	1
_symmetry_cell_setting	triclinic
loop_
_symmetry_equiv_pos_as_xyz
  x,y,z
_cell_length_a	18.050591
_cell_length_b	29.839131
_cell_length_c	18.050582
_cell_angle_alpha	90.025477
_cell_angle_beta	90.019760
_cell_angle_gamma	90.037867
loop_
_atom_site_label
_atom_site_type_symbol
_atom_site_fract_x
_atom_site_fract_y
_atom_site_fract_z
Zn1	Zn	1.135224	-0.178924	0.419993
Zn2	Zn	1.635224	0.321076	0.919993
Zn3	Zn	1.135106	-0.254047	0.295797
Zn4	Zn	1.635106	0.245953	0.795797
Zn5	Zn	1.011044	-0.178927	0.295807
Zn6	Zn	1.511044	0.321073	0.795807
Zn7	Zn	1.010963	-0.254023	0.419935
Zn8	Zn	1.510963	0.245977	0.919935
O9	O	1.073084	-0.216480	0.357883
O10	O	1.573084	0.283520	0.857883
O11	O	1.239133	-0.188898	0.403539
O12	O	1.739133	0.311102	0.903539
O13	O	1.118634	-0.244093	0.191874
O14	O	1.618634	0.255907	0.691874
O15	O	1.027600	-0.116059	0.312309
O16	O	1.527600	0.383941	0.812309
O17	O	1.239047	-0.244090	0.312292
O18	O	1.739047	0.255910	0.812292
O19	O	1.118835	-0.116058	0.403548
O20	O	1.618835	0.383942	0.903548
O21	O	1.027485	-0.188902	0.191881
O22	O	1.527485	0.311098	0.691881
O23	O	0.907108	-0.188880	0.312253
O24	O	1.407108	0.311120	0.812253
O25	O	1.027462	-0.244051	0.523867
O26	O	1.527462	0.255949	1.023867
O27	O	0.907049	-0.244053	0.403449
O28	O	1.407049	0.255947	0.903449
O29	O	1.118756	-0.188876	0.523910
O30	O	1.618756	0.311124	1.023910
O31	O	1.118555	-0.316911	0.312236
O32	O	1.618555	0.183089	0.812236
O33	O	1.027348	-0.316894	0.403439
O34	O	1.527348	0.183106	0.903439
C35	C	0.880132	-0.216465	0.357846
C36	C	1.380132	0.283535	0.857846
C37	C	0.797586	-0.216469	0.357848
C38	C	1.297586	0.283531	0.857848
C39	C	0.548772	-0.186434	0.308372
C40	C	1.048772	0.313566	0.808372
C41	C	0.598208	-0.175497	0.376149
C42	C	1.098208	0.324503	0.876149
C43	C	0.500466	-0.216492	0.357908
C44	C	1.000466	0.283508	0.857908
C45	C	0.598112	-0.227397	0.290105
C46	C	1.098112	0.272603	0.790105
C47	C	0.646451	-0.216479	0.357875
C48	C	1.146451	0.283521	0.857875
C49	C	0.548815	-0.205533	0.425722
C50	C	1.048815	0.294467	0.925722
C51	C	0.548715	-0.257452	0.339632
C52	C	1.048715	0.242548	0.839632
C53	C	0.598128	-0.246530	0.407456
C54	C	1.098128	0.253470	0.907456
C55	C	0.416368	-0.216498	0.357927
C56	C	0.916368	0.283502	0.857927
C57	C	0.730548	-0.216473	0.357864
C58	C	1.230548	0.283527	0.857864
C59	C	1.072950	-0.333203	0.357846
C60	C	1.572950	0.166797	0.857846
C61	C	1.072961	-0.383137	0.357855
C62	C	1.572961	0.116863	0.857855
C63	C	1.120663	-0.692777	0.310463
C64	C	1.620663	-0.192777	0.810463
C65	C	1.120754	-0.880450	0.310492
C66	C	1.620754	-0.380450	0.810492
O67	O	1.161206	-0.904712	0.270168
O68	O	1.661206	-0.404712	0.770168
N69	N	1.073238	-0.903922	0.357939
N70	N	1.573238	-0.403922	0.857939
C71	C	1.025700	-0.880474	0.405386
C72	C	1.525700	-0.380474	0.905386
O73	O	0.985292	-0.904745	0.445749
O74	O	1.485292	-0.404745	0.945749
C75	C	1.025612	-0.692801	0.405361
C76	C	1.525612	-0.192801	0.905361
C77	C	1.073126	-0.669332	0.357905
C78	C	1.573126	-0.169332	0.857905
C79	C	1.168173	-0.669307	0.263011
C80	C	1.668173	-0.169307	0.763011
C81	C	1.168147	-0.622391	0.263002
C82	C	1.668147	-0.122391	0.763002
C83	C	1.120610	-0.598946	0.310444
C84	C	1.620610	-0.098946	0.810444
C85	C	1.073100	-0.622416	0.357895
C86	C	1.573100	-0.122416	0.857895
C87	C	0.978078	-0.669354	0.452811
C88	C	1.478078	-0.169354	0.952811
C89	C	0.978062	-0.622433	0.452802
C90	C	1.478062	-0.122433	0.952802
C91	C	1.025575	-0.598963	0.405346
C92	C	1.525575	-0.098963	0.905346
C93	C	1.025537	-0.552055	0.405327
C94	C	1.525537	-0.052055	0.905327
N95	N	1.073053	-0.528583	0.357880
N96	N	1.573053	-0.028583	0.857880
C97	C	1.120589	-0.552028	0.310438
C98	C	1.620589	-0.052028	0.810438
C99	C	1.025748	-0.979004	0.405395
C100	C	1.525748	-0.479004	0.905395
C101	C	1.025769	-1.025922	0.405401
C102	C	1.525769	-0.525922	0.905401
C103	C	1.120824	-1.025895	0.310507
C104	C	1.620824	-0.525895	0.810507
C105	C	1.120799	-0.978976	0.310498
C106	C	1.620799	-0.478976	0.810498
C107	C	1.073264	-0.955532	0.357948
C108	C	1.573264	-0.455532	0.857948
C109	C	1.120530	-0.453502	0.310421
C110	C	1.620530	0.046498	0.810421
C111	C	1.120497	-0.406583	0.310413
C112	C	1.620497	0.093417	0.810413
C113	C	1.025445	-0.406614	0.405310
C114	C	1.525445	0.093386	0.905310
C115	C	1.025474	-0.453529	0.405315
C116	C	1.525474	0.046471	0.905315
C117	C	1.073023	-0.476972	0.357868
C118	C	1.573023	0.023028	0.857868
O119	O	0.985113	-0.527765	0.445635
O120	O	1.485113	-0.027765	0.945635
O121	O	1.161002	-0.527749	0.270093
O122	O	1.661002	-0.027749	0.770093
C123	C	1.120689	-0.739692	0.310472
C124	C	1.620689	-0.239692	0.810472
C125	C	1.073178	-0.763162	0.357924
C126	C	1.573178	-0.263162	0.857924
C127	C	1.025642	-0.739717	0.405366
C128	C	1.525642	-0.239717	0.905366
C129	C	1.073199	-0.810080	0.357929
C130	C	1.573199	-0.310080	0.857929
C131	C	1.120736	-0.833526	0.310488
C132	C	1.620736	-0.333526	0.810488
C133	C	1.168252	-0.810053	0.263040
C134	C	1.668252	-0.310053	0.763040
C135	C	1.168225	-0.763138	0.263030
C136	C	1.668225	-0.263138	0.763030
C137	C	0.978126	-0.763189	0.452813
C138	C	1.478126	-0.263189	0.952813
C139	C	0.978155	-0.810105	0.452818
C140	C	1.478155	-0.310105	0.952818
C141	C	1.025692	-0.833550	0.405377
C142	C	1.525692	-0.333550	0.905377
C143	C	1.266790	-0.216497	0.357921
C144	C	1.766790	0.283503	0.857921
C145	C	1.349336	-0.216503	0.357937
C146	C	1.849336	0.283497	0.857937
C147	C	1.073113	-0.216460	0.551589
C148	C	1.573113	0.283540	1.051589
C149	C	1.073126	-0.216452	0.634135
C150	C	1.573126	0.283548	1.134135
C151	C	1.073239	-0.099302	0.357936
C152	C	1.573239	0.400698	0.857936
C153	C	1.073305	-0.049368	0.357959
C154	C	1.573305	0.450632	0.857959
C155	C	1.073098	-0.216468	0.164931
C156	C	1.573098	0.283532	0.664931
C157	C	1.073230	-0.216350	0.082386
C158	C	1.573230	0.283650	0.582386
C159	C	1.023518	-0.246415	0.833562
C160	C	1.523518	0.253585	1.333562
C161	C	1.091269	-0.257399	0.882958
C162	C	1.591269	0.242601	1.382958
C163	C	1.073162	-0.216418	0.785265
C164	C	1.573162	0.283582	1.285265
C165	C	1.005449	-0.205421	0.882951
C166	C	1.505449	0.294579	1.382951
C167	C	1.073192	-0.216385	0.931250
C168	C	1.573192	0.283615	1.431250
C169	C	1.140949	-0.227423	0.833574
C170	C	1.640949	0.272577	1.333574
C171	C	1.055083	-0.175426	0.833562
C172	C	1.555083	0.324574	1.333562
C173	C	1.122881	-0.186395	0.882936
C174	C	1.622881	0.313605	1.382936
C175	C	1.073145	-0.216437	0.701167
C176	C	1.573145	0.283563	1.201167
C177	C	1.073218	-0.216366	1.015347
C178	C	1.573218	0.283634	1.515347
H179	H	0.526960	-0.292087	0.324163
H180	H	1.026960	0.207913	0.824163
H181	H	0.987037	-0.959919	0.444035
H182	H	1.487037	-0.459919	0.944035
H183	H	0.527250	-0.196263	0.483064
H184	H	1.027250	0.303737	0.983064
C185	C	0.627573	-0.128697	0.397030
C186	C	1.127573	0.371303	0.897030
H187	H	0.656543	-0.130769	0.440844
H188	H	1.156543	0.369231	0.940844
H189	H	0.657259	-0.117399	0.357803
H190	H	1.157259	0.382601	0.857803
H191	H	0.587022	-0.109050	0.405336
H192	H	1.087022	0.390950	0.905336
C193	C	0.925890	-0.835919	0.505024
C194	C	1.425890	-0.335919	1.005024
H195	H	0.932706	-0.867220	0.498239
H196	H	1.432706	-0.367220	0.998239
H197	H	0.936728	-0.828202	0.554928
H198	H	1.436728	-0.328202	1.054928
H199	H	0.875991	-0.828264	0.494104
H200	H	1.375991	-0.328264	0.994104
H201	H	0.986739	-0.387517	0.443934
H202	H	1.486739	0.112483	0.943934
H203	H	0.981575	-0.271816	0.811884
H204	H	1.481575	0.228184	1.311884
C205	C	0.627229	-0.280859	0.464088
C206	C	1.127229	0.219141	0.964088
H207	H	0.610259	-0.273034	0.512198
H208	H	1.110259	0.226966	1.012198
H209	H	0.609534	-0.309873	0.451528
H210	H	1.109534	0.190127	0.951528
H211	H	0.679855	-0.280840	0.463487
H212	H	1.179855	0.219160	0.963487
C213	C	0.925771	-0.596646	0.504998
C214	C	1.425771	-0.096646	1.004998
H215	H	0.897478	-0.617347	0.533255
H216	H	1.397478	-0.117347	1.033255
H217	H	0.954150	-0.578316	0.537380
H218	H	1.454150	-0.078316	1.037380
H219	H	0.893415	-0.578373	0.476554
H220	H	1.393415	-0.078373	0.976554
C221	C	1.111950	-0.304208	0.912277
C222	C	1.611950	0.195792	1.412277
H223	H	1.076619	-0.325500	0.895377
H224	H	1.576619	0.174500	1.395377
H225	H	1.159722	-0.312216	0.894645
H226	H	1.659722	0.187784	1.394645
H227	H	1.112249	-0.303788	0.964902
H228	H	1.612249	0.196212	1.464902
C229	C	1.218357	-0.240003	0.804403
C230	C	1.718357	0.259997	1.304403
H231	H	1.217870	-0.239946	0.751773
H232	H	1.717870	0.260054	1.251773
H233	H	1.253635	-0.218805	0.821713
H234	H	1.753635	0.281195	1.321713
H235	H	1.231317	-0.269020	0.821715
H236	H	1.731317	0.230980	1.321715
H237	H	0.619768	-0.236626	0.232779
H238	H	1.119768	0.263374	0.732779
H239	H	1.159189	-0.387475	0.271766
H240	H	1.659189	0.112525	0.771766
H241	H	1.159250	-0.472584	0.271787
H242	H	1.659250	0.027416	0.771787
H243	H	1.039754	-0.140784	0.811848
H244	H	1.539754	0.359216	1.311848
H245	H	0.948172	-0.196134	0.904641
H246	H	1.448172	0.303866	1.404641
C247	C	0.519485	-0.152080	0.251876
C248	C	1.019485	0.347920	0.751876
H249	H	0.536433	-0.122986	0.264975
H250	H	1.036433	0.377014	0.764975
H251	H	0.537087	-0.159545	0.203844
H252	H	1.037087	0.340455	0.703844
H253	H	0.466860	-0.152509	0.251969
H254	H	0.966860	0.347491	0.751969
C255	C	1.220421	-0.596580	0.210809
C256	C	1.720421	-0.096580	0.710809
H257	H	1.248738	-0.617269	0.182565
H258	H	1.748738	-0.117269	0.682565
H259	H	1.192036	-0.578303	0.178413
H260	H	1.692036	-0.078303	0.678413
H261	H	1.252756	-0.578253	0.239254
H262	H	1.752756	-0.078253	0.739254
H263	H	0.939383	-0.688455	0.491451
H264	H	1.439383	-0.188455	0.991451
C265	C	1.220463	-0.695090	0.210816
C266	C	1.720463	-0.195090	0.710816
H267	H	1.248747	-0.674386	0.182556
H268	H	1.748747	-0.174386	0.682556
H269	H	1.252818	-0.713367	0.239248
H270	H	1.752818	-0.213367	0.739248
H271	H	1.192078	-0.713415	0.178426
H272	H	1.692078	-0.213415	0.678426
H273	H	1.164925	-0.161013	0.904478
H274	H	1.664925	0.338987	1.404478
H275	H	1.159489	-0.959870	0.271856
H276	H	1.659489	-0.459870	0.771856
H277	H	1.159531	-1.044992	0.271878
H278	H	1.659531	-0.544992	0.771878
C279	C	0.973499	-1.051734	0.457598
C280	C	1.473499	-0.551734	0.957598
H281	H	0.945193	-1.031047	0.485854
H282	H	1.445193	-0.531047	0.985854
H283	H	0.941165	-1.070065	0.429165
H284	H	1.441165	-0.570065	0.929165
H285	H	1.001900	-1.070008	0.489992
H286	H	1.501900	-0.570008	0.989992
H287	H	0.986787	-0.472640	0.443960
H288	H	1.486787	0.027360	0.943960
H289	H	0.939417	-0.744104	0.491447
H290	H	1.439417	-0.244104	0.991447
H291	H	1.206916	-0.744032	0.224388
H292	H	1.706916	-0.244032	0.724388
H293	H	1.206956	-0.829151	0.224409
H294	H	1.706956	-0.329151	0.724409
