data_functionalizedCrystal
_audit_creation_method	'MofGen! by Chris Wilmer'
_symmetry_space_group_name_H-M	'P1'
_symmetry_Int_Tables_number	1
_symmetry_cell_setting	triclinic
loop_
_symmetry_equiv_pos_as_xyz
  x,y,z
_cell_length_a	9.065218
_cell_length_b	14.185569
_cell_length_c	9.065218
_cell_angle_alpha	103.351739
_cell_angle_beta	94.984081
_cell_angle_gamma	103.350897
loop_
_atom_site_label
_atom_site_type_symbol
_atom_site_fract_x
_atom_site_fract_y
_atom_site_fract_z
O1	O	-1.927359	0.083464	0.249383
O2	O	-1.498078	0.083454	0.267126
O3	O	-1.721592	0.083457	0.043611
O4	O	-1.703845	0.083461	0.472898
O5	O	-1.787621	-0.083377	-0.022409
O6	O	-1.564106	-0.083380	0.201105
O7	O	-1.993387	-0.083370	0.183362
Cu8	Cu	-1.784776	-0.098608	0.186205
Cu9	Cu	-1.706690	0.098692	0.264283
O10	O	-1.769873	-0.083373	0.406877
C11	C	-1.476106	0.000036	0.232409
C12	C	-1.312264	0.000032	0.227308
N13	N	-1.839708	-0.237378	0.131289
C14	C	-1.490377	-0.605033	0.480467
C15	C	-1.531998	-0.710054	0.438879
C16	C	-1.729961	-0.710012	0.241032
C17	C	-1.688352	-0.604989	0.282599
C18	C	-1.568560	-0.552508	0.402318
C19	C	-1.766535	-0.552464	0.204450
C20	C	-1.724934	-0.447450	0.246019
C21	C	-1.605150	-0.394961	0.365737
C22	C	-1.526959	-0.447494	0.443887
C23	C	-1.886334	-0.604947	0.084738
C24	C	-1.964517	-0.552422	0.006589
C25	C	-1.922910	-0.447406	0.048151
C26	C	-1.803125	-0.394917	0.167869
C27	C	-2.001101	-0.394874	-0.029999
C28	C	-1.959500	-0.289860	0.011570
C29	C	-1.761524	-0.289904	0.209438
C30	C	-1.015361	0.000044	0.218077
C31	C	-1.179207	0.000036	0.223173
C32	C	-1.752900	0.000042	-0.044385
C33	C	-1.747799	0.000046	-0.208226
N34	N	-1.651769	0.237462	0.319187
C35	C	-1.738564	0.000044	0.494874
C36	C	-1.743663	0.000046	0.658718
H37	H	-1.663967	-0.247171	0.306915
H38	H	-2.062058	-0.595165	-0.090884
H39	H	-1.827501	-0.752755	0.143558
H40	H	-1.429402	-0.404761	0.541365
C41	C	-2.045502	-0.232079	-0.074402
N42	N	-2.110283	-0.188558	-0.139156
C43	C	-1.932093	-0.720467	0.039013
N44	N	-1.966555	-0.807476	0.004572
C45	C	-1.559386	-0.279442	0.411463
N46	N	-1.524915	-0.192432	0.445901
H47	H	-1.468322	-0.752815	0.502529
H48	H	-1.392820	-0.562301	0.577944
H49	H	-2.098647	-0.437618	-0.127467
