data_functionalizedCrystal
_audit_creation_method	'MofGen! by Chris Wilmer'
_symmetry_space_group_name_H-M	'P1'
_symmetry_Int_Tables_number	1
_symmetry_cell_setting	triclinic
loop_
_symmetry_equiv_pos_as_xyz
  x,y,z
_cell_length_a	15.625950
_cell_length_b	15.538191
_cell_length_c	14.185569
_cell_angle_alpha	82.127072
_cell_angle_beta	120.545593
_cell_angle_gamma	66.741480
loop_
_atom_site_label
_atom_site_type_symbol
_atom_site_fract_x
_atom_site_fract_y
_atom_site_fract_z
O1	O	1.281604	0.025220	0.382623
O2	O	0.978092	0.068055	0.272256
O3	O	1.188928	-0.095910	0.348918
O4	O	1.070769	0.189185	0.305961
O5	O	1.251209	-0.144342	0.538399
O6	O	1.040373	0.019623	0.461737
O7	O	1.343885	-0.023211	0.572104
Cu8	Cu	1.197816	-0.006216	0.534221
Cu9	Cu	1.124161	0.051060	0.310138
O10	O	1.133050	0.140753	0.495442
C11	C	0.971336	0.046695	0.353216
C12	C	0.858422	0.055194	0.312156
C13	C	1.232430	-0.156354	0.448150
C14	C	1.269251	-0.264303	0.461530
C15	C	0.656649	-0.048765	0.693398
C16	C	0.550523	-0.040746	0.654760
C17	C	0.482679	0.012048	0.448215
C18	C	0.588800	0.004038	0.486835
C19	C	0.675779	-0.026370	0.609428
C20	C	0.607929	0.026434	0.402865
C21	C	0.714043	0.018419	0.441483
C22	C	0.801028	-0.011990	0.564071
C23	C	0.781893	-0.034384	0.648046
C24	C	0.520952	0.056835	0.280274
C25	C	0.540081	0.079230	0.196304
C26	C	0.646193	0.071223	0.234920
C27	C	0.733178	0.040813	0.357508
C28	C	0.665329	0.093617	0.150945
C29	C	0.771443	0.085603	0.189563
C30	C	0.839293	0.032799	0.396126
C31	C	0.903412	-0.518542	0.328520
C32	C	0.938041	-0.619985	0.341115
C33	C	1.132819	-0.660294	0.411942
C34	C	1.098204	-0.558851	0.399347
C35	C	0.983499	-0.487982	0.357637
C36	C	1.178291	-0.528291	0.428465
C37	C	1.143681	-0.426859	0.415877
C38	C	1.028982	-0.355986	0.374172
C39	C	0.948889	-0.386550	0.345050
C40	C	1.292998	-0.599164	0.470182
C41	C	1.373085	-0.568604	0.499300
C42	C	1.338472	-0.467168	0.486704
C43	C	1.223774	-0.396295	0.445000
C44	C	1.418566	-0.436604	0.515827
C45	C	1.383955	-0.335171	0.503239
C46	C	1.189164	-0.294862	0.432412
C47	C	1.350640	-0.001851	0.491141
C48	C	1.463552	-0.010348	0.532194
C49	C	1.089547	0.201198	0.396207
C50	C	1.052723	0.309149	0.382820
N51	N	1.249628	-0.046503	0.691832
N52	N	1.072360	0.091338	0.152532
C53	C	0.920150	0.209656	0.939680
C54	C	0.959402	0.179146	1.058974
C55	C	1.146108	0.034002	1.126823
C56	C	1.106869	0.064497	1.007532
C57	C	0.993890	0.152326	0.913969
C58	C	1.180609	0.007167	0.981820
C59	C	1.141376	0.037663	0.862540
C60	C	1.028403	0.125490	0.768972
C61	C	0.954657	0.182822	0.794688
C62	C	1.293591	-0.080657	1.075387
C63	C	1.367331	-0.137988	1.049675
C64	C	1.328095	-0.107496	0.930392
C65	C	1.215122	-0.019669	0.836823
C66	C	1.401841	-0.164828	0.904675
C67	C	1.362607	-0.134331	0.785395
C68	C	1.175888	0.010828	0.717543
H69	H	0.910110	0.008052	0.495951
H70	H	1.083885	0.082340	0.641356
H71	H	0.996462	0.150322	0.671848
Br72	Br	0.982011	-0.218328	0.357103
H73	H	1.459322	-0.209497	1.125868
Br74	Br	0.945050	-0.022881	0.616489
H75	H	0.411850	0.036802	0.348400
Br76	Br	1.462690	-0.212134	0.750500
Br77	Br	0.524579	-0.071167	0.768738
Br78	Br	0.766809	0.328843	0.812691
H79	H	0.469252	0.103984	0.096489
H80	H	1.511962	-0.494322	0.549798
H81	H	0.855482	-0.328841	0.311077
H82	H	1.095757	-0.237154	0.398439
Br83	Br	0.829342	-0.661457	0.301606
Br84	Br	1.555174	-0.284008	1.031665
H85	H	1.325533	-0.105481	1.172511
Br86	Br	0.547301	0.134835	-0.015416
H87	H	0.810006	-0.460833	0.294547
H88	H	0.852710	-0.059131	0.747871
Br89	Br	1.299436	-0.085187	1.253808
Br90	Br	0.376956	0.067675	0.227869
Br91	Br	0.797413	0.115990	0.075605
Br92	Br	0.801315	0.302009	0.667699
H93	H	1.226213	-0.718009	0.445906
Br94	Br	1.339974	-0.736827	0.487278
H95	H	1.466479	-0.626320	0.533265
Br96	Br	0.774694	-0.090017	0.859774
Br97	Br	0.859312	0.256970	1.093856
H98	H	1.449171	-0.310291	0.526951
