data_functionalizedCrystal
_audit_creation_method	'MofGen! by Chris Wilmer'
_symmetry_space_group_name_H-M	'P1'
_symmetry_Int_Tables_number	1
_symmetry_cell_setting	triclinic
loop_
_symmetry_equiv_pos_as_xyz
  x,y,z
_cell_length_a	21.295417
_cell_length_b	12.759401
_cell_length_c	12.759393
_cell_angle_alpha	90.020112
_cell_angle_beta	89.961905
_cell_angle_gamma	89.970959
loop_
_atom_site_label
_atom_site_type_symbol
_atom_site_fract_x
_atom_site_fract_y
_atom_site_fract_z
Zn1	Zn	-0.250603	-1.606151	-0.593941
Zn2	Zn	0.249397	-1.106151	-0.093941
Zn3	Zn	-0.355885	-1.605994	-0.418238
Zn4	Zn	0.144115	-1.105994	0.081762
Zn5	Zn	-0.250631	-1.430450	-0.418279
Zn6	Zn	0.249369	-0.930450	0.081721
Zn7	Zn	-0.355836	-1.430393	-0.593878
Zn8	Zn	0.144164	-0.930393	-0.093878
O9	O	-0.303239	-1.518247	-0.506084
O10	O	0.196761	-1.018247	-0.006084
O11	O	-0.264578	-1.753151	-0.570643
O12	O	0.235422	-1.253151	-0.070643
O13	O	-0.341956	-1.582665	-0.271222
O14	O	0.158044	-1.082665	0.228778
O15	O	-0.162538	-1.453846	-0.441625
O16	O	0.337462	-0.953846	0.058375
O17	O	-0.341929	-1.753035	-0.441555
O18	O	0.158071	-1.253035	0.058445
O19	O	-0.162518	-1.582933	-0.570683
O20	O	0.337482	-1.082933	-0.070683
O21	O	-0.264626	-1.453694	-0.271253
O22	O	0.235374	-0.953694	0.228747
O23	O	-0.264578	-1.283421	-0.441563
O24	O	0.235422	-0.783421	0.058437
O25	O	-0.341844	-1.453750	-0.740908
O26	O	0.158156	-0.953750	-0.240908
O27	O	-0.341871	-1.283380	-0.570575
O28	O	0.158129	-0.783380	-0.070575
O29	O	-0.264530	-1.582878	-0.740954
O30	O	0.235470	-1.082878	-0.240954
O31	O	-0.443968	-1.582610	-0.441494
O32	O	0.056032	-1.082610	0.058506
O33	O	-0.443932	-1.453597	-0.570535
O34	O	0.056068	-0.953597	-0.070535
C35	C	-0.303223	-1.245279	-0.506067
C36	C	0.196777	-0.745279	-0.006067
C37	C	-0.303231	-1.128503	-0.506085
C38	C	0.196769	-0.628503	-0.006085
C39	C	-0.343545	-0.963916	-0.573161
C40	C	0.156455	-0.463916	-0.073161
C41	C	-0.343540	-1.073640	-0.573151
C42	C	0.156460	-0.573640	-0.073151
C43	C	-0.262929	-1.073636	-0.439016
C44	C	0.237071	-0.573636	0.060984
C45	C	-0.262937	-0.963914	-0.439022
C46	C	0.237063	-0.463914	0.060978
C47	C	-0.466791	-1.518109	-0.506026
C48	C	0.033209	-1.018109	-0.006026
C49	C	-0.536759	-1.518146	-0.506036
C50	C	-0.036759	-1.018146	-0.006036
C51	C	-0.569623	-1.585383	-0.438913
C52	C	-0.069623	-1.085383	0.061087
C53	C	-0.635366	-1.585432	-0.438937
C54	C	-0.135366	-1.085432	0.061063
C55	C	-0.668241	-1.518226	-0.506072
C56	C	-0.168241	-1.018226	-0.006072
C57	C	-0.635369	-1.450985	-0.573209
C58	C	-0.135369	-0.950985	-0.073209
C59	C	-0.569627	-1.450945	-0.573191
C60	C	-0.069627	-0.950945	-0.073191
N61	N	-0.771505	-1.426319	-0.514076
N62	N	-0.271505	-0.926319	-0.014076
N63	N	-0.833957	-1.426360	-0.514087
N64	N	-0.333957	-0.926360	-0.014087
C65	C	-0.866316	-1.518344	-0.506133
C66	C	-0.366316	-1.018344	-0.006133
N67	N	-0.833865	-1.610287	-0.498146
N68	N	-0.333865	-1.110287	0.001854
N69	N	-0.771407	-1.610245	-0.498130
N70	N	-0.271407	-1.110245	0.001870
C71	C	-0.739527	-1.518262	-0.506100
C72	C	-0.239527	-1.018262	-0.006100
C73	C	-0.970466	-1.585639	-0.439032
C74	C	-0.470466	-1.085639	0.060968
C75	C	-1.036210	-1.585690	-0.439063
C76	C	-0.536210	-1.085690	0.060937
C77	C	-1.036211	-1.451233	-0.573329
C78	C	-0.536211	-0.951233	-0.073329
C79	C	-0.970469	-1.451192	-0.573304
C80	C	-0.470469	-0.951192	-0.073304
C81	C	-0.937600	-1.518393	-0.506149
C82	C	-0.437600	-1.018393	-0.006149
C83	C	-0.139049	-1.518414	-0.506166
C84	C	0.360951	-1.018414	-0.006166
C85	C	-0.069081	-1.518485	-0.506200
C86	C	0.430919	-1.018485	-0.006200
C87	C	-0.303179	-1.518325	-0.780118
C88	C	0.196821	-1.018325	-0.280118
C89	C	-0.303153	-1.518359	-0.896894
C90	C	0.196847	-1.018359	-0.396894
C91	C	-0.303251	-0.792280	-0.506099
C92	C	0.196749	-0.292280	-0.006099
C93	C	-0.303245	-0.909057	-0.506100
C94	C	0.196755	-0.409057	-0.006100
C95	C	-0.262889	-1.585601	-0.951782
C96	C	0.237111	-1.085601	-0.451782
C97	C	-0.262862	-1.585619	-1.061506
C98	C	0.237138	-1.085619	-0.561506
C99	C	-0.343368	-1.451149	-1.061445
C100	C	0.156632	-0.951149	-0.561445
C101	C	-0.343391	-1.451127	-0.951723
C102	C	0.156609	-0.951127	-0.451723
C103	C	-0.303254	-1.518229	-0.233117
C104	C	0.196746	-1.018229	0.266883
C105	C	-0.303102	-1.518399	-0.116341
C106	C	0.196898	-1.018399	0.383659
H107	H	-0.230118	-0.919247	-0.384408
H108	H	0.269882	-0.419247	0.115592
H109	H	-0.376178	-1.396363	-0.907032
H110	H	0.123822	-0.896363	-0.407032
O111	O	-0.382752	-1.126977	-0.638149
O112	O	0.117248	-0.626977	-0.138149
C113	C	-0.423356	-1.190413	-0.578211
C114	C	0.076644	-0.690413	-0.078211
H115	H	-0.427191	-1.157311	-0.495454
H116	H	0.072809	-0.657311	0.004546
H117	H	-0.471825	-1.191642	-0.616066
H118	H	0.028175	-0.691642	-0.116066
H119	H	-0.403884	-1.273581	-0.574644
H120	H	0.096116	-0.773581	-0.074644
H121	H	-0.230074	-1.640373	-1.106191
H122	H	0.269926	-1.140373	-0.606191
O123	O	-1.068234	-1.651064	-0.374043
O124	O	-0.568234	-1.151064	0.125957
C125	C	-1.133308	-1.636725	-0.388490
C126	C	-0.633308	-1.136725	0.111510
H127	H	-1.142245	-1.602167	-0.469501
H128	H	-0.642245	-1.102167	0.030499
H129	H	-1.158225	-1.715479	-0.381588
H130	H	-0.658225	-1.215479	0.118412
H131	H	-1.152073	-1.580936	-0.326066
H132	H	-0.652073	-1.080936	0.173934
H133	H	-0.542864	-1.640105	-0.384235
H134	H	-0.042864	-1.140105	0.115765
O135	O	-0.223861	-1.127046	-0.373815
O136	O	0.276139	-0.627046	0.126185
C137	C	-0.259648	-1.190447	-0.305830
C138	C	0.240352	-0.690447	0.194170
H139	H	-0.307378	-1.206865	-0.342736
H140	H	0.192622	-0.706865	0.157264
H141	H	-0.233992	-1.267616	-0.291830
H142	H	0.266008	-0.767616	0.208170
H143	H	-0.266511	-1.148129	-0.227950
H144	H	0.233489	-0.648129	0.272050
H145	H	-0.943703	-1.640363	-0.384354
H146	H	-0.443703	-1.140363	0.115646
O147	O	-1.068206	-1.386096	-0.638601
O148	O	-0.568206	-0.886096	-0.138601
C149	C	-1.106154	-1.445904	-0.706541
C150	C	-0.606154	-0.945904	-0.206541
H151	H	-1.115980	-1.525548	-0.669557
H152	H	-0.615980	-1.025548	-0.169557
H153	H	-1.152398	-1.403132	-0.720602
H154	H	-0.652398	-0.903132	-0.220602
H155	H	-1.080770	-1.457393	-0.784399
H156	H	-0.580770	-0.957393	-0.284399
O157	O	-0.938638	-1.385767	-0.638531
O158	O	-0.438638	-0.885767	-0.138531
C159	C	-0.981749	-1.326476	-0.697812
C160	C	-0.481749	-0.826476	-0.197812
H161	H	-1.028636	-1.322892	-0.654791
H162	H	-0.528636	-0.822892	-0.154791
H163	H	-0.962792	-1.243680	-0.708937
H164	H	-0.462792	-0.743680	-0.208937
H165	H	-0.988679	-1.364909	-0.777642
H166	H	-0.488679	-0.864909	-0.277642
O167	O	-0.223740	-1.650934	-0.898683
O168	O	0.276260	-1.150934	-0.398683
C169	C	-0.188207	-1.710304	-0.970663
C170	C	0.311793	-1.210304	-0.470663
H171	H	-0.186009	-1.667287	-1.048871
H172	H	0.313991	-1.167287	-0.548871
H173	H	-0.138617	-1.721554	-0.938990
H174	H	0.361383	-1.221554	-0.438990
H175	H	-0.211261	-1.790076	-0.982334
H176	H	0.288739	-1.290076	-0.482334
H177	H	-0.662130	-1.640188	-0.384277
H178	H	-0.162130	-1.140188	0.115723
H179	H	-0.662140	-1.396267	-0.627873
H180	H	-0.162140	-0.896267	-0.127873
O181	O	-0.382436	-1.385948	-1.114870
O182	O	0.117564	-0.885948	-0.614870
C183	C	-0.373772	-1.400367	-1.223484
C184	C	0.126228	-0.900367	-0.723484
H185	H	-0.353160	-1.481472	-1.238493
H186	H	0.146840	-0.981472	-0.738493
H187	H	-0.420915	-1.393199	-1.265159
H188	H	0.079085	-0.893199	-0.765159
H189	H	-0.340238	-1.338092	-1.254630
H190	H	0.159762	-0.838092	-0.754630
H191	H	-0.376367	-0.919254	-0.627780
H192	H	0.123633	-0.419254	-0.127780
H193	H	-0.542868	-1.396192	-0.627852
H194	H	-0.042868	-0.896192	-0.127852
