data_functionalizedCrystal
_audit_creation_method	'MofGen! by Chris Wilmer'
_symmetry_space_group_name_H-M	'P1'
_symmetry_Int_Tables_number	1
_symmetry_cell_setting	triclinic
loop_
_symmetry_equiv_pos_as_xyz
  x,y,z
_cell_length_a	19.188925
_cell_length_b	19.188930
_cell_length_c	17.666332
_cell_angle_alpha	89.988397
_cell_angle_beta	89.989697
_cell_angle_gamma	83.143665
loop_
_atom_site_label
_atom_site_type_symbol
_atom_site_fract_x
_atom_site_fract_y
_atom_site_fract_z
O1	O	0.926152	0.087151	-0.062973
O2	O	1.426152	0.587151	0.437027
O3	O	0.722840	0.098889	-0.062972
O4	O	1.222840	0.598889	0.437028
O5	O	0.830363	-0.008636	-0.062958
O6	O	1.330363	0.491364	0.437042
O7	O	0.818629	0.194676	-0.062987
O8	O	1.318629	0.694676	0.437013
O9	O	0.830344	-0.008642	0.062939
O10	O	1.330344	0.491358	0.562939
O11	O	0.722821	0.098883	0.062925
O12	O	1.222821	0.598883	0.562925
O13	O	0.926133	0.087145	0.062924
O14	O	1.426133	0.587145	0.562924
Cu15	Cu	0.824476	0.093014	0.074419
Cu16	Cu	1.324476	0.593014	0.574419
Cu17	Cu	0.824498	0.093020	-0.074468
Cu18	Cu	1.324498	0.593020	0.425532
O19	O	0.818610	0.194670	0.062909
O20	O	1.318610	0.694670	0.562909
C21	C	0.696820	0.098507	-0.000023
C22	C	1.196820	0.598507	0.499977
C23	C	0.619315	0.097367	-0.000022
C24	C	1.119315	0.597367	0.499978
C25	C	0.057545	0.152831	-0.000032
C26	C	0.557545	0.652831	0.499968
C27	C	0.130368	0.153908	-0.000037
C28	C	0.630368	0.653908	0.499963
C29	C	0.175302	0.090816	-0.000026
C30	C	0.675302	0.590816	0.499974
C31	C	0.147408	0.026642	-0.000031
C32	C	0.647408	0.526642	0.499969
C33	C	0.074586	0.025568	-0.000034
C34	C	0.574586	0.525568	0.499966
N35	N	0.295973	0.045138	0.042837
N36	N	0.795973	0.545138	0.542837
N37	N	0.365150	0.046163	0.042842
N38	N	0.865150	0.546163	0.542842
C39	C	0.394712	0.094050	-0.000018
C40	C	0.894712	0.594050	0.499982
N41	N	0.352481	0.140883	-0.042872
N42	N	0.852481	0.640883	0.457128
N43	N	0.283297	0.139860	-0.042874
N44	N	0.783297	0.639860	0.457126
C45	C	0.254267	0.091974	-0.000023
C46	C	0.754267	0.591974	0.499977
C47	C	0.501561	0.159386	-0.000023
C48	C	1.001561	0.659386	0.499977
C49	C	0.574385	0.160460	-0.000032
C50	C	1.074385	0.660460	0.499968
C51	C	0.591425	0.033193	-0.000018
C52	C	1.091425	0.533193	0.499982
C53	C	0.518601	0.032121	-0.000017
C54	C	1.018601	0.532121	0.499983
C55	C	0.473673	0.095220	-0.000016
C56	C	0.973673	0.595220	0.499984
C57	C	0.829974	-0.034650	-0.000007
C58	C	1.329974	0.465350	0.499993
C59	C	0.828833	-0.112154	-0.000001
C60	C	1.328833	0.387846	0.499999
C61	C	0.891924	-0.157079	0.000003
C62	C	1.391924	0.342921	0.500003
C63	C	0.890852	-0.229903	-0.000010
C64	C	1.390852	0.270097	0.499990
C65	C	0.826686	-0.257799	-0.000010
C66	C	1.326686	0.242201	0.499990
C67	C	0.763587	-0.212864	-0.000017
C68	C	1.263587	0.287136	0.499983
C69	C	0.764660	-0.140041	-0.000013
C70	C	1.264660	0.359959	0.499987
N71	N	0.777632	-0.365805	0.042835
N72	N	1.277632	0.134195	0.542835
N73	N	0.776617	-0.434983	0.042833
N74	N	1.276617	0.065017	0.542833
C75	C	0.823448	-0.477207	-0.000025
C76	C	1.323448	0.022793	0.499975
N77	N	0.871344	-0.447641	-0.042871
N78	N	1.371344	0.052359	0.457129
N79	N	0.872361	-0.378456	-0.042865
N80	N	1.372361	0.121544	0.457135
C81	C	0.825515	-0.336761	-0.000015
C82	C	1.325515	0.163239	0.499985
C83	C	0.885381	-0.601097	-0.000036
C84	C	1.385381	-0.101097	0.499964
C85	C	0.884307	-0.673922	-0.000053
C86	C	1.384307	-0.173922	0.499947
C87	C	0.757040	-0.656880	-0.000053
C88	C	1.257040	-0.156880	0.499947
C89	C	0.758116	-0.584057	-0.000044
C90	C	1.258116	-0.084057	0.499956
C91	C	0.822289	-0.556170	-0.000032
C92	C	1.322289	-0.056170	0.499968
C93	C	0.952154	0.087527	-0.000027
C94	C	1.452154	0.587527	0.499973
C95	C	1.029658	0.088666	-0.000033
C96	C	1.529658	0.588666	0.499967
C97	C	0.819000	0.220684	-0.000043
C98	C	1.319000	0.720684	0.499957
C99	C	0.820140	0.298188	-0.000054
C100	C	1.320140	0.798188	0.499946
N101	N	0.824465	0.093008	0.179139
N102	N	1.324465	0.593008	0.679139
N103	N	0.824514	0.093020	-0.179187
N104	N	1.324514	0.593020	0.320813
C105	C	0.872092	0.045420	0.218755
C106	C	1.372092	0.545420	0.718755
C107	C	0.872096	0.045416	0.298003
C108	C	1.372096	0.545416	0.798003
C109	C	0.824480	0.093014	0.337631
C110	C	1.324480	0.593014	0.837631
C111	C	0.776844	0.140606	0.298005
C112	C	1.276844	0.640606	0.798005
C113	C	0.776837	0.140604	0.218759
C114	C	1.276837	0.640604	0.718759
N115	N	0.815404	0.154821	0.462041
N116	N	1.315404	0.654821	0.962041
N117	N	0.815415	0.154821	0.537321
N118	N	1.315415	0.654821	1.037321
C119	C	0.824498	0.093023	0.576395
C120	C	1.324498	0.593023	1.076395
N121	N	0.833584	0.031223	0.537345
N122	N	1.333584	0.531223	1.037345
N123	N	0.833576	0.031223	0.462057
N124	N	1.333576	0.531223	0.962057
C125	C	0.824482	0.093022	0.423560
C126	C	1.324482	0.593022	0.923560
C127	C	0.872132	0.045427	0.701940
C128	C	1.372132	0.545427	1.201940
C129	C	0.872131	0.045423	0.781190
C130	C	1.372131	0.545423	1.281190
C131	C	0.776883	0.140619	0.781191
C132	C	1.276883	0.640619	1.281191
C133	C	0.776880	0.140617	0.701943
C134	C	1.276880	0.640617	1.201943
C135	C	0.824509	0.093022	0.662323
C136	C	1.324509	0.593022	1.162323
H137	H	0.153078	0.206160	-0.000029
H138	H	0.653078	0.706160	0.499971
C139	C	0.734586	0.182885	0.580466
C140	C	1.234586	0.682885	1.080466
C141	C	0.724537	0.192938	0.658391
C142	C	1.224537	0.692938	1.158391
H143	H	0.702266	0.215185	0.553581
H144	H	1.202266	0.715185	1.053581
H145	H	0.781152	0.190350	0.567470
H146	H	1.281152	0.690350	1.067470
H147	H	0.727142	0.136304	0.567500
H148	H	1.227142	0.636304	1.067500
H149	H	0.731985	0.239517	0.671359
H150	H	1.231985	0.739517	1.171359
H151	H	0.677959	0.185478	0.671392
H152	H	1.177959	0.685478	1.171392
C153	C	0.631353	-0.632717	-0.000056
C154	C	1.131353	-0.132717	0.499944
C155	C	0.686505	-0.687533	-0.000056
C156	C	1.186505	-0.187533	0.499944
H157	H	0.587807	-0.651644	-0.000065
H158	H	1.087807	-0.151644	0.499935
H159	H	0.634410	-0.604681	0.043848
H160	H	1.134410	-0.104681	0.543848
H161	H	0.634432	-0.604656	-0.043959
H162	H	1.134432	-0.104656	0.456041
H163	H	0.683429	-0.715591	0.043849
H164	H	1.183429	-0.215591	0.543849
H165	H	0.683446	-0.715581	-0.043964
H166	H	1.183446	-0.215581	0.456036
H167	H	0.910912	0.006666	0.813446
H168	H	1.410912	0.506666	1.313446
C169	C	0.156937	-0.099260	-0.000026
C170	C	0.656937	0.400740	0.499974
C171	C	0.196797	-0.042711	-0.000022
C172	C	0.696797	0.457289	0.499978
H173	H	0.187429	-0.142077	-0.000029
H174	H	0.687429	0.357923	0.499971
H175	H	0.128173	-0.097040	0.043873
H176	H	0.628173	0.402960	0.543873
H177	H	0.128186	-0.097020	-0.043934
H178	H	0.628186	0.402980	0.456066
H179	H	0.225545	-0.044948	0.043889
H180	H	0.725545	0.455052	0.543889
H181	H	0.225573	-0.044932	-0.043925
H182	H	0.725573	0.455068	0.456075
H183	H	0.464978	0.210765	-0.000023
H184	H	0.964978	0.710765	0.499977
C185	C	0.992469	-0.710840	-0.064760
C186	C	1.492469	-0.210840	0.435240
C187	C	0.953664	-0.723304	-0.000050
C188	C	1.453664	-0.223304	0.499950
H189	H	1.035290	-0.741325	-0.064755
H190	H	1.535290	-0.241325	0.435245
H191	H	0.966160	-0.719268	-0.108660
H192	H	1.466160	-0.219268	0.391340
H193	H	1.002284	-0.663475	-0.064745
H194	H	1.502284	-0.163475	0.435255
H195	H	0.943845	-0.770668	-0.000069
H196	H	1.443845	-0.270668	0.499931
H197	H	0.979979	-0.714882	0.043860
H198	H	1.479979	-0.214882	0.543860
H199	H	0.713282	-0.103462	-0.000015
H200	H	1.213282	0.396538	0.499985
C201	C	0.446574	-0.042918	0.064705
C202	C	0.946574	0.457082	0.564705
C203	C	0.487940	-0.038410	-0.000010
C204	C	0.987940	0.461590	0.499990
H205	H	0.427642	-0.086461	0.064703
H206	H	0.927642	0.413539	0.564703
H207	H	0.474621	-0.039863	0.108601
H208	H	0.974621	0.460137	0.608601
H209	H	0.409396	-0.005490	0.064692
H210	H	0.909396	0.494510	0.564692
H211	H	0.525120	-0.075835	0.000006
H212	H	1.025120	0.424165	0.500006
H213	H	0.459891	-0.041472	-0.043917
H214	H	0.959891	0.458528	0.456083
C215	C	0.682735	0.234712	0.773227
C216	C	1.182735	0.734712	1.273227
C217	C	0.724540	0.192939	0.824740
C218	C	1.224540	0.692939	1.324740
H219	H	0.650416	0.267008	0.800117
H220	H	1.150416	0.767008	1.300117
H221	H	0.711716	0.259754	0.742307
H222	H	1.211716	0.759754	1.242307
H223	H	0.657712	0.205702	0.742331
H224	H	1.157712	0.705702	1.242331
H225	H	0.749566	0.221948	0.855633
H226	H	1.249566	0.721948	1.355633
H227	H	0.695555	0.167895	0.855674
H228	H	1.195555	0.667895	1.355674
C229	C	-0.034215	0.225462	-0.064767
C230	C	0.465785	0.725462	0.435233
C231	C	0.008161	0.222189	-0.000044
C232	C	0.508161	0.722189	0.499956
H233	H	-0.064704	0.268279	-0.064772
H234	H	0.435296	0.768279	0.435228
H235	H	-0.005440	0.223239	-0.108657
H236	H	0.494560	0.723239	0.391343
H237	H	-0.061247	0.187091	-0.064756
H238	H	0.438753	0.687091	0.435244
H239	H	0.035198	0.260557	-0.000057
H240	H	0.535198	0.760557	0.499943
H241	H	-0.020617	0.224419	0.043858
H242	H	0.479383	0.724419	0.543858
C243	C	0.966274	-0.048675	0.709896
C244	C	1.466274	0.451325	1.209896
C245	C	0.924475	-0.006895	0.658384
C246	C	1.424475	0.493105	1.158384
H247	H	0.998585	-0.080979	0.683005
H248	H	1.498585	0.419021	1.183005
H249	H	0.991300	-0.019675	0.740789
H250	H	1.491300	0.480325	1.240789
H251	H	0.937283	-0.073714	0.740820
H252	H	1.437283	0.426286	1.240820
H253	H	0.953466	0.018148	0.627463
H254	H	1.453466	0.518148	1.127463
H255	H	0.899447	-0.035899	0.627477
H256	H	1.399447	0.464101	1.127477
H257	H	0.051883	-0.026685	-0.000035
H258	H	0.551883	0.473315	0.499965
H259	H	0.706740	-0.547478	-0.000042
H260	H	1.206740	-0.047478	0.499958
H261	H	0.738074	0.179360	0.330275
H262	H	1.238074	0.679360	0.830275
C263	C	1.017613	-0.181244	0.000006
C264	C	1.517613	0.318756	0.500006
C265	C	0.962462	-0.126427	0.000008
C266	C	1.462462	0.373573	0.500008
H267	H	1.061159	-0.162318	0.000004
H268	H	1.561159	0.337682	0.500004
H269	H	1.014539	-0.209300	0.043905
H270	H	1.514539	0.290700	0.543905
H271	H	1.014549	-0.209285	-0.043902
H272	H	1.514549	0.290715	0.456098
H273	H	0.965523	-0.098389	0.043918
H274	H	1.465523	0.401611	0.543918
H275	H	0.965538	-0.098360	-0.043896
H276	H	1.465538	0.401640	0.456104
H277	H	0.738053	0.179357	0.186503
H278	H	1.238053	0.679357	0.686503
H279	H	0.937635	-0.578390	-0.000030
H280	H	1.437635	-0.078390	0.499970
C281	C	0.628377	-0.074942	-0.064727
C282	C	1.128377	0.425058	0.435273
C283	C	0.640808	-0.036161	-0.000010
C284	C	1.140808	0.463839	0.499990
H285	H	0.658870	-0.117757	-0.064725
H286	H	1.158870	0.382243	0.435275
H287	H	0.581021	-0.084763	-0.064720
H288	H	1.081021	0.415237	0.435280
H289	H	0.636821	-0.048609	-0.108626
H290	H	1.136821	0.451391	0.391374
H291	H	0.632359	-0.062492	0.043890
H292	H	1.132359	0.437508	0.543890
H293	H	0.688175	-0.026342	-0.000010
H294	H	1.188175	0.473658	0.499990
H295	H	0.910871	0.006663	0.186498
H296	H	1.410871	0.506663	0.686498
C297	C	0.966248	-0.048677	0.290049
C298	C	1.466248	0.451323	0.790049
C299	C	0.924448	-0.006899	0.341561
C300	C	1.424448	0.493101	0.841561
H301	H	0.998568	-0.080972	0.316941
H302	H	1.498568	0.419028	0.816941
H303	H	0.937263	-0.073721	0.259157
H304	H	1.437263	0.426279	0.759157
H305	H	0.991268	-0.019670	0.259125
H306	H	1.491268	0.480330	0.759125
H307	H	0.899423	-0.035906	0.372482
H308	H	1.399423	0.464094	0.872482
H309	H	0.953436	0.018146	0.372467
H310	H	1.453436	0.518146	0.872467
H311	H	0.711342	-0.235581	-0.000019
H312	H	1.211342	0.264419	0.499981
C313	C	0.963491	-0.321677	-0.064721
C314	C	1.463491	0.178323	0.435279
C315	C	0.960206	-0.279297	-0.000001
C316	C	1.460206	0.220703	0.499999
H317	H	1.006309	-0.352166	-0.064716
H318	H	1.506309	0.147834	0.435284
H319	H	0.925124	-0.348704	-0.064722
H320	H	1.425124	0.151296	0.435278
H321	H	0.961279	-0.292899	-0.108619
H322	H	1.461279	0.207101	0.391381
H323	H	0.962413	-0.308075	0.043897
H324	H	1.462413	0.191925	0.543897
H325	H	0.998584	-0.252268	0.000006
H326	H	1.498584	0.247732	0.500006
C327	C	0.582271	0.269276	-0.064754
C328	C	1.082271	0.769276	0.435246
C329	C	0.605033	0.231000	-0.000036
C330	C	1.105033	0.731000	0.499964
H331	H	0.601187	0.312828	-0.064753
H332	H	1.101187	0.812828	0.435247
H333	H	0.597719	0.243316	-0.108648
H334	H	1.097719	0.743316	0.391352
H335	H	0.532470	0.277653	-0.064743
H336	H	1.032470	0.777653	0.435257
H337	H	0.654834	0.222619	-0.000049
H338	H	1.154834	0.722619	0.499951
H339	H	0.589589	0.256967	0.043870
H340	H	1.089589	0.756967	0.543870
