data_functionalizedCrystal
_audit_creation_method	'MofGen! by Chris Wilmer'
_symmetry_space_group_name_H-M	'P1'
_symmetry_Int_Tables_number	1
_symmetry_cell_setting	triclinic
loop_
_symmetry_equiv_pos_as_xyz
  x,y,z
_cell_length_a	18.215407
_cell_length_b	18.215406
_cell_length_c	18.215399
_cell_angle_alpha	89.984834
_cell_angle_beta	90.018561
_cell_angle_gamma	90.007464
loop_
_atom_site_label
_atom_site_type_symbol
_atom_site_fract_x
_atom_site_fract_y
_atom_site_fract_z
Zn1	Zn	-1.125195	-0.293154	-0.416156
Zn2	Zn	-1.125155	-0.416225	-0.293117
Zn3	Zn	-1.002128	-0.293159	-0.293106
Zn4	Zn	-1.002145	-0.416166	-0.416145
O5	O	-1.063656	-0.354676	-0.354631
O6	O	-1.228174	-0.309502	-0.399844
O7	O	-1.108811	-0.399928	-0.190132
O8	O	-1.018462	-0.190174	-0.309429
O9	O	-1.228145	-0.399922	-0.309448
O10	O	-1.108879	-0.190171	-0.399833
O11	O	-1.018424	-0.309512	-0.190124
O12	O	-0.899146	-0.309454	-0.309418
O13	O	-1.018492	-0.399821	-0.519131
O14	O	-0.899159	-0.399826	-0.399814
O15	O	-1.108896	-0.309445	-0.519139
O16	O	-1.108828	-0.519202	-0.309437
O17	O	-1.018454	-0.519158	-0.399825
C18	C	-0.872450	-0.354634	-0.354614
C19	C	-0.790651	-0.354634	-0.354625
C20	C	-0.525603	-0.307659	-0.401769
C21	C	-0.602462	-0.307651	-0.401767
C22	C	-0.602450	-0.401669	-0.307497
C23	C	-0.525593	-0.401680	-0.307503
C24	C	-0.487171	-0.354671	-0.354637
C25	C	-0.640887	-0.354651	-0.354630
C26	C	-0.724221	-0.354643	-0.354629
C27	C	-0.403832	-0.354680	-0.354640
C28	C	-1.063659	-0.545882	-0.354647
C29	C	-1.063727	-0.627681	-0.354679
C30	C	-1.063701	-0.354625	-0.546584
C31	C	-1.063720	-0.354604	-0.628383
C32	C	-0.255609	-0.354706	-0.354645
C33	C	-0.337408	-0.354688	-0.354643
C34	C	-1.063673	-0.162723	-0.354631
C35	C	-1.063681	-0.080924	-0.354631
C36	C	-1.016624	0.107269	-0.307584
C37	C	-1.016630	0.184128	-0.307593
C38	C	-1.110786	0.184120	-0.401731
C39	C	-1.110776	0.107263	-0.401725
C40	C	-1.063696	0.068839	-0.354648
C41	C	-1.063712	0.222555	-0.354662
C42	C	-1.063719	0.305889	-0.354672
C43	C	-1.063688	-0.014500	-0.354638
C44	C	-1.110810	-0.307501	-0.816583
C45	C	-1.110819	-0.307479	-0.893441
C46	C	-1.016681	-0.401593	-0.893422
C47	C	-1.016669	-0.401610	-0.816564
C48	C	-1.063738	-0.354565	-0.778147
C49	C	-1.063759	-0.354526	-0.931863
C50	C	-1.063768	-0.354504	-1.015197
C51	C	-1.063728	-0.354587	-0.694808
C52	C	-1.063654	-0.354674	-0.163425
C53	C	-1.063777	-0.354488	-0.081627
H54	H	-0.633749	-0.269370	-0.440147
H55	H	-0.978332	-0.439935	-0.785269
H56	H	-0.978286	0.075986	-0.269253
O57	O	-1.156616	-0.261740	-0.930664
C58	C	-1.198140	-0.220209	-0.880272
H59	H	-1.200678	-0.250368	-0.825486
H60	H	-1.171194	-0.164313	-0.872092
C61	C	-1.273353	-0.172569	-0.977570
C62	C	-1.276476	-0.209614	-0.910283
H63	H	-1.321674	-0.166030	-0.996083
H64	H	-1.245377	-0.200547	-1.011522
H65	H	-1.250895	-0.125993	-0.970745
H66	H	-1.298925	-0.256193	-0.917111
H67	H	-1.304458	-0.181645	-0.876334
H68	H	-0.978362	-0.439897	-0.924711
H69	H	-1.149118	0.215413	-0.440059
O70	O	-0.488198	-0.262105	-0.447594
C71	C	-0.443785	-0.304071	-0.495078
H72	H	-0.432276	-0.359811	-0.469038
H73	H	-0.473430	-0.312222	-0.549601
C74	C	-0.384910	-0.195146	-0.540455
C75	C	-0.370768	-0.263605	-0.508469
H76	H	-0.339871	-0.170184	-0.548719
H77	H	-0.414833	-0.166872	-0.508467
H78	H	-0.409616	-0.201949	-0.585887
H79	H	-0.346071	-0.256801	-0.463034
H80	H	-0.340839	-0.291877	-0.540450
H81	H	-1.149107	0.075973	-0.440055
O82	O	-0.488142	-0.447327	-0.261786
C83	C	-0.412067	-0.437245	-0.271890
H84	H	-0.401590	-0.413210	-0.328720
H85	H	-0.390226	-0.398007	-0.228297
C86	C	-0.385492	-0.541224	-0.195246
C87	C	-0.372624	-0.511710	-0.265048
H88	H	-0.361160	-0.587157	-0.191022
H89	H	-0.436745	-0.548016	-0.188436
H90	H	-0.367291	-0.508519	-0.158926
H91	H	-0.390833	-0.544411	-0.301365
H92	H	-0.321373	-0.504926	-0.271864
H93	H	-0.633743	-0.439940	-0.269120
H94	H	-0.978299	0.215415	-0.269271
H95	H	-1.149134	-0.269192	-0.785305
