data_functionalizedCrystal
_audit_creation_method	'MofGen! by Chris Wilmer'
_symmetry_space_group_name_H-M	'P1'
_symmetry_Int_Tables_number	1
_symmetry_cell_setting	triclinic
loop_
_symmetry_equiv_pos_as_xyz
  x,y,z
_cell_length_a	26.455835
_cell_length_b	26.455273
_cell_length_c	26.451828
_cell_angle_alpha	60.005170
_cell_angle_beta	60.010757
_cell_angle_gamma	59.993435
loop_
_atom_site_label
_atom_site_type_symbol
_atom_site_fract_x
_atom_site_fract_y
_atom_site_fract_z
O1	O	0.069940	-0.738516	0.617604
O2	O	0.569940	-0.238516	1.117604
O3	O	0.026299	-0.574986	0.497618
O4	O	0.526299	-0.074986	0.997618
O5	O	0.129847	-0.678463	0.497546
O6	O	0.629847	-0.178463	0.997546
O7	O	-0.033607	-0.635040	0.617676
O8	O	0.466393	-0.135040	1.117676
O9	O	0.164197	-0.644116	0.531822
O10	O	0.664197	-0.144116	1.031822
O11	O	0.060649	-0.540639	0.531894
O12	O	0.560649	-0.040639	1.031894
O13	O	0.104290	-0.704170	0.651880
O14	O	0.604290	-0.204170	1.151880
Cu15	Cu	0.085606	-0.619268	0.595016
Cu16	Cu	0.585606	-0.119268	1.095016
Cu17	Cu	0.044984	-0.659887	0.554481
Cu18	Cu	0.544984	-0.159887	1.054481
O19	O	0.000742	-0.600693	0.651952
O20	O	0.500742	-0.100693	1.151952
N21	N	0.114179	-0.590703	0.623530
N22	N	0.614179	-0.090703	1.123530
N23	N	0.016416	-0.688458	0.525968
N24	N	0.516416	-0.188458	1.025968
C25	C	0.157553	-0.547535	0.933368
C26	C	0.657553	-0.047535	1.433368
C27	C	0.424104	-0.547506	0.666656
C28	C	0.924104	-0.047506	1.166656
C29	C	0.157413	-0.547503	0.666729
C30	C	0.657413	-0.047503	1.166729
C31	C	0.157397	-0.280846	0.666749
C32	C	0.657397	0.219154	1.166749
C33	C	0.200330	-0.409550	0.709625
C34	C	0.700330	0.090450	1.209625
C35	C	0.200339	-0.504608	0.709615
C36	C	0.700339	-0.004608	1.209615
C37	C	0.224118	-0.480848	0.733375
C38	C	0.724118	0.019152	1.233375
C39	C	0.327800	-0.462984	0.678792
C40	C	0.827800	0.037016	1.178792
C41	C	0.392611	-0.484588	0.657175
C42	C	0.892611	0.015412	1.157175
C43	C	0.392630	-0.589450	0.697162
C44	C	0.892630	-0.089450	1.197162
C45	C	0.327821	-0.567844	0.718781
C46	C	0.827821	-0.067844	1.218781
C47	C	0.215955	-0.377135	0.645910
C48	C	0.715955	0.122865	1.145910
C49	C	0.194327	-0.312320	0.624323
C50	C	0.694327	0.187680	1.124323
C51	C	0.141457	-0.312339	0.730169
C52	C	0.641457	0.187661	1.230169
C53	C	0.163084	-0.377154	0.751756
C54	C	0.663084	0.122846	1.251756
C55	C	0.136618	-0.488954	0.725292
C56	C	0.636618	0.011046	1.225292
C57	C	0.115007	-0.510553	0.703686
C58	C	0.615007	-0.010553	1.203686
C59	C	0.220833	-0.563461	0.650740
C60	C	0.720833	-0.063461	1.150740
C61	C	0.242447	-0.541861	0.672339
C62	C	0.742447	-0.041861	1.172339
C63	C	0.136680	-0.488971	0.837094
C64	C	0.636680	0.011029	1.337094
C65	C	0.115112	-0.510589	0.901907
C66	C	0.615112	-0.010589	1.401907
C67	C	0.220969	-0.563508	0.901868
C68	C	0.720969	-0.063508	1.401868
C69	C	0.242535	-0.541892	0.837053
C70	C	0.742535	-0.041892	1.337053
C71	C	0.200389	-0.504622	0.804668
C72	C	0.700389	-0.004622	1.304668
C73	C	0.295409	-0.504610	0.709593
C74	C	0.795409	-0.004610	1.209593
C75	C	0.132990	-0.570876	1.004655
C76	C	0.632990	-0.070876	1.504655
C77	C	0.495389	-0.570440	0.642547
C78	C	0.995389	-0.070440	1.142547
C79	C	0.132802	-0.570856	0.643399
C80	C	0.632802	-0.070856	1.143399
C81	C	0.133212	-0.209553	0.643833
C82	C	0.633212	0.290447	1.143833
C83	C	-0.097217	-0.706972	0.506986
C84	C	0.402783	-0.206972	1.006986
C85	C	-0.002040	-0.707108	0.412067
C86	C	0.497960	-0.207108	0.912067
C87	C	-0.002230	-0.802124	0.507163
C88	C	0.497770	-0.302124	1.007163
C89	C	-0.002214	-0.707101	0.507221
C90	C	0.497786	-0.207101	1.007221
C91	C	-0.025925	-0.730827	0.483360
C92	C	0.474075	-0.230827	0.983360
N93	N	0.553723	-0.590712	0.623415
N94	N	1.053723	-0.090712	1.123415
O95	O	0.751638	-0.596429	0.475603
O96	O	1.251638	-0.096429	0.975603
O97	O	0.751819	-0.716773	0.638980
O98	O	1.251819	-0.216773	1.138980
O99	O	0.751753	-0.716500	0.535361
O100	O	1.251753	-0.216500	1.035361
O101	O	0.751705	-0.596703	0.579222
O102	O	1.251705	-0.096703	1.079222
O103	O	0.648791	-0.682239	0.569747
O104	O	1.148791	-0.182239	1.069747
O105	O	0.648858	-0.682512	0.673366
O106	O	1.148858	-0.182512	1.173366
O107	O	0.648676	-0.562169	0.509989
O108	O	1.148676	-0.062169	1.009989
Cu109	Cu	0.639366	-0.619212	0.594817
Cu110	Cu	1.139366	-0.119212	1.094817
Cu111	Cu	0.761130	-0.659729	0.554152
Cu112	Cu	1.261130	-0.159729	1.054152
O113	O	0.648743	-0.562442	0.613609
O114	O	1.148743	-0.062442	1.113609
N115	N	0.846773	-0.688230	0.525548
N116	N	1.346773	-0.188230	1.025548
N117	N	0.114157	-0.151217	0.623565
N118	N	0.614157	0.348783	1.123565
O119	O	-0.033591	0.046803	0.617717
O120	O	0.466409	0.546803	1.117717
O121	O	0.129795	0.046806	0.497390
O122	O	0.629795	0.546806	0.997390
O123	O	0.026157	0.046789	0.497680
O124	O	0.526157	0.546789	0.997680
O125	O	0.070046	0.046819	0.617427
O126	O	0.570046	0.546819	1.117427
O127	O	0.060509	-0.056181	0.532004
O128	O	0.560509	0.443819	1.032004
O129	O	0.164146	-0.056164	0.531714
O130	O	0.664146	0.443836	1.031714
O131	O	0.000760	-0.056167	0.652041
O132	O	0.500760	0.443833	1.152041
Cu133	Cu	0.085590	-0.065568	0.595012
Cu134	Cu	0.585590	0.434432	1.095012
Cu135	Cu	0.044965	0.056206	0.554419
Cu136	Cu	0.544965	0.556206	1.054419
O137	O	0.104397	-0.056151	0.651751
O138	O	0.604397	0.443849	1.151751
N139	N	0.016390	0.141855	0.525867
N140	N	0.516390	0.641855	1.025867
N141	N	0.114410	-0.590756	1.062992
N142	N	0.614410	-0.090756	1.562992
O143	O	0.108565	-0.738494	1.260998
O144	O	0.608565	-0.238494	1.760998
O145	O	-0.011747	-0.575059	1.261012
O146	O	0.488253	-0.075059	1.761012
O147	O	-0.011470	-0.678679	1.260970
O148	O	0.488530	-0.178679	1.760970
O149	O	0.108287	-0.634874	1.261040
O150	O	0.608287	-0.134874	1.761040
O151	O	0.022849	-0.644347	1.158004
O152	O	0.522849	-0.144347	1.658004
O153	O	0.022572	-0.540726	1.158046
O154	O	0.522572	-0.040726	1.658046
O155	O	0.142884	-0.704162	1.158033
O156	O	0.642884	-0.204162	1.658033
Cu157	Cu	0.085861	-0.619309	1.148638
Cu158	Cu	0.585861	-0.119309	1.648638
Cu159	Cu	0.045275	-0.659911	1.270406
Cu160	Cu	0.545275	-0.159911	1.770406
O161	O	0.142606	-0.600541	1.158074
O162	O	0.642606	-0.100541	1.658074
N163	N	0.016726	-0.688471	1.356052
N164	N	0.516726	-0.188471	1.856052
C165	C	0.039385	-0.537207	0.498225
C166	C	0.539385	-0.037207	0.998225
C167	C	0.167616	-0.665350	0.498136
C168	C	0.667616	-0.165350	0.998136
C169	C	0.091204	-0.741950	0.651272
C170	C	0.591204	-0.241950	1.151272
C171	C	-0.037027	-0.613806	0.651361
C172	C	0.462973	-0.113806	1.151361
C173	C	0.700360	-0.716215	0.676756
C174	C	1.200360	-0.216215	1.176756
C175	C	0.700279	-0.715877	0.548436
C176	C	1.200279	-0.215877	1.048436
C177	C	0.700133	-0.562725	0.472214
C178	C	1.200133	-0.062725	0.972214
C179	C	0.700218	-0.563065	0.600533
C180	C	1.200218	-0.063065	1.100533
C181	C	0.167511	-0.004552	0.497940
C182	C	0.667511	0.495448	0.997940
C183	C	0.039211	-0.004699	0.498341
C184	C	0.539211	0.495301	0.998341
C185	C	-0.036999	-0.004682	0.651449
C186	C	0.463001	0.495318	1.151449
C187	C	0.091344	-0.004663	0.651090
C188	C	0.591344	0.495337	1.151090
C189	C	-0.011156	-0.537302	1.209530
C190	C	0.488844	-0.037302	1.709530
C191	C	-0.010806	-0.665617	1.209458
C192	C	0.489194	-0.165617	1.709458
C193	C	0.142293	-0.741918	1.209514
C194	C	0.642293	-0.241918	1.709514
C195	C	0.141950	-0.613596	1.209563
C196	C	0.641950	-0.113596	1.709563
H197	H	0.063231	-0.497836	0.928300
H198	H	0.563231	0.002164	1.428300
O199	O	0.223427	-0.004292	0.452835
O200	O	0.723427	0.495708	0.952835
C201	C	0.333648	-0.057148	0.422554
C202	C	0.833648	0.442852	0.922554
C203	C	0.270364	-0.057510	0.473689
C204	C	0.770364	0.442490	0.973689
H205	H	0.371612	-0.100176	0.439390
H206	H	0.871612	0.399824	0.939390
H207	H	0.342518	-0.013986	0.410999
H208	H	0.842518	0.486014	0.910999
H209	H	0.333656	-0.057030	0.379393
H210	H	0.833656	0.442970	0.879393
H211	H	0.270310	-0.057650	0.516881
H212	H	0.770310	0.442350	1.016881
H213	H	0.261519	-0.100668	0.485191
H214	H	0.761519	0.399332	0.985191
O215	O	0.700147	-0.517627	0.416238
O216	O	1.200147	-0.017627	0.916238
C217	C	0.753401	-0.449905	0.325354
C218	C	1.253401	0.050095	0.825354
C219	C	0.753455	-0.500966	0.388741
C220	C	1.253455	-0.000966	0.888741
H221	H	0.796502	-0.436428	0.303099
H222	H	1.296502	0.063572	0.803099
H223	H	0.710317	-0.407667	0.331860
H224	H	1.210317	0.092333	0.831860
H225	H	0.753360	-0.467852	0.294156
H226	H	1.253360	0.032148	0.794156
H227	H	0.753518	-0.483076	0.419972
H228	H	1.253518	0.016924	0.919972
H229	H	0.796535	-0.543194	0.382187
H230	H	1.296535	-0.043194	0.882187
H231	H	0.030065	-0.490230	0.460543
H232	H	0.530065	0.009770	0.960543
H233	H	-0.083976	-0.604550	0.689083
H234	H	0.416024	-0.104550	1.189083
O235	O	0.186779	-0.602309	1.209552
O236	O	0.686779	-0.102309	1.709552
C237	C	0.215080	-0.528777	1.209621
C238	C	0.715080	-0.028777	1.709621
C239	C	0.164263	-0.541473	1.209619
C240	C	0.664263	-0.041473	1.709619
H241	H	0.196891	-0.479597	1.209689
H242	H	0.696891	0.020403	1.709689
H243	H	0.257335	-0.534277	1.166521
H244	H	0.757335	-0.034277	1.666521
H245	H	0.228626	-0.563084	1.252703
H246	H	0.728626	-0.063084	1.752703
H247	H	0.150665	-0.507177	1.166566
H248	H	0.650665	-0.007177	1.666566
H249	H	0.122042	-0.535995	1.252748
H250	H	0.622042	-0.035995	1.752748
H251	H	-0.048928	-0.490363	1.209534
H252	H	0.451072	0.009637	1.709534
O253	O	-0.055729	-0.676779	1.209490
O254	O	0.444271	-0.176779	1.709490
C255	C	-0.158836	-0.682499	1.262704
C256	C	0.341164	-0.182499	1.762704
C257	C	-0.108009	-0.669856	1.262751
C258	C	0.391991	-0.169856	1.762751
H259	H	-0.201122	-0.676893	1.305754
H260	H	0.298878	-0.176893	1.805754
H261	H	-0.140725	-0.731699	1.262718
H262	H	0.359275	-0.231699	1.762718
H263	H	-0.172303	-0.648218	1.219574
H264	H	0.327697	-0.148218	1.719574
H265	H	-0.094520	-0.704097	1.305873
H266	H	0.405480	-0.204097	1.805873
H267	H	-0.126149	-0.620639	1.262705
H268	H	0.373851	-0.120639	1.762705
O269	O	0.102436	-0.004630	0.696033
O270	O	0.602436	0.495370	1.196033
C271	C	0.061982	-0.004661	0.800355
C272	C	0.561982	0.495339	1.300355
C273	C	0.049332	-0.004685	0.749509
C274	C	0.549332	0.495315	1.249509
H275	H	0.019060	-0.004719	0.843607
H276	H	0.519060	0.495281	1.343607
H277	H	0.073733	0.038445	0.783232
H278	H	0.573733	0.538445	1.283232
H279	H	0.102540	-0.047741	0.811879
H280	H	0.602540	0.452259	1.311879
H281	H	0.008766	0.038366	0.737962
H282	H	0.508766	0.538366	1.237962
H283	H	0.037616	-0.047819	0.766658
H284	H	0.537616	0.452181	1.266658
H285	H	0.700298	-0.753510	0.539047
H286	H	1.200298	-0.253510	1.039047
O287	O	0.187282	-0.797957	1.209535
O288	O	0.687282	-0.297957	1.709535
C289	C	0.216078	-0.899932	1.209459
C290	C	0.716078	-0.399932	1.709459
C291	C	0.165069	-0.836502	1.209452
C292	C	0.665069	-0.336502	1.709452
H293	H	0.198142	-0.931108	1.209379
H294	H	0.698142	-0.431108	1.709379
H295	H	0.229575	-0.922218	1.252568
H296	H	0.729575	-0.422218	1.752568
H297	H	0.258302	-0.893409	1.166386
H298	H	0.758302	-0.393409	1.666386
H299	H	0.122812	-0.842971	1.252496
H300	H	0.622812	-0.342971	1.752496
H301	H	0.151624	-0.814238	1.166315
H302	H	0.651624	-0.314238	1.666315
O303	O	0.102224	-0.797946	0.696308
O304	O	0.602224	-0.297946	1.196308
C305	C	0.061591	-0.861610	0.800643
C306	C	0.561591	-0.361610	1.300643
C307	C	0.049034	-0.798162	0.749700
C308	C	0.549034	-0.298162	1.249700
H309	H	0.018592	-0.861810	0.843818
H310	H	0.518592	-0.361810	1.343818
H311	H	0.102083	-0.870646	0.812288
H312	H	0.602083	-0.370646	1.312288
H313	H	0.073387	-0.899366	0.783516
H314	H	0.573387	-0.399366	1.283516
H315	H	0.037212	-0.760367	0.766785
H316	H	0.537212	-0.260367	1.266785
H317	H	0.008560	-0.789180	0.738063
H318	H	0.508560	-0.289180	1.238063
O319	O	-0.092932	-0.004708	0.696595
O320	O	0.407068	0.495292	1.196595
C321	C	-0.156347	-0.004656	0.800953
C322	C	0.343653	0.495344	1.300953
C323	C	-0.092971	-0.004642	0.749885
C324	C	0.407029	0.495358	1.249885
H325	H	-0.156404	-0.004590	0.844046
H326	H	0.343596	0.495410	1.344046
H327	H	-0.165425	-0.047763	0.812704
H328	H	0.334575	0.452237	1.312704
H329	H	-0.194152	0.038422	0.783894
H330	H	0.305848	0.538422	1.283894
H331	H	-0.055127	-0.047691	0.766901
H332	H	0.444873	0.452309	1.266901
H333	H	-0.083947	0.038494	0.738142
H334	H	0.416053	0.538494	1.238142
H335	H	0.102355	-0.458618	0.810728
H336	H	0.602355	0.041382	1.310728
H337	H	0.700405	-0.753994	0.723681
H338	H	1.200405	-0.253994	1.223681
O339	O	0.261994	-0.599716	0.933226
O340	O	0.761994	-0.099716	1.433226
C341	C	0.369268	-0.649875	0.926338
C342	C	0.869268	-0.149875	1.426338
C343	C	0.322873	-0.608876	0.890748
C344	C	0.822873	-0.108876	1.390748
H345	H	0.418499	-0.657283	0.892010
H346	H	0.918499	-0.157283	1.392010
H347	H	0.361874	-0.696527	0.956661
H348	H	0.861874	-0.196527	1.456661
H349	H	0.361774	-0.626128	0.956700
H350	H	0.861774	-0.126128	1.456700
H351	H	0.330339	-0.632568	0.860353
H352	H	0.830339	-0.132568	1.360353
H353	H	0.330279	-0.562226	0.860464
H354	H	0.830279	-0.062226	1.360464
H355	H	0.214562	-0.674609	0.460411
H356	H	0.714562	-0.174609	0.960411
O357	O	0.700173	-0.518226	0.611838
O358	O	1.200173	-0.018226	1.111838
C359	C	0.700247	-0.489918	0.685376
C360	C	1.200247	0.010082	1.185376
C361	C	0.700283	-0.540748	0.672662
C362	C	1.200283	-0.040748	1.172662
H363	H	0.700349	-0.508113	0.734547
H364	H	1.200349	-0.008113	1.234547
H365	H	0.657118	-0.447675	0.679913
H366	H	1.157118	0.052325	1.179913
H367	H	0.743296	-0.476347	0.651058
H368	H	1.243296	0.023653	1.151058
H369	H	0.657263	-0.554371	0.706969
H370	H	1.157263	-0.054371	1.206969
H371	H	0.743441	-0.582957	0.678103
H372	H	1.243441	-0.082957	1.178103
H373	H	0.029814	-0.004702	0.460721
H374	H	0.529814	0.495298	0.960721
H375	H	0.294416	-0.554643	0.810656
H376	H	0.794416	-0.054643	1.310656
H377	H	0.063121	-0.497793	0.716436
H378	H	0.563121	0.002207	1.216436
O379	O	0.095631	-0.452748	0.761470
O380	O	0.595631	0.047252	1.261470
C381	C	-0.011618	-0.402578	0.811736
C382	C	0.488382	0.097422	1.311736
C383	C	0.034733	-0.443572	0.770745
C384	C	0.534733	0.056428	1.270745
H385	H	-0.060864	-0.395158	0.819258
H386	H	0.439136	0.104842	1.319258
H387	H	-0.004210	-0.355932	0.788003
H388	H	0.495790	0.144068	1.288003
H389	H	-0.004087	-0.426336	0.858333
H390	H	0.495913	0.073664	1.358333
H391	H	0.027230	-0.419870	0.724141
H392	H	0.527230	0.080130	1.224141
H393	H	0.027314	-0.490217	0.794526
H394	H	0.527314	0.009783	1.294526
H395	H	0.255124	-0.593799	0.620395
H396	H	0.755124	-0.093799	1.120395
H397	H	0.301449	-0.601745	0.743862
H398	H	0.801449	-0.101745	1.243862
O399	O	0.304357	-0.557021	0.656999
O400	O	0.804357	-0.057021	1.156999
C401	C	0.401374	-0.551990	0.574800
C402	C	0.901374	-0.051990	1.074800
C403	C	0.331274	-0.534805	0.592087
C404	C	0.831274	-0.034805	1.092087
H405	H	0.423155	-0.534024	0.522319
H406	H	0.923155	-0.034024	1.022319
H407	H	0.423299	-0.604469	0.592617
H408	H	0.923299	-0.104469	1.092617
H409	H	0.409557	-0.530159	0.596675
H410	H	0.909557	-0.030159	1.096675
H411	H	0.323035	-0.556594	0.570218
H412	H	0.823035	-0.056594	1.070218
H413	H	0.309384	-0.482321	0.574281
H414	H	0.809384	0.017679	1.074281
O415	O	0.424025	-0.650899	0.706153
O416	O	0.924025	-0.150899	1.206153
C417	C	0.417210	-0.752623	0.748053
C418	C	0.917210	-0.252623	1.248053
C419	C	0.381580	-0.683053	0.737926
C420	C	0.881580	-0.183053	1.237926
H421	H	0.382909	-0.778639	0.773730
H422	H	0.882909	-0.278639	1.273730
H423	H	0.447557	-0.770915	0.776572
H424	H	0.947557	-0.270915	1.276572
H425	H	0.447549	-0.759813	0.701308
H426	H	0.947549	-0.259813	1.201308
H427	H	0.351208	-0.675810	0.784642
H428	H	0.851208	-0.175810	1.284642
H429	H	0.351272	-0.664796	0.709379
H430	H	0.851272	-0.164796	1.209379
H431	H	0.418982	-0.450689	0.632093
H432	H	0.918982	0.049311	1.132093
H433	H	0.301415	-0.411495	0.671309
H434	H	0.801415	0.088505	1.171309
H435	H	0.246280	-0.403511	0.611604
H436	H	0.746280	0.096489	1.111604
H437	H	0.111138	-0.285961	0.764475
H438	H	0.611138	0.214039	1.264475
O439	O	0.209475	-0.280896	0.562413
O440	O	0.709475	0.219104	1.062413
C441	C	0.204450	-0.261013	0.465356
C442	C	0.704450	0.238987	0.965356
C443	C	0.187269	-0.296650	0.535456
C444	C	0.687269	0.203350	1.035456
H445	H	0.186493	-0.273728	0.443543
H446	H	0.686493	0.226272	0.943543
H447	H	0.256925	-0.273763	0.443456
H448	H	0.756925	0.226237	0.943456
H449	H	0.182614	-0.209127	0.457180
H450	H	0.682614	0.290873	0.957180
H451	H	0.209063	-0.348544	0.543688
H452	H	0.709063	0.151456	1.043688
H453	H	0.134789	-0.283849	0.557321
H454	H	0.634789	0.216151	1.057321
O455	O	0.147873	-0.408549	0.813672
O456	O	0.647873	0.091451	1.313672
C457	C	0.093116	-0.401731	0.916382
C458	C	0.593116	0.098269	1.416382
C459	C	0.110310	-0.366100	0.846280
C460	C	0.610310	0.133900	1.346280
H461	H	0.062733	-0.367427	0.942765
H462	H	0.562733	0.132573	1.442765
H463	H	0.137088	-0.432058	0.929162
H464	H	0.637088	0.067942	1.429162
H465	H	0.066763	-0.432094	0.929114
H466	H	0.566763	0.067906	1.429114
H467	H	0.136647	-0.335703	0.833497
H468	H	0.636647	0.164297	1.333497
H469	H	0.066316	-0.335812	0.833537
H470	H	0.566316	0.164188	1.333537
