data_functionalizedCrystal
_audit_creation_method	'MofGen! by Chris Wilmer'
_symmetry_space_group_name_H-M	'P1'
_symmetry_Int_Tables_number	1
_symmetry_cell_setting	triclinic
loop_
_symmetry_equiv_pos_as_xyz
  x,y,z
_cell_length_a	13.339070
_cell_length_b	15.944551
_cell_length_c	11.804365
_cell_angle_alpha	101.830656
_cell_angle_beta	74.875130
_cell_angle_gamma	99.564016
loop_
_atom_site_label
_atom_site_type_symbol
_atom_site_fract_x
_atom_site_fract_y
_atom_site_fract_z
O1	O	1.362759	0.408901	-0.099080
O2	O	1.068226	0.353629	-0.099072
O3	O	1.223533	0.260866	-0.099066
O4	O	1.207452	0.501664	-0.099087
O5	O	1.182647	0.285253	0.098989
O6	O	1.027340	0.378016	0.098982
O7	O	1.321872	0.433288	0.098974
Cu8	Cu	1.170873	0.407879	0.117062
Cu9	Cu	1.219226	0.379038	-0.117160
O10	O	1.166565	0.526051	0.098968
C11	C	1.010093	0.356486	-0.000044
C12	C	0.897788	0.328657	-0.000040
C13	C	0.533018	0.545045	-0.000078
C14	C	0.638534	0.571194	-0.000085
C15	C	0.703352	0.510562	-0.000073
C16	C	0.662645	0.423776	-0.000055
C17	C	0.557121	0.397622	-0.000058
C18	C	0.727455	0.363140	-0.000053
C19	C	0.686748	0.276354	-0.000035
C20	C	0.581234	0.250205	-0.000037
C21	C	0.516415	0.310837	-0.000048
C22	C	0.832980	0.389293	-0.000051
C23	C	0.857083	0.241871	-0.000031
C24	C	0.751567	0.215721	-0.000024
C25	C	1.202422	0.241610	-0.000038
C26	C	1.200420	0.147897	-0.000038
C27	C	1.099370	-0.090508	-0.000051
C28	C	1.126136	-0.128567	0.097600
C29	C	1.196800	-0.023674	-0.000047
C30	C	1.166470	-0.152588	-0.097666
C31	C	1.193297	-0.189405	-0.000060
C32	C	1.223576	-0.060489	0.097685
C33	C	1.263915	-0.084518	-0.097668
C34	C	1.290747	-0.122540	0.000007
C35	C	1.198815	0.071799	-0.000038
C36	C	1.191288	-0.284874	-0.000061
C37	C	1.380006	0.430430	-0.000057
C38	C	1.492312	0.458259	-0.000068
C39	C	1.187677	0.545307	-0.000062
C40	C	1.189681	0.639019	-0.000071
N41	N	1.136871	0.428165	0.281801
N42	N	1.253235	0.358748	-0.281899
C43	C	1.334885	0.310017	0.655758
C44	C	1.360606	0.294667	0.531097
C45	C	1.304674	0.328040	0.468767
C46	C	1.223018	0.376766	0.531110
C47	C	1.197300	0.392123	0.655783
C48	C	1.167089	0.410146	0.468792
C49	C	1.085432	0.458872	0.531135
C50	C	1.059718	0.474226	0.655795
C51	C	1.115650	0.440854	0.718126
C52	C	1.192807	0.394789	0.344119
C53	C	1.055221	0.476895	0.344144
C54	C	1.029500	0.492245	0.468805
H55	H	0.480236	0.594401	-0.000097
F56	F	0.681851	0.663554	-0.000109
F57	F	0.993639	-0.071588	0.000073
H58	H	1.247689	-0.020727	0.180333
H59	H	0.718410	0.145057	-0.000019
F60	F	1.447507	0.242813	0.464752
F61	F	0.972822	0.526096	0.722146
F62	F	1.049998	-0.154113	0.205512
F63	F	1.396530	-0.141223	0.000072
F64	F	0.942597	0.544102	0.535168
F65	F	0.995694	0.512419	0.277813
H66	H	0.866112	0.459956	-0.000061
F67	F	1.088271	0.457187	0.850806
H68	H	0.789268	0.531858	-0.000082
H69	H	0.430494	0.289550	-0.000042
F70	F	0.926064	0.177336	-0.000026
F71	F	0.537920	0.157835	-0.000051
H72	H	1.322133	-0.064960	-0.180231
H73	H	1.142292	-0.192437	-0.180228
F74	F	1.332049	0.311701	0.336092
F75	F	1.279708	0.342933	0.277784
H76	H	1.380423	0.282855	0.706515
