data_functionalizedCrystal
_audit_creation_method	'MofGen! by Chris Wilmer'
_symmetry_space_group_name_H-M	'P1'
_symmetry_Int_Tables_number	1
_symmetry_cell_setting	triclinic
loop_
_symmetry_equiv_pos_as_xyz
  x,y,z
_cell_length_a	12.759401
_cell_length_b	12.759399
_cell_length_c	12.759393
_cell_angle_alpha	90.030906
_cell_angle_beta	90.020566
_cell_angle_gamma	90.013324
loop_
_atom_site_label
_atom_site_type_symbol
_atom_site_fract_x
_atom_site_fract_y
_atom_site_fract_z
Zn1	Zn	-1.606263	0.418266	-0.594007
Zn2	Zn	-1.606153	0.593981	-0.418326
Zn3	Zn	-1.430562	0.418311	-0.418343
Zn4	Zn	-1.430553	0.593898	-0.593964
O5	O	-1.518383	0.506114	-0.506160
O6	O	-1.753270	0.441591	-0.570713
O7	O	-1.582818	0.570732	-0.271307
O8	O	-1.453919	0.271284	-0.441670
O9	O	-1.753189	0.570688	-0.441641
O10	O	-1.583006	0.271251	-0.570730
O11	O	-1.453812	0.441669	-0.271320
O12	O	-1.283540	0.441587	-0.441629
O13	O	-1.453903	0.570546	-0.740991
O14	O	-1.283533	0.570590	-0.570657
O15	O	-1.582997	0.441510	-0.741022
O16	O	-1.582809	0.740991	-0.441599
O17	O	-1.453796	0.740930	-0.570640
C18	C	-1.245415	0.506085	-0.506141
C19	C	-1.128639	0.506098	-0.506157
C20	C	-1.518318	0.779081	-0.506136
C21	C	-1.518387	0.895858	-0.506161
C22	C	-1.518461	0.506013	-0.780193
C23	C	-1.518495	0.505970	-0.896970
C24	C	-1.073820	0.438997	-0.573468
C25	C	-0.964096	0.439003	-0.573473
C26	C	-0.964020	0.573222	-0.438854
C27	C	-1.073742	0.573210	-0.438845
C28	C	-0.792416	0.506134	-0.506176
C29	C	-0.909193	0.506117	-0.506172
C30	C	-1.518476	0.232081	-0.506207
C31	C	-1.518516	0.115304	-0.506227
C32	C	-1.585641	0.950717	-0.439046
C33	C	-1.585708	1.060441	-0.439081
C34	C	-1.451259	1.060437	-0.573349
C35	C	-1.451198	0.950715	-0.573319
C36	C	-1.585719	0.438770	-0.951850
C37	C	-1.585737	0.438725	-1.061574
C38	C	-1.451303	0.573088	-1.061529
C39	C	-1.451281	0.573128	-0.951806
C40	C	-1.518365	0.506139	-0.233192
C41	C	-1.518535	0.505886	-0.116416
H42	H	-1.118514	0.384347	-0.628275
H43	H	-1.640476	0.384003	-1.106253
C44	C	-0.975199	0.306346	-0.706547
C45	C	-0.903838	0.365248	-0.647469
H46	H	-0.937997	0.260816	-0.752234
H47	H	-1.017978	0.266099	-0.660841
H48	H	-1.018008	0.352181	-0.746645
H49	H	-0.861035	0.319414	-0.607364
H50	H	-0.861042	0.405498	-0.693180
C51	C	-1.400065	0.750972	-1.095265
C52	C	-1.377432	0.646914	-1.121807
H53	H	-1.354455	0.796549	-1.132474
H54	H	-1.470645	0.766342	-1.113259
H55	H	-1.390427	0.760597	-1.022062
H56	H	-1.387078	0.637287	-1.195009
H57	H	-1.306835	0.631539	-1.103821
H58	H	-1.640352	0.906055	-0.384363
H59	H	-1.118377	0.627853	-0.384027
H60	H	-0.919309	0.627863	-0.384052
H61	H	-1.396432	0.906046	-0.627977
C62	C	-1.391645	1.228633	-0.633006
C63	C	-1.377396	1.120741	-0.647156
H64	H	-1.346036	1.265858	-0.678566
H65	H	-1.462228	1.246543	-0.648453
H66	H	-1.376315	1.246671	-0.562402
H67	H	-1.392733	1.102702	-0.717758
H68	H	-1.306797	1.102823	-0.631715
H69	H	-1.396532	0.627849	-0.907122
H70	H	-1.640474	1.105102	-0.384430
H71	H	-1.640446	0.384083	-0.907205
