data_functionalizedCrystal
_audit_creation_method	'MofGen! by Chris Wilmer'
_symmetry_space_group_name_H-M	'P1'
_symmetry_Int_Tables_number	1
_symmetry_cell_setting	triclinic
loop_
_symmetry_equiv_pos_as_xyz
  x,y,z
_cell_length_a	17.077404
_cell_length_b	16.625546
_cell_length_c	17.077396
_cell_angle_alpha	89.969785
_cell_angle_beta	89.980499
_cell_angle_gamma	90.022693
loop_
_atom_site_label
_atom_site_type_symbol
_atom_site_fract_x
_atom_site_fract_y
_atom_site_fract_z
Zn1	Zn	1.200057	-0.320997	-0.443833
Zn2	Zn	1.700057	0.179003	0.056167
Zn3	Zn	1.199965	-0.455839	-0.312563
Zn4	Zn	1.699965	0.044161	0.187437
Zn5	Zn	1.068789	-0.321025	-0.312581
Zn6	Zn	1.568789	0.178975	0.187419
Zn7	Zn	1.068758	-0.455792	-0.443787
Zn8	Zn	1.568758	0.044208	0.056213
O9	O	1.134392	-0.388413	-0.378191
O10	O	1.634392	0.111587	0.121809
O11	O	1.309892	-0.338892	-0.426432
O12	O	1.809892	0.161108	0.073568
O13	O	1.182539	-0.437988	-0.202719
O14	O	1.682539	0.062012	0.297281
O15	O	1.086253	-0.208189	-0.330019
O16	O	1.586253	0.291811	0.169981
O17	O	1.309824	-0.437960	-0.329988
O18	O	1.809824	0.062040	0.170012
O19	O	1.182695	-0.208168	-0.426449
O20	O	1.682695	0.291832	0.073551
O21	O	1.086164	-0.338940	-0.202732
O22	O	1.586164	0.161060	0.297268
O23	O	0.958938	-0.338894	-0.329974
O24	O	1.458938	0.161106	0.170026
O25	O	1.086200	-0.437879	-0.553640
O26	O	1.586200	0.062121	-0.053640
O27	O	0.958915	-0.437906	-0.426370
O28	O	1.458915	0.062094	0.073630
O29	O	1.182665	-0.338846	-0.553674
O30	O	1.682665	0.161154	-0.053674
O31	O	1.182509	-0.568666	-0.329943
O32	O	1.682509	-0.068666	0.170057
O33	O	1.086111	-0.568630	-0.426353
O34	O	1.586111	-0.068630	0.073647
C35	C	0.930444	-0.388399	-0.378169
C36	C	1.430444	0.111601	0.121831
C37	C	0.843194	-0.388412	-0.378179
C38	C	1.343194	0.111588	0.121821
C39	C	0.802213	-0.440045	-0.428292
C40	C	1.302213	0.059955	0.071708
C41	C	0.720232	-0.440047	-0.428304
C42	C	1.220232	0.059953	0.071696
C43	C	0.679235	-0.388419	-0.378199
C44	C	1.179235	0.111581	0.121801
C45	C	0.720222	-0.336780	-0.328084
C46	C	1.220222	0.163220	0.171916
C47	C	0.802201	-0.336774	-0.328076
C48	C	1.302201	0.163226	0.171924
C49	C	0.549352	-0.336795	-0.328103
C50	C	1.049352	0.163205	0.171897
C51	C	0.467368	-0.336801	-0.328110
C52	C	0.967368	0.163199	0.171890
C53	C	0.467383	-0.440068	-0.428331
C54	C	0.967383	0.059932	0.071669
C55	C	0.549362	-0.440063	-0.428323
C56	C	1.049362	0.059937	0.071677
C57	C	0.590344	-0.388425	-0.378207
C58	C	1.090344	0.111575	0.121793
C59	C	1.134318	-0.597904	-0.378158
C60	C	1.634318	-0.097904	0.121842
C61	C	1.134358	-0.687525	-0.378170
C62	C	1.634358	-0.187525	0.121830
C63	C	1.134495	-1.015701	-0.378252
C64	C	1.634495	-0.515701	0.121748
C65	C	1.134454	-0.924392	-0.378232
C66	C	1.634454	-0.424392	0.121768
C67	C	1.134426	-0.851616	-0.378211
C68	C	1.634426	-0.351616	0.121789
C69	C	1.134386	-0.760302	-0.378191
C70	C	1.634386	-0.260302	0.121809
C71	C	1.339136	-0.388428	-0.378213
C72	C	1.839136	0.111572	0.121787
C73	C	1.426386	-0.388435	-0.378223
C74	C	1.926386	0.111565	0.121777
C75	C	1.134440	-0.388354	-0.582936
C76	C	1.634440	0.111646	-0.082936
C77	C	1.134460	-0.388329	-0.670185
C78	C	1.634460	0.111671	-0.170185
C79	C	1.134488	-0.178104	-0.378241
C80	C	1.634488	0.321896	0.121759
C81	C	1.134529	-0.088483	-0.378263
C82	C	1.634529	0.411517	0.121737
C83	C	1.184691	-0.336758	-0.711195
C84	C	1.684691	0.163242	-0.211195
C85	C	1.184700	-0.336731	-0.793175
C86	C	1.684700	0.163269	-0.293175
C87	C	1.134482	-0.388280	-0.834145
C88	C	1.634482	0.111720	-0.334145
C89	C	1.084245	-0.439853	-0.793130
C90	C	1.584245	0.060147	-0.293130
C91	C	1.084233	-0.439875	-0.711151
C92	C	1.584233	0.060125	-0.211151
C93	C	1.084277	-0.439804	-0.964000
C94	C	1.584277	0.060196	-0.464000
C95	C	1.084291	-0.439783	-1.045985
C96	C	1.584291	0.060217	-0.545985
C97	C	1.184745	-0.336660	-1.046024
C98	C	1.684745	0.163340	-0.546024
C99	C	1.184732	-0.336682	-0.964045
C100	C	1.684732	0.163318	-0.464045
C101	C	1.134496	-0.388257	-0.923036
C102	C	1.634496	0.111743	-0.423036
C103	C	1.134390	-0.388414	-0.174243
C104	C	1.634390	0.111586	0.325757
C105	C	1.134522	-0.388212	-0.086994
C106	C	1.634522	0.111788	0.413006
H107	H	0.433990	-0.294752	-0.287319
H108	H	0.933990	0.205248	0.212681
H109	H	1.225647	-0.294665	-1.079418
H110	H	1.725647	0.205335	-0.579418
H111	H	1.043354	-0.481822	-0.826494
H112	H	1.543354	0.018178	-0.326494
O113	O	1.035458	-0.489736	-1.085866
O114	O	1.535458	0.010264	-0.585866
C115	C	0.929446	-0.500514	-1.178357
C116	C	1.429446	-0.000514	-0.678357
C117	C	0.984718	-0.443856	-1.133258
C118	C	1.484718	0.056144	-0.633258
H119	H	0.888397	-0.463442	-1.216672
H120	H	1.388397	0.036558	-0.716672
H121	H	0.965414	-0.542664	-1.216789
H122	H	1.465414	-0.042664	-0.716789
H123	H	0.893571	-0.537386	-1.134945
H124	H	1.393571	-0.037386	-0.634945
H125	H	1.020605	-0.406932	-1.176613
H126	H	1.520605	0.093068	-0.676613
H127	H	0.948704	-0.401759	-1.094814
H128	H	1.448704	0.098241	-0.594814
H129	H	1.225605	-0.294739	-0.826561
H130	H	1.725605	0.205261	-0.326561
H131	H	1.225629	-0.294711	-0.930690
H132	H	1.725629	0.205289	-0.430690
O133	O	0.680521	-0.286551	-0.279386
O134	O	1.180521	0.213449	0.220614
C135	C	0.689165	-0.184163	-0.179943
C136	C	1.189165	0.315837	0.320057
C137	C	0.734221	-0.240990	-0.235070
C138	C	1.234221	0.259010	0.264930
H139	H	0.732561	-0.147323	-0.144087
H140	H	1.232561	0.352677	0.355913
H141	H	0.650833	-0.141998	-0.216020
H142	H	1.150833	0.358002	0.283980
H143	H	0.650735	-0.221145	-0.138870
H144	H	1.150735	0.278855	0.361130
H145	H	0.772693	-0.204072	-0.276154
H146	H	1.272693	0.295928	0.223846
H147	H	0.772503	-0.283157	-0.198944
H148	H	1.272503	0.216843	0.301056
H149	H	0.686869	-0.482093	-0.469111
H150	H	1.186869	0.017907	0.030889
H151	H	1.043321	-0.481861	-0.677762
H152	H	1.543321	0.018139	-0.177762
O153	O	1.035466	-0.489993	-0.924284
O154	O	1.535466	0.010007	-0.424284
C155	C	0.935833	-0.592276	-0.932891
C156	C	1.435833	-0.092276	-0.432891
C157	C	0.991070	-0.535483	-0.977967
C158	C	1.491070	-0.035483	-0.477967
H159	H	0.899912	-0.629058	-0.976275
H160	H	1.399912	-0.129058	-0.476275
H161	H	0.971828	-0.634496	-0.894538
H162	H	1.471828	-0.134496	-0.394538
H163	H	0.894826	-0.555271	-0.894481
H164	H	1.394826	-0.055271	-0.394481
H165	H	1.032088	-0.572423	-1.016420
H166	H	1.532088	-0.072423	-0.516420
H167	H	0.955025	-0.493260	-1.016271
H168	H	1.455025	0.006740	-0.516271
H169	H	0.835587	-0.482090	-0.469091
H170	H	1.335587	0.017910	0.030909
O171	O	0.842101	-0.286733	-0.279356
O172	O	1.342101	0.213267	0.220644
C173	C	0.934583	-0.275744	-0.173357
C174	C	1.434583	0.224256	0.326643
C175	C	0.889460	-0.332510	-0.228494
C176	C	1.389460	0.167490	0.271506
H177	H	0.972871	-0.312734	-0.132211
H178	H	1.472871	0.187266	0.367789
H179	H	0.973045	-0.233642	-0.209425
H180	H	1.473045	0.266358	0.290575
H181	H	0.891188	-0.238827	-0.137581
H182	H	1.391188	0.261173	0.362419
H183	H	0.932798	-0.369481	-0.264282
H184	H	1.432798	0.130519	0.235718
H185	H	0.850986	-0.374559	-0.192381
H186	H	1.350986	0.125441	0.307619
O187	O	0.589273	-0.490101	-0.477035
O188	O	1.089273	0.009899	0.022965
C189	C	0.681838	-0.501069	-0.583018
C190	C	1.181838	-0.001069	-0.083018
C191	C	0.636703	-0.444313	-0.527886
C192	C	1.136703	0.055687	-0.027886
H193	H	0.720184	-0.464072	-0.624157
H194	H	1.220184	0.035928	-0.124157
H195	H	0.720244	-0.543167	-0.546946
H196	H	1.220244	-0.043167	-0.046946
H197	H	0.638451	-0.537992	-0.618804
H198	H	1.138451	-0.037992	-0.118804
H199	H	0.680034	-0.407338	-0.492089
H200	H	1.180034	0.092662	0.007911
H201	H	0.598286	-0.402269	-0.564004
H202	H	1.098286	0.097731	-0.064004
O203	O	0.427457	-0.490151	-0.476994
O204	O	0.927457	0.009849	0.023006
C205	C	0.301171	-0.535959	-0.521396
C206	C	0.801171	-0.035959	-0.021396
C207	C	0.346293	-0.479186	-0.466266
C208	C	0.846293	0.020814	0.033734
H209	H	0.235542	-0.527126	-0.512730
H210	H	0.735542	-0.027126	-0.012730
H211	H	0.317267	-0.521884	-0.584733
H212	H	0.817267	-0.021884	-0.084733
H213	H	0.317307	-0.600947	-0.507501
H214	H	0.817307	-0.100947	-0.007501
H215	H	0.330181	-0.414179	-0.480091
H216	H	0.830181	0.085821	0.019909
H217	H	0.330193	-0.493331	-0.402946
H218	H	0.830193	0.006669	0.097054
H219	H	1.225587	-0.294783	-0.677843
H220	H	1.725587	0.205217	-0.177843
H221	H	0.582717	-0.294739	-0.287300
H222	H	1.082717	0.205261	0.212700
