data_functionalizedCrystal
_audit_creation_method	'MofGen! by Chris Wilmer'
_symmetry_space_group_name_H-M	'P1'
_symmetry_Int_Tables_number	1
_symmetry_cell_setting	triclinic
loop_
_symmetry_equiv_pos_as_xyz
  x,y,z
_cell_length_a	15.944551
_cell_length_b	12.996460
_cell_length_c	14.519709
_cell_angle_alpha	90.007090
_cell_angle_beta	96.410558
_cell_angle_gamma	89.998907
loop_
_atom_site_label
_atom_site_type_symbol
_atom_site_fract_x
_atom_site_fract_y
_atom_site_fract_z
O1	O	1.114698	-0.085462	-0.118943
O2	O	0.870170	-0.085488	-0.133608
O3	O	0.998917	-0.085465	0.007974
O4	O	0.985950	-0.085485	-0.260525
O5	O	0.998904	0.085669	0.007982
O6	O	0.870156	0.085646	-0.133600
O7	O	1.114684	0.085672	-0.118935
Cu8	Cu	0.992419	0.101285	-0.126267
Cu9	Cu	0.992435	-0.101101	-0.126276
O10	O	0.985937	0.085649	-0.260517
C11	C	0.838868	0.000076	-0.132995
C12	C	0.745619	0.000066	-0.131170
C13	C	0.998306	0.000102	0.042337
C14	C	0.996495	0.000103	0.144715
C15	C	0.530629	0.000093	-0.039048
C16	C	0.469678	-0.084288	-0.081830
C17	C	0.574889	0.000079	-0.127868
C18	C	0.469687	0.084437	-0.081844
C19	C	0.409971	0.000095	-0.124672
C20	C	0.515165	-0.084372	-0.170674
C21	C	0.515181	0.084428	-0.170675
C22	C	0.454247	0.000027	-0.213522
C23	C	0.669894	0.000069	-0.129706
C24	C	0.314967	0.000098	-0.122840
C25	C	1.145986	0.000106	-0.119548
C26	C	1.239235	0.000109	-0.121373
N27	N	0.992414	0.243632	-0.126260
N28	N	0.992447	-0.243448	-0.126276
C29	C	0.992434	0.663446	-0.126277
C30	C	0.992426	0.546641	-0.126275
C31	C	0.992424	0.453543	-0.126269
C32	C	0.992415	0.336730	-0.126266
C33	C	0.986548	0.000080	-0.294880
C34	C	0.988359	0.000073	-0.397258
C35	C	0.989829	0.000075	0.519599
C36	C	0.991680	0.000083	0.415295
C37	C	0.993162	0.000090	0.332161
C38	C	0.995013	0.000096	0.227849
H39	H	0.449518	-0.155621	-0.044266
C40	C	0.409582	-0.000050	-0.313199
C41	C	0.461996	-0.000966	-0.396082
C42	C	0.417327	-0.001053	-0.495756
C43	C	0.320245	-0.000226	-0.512548
C44	C	0.267826	0.000690	-0.429663
C45	C	0.312494	0.000777	-0.329988
H46	H	0.533867	-0.001578	-0.383654
H47	H	0.456132	-0.001731	-0.557113
H48	H	0.287179	-0.000291	-0.586333
H49	H	0.195954	0.001302	-0.442091
H50	H	0.273690	0.001455	-0.268631
H51	H	0.535213	-0.155788	-0.208217
C52	C	0.575487	-0.000007	0.060545
C53	C	0.560020	0.088329	0.127299
C54	C	0.604879	0.088223	0.226889
C55	C	0.665205	-0.000220	0.259725
C56	C	0.680675	-0.088563	0.192969
C57	C	0.635816	-0.088456	0.093379
H58	H	0.515361	0.153805	0.102993
H59	H	0.593427	0.153620	0.276306
H60	H	0.698412	-0.000298	0.333447
H61	H	0.725334	-0.154039	0.217275
H62	H	0.647268	-0.153854	0.043963
H63	H	0.535361	0.155765	-0.208208
H64	H	0.449540	0.155772	-0.044257
