data_functionalizedCrystal
_audit_creation_method	'MofGen! by Chris Wilmer'
_symmetry_space_group_name_H-M	'P1'
_symmetry_Int_Tables_number	1
_symmetry_cell_setting	triclinic
loop_
_symmetry_equiv_pos_as_xyz
  x,y,z
_cell_length_a	17.640280
_cell_length_b	17.077404
_cell_length_c	17.077396
_cell_angle_alpha	90.019501
_cell_angle_beta	78.774396
_cell_angle_gamma	101.199462
loop_
_atom_site_label
_atom_site_type_symbol
_atom_site_fract_x
_atom_site_fract_y
_atom_site_fract_z
Zn1	Zn	-0.314659	-1.263288	-0.380745
Zn2	Zn	-0.446839	-1.289758	-0.222973
Zn3	Zn	-0.314687	-1.132026	-0.249487
Zn4	Zn	-0.446792	-1.158541	-0.354206
O5	O	-0.380744	-1.210903	-0.301853
O6	O	-0.332201	-1.376648	-0.359827
O7	O	-0.429340	-1.268815	-0.116637
O8	O	-0.204078	-1.127263	-0.289102
O9	O	-0.429313	-1.396095	-0.243912
O10	O	-0.204058	-1.223701	-0.385536
O11	O	-0.332248	-1.152930	-0.136117
O12	O	-0.332203	-1.025694	-0.263368
O13	O	-0.429233	-1.172456	-0.467580
O14	O	-0.429260	-1.045176	-0.340305
O15	O	-0.332155	-1.249413	-0.487078
O16	O	-0.557437	-1.294527	-0.218179
O17	O	-0.557403	-1.198122	-0.314595
C18	C	-0.380730	-1.006953	-0.301834
C19	C	-0.380743	-0.919705	-0.301841
C20	C	-0.586099	-1.252095	-0.260647
C21	C	-0.673950	-1.269789	-0.243045
C22	C	-0.380686	-1.210939	-0.506609
C23	C	-0.380661	-1.210954	-0.593864
C24	C	-0.962931	-1.076806	-0.435857
C25	C	-1.045481	-1.093434	-0.419293
C26	C	-1.045451	-1.193882	-0.318996
C27	C	-0.962900	-1.177265	-0.335555
C28	C	-0.921646	-1.118726	-0.393986
C29	C	-0.921615	-1.219185	-0.293683
C30	C	-0.839070	-1.202567	-0.310238
C31	C	-0.797811	-1.144029	-0.368665
C32	C	-0.839101	-1.102108	-0.410541
C33	C	-0.962870	-1.277721	-0.235249
C34	C	-0.921585	-1.319640	-0.193377
C35	C	-0.839039	-1.303026	-0.209936
C36	C	-0.797780	-1.244488	-0.268362
C37	C	-0.797748	-1.344947	-0.168060
C38	C	-0.715204	-1.328329	-0.184615
C39	C	-0.715235	-1.227870	-0.284917
C40	C	-0.174588	-1.169572	-0.343237
C41	C	-0.086736	-1.151959	-0.360872
C42	C	-0.380759	-1.415651	-0.301872
C43	C	-0.380765	-1.502902	-0.301880
C44	C	-0.431357	-0.888895	-0.341806
C45	C	-0.431359	-0.806915	-0.341818
C46	C	-0.380750	-0.755747	-0.301860
C47	C	-0.330130	-0.786562	-0.261894
C48	C	-0.330125	-0.868540	-0.261887
C49	C	-0.330146	-0.615696	-0.261910
C50	C	-0.330151	-0.533712	-0.261915
C51	C	-0.431379	-0.554070	-0.341841
C52	C	-0.431374	-0.636048	-0.341834
C53	C	-0.380755	-0.666858	-0.301866
C54	C	-0.330109	-1.251027	-0.645009
C55	C	-0.330082	-1.251031	-0.726995
C56	C	-0.380613	-1.210967	-0.757833
C57	C	-0.431168	-1.170889	-0.706682
C58	C	-0.431190	-1.170881	-0.624699
C59	C	-0.431120	-1.170911	-0.877562
C60	C	-0.431100	-1.170921	-0.959550
C61	C	-0.330013	-1.251062	-0.979858
C62	C	-0.330035	-1.251053	-0.897874
C63	C	-0.380591	-1.210977	-0.846729
C64	C	-0.380745	-1.210901	-0.097905
C65	C	-0.380547	-1.210993	-0.010695
H66	H	-0.681645	-1.180207	-0.332503
H67	H	-0.472245	-1.138295	-0.984656
C68	C	-0.669788	-1.374449	-0.138560
N69	N	-0.635581	-1.409189	-0.103871
H70	H	-0.730598	-1.130494	-0.382137
H71	H	-0.288919	-1.283664	-0.768634
H72	H	-0.472589	-0.677708	-0.374366
H73	H	-0.288932	-0.492051	-0.229389
H74	H	-0.472347	-1.138240	-0.583058
H75	H	-1.030083	-1.291251	-0.221774
C76	C	-0.487032	-0.945173	-0.385763
N77	N	-0.528966	-0.987559	-0.418876
C78	C	-0.274447	-0.902431	-0.217920
N79	N	-0.232508	-0.927956	-0.184805
H80	H	-0.472593	-0.528981	-0.374387
H81	H	-0.472574	-0.781834	-0.374361
H82	H	-0.288963	-1.283655	-0.619907
C83	C	-0.274457	-0.730275	-0.217942
N84	N	-0.232526	-0.687880	-0.184834
C85	C	-0.274446	-1.295123	-0.863954
N86	N	-0.232573	-1.328314	-0.838407
H87	H	-0.955185	-1.367301	-0.145800
C88	C	-0.793718	-1.037701	-0.474807
N89	N	-0.759535	-0.989185	-0.523205
C90	C	-1.090891	-1.047318	-0.465364
N91	N	-1.125094	-1.012584	-0.500064
C92	C	-0.486738	-1.126828	-0.821302
N93	N	-0.528632	-1.093630	-0.778927
H94	H	-0.929340	-1.029143	-0.483444
C95	C	-0.274400	-1.295146	-1.036119
N96	N	-0.232516	-1.328351	-1.078499
H97	H	-0.831350	-1.392604	-0.120480
H98	H	-0.472308	-1.138265	-0.731798
C99	C	-1.090840	-1.258270	-0.254721
N100	N	-1.125025	-1.306770	-0.206308
H101	H	-0.288919	-0.640776	-0.229372
