data_functionalizedCrystal
_audit_creation_method	'MofGen! by Chris Wilmer'
_symmetry_space_group_name_H-M	'P1'
_symmetry_Int_Tables_number	1
_symmetry_cell_setting	triclinic
loop_
_symmetry_equiv_pos_as_xyz
  x,y,z
_cell_length_a	19.121241
_cell_length_b	25.639240
_cell_length_c	25.639234
_cell_angle_alpha	89.967912
_cell_angle_beta	87.535611
_cell_angle_gamma	92.466620
loop_
_atom_site_label
_atom_site_type_symbol
_atom_site_fract_x
_atom_site_fract_y
_atom_site_fract_z
Zn1	Zn	1.073731	-0.174158	-0.329758
Zn2	Zn	1.573731	0.325842	0.170242
Zn3	Zn	1.073626	-0.261589	-0.242308
Zn4	Zn	1.573626	0.238411	0.257692
Zn5	Zn	0.956274	-0.177888	-0.238598
Zn6	Zn	1.456274	0.322112	0.261402
Zn7	Zn	0.956228	-0.265287	-0.325976
Zn8	Zn	1.456228	0.234713	0.174024
O9	O	1.014965	-0.219731	-0.284160
O10	O	1.514965	0.280269	0.215840
O11	O	1.172005	-0.182647	-0.321292
O12	O	1.672005	0.317353	0.178708
O13	O	1.058034	-0.250500	-0.168649
O14	O	1.558034	0.249500	0.331351
O15	O	0.971919	-0.104226	-0.250721
O16	O	1.471919	0.395774	0.249279
O17	O	1.171928	-0.246882	-0.257043
O18	O	1.671928	0.253118	0.242957
O19	O	1.058214	-0.101485	-0.317695
O20	O	1.558214	0.398515	0.182305
O21	O	0.971817	-0.189005	-0.165924
O22	O	1.471817	0.310995	0.334076
O23	O	0.857980	-0.192591	-0.247053
O24	O	1.357980	0.307409	0.252947
O25	O	0.971839	-0.253185	-0.399643
O26	O	1.471839	0.246815	0.100357
O27	O	0.857946	-0.256803	-0.311249
O28	O	1.357946	0.243197	0.188751
O29	O	1.058169	-0.186233	-0.402422
O30	O	1.558169	0.313767	0.097578
O31	O	1.057989	-0.335247	-0.253376
O32	O	1.557989	0.164753	0.246624
O33	O	0.971737	-0.337964	-0.314847
O34	O	1.471737	0.162036	0.185153
C35	C	0.832478	-0.225503	-0.278339
C36	C	1.332478	0.274497	0.221661
C37	C	0.754410	-0.227985	-0.275861
C38	C	1.254410	0.272015	0.224139
C39	C	0.717774	-0.195761	-0.308199
C40	C	1.217774	0.304239	0.191801
C41	C	0.644420	-0.198090	-0.305866
C42	C	1.144420	0.301910	0.194134
C43	C	0.607704	-0.232648	-0.271198
C44	C	1.107704	0.267352	0.228802
C45	C	0.644345	-0.264874	-0.238856
C46	C	1.144345	0.235126	0.261144
C47	C	0.717697	-0.262541	-0.241187
C48	C	1.217697	0.237459	0.258813
C49	C	0.386225	-0.241360	-0.262483
C50	C	0.886225	0.258640	0.237517
C51	C	0.312868	-0.243691	-0.260156
C52	C	0.812868	0.256309	0.239844
C53	C	0.312949	-0.176906	-0.327166
C54	C	0.812949	0.323094	0.172834
C55	C	0.386302	-0.174579	-0.329495
C56	C	0.886302	0.325421	0.170505
C57	C	0.422937	-0.206803	-0.297152
C58	C	0.922937	0.293197	0.202848
C59	C	0.532725	-0.235031	-0.268814
C60	C	1.032725	0.264969	0.231186
C61	C	0.497915	-0.204417	-0.299533
C62	C	0.997915	0.295583	0.200467
C63	C	1.014866	-0.355576	-0.284115
C64	C	1.514866	0.144424	0.215885
C65	C	1.014887	-0.413690	-0.284116
C66	C	1.514887	0.086310	0.215884
C67	C	1.059921	-0.772584	-0.319094
C68	C	1.559921	-0.272584	0.180906
C69	C	1.059942	-0.827187	-0.319106
C70	C	1.559942	-0.327187	0.180894
O71	O	1.098113	-0.854179	-0.348800
O72	O	1.598113	-0.354179	0.151200
N73	N	1.015062	-0.855966	-0.284213
N74	N	1.515062	-0.355966	0.215787
C75	C	0.970154	-0.830139	-0.249311
C76	C	1.470154	-0.330139	0.250689
O77	O	0.931982	-0.859632	-0.219634
O78	O	1.431982	-0.359632	0.280366
C79	C	0.970130	-0.775537	-0.249303
C80	C	1.470130	-0.275537	0.250697
C81	C	1.015018	-0.746760	-0.284194
C82	C	1.515018	-0.246760	0.215806
C83	C	1.104804	-0.743807	-0.353983
C84	C	1.604804	-0.243807	0.146017
C85	C	1.104784	-0.689208	-0.353971
C86	C	1.604784	-0.189208	0.146029
C87	C	1.059881	-0.663384	-0.319070
C88	C	1.559881	-0.163384	0.180930
C89	C	1.014998	-0.692160	-0.284182
C90	C	1.514998	-0.192160	0.215818
C91	C	0.925219	-0.749711	-0.214403
C92	C	1.425219	-0.249711	0.285597
C93	C	0.925199	-0.695104	-0.214398
C94	C	1.425199	-0.195104	0.285602
C95	C	0.970086	-0.666328	-0.249289
C96	C	1.470086	-0.166328	0.250711
C97	C	0.970075	-0.611737	-0.249269
C98	C	1.470075	-0.111737	0.250731
N99	N	1.014954	-0.582958	-0.284161
N100	N	1.514954	-0.082958	0.215839
C101	C	1.059857	-0.608781	-0.319062
C102	C	1.559857	-0.108781	0.180938
C103	C	0.970207	-0.944808	-0.249332
C104	C	1.470207	-0.444808	0.250668
C105	C	0.970233	-0.999410	-0.249337
C106	C	1.470233	-0.499410	0.250663
C107	C	1.060020	-0.996454	-0.319133
C108	C	1.560020	-0.496454	0.180867
C109	C	1.059996	-0.941852	-0.319124
C110	C	1.559996	-0.441852	0.180876
C111	C	1.015086	-0.916029	-0.284224
C112	C	1.515086	-0.416029	0.215776
C113	C	1.059812	-0.494118	-0.319034
C114	C	1.559812	0.005882	0.180966
C115	C	1.059790	-0.439513	-0.319017
C116	C	1.559790	0.060487	0.180983
C117	C	0.970001	-0.442474	-0.249223
C118	C	1.470001	0.057526	0.250777
C119	C	0.970026	-0.497073	-0.249238
C120	C	1.470026	0.002927	0.250762
C121	C	1.014933	-0.522894	-0.284147
C122	C	1.514933	-0.022894	0.215853
O123	O	0.931921	-0.584710	-0.219591
O124	O	1.431921	-0.084710	0.280409
O125	O	1.098016	-0.579283	-0.348739
O126	O	1.598016	-0.079283	0.151261
C127	C	1.198164	-0.213936	-0.290004
C128	C	1.698164	0.286064	0.209996
C129	C	1.276232	-0.211466	-0.292494
C130	C	1.776232	0.288534	0.207506
C131	C	1.015010	-0.219705	-0.420534
C132	C	1.515010	0.280295	0.079466
C133	C	1.015030	-0.219694	-0.478649
C134	C	1.515030	0.280306	0.021351
C135	C	1.015084	-0.083354	-0.284216
C136	C	1.515084	0.416646	0.215784
C137	C	1.015134	-0.025238	-0.284240
C138	C	1.515134	0.474762	0.215760
C139	C	0.970156	-0.187611	-0.837599
C140	C	1.470156	0.312389	-0.337599
C141	C	0.970160	-0.187602	-0.892203
C142	C	1.470160	0.312398	-0.392203
O143	O	0.931971	-0.160382	-0.919238
O144	O	1.431971	0.339618	-0.419238
N145	N	1.015053	-0.219612	-0.920932
N146	N	1.515053	0.280388	-0.420932
C147	C	1.059941	-0.251637	-0.895054
C148	C	1.559941	0.248363	-0.395054
O149	O	1.098126	-0.278864	-0.924504
O150	O	1.598126	0.221136	-0.424504
C151	C	1.059933	-0.251649	-0.840450
C152	C	1.559933	0.248351	-0.340450
C153	C	1.015042	-0.219633	-0.811724
C154	C	1.515042	0.280367	-0.311724
C155	C	0.925268	-0.155598	-0.808873
C156	C	1.425268	0.344402	-0.308873
C157	C	0.925265	-0.155607	-0.754272
C158	C	1.425265	0.344393	-0.254272
C159	C	0.970151	-0.187629	-0.728398
C160	C	1.470151	0.312371	-0.228398
C161	C	1.015039	-0.219642	-0.757124
C162	C	1.515039	0.280358	-0.257124
C163	C	1.104816	-0.283677	-0.814572
C164	C	1.604816	0.216323	-0.314572
C165	C	1.104804	-0.283687	-0.759965
C166	C	1.604804	0.216313	-0.259965
C167	C	1.059913	-0.251671	-0.731239
C168	C	1.559913	0.248329	-0.231239
C169	C	1.059922	-0.251673	-0.676648
C170	C	1.559922	0.248327	-0.176648
N171	N	1.015028	-0.219663	-0.647919
N172	N	1.515028	0.280337	-0.147919
C173	C	0.970143	-0.187641	-0.673794
C174	C	1.470143	0.312359	-0.173794
C175	C	1.059953	-0.251610	-1.009725
C176	C	1.559953	0.248390	-0.509725
C177	C	1.059965	-0.251596	-1.064327
C178	C	1.559965	0.248404	-0.564327
C179	C	0.970183	-0.187561	-1.061473
C180	C	1.470183	0.312439	-0.561473
C181	C	0.970175	-0.187573	-1.006870
C182	C	1.470175	0.312427	-0.506870
C183	C	1.015060	-0.219600	-0.980996
C184	C	1.515060	0.280400	-0.480996
C185	C	0.970141	-0.187662	-0.559129
C186	C	1.470141	0.312338	-0.059129
C187	C	0.970144	-0.187672	-0.504524
C188	C	1.470144	0.312328	-0.004524
C189	C	1.059923	-0.251709	-0.507382
C190	C	1.559923	0.248291	-0.007382
C191	C	1.059923	-0.251697	-0.561983
C192	C	1.559923	0.248303	-0.061983
C193	C	1.015026	-0.219672	-0.587855
C194	C	1.515026	0.280328	-0.087855
O195	O	1.098089	-0.278881	-0.649579
O196	O	1.598089	0.221119	-0.149579
O197	O	0.931958	-0.160424	-0.644337
O198	O	1.431958	0.339576	-0.144337
C199	C	1.014960	-0.219717	-0.148317
C200	C	1.514960	0.280283	0.351683
C201	C	1.015076	-0.219576	-0.090207
C202	C	1.515076	0.280424	0.409793
H203	H	0.614595	-0.171851	-0.332200
H204	H	1.114595	0.328149	0.167800
N205	N	1.153232	-0.318215	-0.845543
N206	N	1.653232	0.181785	-0.345543
H207	H	1.124667	-0.343344	-0.867272
H208	H	1.624667	0.156656	-0.367272
H209	H	1.185801	-0.295904	-0.869220
H210	H	1.685801	0.204096	-0.369220
H211	H	0.502822	-0.263168	-0.240586
H212	H	1.002822	0.236832	0.259414
H213	H	1.141369	-0.764827	-0.382407
H214	H	1.641369	-0.264827	0.117593
H215	H	1.096346	-0.416085	-0.347429
H216	H	1.596346	0.083915	0.152571
N217	N	0.921824	-1.030446	-0.211703
N218	N	1.421824	-0.530446	0.288297
H219	H	0.950393	-1.052195	-0.188405
H220	H	1.450393	-0.552195	0.311595
H221	H	0.893387	-1.005764	-0.189628
H222	H	1.393387	-0.505764	0.310372
N223	N	1.108371	-0.286154	-0.981821
N224	N	1.608371	0.213846	-0.481821
H225	H	1.136809	-0.306427	-1.008310
H226	H	1.636809	0.193573	-0.508310
H227	H	1.140894	-0.263849	-0.960215
H228	H	1.640894	0.236151	-0.460215
H229	H	0.888625	-0.674082	-0.185978
H230	H	1.388625	-0.174082	0.314022
H231	H	0.416192	-0.146440	-0.357728
H232	H	0.916192	0.353560	0.142272
N233	N	1.108336	-0.286244	-0.479470
N234	N	1.608336	0.213756	0.020530
H235	H	1.101438	-0.281452	-0.440518
H236	H	1.601438	0.218548	0.059482
H237	H	1.097443	-0.323924	-0.488711
H238	H	1.597443	0.176076	0.011289
N239	N	0.273437	-0.142151	-0.362048
N240	N	0.773437	0.357849	0.137952
H241	H	0.221397	-0.148871	-0.355312
H242	H	0.721397	0.351129	0.144688
H243	H	0.286276	-0.104391	-0.354389
H244	H	0.786276	0.395609	0.145611
N245	N	1.153219	-0.318234	-0.732064
N246	N	1.653219	0.181766	-0.232064
H247	H	1.203410	-0.308524	-0.743181
H248	H	1.703410	0.191476	-0.243181
H249	H	1.146351	-0.313372	-0.693120
H250	H	1.646351	0.186628	-0.193120
N251	N	0.757373	-0.158491	-0.345595
N252	N	1.257373	0.341509	0.154405
H253	H	0.723031	-0.138430	-0.365726
H254	H	1.223031	0.361570	0.134274
H255	H	0.787810	-0.133297	-0.325327
H256	H	1.287810	0.366703	0.174673
H257	H	0.527812	-0.176278	-0.327758
H258	H	1.027812	0.323722	0.172242
N259	N	1.108349	-0.286220	-0.592970
N260	N	1.608349	0.213780	-0.092970
H261	H	1.136785	-0.306505	-0.568291
H262	H	1.636785	0.193495	-0.068291
H263	H	1.079739	-0.311320	-0.614697
H264	H	1.579739	0.188680	-0.114697
H265	H	1.096376	-0.515135	-0.347463
H266	H	1.596376	-0.015135	0.152537
H267	H	0.282975	-0.271835	-0.231924
H268	H	0.782975	0.228165	0.268076
N269	N	0.921566	-0.414614	-0.211588
N270	N	1.421566	0.085386	0.288412
H271	H	0.893131	-0.441126	-0.189485
H272	H	1.393131	0.058874	0.310515
H273	H	0.950162	-0.391050	-0.188317
H274	H	1.450162	0.108950	0.311683
N275	N	0.921718	-0.153139	-0.473547
N276	N	1.421718	0.346861	0.026453
H277	H	0.889147	-0.175418	-0.449839
H278	H	1.389147	0.324582	0.050161
H279	H	0.950328	-0.128012	-0.451850
H280	H	1.450328	0.371988	0.048150
N281	N	0.921717	-0.153123	-0.587029
N282	N	1.421717	0.346877	-0.087029
H283	H	0.893285	-0.132846	-0.560539
H284	H	1.393285	0.367154	-0.060539
H285	H	0.950328	-0.128016	-0.610610
H286	H	1.450328	0.371984	-0.110610
N287	N	0.876853	-0.121071	-0.723293
N288	N	1.376853	0.378929	-0.223293
H289	H	0.848425	-0.100785	-0.747978
H290	H	1.348425	0.399215	-0.247978
H291	H	0.844322	-0.143379	-0.699586
H292	H	1.344322	0.356621	-0.199586
N293	N	0.425733	-0.276112	-0.227598
N294	N	0.925733	0.223888	0.272402
H295	H	0.391341	-0.298358	-0.205285
H296	H	0.891341	0.201642	0.294715
H297	H	0.456169	-0.299371	-0.249797
H298	H	0.956169	0.200629	0.250203
H299	H	0.614444	-0.293009	-0.210626
H300	H	1.114444	0.206991	0.289374
N301	N	0.921771	-0.916958	-0.211683
N302	N	1.421771	-0.416958	0.288317
H303	H	0.893348	-0.943479	-0.189581
H304	H	1.393348	-0.443479	0.310419
H305	H	0.950370	-0.893397	-0.188412
H306	H	1.450370	-0.393397	0.311588
N307	N	1.108405	-0.910821	-0.356764
N308	N	1.608405	-0.410821	0.143236
H309	H	1.079834	-0.889076	-0.380063
H310	H	1.579834	-0.389076	0.119937
H311	H	1.140955	-0.887157	-0.336539
H312	H	1.640955	-0.387157	0.163461
N313	N	0.876850	-0.121059	-0.836775
N314	N	1.376850	0.378941	-0.336775
H315	H	0.848416	-0.100784	-0.810284
H316	H	1.348416	0.399216	-0.310284
H317	H	0.905463	-0.095950	-0.860353
H318	H	1.405463	0.404050	-0.360353
H319	H	0.747525	-0.288782	-0.214853
H320	H	1.247525	0.211218	0.285147
H321	H	1.141333	-0.665781	-0.382384
H322	H	1.641333	-0.165781	0.117616
H323	H	1.096581	-1.017490	-0.347552
H324	H	1.596581	-0.517490	0.152448
H325	H	0.888667	-0.773131	-0.185991
H326	H	1.388667	-0.273131	0.314009
N327	N	0.921622	-0.528114	-0.211601
N328	N	1.421622	-0.028114	0.288399
H329	H	0.893175	-0.503468	-0.189488
H330	H	1.393175	-0.003468	0.310512
H331	H	0.889107	-0.551802	-0.231832
H332	H	1.389107	-0.051802	0.268168
N333	N	0.921760	-0.153040	-0.975889
N334	N	1.421760	0.346960	-0.475889
H335	H	0.893332	-0.132752	-1.000571
H336	H	1.393332	0.367248	-0.500571
H337	H	0.889230	-0.175352	-0.952185
H338	H	1.389230	0.324648	-0.452185
H339	H	0.933634	-0.161487	-1.082550
H340	H	1.433634	0.338513	-0.582550
N341	N	1.108392	-0.286120	-1.095308
N342	N	1.608392	0.213880	-0.595308
H343	H	1.136824	-0.306405	-1.070626
H344	H	1.636824	0.193595	-0.570626
H345	H	1.079785	-0.311220	-1.117037
H346	H	1.579785	0.188780	-0.617037
