data_functionalizedCrystal
_audit_creation_method	'MofGen! by Chris Wilmer'
_symmetry_space_group_name_H-M	'P1'
_symmetry_Int_Tables_number	1
_symmetry_cell_setting	triclinic
loop_
_symmetry_equiv_pos_as_xyz
  x,y,z
_cell_length_a	8.559649
_cell_length_b	9.798715
_cell_length_c	8.559649
_cell_angle_alpha	89.999058
_cell_angle_beta	69.778664
_cell_angle_gamma	89.996248
loop_
_atom_site_label
_atom_site_type_symbol
_atom_site_fract_x
_atom_site_fract_y
_atom_site_fract_z
O1	O	2.126882	-0.113470	-0.055040
O2	O	2.626882	0.386530	0.444960
O3	O	1.651397	-0.113475	0.028741
O4	O	2.151397	0.386525	0.528741
O5	O	1.931030	-0.113470	-0.250892
O6	O	2.431030	0.386530	0.249108
O7	O	1.847249	-0.113474	0.224593
O8	O	2.347249	0.386526	0.724593
O9	O	1.931008	0.113512	-0.250887
O10	O	2.431008	0.613512	0.249113
O11	O	1.651375	0.113507	0.028746
O12	O	2.151375	0.613507	0.528746
O13	O	2.126860	0.113513	-0.055035
O14	O	2.626860	0.613513	0.444965
Zn15	Zn	1.889114	0.149548	-0.013144
Zn16	Zn	2.389114	0.649548	0.486856
Zn17	Zn	1.889143	-0.149511	-0.013150
Zn18	Zn	2.389143	0.350489	0.486850
O19	O	1.847227	0.113508	0.224598
O20	O	2.347227	0.613508	0.724598
C21	C	1.591077	0.000015	0.035093
C22	C	2.091077	0.500015	0.535093
C23	C	1.411378	0.000013	0.053992
C24	C	1.911378	0.500013	0.553992
N25	N	1.889107	0.353648	-0.013142
N26	N	2.389107	0.853648	0.486858
C27	C	2.006576	0.421427	-0.131008
C28	C	2.506576	0.921427	0.368992
C29	C	2.006601	0.578589	-0.131015
C30	C	2.506601	1.078589	0.368985
C31	C	2.187180	0.000019	-0.061387
C32	C	2.687180	0.500019	0.438613
C33	C	2.366879	0.000012	-0.080286
C34	C	2.866879	0.500012	0.419714
C35	C	1.937369	0.000018	-0.311198
C36	C	2.437369	0.500018	0.188802
C37	C	1.956268	0.000011	-0.490898
C38	C	2.456268	0.500011	0.009102
N39	N	1.889151	0.646390	-0.013152
N40	N	2.389151	1.146390	0.486848
C41	C	1.840889	0.000016	0.284904
C42	C	2.340889	0.500016	0.784904
C43	C	1.821990	0.000015	0.464604
C44	C	2.321990	0.500015	0.964604
H45	H	1.466258	0.000007	-0.209705
H46	H	1.966258	0.500007	0.290295
Br47	Br	1.245737	-0.000008	0.269719
Br48	Br	1.745737	0.499992	0.769719
H49	H	2.085696	0.000023	-0.590286
H50	H	2.585696	0.500023	-0.090286
H51	H	2.107124	0.363106	-0.231920
H52	H	2.607124	0.863106	0.268080
Br53	Br	2.174246	0.675730	-0.299204
Br54	Br	2.674246	1.175730	0.200796
Br55	Br	1.721492	0.450844	0.155039
Br56	Br	2.221492	0.950844	0.655039
Br57	Br	1.606272	0.000021	-0.369763
Br58	Br	2.106272	0.500021	0.130237
H59	H	1.788580	0.588112	0.087769
H60	H	2.288580	1.088112	0.587769
