data_functionalizedCrystal
_audit_creation_method	'MofGen! by Chris Wilmer'
_symmetry_space_group_name_H-M	'P1'
_symmetry_Int_Tables_number	1
_symmetry_cell_setting	triclinic
loop_
_symmetry_equiv_pos_as_xyz
  x,y,z
_cell_length_a	14.971486
_cell_length_b	12.996460
_cell_length_c	14.971486
_cell_angle_alpha	89.999503
_cell_angle_beta	96.385871
_cell_angle_gamma	90.001258
loop_
_atom_site_label
_atom_site_type_symbol
_atom_site_fract_x
_atom_site_fract_y
_atom_site_fract_z
O1	O	1.186948	0.085449	-0.116557
O2	O	1.686948	0.585449	0.383443
O3	O	0.926547	0.085477	-0.130515
O4	O	1.426547	0.585477	0.369485
O5	O	1.063727	0.085455	0.006664
O6	O	1.563727	0.585455	0.506664
O7	O	1.049768	0.085471	-0.253736
O8	O	1.549768	0.585471	0.246264
O9	O	1.063709	-0.085679	0.006656
O10	O	1.563709	0.414321	0.506656
O11	O	0.926530	-0.085657	-0.130523
O12	O	1.426530	0.414343	0.369477
O13	O	1.186930	-0.085685	-0.116565
O14	O	1.686930	0.414315	0.383435
Cu15	Cu	1.056728	-0.101297	-0.123545
Cu16	Cu	1.556728	0.398703	0.376455
Cu17	Cu	1.056749	0.101089	-0.123535
Cu18	Cu	1.556749	0.601089	0.376465
O19	O	1.049750	-0.085663	-0.253744
O20	O	1.549750	0.414337	0.246256
C21	C	0.893214	-0.000086	-0.129895
C22	C	1.393214	0.499914	0.370105
C23	C	0.793917	-0.000076	-0.128024
C24	C	1.293917	0.499924	0.371976
N25	N	1.056720	-0.243644	-0.123551
N26	N	1.556720	0.256356	0.376449
C27	C	0.736692	-0.000072	-0.208614
C28	C	1.236692	0.499928	0.291386
C29	C	0.643392	-0.000088	-0.206850
C30	C	1.143392	0.499912	0.293150
C31	C	0.607320	-0.000099	-0.124497
C32	C	1.107320	0.499901	0.375503
C33	C	0.664552	-0.000106	-0.043902
C34	C	1.164552	0.499894	0.456098
C35	C	0.757850	-0.000098	-0.045666
C36	C	1.257850	0.499902	0.454334
C37	C	0.470090	-0.000120	-0.040231
C38	C	0.970090	0.499880	0.459769
C39	C	0.376786	-0.000126	-0.038466
C40	C	0.876786	0.499874	0.461534
C41	C	0.355632	-0.000110	-0.201415
C42	C	0.855632	0.499890	0.298585
C43	C	0.448930	-0.000102	-0.203179
C44	C	0.948930	0.499898	0.296821
C45	C	0.506156	-0.000107	-0.122584
C46	C	1.006156	0.499893	0.377416
C47	C	1.056724	-0.336750	-0.123553
C48	C	1.556724	0.163250	0.376447
C49	C	1.056732	-0.453555	-0.123547
C50	C	1.556732	0.046445	0.376453
C51	C	1.056744	-0.546653	-0.123537
C52	C	1.556744	-0.046653	0.376463
C53	C	1.056753	-0.663466	-0.123532
C54	C	1.556753	-0.163466	0.376468
C55	C	1.220263	-0.000119	-0.117185
C56	C	1.720263	0.499881	0.382815
C57	C	1.319561	-0.000123	-0.119056
C58	C	1.819561	0.499877	0.380944
C59	C	1.063094	-0.000112	0.039985
C60	C	1.563094	0.499888	0.539985
C61	C	1.061223	-0.000110	0.139282
C62	C	1.561223	0.499890	0.639282
N63	N	1.056764	0.243436	-0.123522
N64	N	1.556764	0.743436	0.376478
C65	C	1.050384	-0.000094	-0.287065
C66	C	1.550384	0.499906	0.212935
C67	C	1.052254	-0.000088	-0.386362
C68	C	1.552254	0.499912	0.113638
C69	C	1.141812	-0.000120	0.196507
C70	C	1.641812	0.499880	0.696507
C71	C	1.140049	-0.000109	0.289807
C72	C	1.640049	0.499891	0.789807
C73	C	1.057696	-0.000097	0.325879
C74	C	1.557696	0.499903	0.825879
C75	C	0.977101	-0.000084	0.268646
C76	C	1.477101	0.499916	0.768646
C77	C	0.978865	-0.000087	0.175349
C78	C	1.478865	0.499913	0.675349
C79	C	0.973430	-0.000080	0.463109
C80	C	1.473430	0.499920	0.963109
C81	C	0.971665	-0.000079	0.556413
C82	C	1.471665	0.499921	1.056413
C83	C	1.134614	-0.000102	0.577567
C84	C	1.634614	0.499898	1.077567
C85	C	1.136378	-0.000105	0.484269
C86	C	1.636378	0.499895	0.984269
C87	C	1.055782	-0.000095	0.427043
C88	C	1.555782	0.499905	0.927043
H89	H	0.766054	-0.000062	-0.275675
H90	H	1.266054	0.499938	0.224325
C91	C	1.301291	-0.000157	0.301345
C92	C	1.801291	0.499843	0.801345
C93	C	1.228636	-0.000131	0.352709
C94	C	1.728636	0.499869	0.852709
H95	H	1.355982	-0.000177	0.340180
H96	H	1.855982	0.499823	0.840180
H97	H	1.298603	0.059517	0.264517
H98	H	1.798603	0.559517	0.764517
H99	H	1.298569	-0.059839	0.264513
H100	H	1.798569	0.440161	0.764513
H101	H	1.231354	0.059556	0.389536
H102	H	1.731354	0.559556	0.889536
H103	H	1.231325	-0.059812	0.389552
H104	H	1.731325	0.440188	0.889552
C105	C	0.817621	-0.000072	0.163804
C106	C	1.317621	0.499928	0.663804
C107	C	0.890278	-0.000080	0.112443
C108	C	1.390278	0.499920	0.612443
H109	H	0.762931	-0.000069	0.124967
H110	H	1.262931	0.499931	0.624967
H111	H	0.820330	0.059602	0.200632
H112	H	1.320330	0.559602	0.700632
H113	H	0.820320	-0.059755	0.200636
H114	H	1.320320	0.440245	0.700636
H115	H	0.887583	0.059608	0.075616
H116	H	1.387583	0.559608	0.575616
H117	H	0.887568	-0.059760	0.075599
H118	H	1.387568	0.440240	0.575599
H119	H	1.203437	-0.000123	0.454903
H120	H	1.703437	0.499877	0.954903
H121	H	0.635175	-0.000130	0.023152
H122	H	1.135175	0.499870	0.523152
H123	H	0.347419	-0.000137	0.028593
H124	H	0.847419	0.499863	0.528593
C125	C	0.631854	-0.000057	-0.368093
C126	C	1.131854	0.499943	0.131907
C127	C	0.580490	-0.000079	-0.295437
C128	C	1.080490	0.499921	0.204563
H129	H	0.593019	-0.000046	-0.422784
H130	H	1.093019	0.499954	0.077216
H131	H	0.668685	-0.059726	-0.365397
H132	H	1.168685	0.440274	0.134603
H133	H	0.668682	0.059630	-0.365378
H134	H	1.168682	0.559630	0.134622
H135	H	0.543666	-0.059770	-0.298149
H136	H	1.043666	0.440230	0.201851
H137	H	0.543643	0.059597	-0.298134
H138	H	1.043643	0.559597	0.201866
H139	H	0.516682	-0.000126	0.025399
H140	H	1.016682	0.499874	0.525399
H141	H	0.804443	-0.000100	0.019958
H142	H	1.304443	0.499900	0.519958
H143	H	1.200238	-0.000107	0.624165
H144	H	1.700238	0.499893	1.124165
H145	H	0.478296	-0.000083	-0.270239
H146	H	0.978296	0.499917	0.229761
H147	H	0.904606	-0.000085	0.585780
H148	H	1.404606	0.499915	1.085780
C149	C	1.238332	0.087836	0.103855
C150	C	1.738332	0.587836	0.603855
C151	C	1.232337	-0.000133	0.156857
C152	C	1.732337	0.499867	0.656857
H153	H	1.294218	0.087826	0.079375
H154	H	1.794218	0.587826	0.579375
H155	H	1.234266	0.147505	0.139812
H156	H	1.734266	0.647505	0.639812
H157	H	1.190583	0.087827	0.056422
H158	H	1.690583	0.587827	0.556422
H159	H	1.280082	-0.000120	0.204294
H160	H	1.780082	0.499880	0.704294
H161	H	1.236412	-0.059816	0.120899
H162	H	1.736412	0.440184	0.620899
H163	H	0.309033	-0.000111	-0.267039
H164	H	0.809033	0.499889	0.232961
H165	H	0.907800	-0.000069	0.416517
H166	H	1.407800	0.499931	0.916517
H167	H	0.910047	-0.000067	0.298024
H168	H	1.410047	0.499933	0.798024
