data_functionalizedCrystal
_audit_creation_method	'MofGen! by Chris Wilmer'
_symmetry_space_group_name_H-M	'P1'
_symmetry_Int_Tables_number	1
_symmetry_cell_setting	triclinic
loop_
_symmetry_equiv_pos_as_xyz
  x,y,z
_cell_length_a	17.077404
_cell_length_b	16.625545
_cell_length_c	17.077396
_cell_angle_alpha	89.971947
_cell_angle_beta	90.019501
_cell_angle_gamma	89.975738
loop_
_atom_site_label
_atom_site_type_symbol
_atom_site_fract_x
_atom_site_fract_y
_atom_site_fract_z
Zn1	Zn	1.200048	0.320997	0.443845
Zn2	Zn	1.199953	0.455839	0.312580
Zn3	Zn	1.068780	0.321025	0.312593
Zn4	Zn	1.068746	0.455792	0.443804
O5	O	1.134382	0.388413	0.378205
O6	O	1.309883	0.338892	0.426444
O7	O	1.182527	0.437988	0.202735
O8	O	1.086248	0.208189	0.330027
O9	O	1.309812	0.437960	0.330005
O10	O	1.182690	0.208168	0.426457
O11	O	1.086155	0.338940	0.202744
O12	O	0.958929	0.338894	0.329986
O13	O	1.086189	0.437879	0.553656
O14	O	0.958903	0.437906	0.426386
O15	O	1.182656	0.338846	0.553687
O16	O	1.182493	0.568666	0.329964
O17	O	1.086096	0.568630	0.426374
C18	C	0.930434	0.388399	0.378184
C19	C	0.843184	0.388412	0.378193
C20	C	0.802201	0.440045	0.428308
C21	C	0.720221	0.440047	0.428321
C22	C	0.679225	0.388419	0.378214
C23	C	0.720213	0.336780	0.328097
C24	C	0.802192	0.336774	0.328089
C25	C	0.549343	0.336795	0.328115
C26	C	0.467359	0.336801	0.328122
C27	C	0.467372	0.440068	0.428347
C28	C	0.549351	0.440063	0.428339
C29	C	0.590334	0.388425	0.378221
C30	C	1.134302	0.597904	0.378180
C31	C	1.134339	0.687525	0.378196
C32	C	1.134468	1.015701	0.378290
C33	C	1.134429	0.924392	0.378266
C34	C	1.134403	0.851616	0.378242
C35	C	1.134366	0.760302	0.378219
C36	C	1.339126	0.388428	0.378228
C37	C	1.426376	0.388435	0.378237
C38	C	1.134429	0.388354	0.582950
C39	C	1.134449	0.388329	0.670200
C40	C	1.134477	1.178104	0.378257
C41	C	1.134500	1.088483	0.378303
C42	C	1.134380	0.388414	0.174258
C43	C	1.134511	0.388212	0.087008
C44	C	1.184682	0.336758	0.711207
C45	C	1.184691	0.336731	0.793187
C46	C	1.134472	0.388280	0.834159
C47	C	1.084234	0.439853	0.793146
C48	C	1.084221	0.439875	0.711167
C49	C	1.084265	0.439804	0.964016
C50	C	1.084279	0.439783	1.046001
C51	C	1.184736	0.336660	1.046037
C52	C	1.184723	0.336682	0.964058
C53	C	1.134486	0.388257	0.923050
H54	H	1.225579	0.294783	0.677854
O55	O	1.030074	0.495424	0.919785
H56	H	1.043510	0.558705	0.935501
O57	O	1.030066	0.495451	0.837335
H58	H	0.968463	0.481613	0.821597
O59	O	0.593546	0.281107	0.274051
H60	H	0.577836	0.217842	0.287612
H61	H	0.433982	0.294752	0.287330
H62	H	0.686828	0.294739	0.287302
H63	H	0.835574	0.482090	0.469108
O64	O	0.846402	0.281094	0.274028
H65	H	0.804124	0.245202	0.239178
H66	H	1.225598	0.294739	0.826572
H67	H	1.225621	0.294711	0.930701
H68	H	1.225640	0.294665	1.079429
H69	H	1.043384	0.481757	1.079358
O70	O	1.030032	0.495486	0.666931
H71	H	0.995113	0.531329	0.709193
O72	O	0.593567	0.495744	0.482387
H73	H	0.630884	0.536722	0.447181
H74	H	0.433999	0.482112	0.469158
O75	O	0.676015	0.495891	0.482222
H76	H	0.718294	0.531853	0.517000
