data_functionalizedCrystal
_audit_creation_method	'MofGen! by Chris Wilmer'
_symmetry_space_group_name_H-M	'P1'
_symmetry_Int_Tables_number	1
_symmetry_cell_setting	triclinic
loop_
_symmetry_equiv_pos_as_xyz
  x,y,z
_cell_length_a	10.654543
_cell_length_b	17.666332
_cell_length_c	10.654550
_cell_angle_alpha	89.993725
_cell_angle_beta	84.483552
_cell_angle_gamma	89.995326
loop_
_atom_site_label
_atom_site_type_symbol
_atom_site_fract_x
_atom_site_fract_y
_atom_site_fract_z
O1	O	-1.667855	0.062867	-0.176361
O2	O	-1.167855	0.562867	0.323639
O3	O	-1.302375	0.062886	-0.193176
O4	O	-0.802375	0.562886	0.306824
O5	O	-1.493518	0.062871	-0.002029
O6	O	-0.993518	0.562871	0.497971
O7	O	-1.476712	0.062882	-0.367508
O8	O	-0.976712	0.562882	0.132492
O9	O	-1.493484	-0.063026	-0.002018
O10	O	-0.993484	0.436974	0.497982
O11	O	-1.302341	-0.063011	-0.193165
O12	O	-0.802341	0.436989	0.306835
O13	O	-1.667821	-0.063030	-0.176350
O14	O	-1.167821	0.436970	0.323650
Cu15	Cu	-1.485078	-0.074516	-0.184757
Cu16	Cu	-0.985078	0.425484	0.315243
Cu17	Cu	-1.485118	0.074372	-0.184769
Cu18	Cu	-0.985118	0.574372	0.315231
O19	O	-1.476678	-0.063015	-0.367497
O20	O	-0.976678	0.436985	0.132503
C21	C	-1.255560	-0.000060	-0.191938
C22	C	-0.755560	0.499940	0.308062
C23	C	-1.116116	-0.000053	-0.188249
C24	C	-0.616116	0.499947	0.311751
N25	N	-1.485059	-0.179235	-0.184747
N26	N	-0.985059	0.320765	0.315253
C27	C	-1.036631	-0.000050	-0.300793
C28	C	-0.536631	0.499950	0.199207
C29	C	-0.905609	-0.000062	-0.297319
C30	C	-0.405609	0.499938	0.202681
C31	C	-0.933573	-0.000074	-0.068749
C32	C	-0.433573	0.499926	0.431251
C33	C	-1.064591	-0.000068	-0.072224
C34	C	-0.564591	0.499932	0.427776
C35	C	-1.569725	-0.218851	-0.100150
C36	C	-1.069725	0.281149	0.399850
C37	C	-1.569732	-0.298099	-0.100144
C38	C	-1.069732	0.201901	0.399856
C39	C	-1.485086	-0.337727	-0.184757
C40	C	-0.985086	0.162273	0.315243
C41	C	-1.400403	-0.298101	-0.269361
C42	C	-0.900403	0.201899	0.230639
C43	C	-1.400390	-0.218855	-0.269356
C44	C	-0.900390	0.281145	0.230644
N45	N	-1.470067	-0.462142	-0.295748
N46	N	-0.970067	0.037858	0.204252
N47	N	-1.470087	-0.537423	-0.295748
N48	N	-0.970087	-0.037423	0.204252
C49	C	-1.485119	-0.576491	-0.184775
C50	C	-0.985119	-0.076491	0.315225
N51	N	-1.500155	-0.537436	-0.073798
N52	N	-1.000155	-0.037436	0.426202
N53	N	-1.500141	-0.462148	-0.073798
N54	N	-1.000141	0.037852	0.426202
C55	C	-1.485090	-0.423656	-0.184771
C56	C	-0.985090	0.076344	0.315229
C57	C	-1.569797	-0.702037	-0.100164
C58	C	-1.069797	-0.202037	0.399836
C59	C	-1.569796	-0.781286	-0.100156
C60	C	-1.069796	-0.281286	0.399844
C61	C	-1.400473	-0.781287	-0.269385
C62	C	-0.900473	-0.281287	0.230615
C63	C	-1.400469	-0.702039	-0.269381
C64	C	-0.900469	-0.202039	0.230619
C65	C	-1.485137	-0.662419	-0.184772
C66	C	-0.985137	-0.162419	0.315228
C67	C	-0.714635	-0.000079	-0.177595
C68	C	-0.214635	0.499921	0.322405
C69	C	-0.854077	-0.000070	-0.181301
C70	C	-0.354077	0.499930	0.318699
C71	C	-1.492267	-0.000077	0.044774
C72	C	-0.992267	0.499923	0.544774
C73	C	-1.488575	-0.000075	0.184217
C74	C	-0.988575	0.499925	0.684217
N75	N	-1.485147	0.179091	-0.184769
N76	N	-0.985147	0.679091	0.315231
C77	C	-1.477929	-0.000066	-0.414300
C78	C	-0.977929	0.499934	0.085700
C79	C	-1.481621	-0.000062	-0.553744
C80	C	-0.981621	0.499938	-0.053744
C81	C	-1.601117	-0.000081	0.263706
C82	C	-1.101117	0.499919	0.763706
C83	C	-1.597641	-0.000072	0.394726
C84	C	-1.097641	0.499928	0.894726
C85	C	-1.369070	-0.000054	0.366758
C86	C	-0.869070	0.499946	0.866758
C87	C	-1.372548	-0.000058	0.235740
C88	C	-0.872548	0.499942	0.735740
H89	H	-1.078578	-0.000043	-0.395268
H90	H	-0.578578	0.499957	0.104732
H91	H	-0.891604	-0.000092	0.025715
H92	H	-0.391604	0.499908	0.525715
H93	H	-1.129313	-0.000072	0.019428
H94	H	-0.629313	0.499928	0.519428
H95	H	-1.695593	-0.000094	0.221761
H96	H	-1.195593	0.499906	0.721761
H97	H	-0.840896	-0.000062	-0.388964
H98	H	-0.340896	0.499938	0.111036
H99	H	-1.331531	-0.669782	-0.338274
H100	H	-0.831531	-0.169782	0.161726
H101	H	-1.274605	-0.000041	0.408724
H102	H	-0.774605	0.499959	0.908724
H103	H	-1.638736	-0.669777	-0.031266
H104	H	-1.138736	-0.169777	0.468734
H105	H	-1.331547	-0.813552	-0.338274
H106	H	-0.831547	-0.313552	0.161726
H107	H	-1.638664	-0.186595	-0.031253
H108	H	-1.138664	0.313405	0.468747
H109	H	-1.638737	-0.813542	-0.031260
H110	H	-1.138737	-0.313542	0.468740
H111	H	-1.638680	-0.330361	-0.031251
H112	H	-1.138680	0.169639	0.468749
H113	H	-1.689284	-0.000075	0.459442
H114	H	-1.189284	0.499925	0.959442
H115	H	-1.280897	-0.000051	0.171016
H116	H	-0.780897	0.499949	0.671016
H117	H	-1.331481	-0.330371	-0.338253
H118	H	-0.831481	0.169629	0.161747
H119	H	-1.331443	-0.186599	-0.338247
H120	H	-0.831443	0.313401	0.161753
