data_functionalizedCrystal
_audit_creation_method	'MofGen! by Chris Wilmer'
_symmetry_space_group_name_H-M	'P1'
_symmetry_Int_Tables_number	1
_symmetry_cell_setting	triclinic
loop_
_symmetry_equiv_pos_as_xyz
  x,y,z
_cell_length_a	10.723023
_cell_length_b	10.868271
_cell_length_c	10.723024
_cell_angle_alpha	90.000239
_cell_angle_beta	84.467709
_cell_angle_gamma	90.003903
loop_
_atom_site_label
_atom_site_type_symbol
_atom_site_fract_x
_atom_site_fract_y
_atom_site_fract_z
O1	O	1.657189	0.102306	0.175017
O2	O	2.157189	0.602306	0.675017
O3	O	1.294037	0.102311	0.191771
O4	O	1.794037	0.602311	0.691771
O5	O	1.483990	0.102304	0.001817
O6	O	1.983990	0.602304	0.501817
O7	O	1.467237	0.102313	0.364970
O8	O	1.967237	0.602313	0.864970
O9	O	1.483973	-0.102341	0.001824
O10	O	1.983973	0.397659	0.501824
O11	O	1.294020	-0.102333	0.191777
O12	O	1.794020	0.397667	0.691777
O13	O	1.657172	-0.102338	0.175023
O14	O	2.157172	0.397662	0.675023
Zn15	Zn	1.475593	-0.134828	0.183401
Zn16	Zn	1.975593	0.365172	0.683401
Zn17	Zn	1.475616	0.134801	0.183393
Zn18	Zn	1.975616	0.634801	0.683393
O19	O	1.467219	-0.102331	0.364976
O20	O	1.967219	0.397669	0.864976
C21	C	1.247529	-0.000010	0.190555
C22	C	1.747529	0.499990	0.690555
C23	C	1.108974	-0.000009	0.186908
C24	C	1.608974	0.499991	0.686908
N25	N	1.475587	-0.318842	0.183405
N26	N	1.975587	0.181158	0.683405
C27	C	0.904016	0.106003	0.181509
C28	C	1.404016	0.606003	0.681509
C29	C	1.047219	0.106004	0.185278
C30	C	1.547219	0.606004	0.685278
C31	C	1.475596	-0.430179	0.183406
C32	C	1.975596	0.069821	0.683406
C33	C	1.475613	-0.569857	0.183394
C34	C	1.975613	-0.069857	0.683394
C35	C	1.703680	-0.000014	0.176239
C36	C	2.203680	0.499986	0.676239
C37	C	1.842235	-0.000008	0.179886
C38	C	2.342235	0.499992	0.679886
C39	C	1.482762	-0.000017	-0.044679
C40	C	1.982762	0.499983	0.455321
C41	C	1.479114	-0.000012	-0.183233
C42	C	1.979114	0.499988	0.316767
N43	N	1.475632	0.318815	0.183378
N44	N	1.975632	0.818815	0.683378
C45	C	1.585402	-0.000012	-0.258216
C46	C	2.085402	0.499988	0.241784
C47	C	1.581634	-0.000008	-0.401420
C48	C	2.081634	0.499992	0.098580
C49	C	1.468447	-0.000008	0.411473
C50	C	1.968447	0.499992	0.911473
C51	C	1.472095	-0.000004	0.550027
C52	C	1.972095	0.499996	1.050027
H53	H	0.850892	0.196763	0.180100
H54	H	1.350892	0.696763	0.680100
N55	N	1.042341	-0.113879	0.185187
N56	N	1.542341	0.386121	0.685187
N57	N	0.958921	-0.138675	0.271093
N58	N	1.458921	0.361325	0.771093
H59	H	0.911853	-0.219097	0.269882
H60	H	1.411853	0.280903	0.769882
N61	N	1.113841	0.219878	0.187038
N62	N	1.613841	0.719878	0.687038
N63	N	1.088651	0.294596	0.274464
N64	N	1.588651	0.794596	0.774464
H65	H	1.135705	0.375025	0.275707
H66	H	1.635705	0.875025	0.775707
N67	N	0.908844	-0.113883	0.181667
N68	N	1.408844	0.386117	0.681667
N69	N	0.850831	-0.213550	0.180156
N70	N	1.350831	0.286450	0.680156
H71	H	0.897869	-0.293980	0.181420
H72	H	1.397869	0.206020	0.681420
N73	N	1.703052	-0.000001	-0.205744
N74	N	2.203052	0.499999	0.294256
N75	N	1.705946	0.000003	-0.089490
N76	N	2.205946	0.500003	0.410510
H77	H	1.789039	0.000013	-0.052432
H78	H	2.289039	0.500013	0.447568
N79	N	1.695788	0.000017	-0.482241
N80	N	2.195788	0.500017	0.017759
N81	N	1.772224	0.086283	-0.477108
N82	N	2.272224	0.586283	0.022892
H83	H	1.852850	0.086303	-0.534191
H84	H	2.352850	0.586303	-0.034191
H85	H	1.381099	-0.000013	-0.385548
H86	H	1.881099	0.499987	0.114452
N87	N	1.361466	-0.000022	-0.235707
N88	N	1.861466	0.499978	0.264293
N89	N	1.334310	-0.086283	-0.305300
N90	N	1.834310	0.413717	0.194700
H91	H	1.251218	-0.086291	-0.342360
H92	H	1.751218	0.413709	0.157640
