data_functionalizedCrystal
_audit_creation_method	'MofGen! by Chris Wilmer'
_symmetry_space_group_name_H-M	'P1'
_symmetry_Int_Tables_number	1
_symmetry_cell_setting	triclinic
loop_
_symmetry_equiv_pos_as_xyz
  x,y,z
_cell_length_a	15.297475
_cell_length_b	16.120531
_cell_length_c	15.296720
_cell_angle_alpha	101.981864
_cell_angle_beta	88.382886
_cell_angle_gamma	96.306499
loop_
_atom_site_label
_atom_site_type_symbol
_atom_site_fract_x
_atom_site_fract_y
_atom_site_fract_z
Zn1	Zn	1.212865	0.646896	0.754998
Zn2	Zn	1.230627	0.766582	0.613767
Zn3	Zn	1.094668	0.600201	0.581188
Zn4	Zn	1.059365	0.758412	0.734537
O5	O	1.149381	0.693023	0.671123
O6	O	1.336360	0.685734	0.758460
O7	O	1.234800	0.728389	0.486163
O8	O	1.117688	0.490094	0.599173
O9	O	1.349410	0.773667	0.654699
O10	O	1.204526	0.524401	0.726870
O11	O	1.134912	0.606149	0.462228
O12	O	0.968846	0.598227	0.579333
O13	O	1.057519	0.759742	0.860534
O14	O	0.942909	0.714464	0.691998
O15	O	1.170294	0.677811	0.875566
O16	O	1.200568	0.881800	0.634860
O17	O	1.074743	0.875797	0.723589
C18	C	0.924468	0.650393	0.629911
C19	C	0.828243	0.632178	0.612302
C20	C	0.503126	0.823212	0.796978
C21	C	0.593534	0.840332	0.813521
C22	C	0.652216	0.788295	0.763218
C23	C	0.620481	0.719135	0.696369
C24	C	0.530065	0.702018	0.679821
C25	C	0.679155	0.667101	0.646060
C26	C	0.647420	0.597941	0.579211
C27	C	0.557013	0.580827	0.562666
C28	C	0.498331	0.632864	0.612969
C29	C	0.769570	0.684218	0.662608
C30	C	0.796509	0.563024	0.545450
C31	C	0.706102	0.545904	0.528908
C32	C	1.135772	0.908961	0.680563
C33	C	1.130024	1.001359	0.684645
C34	C	1.119531	1.170535	0.692118
C35	C	1.179273	1.214670	0.650084
C36	C	1.173435	1.308806	0.654241
C37	C	1.125368	1.076391	0.687961
C38	C	1.375173	0.735820	0.712496
C39	C	1.471392	0.754058	0.730127
C40	C	1.107988	0.723074	0.900909
C41	C	1.090348	0.735880	0.998831
C42	C	1.163036	1.476241	0.661648
C43	C	1.168783	1.383841	0.657554
C44	C	1.190668	0.663038	0.442236
C45	C	1.208490	0.650030	0.344336
C46	C	1.275496	0.601358	1.306162
C47	C	1.292074	0.589328	1.214161
C48	C	1.241644	0.625965	1.160324
C49	C	1.174632	0.674633	1.198497
C50	C	1.158057	0.686669	1.290508
C51	C	1.124205	0.711277	1.144670
C52	C	1.057194	0.759945	1.182843
C53	C	1.040620	0.771978	1.274845
C54	C	1.091051	0.735342	1.328682
C55	C	1.140781	0.699240	1.052659
C56	C	1.023342	0.784552	1.037005
C57	C	1.006763	0.796581	1.129006
H58	H	0.531180	0.524520	0.508225
F59	F	0.402106	0.614643	0.595371
F60	F	0.672316	0.472301	0.457765
F61	F	1.046952	1.213550	0.743232
F62	F	0.627302	0.913934	0.884661
F63	F	1.251854	1.171653	0.598962
F64	F	1.329165	0.562380	1.363465
H65	H	0.844289	0.520652	0.504488
H66	H	1.195342	0.659613	1.021588
H67	H	1.255147	0.616168	1.085413
F68	F	1.363390	0.537535	1.173541
F69	F	1.073413	0.748146	1.426603
H70	H	0.455342	0.865578	0.837923
H71	H	0.986062	0.811616	1.305923
H72	H	0.952202	0.836208	1.160099
F73	F	0.969670	0.823551	0.979713
H74	H	0.725829	0.802237	0.776691
F75	F	0.803334	0.757820	0.733752
