data_functionalizedCrystal
_audit_creation_method	'MofGen! by Chris Wilmer'
_symmetry_space_group_name_H-M	'P1'
_symmetry_Int_Tables_number	1
_symmetry_cell_setting	triclinic
loop_
_symmetry_equiv_pos_as_xyz
  x,y,z
_cell_length_a	12.759401
_cell_length_b	18.101395
_cell_length_c	12.759393
_cell_angle_alpha	89.967539
_cell_angle_beta	89.981745
_cell_angle_gamma	90.030218
loop_
_atom_site_label
_atom_site_type_symbol
_atom_site_fract_x
_atom_site_fract_y
_atom_site_fract_z
Zn1	Zn	1.606121	-0.294811	-0.594001
Zn2	Zn	1.605969	-0.418670	-0.418315
Zn3	Zn	1.430427	-0.294845	-0.418337
Zn4	Zn	1.430361	-0.418613	-0.593953
O5	O	1.518220	-0.356735	-0.506151
O6	O	1.753122	-0.311250	-0.570707
O7	O	1.582647	-0.402283	-0.271297
O8	O	1.453824	-0.191208	-0.441668
O9	O	1.753010	-0.402249	-0.441631
O10	O	1.582906	-0.191182	-0.570728
O11	O	1.453677	-0.311309	-0.271313
O12	O	1.283397	-0.311254	-0.441621
O13	O	1.453712	-0.402152	-0.740981
O14	O	1.283349	-0.402185	-0.570646
O15	O	1.582842	-0.311195	-0.741016
O16	O	1.582583	-0.522295	-0.441585
O17	O	1.453565	-0.522253	-0.570625
C18	C	1.245252	-0.356718	-0.506132
C19	C	1.128476	-0.356728	-0.506148
C20	C	1.073608	-0.309318	-0.439088
C21	C	0.963884	-0.309335	-0.439102
C22	C	0.963905	-0.404176	-0.573243
C23	C	1.073627	-0.404161	-0.573224
C24	C	1.073595	-0.254560	-0.361646
C25	C	0.963871	-0.254577	-0.361659
C26	C	1.518079	-0.549145	-0.506121
C27	C	1.518115	-0.631459	-0.506142
C28	C	1.518346	-0.930550	-0.506199
C29	C	1.437359	-0.899229	-0.587589
C30	C	1.436974	-0.813612	-0.587335
C31	C	1.518231	-0.782168	-0.506172
C32	C	1.488253	-0.813326	-0.395446
C33	C	1.487731	-0.898971	-0.395933
C34	C	1.629487	-0.898893	-0.534560
C35	C	1.628834	-0.813242	-0.536988
C36	C	1.518168	-0.698308	-0.506150
C37	C	1.518406	-1.014410	-0.506214
C38	C	1.792253	-0.356752	-0.506172
C39	C	1.909029	-0.356760	-0.506181
C40	C	1.518286	-0.356663	-0.780185
C41	C	1.518315	-0.356633	-0.896962
C42	C	1.518389	-0.163573	-0.506205
C43	C	1.518462	-0.081259	-0.506228
C44	C	1.585519	-0.403952	-1.061536
C45	C	1.585480	-0.403983	-0.951812
C46	C	1.451177	-0.309253	-0.951841
C47	C	1.451211	-0.309226	-1.061563
C48	C	1.663062	-0.458641	-1.061519
C49	C	1.663023	-0.458673	-0.951795
C50	C	1.518214	-0.356752	-0.233184
C51	C	1.518389	-0.356574	-0.116408
H52	H	1.103323	-0.269846	-0.280232
O53	O	1.114127	-0.189587	-0.396711
C54	C	1.079985	-0.176684	-0.500196
H55	H	1.004589	-0.208809	-0.515130
H56	H	1.142961	-0.195664	-0.557564
C57	C	1.152069	-0.054098	-0.497226
C58	C	1.059462	-0.093550	-0.515566
H59	H	1.139414	-0.002817	-0.506710
H60	H	1.175075	-0.062792	-0.427508
H61	H	1.204540	-0.069923	-0.545035
H62	H	1.006997	-0.077732	-0.467749
H63	H	1.036446	-0.084852	-0.585277
O64	O	0.923334	-0.279112	-0.269391
C65	C	0.957499	-0.352008	-0.250768
H66	H	1.032905	-0.362606	-0.296272
H67	H	0.894541	-0.392522	-0.277547
C68	C	0.885389	-0.349576	-0.076895
C69	C	0.978009	-0.362590	-0.132777
H70	H	0.898036	-0.356106	-0.004112
H71	H	0.862368	-0.300466	-0.089442
H72	H	0.832933	-0.383339	-0.099222
H73	H	1.030459	-0.328822	-0.110458
H74	H	1.001039	-0.411696	-0.120223
H75	H	1.651440	-0.792874	-0.618476
H76	H	1.692365	-0.791834	-0.482028
H77	H	0.934130	-0.197242	-0.383598
H78	H	1.355479	-0.920816	-0.569040
H79	H	1.455730	-0.792542	-0.669437
H80	H	0.919234	-0.442794	-0.627854
O81	O	1.760045	-0.440396	-0.916087
C82	C	1.759815	-0.440445	-0.805585
H83	H	1.693409	-0.477071	-0.775928
H84	H	1.747976	-0.381669	-0.775808
C85	C	1.946820	-0.425435	-0.801590
C86	C	1.865265	-0.470425	-0.765165
H87	H	2.011867	-0.443924	-0.776655
H88	H	1.946975	-0.425399	-0.876037
H89	H	1.936940	-0.376458	-0.776773
H90	H	1.875138	-0.519398	-0.789993
H91	H	1.865113	-0.470470	-0.690721
H92	H	1.544160	-0.919693	-0.333224
O93	O	1.126763	-0.450245	-0.638456
C94	C	1.054821	-0.492125	-0.697641
H95	H	0.976625	-0.461804	-0.701376
H96	H	1.043103	-0.548334	-0.659016
C97	C	1.193736	-0.540141	-0.804833
C98	C	1.097696	-0.502897	-0.809428
H99	H	1.220184	-0.546789	-0.873788
H100	H	1.242206	-0.511928	-0.764958
H101	H	1.183958	-0.586978	-0.772642
H102	H	1.107478	-0.456058	-0.841607
H103	H	1.049229	-0.531102	-0.849312
H104	H	1.354593	-0.793189	-0.568549
O105	O	1.459617	-0.923833	-0.685782
C106	C	1.548814	-0.969716	-0.682375
H107	H	1.558410	-0.993024	-0.599917
H108	H	1.621287	-0.936157	-0.704055
C109	C	1.523597	-1.005055	-0.862029
C110	C	1.535379	-1.033687	-0.760755
H111	H	1.515313	-1.044514	-0.910381
H112	H	1.463506	-0.974141	-0.864326
H113	H	1.583995	-0.977089	-0.880081
H114	H	1.474976	-1.061644	-0.742700
H115	H	1.595459	-1.064608	-0.758457
H116	H	1.656818	-0.920437	-0.613925
H117	H	1.406487	-0.919015	-0.371909
H118	H	1.396483	-0.270704	-0.907173
H119	H	1.641231	-0.515990	-1.091277
H120	H	1.545384	-0.792960	-0.333151
O121	O	1.392269	-0.787910	-0.366395
C122	C	1.316778	-0.810893	-0.440185
H123	H	1.346610	-0.861851	-0.483327
H124	H	1.302157	-0.764523	-0.498877
C125	C	1.177129	-0.767215	-0.330239
C126	C	1.213766	-0.829806	-0.383222
H127	H	1.113584	-0.778878	-0.295104
H128	H	1.227988	-0.751727	-0.280527
H129	H	1.164953	-0.728579	-0.379158
H130	H	1.225954	-0.868438	-0.334301
H131	H	1.162906	-0.845301	-0.432925
H132	H	1.689825	-0.919148	-0.475280
H133	H	1.396536	-0.270654	-1.106235
H134	H	1.740383	-0.438092	-1.095558
H135	H	1.633844	-0.513173	-0.917749
