data_functionalizedCrystal
_audit_creation_method	'MofGen! by Chris Wilmer'
_symmetry_space_group_name_H-M	'P1'
_symmetry_Int_Tables_number	1
_symmetry_cell_setting	triclinic
loop_
_symmetry_equiv_pos_as_xyz
  x,y,z
_cell_length_a	12.759401
_cell_length_b	16.959454
_cell_length_c	12.759393
_cell_angle_alpha	89.969286
_cell_angle_beta	89.981433
_cell_angle_gamma	90.019119
loop_
_atom_site_label
_atom_site_type_symbol
_atom_site_fract_x
_atom_site_fract_y
_atom_site_fract_z
Zn1	Zn	1.606216	-0.314655	-0.593990
Zn2	Zn	1.606094	-0.446857	-0.418312
Zn3	Zn	1.430518	-0.314694	-0.418329
Zn4	Zn	1.430490	-0.446793	-0.593953
O5	O	1.518330	-0.380750	-0.506146
O6	O	1.753221	-0.332202	-0.570694
O7	O	1.582764	-0.429368	-0.271293
O8	O	1.453888	-0.204078	-0.441652
O9	O	1.753131	-0.429330	-0.441624
O10	O	1.582972	-0.204049	-0.570710
O11	O	1.453769	-0.332268	-0.271305
O12	O	1.283493	-0.332207	-0.441618
O13	O	1.453840	-0.429222	-0.740979
O14	O	1.283473	-0.429260	-0.570648
O15	O	1.582945	-0.332141	-0.741006
O16	O	1.582737	-0.557459	-0.441589
O17	O	1.453722	-0.557413	-0.570632
C18	C	1.245362	-0.380731	-0.506131
C19	C	1.128586	-0.380742	-0.506150
C20	C	1.073763	-0.330263	-0.573461
C21	C	0.964039	-0.330278	-0.573467
C22	C	0.963969	-0.431258	-0.438850
C23	C	1.073692	-0.431239	-0.438839
C24	C	1.128658	-0.279767	-0.640772
C25	C	1.073835	-0.229284	-0.708089
C26	C	0.964111	-0.229299	-0.708095
C27	C	0.909209	-0.279797	-0.640785
C28	C	1.518242	-0.586116	-0.506128
C29	C	1.518300	-0.673973	-0.506156
C30	C	1.451249	-1.045454	-0.573331
C31	C	1.585703	-1.045442	-0.439068
C32	C	1.585666	-0.962897	-0.439058
C33	C	1.518419	-0.921626	-0.506185
C34	C	1.451208	-0.962900	-0.573322
C35	C	1.652868	-0.921616	-0.371915
C36	C	1.652834	-0.839065	-0.371902
C37	C	1.585591	-0.797792	-0.439035
C38	C	1.518378	-0.839072	-0.506175
C39	C	1.451130	-0.797801	-0.573302
C40	C	1.383922	-0.839079	-0.640448
C41	C	1.383965	-0.921628	-0.640455
C42	C	1.585548	-0.715244	-0.439029
C43	C	1.451089	-0.715247	-0.573292
C44	C	1.792363	-0.380769	-0.506161
C45	C	1.909140	-0.380777	-0.506168
C46	C	1.518403	-0.380670	-0.780179
C47	C	1.518435	-0.380636	-0.896956
C48	C	1.518447	-0.174582	-0.506187
C49	C	1.518496	-0.086725	-0.506204
C50	C	1.585669	-0.330081	-0.951834
C51	C	1.585694	-0.330052	-1.061558
C52	C	1.451247	-0.431141	-1.061517
C53	C	1.451218	-0.431165	-0.951795
C54	C	1.652886	-0.279552	-0.896995
C55	C	1.720126	-0.228994	-0.951872
C56	C	1.720151	-0.228965	-1.061597
C57	C	1.652935	-0.279495	-1.116443
C58	C	1.518317	-0.380772	-0.233179
C59	C	1.518489	-0.380583	-0.116402
H60	H	0.919260	-0.472373	-0.384051
Cl61	Cl	1.804604	-0.165462	-0.882925
H62	H	1.118543	-0.188166	-0.762884
Cl63	Cl	1.670239	-1.097327	-0.354685
Cl64	Cl	1.737331	-0.787179	-0.287500
H65	H	1.396533	-1.079066	-0.628003
Cl66	Cl	1.142616	-0.494707	-0.354228
H67	H	1.652949	-0.279459	-1.205788
H68	H	0.819865	-0.279788	-0.640774
Cl69	Cl	1.670019	-0.663354	-0.354612
H70	H	1.396332	-0.681649	-0.627960
H71	H	1.329164	-0.805467	-0.695099
H72	H	0.919478	-0.188188	-0.762900
H73	H	1.396523	-0.472280	-1.106182
Cl74	Cl	1.737409	-0.973502	-0.287539
Cl75	Cl	1.652862	-0.279587	-0.759056
Cl76	Cl	1.804683	-0.165409	-1.130583
Cl77	Cl	1.366692	-0.494720	-0.882801
H78	H	1.329246	-0.955244	-0.695120
H79	H	1.218000	-0.279749	-0.640774
