data_functionalizedCrystal
_audit_creation_method	'MofGen! by Chris Wilmer'
_symmetry_space_group_name_H-M	'P1'
_symmetry_Int_Tables_number	1
_symmetry_cell_setting	triclinic
loop_
_symmetry_equiv_pos_as_xyz
  x,y,z
_cell_length_a	18.215407
_cell_length_b	12.827892
_cell_length_c	18.215399
_cell_angle_alpha	89.976162
_cell_angle_beta	89.980167
_cell_angle_gamma	90.015840
loop_
_atom_site_label
_atom_site_type_symbol
_atom_site_fract_x
_atom_site_fract_y
_atom_site_fract_z
Zn1	Zn	1.125121	-0.416031	-0.416137
Zn2	Zn	1.458454	-0.082698	-0.082804
Zn3	Zn	1.791787	0.250635	0.250530
Zn4	Zn	1.125049	-0.590790	-0.293079
Zn5	Zn	1.458383	-0.257457	0.040254
Zn6	Zn	1.791716	0.075876	0.373587
Zn7	Zn	1.002053	-0.416065	-0.293084
Zn8	Zn	1.335386	-0.082732	0.040249
Zn9	Zn	1.668720	0.250601	0.373582
Zn10	Zn	1.002039	-0.590732	-0.416104
Zn11	Zn	1.335373	-0.257399	-0.082771
Zn12	Zn	1.668706	0.075934	0.250562
O13	O	1.063566	-0.503405	-0.354601
O14	O	1.396899	-0.170072	-0.021268
O15	O	1.730232	0.163262	0.312065
O16	O	1.228095	-0.439223	-0.399825
O17	O	1.561429	-0.105890	-0.066491
O18	O	1.894762	0.227443	0.266842
O19	O	1.108710	-0.567651	-0.190096
O20	O	1.442043	-0.234318	0.143238
O21	O	1.775376	0.099015	0.476571
O22	O	1.018414	-0.269825	-0.309423
O23	O	1.351747	0.063508	0.023910
O24	O	1.685080	0.396842	0.357244
O25	O	1.228043	-0.567618	-0.309415
O26	O	1.561376	-0.234285	0.023918
O27	O	1.894710	0.099048	0.357252
O28	O	1.108831	-0.269800	-0.399829
O29	O	1.442164	0.063534	-0.066496
O30	O	1.775498	0.396867	0.266837
O31	O	1.018345	-0.439282	-0.190099
O32	O	1.351678	-0.105948	0.143234
O33	O	1.685011	0.227385	0.476567
O34	O	0.899067	-0.439225	-0.309392
O35	O	1.232400	-0.105892	0.023942
O36	O	1.565734	0.227441	0.357275
O37	O	1.018390	-0.567519	-0.519093
O38	O	1.351724	-0.234186	-0.185760
O39	O	1.685057	0.099147	0.147574
O40	O	0.899057	-0.567552	-0.399774
O41	O	1.232390	-0.234219	-0.066441
O42	O	1.565724	0.099114	0.266893
O43	O	1.108818	-0.439167	-0.519117
O44	O	1.442151	-0.105834	-0.185784
O45	O	1.775484	0.227500	0.147550
O46	O	1.108696	-0.737019	-0.309383
O47	O	1.442030	-0.403685	0.023950
O48	O	1.775363	-0.070352	0.357283
O49	O	1.018321	-0.736976	-0.399769
O50	O	1.351655	-0.403643	-0.066436
O51	O	1.684988	-0.070309	0.266897
C52	C	0.872359	-0.503387	-0.354580
C53	C	1.205693	-0.170054	-0.021247
C54	C	1.539026	0.163280	0.312087
C55	C	0.790560	-0.503405	-0.354589
C56	C	1.123894	-0.170071	-0.021255
C57	C	1.457227	0.163262	0.312078
C58	C	0.602380	-0.570329	-0.401592
C59	C	0.935714	-0.236996	-0.068258
C60	C	1.269047	0.096337	0.265075
C61	C	0.525522	-0.570333	-0.401601
C62	C	0.858855	-0.236999	-0.068267
C63	C	1.192188	0.096334	0.265066
C64	C	0.525503	-0.436499	-0.307627
C65	C	0.858836	-0.103166	0.025706
C66	C	1.192169	0.230167	0.359040
C67	C	0.602360	-0.436491	-0.307622
C68	C	0.935693	-0.103158	0.025711
C69	C	1.269027	0.230175	0.359045
C70	C	0.640797	-0.503413	-0.354603
C71	C	0.974130	-0.170079	-0.021270
C72	C	1.307464	0.163254	0.312063
C73	C	0.487081	-0.503424	-0.354617
C74	C	0.820414	-0.170090	-0.021284
C75	C	1.153747	0.163243	0.312049
C76	C	0.403747	-0.503427	-0.354627
C77	C	0.737081	-0.170093	-0.021294
C78	C	1.070414	0.163240	0.312040
C79	C	0.724136	-0.503408	-0.354595
C80	C	1.057469	-0.170075	-0.021262
C81	C	1.390803	0.163258	0.312072
C82	C	1.063520	-0.774915	-0.354588
C83	C	1.396853	-0.441581	-0.021255
C84	C	1.730186	-0.108248	0.312078
C85	C	1.063567	-0.891068	-0.354607
C86	C	1.396900	-0.557735	-0.021274
C87	C	1.730234	-0.224401	0.312059
C88	C	1.108341	-0.942839	-0.309931
C89	C	1.441674	-0.609506	0.023402
C90	C	1.775007	-0.276172	0.356735
C91	C	1.108391	-1.062889	-0.309950
C92	C	1.441724	-0.729556	0.023383
C93	C	1.775058	-0.396223	0.356717
C94	C	1.255518	-0.503424	-0.354623
C95	C	1.588852	-0.170090	-0.021290
C96	C	1.922185	0.163243	0.312044
C97	C	1.337317	-0.503432	-0.354632
C98	C	1.670651	-0.170098	-0.021299
C99	C	2.003984	0.163235	0.312035
C100	C	1.063610	-0.503333	-0.546554
C101	C	1.396944	-0.169999	-0.213221
C102	C	1.730277	0.163334	0.120112
C103	C	1.063629	-0.503302	-0.628353
C104	C	1.396963	-0.169969	-0.295020
C105	C	1.730296	0.163365	0.038313
C106	C	1.063632	-0.230835	-0.354630
C107	C	1.396965	0.102499	-0.021297
C108	C	1.730298	0.435832	0.312036
C109	C	1.063660	-0.114682	-0.354643
C110	C	1.396993	0.218652	-0.021309
C111	C	1.730327	0.551985	0.312024
C112	C	1.110732	-0.436407	-0.816561
C113	C	1.444065	-0.103073	-0.483228
C114	C	1.777399	0.230260	-0.149894
C115	C	1.110741	-0.436376	-0.893420
C116	C	1.444074	-0.103043	-0.560086
C117	C	1.777407	0.230290	-0.226753
C118	C	1.016579	-0.570036	-0.893383
C119	C	1.349912	-0.236703	-0.560050
C120	C	1.683246	0.096631	-0.226717
C121	C	1.016567	-0.570060	-0.816526
C122	C	1.349901	-0.236727	-0.483193
C123	C	1.683234	0.096606	-0.149859
C124	C	1.063648	-0.503247	-0.778117
C125	C	1.396981	-0.169914	-0.444783
C126	C	1.730314	0.163419	-0.111450
C127	C	1.063668	-0.503192	-0.931833
C128	C	1.397002	-0.169859	-0.598500
C129	C	1.730335	0.163474	-0.265166
C130	C	1.063678	-0.503160	-1.015167
C131	C	1.397011	-0.169827	-0.681833
C132	C	1.730344	0.163507	-0.348500
C133	C	1.063638	-0.503278	-0.694778
C134	C	1.396971	-0.169945	-0.361444
C135	C	1.730304	0.163389	-0.028111
C136	C	1.063563	-0.503401	-0.163395
C137	C	1.396897	-0.170068	0.169938
C138	C	1.730230	0.163265	0.503272
C139	C	1.063687	-0.503138	-0.081597
C140	C	1.397020	-0.169804	0.251737
C141	C	1.730353	0.163529	0.585070
H142	H	0.633639	-0.381993	-0.269358
H143	H	0.966973	-0.048660	0.063975
H144	H	1.300306	0.284673	0.397308
Cl145	Cl	1.004444	-0.959846	-0.413689
Cl146	Cl	1.337777	-0.626513	-0.080356
Cl147	Cl	1.671110	-0.293179	0.252977
Cl148	Cl	1.169941	-0.352353	-0.941746
Cl149	Cl	1.503275	-0.019020	-0.608413
Cl150	Cl	1.836608	0.314313	-0.275080
Cl151	Cl	1.167572	-1.131622	-0.250889
Cl152	Cl	1.500906	-0.798289	0.082444
Cl153	Cl	1.834239	-0.464956	0.415777
Cl154	Cl	1.004469	-1.045956	-0.413697
Cl155	Cl	1.337802	-0.712622	-0.080364
Cl156	Cl	1.671135	-0.379289	0.252969
H157	H	1.146639	-0.898288	-0.271671
H158	H	1.479972	-0.564955	0.061663
H159	H	1.813306	-0.231622	0.394996
H160	H	0.978249	-0.624435	-0.924666
H161	H	1.311583	-0.291102	-0.591332
H162	H	1.644916	0.042232	-0.257999
Cl163	Cl	0.650699	-0.654454	-0.460657
Cl164	Cl	0.984032	-0.321121	-0.127323
Cl165	Cl	1.317365	0.012213	0.206010
Cl166	Cl	0.477230	-0.654459	-0.460676
Cl167	Cl	0.810563	-0.321126	-0.127343
Cl168	Cl	1.143897	0.012208	0.205991
Cl169	Cl	0.477177	-0.352377	-0.248567
Cl170	Cl	0.810510	-0.019044	0.084767
Cl171	Cl	1.143843	0.314289	0.418100
H172	H	1.149066	-0.382000	-0.785290
H173	H	1.482399	-0.048667	-0.451957
H174	H	1.815733	0.284666	-0.118624
Cl175	Cl	0.957367	-0.654090	-0.768193
Cl176	Cl	1.290700	-0.320756	-0.434859
Cl177	Cl	1.624033	0.012577	-0.101526
