data_functionalizedCrystal
_audit_creation_method	'MofGen! by Chris Wilmer'
_symmetry_space_group_name_H-M	'P1'
_symmetry_Int_Tables_number	1
_symmetry_cell_setting	triclinic
loop_
_symmetry_equiv_pos_as_xyz
  x,y,z
_cell_length_a	14.044220
_cell_length_b	12.503572
_cell_length_c	11.792240
_cell_angle_alpha	93.538063
_cell_angle_beta	91.308852
_cell_angle_gamma	93.835250
loop_
_atom_site_label
_atom_site_type_symbol
_atom_site_fract_x
_atom_site_fract_y
_atom_site_fract_z
O1	O	1.264544	0.089247	-0.267759
O2	O	1.764544	0.589247	0.232241
O3	O	0.988526	0.089273	-0.257878
O4	O	1.488526	0.589273	0.242122
O5	O	1.133231	0.089227	-0.098279
O6	O	1.633231	0.589227	0.401721
O7	O	1.119839	0.089294	-0.427358
O8	O	1.619839	0.589294	0.072642
O9	O	1.122349	-0.089411	-0.110304
O10	O	1.622349	0.410589	0.389696
O11	O	0.977643	-0.089365	-0.269903
O12	O	1.477643	0.410635	0.230097
O13	O	1.253662	-0.089391	-0.279784
O14	O	1.753662	0.410609	0.220216
Cu15	Cu	1.114659	-0.105689	-0.275941
Cu16	Cu	1.614659	0.394311	0.224059
Cu17	Cu	1.127529	0.105571	-0.261721
Cu18	Cu	1.627529	0.605571	0.238279
O19	O	1.108956	-0.089345	-0.439383
O20	O	1.608956	0.410655	0.060617
C21	C	0.947748	-0.000043	-0.259566
C22	C	1.447748	0.499957	0.240434
C23	C	0.842456	-0.000035	-0.246666
C24	C	1.342456	0.499965	0.253334
N25	N	1.105614	-0.254279	-0.285943
N26	N	1.605614	0.245721	0.214057
C27	C	1.092308	-0.473390	-0.300666
C28	C	1.592308	0.026610	0.199334
C29	C	1.149884	-0.526735	-0.236991
C30	C	1.649884	-0.026735	0.263009
C31	C	1.142480	-0.648656	-0.245183
C32	C	1.642480	-0.148656	0.254817
C33	C	1.099710	-0.351458	-0.292475
C34	C	1.599710	0.148542	0.207525
C35	C	0.649672	-0.000061	-0.223086
C36	C	1.149672	0.499939	0.276914
C37	C	0.592510	-0.000047	-0.314570
C38	C	1.092510	0.499953	0.185430
C39	C	0.485238	-0.000062	-0.301450
C40	C	0.985238	0.499938	0.198550
C41	C	0.756954	-0.000047	-0.236205
C42	C	1.256954	0.499953	0.263795
C43	C	1.294440	-0.000072	-0.278096
C44	C	1.794440	0.499928	0.221904
C45	C	1.399732	-0.000073	-0.290995
C46	C	1.899732	0.499927	0.209005
C47	C	1.126948	-0.000098	-0.061922
C48	C	1.626948	0.499902	0.438078
C49	C	1.124428	-0.000116	0.064327
C50	C	1.624428	0.499884	0.564327
N51	N	1.136581	0.254161	-0.251711
N52	N	1.636581	0.754161	0.248289
C53	C	1.119796	-0.000133	0.295473
C54	C	1.619796	0.499867	0.795473
C55	C	1.122370	-0.000123	0.166847
C56	C	1.622370	0.499877	0.666847
C57	C	1.115237	-0.000056	0.524258
C58	C	1.615237	0.499944	1.024258
C59	C	1.117751	-0.000144	0.398001
C60	C	1.617751	0.499856	0.898001
H61	H	1.037460	-0.519280	-0.361328
H62	H	1.537460	-0.019280	0.138672
N63	N	0.632191	-0.000024	-0.425181
N64	N	1.132191	0.499976	0.074819
N65	N	0.720541	-0.000013	-0.435823
N66	N	1.220541	0.499987	0.064177
H67	H	0.748571	0.000005	-0.513939
H68	H	1.248571	0.500005	-0.013939
N69	N	0.609991	-0.000091	-0.112484
N70	N	1.109991	0.499909	0.387516
N71	N	0.521640	-0.000102	-0.101851
N72	N	1.021640	0.499898	0.398149
H73	H	0.493604	-0.000120	-0.023739
H74	H	0.993604	0.499880	0.476261
H75	H	1.204737	-0.480840	-0.176327
H76	H	1.704737	0.019160	0.323673
