data_functionalizedCrystal
_audit_creation_method	'MofGen! by Chris Wilmer'
_symmetry_space_group_name_H-M	'P1'
_symmetry_Int_Tables_number	1
_symmetry_cell_setting	triclinic
loop_
_symmetry_equiv_pos_as_xyz
  x,y,z
_cell_length_a	14.044191
_cell_length_b	10.489716
_cell_length_c	12.503572
_cell_angle_alpha	93.562900
_cell_angle_beta	86.162165
_cell_angle_gamma	88.860456
loop_
_atom_site_label
_atom_site_type_symbol
_atom_site_fract_x
_atom_site_fract_y
_atom_site_fract_z
O1	O	1.265205	0.301031	-0.089250
O2	O	1.598539	0.634364	0.244083
O3	O	1.931872	0.967698	0.577416
O4	O	0.989161	0.289915	-0.089265
O5	O	1.322495	0.623249	0.244069
O6	O	1.655828	0.956582	0.577402
O7	O	1.133477	0.110512	-0.089261
O8	O	1.466810	0.443845	0.244072
O9	O	1.800144	0.777178	0.577406
O10	O	1.120890	0.480435	-0.089254
O11	O	1.454223	0.813768	0.244079
O12	O	1.787556	1.147101	0.577413
O13	O	1.122624	0.124028	0.089381
O14	O	1.455957	0.457362	0.422714
O15	O	1.789290	0.790695	0.756047
O16	O	0.978308	0.303432	0.089377
O17	O	1.311642	0.636765	0.422710
O18	O	1.644975	0.970099	0.756044
O19	O	1.254352	0.314548	0.089391
O20	O	1.587685	0.647881	0.422725
O21	O	1.921019	0.981214	0.756058
Cu22	Cu	1.115339	0.310224	0.105696
Cu23	Cu	1.448672	0.643557	0.439029
Cu24	Cu	1.782006	0.976891	0.772362
Cu25	Cu	1.128174	0.294239	-0.105569
Cu26	Cu	1.461508	0.627572	0.227764
Cu27	Cu	1.794841	0.960906	0.561098
O28	O	1.110036	0.493951	0.089388
O29	O	1.443370	0.827285	0.422721
O30	O	1.776703	1.160618	0.756054
C31	C	0.948388	0.291811	0.000054
C32	C	1.281721	0.625145	0.333387
C33	C	1.615054	0.958478	0.666721
C34	C	0.843064	0.277308	0.000048
C35	C	1.176397	0.610641	0.333382
C36	C	1.509731	0.943974	0.666715
C37	C	0.593293	0.353654	0.000060
C38	C	0.926626	0.686988	0.333394
C39	C	1.259960	1.020321	0.666727
C40	C	0.650227	0.250814	0.000057
C41	C	0.983560	0.584147	0.333390
C42	C	1.316893	0.917480	0.666723
C43	C	0.757531	0.265558	0.000052
C44	C	1.090864	0.598892	0.333385
C45	C	1.424198	0.932225	0.666719
C46	C	0.485978	0.338912	0.000065
C47	C	0.819312	0.672245	0.333398
C48	C	1.152645	1.005578	0.666732
C49	C	1.127105	0.069642	0.000056
C50	C	1.460438	0.402975	0.333390
C51	C	1.793771	0.736308	0.666723
C52	C	1.124276	-0.072277	0.000047
C53	C	1.457609	0.261056	0.333380
C54	C	1.790943	0.594389	0.666713
C55	C	1.212774	-0.160971	0.000061
C56	C	1.546107	0.172362	0.333394
C57	C	1.879441	0.505696	0.666727
C58	C	1.171360	-0.249741	-0.088018
C59	C	1.504694	0.083593	0.245315
C60	C	1.838027	0.416926	0.578648
C61	C	1.160640	-0.236380	0.088108
C62	C	1.493973	0.096953	0.421442
C63	C	1.827306	0.430286	0.754775
C64	C	1.082904	-0.159183	-0.088106
C65	C	1.416237	0.174150	0.245228
C66	C	1.749570	0.507483	0.578561
C67	C	1.072191	-0.145810	0.088100
C68	C	1.405524	0.187523	0.421434
C69	C	1.738858	0.520856	0.754767
C70	C	1.030714	-0.234539	-0.000001
C71	C	1.364047	0.098794	0.333333
C72	C	1.697380	0.432127	0.666666
C73	C	1.295126	0.312651	0.000070
C74	C	1.628459	0.645985	0.333403
C75	C	1.961793	0.979318	0.666737
C76	C	1.400450	0.327155	0.000069
C77	C	1.733783	0.660488	0.333402
C78	C	2.067117	0.993821	0.666736
C79	C	1.116409	0.534821	0.000068
C80	C	1.449742	0.868155	0.333401
C81	C	1.783075	1.201488	0.666734
C82	C	1.119238	0.676740	0.000071
C83	C	1.452571	1.010073	0.333404
C84	C	1.785905	1.343406	0.666737
N85	N	1.106318	0.321467	0.254288
N86	N	1.439652	0.654800	0.587621
N87	N	1.772985	0.988134	0.920954
N88	N	1.137202	0.282987	-0.254161
N89	N	1.470536	0.616320	0.079172
N90	N	1.803869	0.949653	0.412506
C91	C	1.093049	0.338017	0.473402
C92	C	1.426382	0.671350	0.806736
C93	C	1.759715	1.004683	1.140069
C94	C	1.150469	0.266441	0.526731
C95	C	1.483802	0.599774	0.860064
C96	C	1.817136	0.933108	1.193398
C97	C	1.143086	0.275649	0.648654
C98	C	1.476419	0.608983	0.981987
C99	C	1.809752	0.942316	1.315321
C100	C	1.100431	0.328810	0.351468
C101	C	1.433764	0.662143	0.684802
C102	C	1.767098	0.995476	1.018135
H103	H	0.625137	0.452765	0.000059
H104	H	0.958470	0.786098	0.333392
H105	H	1.291803	1.119432	0.666726
F106	F	1.021552	0.427148	0.533406
F107	F	1.354885	0.760482	0.866739
F108	F	1.688218	1.093815	1.200073
H109	H	1.289758	-0.128491	-0.000025
H110	H	1.623091	0.204843	0.333309
H111	H	1.956425	0.538176	0.666642
F112	F	1.222259	0.177722	0.466726
F113	F	1.555592	0.511055	0.800059
F114	F	1.888925	0.844388	1.133392
H115	H	1.030341	-0.100445	0.162565
H116	H	1.363674	0.232888	0.495899
H117	H	1.697007	0.566222	0.829232
H118	H	0.618386	0.151689	-0.000021
H119	H	0.951719	0.485023	0.333312
H120	H	1.285053	0.818356	0.666646
H121	H	1.213243	-0.295079	-0.162481
H122	H	1.546577	0.038254	0.170853
H123	H	1.879910	0.371587	0.504186
H124	H	1.050094	-0.125308	-0.162652
H125	H	1.383427	0.208025	0.170681
H126	H	1.716761	0.541358	0.504014
F127	F	0.930026	-0.276697	-0.000065
F128	F	1.263359	0.056637	0.333269
F129	F	1.596693	0.389970	0.666602
F130	F	1.203579	-0.280879	0.185438
F131	F	1.536912	0.052455	0.518771
F132	F	1.870246	0.385788	0.852104
