data_functionalizedCrystal
_audit_creation_method	'MofGen! by Chris Wilmer'
_symmetry_space_group_name_H-M	'P1'
_symmetry_Int_Tables_number	1
_symmetry_cell_setting	triclinic
loop_
_symmetry_equiv_pos_as_xyz
  x,y,z
_cell_length_a	14.971482
_cell_length_b	14.044190
_cell_length_c	13.448316
_cell_angle_alpha	90.008381
_cell_angle_beta	90.004522
_cell_angle_gamma	88.402193
loop_
_atom_site_label
_atom_site_type_symbol
_atom_site_fract_x
_atom_site_fract_y
_atom_site_fract_z
O1	O	1.196681	0.123517	0.082690
O2	O	0.937447	0.138315	0.082697
O3	O	1.063169	-0.007073	0.082674
O4	O	1.070958	0.268905	0.082713
O5	O	1.063156	-0.007074	-0.082710
O6	O	0.937433	0.138314	-0.082687
O7	O	1.196667	0.123516	-0.082693
Cu8	Cu	1.067049	0.130915	-0.097791
Cu9	Cu	1.067065	0.130916	0.097794
O10	O	1.070944	0.268904	-0.082671
C11	C	0.904063	0.137653	0.000005
C12	C	0.804609	0.135672	0.000007
C13	C	0.757884	0.134738	-0.090145
C14	C	0.664437	0.132861	-0.090147
C15	C	0.617718	0.131925	0.000005
C16	C	0.664450	0.132856	0.090164
C17	C	0.757895	0.134726	0.090164
C18	C	0.469682	0.128961	0.090157
C19	C	0.376230	0.127093	0.090157
C20	C	0.376224	0.127096	-0.090154
C21	C	0.469668	0.128966	-0.090153
C22	C	0.516394	0.129899	0.000006
C23	C	1.059755	-0.042392	-0.000021
C24	C	1.049591	-0.147629	-0.000029
C25	C	1.103093	-0.397856	0.000009
C26	C	1.031025	-0.340307	0.000003
C27	C	1.041358	-0.233092	-0.000015
C28	C	1.092761	-0.505082	0.000027
C29	C	1.230051	0.124178	0.000000
C30	C	1.329504	0.126159	0.000005
C31	C	1.074359	0.304223	0.000026
C32	C	1.084522	0.409460	0.000041
N33	N	1.067044	0.130913	-0.235355
C34	C	1.125884	0.188504	-0.287384
C35	C	1.125895	0.188500	-0.391487
C36	C	1.067060	0.130909	-0.443560
C37	C	1.008217	0.073312	-0.391524
C38	C	1.008211	0.073311	-0.287423
C39	C	1.008232	0.073318	-0.608504
C40	C	1.008236	0.073319	-0.712612
C41	C	1.125916	0.188507	-0.712569
C42	C	1.125910	0.188507	-0.608468
C43	C	1.067065	0.130910	-0.556439
N44	N	1.067077	0.130910	0.235359
H45	H	0.507705	0.129734	-0.163563
H46	H	1.173826	0.235408	-0.754936
H47	H	0.961564	-0.371561	0.000011
H48	H	1.173790	0.235407	-0.244994
H49	H	0.626398	0.132085	-0.163557
H50	H	1.172548	-0.366604	-0.000003
H51	H	0.960315	0.026415	-0.566145
H52	H	0.626404	0.132087	0.163567
H53	H	1.173811	0.235395	-0.433845
H54	H	0.960297	0.026415	-0.245062
H55	H	1.173815	0.235407	-0.566073
H56	H	0.960326	0.026425	-0.755007
H57	H	0.960317	0.026415	-0.433930
H58	H	0.338175	0.126337	-0.163565
H59	H	0.795915	0.135508	-0.163557
H60	H	0.507723	0.129721	0.163574
H61	H	0.338194	0.126332	0.163567
H62	H	0.795938	0.135489	0.163575
