data_functionalizedCrystal
_audit_creation_method	'MofGen! by Chris Wilmer'
_symmetry_space_group_name_H-M	'P1'
_symmetry_Int_Tables_number	1
_symmetry_cell_setting	triclinic
loop_
_symmetry_equiv_pos_as_xyz
  x,y,z
_cell_length_a	19.077105
_cell_length_b	16.625546
_cell_length_c	19.077174
_cell_angle_alpha	92.270997
_cell_angle_beta	85.483752
_cell_angle_gamma	87.718759
loop_
_atom_site_label
_atom_site_type_symbol
_atom_site_fract_x
_atom_site_fract_y
_atom_site_fract_z
Zn1	Zn	1.093718	-0.391770	-0.441833
Zn2	Zn	1.593718	0.108230	0.058167
Zn3	Zn	1.088907	-0.520961	-0.323942
Zn4	Zn	1.588907	-0.020961	0.176058
Zn5	Zn	0.971103	-0.380499	-0.319231
Zn6	Zn	1.471103	0.119501	0.180769
Zn7	Zn	0.975801	-0.520909	-0.437060
Zn8	Zn	1.475801	-0.020909	0.062940
O9	O	1.032382	-0.453535	-0.380517
O10	O	1.532382	0.046465	0.119483
O11	O	1.191730	-0.413647	-0.430164
O12	O	1.691730	0.086353	0.069836
O13	O	1.069300	-0.497634	-0.224668
O14	O	1.569300	0.002366	0.275332
O15	O	0.987415	-0.269165	-0.335520
O16	O	1.487415	0.230835	0.164480
O17	O	1.188196	-0.508563	-0.343550
O18	O	1.688196	-0.008563	0.156450
O19	O	1.077500	-0.277446	-0.425596
O20	O	1.577500	0.222554	0.074404
O21	O	0.982750	-0.394436	-0.221206
O22	O	1.482750	0.105564	0.278794
O23	O	0.873076	-0.394385	-0.330892
O24	O	1.373076	0.105615	0.169108
O25	O	0.995423	-0.508473	-0.536343
O26	O	1.495423	-0.008473	-0.036343
O27	O	0.876527	-0.497544	-0.417460
O28	O	1.376527	0.002456	0.082540
O29	O	1.082056	-0.413595	-0.539850
O30	O	1.582056	0.086405	-0.039850
O31	O	1.073856	-0.633783	-0.338921
O32	O	1.573856	-0.133783	0.161079
O33	O	0.990757	-0.633745	-0.422029
O34	O	1.490757	-0.133745	0.077971
C35	C	0.849223	-0.444736	-0.373147
C36	C	1.349223	0.055264	0.126853
C37	C	0.770867	-0.440993	-0.370012
C38	C	1.270867	0.059007	0.129988
C39	C	0.735868	-0.493017	-0.413539
C40	C	1.235868	0.006983	0.086461
C41	C	0.662244	-0.489489	-0.410596
C42	C	1.162244	0.010511	0.089404
C43	C	0.623621	-0.433940	-0.364122
C44	C	1.123621	0.066060	0.135878
C45	C	0.658625	-0.381910	-0.320592
C46	C	1.158625	0.118090	0.179408
C47	C	0.732248	-0.385434	-0.323539
C48	C	1.232248	0.114566	0.176461
C49	C	0.403240	-0.417627	-0.350485
C50	C	0.903240	0.082373	0.149515
C51	C	0.329612	-0.414107	-0.347540
C52	C	0.829612	0.085893	0.152460
C53	C	0.333237	-0.521686	-0.437545
C54	C	0.833237	-0.021686	0.062455
C55	C	0.406860	-0.525210	-0.440485
C56	C	0.906860	-0.025210	0.059515
C57	C	0.441858	-0.473177	-0.396959
C58	C	0.941858	0.026823	0.103041
N59	N	0.548366	-0.430334	-0.361111
N60	N	1.048366	0.069666	0.138889
N61	N	0.517112	-0.476779	-0.399974
N62	N	1.017112	0.023221	0.100026
C63	C	1.032314	-0.663021	-0.380484
C64	C	1.532314	-0.163021	0.119516
C65	C	1.032351	-0.752644	-0.380497
C66	C	1.532351	-0.252644	0.119503
C67	C	1.032477	-1.080829	-0.380575
C68	C	1.532477	-0.580829	0.119425
C69	C	1.032439	-0.989518	-0.380555
C70	C	1.532439	-0.489518	0.119445
C71	C	1.032413	-0.916740	-0.380536
C72	C	1.532413	-0.416740	0.119464
C73	C	1.032377	-0.825423	-0.380516
C74	C	1.532377	-0.325423	0.119484
C75	C	1.216257	-0.462368	-0.387915
C76	C	1.716257	0.037632	0.112085
C77	C	1.294613	-0.466132	-0.391068
C78	C	1.794613	0.033868	0.108932
C79	C	1.039800	-0.462286	-0.564390
C80	C	1.539800	0.037714	-0.064390
C81	C	1.042961	-0.466015	-0.642746
C82	C	1.542961	0.033985	-0.142746
C83	C	1.032470	-0.243232	-0.380565
C84	C	1.532470	0.256768	0.119435
C85	C	1.032508	-0.153614	-0.380586
C86	C	1.532508	0.346386	0.119414
C87	C	0.999386	-0.414038	-0.677755
C88	C	1.499386	0.085962	-0.177755
C89	C	1.002353	-0.417549	-0.751379
C90	C	1.502353	0.082451	-0.251379
C91	C	1.048900	-0.473032	-0.789992
C92	C	1.548900	0.026968	-0.289992
C93	C	1.092477	-0.525014	-0.754978
C94	C	1.592477	-0.025014	-0.254978
C95	C	1.089505	-0.521507	-0.681355
C96	C	1.589505	-0.021507	-0.181355
C97	C	1.062615	-0.489286	-1.010373
C98	C	1.562615	0.010714	-0.510373
C99	C	1.065585	-0.492788	-1.084001
C100	C	1.565585	0.007212	-0.584001
C101	C	0.975460	-0.385323	-1.080397
C102	C	1.475460	0.114677	-0.580397
C103	C	0.972496	-0.381818	-1.006773
C104	C	1.472496	0.118182	-0.506773
C105	C	1.016070	-0.433802	-0.971765
C106	C	1.516070	0.066198	-0.471765
N107	N	1.051935	-0.476620	-0.865247
N108	N	1.551935	0.023380	-0.365247
N109	N	1.013030	-0.430218	-0.896511
N110	N	1.513030	0.069782	-0.396511
C111	C	1.025034	-0.444761	-0.197360
C112	C	1.525034	0.055239	0.302640
C113	C	1.022010	-0.440812	-0.119010
C114	C	1.522010	0.059188	0.380990
H115	H	0.627172	-0.336677	-0.282755
H116	H	1.127172	0.163323	0.217245
H117	H	0.966867	-0.375227	-0.779880
H118	H	1.466867	0.124773	-0.279880
H119	H	0.760743	-0.343066	-0.288098
H120	H	1.260743	0.156934	0.211902
C121	C	0.421069	-0.373539	-0.232084
C122	C	0.921069	0.126461	0.267916
C123	C	0.441701	-0.360434	-0.302638
C124	C	0.941701	0.139566	0.197362
H125	H	0.444818	-0.338231	-0.202545
H126	H	0.944818	0.161769	0.297455
H127	H	0.371700	-0.363496	-0.223685
H128	H	0.871700	0.136504	0.276315
H129	H	0.432708	-0.427778	-0.222171
H130	H	0.932708	0.072222	0.277829
H131	H	0.430057	-0.306197	-0.312552
H132	H	0.930057	0.193803	0.187448
H133	H	0.491080	-0.370471	-0.311040
H134	H	0.991080	0.129529	0.188960
H135	H	0.934591	-0.336640	-0.975339
H136	H	1.434591	0.163360	-0.475339
H137	H	0.961486	-0.368853	-0.646322
H138	H	1.461486	0.131147	-0.146322
H139	H	1.098089	-0.531624	-0.981878
H140	H	1.598089	-0.031624	-0.481878
H141	H	0.939984	-0.343001	-1.108908
H142	H	1.439984	0.156999	-0.608908
H143	H	1.124994	-0.563826	-0.652852
H144	H	1.624994	-0.063826	-0.152852
C145	C	1.154367	-0.598675	-1.080172
C146	C	1.654367	-0.098675	-0.580172
C147	C	1.116750	-0.553783	-1.126446
C148	C	1.616750	-0.053783	-0.626446
H149	H	1.185949	-0.636330	-1.106377
H150	H	1.685949	-0.136330	-0.606377
H151	H	1.180190	-0.563479	-1.052550
H152	H	1.680190	-0.063479	-0.552550
H153	H	1.122471	-0.626671	-1.050213
H154	H	1.622471	-0.126671	-0.550213
H155	H	1.148645	-0.525782	-1.156401
H156	H	1.648645	-0.025782	-0.656401
H157	H	1.090925	-0.588984	-1.154080
H158	H	1.590925	-0.088984	-0.654080
H159	H	0.767310	-0.538254	-0.451381
H160	H	1.267310	-0.038254	0.048619
H161	H	0.304734	-0.564048	-0.472983
H162	H	0.804734	-0.064048	0.027017
C163	C	0.673221	-0.596200	-0.499836
C164	C	1.173221	-0.096200	0.000164
C165	C	0.623773	-0.546689	-0.458432
C166	C	1.123773	-0.046689	0.041568
H167	H	0.649469	-0.631519	-0.529364
H168	H	1.149469	-0.131519	-0.029364
H169	H	0.703038	-0.563786	-0.528015
H170	H	1.203038	-0.063786	-0.028015
H171	H	0.700684	-0.626884	-0.470208
H172	H	1.200684	-0.126884	0.029792
H173	H	0.596314	-0.516001	-0.488060
H174	H	1.096314	-0.016001	0.011940
H175	H	0.593944	-0.579107	-0.430251
H176	H	1.093944	-0.079107	0.069749
C177	C	0.242956	-0.394226	-0.249432
C178	C	0.742956	0.105774	0.250568
C179	C	0.287146	-0.353029	-0.296472
C180	C	0.787146	0.146971	0.203528
H181	H	0.216740	-0.356517	-0.217909
H182	H	0.716740	0.143483	0.282091
H183	H	0.211588	-0.424714	-0.274934
H184	H	0.711588	0.075286	0.225066
H185	H	0.270573	-0.429376	-0.223541
H186	H	0.770573	0.070624	0.276459
H187	H	0.259528	-0.317883	-0.322366
H188	H	0.759528	0.182117	0.177634
H189	H	0.318517	-0.322527	-0.270967
H190	H	0.818517	0.177473	0.229033
C191	C	0.403045	-0.631188	-0.529160
C192	C	0.903045	-0.131188	-0.029160
C193	C	0.449313	-0.586269	-0.491573
C194	C	0.949313	-0.086269	0.008427
H195	H	0.429255	-0.668882	-0.560701
H196	H	0.929255	-0.168882	-0.060701
H197	H	0.373074	-0.659134	-0.497247
H198	H	0.873074	-0.159134	0.002753
H199	H	0.375434	-0.596010	-0.555032
H200	H	0.875434	-0.096010	-0.055032
H201	H	0.476919	-0.621447	-0.465697
H202	H	0.976919	-0.121447	0.034303
H203	H	0.479296	-0.558322	-0.523491
H204	H	0.979296	-0.058322	-0.023491
H205	H	1.130372	-0.570194	-0.786422
H206	H	1.630372	-0.070194	-0.286422
