data_functionalizedCrystal
_audit_creation_method	'MofGen! by Chris Wilmer'
_symmetry_space_group_name_H-M	'P1'
_symmetry_Int_Tables_number	1
_symmetry_cell_setting	triclinic
loop_
_symmetry_equiv_pos_as_xyz
  x,y,z
_cell_length_a	12.759401
_cell_length_b	16.120444
_cell_length_c	12.759393
_cell_angle_alpha	92.863624
_cell_angle_beta	89.981504
_cell_angle_gamma	92.926596
loop_
_atom_site_label
_atom_site_type_symbol
_atom_site_fract_x
_atom_site_fract_y
_atom_site_fract_z
Zn1	Zn	1.584964	-0.331854	-0.615151
Zn2	Zn	2.084964	0.168146	-0.115151
Zn3	Zn	1.575912	-0.471293	-0.448366
Zn4	Zn	2.075912	0.028707	0.051634
Zn5	Zn	1.409263	-0.331898	-0.439493
Zn6	Zn	1.909263	0.168102	0.060507
Zn7	Zn	1.400313	-0.471228	-0.624004
Zn8	Zn	1.900313	0.028772	-0.124004
O9	O	1.492613	-0.401568	-0.531754
O10	O	1.992613	0.098432	-0.031754
O11	O	1.730784	-0.350360	-0.593035
O12	O	2.230784	0.149640	-0.093035
O13	O	1.553764	-0.452847	-0.300171
O14	O	2.053764	0.047153	0.199829
O15	O	1.440104	-0.215227	-0.455376
O16	O	1.940104	0.284773	0.044624
O17	O	1.724134	-0.452804	-0.470499
O18	O	2.224134	0.047196	0.029501
O19	O	1.569191	-0.215194	-0.584432
O20	O	2.069191	0.284806	-0.084432
O21	O	1.431327	-0.350434	-0.293652
O22	O	1.931327	0.149566	0.206348
O23	O	1.261056	-0.350372	-0.463960
O24	O	1.761056	0.149628	0.036040
O25	O	1.424850	-0.452695	-0.769848
O26	O	1.924850	0.047305	-0.269848
O27	O	1.254480	-0.452737	-0.599519
O28	O	1.754480	0.047263	-0.099519
O29	O	1.560512	-0.350298	-0.763344
O30	O	2.060512	0.149702	-0.263344
O31	O	1.545085	-0.587950	-0.479083
O32	O	2.045085	-0.087950	0.020917
O33	O	1.416072	-0.587903	-0.608123
O34	O	1.916072	-0.087903	-0.108123
C35	C	1.219647	-0.401553	-0.531738
C36	C	1.719647	0.098447	-0.031738
C37	C	1.102869	-0.401567	-0.531758
C38	C	1.602869	0.098433	-0.031758
C39	C	1.044605	-0.454954	-0.602238
C40	C	1.544605	0.045046	-0.102238
C41	C	0.934880	-0.454964	-0.602250
C42	C	1.434880	0.045036	-0.102250
C43	C	0.941694	-0.348198	-0.461293
C44	C	1.441694	0.151802	0.038707
C45	C	1.051417	-0.348184	-0.461287
C46	C	1.551417	0.151816	0.038713
C47	C	1.096058	-0.508336	-0.672709
C48	C	1.596058	-0.008336	-0.172709
C49	C	1.037793	-0.561728	-0.743194
C50	C	1.537793	-0.061728	-0.243194
C51	C	0.928069	-0.561739	-0.743206
C52	C	1.428069	-0.061739	-0.243206
C53	C	0.876608	-0.508357	-0.672733
C54	C	1.376608	-0.008357	-0.172733
C55	C	1.478654	-0.618176	-0.545550
C56	C	1.978654	-0.118176	-0.045550
C57	C	1.472778	-0.710842	-0.551487
C58	C	1.972778	-0.210842	-0.051487
C59	C	1.523352	-0.921787	-0.501181
C60	C	2.023352	-0.421787	-0.001181
C61	C	1.462069	-0.880498	-0.562338
C62	C	1.962069	-0.380498	-0.062338
C63	C	1.468029	-0.786093	-0.556298
C64	C	1.968029	-0.286093	-0.056298
C65	C	1.517393	-1.016201	-0.507218
C66	C	2.017393	-0.516201	-0.007218
C67	C	1.766645	-0.401584	-0.531770
C68	C	2.266645	0.098416	-0.031770
C69	C	1.883422	-0.401591	-0.531776
C70	C	2.383422	0.098409	-0.031776
C71	C	1.492692	-0.401484	-0.805782
C72	C	1.992692	0.098516	-0.305782
C73	C	1.492726	-0.401448	-0.922556
C74	C	1.992726	0.098552	-0.422556
C75	C	1.506656	-0.184115	-0.517927
C76	C	2.006656	0.315885	-0.017927
C77	C	1.512640	-0.091449	-0.512035
C78	C	2.012640	0.408551	-0.012035
C79	C	1.563375	-0.348125	-0.974033
C80	C	2.063375	0.151875	-0.474033
C81	C	1.563402	-0.348095	-1.083755
C82	C	2.063402	0.151905	-0.583755
C83	C	1.422127	-0.454719	-1.090515
C84	C	1.922127	0.045281	-0.590515
C85	C	1.422096	-0.454744	-0.980794
C86	C	1.922096	0.045256	-0.480794
C87	C	1.634005	-0.294829	-0.915795
C88	C	2.134005	0.205171	-0.415795
C89	C	1.704660	-0.241502	-0.967272
C90	C	2.204660	0.258498	-0.467272
C91	C	1.704687	-0.241472	-1.076994
C92	C	2.204687	0.258528	-0.576994
C93	C	1.634058	-0.294769	-1.135240
C94	C	2.134058	0.205231	-0.635240
C95	C	1.492599	-0.401592	-0.258788
C96	C	1.992599	0.098408	0.241212
C97	C	1.492784	-0.401393	-0.141999
C98	C	1.992784	0.098607	0.358001
H99	H	0.899786	-0.304738	-0.403917
H100	H	1.399786	0.195262	0.096083
C101	C	1.094390	-0.620440	-0.820714
C102	C	1.594390	-0.120440	-0.320714
H103	H	1.043972	-0.652231	-0.862698
H104	H	1.543972	-0.152231	-0.362698
H105	H	1.134843	-0.656724	-0.782758
H106	H	1.634843	-0.156724	-0.282758
H107	H	1.139259	-0.588582	-0.864528
H108	H	1.639259	-0.088582	-0.364528
H109	H	1.185401	-0.508335	-0.672705
H110	H	1.685401	-0.008335	-0.172705
H111	H	1.098857	-0.304705	-0.403903
H112	H	1.598857	0.195295	0.096097
C113	C	1.782343	-0.182879	-0.903207
C114	C	2.282343	0.317121	-0.403207
H115	H	1.772217	-0.190538	-0.830489
H116	H	2.272217	0.309462	-0.330489
H117	H	1.770594	-0.126857	-0.917628
H118	H	2.270594	0.373143	-0.417628
H119	H	1.852152	-0.195088	-0.921972
H120	H	2.352152	0.304912	-0.421972
C121	C	1.385142	-0.928520	-0.639193
C122	C	1.885142	-0.428520	-0.139193
H123	H	1.391170	-0.986591	-0.633215
H124	H	1.891170	-0.486591	-0.133215
H125	H	1.401355	-0.914244	-0.708903
H126	H	1.901355	-0.414244	-0.208903
H127	H	1.315433	-0.914363	-0.622855
H128	H	1.815433	-0.414363	-0.122855
C129	C	1.600261	-0.873765	-0.424318
C130	C	2.100261	-0.373765	0.075682
H131	H	1.594214	-0.815695	-0.430287
H132	H	2.094214	-0.315695	0.069713
H133	H	1.669972	-0.887916	-0.440630
H134	H	2.169972	-0.387916	0.059370
H135	H	1.584024	-0.888043	-0.354607
H136	H	2.084024	-0.388043	0.145393
H137	H	1.364624	-0.498110	-1.137947
H138	H	1.864624	0.001890	-0.637947
C139	C	1.633975	-0.294857	-0.795105
C140	C	2.133975	0.205143	-0.295105
H141	H	1.686150	-0.255476	-0.767791
H142	H	2.186150	0.244524	-0.267791
H143	H	1.648653	-0.348666	-0.773700
H144	H	2.148653	0.151334	-0.273700
H145	H	1.567099	-0.280431	-0.769365
H146	H	2.067099	0.219569	-0.269365
H147	H	1.762211	-0.198044	-1.118903
H148	H	2.262211	0.301956	-0.618903
H149	H	1.364552	-0.498152	-0.938880
H150	H	1.864552	0.001848	-0.438880
C151	C	0.863981	-0.620459	-0.820742
C152	C	1.363981	-0.120459	-0.320742
H153	H	0.910342	-0.652250	-0.862705
H154	H	1.410342	-0.152250	-0.362705
H155	H	0.823246	-0.588615	-0.864561
H156	H	1.323246	-0.088615	-0.364561
H157	H	0.818827	-0.656755	-0.782788
H158	H	1.318827	-0.156755	-0.282788
C159	C	0.755915	-0.508351	-0.672770
C160	C	1.255915	-0.008351	-0.172770
H161	H	0.728582	-0.547789	-0.724843
H162	H	1.228582	-0.047789	-0.224843
H163	H	0.734581	-0.454566	-0.687630
H164	H	1.234581	0.045434	-0.187630
H165	H	0.730122	-0.522708	-0.605861
H166	H	1.230122	-0.022708	-0.105861
C167	C	1.634090	-0.294736	-1.255932
C168	C	2.134090	0.205264	-0.755932
H169	H	1.686286	-0.255348	-1.278250
H170	H	2.186286	0.244652	-0.778250
H171	H	1.567231	-0.280311	-1.279837
H172	H	2.067231	0.219689	-0.779837
H173	H	1.648799	-0.348535	-1.284166
H174	H	2.148799	0.151465	-0.784166
