data_functionalizedCrystal
_audit_creation_method	'MofGen! by Chris Wilmer'
_symmetry_space_group_name_H-M	'P1'
_symmetry_Int_Tables_number	1
_symmetry_cell_setting	triclinic
loop_
_symmetry_equiv_pos_as_xyz
  x,y,z
_cell_length_a	12.759401
_cell_length_b	17.637651
_cell_length_c	17.639081
_cell_angle_alpha	114.332394
_cell_angle_beta	78.792883
_cell_angle_gamma	101.218433
loop_
_atom_site_label
_atom_site_type_symbol
_atom_site_fract_x
_atom_site_fract_y
_atom_site_fract_z
Zn1	Zn	1.435869	-0.234073	0.399519
Zn2	Zn	1.435826	-0.399772	0.233801
Zn3	Zn	1.289760	-0.261937	0.261716
Zn4	Zn	1.230642	-0.371886	0.371594
O5	O	1.348024	-0.316917	0.316657
O6	O	1.582880	-0.256063	0.377540
O7	O	1.441174	-0.404819	0.122166
O8	O	1.333900	-0.142880	0.303364
O9	O	1.582849	-0.377801	0.255788
O10	O	1.441246	-0.122409	0.404608
O11	O	1.333859	-0.303552	0.142675
O12	O	1.134901	-0.276512	0.276287
O13	O	1.233143	-0.330274	0.490636
O14	O	1.091467	-0.357292	0.357014
O15	O	1.383922	-0.229023	0.511152
O16	O	1.383850	-0.511433	0.228710
O17	O	1.233102	-0.490945	0.329946
C18	C	1.075064	-0.316900	0.316650
C19	C	0.958281	-0.316909	0.316662
C20	C	0.903390	-0.253603	0.380120
C21	C	0.793661	-0.253617	0.380122
C22	C	0.793725	-0.380252	0.253204
C23	C	0.903453	-0.380233	0.253200
C24	C	0.903351	-0.180493	0.453397
C25	C	0.793623	-0.180508	0.453399
C26	C	1.302081	-0.531097	0.273287
C27	C	1.282516	-0.622719	0.254760
C28	C	1.497282	-0.870411	0.457660
C29	C	1.478868	-0.956506	0.440237
C30	C	1.367200	-0.977950	0.334711
C31	C	1.385610	-0.891856	0.352122
C32	C	1.450651	-0.838092	0.413598
C33	C	1.338978	-0.859537	0.308060
C34	C	1.357382	-0.773449	0.325473
C35	C	1.422417	-0.719680	0.386948
C36	C	1.469054	-0.752004	0.431011
C37	C	1.273931	-0.913301	0.246588
C38	C	1.227300	-0.880983	0.202526
C39	C	1.245709	-0.794894	0.219935
C40	C	1.310744	-0.741125	0.281410
C41	C	1.199072	-0.762570	0.175871
C42	C	1.217475	-0.676482	0.193284
C43	C	1.329148	-0.655037	0.298823
C44	C	1.622051	-0.316935	0.316665
C45	C	1.738824	-0.316942	0.316668
C46	C	1.301942	-0.273430	0.531636
C47	C	1.282305	-0.254898	0.623247
C48	C	1.394172	-0.101897	0.360215
C49	C	1.413838	-0.010268	0.378777
C50	C	1.198758	-0.176060	0.763047
C51	C	1.217218	-0.193479	0.676963
C52	C	1.328955	-0.298926	0.655600
C53	C	1.310501	-0.281518	0.741683
C54	C	1.245403	-0.220084	0.795401
C55	C	1.357145	-0.325542	0.774037
C56	C	1.338697	-0.308133	0.860113
C57	C	1.273604	-0.246700	0.913836
C58	C	1.226954	-0.202674	0.881477
C59	C	1.422249	-0.386973	0.720319
C60	C	1.468894	-0.430997	0.752672
C61	C	1.450439	-0.413592	0.838749
C62	C	1.385347	-0.352158	0.892472
C63	C	1.497089	-0.457617	0.871108
C64	C	1.478641	-0.440207	0.957185
C65	C	1.366899	-0.334749	0.978549
C66	C	1.393913	-0.360250	1.102511
C67	C	1.413543	-0.378773	1.010902
H68	H	0.777466	-0.124428	0.442932
C69	C	1.400695	-0.595892	0.366451
N70	N	1.454577	-0.551343	0.417389
C71	C	1.166189	-0.640931	0.144806
N72	N	1.127560	-0.614155	0.108290
C73	C	0.963833	-0.449868	0.183385
N74	N	1.009312	-0.502319	0.130797
C75	C	1.540601	-0.692858	0.498639
N76	N	1.594483	-0.648310	0.549578
C77	C	1.155834	-0.940142	0.134852
N78	N	1.102035	-0.984705	0.083859
H79	H	1.381961	-0.348944	0.611853
H80	H	1.258938	-0.983397	0.232420
C81	C	1.127592	-0.821730	0.108208
N82	N	1.073778	-0.866292	0.057225
H83	H	0.746492	-0.184804	0.513724
H84	H	0.950450	-0.120052	0.449339
C85	C	1.568829	-0.811265	0.525289
N86	N	1.622711	-0.766716	0.576227
C87	C	1.295279	-0.267173	1.037642
N88	N	1.241339	-0.216276	1.082151
C89	C	1.530172	-0.992052	0.488715
N90	N	1.568811	-1.018824	0.525228
H91	H	1.521900	-0.481015	0.708925
C92	C	1.295735	-1.037110	0.267037
N93	N	1.241936	-1.081672	0.216044
C94	C	1.155335	-0.135098	0.940570
N95	N	1.101395	-0.084201	0.985079
H96	H	1.437400	-0.649582	0.401124
C97	C	1.127139	-0.108483	0.822141
N98	N	1.073199	-0.057587	0.866649
C99	C	0.733402	-0.449907	0.183402
N100	N	0.687967	-0.502374	0.130826
H101	H	1.258590	-0.232523	0.983925
H102	H	1.179234	-0.157621	0.650627
C103	C	1.442540	-0.406123	0.625632
N104	N	1.457820	-0.420547	0.554313
C105	C	1.568701	-0.525189	0.812009
N106	N	1.622638	-0.576086	0.767496
H107	H	0.919488	-0.191196	0.509342
C108	C	1.529949	-0.488639	0.992775
N109	N	1.568597	-0.525117	1.019582
