data_functionalizedCrystal
_audit_creation_method	'MofGen! by Chris Wilmer'
_symmetry_space_group_name_H-M	'P1'
_symmetry_Int_Tables_number	1
_symmetry_cell_setting	triclinic
loop_
_symmetry_equiv_pos_as_xyz
  x,y,z
_cell_length_a	13.033304
_cell_length_b	13.032318
_cell_length_c	16.959447
_cell_angle_alpha	97.212178
_cell_angle_beta	97.206123
_cell_angle_gamma	103.332818
loop_
_atom_site_label
_atom_site_type_symbol
_atom_site_fract_x
_atom_site_fract_y
_atom_site_fract_z
Zn1	Zn	-1.570118	0.216880	-0.577209
Zn2	Zn	-1.547429	0.394561	-0.425772
Zn3	Zn	-1.392495	0.239459	-0.425779
Zn4	Zn	-1.369876	0.417020	-0.538661
O5	O	-1.469980	0.316980	-0.491855
O6	O	-1.715751	0.221602	-0.573251
O7	O	-1.526847	0.374037	-0.315154
O8	O	-1.435019	0.087793	-0.462002
O9	O	-1.699081	0.352143	-0.461990
O10	O	-1.565518	0.071205	-0.573257
O11	O	-1.413018	0.260084	-0.315159
O12	O	-1.240852	0.281861	-0.424623
O13	O	-1.396468	0.390421	-0.654393
O14	O	-1.224234	0.412314	-0.507557
O15	O	-1.543586	0.243379	-0.682714
O16	O	-1.504914	0.546211	-0.424611
O17	O	-1.374467	0.562711	-0.507550
C18	C	-1.194002	0.351975	-0.461908
C19	C	-1.075934	0.366972	-0.449112
C20	C	-1.031531	0.309169	-0.498521
C21	C	-0.909502	0.324668	-0.485297
C22	C	-1.434803	0.593006	-0.461917
C23	C	-1.419851	0.711078	-0.449147
C24	C	-0.747036	0.281843	-0.521915
C25	C	-0.865102	0.266856	-0.534712
C26	C	-1.477712	0.755433	-0.498543
C27	C	-1.462260	0.877467	-0.485345
C28	C	-1.470035	0.316886	-0.698038
C29	C	-1.470059	0.316847	-0.785901
C30	C	-1.505259	1.039881	-0.521931
C31	C	-1.520129	0.921819	-0.534748
C32	C	-1.393603	0.393276	-1.142659
C33	C	-1.546797	0.240161	-1.172145
C34	C	-1.546766	0.240187	-1.089594
C35	C	-1.470153	0.316760	-1.033571
C36	C	-1.393571	0.393307	-1.060100
C37	C	-1.623353	0.163648	-1.063059
C38	C	-1.623325	0.163671	-0.980503
C39	C	-1.546707	0.240241	-0.924479
C40	C	-1.470121	0.316790	-0.951012
C41	C	-1.393508	0.393363	-0.894989
C42	C	-1.316917	0.469909	-0.921520
C43	C	-1.316952	0.469876	-1.004075
C44	C	-1.546672	0.240274	-0.841923
C45	C	-1.393477	0.393394	-0.812429
C46	C	-1.469995	0.316989	-0.286490
C47	C	-1.470216	0.316703	-0.198682
H48	H	-1.023608	0.427931	-0.397021
O49	O	-0.927387	0.194189	-0.596953
C50	C	-0.968183	0.138561	-0.740723
C51	C	-0.897556	0.220915	-0.670312
H52	H	-0.944105	0.160153	-0.800052
H53	H	-0.957316	0.055605	-0.733963
H54	H	-1.055477	0.138998	-0.740279
H55	H	-0.810236	0.220575	-0.670714
H56	H	-0.908515	0.303833	-0.677099
O57	O	-1.093824	0.236511	-0.560759
C58	C	-1.134631	0.180896	-0.704530
C59	C	-1.063995	0.263241	-0.634118
H60	H	-1.110555	0.202491	-0.763859
H61	H	-1.123771	0.097936	-0.697775
H62	H	-1.221922	0.181341	-0.704081
H63	H	-0.976677	0.262893	-0.634524
H64	H	-1.074946	0.346163	-0.640899
O65	O	-1.550588	0.693066	-0.560621
C66	C	-1.735563	0.635755	-0.622377
C67	C	-1.653140	0.706449	-0.552037
H68	H	-1.818497	0.646533	-0.615452
H69	H	-1.714203	0.659850	-0.681758
H70	H	-1.735008	0.548476	-0.621967
H71	H	-1.653651	0.793747	-0.552372
H72	H	-1.674529	0.682263	-0.492689
H73	H	-0.857179	0.385631	-0.433202
O74	O	-1.697873	0.089223	-1.117369
C75	C	-1.849781	-0.062686	-1.137915
C76	C	-1.765463	0.021560	-1.076317
H77	H	-1.904435	-0.117427	-1.104749
H78	H	-1.899189	-0.021027	-1.177287
H79	H	-1.808085	-0.112020	-1.177319
H80	H	-1.807071	0.070919	-1.036860
H81	H	-1.716060	-0.020165	-1.037002
H82	H	-1.685690	0.101343	-0.958909
H83	H	-1.401275	0.929836	-0.433285
H84	H	-1.609033	0.177954	-0.820325
H85	H	-1.581105	0.869452	-0.586815
H86	H	-1.358870	0.763451	-0.397090
O87	O	-1.319011	0.467889	-0.758118
C88	C	-1.167034	0.619726	-0.737584
C89	C	-1.251315	0.535435	-0.799176
H90	H	-1.112265	0.674345	-0.770756
H91	H	-1.208649	0.669187	-0.698206
H92	H	-1.117746	0.577993	-0.698185
H93	H	-1.300628	0.577081	-0.838629
H94	H	-1.209634	0.485980	-0.838498
H95	H	-1.254543	0.532259	-0.875895
O96	O	-1.242664	0.544181	-1.029985
C97	C	-1.174786	0.611948	-1.144101
C98	C	-1.258990	0.527755	-1.114864
H99	H	-1.187943	0.598683	-1.212728
H100	H	-1.182501	0.695281	-1.120646
H101	H	-1.091519	0.604166	-1.120563
H102	H	-1.342295	0.535438	-1.138391
H103	H	-1.251181	0.444456	-1.138310
H104	H	-1.331241	0.455595	-1.164265
H105	H	-1.609177	0.177823	-1.217764
