data_functionalizedCrystal
_audit_creation_method	'MofGen! by Chris Wilmer'
_symmetry_space_group_name_H-M	'P1'
_symmetry_Int_Tables_number	1
_symmetry_cell_setting	triclinic
loop_
_symmetry_equiv_pos_as_xyz
  x,y,z
_cell_length_a	16.974867
_cell_length_b	14.519709
_cell_length_c	15.455320
_cell_angle_alpha	87.318057
_cell_angle_beta	90.981827
_cell_angle_gamma	96.464177
loop_
_atom_site_label
_atom_site_type_symbol
_atom_site_fract_x
_atom_site_fract_y
_atom_site_fract_z
O1	O	-1.049233	0.117578	-0.001434
O2	O	-0.549233	0.617578	0.498566
O3	O	-0.819819	0.131655	0.014653
O4	O	-0.319819	0.631655	0.514653
O5	O	-0.940608	-0.009617	0.006175
O6	O	-0.440608	0.490383	0.506175
O7	O	-0.928444	0.258850	0.007044
O8	O	-0.428444	0.758850	0.507044
O9	O	-0.933729	-0.001541	-0.137604
O10	O	-0.433729	0.498459	0.362396
O11	O	-0.812940	0.139731	-0.129126
O12	O	-0.312940	0.639731	0.370874
O13	O	-1.042354	0.125654	-0.145213
O14	O	-0.542354	0.625654	0.354787
Cu15	Cu	-0.927019	0.133430	-0.150298
Cu16	Cu	-0.427019	0.633430	0.349702
Cu17	Cu	-0.935154	0.123879	0.019738
Cu18	Cu	-0.435154	0.623879	0.519738
O19	O	-0.921565	0.266927	-0.136735
O20	O	-0.421565	0.766927	0.363265
C21	C	-0.787019	0.135009	-0.055178
C22	C	-0.287019	0.635009	0.444822
C23	C	-0.699534	0.132960	-0.049043
C24	C	-0.199534	0.632960	0.450957
C25	C	-0.207495	0.120920	-0.006040
C26	C	0.292505	0.620920	0.493960
C27	C	-0.289695	0.122846	-0.011816
C28	C	0.210305	0.622846	0.488184
C29	C	-0.327037	0.128218	-0.093078
C30	C	0.172963	0.628218	0.406922
C31	C	-0.282175	0.131655	-0.168570
C32	C	0.217825	0.631655	0.331430
C33	C	-0.199976	0.129722	-0.162794
C34	C	0.300024	0.629722	0.337206
C35	C	-0.572473	0.134464	-0.118759
C36	C	-0.072473	0.634464	0.381241
C37	C	-0.654677	0.136400	-0.124529
C38	C	-0.154677	0.636400	0.375471
C39	C	-0.662192	0.127589	0.032226
C40	C	-0.162192	0.627589	0.532226
C41	C	-0.579991	0.125662	0.037995
C42	C	-0.079991	0.625662	0.537995
C43	C	-0.535136	0.129094	-0.037497
C44	C	-0.035136	0.629094	0.462503
N45	N	-0.411060	0.130190	-0.098984
N46	N	0.088940	0.630190	0.401016
N47	N	-0.451116	0.127116	-0.031590
N48	N	0.048884	0.627116	0.468410
C49	C	-0.936602	-0.039939	-0.065675
C50	C	-0.436602	0.460061	0.434325
C51	C	-0.934903	-0.142322	-0.065556
C52	C	-0.434903	0.357678	0.434444
C53	C	-0.928649	-0.517223	-0.065095
C54	C	-0.428649	-0.017223	0.434905
C55	C	-0.930386	-0.412914	-0.065223
C56	C	-0.430386	0.087086	0.434777
C57	C	-0.931776	-0.329776	-0.065326
C58	C	-0.431776	0.170224	0.434674
C59	C	-0.933513	-0.225460	-0.065453
C60	C	-0.433513	0.274540	0.434547
C61	C	-0.075154	0.122303	-0.075385
C62	C	0.424846	0.622303	0.424615
C63	C	-0.162638	0.124359	-0.081526
C64	C	0.337362	0.624359	0.418474
C65	C	-0.925571	0.297249	-0.064884
C66	C	-0.425571	0.797249	0.435116
C67	C	-0.927271	0.399631	-0.064997
C68	C	-0.427271	0.899631	0.435003
N69	N	-0.921303	0.140147	-0.269892
N70	N	-0.421303	0.640147	0.230108
C71	C	-0.889549	0.177157	-0.811671
C72	C	-0.389549	0.677157	-0.311671
C73	C	-0.893889	0.172095	-0.721168
C74	C	-0.393889	0.672095	-0.221168
C75	C	-0.949561	0.107035	-0.679664
C76	C	-0.449561	0.607035	-0.179664
C77	C	-1.000891	0.047027	-0.728669
C78	C	-0.500891	0.547027	-0.228669
C79	C	-0.996546	0.052085	-0.819170
C80	C	-0.496546	0.552085	-0.319170
C81	C	-0.968288	0.085197	-0.409398
C82	C	-0.468288	0.585197	0.090602
C83	C	-0.972630	0.080145	-0.318890
C84	C	-0.472630	0.580145	0.181110
C85	C	-0.865627	0.205213	-0.311395
C86	C	-0.365627	0.705213	0.188605
C87	C	-0.861291	0.210269	-0.401898
C88	C	-0.361291	0.710269	0.098102
C89	C	-0.912618	0.150258	-0.450895
C90	C	-0.412618	0.650258	0.049105
N91	N	-0.954000	0.101861	-0.587156
N92	N	-0.454000	0.601861	-0.087156
N93	N	-0.908174	0.155428	-0.543401
N94	N	-0.408174	0.655428	-0.043401
N95	N	-0.940876	0.117155	0.139331
N96	N	-0.440876	0.617155	0.639331
H97	H	-0.177096	0.116552	0.060133
H98	H	0.322904	0.616552	0.560133
O99	O	-1.054974	-0.016062	-0.688221
O100	O	-0.554974	0.483938	-0.188221
C101	C	-1.047806	-0.007659	-0.597835
C102	C	-0.547806	0.492341	-0.097835
H103	H	-1.019006	0.064861	-0.583433
H104	H	-0.519006	0.564861	-0.083433
H105	H	-1.109128	-0.019582	-0.567653
H106	H	-0.609128	0.480418	-0.067653
H107	H	-1.009490	-0.061459	-0.569331
H108	H	-0.509490	0.438541	-0.069331
H109	H	-0.852094	0.220952	-0.681273
H110	H	-0.352094	0.720952	-0.181273
H111	H	-0.815958	0.263246	-0.435688
H112	H	-0.315958	0.763246	0.064312
O113	O	-0.705642	0.124284	0.105640
O114	O	-0.205642	0.624284	0.605640
C115	C	-0.655059	0.119104	0.178601
C116	C	-0.155059	0.619104	0.678601
H117	H	-0.592140	0.148186	0.159968
H118	H	-0.092140	0.648186	0.659968
H119	H	-0.676494	0.161313	0.232100
H120	H	-0.176494	0.661313	0.732100
H121	H	-0.655640	0.043625	0.202734
H122	H	-0.155640	0.543625	0.702734
O123	O	-1.026734	0.016858	-0.278708
O124	O	-0.526734	0.516858	0.221292
C125	C	-1.071118	-0.035011	-0.341360
C126	C	-0.571118	0.464989	0.158640
H127	H	-1.035714	-0.032562	-0.403600
H128	H	-0.535714	0.467438	0.096400
H129	H	-1.084295	-0.110082	-0.316027
H130	H	-0.584295	0.389918	0.183973
H131	H	-1.129234	-0.004334	-0.355114
H132	H	-0.629234	0.495666	0.144886
O133	O	-0.690832	0.141570	-0.203542
O134	O	-0.190832	0.641570	0.296458
C135	C	-0.633615	0.144204	-0.268935
C136	C	-0.133615	0.644204	0.231065
H137	H	-0.579344	0.112367	-0.242072
H138	H	-0.079344	0.612367	0.257928
H139	H	-0.659683	0.103104	-0.325764
H140	H	-0.159683	0.603104	0.174236
H141	H	-0.615551	0.219268	-0.291849
H142	H	-0.115551	0.719268	0.208151
O143	O	-0.156302	0.133183	-0.236059
O144	O	0.343698	0.633183	0.263941
C145	C	-0.099724	0.212136	-0.236794
C146	C	0.400276	0.712136	0.263206
H147	H	-0.087735	0.234627	-0.167672
H148	H	0.412265	0.734627	0.332328
H149	H	-0.042314	0.194691	-0.266043
H150	H	0.457686	0.694691	0.233957
H151	H	-0.123372	0.270933	-0.277261
H152	H	0.376628	0.770933	0.222739
H153	H	-0.549593	0.121286	0.104168
H154	H	-0.049593	0.621286	0.604168
O155	O	-0.815880	0.263532	-0.263711
O156	O	-0.315880	0.763532	0.236289
C157	C	-0.860663	0.317666	-0.214363
C158	C	-0.360663	0.817666	0.285637
H159	H	-0.922927	0.280389	-0.205129
H160	H	-0.422927	0.780389	0.294871
H161	H	-0.830844	0.328587	-0.148414
H162	H	-0.330844	0.828587	0.351586
H163	H	-0.864429	0.387796	-0.249639
H164	H	-0.364429	0.887796	0.250361
O165	O	-0.333336	0.119638	0.061454
O166	O	0.166664	0.619638	0.561454
C167	C	-0.372278	0.200299	0.063439
C168	C	0.127722	0.700299	0.563439
H169	H	-0.378395	0.231012	-0.005267
H170	H	0.121605	0.731012	0.494733
H171	H	-0.433651	0.181846	0.092415
H172	H	0.066349	0.681846	0.592415
H173	H	-0.336279	0.253261	0.104774
H174	H	0.163721	0.753261	0.604774
H175	H	-0.535963	0.137246	-0.180230
H176	H	-0.035963	0.637246	0.319770
H177	H	-0.312586	0.136023	-0.234736
H178	H	0.187414	0.636023	0.265264
H179	H	-0.844219	0.230139	-0.845456
H180	H	-0.344219	0.730139	-0.345456
O181	O	-1.018043	0.026820	-0.457012
O182	O	-0.518043	0.526820	0.042988
C183	C	-0.973266	-0.027291	-0.506392
C184	C	-0.473266	0.472709	-0.006392
H185	H	-0.912426	-0.030584	-0.474755
H186	H	-0.412426	0.469416	0.025245
H187	H	-1.005276	-0.100428	-0.509646
H188	H	-0.505276	0.399572	-0.009646
H189	H	-0.965888	0.005383	-0.574703
H190	H	-0.465888	0.505383	-0.074703
H191	H	-1.038341	0.003224	-0.859064
H192	H	-0.538341	0.503224	-0.359064
