data_functionalizedCrystal
_audit_creation_method	'MofGen! by Chris Wilmer'
_symmetry_space_group_name_H-M	'P1'
_symmetry_Int_Tables_number	1
_symmetry_cell_setting	triclinic
loop_
_symmetry_equiv_pos_as_xyz
  x,y,z
_cell_length_a	15.944551
_cell_length_b	15.944493
_cell_length_c	13.596369
_cell_angle_alpha	89.999885
_cell_angle_beta	89.999164
_cell_angle_gamma	83.486891
loop_
_atom_site_label
_atom_site_type_symbol
_atom_site_fract_x
_atom_site_fract_y
_atom_site_fract_z
O1	O	1.114502	0.108336	-0.081676
O2	O	0.869950	0.121693	-0.081699
O3	O	0.998930	-0.007263	-0.081695
O4	O	0.985523	0.237293	-0.081680
O5	O	0.998917	-0.007270	0.081888
O6	O	0.869937	0.121686	0.081884
O7	O	1.114490	0.108330	0.081907
Zn8	Zn	0.992211	0.115007	0.107868
Zn9	Zn	0.992228	0.115016	-0.107660
O10	O	0.985510	0.237286	0.081903
C11	C	0.838650	0.121135	0.000090
C12	C	0.745404	0.119473	0.000080
C13	C	0.530565	0.035566	0.000094
C14	C	0.469543	0.074533	-0.080558
C15	C	0.574679	0.116465	0.000092
C16	C	0.469553	0.074545	0.080721
C17	C	0.409767	0.113555	0.000107
C18	C	0.514885	0.155454	-0.080628
C19	C	0.514901	0.155456	0.080725
C20	C	0.453897	0.194481	0.000053
C21	C	0.669681	0.118140	0.000082
C22	C	0.314766	0.111886	0.000110
C23	C	0.998375	-0.038562	0.000092
C24	C	0.996733	-0.131810	0.000080
C25	C	1.072653	-0.367570	0.000105
C26	C	1.031718	-0.418135	-0.080553
C27	C	0.993688	-0.302531	0.000092
C28	C	1.031687	-0.418118	0.080727
C29	C	0.990754	-0.467441	0.000107
C30	C	0.952775	-0.351868	-0.080633
C31	C	0.952756	-0.351847	0.080719
C32	C	0.911763	-0.402379	0.000041
C33	C	0.995381	-0.207531	0.000082
C34	C	0.989055	-0.562438	0.000110
C35	C	1.145790	0.108887	0.000117
C36	C	1.239036	0.110550	0.000120
C37	C	0.986064	0.268584	0.000114
C38	C	0.987707	0.361833	0.000120
N39	N	0.992206	0.115000	0.254960
N40	N	0.992240	0.115016	-0.254751
C41	C	0.992227	0.115017	0.656251
C42	C	0.992219	0.115015	0.544599
C43	C	0.992217	0.115009	0.455609
C44	C	0.992208	0.115006	0.343950
H45	H	0.535020	0.189641	0.148918
H46	H	0.843692	-0.417845	-0.000009
H47	H	1.140671	-0.351942	0.000031
H48	H	0.919431	-0.322889	0.148907
H49	H	0.919452	-0.323045	-0.148896
H50	H	0.449468	0.040310	0.148904
H51	H	0.563912	-0.031574	-0.000010
H52	H	0.449445	0.040319	-0.148749
H53	H	1.065046	-0.447052	0.148913
H54	H	0.534871	0.189649	-0.148887
H55	H	0.420724	0.261690	0.000012
H56	H	1.065071	-0.447078	-0.148738
