data_functionalizedCrystal
_audit_creation_method	'MofGen! by Chris Wilmer'
_symmetry_space_group_name_H-M	'P1'
_symmetry_Int_Tables_number	1
_symmetry_cell_setting	triclinic
loop_
_symmetry_equiv_pos_as_xyz
  x,y,z
_cell_length_a	10.654550
_cell_length_b	15.995350
_cell_length_c	9.130313
_cell_angle_alpha	90.000982
_cell_angle_beta	89.996220
_cell_angle_gamma	83.988639
loop_
_atom_site_label
_atom_site_type_symbol
_atom_site_fract_x
_atom_site_fract_y
_atom_site_fract_z
O1	O	1.666298	0.117599	-0.121912
O2	O	1.300673	0.128803	-0.121888
O3	O	1.493480	0.001371	-0.121899
O4	O	1.473491	0.245030	-0.121900
O5	O	1.493478	0.001375	0.121700
O6	O	1.300671	0.128807	0.121711
O7	O	1.666295	0.117602	0.121687
Cu8	Cu	1.483483	0.123205	0.143942
Cu9	Cu	1.483486	0.123201	-0.144142
O10	O	1.473488	0.245034	0.121698
C11	C	1.253885	0.127982	-0.000085
C12	C	1.114473	0.125521	-0.000076
C13	C	1.034008	0.200551	-0.000098
C14	C	0.903017	0.198233	-0.000123
C15	C	0.932971	0.045849	-0.000111
C16	C	1.063959	0.048168	-0.000075
C17	C	1.084522	0.277904	-0.000099
C18	C	1.004055	0.352940	-0.000122
C19	C	0.873064	0.350622	-0.000147
C20	C	0.822541	0.273268	-0.000149
C21	C	1.492652	-0.029827	-0.000102
C22	C	1.490175	-0.122791	-0.000110
C23	C	1.481278	-0.460591	-0.000105
C24	C	1.343964	-0.413954	-0.000642
C25	C	1.346442	-0.317249	-0.000093
C26	C	1.485691	-0.293004	-0.000108
C27	C	1.553417	-0.333687	0.138991
C28	C	1.549968	-0.430342	0.139108
C29	C	1.552807	-0.430688	-0.137910
C30	C	1.552775	-0.333743	-0.139748
C31	C	1.488192	-0.198292	-0.000106
C32	C	1.478780	-0.555303	-0.000098
C33	C	1.713084	0.118423	-0.000119
C34	C	1.852495	0.120884	-0.000137
C35	C	1.474316	0.276232	-0.000101
C36	C	1.476793	0.369197	-0.000103
N37	N	1.483490	0.123207	0.346564
N38	N	1.483488	0.123192	-0.346765
C39	C	1.568887	0.066800	0.423211
C40	C	1.568883	0.066789	0.576548
C41	C	1.398083	0.179602	0.576578
C42	C	1.398081	0.179607	0.423244
C43	C	1.654296	0.010399	0.346532
C44	C	1.739700	-0.046012	0.423179
C45	C	1.739697	-0.046022	0.576516
C46	C	1.654289	0.010379	0.653206
H47	H	1.045200	0.415918	-0.000108
H48	H	1.503258	-0.306783	-0.242650
H49	H	1.655720	-0.318967	0.144153
O50	O	1.497118	-0.300100	0.262355
C51	C	1.396574	-0.239803	0.223402
H52	H	1.363119	-0.253361	0.108049
H53	H	1.429922	-0.174394	0.226787
C54	C	1.327979	-0.227331	0.473782
C55	C	1.286882	-0.243987	0.332107
H56	H	1.260317	-0.229908	0.540839
H57	H	1.395720	-0.267952	0.500027
H58	H	1.355769	-0.172824	0.476582
H59	H	1.259108	-0.298497	0.329305
H60	H	1.219134	-0.203375	0.305864
O61	O	1.283036	-0.283573	-0.119015
C62	C	1.285238	-0.195592	-0.118551
H63	H	1.369012	-0.178713	-0.051085
H64	H	1.193986	-0.164543	-0.068483
C65	C	1.194852	-0.184962	-0.359677
C66	C	1.297752	-0.164231	-0.276824
H67	H	1.202565	-0.165615	-0.457307
H68	H	1.193364	-0.244235	-0.359988
H69	H	1.118819	-0.159086	-0.317937
H70	H	1.373781	-0.190115	-0.318554
H71	H	1.299253	-0.104961	-0.276524
H72	H	1.654285	0.010361	0.778063
H73	H	1.507914	-0.451490	-0.243339
H74	H	1.289324	-0.433864	0.098560
O75	O	1.315179	0.234505	0.650906
C76	C	1.335601	0.317521	0.613475
H77	H	1.384004	0.317723	0.502140
H78	H	1.398107	0.343800	0.699771
C79	C	1.148642	0.372184	0.743153
C80	C	1.208081	0.372433	0.606404
H81	H	1.069983	0.406058	0.738797
H82	H	1.134885	0.316255	0.768377
H83	H	1.200742	0.394082	0.815052
H84	H	1.155988	0.350526	0.534511
H85	H	1.221826	0.428360	0.581168
H86	H	0.807551	0.411720	-0.000152
H87	H	1.328542	0.225538	0.360837
O88	O	0.883687	-0.029216	-0.000191
C89	C	0.750819	-0.015172	-0.000194
H90	H	0.720073	0.049991	-0.046316
H91	H	0.714323	-0.019441	0.116661
C92	C	0.734274	-0.162125	-0.039099
C93	C	0.696512	-0.082093	-0.095759
H94	H	0.700773	-0.203407	-0.098042
H95	H	0.823790	-0.171588	-0.039092
H96	H	0.703859	-0.165671	0.058279
H97	H	0.726940	-0.078546	-0.193128
H98	H	0.606999	-0.072632	-0.095785
O99	O	1.673640	-0.467777	-0.139241
C100	C	1.736883	-0.440531	-0.263277
H101	H	1.688005	-0.377610	-0.302029
H102	H	1.734796	-0.488969	-0.354606
C103	C	1.934844	-0.507613	-0.175456
C104	C	1.874817	-0.430329	-0.223043
H105	H	2.019930	-0.501323	-0.150642
H106	H	1.892236	-0.525972	-0.091892
H107	H	1.933092	-0.547970	-0.251571
H108	H	1.876556	-0.389976	-0.146923
H109	H	1.917429	-0.411963	-0.306594
H110	H	1.500580	-0.448929	0.243098
H111	H	1.191179	0.279800	-0.000085
O112	O	1.278318	-0.436321	-0.119595
C113	C	1.155756	-0.393486	-0.116796
H114	H	1.155827	-0.334140	-0.047671
H115	H	1.087499	-0.436013	-0.067263
C116	C	1.113893	-0.442307	-0.358929
C117	C	1.113984	-0.369413	-0.274038
H118	H	1.088122	-0.427461	-0.455922
H119	H	1.196464	-0.471168	-0.360813
H120	H	1.057014	-0.477739	-0.317634
H121	H	1.170874	-0.333988	-0.315322
H122	H	1.031421	-0.340545	-0.272164
O123	O	1.282336	-0.284317	0.118920
C124	C	1.180410	-0.227081	0.072637
H125	H	1.153682	-0.242526	-0.044441
H126	H	1.209026	-0.160417	0.077070
C127	C	1.099347	-0.214776	0.318041
C128	C	1.066513	-0.233751	0.174248
H129	H	1.029091	-0.218887	0.380722
H130	H	1.168019	-0.253335	0.349225
H131	H	1.123195	-0.159225	0.321715
H132	H	1.042681	-0.289305	0.170573
H133	H	0.997834	-0.195202	0.143065
H134	H	1.129477	-0.012928	-0.000061
O135	O	1.822597	-0.100934	0.650811
C136	C	1.802180	-0.183948	0.613353
H137	H	1.753775	-0.184140	0.502026
H138	H	1.739678	-0.210237	0.699650
C139	C	1.989145	-0.238619	0.742982
C140	C	1.929703	-0.238855	0.606242
H141	H	2.067805	-0.272490	0.738601
H142	H	2.002899	-0.182691	0.768223
H143	H	1.937047	-0.260525	0.814881
H144	H	1.981793	-0.216940	0.534349
H145	H	1.915961	-0.294781	0.580988
H146	H	1.809230	-0.091937	0.360730
H147	H	1.654321	-0.317791	-0.148158
O148	O	1.670294	-0.468030	0.146455
C149	C	1.739119	-0.444087	0.024258
H150	H	1.692782	-0.381936	-0.020939
H151	H	1.740170	-0.494590	-0.063971
C152	C	1.932384	-0.510002	0.126524
C153	C	1.875479	-0.433663	0.071020
H154	H	2.016499	-0.503576	0.155366
H155	H	1.886016	-0.526136	0.208849
H156	H	1.933249	-0.552080	0.052991
H157	H	1.874601	-0.391589	0.144559
H158	H	1.921850	-0.417522	-0.011291
H159	H	0.715878	0.271387	-0.000147
H160	H	1.654308	0.010404	0.221678
