data_functionalizedCrystal
_audit_creation_method	'MofGen! by Chris Wilmer'
_symmetry_space_group_name_H-M	'P1'
_symmetry_Int_Tables_number	1
_symmetry_cell_setting	triclinic
loop_
_symmetry_equiv_pos_as_xyz
  x,y,z
_cell_length_a	10.723024
_cell_length_b	16.992695
_cell_length_c	15.455313
_cell_angle_alpha	87.152573
_cell_angle_beta	92.706391
_cell_angle_gamma	87.568046
loop_
_atom_site_label
_atom_site_type_symbol
_atom_site_fract_x
_atom_site_fract_y
_atom_site_fract_z
O1	O	-1.671793	-0.106632	-0.072126
O2	O	-1.309547	-0.117164	-0.072129
O3	O	-1.489217	0.002253	-0.072121
O4	O	-1.492123	-0.226048	-0.072135
O5	O	-1.478940	-0.004548	0.072141
O6	O	-1.299270	-0.123964	0.072132
O7	O	-1.661515	-0.113432	0.072135
Cu8	Cu	-1.479454	-0.119319	0.085306
Cu9	Cu	-1.491608	-0.111277	-0.085300
O10	O	-1.481846	-0.232848	0.072127
C11	C	-1.480343	0.028085	0.000010
C12	C	-1.469195	0.115189	0.000009
C13	C	-1.257843	-0.119797	0.000001
C14	C	-1.119092	-0.117504	0.000000
C15	C	-1.713220	-0.110798	0.000003
C16	C	-1.851972	-0.113091	-0.000002
C17	C	-1.049863	-0.184323	-0.000004
C18	C	-0.906455	-0.181954	-0.000005
C19	C	-1.490720	-0.258680	-0.000006
C20	C	-1.501869	-0.345784	-0.000011
N21	N	-1.470915	-0.124975	0.205301
C22	C	-1.576755	0.164851	0.000011
C23	C	-1.566274	0.246694	0.000003
C24	C	-1.448231	0.278874	-0.000001
C25	C	-1.340663	0.229206	-0.000005
C26	C	-1.351146	0.147364	-0.000003
C27	C	-1.404784	0.522706	-0.000013
C28	C	-1.394308	0.604554	-0.000013
C29	C	-1.619921	0.622037	-0.000006
C30	C	-1.630393	0.540193	0.000001
C31	C	-1.522825	0.490532	-0.000008
N32	N	-1.437514	0.362531	-0.000007
N33	N	-1.533543	0.406877	-0.000008
N34	N	-1.500157	-0.105614	-0.205295
C35	C	-1.547275	-0.074262	0.250699
C36	C	-1.540830	-0.078546	0.341507
C37	C	-1.458029	-0.133549	0.386915
C38	C	-1.381660	-0.184264	0.341511
C39	C	-1.388101	-0.179975	0.250705
C40	C	-1.430229	-0.152041	0.658495
C41	C	-1.423797	-0.156328	0.749307
C42	C	-1.582965	-0.050608	0.749297
C43	C	-1.589403	-0.046327	0.658489
C44	C	-1.513030	-0.097040	0.613093
N45	N	-1.451441	-0.137931	0.479735
N46	N	-1.519612	-0.092653	0.520275
H47	H	-1.096761	-0.243283	-0.000003
H48	H	-1.614706	-0.029476	0.213734
H49	H	-0.846949	-0.239157	-0.000013
H50	H	-1.726516	0.513998	0.000005
H51	H	-1.656826	-0.001540	0.621519
H52	H	-1.653861	0.287126	0.000006
H53	H	-0.911471	-0.055885	-0.000003
H54	H	-1.298178	0.630750	-0.000002
H55	H	-1.672878	0.138657	0.000020
C56	C	-1.304109	-0.235770	0.200768
N57	N	-1.240844	-0.277797	0.163156
C58	C	-1.286455	0.468090	-0.000028
N59	N	-1.197324	0.426950	-0.000041
C60	C	-1.666959	0.005178	0.799240
N61	N	-1.730222	0.047201	0.836857
C62	C	-1.210813	0.264606	-0.000002
N63	N	-1.113007	0.291268	0.000006
C64	C	-1.290566	-0.244760	0.391463
N65	N	-1.221952	-0.290327	0.429086
H66	H	-1.356367	-0.201120	0.786274
H67	H	-1.072194	-0.058543	-0.000018
H68	H	-1.707496	0.662479	-0.000000
C69	C	-1.346387	-0.207929	0.608571
N70	N	-1.283295	-0.250064	0.570965
H71	H	-1.603007	-0.037251	0.378469
C72	C	-1.232821	0.092736	-0.000003
N73	N	-1.143694	0.051591	-0.000005
