data_functionalizedCrystal
_audit_creation_method	'MofGen! by Chris Wilmer'
_symmetry_space_group_name_H-M	'P1'
_symmetry_Int_Tables_number	1
_symmetry_cell_setting	triclinic
loop_
_symmetry_equiv_pos_as_xyz
  x,y,z
_cell_length_a	26.455835
_cell_length_b	26.455273
_cell_length_c	26.451828
_cell_angle_alpha	60.005170
_cell_angle_beta	60.010757
_cell_angle_gamma	59.993435
loop_
_atom_site_label
_atom_site_type_symbol
_atom_site_fract_x
_atom_site_fract_y
_atom_site_fract_z
O1	O	0.069940	-0.738516	0.617604
O2	O	0.026299	-0.574986	0.497618
O3	O	0.129847	-0.678463	0.497546
O4	O	-0.033607	-0.635040	0.617676
O5	O	0.164197	-0.644116	0.531822
O6	O	0.060649	-0.540639	0.531894
O7	O	0.104290	-0.704170	0.651880
Cu8	Cu	0.085606	-0.619268	0.595016
Cu9	Cu	0.044984	-0.659887	0.554481
O10	O	0.000742	-0.600693	0.651952
N11	N	0.114179	-0.590703	0.623530
N12	N	0.016416	-0.688458	0.525968
C13	C	0.157553	-0.547535	0.933368
C14	C	0.424104	-0.547506	0.666656
C15	C	0.157413	-0.547503	0.666729
C16	C	0.157397	-0.280846	0.666749
C17	C	0.200330	-0.409550	0.709625
C18	C	0.200339	-0.504608	0.709615
C19	C	0.224118	-0.480848	0.733375
C20	C	0.327800	-0.462984	0.678792
C21	C	0.392611	-0.484588	0.657175
C22	C	0.392630	-0.589450	0.697162
C23	C	0.327821	-0.567844	0.718781
C24	C	0.215955	-0.377135	0.645910
C25	C	0.194327	-0.312320	0.624323
C26	C	0.141457	-0.312339	0.730169
C27	C	0.163084	-0.377154	0.751756
C28	C	0.136618	-0.488954	0.725292
C29	C	0.115007	-0.510553	0.703686
C30	C	0.220833	-0.563461	0.650740
C31	C	0.242447	-0.541861	0.672339
C32	C	0.136680	-0.488971	0.837094
C33	C	0.115112	-0.510589	0.901907
C34	C	0.220969	-0.563508	0.901868
C35	C	0.242535	-0.541892	0.837053
C36	C	0.200389	-0.504622	0.804668
C37	C	0.295409	-0.504610	0.709593
C38	C	0.132990	-0.570876	1.004655
C39	C	0.495389	-0.570440	0.642547
C40	C	0.132802	-0.570856	0.643399
C41	C	0.133212	-0.209553	0.643833
C42	C	-0.097217	-0.706972	0.506986
C43	C	-0.002040	-0.707108	0.412067
C44	C	-0.002230	-0.802124	0.507163
C45	C	-0.002214	-0.707101	0.507221
C46	C	-0.025925	-0.730827	0.483360
N47	N	0.553723	-0.590712	0.623415
O48	O	0.751638	-0.596429	0.475603
O49	O	0.751819	-0.716773	0.638980
O50	O	0.751753	-0.716500	0.535361
O51	O	0.751705	-0.596703	0.579222
O52	O	0.648791	-0.682239	0.569747
O53	O	0.648858	-0.682512	0.673366
O54	O	0.648676	-0.562169	0.509989
Cu55	Cu	0.639366	-0.619212	0.594817
Cu56	Cu	0.761130	-0.659729	0.554152
O57	O	0.648743	-0.562442	0.613609
N58	N	0.846773	-0.688230	0.525548
N59	N	0.114157	-0.151217	0.623565
O60	O	-0.033591	0.046803	0.617717
O61	O	0.129795	0.046806	0.497390
O62	O	0.026157	0.046789	0.497680
O63	O	0.070046	0.046819	0.617427
O64	O	0.060509	-0.056181	0.532004
O65	O	0.164146	-0.056164	0.531714
O66	O	0.000760	-0.056167	0.652041
Cu67	Cu	0.085590	-0.065568	0.595012
Cu68	Cu	0.044965	0.056206	0.554419
O69	O	0.104397	-0.056151	0.651751
N70	N	0.016390	0.141855	0.525867
N71	N	0.114410	-0.590756	1.062992
O72	O	0.108565	-0.738494	1.260998
O73	O	-0.011747	-0.575059	1.261012
O74	O	-0.011470	-0.678679	1.260970
O75	O	0.108287	-0.634874	1.261040
O76	O	0.022849	-0.644347	1.158004
O77	O	0.022572	-0.540726	1.158046
O78	O	0.142884	-0.704162	1.158033
Cu79	Cu	0.085861	-0.619309	1.148638
Cu80	Cu	0.045275	-0.659911	1.270406
O81	O	0.142606	-0.600541	1.158074
N82	N	0.016726	-0.688471	1.356052
C83	C	0.039385	-0.537207	0.498225
C84	C	0.167616	-0.665350	0.498136
C85	C	0.091204	-0.741950	0.651272
C86	C	-0.037027	-0.613806	0.651361
C87	C	0.700360	-0.716215	0.676756
C88	C	0.700279	-0.715877	0.548436
C89	C	0.700133	-0.562725	0.472214
C90	C	0.700218	-0.563065	0.600533
C91	C	0.167511	-0.004552	0.497940
C92	C	0.039211	-0.004699	0.498341
C93	C	-0.036999	-0.004682	0.651449
C94	C	0.091344	-0.004663	0.651090
C95	C	-0.011156	-0.537302	1.209530
C96	C	-0.010806	-0.665617	1.209458
C97	C	0.142293	-0.741918	1.209514
C98	C	0.141950	-0.613596	1.209563
H99	H	0.063231	-0.497836	0.928300
C100	C	0.242077	-0.727594	0.432941
C101	C	0.230991	-0.677842	0.447207
H102	H	0.281204	-0.735308	0.401502
H103	H	0.210591	-0.717793	0.418723
H104	H	0.241962	-0.763426	0.468923
H105	H	0.231101	-0.642009	0.411226
H106	H	0.262485	-0.687641	0.461423
H107	H	0.179573	-0.604224	1.209577
H108	H	0.102355	-0.458618	0.810728
C109	C	-0.114677	-0.625474	1.209355
C110	C	-0.061578	-0.678240	1.209373
H111	H	-0.146022	-0.633270	1.209307
H112	H	-0.105025	-0.591710	1.173470
H113	H	-0.128999	-0.615663	1.245283
H114	H	-0.047253	-0.688048	1.173443
H115	H	-0.071230	-0.712014	1.245262
H116	H	-0.083976	-0.604550	0.689083
C117	C	0.277374	-0.056974	0.467508
C118	C	0.230726	-0.004164	0.446816
H119	H	0.316401	-0.056732	0.435949
H120	H	0.270023	-0.092957	0.477133
H121	H	0.277339	-0.057040	0.503471
H122	H	0.230757	-0.004100	0.410856
H123	H	0.238078	0.031828	0.437183
C124	C	-0.127624	0.048261	0.719015
C125	C	-0.100341	-0.004678	0.702452
H126	H	-0.166727	0.048261	0.750506
H127	H	-0.133061	0.084157	0.683833
H128	H	-0.101592	0.048261	0.733951
H129	H	-0.126371	-0.004676	0.687513
H130	H	-0.094907	-0.040583	0.737642
C131	C	-0.033878	-0.004750	0.469876
C132	C	0.026541	-0.004734	0.447562
H133	H	-0.041695	-0.004782	0.438530
H134	H	-0.062437	0.031165	0.481129
H135	H	-0.038473	-0.040651	0.505098
H136	H	0.031135	0.031170	0.412342
H137	H	0.055108	-0.040652	0.436300
C138	C	0.753096	-0.495618	0.571076
C139	C	0.700202	-0.512262	0.613200
H140	H	0.753088	-0.464257	0.578900
H141	H	0.753053	-0.480487	0.530098
H142	H	0.789021	-0.530821	0.575671
H143	H	0.664277	-0.477059	0.608602
H144	H	0.700240	-0.527391	0.654189
C145	C	0.171248	-0.843612	1.209483
C146	C	0.193288	-0.805282	1.209508
H147	H	0.202731	-0.882730	1.209482
H148	H	0.160005	-0.825081	1.173571
H149	H	0.136067	-0.849026	1.245384
H150	H	0.228467	-0.799865	1.173604
H151	H	0.204540	-0.823817	1.245423
H152	H	0.100526	-0.788925	0.688956
H153	H	0.700405	-0.753994	0.723681
C154	C	0.164452	-0.004670	0.679574
C155	C	0.104027	-0.004668	0.701883
H156	H	0.172283	-0.004680	0.710935
H157	H	0.169049	0.031239	0.644375
H158	H	0.193004	-0.040577	0.668293
H159	H	0.075474	0.031242	0.713159
H160	H	0.099424	-0.040580	0.737093
H161	H	0.255291	-0.593843	0.928229
H162	H	0.294416	-0.554643	0.810656
C163	C	0.012567	-0.456104	0.758209
C164	C	0.044964	-0.493357	0.720922
H165	H	-0.030674	-0.445494	0.768853
H166	H	0.023170	-0.419455	0.736224
H167	H	0.023226	-0.478106	0.794842
H168	H	0.034308	-0.471354	0.684286
H169	H	0.034356	-0.530013	0.742906
H170	H	0.030065	-0.490230	0.460543
C171	C	0.700243	-0.744373	0.475354
C172	C	0.700298	-0.766683	0.535770
H173	H	0.700251	-0.775738	0.467538
H174	H	0.736122	-0.733079	0.446787
H175	H	0.664312	-0.709175	0.470770
H176	H	0.736232	-0.801877	0.540353
H177	H	0.664415	-0.777985	0.564345
H178	H	0.102328	-0.458621	0.755642
H179	H	0.700073	-0.524942	0.425295
C180	C	-0.040112	-0.435609	1.209562
C181	C	-0.062151	-0.473938	1.209536
H182	H	-0.071596	-0.396493	1.209569
H183	H	-0.004936	-0.430193	1.173665
H184	H	-0.028865	-0.454144	1.245478
H185	H	-0.073394	-0.455405	1.173618
H186	H	-0.097338	-0.479352	1.245437
H187	H	0.255124	-0.593799	0.620395
H188	H	0.419022	-0.640939	0.704632
H189	H	0.301449	-0.601745	0.743862
C190	C	0.339266	-0.537048	0.590641
C191	C	0.312488	-0.559045	0.655103
H192	H	0.382506	-0.547655	0.580000
H193	H	0.321032	-0.493323	0.575761
H194	H	0.332429	-0.555257	0.572446
H195	H	0.319321	-0.540832	0.673298
H196	H	0.330728	-0.602778	0.669990
C197	C	0.412524	-0.395090	0.570230
C198	C	0.428217	-0.438830	0.623313
H199	H	0.434510	-0.366843	0.549323
H200	H	0.369292	-0.373177	0.581793
H201	H	0.423138	-0.415589	0.543569
H202	H	0.417599	-0.418331	0.649976
H203	H	0.471459	-0.460745	0.611751
C204	C	0.266027	-0.370605	0.539117
C205	C	0.256890	-0.412747	0.599603
H206	H	0.291295	-0.392591	0.510528
H207	H	0.285815	-0.345327	0.532886
H208	H	0.227165	-0.345325	0.532915
H209	H	0.295751	-0.438024	0.605806
H210	H	0.237102	-0.438036	0.605836
C211	C	0.157456	-0.239418	0.538649
C212	C	0.211498	-0.276685	0.554282
H213	H	0.168059	-0.217423	0.495409
H214	H	0.132186	-0.210852	0.560647
H215	H	0.135479	-0.264711	0.549279
H216	H	0.233473	-0.251392	0.543656
H217	H	0.236779	-0.305255	0.532276
C218	C	0.091383	-0.318863	0.836963
C219	C	0.100520	-0.276724	0.776477
H220	H	0.066107	-0.296876	0.865551
H221	H	0.130238	-0.344137	0.843168
H222	H	0.071597	-0.344149	0.843193
H223	H	0.120310	-0.251441	0.770245
H224	H	0.061658	-0.251440	0.770269
C225	C	0.254930	-0.384625	0.726102
C226	C	0.292173	-0.393477	0.668694
H227	H	0.232932	-0.341713	0.719866
H228	H	0.280230	-0.399825	0.749833
H229	H	0.226363	-0.406325	0.747536
H230	H	0.320744	-0.371780	0.647263
H231	H	0.266871	-0.378268	0.644954
H232	H	0.150353	-0.403547	0.803641
