data_functionalizedCrystal
_audit_creation_method	'MofGen! by Chris Wilmer'
_symmetry_space_group_name_H-M	'P1'
_symmetry_Int_Tables_number	1
_symmetry_cell_setting	triclinic
loop_
_symmetry_equiv_pos_as_xyz
  x,y,z
_cell_length_a	19.188905
_cell_length_b	19.188930
_cell_length_c	15.021413
_cell_angle_alpha	89.998889
_cell_angle_beta	89.985589
_cell_angle_gamma	83.139668
loop_
_atom_site_label
_atom_site_type_symbol
_atom_site_fract_x
_atom_site_fract_y
_atom_site_fract_z
O1	O	0.926160	0.087075	-0.074189
O2	O	0.722846	0.098828	-0.074160
O3	O	0.830370	-0.008705	-0.074158
O4	O	0.818636	0.194607	-0.074191
O5	O	0.830353	-0.008690	0.073907
O6	O	0.722829	0.098843	0.073905
O7	O	0.926143	0.087090	0.073876
Zn8	Zn	0.824483	0.092969	0.097398
Zn9	Zn	0.824506	0.092949	-0.097683
O10	O	0.818619	0.194623	0.073874
C11	C	0.696826	0.098458	-0.000124
C12	C	0.619321	0.097324	-0.000112
C13	C	0.582938	0.096771	-0.080824
C14	C	0.510115	0.095698	-0.080835
C15	C	0.473678	0.095164	-0.000129
C16	C	0.510069	0.095721	0.080594
C17	C	0.582890	0.096801	0.080602
N18	N	0.364651	0.053741	0.059939
N19	N	0.295474	0.052714	0.059926
C20	C	0.254272	0.091911	-0.000150
N21	N	0.284861	0.132166	-0.060225
N22	N	0.354044	0.133190	-0.060214
C23	C	0.394716	0.093993	-0.000129
C24	C	0.138925	0.090196	-0.080879
C25	C	0.066100	0.089127	-0.080887
C26	C	0.066056	0.089143	0.080544
C27	C	0.138879	0.090219	0.080549
C28	C	0.175310	0.090742	-0.000165
C29	C	0.829982	-0.034708	-0.000123
C30	C	0.828841	-0.112213	-0.000115
C31	C	0.891933	-0.157142	-0.000120
C32	C	0.890861	-0.229966	-0.000134
C33	C	0.826694	-0.257857	-0.000125
C34	C	0.763594	-0.212917	-0.000126
C35	C	0.764668	-0.140095	-0.000120
N36	N	0.777640	-0.365852	0.050271
N37	N	0.776625	-0.435031	0.050268
C38	C	0.823456	-0.477265	-0.000143
N39	N	0.871351	-0.447709	-0.050539
N40	N	0.872369	-0.378524	-0.050532
C41	C	0.825523	-0.336819	-0.000132
C42	C	0.885390	-0.601159	-0.000164
C43	C	0.884315	-0.673984	-0.000184
C44	C	0.757047	-0.656933	-0.000167
C45	C	0.758123	-0.584110	-0.000156
C46	C	0.822296	-0.556228	-0.000151
C47	C	0.952163	0.087460	-0.000162
C48	C	1.029668	0.088594	-0.000180
C49	C	0.819007	0.220626	-0.000163
C50	C	0.820148	0.298131	-0.000177
N51	N	0.824473	0.092982	0.230536
N52	N	0.824522	0.092930	-0.230820
C53	C	0.774746	0.142682	0.470218
C54	C	0.837795	0.156035	0.529541
C55	C	0.824491	0.092965	0.412143
C56	C	0.761459	0.079627	0.529562
C57	C	0.824502	0.092950	0.587567
C58	C	0.887572	0.106349	0.470159
C59	C	0.811194	0.029914	0.470175
C60	C	0.874288	0.043240	0.529471
C61	C	0.824483	0.092976	0.311086
C62	C	0.824517	0.092938	0.688622
H63	H	0.612596	0.097197	-0.146548
H64	H	0.940893	0.117687	0.444176
H65	H	0.036478	0.088681	-0.146615
O66	O	0.952370	-0.722446	-0.000181
H67	H	0.983106	-0.712548	-0.060521
H68	H	0.480397	0.095288	0.146305
O69	O	0.696616	-0.091629	-0.000111
H70	H	0.694059	-0.058046	0.060240
O71	O	0.852675	0.226655	0.564117
H72	H	0.859584	0.262020	0.507141
O73	O	0.470861	0.095087	-0.167891
H74	H	0.508429	0.095625	-0.224014
H75	H	0.036390	0.088712	0.146256
H76	H	0.612512	0.097252	0.146330
H77	H	0.706747	-0.547527	-0.000147
H78	H	0.168503	0.090664	0.146274
H79	H	0.944187	-0.134445	-0.000118
H80	H	0.168588	0.090629	-0.146601
H81	H	0.708149	0.068354	0.555657
H82	H	0.732721	0.184760	0.444202
O83	O	0.958911	-0.278440	-0.000127
H84	H	1.003714	-0.246817	-0.000115
H85	H	0.799916	-0.023382	0.444078
O86	O	0.694383	-0.242993	-0.000106
H87	H	0.704235	-0.301179	-0.000098
H88	H	0.916407	0.001187	0.555324
O89	O	0.954600	-0.571076	-0.000176
H90	H	0.998294	-0.614557	-0.000199
H91	H	0.704801	-0.679641	-0.000164
