data_functionalizedCrystal
_audit_creation_method	'MofGen! by Chris Wilmer'
_symmetry_space_group_name_H-M	'P1'
_symmetry_Int_Tables_number	1
_symmetry_cell_setting	triclinic
loop_
_symmetry_equiv_pos_as_xyz
  x,y,z
_cell_length_a	18.050591
_cell_length_b	25.639239
_cell_length_c	18.050582
_cell_angle_alpha	90.024638
_cell_angle_beta	90.020922
_cell_angle_gamma	90.034692
loop_
_atom_site_label
_atom_site_type_symbol
_atom_site_fract_x
_atom_site_fract_y
_atom_site_fract_z
Zn1	Zn	1.135238	-0.208240	0.420021
Zn2	Zn	1.468572	0.125094	0.753354
Zn3	Zn	1.801905	0.458427	1.086687
Zn4	Zn	1.135126	-0.295667	0.295826
Zn5	Zn	1.468460	0.037666	0.629160
Zn6	Zn	1.801793	0.370999	0.962493
Zn7	Zn	1.011058	-0.208242	0.295832
Zn8	Zn	1.344391	0.125092	0.629165
Zn9	Zn	1.677724	0.458425	0.962498
Zn10	Zn	1.010983	-0.295640	0.419962
Zn11	Zn	1.344316	0.037693	0.753295
Zn12	Zn	1.677650	0.371027	1.086628
O13	O	1.073101	-0.251947	0.357910
O14	O	1.406435	0.081386	0.691243
O15	O	1.739768	0.414719	1.024577
O16	O	1.239148	-0.219848	0.403568
O17	O	1.572482	0.113485	0.736902
O18	O	1.905815	0.446819	1.070235
O19	O	1.118653	-0.284083	0.191902
O20	O	1.451986	0.049251	0.525236
O21	O	1.785320	0.382584	0.858569
O22	O	1.027609	-0.135076	0.312333
O23	O	1.360942	0.198257	0.645666
O24	O	1.694275	0.531590	0.978999
O25	O	1.239066	-0.284081	0.312323
O26	O	1.572399	0.049253	0.645657
O27	O	1.905733	0.382586	0.978990
O28	O	1.118844	-0.135075	0.403574
O29	O	1.452177	0.198259	0.736907
O30	O	1.785510	0.531592	1.070241
O31	O	1.027500	-0.219851	0.191906
O32	O	1.360833	0.113482	0.525240
O33	O	1.694167	0.446815	0.858573
O34	O	0.907123	-0.219825	0.312276
O35	O	1.240457	0.113509	0.645609
O36	O	1.573790	0.446842	0.978942
O37	O	1.027481	-0.284034	0.523894
O38	O	1.360815	0.049300	0.857228
O39	O	1.694148	0.382633	1.190561
O40	O	0.907068	-0.284036	0.403473
O41	O	1.240402	0.049298	0.736807
O42	O	1.573735	0.382631	1.070140
O43	O	1.118771	-0.219821	0.523938
O44	O	1.452105	0.113512	0.857271
O45	O	1.785438	0.446846	1.190604
O46	O	1.118580	-0.368829	0.312266
O47	O	1.451914	-0.035496	0.645599
O48	O	1.785247	0.297838	0.978933
O49	O	1.027373	-0.368809	0.403468
O50	O	1.360706	-0.035475	0.736801
O51	O	1.694039	0.297858	1.070135
C52	C	0.880149	-0.251928	0.357869
C53	C	1.213483	0.081406	0.691202
C54	C	1.546816	0.414739	1.024536
C55	C	0.797604	-0.251932	0.357869
C56	C	1.130937	0.081401	0.691202
C57	C	1.464270	0.414735	1.024536
C58	C	0.598161	-0.216974	0.308390
C59	C	0.931495	0.116360	0.641723
C60	C	1.264828	0.449693	0.975057
C61	C	0.548729	-0.264661	0.290112
C62	C	0.882062	0.068672	0.623445
C63	C	1.215396	0.402006	0.956778
C64	C	0.646473	-0.251948	0.357903
C65	C	0.979806	0.081385	0.691236
C66	C	1.313140	0.414719	1.024569
C67	C	0.548824	-0.204277	0.376179
C68	C	0.882157	0.129056	0.709513
C69	C	1.215490	0.462390	1.042846
C70	C	0.500488	-0.251959	0.357934
C71	C	0.833821	0.081374	0.691267
C72	C	1.167155	0.414708	1.024600
C73	C	0.598128	-0.299660	0.339589
C74	C	0.931462	0.033673	0.672922
C75	C	1.264795	0.367006	1.006255
C76	C	0.598227	-0.239244	0.425688
C77	C	0.931560	0.094089	0.759021
C78	C	1.264894	0.427423	1.092355
C79	C	0.548817	-0.286965	0.407435
C80	C	0.882151	0.046369	0.740769
C81	C	1.215484	0.379702	1.074102
C82	C	0.730571	-0.251941	0.357883
C83	C	1.063905	0.081393	0.691216
C84	C	1.397238	0.414726	1.024550
C85	C	0.416392	-0.251971	0.357954
C86	C	0.749725	0.081362	0.691287
C87	C	1.083058	0.414695	1.024620
C88	C	1.072977	-0.387790	0.357876
C89	C	1.406310	-0.054456	0.691209
C90	C	1.739643	0.278877	1.024543
C91	C	1.072991	-0.445904	0.357886
C92	C	1.406324	-0.112570	0.691220
C93	C	1.739658	0.220763	1.024553
C94	C	1.120717	-0.806265	0.310502
C95	C	1.454051	-0.472932	0.643836
C96	C	1.787384	-0.139598	0.977169
C97	C	1.120746	-0.860869	0.310512
C98	C	1.454079	-0.527536	0.643846
C99	C	1.787413	-0.194202	0.977179
O100	O	1.161195	-0.889104	0.270187
O101	O	1.494528	-0.555771	0.603521
O102	O	1.827862	-0.222438	0.936854
N103	N	1.073232	-0.888186	0.357959
N104	N	1.406565	-0.554853	0.691293
N105	N	1.739899	-0.221520	1.024626
C106	C	1.025691	-0.860896	0.405405
C107	C	1.359025	-0.527563	0.738738
C108	C	1.692358	-0.194230	1.072072
O109	O	0.985280	-0.889145	0.445764
O110	O	1.318613	-0.555812	0.779097
O111	O	1.651947	-0.222479	1.112431
C112	C	1.025667	-0.806293	0.405398
C113	C	1.359000	-0.472960	0.738732
C114	C	1.692334	-0.139626	1.072065
C115	C	1.073179	-0.778979	0.357943
C116	C	1.406512	-0.445645	0.691276
C117	C	1.739845	-0.112312	1.024609
C118	C	1.168226	-0.778951	0.263051
C119	C	1.501559	-0.445617	0.596385
C120	C	1.834892	-0.112284	0.929718
C121	C	1.168196	-0.724350	0.263040
C122	C	1.501529	-0.391017	0.596374
C123	C	1.834862	-0.057683	0.929707
C124	C	1.120657	-0.697064	0.310481
C125	C	1.453991	-0.363730	0.643814
C126	C	1.787324	-0.030397	0.977147
C127	C	1.073149	-0.724378	0.357932
C128	C	1.406482	-0.391045	0.691265
C129	C	1.739815	-0.057711	1.024599
C130	C	0.978131	-0.779004	0.452847
C131	C	1.311464	-0.445670	0.786180
C132	C	1.644797	-0.112337	1.119514
C133	C	0.978111	-0.724397	0.452837
C134	C	1.311444	-0.391063	0.786170
C135	C	1.644777	-0.057730	1.119503
C136	C	1.025622	-0.697083	0.405381
C137	C	1.358956	-0.363749	0.738714
C138	C	1.692289	-0.030416	1.072048
C139	C	1.025580	-0.642491	0.405362
C140	C	1.358914	-0.309158	0.738695
C141	C	1.692247	0.024175	1.072028
N142	N	1.073094	-0.615174	0.357914
N143	N	1.406428	-0.281841	0.691248
N144	N	1.739761	0.051492	1.024581
C145	C	1.120633	-0.642460	0.310474
C146	C	1.453966	-0.309127	0.643807
C147	C	1.787299	0.024206	0.977141
C148	C	1.025747	-0.975567	0.405416
C149	C	1.359081	-0.642233	0.738750
C150	C	1.692414	-0.308900	1.072083
C151	C	1.025768	-1.030169	0.405420
C152	C	1.359101	-0.696836	0.738753
C153	C	1.692434	-0.363502	1.072087
C154	C	1.120823	-1.030138	0.310528
C155	C	1.454157	-0.696805	0.643861
C156	C	1.787490	-0.363472	0.977195
C157	C	1.120799	-0.975535	0.310521
C158	C	1.454132	-0.642202	0.643855
C159	C	1.787465	-0.308868	0.977188
C160	C	1.073261	-0.948250	0.357969
C161	C	1.406595	-0.614916	0.691303
C162	C	1.739928	-0.281583	1.024636
C163	C	1.120566	-0.527795	0.310455
C164	C	1.453899	-0.194462	0.643788
C165	C	1.787233	0.138871	0.977121
C166	C	1.120530	-0.473190	0.310446
C167	C	1.453863	-0.139857	0.643779
C168	C	1.787196	0.193477	0.977113
C169	C	1.025477	-0.473226	0.405340
C170	C	1.358810	-0.139892	0.738674
C171	C	1.692144	0.193441	1.072007
C172	C	1.025510	-0.527826	0.405347
C173	C	1.358843	-0.194493	0.738680
C174	C	1.692177	0.138840	1.072013
C175	C	1.073061	-0.555110	0.357901
C176	C	1.406394	-0.221776	0.691235
C177	C	1.739727	0.111557	1.024568
O178	O	0.985154	-0.614222	0.445668
O179	O	1.318488	-0.280888	0.779001
O180	O	1.651821	0.052445	1.112335
O181	O	1.161044	-0.614205	0.270129
O182	O	1.494377	-0.280871	0.603462
O183	O	1.827711	0.052462	0.936796
C184	C	1.266807	-0.251967	0.357952
C185	C	1.600140	0.081366	0.691285
C186	C	1.933474	0.414700	1.024618
C187	C	1.349353	-0.251976	0.357970
C188	C	1.682686	0.081358	0.691303
C189	C	2.016019	0.414691	1.024636
C190	C	1.073131	-0.251924	0.551616
C191	C	1.406464	0.081409	0.884949
C192	C	1.739797	0.414743	1.218282
C193	C	1.073143	-0.251914	0.634162
C194	C	1.406476	0.081419	0.967495
C195	C	1.739810	0.414753	1.300828
C196	C	1.073247	-0.115574	0.357961
C197	C	1.406580	0.217759	0.691294
C198	C	1.739914	0.551093	1.024627
C199	C	1.073309	-0.057460	0.357982
C200	C	1.406642	0.275873	0.691315
C201	C	1.739976	0.609207	1.024649
C202	C	1.073115	-0.251933	0.164958
C203	C	1.406449	0.081401	0.498291
C204	C	1.739782	0.414734	0.831625
C205	C	1.073247	-0.251795	0.082413
C206	C	1.406580	0.081538	0.415746
C207	C	1.739913	0.414871	0.749079
C208	C	1.023537	-0.286785	0.833589
C209	C	1.356871	0.046548	1.166922
C210	C	1.690204	0.379881	1.500256
C211	C	1.091289	-0.299569	0.882987
C212	C	1.424623	0.033764	1.216320
C213	C	1.757956	0.367098	1.549653
C214	C	1.073180	-0.251874	0.785292
C215	C	1.406513	0.081459	1.118625
C216	C	1.739846	0.414792	1.451959
C217	C	1.005465	-0.239076	0.882976
C218	C	1.338798	0.094257	1.216309
C219	C	1.672132	0.427591	1.549643
C220	C	1.073209	-0.251837	0.931277
C221	C	1.406542	0.081497	1.264611
C222	C	1.739876	0.414830	1.597944
C223	C	1.140967	-0.264683	0.833603
C224	C	1.474300	0.068650	1.166936
C225	C	1.807634	0.401984	1.500269
C226	C	1.055097	-0.204168	0.833588
C227	C	1.388430	0.129166	1.166921
C228	C	1.721764	0.462499	1.500254
C229	C	1.122896	-0.216933	0.882963
C230	C	1.456229	0.116400	1.216297
C231	C	1.789562	0.449733	1.549630
C232	C	1.073162	-0.251897	0.701194
C233	C	1.406495	0.081436	1.034527
C234	C	1.739828	0.414769	1.367860
C235	C	1.073235	-0.251814	1.015374
C236	C	1.406568	0.081520	1.348707
C237	C	1.739901	0.414853	1.682041
H238	H	0.619696	-0.339992	0.324080
H239	H	0.953030	-0.006659	0.657413
H240	H	1.286363	0.326675	0.990746
H241	H	0.619985	-0.228476	0.482982
H242	H	0.953319	0.104857	0.816316
H243	H	1.286652	0.438191	1.149649
H244	H	0.619827	-0.187429	0.266473
H245	H	0.953160	0.145905	0.599807
H246	H	1.286493	0.479238	0.933140
H247	H	0.527126	-0.163963	0.391599
H248	H	0.860460	0.169371	0.724932
H249	H	1.193793	0.502704	1.058266
H250	H	1.159219	-0.450952	0.271799
H251	H	1.492553	-0.117619	0.605133
H252	H	1.825886	0.215714	0.938466
H253	H	0.527288	-0.316580	0.449320
H254	H	0.860621	0.016753	0.782653
H255	H	1.193955	0.350087	1.115986
Cl256	Cl	1.180343	-0.562086	0.250807
Cl257	Cl	1.513676	-0.228753	0.584140
Cl258	Cl	1.847010	0.104580	0.917474
Cl259	Cl	0.965721	-0.438913	0.464980
Cl260	Cl	1.299055	-0.105579	0.798314
Cl261	Cl	1.632388	0.227754	1.131647
Cl262	Cl	1.031425	-0.141921	0.800058
Cl263	Cl	1.364759	0.191412	1.133391
Cl264	Cl	1.698092	0.524745	1.466725
H265	H	1.164937	-0.187394	0.904505
H266	H	1.498271	0.145939	1.237839
H267	H	1.831604	0.479272	1.571172
H268	H	0.526989	-0.275415	0.232800
H269	H	0.860322	0.057919	0.566133
H270	H	1.193655	0.391252	0.899467
H271	H	1.206941	-0.801161	0.224419
H272	H	1.540275	-0.467828	0.557753
H273	H	1.873608	-0.134495	0.891086
Cl274	Cl	1.227940	-0.690020	0.203390
Cl275	Cl	1.561273	-0.356687	0.536723
Cl276	Cl	1.894606	-0.023354	0.870057
Cl277	Cl	1.180531	-0.941203	0.250862
Cl278	Cl	1.513864	-0.607869	0.584195
Cl279	Cl	1.847198	-0.274536	0.917529
H280	H	0.948187	-0.228267	0.904665
H281	H	1.281520	0.105067	1.237998
H282	H	1.614854	0.438400	1.571331
H283	H	0.981596	-0.316347	0.811910
H284	H	1.314929	0.016986	1.145244
H285	H	1.648263	0.350320	1.478577
H286	H	0.939438	-0.801234	0.491487
H287	H	1.272771	-0.467900	0.824820
H288	H	1.606104	-0.134567	1.158154
Cl289	Cl	1.180585	-1.064451	0.250887
Cl290	Cl	1.513919	-0.731118	0.584220
Cl291	Cl	1.847252	-0.397785	0.917554
H292	H	0.987072	-1.052404	0.444056
H293	H	1.320405	-0.719070	0.777389
H294	H	1.653738	-0.385737	1.110723
H295	H	0.987030	-0.953354	0.444052
H296	H	1.320364	-0.620020	0.777385
H297	H	1.653697	-0.286687	1.110719
Cl298	Cl	0.965765	-0.562165	0.464990
Cl299	Cl	1.299099	-0.228832	0.798324
Cl300	Cl	1.632432	0.104502	1.131657
H301	H	0.939401	-0.702184	0.491477
H302	H	1.272734	-0.368850	0.824810
H303	H	1.606067	-0.035517	1.158144
H304	H	1.106602	-0.339897	0.904685
H305	H	1.439935	-0.006564	1.238018
H306	H	1.773268	0.326769	1.571352
H307	H	1.198261	-0.275538	0.812006
H308	H	1.531595	0.057795	1.145339
H309	H	1.864928	0.391129	1.478672
