data_functionalizedCrystal
_audit_creation_method	'MofGen! by Chris Wilmer'
_symmetry_space_group_name_H-M	'P1'
_symmetry_Int_Tables_number	1
_symmetry_cell_setting	triclinic
loop_
_symmetry_equiv_pos_as_xyz
  x,y,z
_cell_length_a	22.010155
_cell_length_b	23.532407
_cell_length_c	23.532407
_cell_angle_alpha	82.848678
_cell_angle_beta	90.000423
_cell_angle_gamma	90.003069
loop_
_atom_site_label
_atom_site_type_symbol
_atom_site_fract_x
_atom_site_fract_y
_atom_site_fract_z
O1	O	-0.050455	-0.755264	-0.069127
O2	O	0.282878	-0.421930	0.264206
O3	O	0.616211	-0.088597	0.597540
O4	O	-0.050474	-0.589400	-0.079130
O5	O	0.282859	-0.256067	0.254203
O6	O	0.616193	0.077266	0.587537
O7	O	-0.050453	-0.677334	0.008803
O8	O	0.282880	-0.344000	0.342137
O9	O	0.616214	-0.010667	0.675470
O10	O	-0.050476	-0.667330	-0.157060
O11	O	0.282857	-0.333997	0.176273
O12	O	0.616190	-0.000664	0.509607
O13	O	0.050597	-0.677318	0.008790
O14	O	0.383931	-0.343984	0.342123
O15	O	0.717264	-0.010651	0.675457
O16	O	0.050576	-0.589384	-0.079143
O17	O	0.383910	-0.256051	0.254190
O18	O	0.717243	0.077282	0.587523
O19	O	0.050595	-0.755248	-0.069140
O20	O	0.383928	-0.421914	0.264193
O21	O	0.717262	-0.088581	0.597527
Cu22	Cu	0.059812	-0.672315	-0.074143
Cu23	Cu	0.393146	-0.338981	0.259190
Cu24	Cu	0.726479	-0.005648	0.592524
Cu25	Cu	-0.059691	-0.672333	-0.074127
Cu26	Cu	0.273642	-0.339000	0.259206
Cu27	Cu	0.606975	-0.005667	0.592539
O28	O	0.050574	-0.667314	-0.157073
O29	O	0.383907	-0.333981	0.176260
O30	O	0.717241	-0.000648	0.509593
C31	C	0.000049	-0.568176	-0.078882
C32	C	0.333382	-0.234843	0.254451
C33	C	0.666715	0.098490	0.587785
C34	C	0.000042	-0.504959	-0.078116
C35	C	0.333375	-0.171626	0.255217
C36	C	0.666709	0.161707	0.588551
N37	N	0.143865	-0.672305	-0.074153
N38	N	0.477198	-0.338972	0.259180
N39	N	0.810531	-0.005639	0.592513
N40	N	-0.143744	-0.672347	-0.074112
N41	N	0.189589	-0.339014	0.259221
N42	N	0.522923	-0.005680	0.592555
C43	C	0.563653	-0.711273	-0.035196
C44	C	0.896987	-0.377939	0.298137
C45	C	1.230320	-0.044606	0.631471
C46	C	0.627261	-0.711275	-0.035192
C47	C	0.960594	-0.377942	0.298141
C48	C	1.293928	-0.044609	0.631475
O49	O	0.660160	-0.744384	-0.002076
O50	O	0.993494	-0.411050	0.331257
O51	O	1.326827	-0.077717	0.664590
N52	N	0.659072	-0.672333	-0.074115
N53	N	0.992405	-0.339000	0.259218
N54	N	1.325739	-0.005667	0.592551
C55	C	0.627272	-0.633382	-0.113041
C56	C	0.960605	-0.300049	0.220292
C57	C	1.293938	0.033285	0.553625
O58	O	0.660170	-0.600259	-0.146148
O59	O	0.993503	-0.266925	0.187185
O60	O	1.326837	0.066408	0.520519
C61	C	0.563665	-0.633377	-0.113042
C62	C	0.896999	-0.300044	0.220291
C63	C	1.230332	0.033289	0.553625
C64	C	0.531858	-0.672326	-0.074120
C65	C	0.865191	-0.338992	0.259213
C66	C	1.198524	-0.005659	0.592547
C67	C	0.531846	-0.750217	0.003723
C68	C	0.865179	-0.416884	0.337057
C69	C	1.198513	-0.083551	0.670390
C70	C	0.468243	-0.750215	0.003719
C71	C	0.801576	-0.416882	0.337052
C72	C	1.134909	-0.083549	0.670385
C73	C	0.436447	-0.711268	-0.035205
C74	C	0.769780	-0.377935	0.298128
C75	C	1.103114	-0.044602	0.631461
C76	C	0.468255	-0.672324	-0.074125
C77	C	0.801588	-0.338990	0.259209
C78	C	1.134921	-0.005657	0.592542
C79	C	0.531866	-0.594424	-0.151965
C80	C	0.865200	-0.261091	0.181368
C81	C	1.198533	0.072243	0.514702
C82	C	0.468256	-0.594422	-0.151962
C83	C	0.801589	-0.261089	0.181371
C84	C	1.134922	0.072245	0.514705
C85	C	0.436448	-0.633370	-0.113040
C86	C	0.769781	-0.300037	0.220293
C87	C	1.103115	0.033296	0.553627
C88	C	0.372856	-0.633374	-0.113054
C89	C	0.706189	-0.300041	0.220280
C90	C	1.039522	0.033292	0.553613
N91	N	0.341045	-0.672317	-0.074130
N92	N	0.674378	-0.338983	0.259203
N93	N	1.007712	-0.005650	0.592536
C94	C	0.372841	-0.711263	-0.035206
C95	C	0.706174	-0.377930	0.298127
C96	C	1.039507	-0.044597	0.631460
C97	C	0.760850	-0.633395	-0.113036
C98	C	1.094183	-0.300061	0.220297
C99	C	1.427516	0.033272	0.553631
C100	C	0.824455	-0.633402	-0.113039
C101	C	1.157788	-0.300069	0.220295
C102	C	1.491122	0.033265	0.553628
C103	C	0.824440	-0.711294	-0.035188
C104	C	1.157773	-0.377961	0.298145
C105	C	1.491106	-0.044628	0.631478
C106	C	0.760833	-0.711290	-0.035189
C107	C	1.094167	-0.377956	0.298144
C108	C	1.427500	-0.044623	0.631478
C109	C	0.729039	-0.672337	-0.074113
C110	C	1.062372	-0.339003	0.259221
C111	C	1.395705	-0.005670	0.592554
C112	C	0.239269	-0.711256	-0.035220
C113	C	0.572603	-0.377923	0.298114
C114	C	0.905936	-0.044590	0.631447
C115	C	0.175660	-0.711252	-0.035229
C116	C	0.508994	-0.377919	0.298104
C117	C	0.842327	-0.044586	0.631437
C118	C	0.175681	-0.633358	-0.113077
C119	C	0.509014	-0.300025	0.220256
C120	C	0.842348	0.033309	0.553589
C121	C	0.239284	-0.633364	-0.113070
C122	C	0.572618	-0.300031	0.220264
C123	C	0.905951	0.033303	0.553597
C124	C	0.271077	-0.672315	-0.074136
C125	C	0.604410	-0.338982	0.259197
C126	C	0.937744	-0.005649	0.592531
O127	O	0.339916	-0.600282	-0.146151
O128	O	0.673249	-0.266948	0.187182
O129	O	1.006583	0.066385	0.520516
O130	O	0.339935	-0.744376	-0.002100
O131	O	0.673268	-0.411043	0.331233
O132	O	1.006601	-0.077710	0.664567
C133	C	0.000074	-0.677071	0.030013
C134	C	0.333407	-0.343738	0.363346
C135	C	0.666740	-0.010404	0.696679
C136	C	0.000078	-0.676305	0.093230
C137	C	0.333412	-0.342972	0.426563
C138	C	0.666745	-0.009638	0.759896
C139	C	0.000071	-0.776472	-0.069388
C140	C	0.333404	-0.443138	0.263945
C141	C	0.666737	-0.109805	0.597278
C142	C	0.000073	-0.839689	-0.070154
C143	C	0.333407	-0.506355	0.263179
C144	C	0.666740	-0.173022	0.596513
C145	C	0.000063	-0.105856	-0.125350
C146	C	0.333396	0.227477	0.207984
C147	C	0.666730	0.560810	0.541317
C148	C	0.000067	-0.046456	-0.124638
C149	C	0.333400	0.286877	0.208695
C150	C	0.666733	0.620211	0.542029
O151	O	0.000083	-0.009711	-0.168424
O152	O	0.333416	0.323622	0.164909
O153	O	0.666749	0.656955	0.498243
N154	N	0.000073	-0.023830	-0.072362
N155	N	0.333407	0.309504	0.260972
N156	N	0.666740	0.642837	0.594305
C157	C	0.000082	-0.060607	-0.020794
C158	C	0.333415	0.272726	0.312540
C159	C	0.666749	0.606059	0.645873
O160	O	0.000088	-0.035908	0.023737
O161	O	0.333422	0.297426	0.357070
O162	O	0.666755	0.630759	0.690404
C163	C	0.000082	-0.120006	-0.021506
C164	C	0.333416	0.213327	0.311828
C165	C	0.666749	0.546660	0.645161
C166	C	0.000070	-0.142629	-0.073785
C167	C	0.333403	0.190704	0.259548
C168	C	0.666737	0.524038	0.592881
C169	C	0.000051	-0.128479	-0.177625
C170	C	0.333385	0.204854	0.155708
C171	C	0.666718	0.538187	0.489042
C172	C	0.000046	-0.187876	-0.178336
C173	C	0.333380	0.145458	0.154997
C174	C	0.666713	0.478791	0.488330
C175	C	0.000053	-0.224649	-0.126772
C176	C	0.333386	0.108685	0.206561
C177	C	0.666720	0.442018	0.539895
C178	C	0.000065	-0.202025	-0.074497
C179	C	0.333398	0.131308	0.258837
C180	C	0.666732	0.464641	0.592170
C181	C	0.000096	-0.156783	0.030062
C182	C	0.333429	0.176550	0.363395
C183	C	0.666762	0.509884	0.696729
C184	C	0.000097	-0.216185	0.029345
C185	C	0.333430	0.117148	0.362679
C186	C	0.666763	0.450481	0.696012
C187	C	0.000084	-0.238808	-0.022934
C188	C	0.333417	0.094525	0.310399
C189	C	0.666751	0.427859	0.643732
C190	C	0.000067	-0.298194	-0.023643
C191	C	0.333400	0.035139	0.309690
C192	C	0.666734	0.368472	0.643023
N193	N	0.000061	-0.320820	-0.075920
N194	N	0.333394	0.012513	0.257414
N195	N	0.666727	0.345846	0.590747
C196	C	0.000054	-0.284048	-0.127484
C197	C	0.333387	0.049286	0.205849
C198	C	0.666720	0.382619	0.539183
C199	C	0.000082	0.064135	-0.019302
C200	C	0.333415	0.397468	0.314031
C201	C	0.666749	0.730802	0.647365
C202	C	0.000077	0.123533	-0.018589
C203	C	0.333410	0.456866	0.314744
C204	C	0.666744	0.790200	0.648077
C205	C	0.000063	0.137680	-0.122434
C206	C	0.333396	0.471014	0.210899
C207	C	0.666730	0.804347	0.544232
C208	C	0.000064	0.078281	-0.123146
C209	C	0.333397	0.411615	0.210187
C210	C	0.666730	0.744948	0.543520
C211	C	0.000076	0.041509	-0.071578
C212	C	0.333409	0.374842	0.261755
C213	C	0.666742	0.708176	0.595088
C214	C	0.000043	-0.408784	-0.128974
C215	C	0.333376	-0.075451	0.204360
C216	C	0.666709	0.257882	0.537693
C217	C	0.000035	-0.468186	-0.129680
C218	C	0.333369	-0.134853	0.203653
C219	C	0.666702	0.198480	0.536986
C220	C	0.000052	-0.482329	-0.025836
C221	C	0.333386	-0.148995	0.307497
C222	C	0.666719	0.184338	0.640831
C223	C	0.000057	-0.422932	-0.025129
C224	C	0.333390	-0.089598	0.308204
C225	C	0.666723	0.243735	0.641538
C226	C	0.000054	-0.386160	-0.076702
C227	C	0.333387	-0.052827	0.256631
C228	C	0.666721	0.280506	0.589964
O229	O	0.000054	-0.334974	0.020119
O230	O	0.333387	-0.001640	0.353453
O231	O	0.666720	0.331693	0.686786
O232	O	0.000055	-0.308755	-0.172007
O233	O	0.333389	0.024578	0.161326
O234	O	0.666722	0.357911	0.494660
C235	C	0.000046	-0.667577	-0.178283
C236	C	0.333379	-0.334244	0.155051
C237	C	0.666712	-0.000910	0.488384
C238	C	0.000037	-0.668343	-0.241500
C239	C	0.333371	-0.335010	0.091833
C240	C	0.666704	-0.001676	0.425167
C241	C	0.000050	-0.723539	0.492333
C242	C	0.333384	-0.390205	0.825666
C243	C	0.666717	-0.056872	1.158999
C244	C	0.000046	-0.722827	0.551733
C245	C	0.333379	-0.389494	0.885066
C246	C	0.666712	-0.056160	1.218400
O247	O	0.000028	-0.766613	0.588478
O248	O	0.333361	-0.433280	0.921811
O249	O	0.666695	-0.099946	1.255144
N250	N	0.000040	-0.670551	0.574359
N251	N	0.333373	-0.337217	0.907693
N252	N	0.666707	-0.003884	1.241026
C253	C	0.000033	-0.618983	0.537582
C254	C	0.333366	-0.285649	0.870915
C255	C	0.666700	0.047684	1.204248
O256	O	0.000027	-0.574452	0.562281
O257	O	0.333361	-0.241119	0.895615
O258	O	0.666694	0.092215	1.228948
C259	C	0.000033	-0.619695	0.478182
C260	C	0.333367	-0.286361	0.811516
C261	C	0.666700	0.046972	1.144849
C262	C	0.000045	-0.671974	0.455560
C263	C	0.333378	-0.338641	0.788893
C264	C	0.666712	-0.005308	1.122227
C265	C	0.000061	-0.775814	0.469710
C266	C	0.333394	-0.442481	0.803043
C267	C	0.666728	-0.109147	1.136376
C268	C	0.000067	-0.776525	0.410313
C269	C	0.333400	-0.443192	0.743647
C270	C	0.666734	-0.109859	1.076980
C271	C	0.000062	-0.724961	0.373540
C272	C	0.333395	-0.391628	0.706874
C273	C	0.666729	-0.058294	1.040207
C274	C	0.000051	-0.672685	0.396164
C275	C	0.333384	-0.339352	0.729497
C276	C	0.666718	-0.006019	1.062830
C277	C	0.000022	-0.568127	0.441406
C278	C	0.333356	-0.234794	0.774739
C279	C	0.666689	0.098540	1.108073
C280	C	0.000022	-0.568844	0.382004
C281	C	0.333355	-0.235510	0.715337
C282	C	0.666689	0.097823	1.048670
C283	C	0.000034	-0.621123	0.359381
C284	C	0.333367	-0.287790	0.692714
C285	C	0.666700	0.045543	1.026048
C286	C	0.000052	-0.621832	0.299995
C287	C	0.333385	-0.288499	0.633328
C288	C	0.666718	0.044834	0.966661
N289	N	0.000057	-0.674109	0.277368
N290	N	0.333390	-0.340775	0.610702
N291	N	0.666724	-0.007442	0.944035
C292	C	0.000062	-0.725673	0.314141
C293	C	0.333396	-0.392340	0.647475
C294	C	0.666729	-0.059006	0.980808
C295	C	0.000031	-0.617491	0.662324
C296	C	0.333365	-0.284158	0.995657
C297	C	0.666698	0.049176	1.328991
C298	C	0.000035	-0.616778	0.721722
C299	C	0.333369	-0.283445	1.055055
C300	C	0.666702	0.049888	1.388389
C301	C	0.000047	-0.720623	0.735869
C302	C	0.333380	-0.387290	1.069203
C303	C	0.666713	-0.053957	1.402536
C304	C	0.000047	-0.721335	0.676470
C305	C	0.333380	-0.388002	1.009804
C306	C	0.666714	-0.054669	1.343137
C307	C	0.000037	-0.669767	0.639698
C308	C	0.333370	-0.336434	0.973031
C309	C	0.666703	-0.003101	1.306365
C310	C	0.000075	-0.727163	0.189405
C311	C	0.333408	-0.393829	0.522738
C312	C	0.666742	-0.060496	0.856071
C313	C	0.000083	-0.727869	0.130003
C314	C	0.333417	-0.394536	0.463336
C315	C	0.666750	-0.061203	0.796669
C316	C	0.000069	-0.624025	0.115860
C317	C	0.333402	-0.290692	0.449194
C318	C	0.666736	0.042642	0.782527
C319	C	0.000064	-0.623318	0.175257
C320	C	0.333397	-0.289985	0.508591
C321	C	0.666730	0.043349	0.841924
C322	C	0.000065	-0.674891	0.212029
C323	C	0.333398	-0.341558	0.545362
C324	C	0.666731	-0.008225	0.878695
O325	O	0.000067	-0.578070	0.263215
O326	O	0.333400	-0.244736	0.596549
O327	O	0.666733	0.088597	0.929882
O328	O	0.000060	-0.770196	0.289433
O329	O	0.333393	-0.436863	0.622767
O330	O	0.666727	-0.103529	0.956100
H331	H	0.149765	-0.742971	-0.003534
H332	H	0.483098	-0.409638	0.329799
H333	H	0.816431	-0.076304	0.663132
Br334	Br	0.000062	-0.552367	0.205961
Br335	Br	0.333395	-0.219033	0.539294
Br336	Br	0.666729	0.114300	0.872627
H337	H	0.000013	-0.526850	0.352066
H338	H	0.333346	-0.193516	0.685399
H339	H	0.666680	0.139817	1.018732
H340	H	0.000094	-0.770443	0.111587
H341	H	0.333428	-0.437110	0.444920
H342	H	0.666761	-0.103777	0.778254
Br343	Br	0.575021	-0.541563	-0.204790
Br344	Br	0.908354	-0.208229	0.128544
Br345	Br	1.241687	0.125104	0.461877
H346	H	0.265148	-0.742973	-0.003516
H347	H	0.598481	-0.409640	0.329818
H348	H	0.931814	-0.076307	0.663151
H349	H	0.000078	0.141947	0.023982
H350	H	0.333411	0.475280	0.357315
H351	H	0.666744	0.808613	0.690648
H352	H	0.442372	-0.562700	-0.183658
H353	H	0.775705	-0.229367	0.149675
H354	H	1.109038	0.103967	0.483009
Br355	Br	0.000076	-0.797156	0.239299
Br356	Br	0.333409	-0.463823	0.572633
Br357	Br	0.666742	-0.130489	0.905966
Br358	Br	0.000047	0.047586	-0.194099
Br359	Br	0.333380	0.380919	0.139234
Br360	Br	0.666714	0.714252	0.472567
H361	H	0.850339	-0.743006	-0.003493
H362	H	1.183673	-0.409673	0.329840
H363	H	1.517006	-0.076340	0.663173
H364	H	0.000074	-0.819097	0.391900
H365	H	0.333407	-0.485763	0.725233
H366	H	0.666741	-0.152430	1.058567
Br367	Br	0.000063	-0.532246	0.044141
Br368	Br	0.333396	-0.198912	0.377474
Br369	Br	0.666730	0.134421	0.710807
Br370	Br	0.717706	-0.580529	-0.165870
Br371	Br	1.051039	-0.247196	0.167464
Br372	Br	1.384372	0.086138	0.500797
Br373	Br	0.000032	-0.218568	-0.249291
Br374	Br	0.333365	0.114765	0.084042
Br375	Br	0.666699	0.448099	0.417376
Br376	Br	0.000076	-0.392228	0.045822
Br377	Br	0.333409	-0.058895	0.379156
Br378	Br	0.666742	0.274438	0.712489
H379	H	0.000106	-0.138375	0.072634
H380	H	0.333440	0.194959	0.405967
H381	H	0.666773	0.528292	0.739300
Br382	Br	0.000068	-0.845804	0.519606
Br383	Br	0.333401	-0.512471	0.852939
Br384	Br	0.666734	-0.179137	1.186272
Br385	Br	0.000064	-0.792288	0.645775
Br386	Br	0.333397	-0.458955	0.979108
Br387	Br	0.666731	-0.125622	1.312441
Br388	Br	0.717673	-0.764150	0.017636
Br389	Br	1.051006	-0.430817	0.350969
Br390	Br	1.384340	-0.097483	0.684302
H391	H	0.557728	-0.781933	0.035423
H392	H	0.891062	-0.448599	0.368756
H393	H	1.224395	-0.115266	0.702089
Br394	Br	0.132520	-0.580505	-0.165903
Br395	Br	0.465853	-0.247171	0.167431
Br396	Br	0.799186	0.086162	0.500764
H397	H	0.000048	-0.762610	0.765821
H398	H	0.333382	-0.429276	1.099154
H399	H	0.666715	-0.095943	1.432488
H400	H	0.850348	-0.601692	-0.144738
H401	H	1.183681	-0.268359	0.188595
H402	H	1.517015	0.064974	0.521928
H403	H	0.000086	0.034198	0.022693
H404	H	0.333420	0.367531	0.356027
H405	H	0.666753	0.700864	0.689360
H406	H	0.000036	-0.574207	0.740136
H407	H	0.333370	-0.240874	1.073469
H408	H	0.666703	0.092460	1.406802
Br409	Br	0.000023	-0.547499	0.612424
Br410	Br	0.333356	-0.214166	0.945757
Br411	Br	0.666689	0.119168	1.279090
H412	H	0.265183	-0.601654	-0.144769
H413	H	0.598516	-0.268321	0.188564
H414	H	0.931849	0.065013	0.521898
H415	H	0.000025	-0.486602	-0.172255
H416	H	0.333358	-0.153269	0.161079
H417	H	0.666691	0.180065	0.494412
H418	H	0.000009	-0.525555	0.459814
H419	H	0.333342	-0.192222	0.793148
H420	H	0.666676	0.141111	1.126481
H421	H	0.442349	-0.781929	0.035414
H422	H	0.775682	-0.448595	0.368747
H423	H	1.109015	-0.115262	0.702081
H424	H	0.000060	0.167632	-0.164421
H425	H	0.333394	0.500965	0.168913
H426	H	0.666727	0.834299	0.502246
H427	H	0.000067	-0.582043	0.085909
H428	H	0.333400	-0.248709	0.419243
H429	H	0.666734	0.084624	0.752576
Br430	Br	0.000116	-0.266088	0.099335
Br431	Br	0.333449	0.067245	0.432668
Br432	Br	0.666783	0.400579	0.766001
Br433	Br	0.000042	-0.078583	-0.247615
Br434	Br	0.333375	0.254750	0.085718
Br435	Br	0.666708	0.588083	0.419052
Br436	Br	0.000040	-0.358890	-0.198967
Br437	Br	0.333373	-0.025556	0.134366
Br438	Br	0.666707	0.307777	0.467700
