data_functionalizedCrystal
_audit_creation_method	'MofGen! by Chris Wilmer'
_symmetry_space_group_name_H-M	'P1'
_symmetry_Int_Tables_number	1
_symmetry_cell_setting	triclinic
loop_
_symmetry_equiv_pos_as_xyz
  x,y,z
_cell_length_a	18.101395
_cell_length_b	12.759401
_cell_length_c	18.101390
_cell_angle_alpha	90.017227
_cell_angle_beta	89.968664
_cell_angle_gamma	89.970746
loop_
_atom_site_label
_atom_site_type_symbol
_atom_site_fract_x
_atom_site_fract_y
_atom_site_fract_z
Zn1	Zn	-0.294838	-1.606111	-0.418700
Zn2	Zn	-0.418695	-1.605963	-0.294861
Zn3	Zn	-0.294868	-1.430421	-0.294877
Zn4	Zn	-0.418638	-1.430352	-0.418666
O5	O	-0.356760	-1.518212	-0.356776
O6	O	-0.311279	-1.753113	-0.402280
O7	O	-0.402305	-1.582643	-0.191231
O8	O	-0.191231	-1.453817	-0.311323
O9	O	-0.402276	-1.753003	-0.311296
O10	O	-0.191209	-1.582897	-0.402295
O11	O	-0.311330	-1.453673	-0.191242
O12	O	-0.311275	-1.283390	-0.311290
O13	O	-0.402180	-1.453700	-0.522304
O14	O	-0.402208	-1.283340	-0.402238
O15	O	-0.311224	-1.582830	-0.522328
O16	O	-0.522320	-1.582576	-0.311264
O17	O	-0.522279	-1.453556	-0.402223
C18	C	-0.356739	-1.245244	-0.356762
C19	C	-0.356748	-1.128468	-0.356774
C20	C	-0.404172	-1.073607	-0.404051
C21	C	-0.404179	-0.963883	-0.404058
C22	C	-0.309336	-0.963890	-0.309504
C23	C	-0.309326	-1.073612	-0.309501
C24	C	-0.458931	-1.073602	-0.458639
C25	C	-0.458938	-0.963878	-0.458646
C26	C	-0.549170	-1.518071	-0.356754
C27	C	-0.631484	-1.518107	-0.356770
C28	C	-0.930575	-1.518338	-0.356810
C29	C	-0.899255	-1.437350	-0.414180
C30	C	-0.813637	-1.436965	-0.414001
C31	C	-0.782193	-1.518223	-0.356790
C32	C	-0.813349	-1.488247	-0.278742
C33	C	-0.898994	-1.487725	-0.279085
C34	C	-0.898920	-1.629479	-0.376800
C35	C	-0.813269	-1.628825	-0.378512
C36	C	-0.698333	-1.518160	-0.356775
C37	C	-1.014435	-1.518398	-0.356820
C38	C	-0.163598	-1.518381	-0.356814
C39	C	-0.081284	-1.518454	-0.356830
C40	C	-0.356692	-1.518274	-0.549938
C41	C	-0.356663	-1.518301	-0.632252
C42	C	-0.356774	-0.792245	-0.356787
C43	C	-0.356765	-0.909021	-0.356783
C44	C	-0.356617	-1.518357	-0.931343
C45	C	-0.299592	-1.599870	-0.900034
C46	C	-0.299380	-1.599616	-0.814415
C47	C	-0.356640	-1.518330	-0.782961
C48	C	-0.335434	-1.407650	-0.814037
C49	C	-0.335007	-1.408138	-0.899682
C50	C	-0.434995	-1.546550	-0.899757
C51	C	-0.434595	-1.548979	-0.814107
C52	C	-0.356654	-1.518308	-0.699101
C53	C	-0.356601	-1.518372	-1.015203
C54	C	-0.356774	-1.518210	-0.164366
C55	C	-0.356594	-1.518387	-0.082052
H56	H	-0.792569	-1.455719	-0.471873
C57	C	-0.536399	-0.923590	-0.437752
N58	N	-0.594740	-0.893246	-0.422013
C59	C	-0.221586	-1.574977	-0.929124
N60	N	-0.162832	-1.556224	-0.951036
H61	H	-0.919174	-1.689818	-0.335015
C62	C	-0.431272	-0.917950	-0.532301
N63	N	-0.410429	-0.883355	-0.587774
H64	H	-0.278777	-1.383315	-0.792598
C65	C	-0.927014	-1.462426	-0.492618
N66	N	-0.947930	-1.481313	-0.551699
C67	C	-0.928405	-1.326729	-0.396512
N68	N	-0.950360	-1.243410	-0.383199
C69	C	-0.532496	-1.119530	-0.430754
N70	N	-0.587905	-1.154124	-0.409749
H71	H	-0.270705	-1.118276	-0.271009
H72	H	-0.443638	-1.103413	-0.516023
C73	C	-0.785723	-1.659391	-0.456095
N74	N	-0.764962	-1.682417	-0.514526
C75	C	-0.786041	-1.325654	-0.396166
N76	N	-0.765257	-1.241804	-0.382751
H77	H	-0.919036	-1.406481	-0.262151
C78	C	-0.784350	-1.714657	-0.326174
N79	N	-0.762570	-1.779303	-0.286745
H80	H	-0.919716	-1.544154	-0.234882
H81	H	-0.312660	-1.681687	-0.793405
C82	C	-0.785831	-1.565422	-0.219416
N83	N	-0.765101	-1.623551	-0.174733
C84	C	-0.784466	-1.379647	-0.255456
N85	N	-0.762714	-1.297846	-0.237921
C86	C	-0.389811	-1.323370	-0.786504
N87	N	-0.430768	-1.259891	-0.765762
C88	C	-0.317314	-1.711113	-0.927857
N89	N	-0.330665	-1.794905	-0.948815
H90	H	-0.454304	-1.625843	-0.921399
H91	H	-0.270726	-0.919213	-0.271017
H92	H	-0.920465	-1.656808	-0.432743
H93	H	-0.241316	-1.580954	-0.793941
C94	C	-0.257597	-1.375890	-0.926689
N95	N	-0.199287	-1.351616	-0.947028
C96	C	-0.388672	-1.323296	-0.927663
N97	N	-0.429088	-1.259388	-0.948735
C98	C	-0.456202	-1.659013	-0.786663
N99	N	-0.472475	-1.741889	-0.765985
H100	H	-0.479367	-1.493927	-0.792692
C101	C	-0.492396	-1.466348	-0.927114
N102	N	-0.535626	-1.405939	-0.947724
