data_functionalizedCrystal
_audit_creation_method	'MofGen! by Chris Wilmer'
_symmetry_space_group_name_H-M	'P1'
_symmetry_Int_Tables_number	1
_symmetry_cell_setting	triclinic
loop_
_symmetry_equiv_pos_as_xyz
  x,y,z
_cell_length_a	11.026607
_cell_length_b	15.995362
_cell_length_c	9.483334
_cell_angle_alpha	80.664213
_cell_angle_beta	78.643382
_cell_angle_gamma	83.958302
loop_
_atom_site_label
_atom_site_type_symbol
_atom_site_fract_x
_atom_site_fract_y
_atom_site_fract_z
O1	O	1.591280	-0.360873	0.120839
O2	O	2.091280	0.139127	0.620839
O3	O	1.237970	-0.320949	0.120847
O4	O	1.737970	0.179051	0.620847
O5	O	1.424273	-0.220480	0.120853
O6	O	1.924273	0.279520	0.620853
O7	O	1.404976	-0.461343	0.120833
O8	O	1.904976	0.038657	0.620833
O9	O	1.462085	-0.199963	-0.120921
O10	O	1.962085	0.300037	0.379079
O11	O	1.275781	-0.300432	-0.120928
O12	O	1.775781	0.199568	0.379072
O13	O	1.629091	-0.340357	-0.120935
O14	O	2.129091	0.159643	0.379065
Cu15	Cu	1.455888	-0.318521	-0.143007
Cu16	Cu	1.955888	0.181479	0.356993
Cu17	Cu	1.411172	-0.342784	0.142919
Cu18	Cu	1.911172	0.157216	0.642919
O19	O	1.442787	-0.440826	-0.120941
O20	O	1.942787	0.059174	0.379059
C21	C	1.211664	-0.303325	-0.000039
C22	C	1.711664	0.196675	0.499961
C23	C	1.076948	-0.281369	-0.000036
C24	C	1.576948	0.218631	0.499964
C25	C	1.003147	-0.341995	-0.000040
C26	C	1.503147	0.158005	0.499960
C27	C	0.863910	-0.319303	-0.000036
C28	C	1.363910	0.180697	0.499964
C29	C	1.442377	-0.178907	-0.000028
C30	C	1.942377	0.321093	0.499972
C31	C	1.439975	-0.085596	-0.000011
C32	C	1.939975	0.414404	0.499989
C33	C	1.431351	0.253446	0.000017
C34	C	1.931351	0.753446	0.500017
C35	C	1.298581	0.225965	0.000557
C36	C	1.798581	0.725965	0.500557
C37	C	1.301069	0.128961	0.000003
C38	C	1.801069	0.628961	0.500003
C39	C	1.435629	0.085243	0.000004
C40	C	1.935629	0.585243	0.500004
C41	C	1.522664	0.128172	-0.138056
C42	C	2.022664	0.628172	0.361944
C43	C	1.519341	0.225319	-0.138163
C44	C	2.019341	0.725319	0.361837
C45	C	1.479084	0.201933	0.136780
C46	C	1.979084	0.701933	0.636780
C47	C	1.478774	0.104838	0.138595
C48	C	1.978774	0.604838	0.638595
C49	C	1.438054	-0.009818	-0.000009
C50	C	1.938054	0.490182	0.499991
C51	C	1.428932	0.348508	0.000019
C52	C	1.928932	0.848508	0.500019
C53	C	1.655396	-0.357981	-0.000046
C54	C	2.155396	0.142019	0.499954
C55	C	1.790111	-0.379938	-0.000040
C56	C	2.290111	0.120062	0.499960
N57	N	1.487348	-0.301457	-0.344112
N58	N	1.987348	0.198543	0.155888
C59	C	1.424663	0.517600	-0.000033
C60	C	1.924663	1.017600	0.499967
C61	C	1.427005	0.424285	0.000031
C62	C	1.927005	0.924285	0.500031
C63	C	1.420437	-0.337749	-0.416344
C64	C	1.920437	0.162251	0.083656
C65	C	1.446643	-0.323546	-0.583748
C66	C	1.946643	0.176454	-0.083748
N67	N	1.379722	-0.359844	0.344024
N68	N	1.879722	0.140156	0.844024
H69	H	1.037045	-0.212668	0.000007
H70	H	1.537045	0.287332	0.500007
F71	F	1.213598	0.090967	0.129360
F72	F	1.713598	0.590967	0.629360
F73	F	1.546891	-0.269193	-0.664897
F74	F	2.046891	0.230807	-0.164897
F75	F	1.279486	-0.414207	-0.574828
F76	F	1.779486	0.085793	-0.074828
F77	F	1.209016	0.249652	0.129972
F78	F	1.709016	0.749652	0.629972
F79	F	0.842246	-0.469744	-0.000065
F80	F	1.342246	0.030256	0.499935
H81	H	1.261178	0.261872	-0.097895
H82	H	1.761178	0.761872	0.402105
F83	F	1.395834	0.066858	0.272111
F84	F	1.895834	0.566858	0.772111
F85	F	1.055288	-0.431797	-0.000052
F86	F	1.555288	0.068203	0.499948
H87	H	1.264784	0.117315	-0.099135
H88	H	1.764784	0.617315	0.400865
F89	F	1.478053	0.270092	-0.273055
F90	F	1.978053	0.770092	0.226945
H91	H	1.622324	0.099581	-0.143190
H92	H	2.122324	0.599581	0.356810
F93	F	1.484257	0.111429	-0.272357
F94	F	1.984257	0.611429	0.227643
F95	F	1.647949	0.248976	-0.146359
F96	F	2.147949	0.748976	0.353641
H97	H	1.564039	-0.259875	-0.406205
H98	H	2.064039	0.240125	0.093795
H99	H	0.824013	-0.250598	0.000007
H100	H	1.324013	0.249402	0.500007
F101	F	1.400979	0.225712	0.273561
F102	F	1.900979	0.725712	0.773561
H103	H	1.576766	0.218869	0.137712
H104	H	2.076766	0.718869	0.637712
F105	F	1.605327	0.064498	0.149501
F106	F	2.105327	0.564498	0.649501
F107	F	1.320206	-0.392110	-0.335193
F108	F	1.820206	0.107890	0.164807
