data_functionalizedCrystal
_audit_creation_method	'MofGen! by Chris Wilmer'
_symmetry_space_group_name_H-M	'P1'
_symmetry_Int_Tables_number	1
_symmetry_cell_setting	triclinic
loop_
_symmetry_equiv_pos_as_xyz
  x,y,z
_cell_length_a	16.974829
_cell_length_b	10.540539
_cell_length_c	15.455313
_cell_angle_alpha	92.694186
_cell_angle_beta	83.671566
_cell_angle_gamma	83.960807
loop_
_atom_site_label
_atom_site_type_symbol
_atom_site_fract_x
_atom_site_fract_y
_atom_site_fract_z
O1	O	1.057026	0.150555	-0.146324
O2	O	1.557026	0.650555	0.353676
O3	O	0.826165	0.172400	-0.130120
O4	O	1.326165	0.672400	0.369880
O5	O	0.946863	-0.023342	-0.138591
O6	O	1.446863	0.476658	0.361409
O7	O	0.936329	0.346298	-0.137854
O8	O	1.436329	0.846298	0.362146
O9	O	0.939960	-0.012195	0.006156
O10	O	1.439960	0.487805	0.506156
O11	O	0.819263	0.183548	0.014626
O12	O	1.319263	0.683548	0.514626
O13	O	1.050124	0.161703	-0.001578
O14	O	1.550124	0.661703	0.498422
Cu15	Cu	0.934063	0.173643	0.019741
Cu16	Cu	1.434063	0.673643	0.519741
Cu17	Cu	0.942226	0.160460	-0.151439
Cu18	Cu	1.442226	0.660460	0.348561
O19	O	0.929426	0.357446	0.006893
O20	O	1.429426	0.857446	0.506893
C21	C	0.793152	0.177349	-0.055672
C22	C	1.293152	0.677349	0.444328
C23	C	0.705068	0.175470	-0.049490
C24	C	1.205068	0.675470	0.450510
C25	C	0.942621	-0.065055	-0.066164
C26	C	1.442621	0.434945	0.433836
C27	C	0.940258	-0.205952	-0.066003
C28	C	1.440258	0.294048	0.433997
C29	C	0.208839	0.165592	-0.006219
C30	C	0.708839	0.665592	0.493781
C31	C	0.291604	0.167356	-0.012030
C32	C	0.791604	0.667356	0.487970
C33	C	0.336750	0.162152	-0.093838
C34	C	0.836750	0.662152	0.406162
C35	C	0.299126	0.155196	-0.169841
C36	C	0.799126	0.655196	0.330159
C37	C	0.216362	0.153441	-0.164029
C38	C	0.716362	0.653441	0.335971
C39	C	0.584680	0.166759	-0.119680
C40	C	1.084680	0.666759	0.380320
C41	C	0.667450	0.168511	-0.125486
C42	C	1.167450	0.668511	0.374514
C43	C	0.659922	0.180673	0.032325
C44	C	1.159922	0.680673	0.532325
C45	C	0.577158	0.178910	0.038129
C46	C	1.077158	0.678910	0.538129
C47	C	0.539540	0.171960	-0.037873
C48	C	1.039540	0.671960	0.462127
N49	N	0.421349	0.163952	-0.099780
N50	N	0.921349	0.663952	0.400220
N51	N	0.454942	0.170170	-0.031931
N52	N	0.954942	0.670170	0.468069
C53	C	0.849709	-0.387447	-0.059971
C54	C	1.349709	0.112553	0.440029
C55	C	0.852089	-0.240855	-0.059813
C56	C	1.352089	0.259145	0.440187
C57	C	0.978747	-0.262161	0.013677
C58	C	1.478747	0.237839	0.513677
C59	C	0.975735	-0.408635	0.013957
C60	C	1.475735	0.091365	0.513957
C61	C	0.985377	-0.421869	-0.150772
C62	C	1.485377	0.078131	0.349228
C63	C	0.986242	-0.274989	-0.151922
C64	C	1.486242	0.225011	0.348078
C65	C	1.083137	0.156754	-0.076028
C66	C	1.583137	0.656754	0.423972
C67	C	1.171221	0.158632	-0.082216
C68	C	1.671221	0.658632	0.417784
C69	C	0.933668	0.399158	-0.065536
C70	C	1.433668	0.899158	0.434464
C71	C	0.936031	0.540055	-0.065703
C72	C	1.436031	1.040055	0.434297
N73	N	0.928328	0.182915	0.140139
N74	N	1.428328	0.682915	0.640139
N75	N	0.947968	0.151178	-0.271837
N76	N	1.447968	0.651178	0.228163
C77	C	0.979622	0.099787	0.181933
C78	C	1.479622	0.599787	0.681933
C79	C	0.975292	0.106810	0.273045
C80	C	1.475292	0.606810	0.773045
C81	C	0.919671	0.196969	0.322360
C82	C	1.419671	0.696969	0.822360
C83	C	0.868370	0.280100	0.280560
C84	C	1.368370	0.780100	0.780560
C85	C	0.872697	0.273070	0.189450
C86	C	1.372697	0.773070	0.689450
C87	C	0.900994	0.227280	0.595253
C88	C	1.400994	0.727280	1.095253
C89	C	0.896673	0.234306	0.686368
C90	C	1.396673	0.734306	1.186368
C91	C	1.003594	0.061014	0.678847
C92	C	1.503594	0.561014	1.178847
C93	C	1.007919	0.053997	0.587735
C94	C	1.507919	0.553997	1.087735
C95	C	0.956616	0.137124	0.545943
C96	C	1.456616	0.637124	1.045943
N97	N	0.915245	0.204152	0.415491
N98	N	1.415245	0.704152	0.915491
N99	N	0.961039	0.129933	0.452814
N100	N	1.461039	0.629933	0.952814
H101	H	0.172087	0.169835	0.060398
H102	H	0.672087	0.669835	0.560398
N103	N	0.803819	-0.178513	0.021934
N104	N	1.303819	0.321487	0.521934
H105	H	0.758940	-0.116871	0.005586
H106	H	1.258940	0.383129	0.505586
H107	H	0.780966	-0.246341	0.057971
H108	H	1.280966	0.253659	0.557971
H109	H	0.830927	0.340760	0.155423
H110	H	1.330927	0.840760	0.655423
N111	N	0.332178	0.174875	0.069937
N112	N	0.832178	0.674875	0.569937
H113	H	0.291020	0.177901	0.122643
H114	H	0.791020	0.677901	0.622643
H115	H	0.372339	0.097192	0.070549
H116	H	0.872339	0.597192	0.570549
H117	H	0.821528	-0.202094	-0.116722
H118	H	1.321528	0.297906	0.383278
H119	H	0.690559	0.186334	0.094201
H120	H	1.190559	0.686334	0.594201
N121	N	0.528463	0.184518	0.126363
N122	N	1.028463	0.684518	0.626363
H123	H	0.564916	0.188297	0.173623
H124	H	1.064916	0.688297	0.673623
H125	H	0.488349	0.263211	0.132865
H126	H	0.988349	0.763211	0.632865
H127	H	0.817707	-0.419859	-0.116801
H128	H	1.317707	0.080141	0.383199
N129	N	0.800031	-0.420434	0.021330
N130	N	1.300031	0.079566	0.521330
H131	H	0.796470	-0.515550	0.019553
H132	H	1.296470	-0.015550	0.519553
H133	H	0.825701	-0.394313	0.074354
H134	H	1.325701	0.105687	0.574354
H135	H	0.946340	-0.214187	0.077256
H136	H	1.446340	0.285813	0.577256
H137	H	0.704205	0.164284	-0.192108
H138	H	1.204205	0.664284	0.307892
H139	H	1.050761	-0.252541	-0.161425
H140	H	1.550761	0.247459	0.338575
N141	N	0.544116	0.159240	-0.201651
N142	N	1.044116	0.659240	0.298349
H143	H	0.503965	0.236921	-0.202351
H144	H	1.003965	0.736921	0.297649
H145	H	0.585330	0.156158	-0.254308
H146	H	1.085330	0.656158	0.245692
N147	N	0.347814	0.149590	-0.258078
N148	N	0.847814	0.649590	0.241922
H149	H	0.405953	0.151752	-0.250230
H150	H	0.905953	0.651752	0.249770
H151	H	0.340969	0.067944	-0.291933
H152	H	0.840969	0.567944	0.208067
N153	N	0.175783	0.145940	-0.245996
N154	N	0.675783	0.645940	0.254004
H155	H	0.216940	0.142908	-0.298703
H156	H	0.716940	0.642908	0.201297
H157	H	0.147588	0.066266	-0.247439
H158	H	0.647588	0.566266	0.252561
N159	N	0.930287	-0.438786	0.098713
N160	N	1.430287	0.061214	0.598713
H161	H	0.882086	-0.482016	0.086131
H162	H	1.382086	0.017984	0.586131
H163	H	0.965984	-0.497505	0.131216
H164	H	1.465984	0.002495	0.631216
H165	H	1.049088	-0.470514	-0.155798
H166	H	1.549088	0.029486	0.344202
H167	H	1.043350	-0.240969	0.012205
H168	H	1.543350	0.259031	0.512205
H169	H	1.038966	-0.457685	0.013257
H170	H	1.538966	0.042315	0.513257
N171	N	0.951543	-0.469238	-0.231109
N172	N	1.451543	0.030762	0.268891
H173	H	0.903880	-0.515868	-0.213170
H174	H	1.403880	-0.015868	0.286830
H175	H	0.934585	-0.394164	-0.265667
H176	H	1.434585	0.105836	0.234333
N177	N	1.058922	-0.028639	0.723926
N178	N	1.558922	0.471361	1.223926
H179	H	1.026497	-0.081739	0.763890
H180	H	1.526497	0.418261	1.263890
H181	H	1.094804	-0.086737	0.678806
H182	H	1.594804	0.413263	1.178806
N183	N	0.836686	0.331565	0.739562
N184	N	1.336686	0.831565	1.239562
H185	H	0.804843	0.383162	0.699262
H186	H	1.304843	0.883162	1.199262
H187	H	0.799549	0.286111	0.779866
H188	H	1.299549	0.786111	1.279866
H189	H	0.958111	-0.238168	-0.210891
H190	H	1.458111	0.261832	0.289109
N191	N	1.039619	0.002551	0.128745
N192	N	1.539619	0.502551	0.628745
H193	H	1.071456	-0.049045	0.169051
H194	H	1.571456	0.450955	0.669051
H195	H	1.010729	-0.056294	0.093109
H196	H	1.510729	0.443706	0.593109
H197	H	1.017060	0.039120	0.307073
H198	H	1.517060	0.539120	0.807073
N199	N	1.067912	-0.043244	0.534546
N200	N	1.567912	0.456756	1.034546
H201	H	1.099751	-0.094842	0.574849
H202	H	1.599751	0.405158	1.074849
H203	H	1.039020	-0.102087	0.498910
H204	H	1.539020	0.397913	0.998910
H205	H	0.859223	0.294968	0.561233
H206	H	1.359223	0.794968	1.061233
N207	N	0.808372	0.377336	0.333746
N208	N	1.308372	0.877336	0.833746
H209	H	0.813414	0.369179	0.397806
H210	H	1.313414	0.869179	0.897806
H211	H	0.818797	0.466098	0.317130
H212	H	1.318797	0.966098	0.817130
