data_functionalizedCrystal
_audit_creation_method	'MofGen! by Chris Wilmer'
_symmetry_space_group_name_H-M	'P1'
_symmetry_Int_Tables_number	1
_symmetry_cell_setting	triclinic
loop_
_symmetry_equiv_pos_as_xyz
  x,y,z
_cell_length_a	10.489741
_cell_length_b	9.565339
_cell_length_c	10.654550
_cell_angle_alpha	89.998599
_cell_angle_beta	84.512038
_cell_angle_gamma	90.000900
loop_
_atom_site_label
_atom_site_type_symbol
_atom_site_fract_x
_atom_site_fract_y
_atom_site_fract_z
O1	O	1.693967	0.116170	0.177183
O2	O	1.322764	0.116191	0.193815
O3	O	1.516900	0.116175	0.002764
O4	O	1.499831	0.116186	0.368235
O5	O	1.516885	-0.116345	0.002776
O6	O	1.322748	-0.116329	0.193827
O7	O	1.693952	-0.116350	0.177195
Zn8	Zn	1.508348	-0.153257	0.185513
Zn9	Zn	1.508368	0.153098	0.185497
O10	O	1.499815	-0.116334	0.368246
C11	C	1.275225	-0.000066	0.192565
C12	C	1.133597	-0.000058	0.188807
C13	C	1.065516	-0.000075	0.067246
C14	C	0.973369	0.114568	0.124665
C15	C	0.973388	-0.114678	0.124705
C16	C	1.043316	0.114680	0.246275
C17	C	1.043344	-0.114670	0.246299
C18	C	0.951224	0.000002	0.303805
N19	N	1.508343	-0.362337	0.185523
C20	C	1.418534	-0.453532	0.273848
C21	C	1.534019	-0.546717	0.299261
C22	C	1.392908	-0.546707	0.160121
C23	C	1.623886	-0.453470	0.210992
C24	C	1.482700	-0.453452	0.071803
C25	C	1.598267	-0.546595	0.097168
C26	C	1.741491	-0.000090	0.178445
C27	C	1.883118	-0.000089	0.182204
C28	C	1.515639	-0.000084	-0.044029
C29	C	1.511889	-0.000079	-0.183474
N30	N	1.508382	0.362177	0.185478
C31	C	1.626194	-0.000089	-0.262906
C32	C	1.622663	-0.000079	-0.393928
C33	C	1.390513	-0.000054	-0.366074
C34	C	1.394045	-0.000054	-0.235054
C35	C	1.760224	-0.000110	-0.278989
C36	C	1.756693	-0.000100	-0.410011
C37	C	1.501076	-0.000073	0.415039
C38	C	1.504826	-0.000069	0.554484
H39	H	0.942386	0.211490	0.073225
H40	H	1.074125	0.211712	0.297665
H41	H	1.460948	-0.412454	-0.024318
C42	C	1.260892	-0.000027	-0.422810
H43	H	1.193322	-0.000010	-0.356735
H44	H	1.254674	-0.081105	-0.473347
H45	H	1.254703	0.081075	-0.473337
C46	C	0.931561	-0.245616	0.055212
H47	H	0.874837	-0.299608	0.110665
H48	H	1.004787	-0.299954	0.027847
H49	H	0.889230	-0.218051	-0.015748
C50	C	1.132665	0.000065	-0.067764
H51	H	1.184074	-0.081432	-0.080293
H52	H	1.185232	0.080746	-0.079684
H53	H	1.070105	0.000944	-0.126609
H54	H	1.300967	-0.000025	-0.170383
H55	H	1.721546	-0.412687	0.232573
C56	C	1.700996	-0.601465	-0.003763
H57	H	1.782925	-0.569367	0.014476
H58	H	1.683463	-0.568119	-0.084317
H59	H	1.699990	-0.700776	-0.003692
C60	C	1.316037	-0.398311	0.374840
H61	H	1.334488	-0.430246	0.455576
H62	H	1.234190	-0.431602	0.357606
H63	H	1.316223	-0.299003	0.373655
C64	C	0.884378	0.000088	0.438937
H65	H	0.908314	0.081603	0.481903
H66	H	0.909395	-0.080576	0.482447
H67	H	0.794174	-0.000679	0.435820
C68	C	1.563348	-0.602081	0.429143
H69	H	1.499445	-0.570229	0.491825
H70	H	1.644748	-0.568792	0.447788
H71	H	1.563915	-0.701388	0.427951
H72	H	1.812654	0.097189	-0.249611
H73	H	1.295271	-0.587666	0.138656
H74	H	1.802897	-0.100510	-0.243337
C75	C	1.085259	-0.245603	0.315728
H76	H	1.061578	-0.326989	0.272423
H77	H	1.044545	-0.246426	0.399288
H78	H	1.175531	-0.244188	0.318275
H79	H	1.797205	0.100293	-0.455640
H80	H	1.807187	-0.097411	-0.451742
