data_functionalizedCrystal
_audit_creation_method	'MofGen! by Chris Wilmer'
_symmetry_space_group_name_H-M	'P1'
_symmetry_Int_Tables_number	1
_symmetry_cell_setting	triclinic
loop_
_symmetry_equiv_pos_as_xyz
  x,y,z
_cell_length_a	10.654562
_cell_length_b	10.489716
_cell_length_c	9.130313
_cell_angle_alpha	90.002761
_cell_angle_beta	89.996930
_cell_angle_gamma	84.509620
loop_
_atom_site_label
_atom_site_type_symbol
_atom_site_fract_x
_atom_site_fract_y
_atom_site_fract_z
O1	O	1.667893	0.179235	-0.121881
O2	O	1.302423	0.196288	-0.121862
O3	O	1.493490	0.002158	-0.121877
O4	O	1.476826	0.373365	-0.121866
O5	O	1.493488	0.002163	0.121722
O6	O	1.302421	0.196293	0.121737
O7	O	1.667891	0.179241	0.121717
Cu8	Cu	1.485156	0.187767	0.143970
Cu9	Cu	1.485158	0.187761	-0.144114
O10	O	1.476824	0.373370	0.121733
C11	C	1.255624	0.195035	-0.000060
C12	C	1.116180	0.191279	-0.000053
C13	C	1.050647	0.189530	0.132721
C14	C	0.919624	0.186011	0.132696
C15	C	0.919676	0.185995	-0.132888
C16	C	1.050699	0.189505	-0.132862
C17	C	1.050615	0.189544	0.286054
C18	C	0.919592	0.186025	0.286030
C19	C	1.492237	-0.045371	-0.000082
C20	C	1.488491	-0.187000	-0.000095
C21	C	1.605659	-0.284725	-0.000088
C22	C	1.543746	-0.362061	-0.120188
C23	C	1.543717	-0.362020	0.119981
C24	C	1.426627	-0.262471	-0.120294
C25	C	1.426615	-0.262424	0.119983
C26	C	1.364615	-0.339711	-0.000146
C27	C	1.714690	0.180493	-0.000088
C28	C	1.854134	0.184250	-0.000104
C29	C	1.478077	0.420899	-0.000065
C30	C	1.481823	0.562529	-0.000062
N31	N	1.485163	0.187771	0.346592
N32	N	1.485161	0.187748	-0.346737
C33	C	1.569789	0.101840	0.423237
C34	C	1.569786	0.101825	0.576574
C35	C	1.400526	0.273683	0.576607
C36	C	1.400524	0.273691	0.423273
C37	C	1.667514	0.002622	0.423220
C38	C	1.667511	0.002607	0.576556
H39	H	0.866345	0.184551	-0.241017
C40	C	1.745329	-0.118168	0.001062
C41	C	1.743227	-0.251429	-0.000229
H42	H	1.830253	-0.097605	0.000985
H43	H	1.703326	-0.082615	-0.083398
H44	H	1.703848	-0.083911	0.086492
H45	H	1.784700	-0.285685	-0.085665
H46	H	1.785248	-0.286996	0.084240
C47	C	1.222227	0.312377	0.347094
C48	C	1.090604	0.315122	0.350302
H49	H	1.246912	0.389908	0.386750
H50	H	1.258168	0.242092	0.403573
H51	H	1.250864	0.303292	0.248776
H52	H	1.061967	0.324198	0.448622
H53	H	1.054649	0.385427	0.293824
C54	C	1.736643	-0.393634	-0.257057
C55	C	1.610513	-0.420825	-0.257263
H56	H	1.777867	-0.429917	-0.341673
H57	H	1.740202	-0.303505	-0.257606
H58	H	1.777405	-0.429059	-0.171760
H59	H	1.569749	-0.385391	-0.342555
H60	H	1.606947	-0.510972	-0.256728
H61	H	1.377193	-0.219148	-0.221942
C62	C	1.165884	-0.321917	-0.126079
C63	C	1.226934	-0.372647	-0.000220
H64	H	1.080889	-0.342260	-0.126130
H65	H	1.167558	-0.231551	-0.126881
H66	H	1.207792	-0.357556	-0.210582
H67	H	1.185031	-0.337001	0.084283
H68	H	1.225252	-0.463032	0.000595
C69	C	1.421474	-0.254109	0.382722
C70	C	1.359905	-0.203629	0.257065
H71	H	1.380300	-0.217803	0.467357
H72	H	1.419239	-0.344403	0.384200
H73	H	1.506636	-0.234337	0.381838
H74	H	1.274745	-0.223409	0.257944
H75	H	1.362127	-0.113315	0.255588
C76	C	0.986945	-0.018434	0.392482
C77	C	0.879585	0.060451	0.350268
H78	H	0.962241	-0.095952	0.432144
H79	H	1.039379	-0.037046	0.309584
H80	H	1.032013	0.024194	0.464368
H81	H	0.834521	0.017826	0.278374
H82	H	0.827130	0.079061	0.433176
C83	C	1.736632	-0.393510	0.256798
C84	C	1.610508	-0.420722	0.257058
H85	H	1.777867	-0.429743	0.341424
H86	H	1.777386	-0.428962	0.171518
H87	H	1.740174	-0.303366	0.257301
H88	H	1.606965	-0.510866	0.256544
H89	H	1.569742	-0.385275	0.342361
C90	C	1.183779	0.346503	0.623845
C91	C	1.307496	0.368122	0.660905
H92	H	1.126347	0.404802	0.675894
H93	H	1.171677	0.358816	0.521569
H94	H	1.169406	0.261229	0.648965
H95	H	1.321872	0.453393	0.635775
H96	H	1.319603	0.355819	0.763204
H97	H	0.873339	0.274183	0.344898
C98	C	1.620905	-0.210008	0.486296
C99	C	1.638506	-0.129728	0.367017
H100	H	1.602989	-0.291709	0.451594
H101	H	1.695354	-0.219014	0.544078
H102	H	1.552420	-0.173754	0.544095
H103	H	1.706998	-0.165978	0.309223
H104	H	1.564049	-0.120726	0.309210
H105	H	1.331604	0.343652	0.360870
C106	C	1.850414	-0.070426	0.717922
C107	C	1.797801	0.032114	0.632751
H108	H	1.930849	-0.052210	0.752606
H109	H	1.796792	-0.082575	0.798823
H110	H	1.859303	-0.146033	0.660085
H111	H	1.788903	0.107719	0.690591
H112	H	1.851437	0.044278	0.551838
H113	H	1.104053	0.190910	-0.240980
H114	H	1.758709	0.033694	0.375657
H115	H	1.096841	0.101391	0.344935
H116	H	1.636963	-0.090047	0.624102
