data_functionalizedCrystal
_audit_creation_method	'MofGen! by Chris Wilmer'
_symmetry_space_group_name_H-M	'P1'
_symmetry_Int_Tables_number	1
_symmetry_cell_setting	triclinic
loop_
_symmetry_equiv_pos_as_xyz
  x,y,z
_cell_length_a	10.654550
_cell_length_b	15.944551
_cell_length_c	9.130313
_cell_angle_alpha	89.997799
_cell_angle_beta	89.996220
_cell_angle_gamma	83.991820
loop_
_atom_site_label
_atom_site_type_symbol
_atom_site_fract_x
_atom_site_fract_y
_atom_site_fract_z
O1	O	1.666308	0.117973	-0.121923
O2	O	1.300684	0.129213	-0.121900
O3	O	1.493480	0.001376	-0.121899
O4	O	1.473511	0.245810	-0.121924
O5	O	1.493478	0.001379	0.121700
O6	O	1.300681	0.129216	0.121699
O7	O	1.666305	0.117976	0.121676
Cu8	Cu	1.483493	0.123596	0.143930
Cu9	Cu	1.483496	0.123592	-0.144154
O10	O	1.473509	0.245813	0.121675
C11	C	1.253895	0.128389	-0.000098
C12	C	1.114484	0.125920	-0.000088
C13	C	1.492650	-0.029921	-0.000099
C14	C	1.490165	-0.123182	-0.000098
C15	C	1.034024	0.201188	-0.000117
C16	C	0.903034	0.198863	-0.000142
C17	C	0.932975	0.045995	-0.000116
C18	C	1.063963	0.048321	-0.000080
C19	C	1.084545	0.278788	-0.000126
C20	C	1.004084	0.354062	-0.000156
C21	C	0.873094	0.351737	-0.000182
C22	C	0.822564	0.274137	-0.000176
C23	C	1.364720	-0.338765	-0.000111
C24	C	1.422971	-0.399443	0.119995
C25	C	1.485668	-0.293934	-0.000109
C26	C	1.423002	-0.399430	-0.120175
C27	C	1.481317	-0.458872	-0.000126
C28	C	1.543953	-0.353384	0.120095
C29	C	1.543967	-0.353364	-0.120182
C30	C	1.602306	-0.414024	-0.000048
C31	C	1.488172	-0.198917	-0.000098
C32	C	1.478822	-0.553887	-0.000127
C33	C	1.713094	0.118800	-0.000130
C34	C	1.852505	0.121269	-0.000149
C35	C	1.474339	0.277110	-0.000128
C36	C	1.476824	0.370371	-0.000139
N37	N	1.483500	0.123599	0.346552
N38	N	1.483499	0.123583	-0.346777
C39	C	1.568892	0.067012	0.423205
C40	C	1.568889	0.067002	0.576542
C41	C	1.398098	0.180173	0.576560
C42	C	1.398096	0.180178	0.423226
C43	C	1.654296	0.010433	0.346531
C44	C	1.739696	-0.046158	0.423184
C45	C	1.739693	-0.046168	0.576520
C46	C	1.654290	0.010412	0.653205
H47	H	1.191203	0.280689	-0.000112
F48	F	1.233500	-0.295989	0.000047
F49	F	1.307215	0.240388	0.658177
F50	F	1.733640	-0.456607	0.000028
H51	H	1.371814	-0.419846	0.221540
H52	H	1.809222	-0.092229	0.360739
H53	H	1.595080	-0.332939	-0.221733
F54	F	1.654283	0.010391	0.816401
F55	F	1.610765	-0.326870	0.252959
F56	F	1.149599	-0.031788	-0.000047
H57	H	1.328561	0.226256	0.360815
H58	H	0.891822	-0.017184	-0.000135
F59	F	1.356110	-0.426079	-0.252884
H60	H	1.045235	0.417241	-0.000149
H61	H	0.807585	0.413029	-0.000192
F62	F	1.830571	-0.106402	0.658097
H63	H	0.715901	0.272250	-0.000174
H64	H	1.654309	0.010437	0.221677
