data_functionalizedCrystal
_audit_creation_method	'MofGen! by Chris Wilmer'
_symmetry_space_group_name_H-M	'P1'
_symmetry_Int_Tables_number	1
_symmetry_cell_setting	triclinic
loop_
_symmetry_equiv_pos_as_xyz
  x,y,z
_cell_length_a	6.817900
_cell_length_b	12.850268
_cell_length_c	17.370321
_cell_angle_alpha	104.778941
_cell_angle_beta	92.689897
_cell_angle_gamma	91.777450
loop_
_atom_site_label
_atom_site_type_symbol
_atom_site_fract_x
_atom_site_fract_y
_atom_site_fract_z
V1	V	3.786418	0.020772	-0.243325
V2	V	4.286418	0.520772	0.256675
O3	O	3.836476	-0.129043	-0.242339
O4	O	4.336476	0.370957	0.257661
O5	O	3.683826	0.164335	-0.238155
O6	O	4.183826	0.664335	0.261845
O7	O	3.658632	-0.035732	-0.351047
O8	O	4.158632	0.464268	0.148953
O9	O	3.861845	0.072409	-0.128665
O10	O	4.361845	0.572409	0.371335
V11	V	4.287355	0.009491	-0.230037
V12	V	4.787355	0.509491	0.269963
O13	O	4.009478	0.045517	-0.272474
O14	O	4.509478	0.545517	0.227526
O15	O	4.514492	-0.015255	-0.200888
O16	O	5.014492	0.484745	0.299112
O17	O	4.166741	-0.134073	-0.235207
O18	O	4.666741	0.365927	0.264793
O19	O	4.354694	0.159305	-0.231023
O20	O	4.854694	0.659305	0.268977
O21	O	4.329325	-0.042147	-0.344697
O22	O	4.829325	0.457853	0.155303
O23	O	4.191935	0.065994	-0.122315
O24	O	4.691935	0.565994	0.377685
C25	C	3.518225	0.201088	-0.233415
C26	C	4.018225	0.701088	0.266585
C27	C	3.515042	0.320290	-0.229841
C28	C	4.015042	0.820290	0.270159
C29	C	3.486075	-0.054118	-0.377416
C30	C	3.986075	0.445882	0.122584
C31	C	3.462520	-0.099365	-0.465457
C32	C	3.962520	0.400635	0.034543
C33	C	3.995710	-0.170820	-0.239949
C34	C	4.495710	0.329180	0.260051
C35	C	3.977736	-0.290027	-0.243541
C36	C	4.477736	0.209973	0.256459
V37	V	3.772664	0.510546	-0.231250
V38	V	4.272664	1.010546	0.268750
O39	O	3.811074	0.662035	-0.234134
O40	O	4.311074	1.162035	0.265866
O41	O	3.678538	0.363262	-0.232189
O42	O	4.178538	0.863262	0.267811
O43	O	3.703058	0.563307	-0.119271
O44	O	4.203058	1.063307	0.380729
O45	O	3.786384	0.460605	-0.347833
O46	O	4.286384	0.960605	0.152167
V47	V	4.258652	0.540483	-0.265813
V48	V	4.758652	1.040483	0.234187
O49	O	4.010800	0.494513	-0.212045
O50	O	4.510800	0.994513	0.287955
O51	O	4.464679	0.573420	-0.304298
O52	O	4.964679	1.073420	0.195702
O53	O	4.132563	0.679385	-0.255315
O54	O	4.632563	1.179385	0.244685
O55	O	4.336065	0.393401	-0.267957
O56	O	4.836065	0.893401	0.232043
O57	O	4.360755	0.594831	-0.154258
O58	O	4.860755	1.094831	0.345742
O59	O	4.108043	0.479340	-0.368233
O60	O	4.608043	0.979340	0.131767
C61	C	4.027836	0.084385	-0.095941
C62	C	4.527836	0.584385	0.404059
C63	C	4.030632	0.129628	-0.007900
C64	C	4.530632	0.629628	0.492100
C65	C	3.546319	0.575465	-0.085803
C66	C	4.046319	1.075465	0.414197
C67	C	3.569295	0.620691	0.002251
C68	C	4.069295	1.120691	0.502251
C69	C	3.628548	-0.117416	-0.510709
C70	C	4.128548	0.382584	-0.010709
C71	C	3.606445	-0.159944	-0.593432
C72	C	4.106445	0.340056	-0.093432
C73	C	3.418311	-0.184414	-0.630901
C74	C	3.918311	0.315586	-0.130901
C75	C	3.252271	-0.166364	-0.585642
C76	C	3.752271	0.333636	-0.085642
C77	C	3.274377	-0.123843	-0.502920
C78	C	3.774377	0.376157	-0.002920
C79	C	3.932637	0.454530	-0.387287
C80	C	4.432637	0.954530	0.112713
C81	C	3.889183	0.408517	-0.474451
C82	C	4.389183	0.908517	0.025549
C83	C	3.854317	0.154098	0.029560
C84	C	4.354317	0.654098	0.529560
C85	C	3.856957	0.196619	0.112284
C86	C	4.356957	0.696619	0.612284
C87	C	4.035915	0.214676	0.157544
C88	C	4.535915	0.714676	0.657544
C89	C	4.212243	0.190200	0.120077
C90	C	4.712243	0.690200	0.620077
C91	C	4.209600	0.147673	0.037357
C92	C	4.709600	0.647673	0.537357
C93	C	4.062868	0.341514	0.405362
C94	C	4.562868	0.841514	0.905362
C95	C	4.065498	0.384048	0.488088
C96	C	4.565498	0.884048	0.988088
C97	C	3.710210	0.390461	0.480288
C98	C	4.210210	0.890461	0.980288
C99	C	3.707584	0.347939	0.397565
C100	C	4.207584	0.847939	0.897565
C101	C	3.883911	0.323462	0.360107
C102	C	4.383911	0.823462	0.860107
N103	N	4.038619	0.258142	0.242100
N104	N	4.538619	0.758142	0.742100
N105	N	3.881204	0.279989	0.275553
N106	N	4.381204	0.779989	0.775553
C107	C	3.757215	0.645426	0.039874
C108	C	4.257215	1.145426	0.539874
C109	C	3.778831	0.687935	0.122608
C110	C	4.278831	1.187935	0.622608
C111	C	3.612524	0.705701	0.167718
C112	C	4.112524	1.205701	0.667718
C113	C	3.424589	0.680965	0.130090
C114	C	3.924589	1.180965	0.630090
C115	C	3.402975	0.638464	0.047356
C116	C	3.902975	1.138464	0.547356
H117	H	3.781752	-0.097495	-0.480214
H118	H	4.281752	0.402505	0.019786
F119	F	4.250535	0.315498	0.365503
F120	F	4.750535	0.815498	0.865503
H121	H	3.289191	0.695437	0.166831
H122	H	3.789191	1.195437	0.666831
F123	F	3.052054	-0.192402	-0.625531
F124	F	3.552054	0.307598	-0.125531
F125	F	3.097651	-0.104627	-0.454768
F126	F	3.597651	0.395373	0.045232
F127	F	3.783180	-0.179141	-0.641586
F128	F	4.283180	0.320859	-0.141586
H129	H	3.561857	0.333244	0.360719
H130	H	4.061857	0.833244	0.860719
H131	H	4.353174	0.127752	0.006857
H132	H	4.853174	0.627752	0.506857
H133	H	3.708589	0.139403	-0.007285
H134	H	4.208589	0.639403	0.492715
H135	H	4.357953	0.204899	0.156936
H136	H	4.857953	0.704899	0.656936
H137	H	3.400339	-0.219036	-0.698259
H138	H	3.900339	0.280964	-0.198259
F139	F	3.522563	0.416512	0.520160
F140	F	4.022563	0.916512	1.020160
F141	F	4.255979	0.403264	0.536256
F142	F	4.755979	0.903264	1.036256
F143	F	3.934240	0.626522	-0.008122
F144	F	4.434240	1.126522	0.491878
H145	H	3.931871	0.708066	0.153233
H146	H	4.431871	1.208066	0.653233
F147	F	3.635558	0.750934	0.255771
F148	F	4.135558	1.250934	0.755771
H149	H	3.713385	0.216552	0.142779
H150	H	4.213385	0.716552	0.642779
H151	H	3.249947	0.618322	0.016731
H152	H	3.749947	1.118322	0.516731
