data_functionalizedCrystal
_audit_creation_method	'MofGen! by Chris Wilmer'
_symmetry_space_group_name_H-M	'P1'
_symmetry_Int_Tables_number	1
_symmetry_cell_setting	triclinic
loop_
_symmetry_equiv_pos_as_xyz
  x,y,z
_cell_length_a	11.169417
_cell_length_b	12.827892
_cell_length_c	12.827885
_cell_angle_alpha	89.970214
_cell_angle_beta	89.982092
_cell_angle_gamma	90.016270
loop_
_atom_site_label
_atom_site_type_symbol
_atom_site_fract_x
_atom_site_fract_y
_atom_site_fract_z
Zn1	Zn	1.834897	-0.415958	-0.590811
Zn2	Zn	2.334897	0.084042	-0.090811
Zn3	Zn	1.834776	-0.590735	-0.416071
Zn4	Zn	2.334776	-0.090735	0.083929
Zn5	Zn	1.634190	-0.416012	-0.416088
Zn6	Zn	2.134190	0.083988	0.083912
Zn7	Zn	1.634173	-0.590660	-0.590775
Zn8	Zn	2.134173	-0.090660	-0.090775
O9	O	1.734509	-0.503341	-0.503436
O10	O	2.234509	-0.003341	-0.003436
O11	O	2.002831	-0.439151	-0.567639
O12	O	2.502831	0.060849	-0.067639
O13	O	1.808124	-0.567612	-0.269837
O14	O	2.308124	-0.067612	0.230163
O15	O	1.660872	-0.269768	-0.439288
O16	O	2.160872	0.230232	0.060712
O17	O	2.002742	-0.567560	-0.439258
O18	O	2.502742	-0.067560	0.060742
O19	O	1.808331	-0.269729	-0.567656
O20	O	2.308331	0.230271	-0.067656
O21	O	1.660754	-0.439243	-0.269850
O22	O	2.160754	0.060757	0.230150
O23	O	1.466238	-0.439170	-0.439253
O24	O	1.966238	0.060830	0.060747
O25	O	1.660843	-0.567432	-0.737016
O26	O	2.160843	-0.067432	-0.237016
O27	O	1.466226	-0.567484	-0.567595
O28	O	1.966226	-0.067484	-0.067595
O29	O	1.808315	-0.439079	-0.737042
O30	O	2.308315	0.060921	-0.237042
O31	O	1.808108	-0.736961	-0.439224
O32	O	2.308108	-0.236961	0.060776
O33	O	1.660726	-0.736906	-0.567578
O34	O	2.160726	-0.236906	-0.067578
C35	C	1.422684	-0.503325	-0.503423
C36	C	1.922684	-0.003325	-0.003423
C37	C	1.289284	-0.503344	-0.503442
C38	C	1.789284	-0.003344	-0.003442
C39	C	1.734434	-0.774851	-0.503418
C40	C	2.234434	-0.274851	-0.003418
C41	C	1.734512	-0.891004	-0.503445
C42	C	2.234512	-0.391004	-0.003445
C43	C	1.807528	-0.942782	-0.440002
C44	C	2.307528	-0.442782	0.059998
C45	C	1.807610	-1.062832	-0.440028
C46	C	2.307610	-0.562832	0.059972
C47	C	2.047551	-0.503358	-0.503450
C48	C	2.547551	-0.003358	-0.003450
C49	C	2.180951	-0.503365	-0.503456
C50	C	2.680951	-0.003365	-0.003456
C51	C	1.734591	-0.503241	-0.776007
C52	C	2.234591	-0.003241	-0.276007
C53	C	1.734626	-0.503198	-0.892160
C54	C	2.234626	-0.003198	-0.392160
C55	C	1.734617	-0.230771	-0.503478
C56	C	2.234617	0.269229	-0.003478
C57	C	1.734663	-0.114618	-0.503495
C58	C	2.234663	0.385382	-0.003495
C59	C	1.807607	-0.439673	-0.943957
C60	C	2.307607	0.060327	-0.443957
C61	C	1.807645	-0.439627	-1.064008
C62	C	2.307645	0.060373	-0.564008
C63	C	1.734497	-0.503366	-0.231926
C64	C	2.234497	-0.003366	0.268074
C65	C	1.734695	-0.503114	-0.115774
C66	C	2.234695	-0.003114	0.384226
H67	H	1.869984	-0.898236	-0.385669
H68	H	2.369984	-0.398236	0.114331
Cl69	Cl	1.638225	-0.587096	-1.047013
Cl70	Cl	2.138225	-0.087096	-0.547013
H71	H	1.870057	-0.385316	-0.899427
H72	H	2.370057	0.114684	-0.399427
Cl73	Cl	1.638094	-0.959774	-0.587345
Cl74	Cl	2.138094	-0.459774	-0.087345
Cl75	Cl	1.904124	-0.355659	-1.132776
Cl76	Cl	2.404124	0.144341	-0.632776
H77	H	1.870118	-1.107359	-0.385709
H78	H	2.370118	-0.607359	0.114291
Cl79	Cl	1.638135	-1.045884	-0.587357
Cl80	Cl	2.138135	-0.545884	-0.087357
H81	H	1.672164	-0.557544	-0.936691
H82	H	2.172164	-0.057544	-0.436691
