data_functionalizedCrystal
_audit_creation_method	'MofGen! by Chris Wilmer'
_symmetry_space_group_name_H-M	'P1'
_symmetry_Int_Tables_number	1
_symmetry_cell_setting	triclinic
loop_
_symmetry_equiv_pos_as_xyz
  x,y,z
_cell_length_a	12.759401
_cell_length_b	13.897448
_cell_length_c	12.759393
_cell_angle_alpha	90.030963
_cell_angle_beta	89.982549
_cell_angle_gamma	89.981387
loop_
_atom_site_label
_atom_site_type_symbol
_atom_site_fract_x
_atom_site_fract_y
_atom_site_fract_z
Zn1	Zn	1.606208	0.383981	-0.593989
Zn2	Zn	2.106208	0.883981	-0.093989
Zn3	Zn	1.606091	0.545311	-0.418312
Zn4	Zn	2.106091	1.045311	0.081688
Zn5	Zn	1.430514	0.384029	-0.418328
Zn6	Zn	1.930514	0.884029	0.081672
Zn7	Zn	1.430484	0.545233	-0.593953
Zn8	Zn	1.930484	1.045233	-0.093953
O9	O	1.518324	0.464638	-0.506146
O10	O	2.018324	0.964638	-0.006146
O11	O	1.753214	0.405394	-0.570693
O12	O	2.253214	0.905394	-0.070693
O13	O	1.582764	0.523969	-0.271293
O14	O	2.082764	1.023969	0.228707
O15	O	1.453881	0.249041	-0.441652
O16	O	1.953881	0.749041	0.058348
O17	O	1.753128	0.523922	-0.441624
O18	O	2.253128	1.023922	0.058376
O19	O	1.582963	0.249005	-0.570709
O20	O	2.082963	0.749005	-0.070709
O21	O	1.453768	0.405476	-0.271305
O22	O	1.953768	0.905476	0.228695
O23	O	1.283489	0.405400	-0.441617
O24	O	1.783489	0.905400	0.058383
O25	O	1.453831	0.523790	-0.740979
O26	O	1.953831	1.023790	-0.240979
O27	O	1.283467	0.523836	-0.570648
O28	O	1.783467	1.023836	-0.070648
O29	O	1.582935	0.405318	-0.741006
O30	O	2.082935	0.905318	-0.241006
O31	O	1.582735	0.680282	-0.441589
O32	O	2.082735	1.180282	0.058411
O33	O	1.453717	0.680225	-0.570632
O34	O	1.953717	1.180225	-0.070632
C35	C	1.245357	0.464616	-0.506131
C36	C	1.745357	0.964616	-0.006131
C37	C	1.128580	0.464629	-0.506150
C38	C	1.628580	0.964629	-0.006150
C39	C	1.073756	0.403028	-0.573460
C40	C	1.573756	0.903028	-0.073460
C41	C	0.964032	0.403046	-0.573467
C42	C	1.464032	0.903046	-0.073467
C43	C	0.963966	0.526276	-0.438849
C44	C	1.463966	1.026276	0.061151
C45	C	1.073688	0.526252	-0.438838
C46	C	1.573688	1.026252	0.061162
C47	C	1.073793	0.331885	-0.651184
C48	C	1.573793	0.831885	-0.151184
C49	C	0.964069	0.331904	-0.651191
C50	C	1.464069	0.831904	-0.151191
C51	C	1.518239	0.715253	-0.506128
C52	C	2.018239	1.215253	-0.006128
C53	C	1.518298	0.822466	-0.506155
C54	C	2.018298	1.322466	-0.006155
C55	C	1.518401	1.018761	-0.506230
C56	C	2.018401	1.518761	-0.006230
C57	C	1.518341	0.909529	-0.506192
C58	C	2.018341	1.409529	-0.006192
C59	C	1.792357	0.464662	-0.506161
C60	C	2.292357	0.964662	-0.006161
C61	C	1.909134	0.464672	-0.506167
C62	C	2.409134	0.964672	-0.006167
C63	C	1.518392	0.464540	-0.780179
C64	C	2.018392	0.964540	-0.280179
C65	C	1.518422	0.464498	-0.896956
C66	C	2.018422	0.964498	-0.396956
C67	C	1.518430	1.213045	-0.506199
C68	C	2.018430	1.713045	-0.006199
C69	C	1.518452	1.105831	-0.506253
C70	C	2.018452	1.605831	-0.006253
C71	C	1.451282	0.402787	-0.951830
C72	C	1.951282	0.902787	-0.451830
C73	C	1.451314	0.402759	-1.061554
C74	C	1.951314	0.902759	-0.561554
C75	C	1.585634	0.526154	-1.061520
C76	C	2.085634	1.026154	-0.561520
C77	C	1.585596	0.526187	-0.951798
C78	C	2.085596	1.026187	-0.451798
C79	C	1.373736	0.331543	-0.951851
C80	C	1.873736	0.831543	-0.451851
C81	C	1.373768	0.331514	-1.061575
C82	C	1.873768	0.831514	-0.561575
C83	C	1.518317	0.464666	-0.233178
C84	C	2.018317	0.964666	0.266822
C85	C	1.518491	0.464437	-0.116402
C86	C	2.018491	0.964437	0.383598
H87	H	0.919259	0.576447	-0.384047
H88	H	1.419259	1.076447	0.115953
H89	H	0.930035	0.260908	-0.622190
H90	H	1.430035	0.760908	-0.122190
H91	H	1.103567	0.257148	-0.629529
H92	H	1.603567	0.757148	-0.129529
H93	H	1.640326	0.576378	-1.106186
H94	H	2.140326	1.076378	-0.606186
H95	H	1.292345	0.351546	-0.922074
H96	H	1.792345	0.851546	-0.422074
H97	H	1.395592	0.256797	-1.091371
H98	H	1.895592	0.756797	-0.591371
H99	H	0.934321	0.352005	-0.732527
H100	H	1.434321	0.852005	-0.232527
Cl101	Cl	1.418773	0.222005	-0.899322
Cl102	Cl	1.918773	0.722005	-0.399322
Cl103	Cl	1.669991	0.603781	-0.882816
Cl104	Cl	2.169991	1.103781	-0.382816
Cl105	Cl	1.142607	0.603668	-0.354185
Cl106	Cl	1.642607	1.103668	0.145815
H107	H	1.107855	0.358723	-0.728422
H108	H	1.607855	0.858723	-0.228422
Cl109	Cl	1.254435	0.372815	-1.114118
Cl110	Cl	1.754435	0.872815	-0.614118
