data_functionalizedCrystal
_audit_creation_method	'MofGen! by Chris Wilmer'
_symmetry_space_group_name_H-M	'P1'
_symmetry_Int_Tables_number	1
_symmetry_cell_setting	triclinic
loop_
_symmetry_equiv_pos_as_xyz
  x,y,z
_cell_length_a	18.050590
_cell_length_b	18.050589
_cell_length_c	21.395356
_cell_angle_alpha	89.977927
_cell_angle_beta	89.992092
_cell_angle_gamma	90.017386
loop_
_atom_site_label
_atom_site_type_symbol
_atom_site_fract_x
_atom_site_fract_y
_atom_site_fract_z
Zn1	Zn	1.135356	-0.295893	-0.354024
Zn2	Zn	1.635356	0.204107	0.145976
Zn3	Zn	1.135248	-0.420085	-0.249256
Zn4	Zn	1.635248	0.079915	0.250744
Zn5	Zn	1.011156	-0.295890	-0.249289
Zn6	Zn	1.511156	0.204110	0.250711
Zn7	Zn	1.011123	-0.420022	-0.354025
Zn8	Zn	1.511123	0.079978	0.145975
O9	O	1.073221	-0.357972	-0.301649
O10	O	1.573221	0.142028	0.198351
O11	O	1.239266	-0.312395	-0.340112
O12	O	1.739266	0.187605	0.159888
O13	O	1.118756	-0.403635	-0.161583
O14	O	1.618756	0.096365	0.338417
O15	O	1.027691	-0.191965	-0.263195
O16	O	1.527691	0.308035	0.236805
O17	O	1.239187	-0.403638	-0.263140
O18	O	1.739187	0.096362	0.236860
O19	O	1.118940	-0.191968	-0.340143
O20	O	1.618940	0.308032	0.159857
O21	O	1.027586	-0.312389	-0.161607
O22	O	1.527586	0.187611	0.338393
O23	O	0.907227	-0.312328	-0.263197
O24	O	1.407227	0.187672	0.236803
O25	O	1.027634	-0.403532	-0.441703
O26	O	1.527634	0.096468	0.058297
O27	O	0.907203	-0.403528	-0.340146
O28	O	1.407203	0.096472	0.159854
O29	O	1.118908	-0.312334	-0.441702
O30	O	1.618908	0.187666	0.058298
O31	O	1.118723	-0.524001	-0.263141
O32	O	1.618723	-0.024001	0.236859
O33	O	1.027529	-0.523955	-0.340114
O34	O	1.527529	-0.023955	0.159886
C35	C	0.880269	-0.357922	-0.301676
C36	C	1.380269	0.142078	0.198324
C37	C	0.797723	-0.357918	-0.301702
C38	C	1.297723	0.142082	0.198298
C39	C	0.598281	-0.407654	-0.343448
C40	C	1.098281	0.092346	0.156552
C41	C	0.548890	-0.339938	-0.358861
C42	C	1.048890	0.160062	0.141139
C43	C	0.646593	-0.357959	-0.301671
C44	C	1.146593	0.142041	0.198329
C45	C	0.548901	-0.425714	-0.286257
C46	C	1.048901	0.074286	0.213743
C47	C	0.500607	-0.358005	-0.301643
C48	C	1.000607	0.141995	0.198357
C49	C	0.598290	-0.290207	-0.317115
C50	C	1.098290	0.209793	0.182885
C51	C	0.598305	-0.376029	-0.244484
C52	C	1.098305	0.123971	0.255516
C53	C	0.548937	-0.308266	-0.259876
C54	C	1.048937	0.191734	0.240124
C55	C	0.730691	-0.357934	-0.301689
C56	C	1.230691	0.142066	0.198311
C57	C	0.416511	-0.358023	-0.301625
C58	C	0.916511	0.141977	0.198375
C59	C	1.073131	-0.550925	-0.301638
C60	C	1.573131	-0.050925	0.198362
C61	C	1.073161	-0.633470	-0.301655
C62	C	1.573161	-0.133470	0.198345
C63	C	1.023618	-0.832923	-0.343498
C64	C	1.523618	-0.332923	0.156502
C65	C	1.005510	-0.882358	-0.286329
C66	C	1.505510	-0.382358	0.213671
C67	C	1.073234	-0.784601	-0.301663
C68	C	1.573234	-0.284601	0.198337
C69	C	1.091378	-0.882247	-0.358838
C70	C	1.591378	-0.382247	0.141162
C71	C	1.073303	-0.930586	-0.301676
C72	C	1.573303	-0.430586	0.198324
C73	C	1.055090	-0.832949	-0.244464
C74	C	1.555090	-0.332949	0.255536
C75	C	1.140990	-0.832833	-0.317011
C76	C	1.640990	-0.332833	0.182989
C77	C	1.122907	-0.882246	-0.259803
C78	C	1.622907	-0.382246	0.240197
C79	C	1.073192	-0.700502	-0.301656
C80	C	1.573192	-0.200502	0.198344
C81	C	1.073345	-1.014682	-0.301676
C82	C	1.573345	-0.514682	0.198324
C83	C	1.266926	-0.358024	-0.301622
C84	C	1.766926	0.141976	0.198378
C85	C	1.349472	-0.358046	-0.301610
C86	C	1.849472	0.141954	0.198390
C87	C	1.073279	-0.357926	-0.465072
C88	C	1.573279	0.142074	0.034928
C89	C	1.073304	-0.357907	-0.534713
C90	C	1.573304	0.142093	-0.034713
C91	C	1.073331	-0.164267	-0.301673
C92	C	1.573331	0.335733	0.198327
C93	C	1.073378	-0.081721	-0.301683
C94	C	1.573378	0.418279	0.198317
C95	C	1.025845	-0.310390	-0.567429
C96	C	1.525845	0.189610	-0.067429
C97	C	1.025842	-0.310376	-0.632864
C98	C	1.525842	0.189624	-0.132864
C99	C	1.073312	-0.357871	-0.665582
C100	C	1.573312	0.142129	-0.165582
C101	C	1.120775	-0.405398	-0.632858
C102	C	1.620775	0.094602	-0.132858
C103	C	1.120771	-0.405415	-0.567424
C104	C	1.620771	0.094585	-0.067424
C105	C	1.140225	-0.363723	-0.769253
C106	C	1.640225	0.136277	-0.269253
C107	C	1.140231	-0.363700	-0.834686
C108	C	1.640231	0.136300	-0.334686
C109	C	1.073325	-0.357821	-0.867402
C110	C	1.573325	0.142179	-0.367402
C111	C	1.006411	-0.351950	-0.834678
C112	C	1.506411	0.148050	-0.334678
C113	C	1.006407	-0.351968	-0.769244
C114	C	1.506407	0.148032	-0.269244
C115	C	1.073322	-0.357858	-0.736534
C116	C	1.573322	0.142142	-0.236534
C117	C	1.025859	-0.310287	-0.971071
C118	C	1.525859	0.189713	-0.471071
C119	C	1.025855	-0.310278	-1.036507
C120	C	1.525855	0.189722	-0.536507
C121	C	1.120794	-0.405296	-1.036500
C122	C	1.620794	0.094704	-0.536500
C123	C	1.120791	-0.405308	-0.971064
C124	C	1.620791	0.094692	-0.471064
C125	C	1.073324	-0.357800	-0.938354
C126	C	1.573324	0.142200	-0.438354
C127	C	1.073205	-0.357965	-0.138861
C128	C	1.573205	0.142035	0.361139
C129	C	1.073324	-0.357775	-0.069220
C130	C	1.573324	0.142225	0.430780
H131	H	0.981598	-0.811265	-0.378827
H132	H	1.481598	-0.311265	0.121173
H133	H	1.039705	-0.811383	-0.196103
H134	H	1.539705	-0.311383	0.303897
N135	N	0.626899	-0.214313	-0.334452
N136	N	1.126899	0.285687	0.165548
H137	H	0.583727	-0.179958	-0.342273
H138	H	1.083727	0.320042	0.157727
H139	H	0.658104	-0.194218	-0.299135
H140	H	1.158104	0.305782	0.200865
H141	H	0.527407	-0.266212	-0.224535
H142	H	1.027407	0.233788	0.275465
H143	H	1.106698	-0.903902	-0.407186
H144	H	1.606698	-0.403902	0.092814
N145	N	1.171987	-0.456547	-0.935768
N146	N	1.671987	0.043453	-0.435768
H147	H	1.141784	-0.490961	-0.908613
H148	H	1.641784	0.009039	-0.408613
H149	H	1.202053	-0.486587	-0.966458
H150	H	1.702053	0.013413	-0.466458
N151	N	1.171980	-0.456619	-0.668143
N152	N	1.671980	0.043381	-0.168143
H153	H	1.202046	-0.486725	-0.637486
H154	H	1.702046	0.013275	-0.137486
H155	H	1.141733	-0.490971	-0.695288
H156	H	1.641733	0.009029	-0.195288
H157	H	1.164895	-0.903767	-0.224389
H158	H	1.664895	-0.403767	0.275611
H159	H	1.159421	-0.444109	-0.540787
H160	H	1.659421	0.055891	-0.040787
N161	N	0.627092	-0.396271	-0.180459
N162	N	1.127092	0.103729	0.319541
H163	H	0.608360	-0.359289	-0.148769
H164	H	1.108360	0.140711	0.351231
H165	H	0.609156	-0.447484	-0.168914
H166	H	1.109156	0.052516	0.331086
N167	N	0.520165	-0.501585	-0.268996
N168	N	1.020165	-0.001585	0.231004
H169	H	0.538116	-0.539063	-0.300593
H170	H	1.038116	-0.039063	0.199407
H171	H	0.538922	-0.515533	-0.226106
H172	H	1.038922	-0.015533	0.273894
N173	N	0.974656	-0.259055	-0.935789
N174	N	1.474656	0.240945	-0.435789
H175	H	0.940224	-0.289233	-0.908632
H176	H	1.440224	0.210767	-0.408632
H177	H	1.004906	-0.224660	-0.908686
H178	H	1.504906	0.275340	-0.408686
H179	H	1.198243	-0.811065	-0.330009
H180	H	1.698243	-0.311065	0.169991
N181	N	0.929652	-0.911167	-0.269126
N182	N	1.429652	-0.411167	0.230874
H183	H	0.892180	-0.893229	-0.300745
H184	H	1.392180	-0.393229	0.199255
H185	H	0.930425	-0.967112	-0.268847
H186	H	1.430425	-0.467112	0.231153
H187	H	0.527185	-0.324669	-0.407212
H188	H	1.027185	0.175331	0.092788
H189	H	0.987191	-0.271707	-0.540800
H190	H	1.487191	0.228293	-0.040800
H191	H	0.951924	-0.347188	-0.742602
H192	H	1.451924	0.152812	-0.242602
H193	H	0.987197	-0.271678	-0.659507
H194	H	1.487197	0.228322	-0.159507
N195	N	0.934238	-0.345649	-0.869954
N196	N	1.434238	0.154351	-0.369954
H197	H	0.944389	-0.346546	-0.916372
H198	H	1.444389	0.153454	-0.416372
H199	H	0.901040	-0.388606	-0.858490
H200	H	1.401040	0.111394	-0.358490
H201	H	1.194715	-0.368477	-0.861325
H202	H	1.694715	0.131523	-0.361325
N203	N	1.212391	-0.370077	-0.733968
N204	N	1.712391	0.129923	-0.233968
H205	H	1.254779	-0.373790	-0.764626
H206	H	1.754779	0.126210	-0.264626
H207	H	1.219317	-0.324841	-0.706823
H208	H	1.719317	0.175159	-0.206823
N209	N	0.974658	-0.259026	-1.071791
N210	N	1.474658	0.240974	-0.571791
H211	H	0.986228	-0.205971	-1.060414
H212	H	1.486228	0.294029	-0.560414
H213	H	0.981879	-0.266287	-1.118197
H214	H	1.481879	0.233713	-0.618197
N215	N	0.626981	-0.463231	-0.390290
N216	N	1.126981	0.036769	0.109710
H217	H	0.609004	-0.449499	-0.433467
H218	H	1.109004	0.050501	0.066533
H219	H	0.682927	-0.463134	-0.389635
H220	H	1.182927	0.036866	0.110365
N221	N	1.171989	-0.456531	-1.071778
N222	N	1.671989	0.043469	-0.571778
H223	H	1.164790	-0.449312	-1.118195
H224	H	1.664790	0.050688	-0.618195
H225	H	1.225036	-0.444991	-1.060347
H226	H	1.725036	0.055009	-0.560347
