data_functionalizedCrystal
_audit_creation_method	'MofGen! by Chris Wilmer'
_symmetry_space_group_name_H-M	'P1'
_symmetry_Int_Tables_number	1
_symmetry_cell_setting	triclinic
loop_
_symmetry_equiv_pos_as_xyz
  x,y,z
_cell_length_a	14.908783
_cell_length_b	18.101397
_cell_length_c	18.101390
_cell_angle_alpha	89.964458
_cell_angle_beta	86.680743
_cell_angle_gamma	93.311144
loop_
_atom_site_label
_atom_site_type_symbol
_atom_site_fract_x
_atom_site_fract_y
_atom_site_fract_z
Zn1	Zn	1.379250	-0.229553	-0.484151
Zn2	Zn	1.379150	-0.353414	-0.360299
Zn3	Zn	1.228382	-0.236724	-0.353167
Zn4	Zn	1.228351	-0.360495	-0.476945
O5	O	1.303783	-0.295046	-0.418641
O6	O	1.505485	-0.240019	-0.473723
O7	O	1.359121	-0.337973	-0.255719
O8	O	1.248450	-0.132137	-0.370573
O9	O	1.505411	-0.331019	-0.382729
O10	O	1.359292	-0.126868	-0.466806
O11	O	1.248353	-0.252241	-0.250479
O12	O	1.102130	-0.259107	-0.363586
O13	O	1.248397	-0.343088	-0.581536
O14	O	1.102107	-0.350041	-0.454525
O15	O	1.359261	-0.246885	-0.586830
O16	O	1.359091	-0.457989	-0.375742
O17	O	1.248300	-0.463192	-0.461441
C18	C	1.069384	-0.306121	-0.407500
C19	C	0.969106	-0.310877	-0.402752
C20	C	0.780749	-0.225184	-0.488725
C21	C	0.686530	-0.229649	-0.484266
C22	C	0.686447	-0.324270	-0.389371
C23	C	0.780666	-0.319804	-0.393830
C24	C	0.827814	-0.270260	-0.443510
C25	C	0.922035	-0.265799	-0.447972
C26	C	0.921950	-0.360415	-0.353074
C27	C	0.827731	-0.364880	-0.348615
C28	C	1.303706	-0.487461	-0.418601
C29	C	1.303756	-0.569772	-0.418613
C30	C	1.303871	-0.868858	-0.418686
C31	C	1.373383	-0.834238	-0.364604
C32	C	1.373624	-0.748608	-0.364764
C33	C	1.303814	-0.720478	-0.418649
C34	C	1.329587	-0.750259	-0.497932
C35	C	1.330125	-0.835879	-0.497645
C36	C	1.208400	-0.841885	-0.394152
C37	C	1.208871	-0.756213	-0.392432
C38	C	1.303780	-0.636620	-0.418633
C39	C	1.303907	-0.952716	-0.418707
C40	C	1.539098	-0.283929	-0.429825
C41	C	1.639375	-0.279192	-0.434591
C42	C	1.303837	-0.294976	-0.611805
C43	C	1.303860	-0.294946	-0.694120
C44	C	1.303885	-0.101880	-0.418698
C45	C	1.303929	-0.019564	-0.418722
C46	C	1.303908	-0.294898	-0.993214
C47	C	1.373891	-0.234560	-0.965230
C48	C	1.373673	-0.234359	-0.879602
C49	C	1.303885	-0.294922	-0.844830
C50	C	1.208838	-0.278215	-0.871396
C51	C	1.209257	-0.277768	-0.957061
C52	C	1.328135	-0.372129	-0.962772
C53	C	1.330221	-0.371631	-0.877221
C54	C	1.303866	-0.294937	-0.760970
C55	C	1.303921	-0.294881	-1.077074
C56	C	1.303782	-0.295060	-0.226230
C57	C	1.303934	-0.294873	-0.143924
H58	H	1.357453	-0.855640	-0.305794
O59	O	1.267613	-0.433905	-0.845892
H60	H	1.216515	-0.411052	-0.806574
O61	O	0.972710	-0.409036	-0.304297
H62	H	1.046148	-0.397606	-0.315739
H63	H	0.648213	-0.192942	-0.521083
O64	O	1.467555	-0.247478	-0.996976
H65	H	1.465234	-0.297039	-1.033042
H66	H	1.280505	-0.732218	-0.539506
O67	O	1.467034	-0.247509	-0.856196
H68	H	1.464727	-0.298504	-0.821893
H69	H	1.357635	-0.177054	-0.858371
H70	H	1.357499	-0.728414	-0.306118
O71	O	1.420995	-0.717459	-0.525099
H72	H	1.448216	-0.679949	-0.482271
O73	O	1.137890	-0.334892	-0.841032
H74	H	1.071396	-0.321832	-0.860618
O75	O	0.635581	-0.377693	-0.335785
H76	H	0.653646	-0.434977	-0.349229
O77	O	1.136573	-0.731303	-0.440305
H78	H	1.070479	-0.757529	-0.420292
O79	O	0.972891	-0.212364	-0.501552
H80	H	1.015815	-0.172620	-0.470500
H81	H	0.819138	-0.184846	-0.529179
O82	O	1.181122	-0.204482	-0.841691
H83	H	1.170476	-0.167033	-0.888566
H84	H	1.156608	-0.864597	-0.433487
H85	H	1.443716	-0.852378	-0.381024
O86	O	0.776878	-0.418315	-0.295033
H87	H	0.703454	-0.413851	-0.299529
O88	O	1.467297	-0.716952	-0.386740
H89	H	1.512599	-0.762816	-0.397303
H90	H	1.399910	-0.852495	-0.517902
H91	H	1.281713	-0.858892	-0.539575
O92	O	1.352907	-0.159062	-0.992741
H93	H	1.292851	-0.164326	-1.026258
H94	H	1.188721	-0.221446	-0.976080
H95	H	1.184953	-0.864660	-0.337105
O96	O	1.183113	-0.730602	-0.315119
H97	H	1.237694	-0.692576	-0.295443
O98	O	1.137834	-0.333762	-0.981110
H99	H	1.103144	-0.361036	-0.931559
H100	H	1.396229	-0.388215	-0.987645
O101	O	1.422876	-0.388429	-0.854721
H102	H	1.423043	-0.390366	-0.793440
O103	O	1.260628	-0.431613	-0.986383
H104	H	1.210062	-0.406342	-1.019639
