data_functionalizedCrystal
_audit_creation_method	'MofGen! by Chris Wilmer'
_symmetry_space_group_name_H-M	'P1'
_symmetry_Int_Tables_number	1
_symmetry_cell_setting	triclinic
loop_
_symmetry_equiv_pos_as_xyz
  x,y,z
_cell_length_a	18.760487
_cell_length_b	17.052862
_cell_length_c	17.052832
_cell_angle_alpha	45.842616
_cell_angle_beta	77.719889
_cell_angle_gamma	70.288255
loop_
_atom_site_label
_atom_site_type_symbol
_atom_site_fract_x
_atom_site_fract_y
_atom_site_fract_z
Zr1	Zr	0.853724	0.878577	-0.240374
O2	O	0.792730	1.046031	-0.394431
O3	O	0.853031	0.711124	-0.175235
O4	O	0.913454	0.878578	-0.368497
O5	O	0.706701	0.878576	-0.069098
O6	O	1.030742	0.878577	-0.368415
O7	O	0.732307	0.878577	-0.201169
O8	O	0.922655	0.579033	-0.022705
O9	O	0.814788	1.178120	-0.414807
O10	O	0.963693	0.779999	-0.169035
O11	O	0.857054	0.779999	-0.070532
O12	O	0.928195	0.977154	-0.298072
O13	O	0.821556	0.977153	-0.199569
Zr14	Zr	0.999946	0.878575	-0.029605
Zr15	Zr	1.040783	0.878576	-0.240245
Zr16	Zr	0.812886	0.878575	-0.029735
Zr17	Zr	0.888904	1.089244	-0.272872
Zr18	Zr	0.964766	0.667907	0.002893
O19	O	1.000639	1.046028	-0.094745
O20	O	1.058705	1.046030	-0.394247
O21	O	0.734664	1.046028	-0.094929
O22	O	1.060939	0.711121	0.124452
O23	O	1.119005	0.711123	-0.175051
O24	O	0.794965	0.711122	0.124267
O25	O	1.146968	0.878576	-0.200882
O26	O	0.940215	0.878574	0.098517
O27	O	0.822928	0.878574	0.098436
O28	O	1.121363	0.878575	-0.068810
O29	O	0.963475	1.178120	-0.414704
O30	O	0.890194	0.579032	0.144725
O31	O	1.038882	0.579032	0.144828
O32	O	1.071342	0.579033	-0.022602
O33	O	0.782328	1.178119	-0.247377
O34	O	0.931015	1.178119	-0.247274
O35	O	0.925475	0.779998	0.028093
O36	O	1.032114	0.779998	-0.070410
O37	O	0.996616	0.977153	-0.199448
O38	O	0.889977	0.977153	-0.100945
C39	C	0.882830	0.615063	-0.094340
C40	C	0.867896	0.525629	-0.080544
C41	C	1.048456	0.273539	-0.247340
C42	C	1.062488	0.357571	-0.260309
C43	C	1.013841	0.399590	-0.215369
C44	C	0.951160	0.357568	-0.157457
C45	C	0.937124	0.273533	-0.144494
C46	C	0.902509	0.399584	-0.112523
C47	C	0.839828	0.357562	-0.054611
C48	C	0.825795	0.273536	-0.041649
C49	C	0.874442	0.231517	-0.086590
C50	C	0.916545	0.483618	-0.125486
C51	C	0.805213	0.483613	-0.022640
C52	C	0.791182	0.399580	-0.009670
C53	C	0.692852	0.878576	-0.135152
C54	C	0.613440	0.878576	-0.135207
C55	C	0.259019	0.981493	-0.202176
C56	C	0.296084	0.775660	-0.067458
C57	C	0.370722	0.775658	-0.067542
C58	C	0.389512	0.878575	-0.134945
C59	C	0.333664	0.981494	-0.202264
C60	C	0.426577	0.672741	-0.000233
C61	C	0.501221	0.672735	-0.000315
C62	C	0.520011	0.775653	-0.067713
C63	C	0.464157	0.878577	-0.135034
C64	C	0.482947	0.981494	-0.202437
C65	C	0.427093	1.084418	-0.269753
C66	C	0.352454	1.084413	-0.269662
C67	C	0.594650	0.775659	-0.067804
C68	C	0.557592	0.981495	-0.202526
C69	C	1.160818	0.878576	-0.134828
C70	C	1.240229	0.878575	-0.134773
C71	C	0.977917	0.878578	-0.398468
C72	C	0.995253	0.878578	-0.487889
C73	C	0.970839	1.142089	-0.175640
C74	C	0.985774	1.231523	-0.189436
C75	C	0.785654	0.878570	-0.740124
C76	C	0.769365	0.878562	-0.656103
C77	C	0.825836	0.878567	-0.614046
C78	C	0.898598	0.878578	-0.656017
C79	C	0.914890	0.878577	-0.740041
C80	C	0.955072	0.878574	-0.613962
C81	C	1.027834	0.878585	-0.655934
C82	C	1.044123	0.878585	-0.739950
C83	C	0.987652	0.878580	-0.782007
C84	C	0.938780	0.878575	-0.529939
C85	C	1.068016	0.878582	-0.529856
C86	C	1.084304	0.878589	-0.613877
C87	C	0.875753	0.878574	0.128488
C88	C	0.858416	0.878573	0.217910
C89	C	1.116813	0.615062	-0.094178
C90	C	1.181290	0.525628	-0.080326
C91	C	0.831749	0.615061	0.169138
C92	C	0.799477	0.525626	0.272356
C93	C	1.065732	0.615061	0.169300
C94	C	1.112872	0.525626	0.272573
C95	C	0.787938	1.142091	-0.439280
C96	C	0.740798	1.231526	-0.542553
C97	C	0.736856	1.142089	-0.175802
C98	C	0.672379	1.231523	-0.189653
C99	C	1.021921	1.142091	-0.439117
C100	C	1.054192	1.231525	-0.542336
C101	C	1.175856	0.483630	-0.125312
C102	C	1.236438	0.399608	-0.112318
C103	C	1.302451	0.357582	-0.054333
C104	C	1.307884	0.399589	-0.009348
C105	C	1.247306	0.483614	-0.022348
C106	C	0.820036	0.483626	0.372318
C107	C	0.789711	0.399605	0.469309
C108	C	0.738831	0.357579	0.466336
C109	C	0.718270	0.399587	0.366363
C110	C	0.748591	0.483613	0.269373
C111	C	1.190682	0.483627	0.269654
C112	C	1.234986	0.399605	0.366680
C113	C	1.201477	0.357578	0.466625
C114	C	1.123660	0.399586	0.469542
C115	C	1.079359	0.483612	0.372516
C116	C	0.662990	1.273535	-0.539635
C117	C	0.618690	1.357583	-0.636665
C118	C	0.652199	1.399614	-0.736611
C119	C	0.730015	1.357601	-0.739527
C120	C	0.774314	1.273561	-0.642498
C121	C	0.677817	1.273531	-0.144678
C122	C	0.617244	1.357575	-0.157698
C123	C	0.551232	1.399605	-0.215687
C124	C	0.545797	1.357594	-0.260668
C125	C	0.606371	1.273557	-0.247654
C126	C	1.105070	1.273525	-0.539327
C127	C	1.135406	1.357547	-0.636302
C128	C	1.114859	1.399574	-0.736284
C129	C	1.063978	1.357566	-0.739290
C130	C	1.033647	1.273540	-0.642315
H131	H	1.113521	0.391784	-0.307462
F132	F	1.161741	0.878601	-0.658554
H133	H	0.757292	1.391834	-0.820914
H134	H	0.555330	1.391776	-0.634270
H135	H	0.837670	1.239358	-0.644886
F136	F	0.726708	0.528298	0.162991
H137	H	0.967581	0.517825	-0.172639
F138	F	1.105607	0.528345	-0.187032
F139	F	0.724476	0.354844	0.051967
F140	F	1.100217	0.228825	-0.295172
F141	F	0.808498	0.878561	-0.524624
H142	H	0.774752	0.239332	0.005497
H143	H	0.635691	1.239318	-0.458262
H144	H	1.121807	1.239319	-0.457926
H145	H	0.546692	0.588928	0.054496
F146	F	1.147145	1.489005	-0.839486
F147	F	0.475535	1.402334	-0.322379
H148	H	0.731560	1.239317	-0.097452
F149	F	1.253098	0.528298	0.025543
F150	F	1.128120	0.878581	-0.485095
F151	F	0.859511	0.142075	-0.072781
H152	H	0.765600	0.517827	0.013951
F153	F	0.276085	0.666134	0.004267
F154	F	1.028777	0.489023	-0.229172
F155	F	1.226361	0.528345	0.163294
F156	F	1.042112	1.402314	-0.845710
F157	F	1.317802	0.354909	0.363554
F158	F	1.230639	0.354913	-0.160199
F159	F	1.088008	0.354846	0.575921
H160	H	0.861462	0.517835	0.374759
H161	H	0.621682	1.391767	-0.121063
F162	F	0.577581	1.091037	-0.274262
F163	F	1.366918	0.268152	-0.040504
H164	H	0.501913	1.468033	-0.226275
F165	F	1.004987	0.878595	-0.871437
H166	H	1.103372	0.878581	-0.774115
F167	F	1.378145	0.354847	0.052366
H168	H	1.237559	0.289159	0.545622
F169	F	0.725564	0.878553	-0.784878
F170	F	0.706567	0.268150	0.569570
H171	H	0.676841	0.365357	0.363958
H172	H	0.442403	1.168214	-0.324638
F173	F	0.293008	1.193942	-0.341299
F174	F	0.654091	0.666128	0.003826
H175	H	0.601933	1.239357	-0.284276
H176	H	0.616119	1.468045	-0.815610
H177	H	0.806462	0.365412	0.550701
F178	F	0.979492	1.228858	-0.645535
H179	H	0.213540	1.065291	-0.256979
H180	H	1.016001	0.517796	0.374908
H181	H	1.176832	1.391741	-0.633834
F182	F	0.406576	0.563217	0.071493
F183	F	0.691931	0.878549	-0.611435
F184	F	0.861342	0.878563	-0.485279
