data_functionalizedCrystal
_audit_creation_method	'MofGen! by Chris Wilmer'
_symmetry_space_group_name_H-M	'P1'
_symmetry_Int_Tables_number	1
_symmetry_cell_setting	triclinic
loop_
_symmetry_equiv_pos_as_xyz
  x,y,z
_cell_length_a	17.699083
_cell_length_b	10.489741
_cell_length_c	16.776229
_cell_angle_alpha	89.993659
_cell_angle_beta	89.998886
_cell_angle_gamma	83.911094
loop_
_atom_site_label
_atom_site_type_symbol
_atom_site_fract_x
_atom_site_fract_y
_atom_site_fract_z
O1	O	1.005134	0.161296	-0.066176
O2	O	0.784893	0.182281	-0.066202
O3	O	0.900025	-0.013903	-0.066184
O4	O	0.890002	0.357479	-0.066194
O5	O	0.900009	-0.013915	0.066393
O6	O	0.784877	0.182269	0.066375
O7	O	1.005118	0.161284	0.066401
Zn8	Zn	0.894995	0.171774	0.087437
Zn9	Zn	0.895016	0.171790	-0.087238
O10	O	0.889986	0.357467	0.066382
C11	C	0.756683	0.181523	0.000083
C12	C	0.672650	0.179267	0.000073
C13	C	0.624782	0.294422	0.000070
C14	C	0.545825	0.292295	0.000080
C15	C	0.514737	0.175011	0.000088
C16	C	0.562611	0.059847	0.000094
C17	C	0.641567	0.061975	0.000089
C18	C	0.244192	0.051260	0.000114
C19	C	0.165230	0.049140	0.000116
C20	C	0.148450	0.281580	0.000105
C21	C	0.227406	0.283709	0.000100
C22	C	0.275273	0.168545	0.000110
C23	C	0.360887	0.170853	0.000100
C24	C	0.429124	0.172702	0.000092
C25	C	0.899260	-0.061427	0.000104
C26	C	0.896995	-0.203014	0.000102
C27	C	0.823740	-0.269793	0.000088
C28	C	0.858337	-0.362564	0.065459
C29	C	0.858370	-0.362527	-0.065251
C30	C	0.931623	-0.293920	0.065528
C31	C	0.931645	-0.293874	-0.065241
C32	C	0.966296	-0.386619	0.000146
C33	C	1.033328	0.162042	0.000114
C34	C	1.117361	0.164297	0.000119
C35	C	0.890751	0.404991	0.000093
C36	C	0.893016	0.546578	0.000089
N37	N	0.894987	0.171763	0.206648
N38	N	0.895030	0.171791	-0.206450
C39	C	0.945983	0.084928	0.248373
C40	C	0.945987	0.084927	0.331826
C41	C	0.894998	0.171767	0.373551
C42	C	0.843996	0.258606	0.331820
C43	C	0.843989	0.258600	0.248369
C44	C	0.844024	0.258631	0.668367
C45	C	0.844037	0.258633	0.751824
C46	C	0.946022	0.084958	0.751823
C47	C	0.946015	0.084952	0.668373
C48	C	0.895011	0.171786	0.626649
C49	C	0.895006	0.171784	0.536161
C50	C	0.895006	0.171776	0.464038
H51	H	0.650088	0.389929	0.000063
C52	C	0.787932	0.354139	0.797721
H53	H	0.757547	0.405840	0.760920
H54	H	0.815435	0.407189	0.830271
H55	H	0.756190	0.308291	0.830278
C56	C	0.095795	0.408260	0.000105
H57	H	0.044319	0.390202	0.000118
H58	H	0.105284	0.456365	-0.046131
H59	H	0.105292	0.456357	0.046340
C60	C	0.787885	0.354093	0.377712
H61	H	0.757501	0.405789	0.340908
H62	H	0.815377	0.407151	0.410270
H63	H	0.756143	0.308233	0.410261
H64	H	0.987512	0.014219	0.365798
H65	H	0.139922	-0.046372	0.000123
C66	C	0.787928	0.354154	0.622481
H67	H	0.757570	0.405882	0.659286
H68	H	0.756170	0.308343	0.589936
H69	H	0.815442	0.407195	0.589920
H70	H	0.680540	-0.031796	0.000091
C71	C	0.296835	-0.075414	0.000119
H72	H	0.267009	-0.145565	0.000116
H73	H	0.327985	-0.079424	0.046350
H74	H	0.327983	-0.079415	-0.046120
H75	H	0.252713	0.379213	0.000090
C76	C	0.493174	0.418966	0.000074
H77	H	0.522997	0.489120	0.000059
H78	H	0.462027	0.422971	0.046309
H79	H	0.462022	0.422967	-0.046161
C80	C	0.528416	-0.069163	0.000101
H81	H	0.474537	-0.053940	0.000094
H82	H	0.544804	-0.116575	0.046333
H83	H	0.544804	-0.116559	-0.046137
C84	C	1.002100	-0.010576	0.622479
H85	H	1.032468	-0.062302	0.659282
H86	H	1.033850	0.035233	0.589913
H87	H	0.974577	-0.063618	0.589937
H88	H	0.763510	-0.219023	0.000147
C89	C	0.816459	-0.403696	0.140107
H90	H	0.765812	-0.363293	0.140023
H91	H	0.841992	-0.379056	0.186529
H92	H	0.815722	-0.494120	0.139810
C93	C	0.973444	-0.253062	0.140275
H94	H	0.974603	-0.162725	0.139839
H95	H	1.023933	-0.294116	0.140474
H96	H	0.947580	-0.277120	0.186633
C97	C	1.002071	-0.010600	0.202483
H98	H	1.032437	-0.062323	0.239288
H99	H	1.033822	0.035209	0.169918
H100	H	0.974550	-0.063644	0.169940
H101	H	1.026580	-0.437163	0.000189
C102	C	0.973489	-0.252691	-0.139893
H103	H	0.947395	-0.275901	-0.186299
H104	H	1.023844	-0.294299	-0.140358
H105	H	0.975023	-0.162446	-0.139087
C106	C	0.816495	-0.403588	-0.139912
H107	H	0.765854	-0.363160	-0.139832
H108	H	0.815754	-0.494004	-0.139641
H109	H	0.842035	-0.378900	-0.186327
C110	C	1.002119	-0.010572	0.797722
H111	H	0.994817	0.001854	0.853398
H112	H	1.052702	0.003174	0.784039
H113	H	0.993433	-0.095684	0.784051
C114	C	0.787896	0.354123	0.202472
H115	H	0.757535	0.405852	0.239272
H116	H	0.756141	0.308305	0.169925
H117	H	0.815411	0.407163	0.169910
