data_functionalizedCrystal
_audit_creation_method	'MofGen! by Chris Wilmer'
_symmetry_space_group_name_H-M	'P1'
_symmetry_Int_Tables_number	1
_symmetry_cell_setting	triclinic
loop_
_symmetry_equiv_pos_as_xyz
  x,y,z
_cell_length_a	6.817900
_cell_length_b	19.453067
_cell_length_c	19.453046
_cell_angle_alpha	96.319331
_cell_angle_beta	101.708137
_cell_angle_gamma	101.708464
loop_
_atom_site_label
_atom_site_type_symbol
_atom_site_fract_x
_atom_site_fract_y
_atom_site_fract_z
V1	V	-3.997989	-0.097929	-0.219328
O2	O	-3.995096	0.003937	-0.214819
O3	O	-3.941004	-0.193437	-0.218149
O4	O	-3.941009	-0.096759	-0.314838
O5	O	-3.995090	-0.093409	-0.117460
V6	V	-4.483842	-0.085704	-0.207105
O7	O	-4.254138	-0.124743	-0.246140
O8	O	-4.677890	-0.058890	-0.180292
O9	O	-4.317621	0.009804	-0.208284
O10	O	-4.604132	-0.187571	-0.211613
O11	O	-4.604138	-0.090224	-0.308972
O12	O	-4.317615	-0.086874	-0.111595
C13	C	-3.784194	-0.216709	-0.214771
C14	C	-3.818831	-0.294791	-0.214444
C15	C	-3.784200	-0.093387	-0.338107
C16	C	-3.818839	-0.093063	-0.416189
C17	C	-4.034528	-0.841962	-0.147827
C18	C	-4.001964	-0.768594	-0.148127
C19	C	-4.017290	-0.742116	-0.212597
C20	C	-4.065132	-0.789011	-0.276770
C21	C	-4.097674	-0.862376	-0.276467
N22	N	-4.103237	-0.636832	-0.263559
N23	N	-4.072326	-0.567137	-0.263842
C24	C	-3.919241	-0.521071	-0.213514
N25	N	-3.798254	-0.547332	-0.162881
N26	N	-3.829176	-0.617032	-0.162595
C27	C	-3.982006	-0.662565	-0.212933
C28	C	-3.836082	-0.394632	-0.149670
C29	C	-3.803506	-0.321264	-0.149973
C30	C	-3.866696	-0.341683	-0.278618
C31	C	-3.899249	-0.415049	-0.278313
C32	C	-3.883949	-0.441520	-0.213837
C33	C	-4.099589	-0.155080	-0.983811
C34	C	-4.067030	-0.155389	-0.910445
C35	C	-4.017287	-0.091185	-0.863510
C36	C	-4.000053	-0.026666	-0.889945
C37	C	-4.032593	-0.026358	-0.963309
N38	N	-4.054593	-0.045960	-0.742933
N39	N	-4.023688	-0.046257	-0.673240
C40	C	-3.919240	-0.092110	-0.642466
N41	N	-3.846894	-0.137666	-0.684020
N42	N	-3.877812	-0.137371	-0.753719
C43	C	-3.981998	-0.091512	-0.783957
C44	C	-3.901156	-0.156961	-0.536488
C45	C	-3.868582	-0.157267	-0.463120
C46	C	-3.801626	-0.028543	-0.442621
C47	C	-3.834180	-0.028237	-0.515987
C48	C	-3.883954	-0.092449	-0.562917
C49	C	-4.137773	0.033073	-0.211659
C50	C	-4.082373	0.111153	-0.211991
C51	C	-4.137767	-0.090249	-0.088322
C52	C	-4.082367	-0.090569	-0.010239
H53	H	-4.022061	-0.863508	-0.095325
H54	H	-4.136633	-0.900551	-0.328719
C55	C	-3.770331	-0.367082	-0.022541
C56	C	-3.819236	-0.423734	-0.078800
H57	H	-3.759918	-0.385049	0.021210
H58	H	-3.875249	-0.341256	-0.028008
H59	H	-3.642636	-0.336529	-0.022667
H60	H	-3.946939	-0.454285	-0.078678
H61	H	-3.714310	-0.449572	-0.073332
C62	C	-4.201487	0.045345	-1.037305
C63	C	-4.013681	0.044556	-0.992365
H64	H	-4.189806	0.089123	-1.055246
H65	H	-4.306245	0.040306	-1.011402
H66	H	-4.235756	0.007146	-1.075752
H67	H	-3.979418	0.082752	-0.953915
H68	H	-3.908890	0.049602	-1.018268
H69	H	-3.879164	-0.320125	-0.331111
H70	H	-3.761103	0.023734	-0.404406
C71	C	-3.764749	0.098966	-0.488354
C72	C	-3.815279	0.042675	-0.545041
H73	H	-3.753088	0.142745	-0.506292
H74	H	-3.637364	0.098418	-0.457872
H75	H	-3.869552	0.093914	-0.462461
H76	H	-3.710469	0.047725	-0.570931
H77	H	-3.942682	0.043224	-0.575535
C78	C	-3.942876	-0.755775	-0.020939
C79	C	-3.949417	-0.717047	-0.077594
H80	H	-3.910460	-0.723952	0.022603
H81	H	-3.840554	-0.782439	-0.020805
H82	H	-4.073196	-0.787190	-0.026189
H83	H	-3.819091	-0.685636	-0.072347
H84	H	-4.051744	-0.690371	-0.077727
C85	C	-3.938310	-0.284478	-0.490762
C86	C	-3.887671	-0.228186	-0.434072
H87	H	-3.950152	-0.328262	-0.472828
H88	H	-3.833492	-0.279472	-0.516640
H89	H	-4.065651	-0.283884	-0.521258
H90	H	-3.760322	-0.228778	-0.403578
H91	H	-3.992496	-0.233194	-0.408183
H92	H	-3.941667	-0.209245	-0.574700
H93	H	-4.077603	-0.767448	-0.329262
C94	C	-3.901711	-0.230397	-0.079634
C95	C	-3.750907	-0.269723	-0.079438
H96	H	-3.869226	-0.198575	-0.036089
H97	H	-4.032009	-0.261804	-0.084866
H98	H	-3.906141	-0.204132	-0.118076
H99	H	-3.746486	-0.295993	-0.040999
H100	H	-3.620573	-0.238312	-0.074199
C101	C	-4.179223	-0.211769	-1.105373
C102	C	-4.154289	-0.225659	-1.035396
H103	H	-4.213004	-0.255343	-1.137220
H104	H	-4.054712	-0.183034	-1.110887
H105	H	-4.286891	-0.187520	-1.115474
H106	H	-4.046610	-0.249904	-1.025294
H107	H	-4.278816	-0.254406	-1.029880
C108	C	-4.240341	-0.233861	-0.843282
C109	C	-4.085887	-0.226342	-0.881459
H110	H	-4.251949	-0.277674	-0.825408
H111	H	-4.367736	-0.233302	-0.873752
H112	H	-4.206065	-0.195711	-0.804787
H113	H	-4.120172	-0.264490	-0.919958
H114	H	-3.958465	-0.226908	-0.850988
H115	H	-3.938221	-0.453225	-0.330563
H116	H	-3.959543	0.025609	-0.851725
