data_functionalizedCrystal
_audit_creation_method	'MofGen! by Chris Wilmer'
_symmetry_space_group_name_H-M	'P1'
_symmetry_Int_Tables_number	1
_symmetry_cell_setting	triclinic
loop_
_symmetry_equiv_pos_as_xyz
  x,y,z
_cell_length_a	12.827893
_cell_length_b	25.639240
_cell_length_c	12.827885
_cell_angle_alpha	90.043165
_cell_angle_beta	90.019272
_cell_angle_gamma	90.032728
loop_
_atom_site_label
_atom_site_type_symbol
_atom_site_fract_x
_atom_site_fract_y
_atom_site_fract_z
Zn1	Zn	1.597543	-0.208126	0.590751
Zn2	Zn	1.597385	-0.295571	0.415971
Zn3	Zn	1.422785	-0.208151	0.416025
Zn4	Zn	1.422717	-0.295532	0.590671
O5	O	1.510108	-0.251845	0.503355
O6	O	1.743758	-0.219731	0.567578
O7	O	1.574185	-0.284002	0.269742
O8	O	1.446062	-0.134983	0.439259
O9	O	1.743642	-0.283977	0.439167
O10	O	1.574456	-0.134964	0.567630
O11	O	1.445908	-0.219775	0.269782
O12	O	1.276540	-0.219737	0.439181
O13	O	1.445946	-0.283911	0.736918
O14	O	1.276490	-0.283935	0.567493
O15	O	1.574391	-0.219694	0.736977
O16	O	1.574120	-0.368731	0.439089
O17	O	1.445792	-0.368702	0.567440
C18	C	1.238598	-0.251835	0.503335
C19	C	1.122445	-0.251843	0.503351
C20	C	1.509960	-0.387688	0.503273
C21	C	1.509992	-0.445802	0.503273
C22	C	1.070663	-0.283660	0.566746
C23	C	0.950612	-0.283670	0.566764
C24	C	1.576996	-0.806117	0.570318
C25	C	1.577027	-0.860721	0.570339
O26	O	1.633820	-0.888917	0.627259
N27	N	1.510253	-0.888084	0.503456
C28	C	1.443436	-0.860840	0.436554
O29	O	1.386642	-0.889129	0.379667
C30	C	1.443401	-0.806237	0.436539
C31	C	1.510186	-0.778876	0.503419
C32	C	1.643775	-0.778756	0.637194
C33	C	1.643746	-0.724155	0.637171
C34	C	1.576936	-0.696915	0.570272
C35	C	1.510157	-0.724276	0.503396
C36	C	1.376579	-0.778994	0.369643
C37	C	1.376549	-0.724387	0.369634
C38	C	1.443335	-0.697027	0.436515
C39	C	1.443318	-0.642435	0.436475
N40	N	1.510092	-0.615072	0.503358
C41	C	1.576901	-0.642312	0.570257
C42	C	1.443514	-0.975511	0.436592
C43	C	1.443554	-1.030113	0.436601
C44	C	1.577143	-1.029990	0.570388
C45	C	1.577108	-0.975387	0.570373
C46	C	1.510288	-0.948148	0.503476
C47	C	1.576834	-0.527647	0.570203
C48	C	1.576802	-0.473042	0.570171
C49	C	1.443209	-0.473170	0.436389
C50	C	1.443245	-0.527770	0.436416
C51	C	1.510061	-0.555008	0.503332
O52	O	1.386551	-0.614205	0.379587
O53	O	1.633676	-0.614017	0.627144
C54	C	1.782678	-0.251856	0.503375
C55	C	1.898831	-0.251860	0.503384
C56	C	1.510179	-0.251795	0.775925
C57	C	1.510209	-0.251773	0.892078
C58	C	1.510284	-0.115472	0.503460
C59	C	1.510360	-0.057358	0.503504
C60	C	1.510097	-0.251857	0.231845
C61	C	1.510269	-0.251731	0.115692
C62	C	1.573774	-0.219991	0.943892
C63	C	1.573807	-0.219968	1.063943
H64	H	0.906081	-0.310911	0.621035
H65	H	1.388870	-0.550048	0.381949
O66	O	1.069434	-0.219379	0.438464
C67	C	1.035737	-0.193937	0.260831
C68	C	1.095846	-0.230728	0.334203
H69	H	1.057052	-0.203107	0.176520
H70	H	1.057203	-0.151768	0.279233
H71	H	0.948386	-0.199721	0.272427
H72	H	1.183210	-0.224990	0.322648
H73	H	1.074293	-0.272883	0.315783
O74	O	1.311599	-0.805483	0.304646
C75	C	1.179119	-0.799818	0.171925
C76	C	1.252646	-0.769757	0.245500
H77	H	1.131452	-0.770947	0.124070
H78	H	1.124393	-0.825367	0.219814
H79	H	1.227142	-0.825402	0.117366
H80	H	1.204707	-0.744144	0.300074
H81	H	1.307375	-0.744241	0.197546
H82	H	1.455850	-0.278945	1.071140
O83	O	1.445463	-0.284275	0.945221
C84	C	1.431462	-0.354766	1.068569
C85	C	1.504907	-0.317997	1.008437
H86	H	1.479492	-0.382032	1.119711
H87	H	1.383618	-0.378738	1.010931
H88	H	1.376887	-0.330718	1.119639
H89	H	1.559546	-0.342005	0.957366
H90	H	1.552678	-0.294023	1.066132
O91	O	0.951824	-0.219288	0.438677
C92	C	0.985522	-0.130334	0.388355
C93	C	0.925415	-0.167162	0.461685
H94	H	0.964209	-0.088181	0.406945
H95	H	0.964051	-0.139415	0.304024
H96	H	1.072873	-0.136144	0.399856
H97	H	0.838051	-0.161372	0.450277
H98	H	0.946973	-0.158071	0.545989
O99	O	1.708734	-0.805269	0.702037
C100	C	1.849923	-0.866810	0.716237
C101	C	1.776394	-0.836831	0.642688
H102	H	1.904659	-0.892326	0.668282
H103	H	1.802004	-0.892407	0.770838
H104	H	1.897589	-0.837856	0.764048
H105	H	1.728711	-0.865746	0.594809
H106	H	1.824372	-0.811225	0.588155
O107	O	1.123910	-0.316078	0.631533
C108	C	1.247284	-0.323127	0.772506
C109	C	1.187069	-0.286355	0.699182
H110	H	1.298346	-0.299110	0.827233
H111	H	1.298411	-0.350401	0.724425
H112	H	1.189608	-0.347097	0.820192
H113	H	1.244670	-0.262351	0.651480
H114	H	1.135926	-0.259116	0.747323
O115	O	1.641711	-0.446545	0.635244
C116	C	1.774258	-0.452196	0.767901
C117	C	1.700790	-0.482265	0.694279
H118	H	1.822058	-0.481062	0.815634
H119	H	1.726287	-0.426641	0.822562
H120	H	1.828871	-0.426617	0.719949
H121	H	1.646162	-0.507872	0.742147
H122	H	1.748827	-0.507787	0.639615
H123	H	1.631541	-1.052179	0.624863
H124	H	1.698125	-0.701882	0.691633
O125	O	1.641590	-0.554126	0.635311
C126	C	1.655625	-0.615720	0.776402
C127	C	1.582168	-0.585755	0.702758
H128	H	1.607614	-0.641308	0.830937
H129	H	1.703329	-0.586804	0.824269
H130	H	1.710330	-0.641260	0.728461
H131	H	1.527400	-0.560215	0.750618
H132	H	1.534538	-0.614700	0.654888
O133	O	1.642008	-0.948892	0.635446
C134	C	1.774554	-0.954548	0.768104
C135	C	1.701091	-0.984614	0.694472
H136	H	1.822357	-0.983416	0.815830
H137	H	1.726579	-0.928998	0.822771
H138	H	1.829165	-0.928964	0.720160
H139	H	1.646466	-1.010226	0.742332
H140	H	1.749131	-1.010131	0.639802
O141	O	1.638882	-0.187559	1.117046
C142	C	1.816647	-0.162171	1.150631
C143	C	1.743068	-0.198916	1.090442
H144	H	1.900895	-0.171332	1.129128
H145	H	1.805195	-0.167939	1.237993
H146	H	1.798307	-0.120009	1.129277
H147	H	1.761362	-0.241092	1.111709
H148	H	1.754533	-0.193102	1.003095
H149	H	1.389181	-1.052385	0.382130
O150	O	1.638561	-0.187473	0.890839
C151	C	1.689410	-0.098563	0.857351
C152	C	1.615956	-0.135329	0.917478
H153	H	1.671175	-0.056397	0.878883
H154	H	1.677815	-0.104317	0.769979
H155	H	1.773681	-0.107762	0.878733
H156	H	1.531657	-0.126153	0.896183
H157	H	1.627642	-0.129568	1.004835
H158	H	1.389104	-0.953335	0.382108
H159	H	1.322133	-0.702212	0.315160
O160	O	1.378345	-0.446622	0.371507
C161	C	1.319140	-0.362551	0.312167
C162	C	1.392640	-0.392552	0.385708
H163	H	1.330688	-0.318829	0.323607
H164	H	1.234849	-0.373273	0.330455
H165	H	1.337521	-0.373345	0.227930
H166	H	1.374353	-0.381773	0.469970
H167	H	1.476909	-0.381826	0.367330
