data_functionalizedCrystal
_audit_creation_method	'MofGen! by Chris Wilmer'
_symmetry_space_group_name_H-M	'P1'
_symmetry_Int_Tables_number	1
_symmetry_cell_setting	triclinic
loop_
_symmetry_equiv_pos_as_xyz
  x,y,z
_cell_length_a	19.188930
_cell_length_b	10.868271
_cell_length_c	19.188928
_cell_angle_alpha	89.991193
_cell_angle_beta	96.855705
_cell_angle_gamma	90.018212
loop_
_atom_site_label
_atom_site_type_symbol
_atom_site_fract_x
_atom_site_fract_y
_atom_site_fract_z
O1	O	0.926144	0.102738	-0.087164
O2	O	1.426144	0.602738	0.412836
O3	O	0.722833	0.102656	-0.098899
O4	O	1.222833	0.602656	0.401101
O5	O	0.830357	0.102668	0.008624
O6	O	1.330357	0.602668	0.508624
O7	O	0.818621	0.102726	-0.194687
O8	O	1.318621	0.602726	0.305313
O9	O	0.830347	-0.101977	0.008621
O10	O	1.330347	0.398023	0.508621
O11	O	0.722823	-0.101989	-0.098902
O12	O	1.222823	0.398011	0.401098
O13	O	0.926135	-0.101907	-0.087168
O14	O	1.426135	0.398093	0.412832
Zn15	Zn	0.824477	-0.134440	-0.093036
Zn16	Zn	1.324477	0.365560	0.406964
Zn17	Zn	0.824490	0.135189	-0.093031
Zn18	Zn	1.324490	0.635189	0.406969
O19	O	0.818611	-0.101919	-0.194691
O20	O	1.318611	0.398081	0.305309
C21	C	0.696817	0.000323	-0.098520
C22	C	1.196817	0.500323	0.401480
C23	C	0.619313	0.000290	-0.097380
C24	C	1.119313	0.500290	0.402620
N25	N	0.824474	-0.318454	-0.093038
N26	N	1.324474	0.181546	0.406962
C27	C	0.824479	-0.429791	-0.093038
C28	C	1.324479	0.070209	0.406962
C29	C	0.824488	-0.569469	-0.093032
C30	C	1.324488	-0.069469	0.406968
C31	C	0.574388	0.000327	-0.160471
C32	C	1.074388	0.500327	0.339529
C33	C	0.501564	0.000340	-0.159399
C34	C	1.001564	0.500340	0.340601
C35	C	0.473668	0.000341	-0.095233
C36	C	0.973668	0.500341	0.404767
C37	C	0.518603	0.000297	-0.032133
C38	C	1.018603	0.500297	0.467867
C39	C	0.591425	0.000272	-0.033207
C40	C	1.091425	0.500272	0.466793
N41	N	0.365692	0.070026	-0.046184
N42	N	0.865692	0.570026	0.453816
N43	N	0.296513	0.070053	-0.045169
N44	N	0.796513	0.570053	0.454831
C45	C	0.254260	0.000416	-0.091995
C46	C	0.754260	0.500416	0.408005
N47	N	0.283797	-0.069235	-0.139885
N48	N	0.783797	0.430765	0.360115
N49	N	0.352981	-0.069256	-0.140902
N50	N	0.852981	0.430744	0.359098
C51	C	0.394706	0.000368	-0.094062
C52	C	0.894706	0.500368	0.405938
C53	C	0.130371	0.000465	-0.153928
C54	C	0.630371	0.500465	0.346072
C55	C	0.057546	0.000471	-0.152854
C56	C	0.557546	0.500471	0.347146
C57	C	0.074586	0.000440	-0.025586
C58	C	0.574586	0.500440	0.474414
C59	C	0.147409	0.000422	-0.026662
C60	C	0.647409	0.500422	0.473338
C61	C	0.175297	0.000441	-0.090835
C62	C	0.675297	0.500441	0.409165
C63	C	0.952150	0.000429	-0.087546
C64	C	1.452150	0.500429	0.412454
C65	C	1.029655	0.000470	-0.088687
C66	C	1.529655	0.500470	0.411313
C67	C	0.829972	0.000340	0.034634
C68	C	1.329972	0.500340	0.534634
C69	C	0.828832	0.000324	0.112138
C70	C	1.328832	0.500324	0.612138
N71	N	0.824499	0.319203	-0.093023
N72	N	1.324499	0.819203	0.406977
C73	C	0.891923	0.000340	0.157062
C74	C	1.391923	0.500340	0.657062
C75	C	0.890852	0.000354	0.229886
C76	C	1.390852	0.500354	0.729886
C77	C	0.826686	0.000327	0.257783
C78	C	1.326686	0.500327	0.757783
C79	C	0.763587	0.000318	0.212849
C80	C	1.263587	0.500318	0.712849
C81	C	0.764660	0.000316	0.140027
C82	C	1.264660	0.500316	0.640027
N83	N	0.777637	-0.069345	0.365787
N84	N	1.277637	0.430655	0.865787
N85	N	0.776622	-0.069345	0.434965
N86	N	1.276622	0.430655	0.934965
C87	C	0.823450	0.000336	0.477192
C88	C	1.323450	0.500336	0.977192
N89	N	0.871342	0.070002	0.447627
N90	N	1.371342	0.570002	0.947627
N91	N	0.872359	0.069997	0.378442
N92	N	1.372359	0.569997	0.878442
C93	C	0.825516	0.000330	0.336745
C94	C	1.325516	0.500330	0.836745
C95	C	0.885384	0.000369	0.601080
C96	C	1.385384	0.500369	1.101080
C97	C	0.884311	0.000391	0.673905
C98	C	1.384311	0.500391	1.173905
C99	C	0.757043	0.000342	0.656866
C100	C	1.257043	0.500342	1.156866
C101	C	0.758119	0.000332	0.584043
C102	C	1.258119	0.500332	1.084043
C103	C	0.822291	0.000340	0.556155
C104	C	1.322291	0.500340	1.056155
C105	C	0.818998	0.000394	0.779300
C106	C	1.318998	0.500394	1.279300
C107	C	0.820144	0.000366	0.701797
C108	C	1.320144	0.500366	1.201797
H109	H	0.597089	0.000345	-0.212725
H110	H	1.097089	0.500345	0.287275
H111	H	0.495885	0.000315	0.020111
H112	H	0.995885	0.500315	0.520111
C113	C	0.953715	0.000407	0.723322
C114	C	1.453715	0.500407	1.223322
H115	H	0.992084	0.000399	0.696280
H116	H	1.492084	0.500399	1.196280
H117	H	0.955951	0.071773	0.752078
H118	H	1.455951	0.571773	1.252078
H119	H	0.955931	-0.070964	0.752090
H120	H	1.455931	0.429036	1.252090
H121	H	0.464980	0.000367	-0.210777
H122	H	0.964980	0.500367	0.289223
H123	H	0.628003	0.000242	0.018171
H124	H	1.128003	0.500242	0.518171
C125	C	0.695258	0.000295	0.090605
C126	C	1.195258	0.500295	0.590605
H127	H	0.705088	0.000303	0.043240
H128	H	1.205088	0.500303	0.543240
H129	H	0.668930	-0.071074	0.099046
H130	H	1.168930	0.428926	0.599046
H131	H	0.668945	0.071663	0.099032
H132	H	1.168945	0.571663	0.599032
C133	C	0.043912	0.000435	0.044997
C134	C	0.543912	0.500435	0.544997
H135	H	0.081101	0.000404	0.082419
H136	H	0.581101	0.500404	0.582419
H137	H	0.015877	0.071804	0.048065
H138	H	0.515877	0.571804	0.548065
H139	H	0.015841	-0.070933	0.048058
H140	H	0.515841	0.429067	0.548058
C141	C	0.161054	0.000471	-0.224511
C142	C	0.661054	0.500471	0.275489
H143	H	0.210859	0.000467	-0.216115
H144	H	0.710859	0.500467	0.283885
H145	H	0.145601	-0.070884	-0.250481
H146	H	0.645601	0.429116	0.249519
H147	H	0.145638	0.071853	-0.250479
H148	H	0.645638	0.571853	0.249521
H149	H	0.937637	0.000381	0.578372
H150	H	1.437637	0.500381	1.078372
C151	C	0.686462	0.000316	0.687544
C152	C	1.186462	0.500316	1.187544
H153	H	0.694858	0.000314	0.737349
H154	H	1.194858	0.500314	1.237349
H155	H	0.660496	0.071669	0.672101
H156	H	1.160496	0.571669	1.172101
H157	H	0.660490	-0.071068	0.672117
H158	H	1.160490	0.428932	1.172117
H159	H	0.706743	0.000312	0.547465
H160	H	1.206743	0.500312	1.047465
H161	H	0.020968	0.000494	-0.204232
H162	H	0.520968	0.500494	0.295768
C163	C	0.693004	0.000293	0.243529
C164	C	1.193004	0.500293	0.743529
H165	H	0.655581	0.000293	0.206340
H166	H	1.155581	0.500293	0.706340
H167	H	0.689933	-0.071070	0.271589
H168	H	1.189933	0.428930	0.771589
H169	H	0.689949	0.071667	0.271575
H170	H	1.189949	0.571667	0.771575
C171	C	0.196828	0.000400	0.042738
C172	C	0.696828	0.500400	0.542738
H173	H	0.169786	0.000413	0.081108
H174	H	0.669786	0.500413	0.581108
H175	H	0.225571	-0.070972	0.044966
H176	H	0.725571	0.429028	0.544966
H177	H	0.225608	0.071765	0.044963
H178	H	0.725608	0.571765	0.544963
H179	H	0.944177	0.000351	0.134361
H180	H	1.444177	0.500351	0.634361
C181	C	0.960255	0.000364	0.279311
C182	C	1.460255	0.500364	0.779311
H183	H	0.998626	0.000361	0.252272
H184	H	1.498626	0.500361	0.752272
H185	H	0.962490	0.071725	0.308070
H186	H	1.462490	0.571725	0.808070
H187	H	0.962470	-0.071012	0.308076
H188	H	1.462470	0.428988	0.808076
