data_functionalizedCrystal
_audit_creation_method	'MofGen! by Chris Wilmer'
_symmetry_space_group_name_H-M	'P1'
_symmetry_Int_Tables_number	1
_symmetry_cell_setting	triclinic
loop_
_symmetry_equiv_pos_as_xyz
  x,y,z
_cell_length_a	17.699083
_cell_length_b	10.654558
_cell_length_c	16.176319
_cell_angle_alpha	89.993130
_cell_angle_beta	89.998611
_cell_angle_gamma	83.885587
loop_
_atom_site_label
_atom_site_type_symbol
_atom_site_fract_x
_atom_site_fract_y
_atom_site_fract_z
O1	O	1.005091	0.158808	-0.068631
O2	O	0.784844	0.179470	-0.068658
O3	O	0.900029	-0.013688	-0.068638
O4	O	0.889907	0.351966	-0.068651
O5	O	0.900012	-0.013701	0.068855
O6	O	0.784828	0.179457	0.068835
O7	O	1.005075	0.158796	0.068862
Cu8	Cu	0.894950	0.169126	0.081403
Cu9	Cu	0.894969	0.169140	-0.081199
O10	O	0.889891	0.351954	0.068843
C11	C	0.756635	0.178723	0.000085
C12	C	0.672602	0.176502	0.000075
C13	C	0.624704	0.289882	0.000071
C14	C	0.545748	0.287787	0.000082
C15	C	0.514691	0.172312	0.000091
C16	C	0.562595	0.058924	0.000097
C17	C	0.641550	0.061019	0.000092
C18	C	0.244178	0.050470	0.000118
C19	C	0.165217	0.048383	0.000120
C20	C	0.148376	0.277237	0.000108
C21	C	0.227331	0.279333	0.000103
C22	C	0.275228	0.165946	0.000113
C23	C	0.360842	0.168218	0.000103
C24	C	0.429079	0.170038	0.000095
C25	C	0.899276	-0.060479	0.000108
C26	C	0.897049	-0.199883	0.000107
C27	C	0.895993	-0.265393	0.075051
C28	C	0.893906	-0.396379	0.075043
C29	C	0.893929	-0.396333	-0.074860
C30	C	0.896021	-0.265351	-0.074851
C31	C	0.935298	-0.585167	0.165082
C32	C	0.934229	-0.650678	0.240030
C33	C	0.890627	-0.598431	0.306200
C34	C	0.848076	-0.480670	0.297424
C35	C	0.849138	-0.415164	0.222475
C36	C	0.892758	-0.467413	0.156308
C37	C	0.854623	-0.076559	-0.164884
C38	C	0.855680	-0.011049	-0.239834
C39	C	0.899277	-0.063293	-0.306011
C40	C	0.941817	-0.181055	-0.297244
C41	C	0.940760	-0.246565	-0.222294
C42	C	0.897164	-0.194312	-0.156117
C43	C	1.033285	0.159542	0.000117
C44	C	1.117317	0.161764	0.000122
C45	C	0.890643	0.398745	0.000094
C46	C	0.892871	0.538149	0.000090
N47	N	0.894942	0.169115	0.195768
N48	N	0.894983	0.169141	-0.195564
C49	C	0.945962	0.083619	0.239041
C50	C	0.945965	0.083618	0.325588
C51	C	0.894953	0.169119	0.368861
C52	C	0.843928	0.254618	0.325582
C53	C	0.843922	0.254613	0.239036
C54	C	0.843955	0.254642	0.674610
C55	C	0.843967	0.254643	0.761162
C56	C	0.945998	0.083647	0.761162
C57	C	0.945992	0.083641	0.674617
C58	C	0.894965	0.169136	0.631345
C59	C	0.894960	0.169135	0.537501
C60	C	0.894961	0.169127	0.462703
H61	H	0.506752	0.380113	0.000078
H62	H	0.802424	0.324271	0.796393
H63	H	0.649984	0.383915	0.000064
H64	H	0.975396	-0.342460	-0.215162
F65	F	1.000288	-0.007355	0.628566
H66	H	0.821084	0.084884	-0.246948
H67	H	0.893091	-0.449652	-0.135887
H68	H	0.109368	0.369563	0.000104
H69	H	0.139934	-0.045657	0.000128
H70	H	0.889757	-0.651780	0.367224
F71	F	0.295144	-0.070208	0.000129
F72	F	0.529540	-0.063974	0.000111
F73	F	1.000261	-0.007379	0.192996
H74	H	0.968878	-0.746561	0.247169
H75	H	0.977307	-0.223605	-0.351135
H76	H	0.970813	-0.627712	0.111209
F77	F	0.900398	0.006433	-0.385781
H78	H	0.819125	-0.034004	-0.110998
F79	F	1.000265	-0.007377	0.371643
H80	H	0.680549	-0.031306	0.000095
H81	H	0.252612	0.373365	0.000092
H82	H	0.896823	-0.212091	0.136087
H83	H	0.987545	0.014029	0.796403
H84	H	0.814511	-0.319269	0.215338
F85	F	0.789651	0.345633	0.628564
F86	F	0.801657	-0.425083	0.367849
F87	F	0.789617	0.345606	0.192983
H88	H	0.802389	0.324231	0.360819
