data_functionalizedCrystal
_audit_creation_method	'MofGen! by Chris Wilmer'
_symmetry_space_group_name_H-M	'P1'
_symmetry_Int_Tables_number	1
_symmetry_cell_setting	triclinic
loop_
_symmetry_equiv_pos_as_xyz
  x,y,z
_cell_length_a	10.967926
_cell_length_b	11.026607
_cell_length_c	9.565339
_cell_angle_alpha	90.000712
_cell_angle_beta	102.131966
_cell_angle_gamma	96.380568
loop_
_atom_site_label
_atom_site_type_symbol
_atom_site_fract_x
_atom_site_fract_y
_atom_site_fract_z
O1	O	1.693989	0.170520	0.291875
O2	O	2.193989	0.670520	0.791875
O3	O	1.334358	0.186841	0.205228
O4	O	1.834358	0.686841	0.705228
O5	O	1.484367	0.001779	0.241372
O6	O	1.984367	0.501779	0.741372
O7	O	1.543979	0.355582	0.255731
O8	O	2.043979	0.855582	0.755731
O9	O	1.484377	0.001785	0.473895
O10	O	1.984377	0.501785	0.973895
O11	O	1.334367	0.186846	0.437751
O12	O	1.834367	0.686846	0.937751
O13	O	1.693999	0.170525	0.524398
O14	O	2.193999	0.670525	1.024398
Zn15	Zn	1.514184	0.178687	0.517992
Zn16	Zn	2.014184	0.678687	1.017992
Zn17	Zn	1.514172	0.178680	0.211634
Zn18	Zn	2.014172	0.678680	0.711634
O19	O	1.543989	0.355587	0.488253
O20	O	2.043989	0.855587	0.988253
C21	C	1.287606	0.185656	0.310224
C22	C	1.787606	0.685656	0.810224
C23	C	1.148284	0.182102	0.276657
C24	C	1.648284	0.682102	0.776657
C25	C	1.086175	0.180520	0.382145
C26	C	1.586175	0.680520	0.882145
C27	C	0.942178	0.176846	0.347454
C28	C	1.442178	0.676846	0.847454
C29	C	1.473375	-0.043521	0.354981
C30	C	1.973375	0.456479	0.854981
C31	C	1.440592	-0.178508	0.347075
C32	C	1.940592	0.321492	0.847075
C33	C	1.740750	0.171711	0.419398
C34	C	2.240750	0.671711	0.919398
C35	C	1.880072	0.175265	0.452957
C36	C	2.380072	0.675265	0.952957
C37	C	1.554981	0.400887	0.374641
C38	C	2.054981	0.900887	0.874641
C39	C	1.587765	0.535874	0.382538
C40	C	2.087765	1.035874	0.882538
N41	N	1.514202	0.178691	0.727076
N42	N	2.014202	0.678691	1.227076
C43	C	1.497244	0.608926	0.360728
C44	C	1.997244	1.108926	0.860728
C45	C	1.531125	0.748442	0.368889
C46	C	2.031125	1.248442	0.868889
N47	N	1.514162	0.178666	0.002552
N48	N	2.014162	0.678666	0.502552
C49	C	1.583606	0.093112	0.834964
C50	C	2.083606	0.593112	1.334964
C51	C	1.465332	0.068557	0.899638
C52	C	1.965332	0.568557	1.399638
C53	C	1.632414	0.203167	0.939942
C54	C	2.132414	0.703167	1.439942
C55	C	1.395858	0.154081	0.789681
C56	C	1.895858	0.654081	1.289681
C57	C	1.563026	0.288739	0.829997
C58	C	2.063026	0.788739	1.329997
C59	C	1.444681	0.264230	0.894612
C60	C	1.944681	0.764230	1.394612
H61	H	0.888752	0.175478	0.231451
H62	H	1.388752	0.675478	0.731451
H63	H	1.338003	0.780754	0.322353
H64	H	1.838003	1.280754	0.822353
H65	H	1.690346	0.576620	0.407202
H66	H	2.190346	1.076620	0.907202
H67	H	1.295825	0.133263	0.724785
H68	H	1.795825	0.633263	1.224785
N69	N	1.156929	0.182330	0.535801
N70	N	1.656929	0.682330	1.035801
H71	H	1.204465	0.108482	0.552829
H72	H	1.704465	0.608482	1.052829
H73	H	1.217965	0.259000	0.555992
H74	H	1.717965	0.759000	1.055992
N75	N	0.950829	0.177089	0.606618
N76	N	1.450829	0.677089	1.106618
H77	H	0.889595	0.175532	0.672247
H78	H	1.389595	0.675532	1.172247
H79	H	0.998366	0.103239	0.623524
H80	H	1.498366	0.603239	1.123524
N81	N	1.366806	0.360077	0.929683
N82	N	1.866806	0.860077	1.429683
H83	H	1.367807	0.360023	1.035508
H84	H	1.867807	0.860023	1.535508
H85	H	1.402935	0.442954	0.902892
H86	H	1.902935	0.942954	1.402892
N87	N	1.667014	0.802400	0.401636
N88	N	2.167014	1.302400	0.901636
H89	H	1.710064	0.774465	0.498206
H90	H	2.210064	1.274465	0.998206
H91	H	1.709962	0.774449	0.325734
H92	H	2.209962	1.274449	0.825734
H93	H	1.094853	0.180733	0.160662
H94	H	1.594853	0.680733	0.660662
N95	N	1.661255	-0.002790	0.799506
N96	N	2.161255	0.497210	1.299506
H97	H	1.624195	-0.085899	0.824474
H98	H	2.124195	0.414101	1.324474
H99	H	1.661353	-0.001475	0.693955
H100	H	2.161353	0.498525	1.193955
H101	H	1.394663	0.568180	0.336005
H102	H	1.894663	1.068180	0.836005
N103	N	1.410594	-0.054725	0.940677
N104	N	1.910594	0.445275	1.440677
H105	H	1.463092	-0.119308	0.919465
H106	H	1.963092	0.380692	1.419465
H107	H	1.410229	-0.053465	1.046163
H108	H	1.910229	0.446535	1.546163
N109	N	1.617788	0.411990	0.788921
N110	N	2.117788	0.911990	1.288921
H111	H	1.707150	0.430413	0.844315
H112	H	2.207150	0.930413	1.344315
H113	H	1.616538	0.411220	0.683046
H114	H	2.116538	0.911220	1.183046
H115	H	1.732403	0.223880	1.005000
H116	H	2.232403	0.723880	1.505000
