data_functionalizedCrystal
_audit_creation_method	'MofGen! by Chris Wilmer'
_symmetry_space_group_name_H-M	'P1'
_symmetry_Int_Tables_number	1
_symmetry_cell_setting	triclinic
loop_
_symmetry_equiv_pos_as_xyz
  x,y,z
_cell_length_a	19.188930
_cell_length_b	19.188930
_cell_length_c	17.666332
_cell_angle_alpha	90.023234
_cell_angle_beta	89.988397
_cell_angle_gamma	96.855221
loop_
_atom_site_label
_atom_site_type_symbol
_atom_site_fract_x
_atom_site_fract_y
_atom_site_fract_z
O1	O	0.087169	-0.926150	-0.063200
O2	O	0.098903	-0.722838	-0.063149
O3	O	-0.008620	-0.830361	-0.063161
O4	O	0.194692	-0.818627	-0.063188
O5	O	-0.008625	-0.830342	0.062735
O6	O	0.098897	-0.722820	0.062747
O7	O	0.087163	-0.926131	0.062697
Cu8	Cu	0.093030	-0.824473	0.074217
Cu9	Cu	0.093036	-0.824496	-0.074670
O10	O	0.194686	-0.818608	0.062709
C11	C	0.098520	-0.696818	-0.000194
C12	C	0.097380	-0.619313	-0.000174
N13	N	0.093025	-0.824463	0.178937
C14	C	-0.034634	-0.829972	-0.000211
C15	C	-0.112138	-0.828831	-0.000204
C16	C	-0.157062	-0.891922	-0.000216
C17	C	-0.229886	-0.890850	-0.000228
C18	C	-0.257782	-0.826684	-0.000212
C19	C	-0.212849	-0.763585	-0.000205
C20	C	-0.140026	-0.764658	-0.000200
N21	N	-0.365789	-0.777630	0.042645
N22	N	-0.434968	-0.776615	0.042642
C23	C	-0.477191	-0.823446	-0.000227
N24	N	-0.447624	-0.871341	-0.043084
N25	N	-0.378439	-0.872359	-0.043079
C26	C	-0.336745	-0.825513	-0.000218
C27	C	-0.601079	-0.885379	-0.000253
C28	C	-0.673904	-0.884305	-0.000270
C29	C	-0.656865	-0.757038	-0.000239
C30	C	-0.584042	-0.758114	-0.000230
C31	C	-0.556154	-0.822287	-0.000233
C32	C	0.220700	-0.818997	-0.000244
C33	C	0.298204	-0.820138	-0.000255
C34	C	0.087546	-0.952151	-0.000260
C35	C	0.088687	-1.029656	-0.000285
C36	C	0.160470	-0.574389	-0.000194
C37	C	0.159399	-0.501566	-0.000203
C38	C	0.095233	-0.473669	-0.000206
C39	C	0.032133	-0.518603	-0.000181
C40	C	0.033207	-0.591425	-0.000166
N41	N	0.046188	-0.365695	-0.043078
N42	N	0.045172	-0.296517	-0.043095
C43	C	0.091994	-0.254260	-0.000252
N44	N	0.139881	-0.283795	0.042599
N45	N	0.140899	-0.352979	0.042612
C46	C	0.094062	-0.394707	-0.000222
C47	C	0.153928	-0.130372	-0.000280
C48	C	0.152853	-0.057547	-0.000283
C49	C	0.025586	-0.074586	-0.000270
C50	C	0.026662	-0.147409	-0.000258
C51	C	0.090835	-0.175298	-0.000267
N52	N	0.093036	-0.824512	-0.179390
C53	C	0.045437	-0.872089	0.218541
C54	C	0.045433	-0.872093	0.297789
C55	C	0.093030	-0.824478	0.337429
C56	C	0.140621	-0.776842	0.297815
C57	C	0.140619	-0.776835	0.218569
N58	N	0.154837	-0.815401	0.461841
N59	N	0.154837	-0.815413	0.537121
C60	C	0.093040	-0.824496	0.576193
N61	N	0.031239	-0.833582	0.537140
N62	N	0.031240	-0.833574	0.461853
C63	C	0.093038	-0.824480	0.423358
C64	C	0.045444	-0.872130	0.701727
C65	C	0.045440	-0.872129	0.780976
C66	C	0.140634	-0.776881	0.781000
C67	C	0.140632	-0.776878	0.701753
C68	C	0.093038	-0.824506	0.662121
H69	H	-0.266470	-0.942228	-0.000241
N70	N	0.191959	-0.725509	0.659031
H71	H	0.222111	-0.695344	0.696165
H72	H	0.222761	-0.752136	0.626126
H73	H	-0.024713	-0.183988	-0.000246
N74	N	-0.091567	-0.696608	-0.000188
H75	H	-0.120287	-0.655794	-0.000182
H76	H	-0.060994	-0.694274	0.046488
N77	N	-0.686943	-0.687828	-0.000230
H78	H	-0.739893	-0.696720	-0.000238
H79	H	-0.670506	-0.660220	0.046448
N80	N	0.227451	-0.453104	-0.000227
H81	H	0.255453	-0.462080	-0.046902
H82	H	0.216975	-0.402760	-0.000209
N83	N	-0.722363	-0.952355	-0.000278
H84	H	-0.752945	-0.954760	-0.046951
H85	H	-0.693594	-0.993129	-0.000248
H86	H	0.179371	-0.738051	0.186322
H87	H	-0.020111	-0.495885	-0.000194
N88	N	0.223137	-0.160461	-0.000276
H89	H	0.226423	-0.190317	-0.046942
H90	H	0.262904	-0.120911	-0.000254
H91	H	0.179385	-0.738109	0.813275
H92	H	-0.018171	-0.628003	-0.000150
H93	H	0.204232	-0.020970	-0.000295
H94	H	-0.235567	-0.711340	-0.000194
N95	N	-0.570993	-0.954589	-0.000260
H96	H	-0.610505	-0.994396	-0.000276
H97	H	-0.541136	-0.957813	-0.046928
H98	H	-0.026659	-0.051874	-0.000319
H99	H	-0.547464	-0.706738	-0.000216
N100	N	0.229682	-0.604469	-0.000209
H101	H	0.269487	-0.564955	-0.000225
H102	H	0.232904	-0.634288	0.046466
H103	H	0.006681	-0.910869	0.186275
H104	H	-0.134360	-0.944176	-0.000222
H105	H	0.006680	-0.910878	0.330041
N106	N	0.191955	-0.725481	0.340564
H107	H	0.184737	-0.732713	0.396776
H108	H	0.241467	-0.733387	0.326693
N109	N	-0.005888	-0.923494	0.658973
H110	H	-0.036040	-0.953663	0.696091
H111	H	-0.036688	-0.896860	0.626113
H112	H	0.006684	-0.910910	0.813222
