data_functionalizedCrystal
_audit_creation_method	'MofGen! by Chris Wilmer'
_symmetry_space_group_name_H-M	'P1'
_symmetry_Int_Tables_number	1
_symmetry_cell_setting	triclinic
loop_
_symmetry_equiv_pos_as_xyz
  x,y,z
_cell_length_a	16.120530
_cell_length_b	21.295417
_cell_length_c	16.120297
_cell_angle_alpha	92.867002
_cell_angle_beta	90.128140
_cell_angle_gamma	87.125778
loop_
_atom_site_label
_atom_site_type_symbol
_atom_site_fract_x
_atom_site_fract_y
_atom_site_fract_z
Zn1	Zn	1.247391	-0.318915	-0.534523
Zn2	Zn	1.254326	-0.419125	-0.395453
Zn3	Zn	1.115383	-0.308278	-0.388443
Zn4	Zn	1.108282	-0.418545	-0.527422
O5	O	1.181345	-0.366216	-0.461460
O6	O	1.364676	-0.336903	-0.521981
O7	O	1.241769	-0.400212	-0.278158
O8	O	1.132963	-0.221604	-0.407859
O9	O	1.369771	-0.410526	-0.419806
O10	O	1.229949	-0.229419	-0.515184
O11	O	1.139688	-0.318773	-0.273008
O12	O	0.998075	-0.318211	-0.400973
O13	O	1.120862	-0.409538	-0.644729
O14	O	0.992859	-0.399224	-0.503081
O15	O	1.223064	-0.336340	-0.649946
O16	O	1.234884	-0.507133	-0.412921
O17	O	1.127586	-0.506707	-0.509878
C18	C	0.965295	-0.357501	-0.450496
C19	C	0.872866	-0.353788	-0.445825
C20	C	1.181239	-0.529761	-0.461409
C21	C	1.181268	-0.599731	-0.461418
C22	C	0.703638	-0.346996	-0.437305
C23	C	0.659891	-0.385485	-0.485677
C24	C	0.565726	-0.381705	-0.480936
C25	C	0.797811	-0.350774	-0.442045
C26	C	1.237182	-0.632802	-0.410990
C27	C	1.237220	-0.698547	-0.411010
C28	C	1.181329	-0.731217	-0.461450
C29	C	1.125411	-0.698138	-0.511889
C30	C	1.125380	-0.632395	-0.511873
N31	N	1.108264	-0.831783	-0.464098
N32	N	1.108296	-0.894236	-0.464108
C33	C	1.181420	-0.929297	-0.461503
N34	N	1.254514	-0.899546	-0.458870
N35	N	1.254481	-0.837087	-0.458855
C36	C	1.181357	-0.802504	-0.461473
C37	C	1.237380	-1.033657	-0.411094
C38	C	1.237419	-1.099403	-0.411120
C39	C	1.125603	-1.098992	-0.511994
C40	C	1.125571	-1.033248	-0.511973
C41	C	1.181459	-1.000584	-0.461518
C42	C	1.398240	-0.374966	-0.472468
C43	C	1.490667	-0.378694	-0.477159
C44	C	1.170397	-0.374061	-0.678353
C45	C	1.165731	-0.377404	-0.770780
C46	C	1.181474	-0.202033	-0.461531
C47	C	1.181529	-0.132068	-0.461562
C48	C	1.157183	-0.383493	-0.940004
C49	C	1.205672	-0.348757	-0.983777
C50	C	1.200915	-0.352144	-1.077938
C51	C	1.161938	-0.380106	-0.845834
C52	C	1.192299	-0.358358	-0.245413
C53	C	1.197126	-0.354844	-0.152995
H54	H	0.693157	-0.421274	-0.530651
O55	O	1.291769	-1.131432	-0.362055
C56	C	1.341100	-1.088501	-0.317537
H57	H	1.307164	-1.040185	-0.312890
H58	H	1.353334	-1.105505	-0.252484
H59	H	1.402690	-1.085099	-0.351236
O60	O	1.291557	-1.001885	-0.361998
C61	C	1.246952	-0.960050	-0.305853
H62	H	1.181736	-0.977086	-0.297342
H63	H	1.280310	-0.958204	-0.243413
H64	H	1.242740	-0.911031	-0.331402
O65	O	0.663925	-0.304388	-0.383561
C66	C	0.616343	-0.336247	-0.327305
H67	H	0.642822	-0.386659	-0.323345
H68	H	0.618469	-0.311053	-0.263309
H69	H	0.549263	-0.336791	-0.349768
H70	H	1.250756	-0.316473	-0.950533
H71	H	1.079847	-0.605468	-0.552939
O72	O	1.103475	-0.421996	-0.979788
C73	C	1.110621	-0.416840	-1.066308
H74	H	1.174227	-0.399222	-1.081333
H75	H	1.103314	-0.464928	-1.099095
H76	H	1.060100	-0.382201	-1.088460
H77	H	1.282691	-0.606210	-0.369908
O78	O	1.071425	-1.130794	-0.561042
C79	C	1.116032	-1.172607	-0.617214
H80	H	1.180556	-1.183904	-0.591137
H81	H	1.081614	-1.217894	-0.626628
H82	H	1.121998	-1.149834	-0.679297
O83	O	1.291639	-0.730625	-0.362063
C84	C	1.373586	-0.718523	-0.384497
H85	H	1.373673	-0.672000	-0.416533
H86	H	1.413936	-0.715615	-0.326397
H87	H	1.399415	-0.758166	-0.428699
O88	O	1.071231	-0.729946	-0.560932
C89	C	1.115837	-0.771763	-0.617100
H90	H	1.180360	-0.783060	-0.591023
H91	H	1.081416	-0.817050	-0.626507
H92	H	1.121802	-0.748996	-0.679187
O93	O	1.071167	-1.001213	-0.560973
C94	C	1.021857	-1.044144	-0.605514
H95	H	1.020749	-1.089676	-0.571320
H96	H	0.955878	-1.022870	-0.610997
H97	H	1.049068	-1.054602	-0.670239
