data_functionalizedCrystal
_audit_creation_method	'MofGen! by Chris Wilmer'
_symmetry_space_group_name_H-M	'P1'
_symmetry_Int_Tables_number	1
_symmetry_cell_setting	triclinic
loop_
_symmetry_equiv_pos_as_xyz
  x,y,z
_cell_length_a	16.109302
_cell_length_b	27.732048
_cell_length_c	15.186229
_cell_angle_alpha	89.991324
_cell_angle_beta	89.994701
_cell_angle_gamma	83.052218
loop_
_atom_site_label
_atom_site_type_symbol
_atom_site_fract_x
_atom_site_fract_y
_atom_site_fract_z
O1	O	1.102361	0.062132	-0.073278
O2	O	0.860203	0.069863	-0.073272
O3	O	0.988803	-0.004368	-0.073258
O4	O	0.973761	0.136363	-0.073292
O5	O	0.988795	-0.004369	0.073199
O6	O	0.860195	0.069862	0.073185
O7	O	1.102352	0.062131	0.073179
Zn8	Zn	0.981272	0.065996	0.096436
Zn9	Zn	0.981283	0.065998	-0.096528
O10	O	0.973753	0.136362	0.073166
C11	C	0.829228	0.069550	-0.000043
C12	C	0.736944	0.068610	-0.000040
C13	C	0.524626	0.066438	0.079786
C14	C	0.437917	0.065551	0.079783
C15	C	0.437936	0.065554	-0.079893
C16	C	0.524645	0.066438	-0.079889
C17	C	0.567987	0.066883	-0.000047
C18	C	0.394569	0.065111	-0.000053
C19	C	0.300555	0.064149	-0.000057
C20	C	0.662007	0.067844	-0.000043
C21	C	0.988483	-0.022376	-0.000027
C22	C	0.987532	-0.076035	-0.000020
C23	C	1.057541	-0.414557	-0.000067
C24	C	1.054013	-0.616232	-0.000079
O25	O	1.118031	-0.647219	-0.000119
N26	N	0.977759	-0.635675	-0.000076
C27	C	0.902381	-0.604696	-0.000077
O28	O	0.837441	-0.625861	-0.000084
C29	C	0.905910	-0.403022	-0.000071
C30	C	0.982169	-0.383582	-0.000064
C31	C	1.133794	-0.395117	-0.000062
C32	C	1.134675	-0.344701	-0.000054
C33	C	1.059303	-0.313726	-0.000051
C34	C	0.983050	-0.333167	-0.000057
C35	C	0.830533	-0.372044	-0.000077
C36	C	0.831422	-0.321623	-0.000078
C37	C	0.907681	-0.302183	-0.000072
C38	C	0.908559	-0.251776	-0.000046
N39	N	0.984813	-0.232333	-0.000049
C40	C	1.060185	-0.263308	-0.000051
C41	C	0.900534	-0.710577	-0.000078
C42	C	0.899652	-0.760996	-0.000078
C43	C	1.051284	-0.772528	-0.000082
C44	C	1.052165	-0.722109	-0.000076
C45	C	0.976788	-0.691134	-0.000081
C46	C	1.062030	-0.157431	-0.000034
C47	C	1.062904	-0.107010	-0.000023
C48	C	0.911272	-0.095482	-0.000023
C49	C	0.910397	-0.145898	-0.000030
C50	C	0.985783	-0.176872	-0.000038
O51	O	0.844576	-0.220760	-0.000016
O52	O	1.125116	-0.242134	-0.000064
C53	C	1.056660	-0.464973	-0.000075
C54	C	0.980407	-0.484413	-0.000080
C55	C	0.905035	-0.453438	-0.000078
C56	C	0.979524	-0.534832	-0.000080
C57	C	1.054896	-0.565807	-0.000082
C58	C	1.131150	-0.546364	-0.000085
C59	C	1.132032	-0.495948	-0.000077
C60	C	0.828780	-0.472881	-0.000075
C61	C	0.827905	-0.523298	-0.000082
C62	C	0.903277	-0.554273	-0.000084
C63	C	1.133328	0.062444	-0.000052
C64	C	1.225611	0.063384	-0.000061
C65	C	0.974073	0.154370	-0.000067
C66	C	0.975023	0.208029	-0.000080
N67	N	0.981271	0.065995	0.228128
N68	N	0.981292	0.065995	-0.228221
C69	C	1.038234	0.033137	0.453857
C70	C	1.038236	0.033135	0.546047
C71	C	0.924323	0.098855	0.546044
C72	C	0.924317	0.098854	0.453856
C73	C	0.981277	0.065995	0.407765
C74	C	0.981285	0.065995	0.592143
C75	C	0.981288	0.065994	0.692099
C76	C	0.981274	0.065995	0.307802
H77	H	1.125006	-0.091186	-0.000015
Br78	Br	1.153574	-0.814575	-0.000088
H79	H	0.837554	-0.776819	-0.000068
Br80	Br	0.583445	0.067040	0.188142
H81	H	1.123416	-0.182644	-0.000044
H82	H	0.559950	0.066799	-0.144902
H83	H	0.877948	0.125609	0.583580
Br84	Br	1.115534	-0.011462	0.608599
Br85	Br	1.238175	-0.318327	-0.000070
H86	H	0.402616	0.065189	0.144791
Br87	Br	0.379114	0.064936	-0.188244
Br88	Br	0.847007	0.143446	0.391294
H89	H	1.114262	-0.706285	-0.000071
H90	H	0.839149	-0.685362	-0.000082
Br91	Br	1.236099	-0.437146	-0.000066
H92	H	0.768434	-0.387863	-0.000088
Br93	Br	0.729118	-0.279589	-0.000088
Br94	Br	0.806902	-0.172282	-0.000018
Br95	Br	1.233440	-0.588411	-0.000082
Br96	Br	0.808987	-0.053435	-0.000019
Br97	Br	0.726479	-0.430851	-0.000076
H98	H	1.194130	-0.480125	-0.000072
Br99	Br	0.724401	-0.549673	-0.000083
H100	H	1.084613	0.006380	0.416332
