data_functionalizedCrystal
_audit_creation_method	'MofGen! by Chris Wilmer'
_symmetry_space_group_name_H-M	'P1'
_symmetry_Int_Tables_number	1
_symmetry_cell_setting	triclinic
loop_
_symmetry_equiv_pos_as_xyz
  x,y,z
_cell_length_a	18.215407
_cell_length_b	13.032721
_cell_length_c	13.032268
_cell_angle_alpha	103.289627
_cell_angle_beta	97.164932
_cell_angle_gamma	97.201717
loop_
_atom_site_label
_atom_site_type_symbol
_atom_site_fract_x
_atom_site_fract_y
_atom_site_fract_z
Zn1	Zn	1.021915	-0.499143	-0.654168
Zn2	Zn	1.355248	-0.165810	-0.320835
Zn3	Zn	1.688581	0.167523	0.012499
Zn4	Zn	1.021834	-0.654228	-0.499116
Zn5	Zn	1.355168	-0.320894	-0.165782
Zn6	Zn	1.688501	0.012439	0.167551
Zn7	Zn	0.916750	-0.476632	-0.476591
Zn8	Zn	1.250083	-0.143299	-0.143258
Zn9	Zn	1.583416	0.190035	0.190076
Zn10	Zn	0.880928	-0.676693	-0.676662
Zn11	Zn	1.214262	-0.343360	-0.343329
Zn12	Zn	1.547595	-0.010026	-0.009996
O13	O	0.960357	-0.576674	-0.576634
O14	O	1.293690	-0.243341	-0.243301
O15	O	1.627023	0.089993	0.090032
O16	O	1.124885	-0.519735	-0.633612
O17	O	1.458219	-0.186402	-0.300279
O18	O	1.791552	0.146932	0.033054
O19	O	1.022852	-0.611846	-0.347507
O20	O	1.356186	-0.278513	-0.014174
O21	O	1.689519	0.054820	0.319159
O22	O	0.945725	-0.330988	-0.481306
O23	O	1.279058	0.002345	-0.147973
O24	O	1.612392	0.335678	0.185360
O25	O	1.124826	-0.633675	-0.519696
O26	O	1.458160	-0.300341	-0.186363
O27	O	1.791493	0.032992	0.146970
O28	O	1.022989	-0.347528	-0.611771
O29	O	1.356323	-0.014194	-0.278438
O30	O	1.689656	0.319139	0.054895
O31	O	0.945647	-0.481367	-0.330959
O32	O	1.278980	-0.148034	0.002375
O33	O	1.612314	0.185299	0.335708
O34	O	0.809017	-0.503151	-0.503118
O35	O	1.142350	-0.169818	-0.169785
O36	O	1.475683	0.163516	0.163548
O37	O	0.884673	-0.671964	-0.822299
O38	O	1.218006	-0.338630	-0.488965
O39	O	1.551340	-0.005297	-0.155632
O40	O	0.782699	-0.650135	-0.650110
O41	O	1.116032	-0.316802	-0.316776
O42	O	1.449366	0.016532	0.016557
O43	O	0.988255	-0.541519	-0.805772
O44	O	1.321588	-0.208185	-0.472439
O45	O	1.654921	0.125148	-0.139106
O46	O	0.988118	-0.805837	-0.541508
O47	O	1.321451	-0.472504	-0.208175
O48	O	1.654784	-0.139171	0.125158
O49	O	0.884595	-0.822342	-0.671951
O50	O	1.217928	-0.489009	-0.338618
O51	O	1.551262	-0.155676	-0.005284
C52	C	0.769156	-0.576639	-0.576611
C53	C	1.102489	-0.243306	-0.243278
C54	C	1.435822	0.090028	0.090055
C55	C	0.687354	-0.576653	-0.576630
C56	C	1.020687	-0.243319	-0.243297
C57	C	1.354021	0.090014	0.090036
C58	C	0.499165	-0.517478	-0.636071
C59	C	0.832498	-0.184144	-0.302738
C60	C	1.165831	0.149189	0.030595
C61	C	0.422305	-0.517487	-0.636076
C62	C	0.755638	-0.184154	-0.302743
C63	C	1.088971	0.149179	0.030591
C64	C	0.422296	-0.635902	-0.517219
C65	C	0.755629	-0.302569	-0.183886
C66	C	1.088963	0.030764	0.149447
C67	C	0.499156	-0.635886	-0.517209
C68	C	0.832489	-0.302553	-0.183876
C69	C	1.165822	0.030781	0.149457
C70	C	0.537587	-0.576676	-0.576642
C71	C	0.870921	-0.243343	-0.243308
C72	C	1.204254	0.089991	0.090025
C73	C	0.383868	-0.576702	-0.576656
C74	C	0.717201	-0.243369	-0.243323
C75	C	1.050534	0.089965	0.090010
C76	C	0.300532	-0.576713	-0.576661
C77	C	0.633866	-0.243379	-0.243328
C78	C	0.967199	0.089954	0.090006
C79	C	0.620928	-0.576663	-0.576636
C80	C	0.954261	-0.243330	-0.243302
C81	C	1.287595	0.090003	0.090031
C82	C	0.932478	-0.852631	-0.611638
C83	C	1.265812	-0.519297	-0.278305
C84	C	1.599145	-0.185964	0.055029
C85	C	0.920615	-0.970691	-0.626648
C86	C	1.253949	-0.637357	-0.293315
C87	C	1.587282	-0.304024	0.040018
C88	C	0.966582	-1.015131	-0.568848
C89	C	1.299916	-0.681797	-0.235515
C90	C	1.633249	-0.348464	0.097819
C91	C	0.954323	-1.137152	-0.584360
C92	C	1.287656	-0.803819	-0.251027
C93	C	1.620989	-0.470485	0.082306
C94	C	1.152304	-0.576710	-0.576658
C95	C	1.485638	-0.243377	-0.243324
C96	C	1.818971	0.089957	0.090009
C97	C	1.234101	-0.576725	-0.576668
C98	C	1.567434	-0.243392	-0.243334
C99	C	1.900768	0.089941	0.089999
C100	C	0.932477	-0.611758	-0.853649
C101	C	1.265810	-0.278425	-0.520315
C102	C	1.599144	0.054909	-0.186982
C103	C	0.920596	-0.626709	-0.971696
C104	C	1.253930	-0.293376	-0.638362
C105	C	1.587263	0.039958	-0.305029
C106	C	0.988362	-0.299642	-0.541517
C107	C	1.321695	0.033691	-0.208184
C108	C	1.655029	0.367024	0.125150
C109	C	1.000296	-0.181588	-0.526552
C110	C	1.333629	0.151745	-0.193219
C111	C	1.666963	0.485079	0.140114
C112	C	0.966550	-0.568833	-1.016148
C113	C	1.299883	-0.235500	-0.682814
C114	C	1.633216	0.097834	-0.349481
C115	C	0.954272	-0.584284	-1.138155
C116	C	1.287605	-0.250950	-0.804822
C117	C	1.620938	0.082383	-0.471489
C118	C	0.988178	-0.541650	-0.300688
C119	C	1.321511	-0.208316	0.032645
C120	C	1.654845	0.125017	0.365979
C121	C	1.000231	-0.526400	-0.182603
C122	C	1.333565	-0.193066	0.150730
C123	C	1.666898	0.140267	0.484063
H124	H	0.530441	-0.684093	-0.468809
H125	H	0.863774	-0.350759	-0.135476
H126	H	1.197107	-0.017426	0.197858
Cl127	Cl	1.041362	-0.934410	-0.474720
Cl128	Cl	1.374695	-0.601077	-0.141386
Cl129	Cl	1.708028	-0.267743	0.191947
Cl130	Cl	1.041313	-0.474641	-0.935454
Cl131	Cl	1.374646	-0.141308	-0.602121
Cl132	Cl	1.707979	0.192025	-0.268787
Cl133	Cl	0.547477	-0.443037	-0.710780
Cl134	Cl	0.880811	-0.109704	-0.377447
Cl135	Cl	1.214144	0.223629	-0.044114
Cl136	Cl	0.374006	-0.443062	-0.710790
Cl137	Cl	0.707339	-0.109728	-0.377457
Cl138	Cl	1.040672	0.223605	-0.044123
Cl139	Cl	0.879547	-1.217871	-0.678506
Cl140	Cl	1.212881	-0.884537	-0.345172
Cl141	Cl	1.546214	-0.551204	-0.011839
Cl142	Cl	0.879486	-0.678447	-1.218841
Cl143	Cl	1.212820	-0.345114	-0.885508
Cl144	Cl	1.546153	-0.011781	-0.552175
Cl145	Cl	1.075023	-0.432244	-1.101921
Cl146	Cl	1.408356	-0.098911	-0.768588
Cl147	Cl	1.741689	0.234422	-0.435254
H148	H	1.048732	-1.129304	-0.465583
H149	H	1.382065	-0.795971	-0.132249
H150	H	1.715399	-0.462637	0.201084
H151	H	0.390995	-0.684110	-0.468833
H152	H	0.724329	-0.350777	-0.135500
H153	H	1.057662	-0.017443	0.197834
H154	H	0.872188	-1.022980	-0.687622
H155	H	1.205521	-0.689647	-0.354288
H156	H	1.538854	-0.356314	-0.020955
H157	H	0.872160	-0.687690	-1.023963
H158	H	1.205493	-0.354357	-0.690630
H159	H	1.538827	-0.021024	-0.357297
