data_functionalizedCrystal
_audit_creation_method	'MofGen! by Chris Wilmer'
_symmetry_space_group_name_H-M	'P1'
_symmetry_Int_Tables_number	1
_symmetry_cell_setting	triclinic
loop_
_symmetry_equiv_pos_as_xyz
  x,y,z
_cell_length_a	14.908520
_cell_length_b	11.169417
_cell_length_c	11.169409
_cell_angle_alpha	89.980176
_cell_angle_beta	86.739668
_cell_angle_gamma	86.678597
loop_
_atom_site_label
_atom_site_type_symbol
_atom_site_fract_x
_atom_site_fract_y
_atom_site_fract_z
Zn1	Zn	-0.359063	-1.807298	0.706060
Zn2	Zn	-0.509955	-1.795562	0.516941
Zn3	Zn	-0.359118	-1.606580	0.505398
Zn4	Zn	-0.509881	-1.594972	0.717580
O5	O	-0.434504	-1.701103	0.611495
O6	O	-0.379086	-1.973691	0.680982
O7	O	-0.489999	-1.770440	0.347464
O8	O	-0.232866	-1.642975	0.522365
O9	O	-0.489946	-1.965068	0.542037
O10	O	-0.232826	-1.790442	0.669790
O11	O	-0.379180	-1.631595	0.338984
O12	O	-0.379109	-1.437091	0.533535
O13	O	-0.489821	-1.623191	0.883997
O14	O	-0.489874	-1.428563	0.689424
O15	O	-0.379015	-1.779186	0.875534
O16	O	-0.636189	-1.759184	0.553207
O17	O	-0.636135	-1.611811	0.700616
C18	C	-0.434490	-1.389279	0.611478
C19	C	-0.434506	-1.255878	0.611501
C20	C	-0.668895	-1.682997	0.629440
C21	C	-0.769169	-1.675361	0.637158
C22	C	-0.434404	-1.701203	0.924530
C23	C	-0.434361	-1.701245	1.057926
C24	C	-0.957589	-1.814629	0.498287
C25	C	-1.051805	-1.807458	0.505534
C26	C	-1.051819	-1.653855	0.658905
C27	C	-0.957603	-1.661026	0.651658
C28	C	-0.910491	-1.741414	0.571344
C29	C	-0.816274	-1.748578	0.564092
C30	C	-0.816289	-1.594982	0.717468
C31	C	-0.910505	-1.587811	0.724716
C32	C	-0.199197	-1.719313	0.593505
C33	C	-0.098923	-1.727073	0.585839
C34	C	-0.434518	-2.014144	0.611512
C35	C	-0.434524	-2.147544	0.611519
C36	C	-0.434539	-1.701078	0.299673
C37	C	-0.434327	-1.701287	0.166257
H38	H	-0.777916	-1.814031	0.498694
C39	C	-0.962339	-1.499382	0.813049
N40	N	-1.001379	-1.432770	0.879578
C41	C	-1.103609	-1.887995	0.425160
N42	N	-1.142628	-1.948659	0.364617
C43	C	-0.764474	-1.514441	0.797837
N44	N	-0.725446	-1.453776	0.858368
C45	C	-0.905764	-1.903052	0.409940
N46	N	-0.866731	-1.969657	0.343397
C47	C	-1.103658	-1.565434	0.747240
N48	N	-1.142704	-1.498830	0.813772
