data_functionalizedCrystal
_audit_creation_method	'MofGen! by Chris Wilmer'
_symmetry_space_group_name_H-M	'P1'
_symmetry_Int_Tables_number	1
_symmetry_cell_setting	triclinic
loop_
_symmetry_equiv_pos_as_xyz
  x,y,z
_cell_length_a	10.723023
_cell_length_b	16.956984
_cell_length_c	9.798715
_cell_angle_alpha	89.996224
_cell_angle_beta	90.003942
_cell_angle_gamma	99.739517
loop_
_atom_site_label
_atom_site_type_symbol
_atom_site_fract_x
_atom_site_fract_y
_atom_site_fract_z
O1	O	-1.644159	0.111772	-0.113508
O2	O	-1.279760	0.122472	-0.113507
O3	O	-1.483852	0.001163	-0.113498
O4	O	-1.440067	0.233081	-0.113517
O5	O	-1.483839	0.001162	0.113484
O6	O	-1.279747	0.122471	0.113475
O7	O	-1.644146	0.111771	0.113474
Zn8	Zn	-1.461944	0.117121	0.149513
Zn9	Zn	-1.461962	0.117122	-0.149546
O10	O	-1.440054	0.233080	0.113465
C11	C	-1.233344	0.121693	-0.000016
C12	C	-1.095062	0.119364	-0.000015
C13	C	-1.033418	0.118326	-0.117598
C14	C	-0.890495	0.115918	-0.117601
C15	C	-1.486088	-0.028533	-0.000007
C16	C	-1.492754	-0.117017	-0.000008
C17	C	-1.381301	-0.149711	-0.000014
C18	C	-1.387571	-0.232852	-0.000011
C19	C	-1.505296	-0.283298	-0.000011
C20	C	-1.616758	-0.250599	-0.000001
C21	C	-1.610486	-0.167459	0.000005
C22	C	-1.536342	-0.532901	-0.000020
C23	C	-1.542606	-0.616045	-0.000030
C24	C	-1.313418	-0.598293	-0.000037
C25	C	-1.307157	-0.515152	-0.000039
C26	C	-1.418618	-0.482461	-0.000022
N27	N	-1.511709	-0.368281	-0.000012
N28	N	-1.412204	-0.397479	-0.000012
C29	C	-0.690562	0.112550	-0.000017
C30	C	-0.828845	0.114880	-0.000017
C31	C	-1.437818	0.262777	-0.000028
C32	C	-1.431152	0.351261	-0.000036
N33	N	-1.461942	0.117120	0.353613
N34	N	-1.461975	0.117117	-0.353645
C35	C	-1.376239	0.168277	0.421419
C36	C	-1.376256	0.168276	0.578582
H37	H	-1.086451	0.119224	-0.218264
O38	O	-1.656554	-0.497644	-0.000041
H39	H	-1.739465	-0.546691	-0.000068
O40	O	-1.559155	0.059085	0.569129
H41	H	-1.616420	0.092895	0.504005
O42	O	-0.899047	0.116075	0.133339
H43	H	-0.832138	0.114948	0.219470
H44	H	-1.042026	0.118475	0.100650
O45	O	-1.559165	0.059101	0.430814
H46	H	-1.510426	0.020195	0.495924
H47	H	-0.837484	0.115024	-0.218268
O48	O	-1.254325	-0.095302	-0.000002
H49	H	-1.177879	-0.132008	0.000011
H50	H	-1.211292	-0.474084	-0.000043
H51	H	-1.296814	-0.259467	-0.000025
O52	O	-1.193207	-0.633556	-0.000026
H53	H	-1.190582	-0.671012	-0.092533
O54	O	-1.669586	-0.670460	-0.000018
H55	H	-1.746039	-0.633761	0.000010
H56	H	-1.302878	0.212071	0.636892
H57	H	-1.712612	-0.291679	0.000007
H58	H	-1.701243	-0.140842	0.000012
O59	O	-1.278998	0.226282	0.344214
H60	H	-1.294227	0.217168	0.232887
