data_functionalizedCrystal
_audit_creation_method	'MofGen! by Chris Wilmer'
_symmetry_space_group_name_H-M	'P1'
_symmetry_Int_Tables_number	1
_symmetry_cell_setting	triclinic
loop_
_symmetry_equiv_pos_as_xyz
  x,y,z
_cell_length_a	6.817900
_cell_length_b	17.982959
_cell_length_c	12.200875
_cell_angle_alpha	94.640534
_cell_angle_beta	107.143593
_cell_angle_gamma	102.451857
loop_
_atom_site_label
_atom_site_type_symbol
_atom_site_fract_x
_atom_site_fract_y
_atom_site_fract_z
V1	V	-4.063264	-0.105586	-0.358141
O2	O	-4.055274	0.004896	-0.350830
O3	O	-4.009540	-0.209188	-0.356165
O4	O	-4.033062	-0.104040	-0.514122
O5	O	-4.031589	-0.100980	-0.191780
V6	V	-4.545224	-0.092362	-0.338185
O7	O	-4.327951	-0.134594	-0.401915
O8	O	-4.730735	-0.063354	-0.294411
O9	O	-4.375743	0.011240	-0.340160
O10	O	-4.670612	-0.202843	-0.345496
O11	O	-4.694297	-0.096968	-0.504546
O12	O	-4.352221	-0.093908	-0.182204
C13	C	-3.852656	-0.234441	-0.350638
C14	C	-3.890138	-0.319137	-0.350063
C15	C	-4.090333	-0.362811	-0.355532
C16	C	-4.125543	-0.442393	-0.354998
C17	C	-3.960550	-0.478299	-0.348987
C18	C	-3.760340	-0.434619	-0.343520
C19	C	-3.725137	-0.355040	-0.344063
C20	C	-3.902305	-0.755554	-0.341335
C21	C	-3.937523	-0.835139	-0.340790
C22	C	-4.302711	-0.842907	-0.352271
C23	C	-4.267508	-0.763328	-0.352813
C24	C	-4.067305	-0.719656	-0.347353
C25	C	-4.029130	-0.633365	-0.347934
C26	C	-3.998718	-0.564587	-0.348397
C27	C	-3.882660	-0.100314	-0.552126
C28	C	-3.939214	-0.099735	-0.679644
C29	C	-4.042716	-0.098677	-0.913114
C30	C	-3.985112	-0.099265	-0.783195
C31	C	-4.195968	0.036490	-0.345685
C32	C	-4.137725	0.121185	-0.346268
C33	C	-4.165964	-0.097636	-0.144194
C34	C	-4.088648	-0.098211	-0.016674
H35	H	-3.803158	-0.864371	-0.335903
O36	O	-4.319839	-0.484872	-0.360123
C37	C	-4.301756	-0.520724	-0.260271
H38	H	-4.132047	-0.525822	-0.221942
H39	H	-4.414921	-0.580659	-0.284754
H40	H	-4.343679	-0.484685	-0.193376
H41	H	-4.224689	-0.333582	-0.360416
O42	O	-3.600093	-0.469480	-0.337882
C43	C	-3.529704	-0.458041	-0.434361
H44	H	-3.661353	-0.445703	-0.507669
H45	H	-3.486578	-0.512098	-0.464911
H46	H	-3.384264	-0.407075	-0.408521
O47	O	-3.530679	-0.312515	-0.338596
C48	C	-3.450024	-0.255875	-0.238695
H49	H	-3.586839	-0.243866	-0.210469
H50	H	-3.359088	-0.200606	-0.259108
H51	H	-3.338928	-0.277352	-0.165729
O52	O	-4.428040	-0.728577	-0.358709
C53	C	-4.612281	-0.784188	-0.363395
H54	H	-4.601880	-0.843573	-0.397825
H55	H	-4.757473	-0.769735	-0.423548
H56	H	-4.626472	-0.784224	-0.272605
O57	O	-4.497034	-0.885396	-0.357426
C58	C	-4.478991	-0.921261	-0.257586
H59	H	-4.309280	-0.926350	-0.219235
H60	H	-4.592136	-0.981200	-0.282092
H61	H	-4.520968	-0.885234	-0.190700
H62	H	-3.739290	-0.720005	-0.336883
