data_functionalizedCrystal
_audit_creation_method	'MofGen! by Chris Wilmer'
_symmetry_space_group_name_H-M	'P1'
_symmetry_Int_Tables_number	1
_symmetry_cell_setting	triclinic
loop_
_symmetry_equiv_pos_as_xyz
  x,y,z
_cell_length_a	10.686220
_cell_length_b	12.759400
_cell_length_c	10.686551
_cell_angle_alpha	94.405838
_cell_angle_beta	89.691918
_cell_angle_gamma	94.396325
loop_
_atom_site_label
_atom_site_type_symbol
_atom_site_fract_x
_atom_site_fract_y
_atom_site_fract_z
Zn1	Zn	1.972289	-0.256138	0.562385
Zn2	Zn	1.956061	-0.446298	0.352626
Zn3	Zn	1.746408	-0.283014	0.368703
Zn4	Zn	1.762491	-0.444169	0.578404
O5	O	1.859312	-0.357405	0.465529
O6	O	2.145678	-0.271007	0.521128
O7	O	1.914727	-0.436777	0.179213
O8	O	1.776432	-0.132422	0.394419
O9	O	2.133755	-0.410716	0.367019
O10	O	1.942386	-0.112677	0.536717
O11	O	1.760696	-0.316813	0.191024
O12	O	1.572999	-0.314748	0.409952
O13	O	1.803844	-0.407088	0.751824
O14	O	1.584816	-0.433148	0.564018
O15	O	1.957981	-0.268942	0.740056
O16	O	1.930323	-0.593042	0.382552
O17	O	1.788108	-0.591478	0.548429
C18	C	1.533391	-0.376634	0.490468
C19	C	1.393964	-0.384884	0.501167
C20	C	1.859236	-0.630378	0.465509
C21	C	1.859321	-0.747148	0.465533
C22	C	1.933468	-0.802778	0.379243
C23	C	1.933548	-0.912495	0.379275
C24	C	1.785323	-0.910942	0.551894
C25	C	1.785251	-0.801226	0.551866
C26	C	2.007538	-0.748700	0.292910
C27	C	2.081690	-0.804330	0.206611
C28	C	2.081770	-0.914047	0.206644
C29	C	2.007698	-0.968133	0.292976
C30	C	2.186505	-0.338101	0.440494
C31	C	2.325936	-0.329875	0.429825
C32	C	1.884517	-0.334779	0.792730
C33	C	1.895257	-0.325138	0.932163
C34	C	1.859425	-0.083361	0.465575
C35	C	1.859473	0.033420	0.465594
C36	C	1.834278	-0.379862	0.139596
C37	C	1.823780	-0.389193	0.000145
H38	H	2.007477	-0.659363	0.292870
C39	C	2.007789	-1.088819	0.293021
H40	H	1.953059	-1.113059	0.356795
H41	H	1.979946	-1.120564	0.213714
H42	H	2.090422	-1.107284	0.308604
H43	H	1.964679	-0.262921	0.980637
C44	C	1.703842	-0.970436	0.646839
H45	H	1.714496	-1.043747	0.634489
H46	H	1.728609	-0.945507	0.729738
H47	H	1.618136	-0.958768	0.634846
C48	C	2.163322	-0.975244	0.111718
H49	H	2.152766	-1.048332	0.124101
H50	H	2.138511	-0.964212	0.028818
H51	H	2.249007	-0.950951	0.123685
C52	C	2.163158	-0.744841	0.111651
H53	H	2.152482	-0.671532	0.123979
H54	H	2.248862	-0.756501	0.123624
H55	H	2.138368	-0.769782	0.028755
H56	H	1.724875	-0.755932	0.622133
C57	C	1.391346	-0.257719	0.336260
H58	H	1.479620	-0.261444	0.341111
H59	H	1.363422	-0.280064	0.253566
H60	H	1.371371	-0.187121	0.356399
C61	C	1.730024	-0.473260	0.934682
H62	H	1.686633	-0.512162	0.996025
H63	H	1.671486	-0.439804	0.887743
H64	H	1.774126	-0.519698	0.879897
C65	C	1.328548	-0.457040	0.594742
H66	H	1.240275	-0.453304	0.589906
H67	H	1.348527	-0.527633	0.574622
H68	H	1.356474	-0.434678	0.677439
