data_functionalizedCrystal
_audit_creation_method	'MofGen! by Chris Wilmer'
_symmetry_space_group_name_H-M	'P1'
_symmetry_Int_Tables_number	1
_symmetry_cell_setting	triclinic
loop_
_symmetry_equiv_pos_as_xyz
  x,y,z
_cell_length_a	15.995343
_cell_length_b	16.109301
_cell_length_c	15.186229
_cell_angle_alpha	89.998944
_cell_angle_beta	90.001292
_cell_angle_gamma	83.475384
loop_
_atom_site_label
_atom_site_type_symbol
_atom_site_fract_x
_atom_site_fract_y
_atom_site_fract_z
O1	O	1.110962	0.107130	0.073138
O2	O	1.360962	0.357130	0.323138
O3	O	1.610962	0.607130	0.573138
O4	O	1.860962	0.857130	0.823138
O5	O	0.867183	0.120370	0.073158
O6	O	1.117183	0.370370	0.323158
O7	O	1.367183	0.620370	0.573158
O8	O	1.617183	0.870370	0.823158
O9	O	0.995769	-0.007279	0.073145
O10	O	1.245769	0.242721	0.323145
O11	O	1.495769	0.492721	0.573145
O12	O	1.745769	0.742721	0.823145
O13	O	0.982376	0.234779	0.073151
O14	O	1.232376	0.484779	0.323151
O15	O	1.482376	0.734779	0.573151
O16	O	1.732376	0.984779	0.823151
O17	O	0.995754	-0.007272	-0.073313
O18	O	1.245754	0.242728	0.176687
O19	O	1.495754	0.492728	0.426687
O20	O	1.745754	0.742728	0.676687
O21	O	0.867168	0.120378	-0.073299
O22	O	1.117168	0.370378	0.176701
O23	O	1.367168	0.620378	0.426701
O24	O	1.617168	0.870378	0.676701
O25	O	1.110947	0.107137	-0.073320
O26	O	1.360947	0.357137	0.176680
O27	O	1.610947	0.607137	0.426680
O28	O	1.860947	0.857137	0.676680
Zn29	Zn	0.989055	0.113759	-0.096563
Zn30	Zn	1.239055	0.363759	0.153437
Zn31	Zn	1.489055	0.613759	0.403437
Zn32	Zn	1.739055	0.863759	0.653437
Zn33	Zn	0.989075	0.113749	0.096401
Zn34	Zn	1.239075	0.363749	0.346401
Zn35	Zn	1.489075	0.613749	0.596401
Zn36	Zn	1.739075	0.863749	0.846401
O37	O	0.982361	0.234787	-0.073306
O38	O	1.232361	0.484787	0.176694
O39	O	1.482361	0.734787	0.426694
O40	O	1.732361	0.984787	0.676694
C41	C	0.835980	0.119828	-0.000068
C42	C	1.085980	0.369828	0.249932
C43	C	1.335980	0.619828	0.499932
C44	C	1.585980	0.869828	0.749932
C45	C	0.743030	0.118190	-0.000060
C46	C	0.993030	0.368190	0.249940
C47	C	1.243030	0.618190	0.499940
C48	C	1.493030	0.868190	0.749940
C49	C	0.572844	0.115218	-0.000071
C50	C	0.822844	0.365218	0.249929
C51	C	1.072844	0.615218	0.499929
C52	C	1.322844	0.865218	0.749929
C53	C	0.549524	0.023074	-0.000074
C54	C	0.799524	0.273074	0.249926
C55	C	1.049524	0.523074	0.499926
C56	C	1.299524	0.773074	0.749926
C57	C	0.452847	0.021341	-0.000411
C58	C	0.702847	0.271341	0.249589
C59	C	0.952847	0.521341	0.499589
C60	C	1.202847	0.771341	0.749589
C61	C	0.405286	0.112290	-0.000082
C62	C	0.655286	0.362290	0.249918
C63	C	0.905286	0.612290	0.499918
C64	C	1.155286	0.862290	0.749918
C65	C	0.434356	0.158625	-0.083549
C66	C	0.684356	0.408625	0.166451
C67	C	0.934356	0.658625	0.416451
C68	C	1.184356	0.908625	0.666451
C69	C	0.531148	0.159718	-0.083614
C70	C	0.781148	0.409718	0.166386
C71	C	1.031148	0.659718	0.416386
C72	C	1.281148	0.909718	0.666386
C73	C	0.531075	0.161059	0.082942
C74	C	0.781075	0.411059	0.332942
C75	C	1.031075	0.661059	0.582942
C76	C	1.281075	0.911059	0.832942
C77	C	0.434581	0.157657	0.084033
C78	C	0.684581	0.407657	0.334033
C79	C	0.934581	0.657657	0.584033
C80	C	1.184581	0.907657	0.834033
C81	C	0.310588	0.110640	-0.000091
C82	C	0.560588	0.360640	0.249909
C83	C	0.810588	0.610640	0.499909
C84	C	1.060588	0.860640	0.749909
C85	C	0.667542	0.116870	-0.000068
C86	C	0.917542	0.366870	0.249932
C87	C	1.167542	0.616870	0.499932
C88	C	1.417542	0.866870	0.749932
C89	C	0.995219	-0.038251	-0.000083
C90	C	1.245219	0.211749	0.249917
C91	C	1.495219	0.461749	0.499917
C92	C	1.745219	0.711749	0.749917
C93	C	0.993593	-0.130546	-0.000079
C94	C	1.243593	0.119454	0.249921
C95	C	1.493593	0.369454	0.499921
C96	C	1.743593	0.619454	0.749921
C97	C	1.142150	0.107680	-0.000092
C98	C	1.392150	0.357680	0.249908
C99	C	1.642150	0.607680	0.499908
C100	C	1.892150	0.857680	0.749908
C101	C	1.235100	0.109317	-0.000094
C102	C	1.485100	0.359317	0.249906
C103	C	1.735100	0.609317	0.499906
C104	C	1.985100	0.859317	0.749906
C105	C	0.982911	0.265758	-0.000077
C106	C	1.232911	0.515758	0.249923
C107	C	1.482911	0.765758	0.499923
C108	C	1.732911	1.015758	0.749923
C109	C	0.984537	0.358054	-0.000074
C110	C	1.234537	0.608054	0.249926
C111	C	1.484537	0.858054	0.499926
C112	C	1.734537	1.108054	0.749926
N113	N	0.989048	0.113765	-0.228255
N114	N	1.239048	0.363765	0.021745
N115	N	1.489048	0.613765	0.271745
N116	N	1.739048	0.863765	0.521745
C117	C	0.913554	0.667035	-0.000065
C118	C	1.163554	0.917035	0.249935
C119	C	1.413554	1.167035	0.499935
C120	C	1.663554	1.417035	0.749935
C121	C	0.912018	0.580314	-0.000066
C122	C	1.162018	0.830314	0.249934
C123	C	1.412018	1.080314	0.499934
C124	C	1.662018	1.330314	0.749934
C125	C	1.064582	0.560478	-0.000092
C126	C	1.314582	0.810478	0.249908
C127	C	1.564582	1.060478	0.499908
C128	C	1.814582	1.310478	0.749908
C129	C	1.066117	0.647197	-0.000096
C130	C	1.316117	0.897197	0.249904
C131	C	1.566117	1.147197	0.499904
C132	C	1.816117	1.397197	0.749904
C133	C	0.990601	0.700474	-0.000078
C134	C	1.240601	0.950474	0.249922
C135	C	1.490601	1.200474	0.499922
C136	C	1.740601	1.450474	0.749922
C137	C	0.987529	0.527034	-0.000075
C138	C	1.237529	0.777034	0.249925
C139	C	1.487529	1.027034	0.499925
C140	C	1.737529	1.277034	0.749925
C141	C	0.985864	0.433008	-0.000077
C142	C	1.235864	0.683008	0.249923
C143	C	1.485864	0.933008	0.499923
C144	C	1.735864	1.183008	0.749923
C145	C	0.992266	0.794506	-0.000079
C146	C	1.242266	1.044506	0.249921
C147	C	1.492266	1.294506	0.499921
C148	C	1.742266	1.544506	0.749921
C149	C	1.039829	0.164205	-0.453981
C150	C	1.289829	0.414205	-0.203981
C151	C	1.539829	0.664205	0.046019
C152	C	1.789829	0.914205	0.296019
C153	C	1.039838	0.164199	-0.546171
C154	C	1.289838	0.414199	-0.296171
C155	C	1.539838	0.664199	-0.046171
C156	C	1.789838	0.914199	0.203829
C157	C	0.938305	0.063290	-0.546174
C158	C	1.188305	0.313290	-0.296174
C159	C	1.438305	0.563290	-0.046174
C160	C	1.688305	0.813290	0.203826
C161	C	0.938301	0.063292	-0.453986
C162	C	1.188301	0.313292	-0.203986
C163	C	1.438301	0.563292	0.046014
C164	C	1.688301	0.813292	0.296014
C165	C	0.989062	0.113754	-0.407892
C166	C	1.239062	0.363754	-0.157892
C167	C	1.489062	0.613754	0.092108
C168	C	1.739062	0.863754	0.342108
C169	C	0.989075	0.113746	-0.592269
C170	C	1.239075	0.363746	-0.342269
C171	C	1.489075	0.613746	-0.092269
C172	C	1.739075	0.863746	0.157731
C173	C	0.989084	0.113740	-0.692226
C174	C	1.239084	0.363740	-0.442226
C175	C	1.489084	0.613740	-0.192226
C176	C	1.739084	0.863740	0.057774
C177	C	0.989054	0.113760	-0.307929
C178	C	1.239054	0.363760	-0.057929
C179	C	1.489054	0.613760	0.192071
C180	C	1.739054	0.863760	0.442071
N181	N	0.989089	0.113736	0.228094
N182	N	1.239089	0.363736	0.478094
N183	N	1.489089	0.613736	0.728094
N184	N	1.739089	0.863736	0.978094
H185	H	0.434413	-0.014754	-0.060596
H186	H	0.684413	0.235246	0.189404
H187	H	0.934413	0.485246	0.439404
H188	H	1.184413	0.735246	0.689404
H189	H	0.557936	0.128010	-0.146245
H190	H	0.807936	0.378010	0.103755
H191	H	1.057936	0.628010	0.353755
H192	H	1.307936	0.878010	0.603755
Cl193	Cl	0.818620	0.734008	-0.000048
Cl194	Cl	1.068620	0.984008	0.249952
Cl195	Cl	1.318620	1.234008	0.499952
Cl196	Cl	1.568620	1.484008	0.749952
Cl197	Cl	0.815155	0.538281	-0.000050
Cl198	Cl	1.065155	0.788281	0.249950
Cl199	Cl	1.315155	1.038281	0.499950
Cl200	Cl	1.565155	1.288281	0.749950
Cl201	Cl	0.553624	0.264040	-0.089113
Cl202	Cl	0.803624	0.514040	0.160887
Cl203	Cl	1.053624	0.764040	0.410887
Cl204	Cl	1.303624	1.014040	0.660887
H205	H	1.081179	0.205280	-0.583693
H206	H	1.331179	0.455280	-0.333693
H207	H	1.581179	0.705280	-0.083693
H208	H	1.831179	0.955280	0.166307
Cl209	Cl	0.592790	-0.032078	0.092323
Cl210	Cl	0.842790	0.217922	0.342323
Cl211	Cl	1.092790	0.467922	0.592323
Cl212	Cl	1.342790	0.717922	0.842323
Cl213	Cl	0.423503	-0.034658	0.091946
Cl214	Cl	0.673503	0.215342	0.341946
Cl215	Cl	0.923503	0.465342	0.591946
Cl216	Cl	1.173503	0.715342	0.841946
Cl217	Cl	0.594274	-0.031168	-0.092351
Cl218	Cl	0.844274	0.218832	0.157649
Cl219	Cl	1.094274	0.468832	0.407649
Cl220	Cl	1.344274	0.718832	0.657649
Cl221	Cl	0.385162	0.261970	-0.087982
Cl222	Cl	0.635162	0.511970	0.162018
Cl223	Cl	0.885162	0.761970	0.412018
Cl224	Cl	1.135162	1.011970	0.662018
H225	H	1.126064	0.517090	-0.000105
H226	H	1.376064	0.767090	0.249895
H227	H	1.626064	1.017090	0.499895
H228	H	1.876064	1.267090	0.749895
H229	H	0.896977	0.022207	-0.583715
H230	H	1.146977	0.272207	-0.333715
H231	H	1.396977	0.522207	-0.083715
H232	H	1.646977	0.772207	0.166285
Cl233	Cl	1.162984	0.689237	-0.000115
Cl234	Cl	1.412984	0.939237	0.249885
Cl235	Cl	1.662984	1.189237	0.499885
Cl236	Cl	1.912984	1.439237	0.749885
Cl237	Cl	1.103649	0.227636	-0.396037
Cl238	Cl	1.353649	0.477636	-0.146037
Cl239	Cl	1.603649	0.727636	0.103963
Cl240	Cl	1.853649	0.977636	0.353963
Cl241	Cl	0.874472	-0.000135	-0.396040
Cl242	Cl	1.124472	0.249865	-0.146040
Cl243	Cl	1.374472	0.499865	0.103960
Cl244	Cl	1.624472	0.749865	0.353960
H245	H	0.414266	0.126839	-0.145902
H246	H	0.664266	0.376839	0.104098
H247	H	0.914266	0.626839	0.354098
H248	H	1.164266	0.876839	0.604098
H249	H	0.559360	0.131985	0.146227
H250	H	0.809360	0.381985	0.396227
H251	H	1.059360	0.631985	0.646227
H252	H	1.309360	0.881985	0.896227
H253	H	0.416039	0.123914	0.145783
H254	H	0.666039	0.373914	0.395783
H255	H	0.916039	0.623914	0.645783
H256	H	1.166039	0.873914	0.895783
H257	H	0.401607	0.224019	0.089334
H258	H	0.651607	0.474019	0.339334
H259	H	0.901607	0.724019	0.589334
H260	H	1.151607	0.974019	0.839334
H261	H	0.545070	0.228882	0.083748
H262	H	0.795070	0.478882	0.333748
H263	H	1.045070	0.728882	0.583748
H264	H	1.295070	0.978882	0.833748
