data_functionalizedCrystal
_audit_creation_method	'MofGen! by Chris Wilmer'
_symmetry_space_group_name_H-M	'P1'
_symmetry_Int_Tables_number	1
_symmetry_cell_setting	triclinic
loop_
_symmetry_equiv_pos_as_xyz
  x,y,z
_cell_length_a	14.044220
_cell_length_b	9.065218
_cell_length_c	7.540329
_cell_angle_alpha	90.003038
_cell_angle_beta	89.995368
_cell_angle_gamma	90.897619
loop_
_atom_site_label
_atom_site_type_symbol
_atom_site_fract_x
_atom_site_fract_y
_atom_site_fract_z
O1	O	0.139141	-1.975818	-0.147493
O2	O	0.472474	-1.642485	0.185840
O3	O	0.805808	-1.309152	0.519174
O4	O	0.150554	-1.547798	-0.147496
O5	O	0.483887	-1.214465	0.185837
O6	O	0.817221	-0.881132	0.519171
O7	O	0.006808	-1.755384	-0.147477
O8	O	0.340141	-1.422050	0.185856
O9	O	0.673474	-1.088717	0.519190
O10	O	0.282887	-1.768233	-0.147512
O11	O	0.616221	-1.434900	0.185821
O12	O	0.949554	-1.101566	0.519155
O13	O	0.006806	-1.755370	0.147488
O14	O	0.340139	-1.422037	0.480821
O15	O	0.673472	-1.088703	0.814155
O16	O	0.150552	-1.547785	0.147469
O17	O	0.483885	-1.214451	0.480802
O18	O	0.817219	-0.881118	0.814136
O19	O	0.139139	-1.975805	0.147472
O20	O	0.472472	-1.642471	0.480805
O21	O	0.805806	-1.309138	0.814139
Cu22	Cu	0.144845	-1.761793	0.174403
Cu23	Cu	0.478179	-1.428460	0.507737
Cu24	Cu	0.811512	-1.095127	0.841070
Cu25	Cu	0.144848	-1.761810	-0.174427
Cu26	Cu	0.478181	-1.428476	0.158906
Cu27	Cu	0.811514	-1.095143	0.492239
O28	O	0.282885	-1.768219	0.147453
O29	O	0.616219	-1.434886	0.480786
O30	O	0.949552	-1.101552	0.814120
C31	C	-0.028556	-1.749752	0.000006
C32	C	0.304777	-1.416419	0.333340
C33	C	0.638111	-1.083086	0.666673
C34	C	-0.133926	-1.732975	0.000008
C35	C	0.199408	-1.399642	0.333342
C36	C	0.532741	-1.066309	0.666675
C37	C	0.149456	-1.492683	-0.000014
C38	C	0.482789	-1.159350	0.333320
C39	C	0.816123	-0.826017	0.666653
C40	C	0.146176	-1.328477	-0.000014
C41	C	0.479510	-0.995144	0.333319
C42	C	0.812843	-0.661810	0.666652
C43	C	0.140237	-2.030920	-0.000014
C44	C	0.473570	-1.697586	0.333319
C45	C	0.806904	-1.364253	0.666652
C46	C	0.143517	-2.195126	-0.000025
C47	C	0.476850	-1.861793	0.333308
C48	C	0.810183	-1.528459	0.666641
C49	C	-0.326850	-1.702304	-0.000017
C50	C	0.006483	-1.368970	0.333316
C51	C	0.339816	-1.035637	0.666649
C52	C	-0.383462	-1.821293	-0.000022
C53	C	-0.050129	-1.487959	0.333311
C54	C	0.283205	-1.154626	0.666645
C55	C	-0.490812	-1.804226	-0.000036
C56	C	-0.157479	-1.470893	0.333297
C57	C	0.175855	-1.137560	0.666630
C58	C	-0.219491	-1.719368	-0.000003
C59	C	0.113843	-1.386034	0.333330
C60	C	0.447176	-1.052701	0.666663
C61	C	0.318249	-1.773850	-0.000034
C62	C	0.651582	-1.440517	0.333299
C63	C	0.984916	-1.107184	0.666633
C64	C	0.423619	-1.790627	-0.000048
C65	C	0.756952	-1.457294	0.333286
C66	C	1.090285	-1.123961	0.666619
N67	N	0.144843	-1.761793	0.419752
N68	N	0.478177	-1.428459	0.753085
N69	N	0.811510	-1.095126	1.086418
N70	N	0.144842	-1.761821	-0.419776
N71	N	0.478176	-1.428488	-0.086442
N72	N	0.811509	-1.095154	0.246891
H73	H	-0.351306	-1.935980	-0.000140
H74	H	-0.017973	-1.602646	0.333193
H75	H	0.315360	-1.269313	0.666526
H76	H	-0.359004	-1.587626	-0.000023
H77	H	-0.025671	-1.254292	0.333311
H78	H	0.307662	-0.920959	0.666644
