data_functionalizedCrystal
_audit_creation_method	'MofGen! by Chris Wilmer'
_symmetry_space_group_name_H-M	'P1'
_symmetry_Int_Tables_number	1
_symmetry_cell_setting	triclinic
loop_
_symmetry_equiv_pos_as_xyz
  x,y,z
_cell_length_a	11.792241
_cell_length_b	17.666332
_cell_length_c	11.792241
_cell_angle_alpha	89.994673
_cell_angle_beta	95.806584
_cell_angle_gamma	90.005047
loop_
_atom_site_label
_atom_site_type_symbol
_atom_site_fract_x
_atom_site_fract_y
_atom_site_fract_z
O1	O	1.506917	0.062875	-0.155568
O2	O	1.176576	0.062893	-0.171601
O3	O	1.349762	0.062878	0.001586
O4	O	1.333730	0.062890	-0.328755
O5	O	1.349732	-0.063019	0.001592
O6	O	1.176545	-0.063004	-0.171595
O7	O	1.506886	-0.063022	-0.155562
Cu8	Cu	1.341712	-0.074508	-0.163578
Cu9	Cu	1.341749	0.074379	-0.163585
O10	O	1.333699	-0.063007	-0.328749
C11	C	1.134269	-0.000053	-0.170591
C12	C	1.008255	-0.000047	-0.167576
C13	C	0.777543	-0.000069	-0.162034
C14	C	0.905928	-0.000057	-0.165113
N15	N	1.341695	-0.179228	-0.163573
C16	C	1.410945	-0.218832	-0.232882
C17	C	1.410963	-0.298080	-0.232879
C18	C	1.341710	-0.337720	-0.163580
C19	C	1.272456	-0.298105	-0.094257
C20	C	1.272448	-0.218859	-0.094254
N21	N	1.242278	-0.462154	-0.159868
N22	N	1.242288	-0.537435	-0.159878
C23	C	1.341731	-0.576484	-0.163584
N24	N	1.441165	-0.537409	-0.167302
N25	N	1.441153	-0.462121	-0.167299
C26	C	1.341712	-0.423649	-0.163575
C27	C	1.411007	-0.702018	-0.232893
C28	C	1.411027	-0.781267	-0.232882
C29	C	1.272509	-0.781291	-0.094267
C30	C	1.272499	-0.702043	-0.094271
C31	C	1.341746	-0.662412	-0.163591
C32	C	1.549192	-0.000074	-0.156572
C33	C	1.675206	-0.000075	-0.159587
C34	C	1.348740	-0.000070	0.043880
C35	C	1.345726	-0.000069	0.169894
N36	N	1.341775	0.179099	-0.163581
C37	C	1.334721	-0.000057	-0.371043
C38	C	1.337736	-0.000053	-0.497057
C39	C	1.340183	-0.000056	0.400606
C40	C	1.343262	-0.000063	0.272221
H41	H	1.467336	-0.186569	-0.289323
F42	F	1.484673	-0.340239	-0.306649
F43	F	1.198755	-0.340294	-0.020501
H44	H	1.467427	-0.813512	-0.289318
H45	H	1.216054	-0.186614	-0.037813
F46	F	1.198815	-0.823473	-0.020502
F47	F	1.484724	-0.659836	-0.306648
H48	H	1.216104	-0.669797	-0.037837
