data_functionalizedCrystal
_audit_creation_method	'MofGen! by Chris Wilmer'
_symmetry_space_group_name_H-M	'P1'
_symmetry_Int_Tables_number	1
_symmetry_cell_setting	triclinic
loop_
_symmetry_equiv_pos_as_xyz
  x,y,z
_cell_length_a	17.699083
_cell_length_b	16.992695
_cell_length_c	16.176319
_cell_angle_alpha	89.993125
_cell_angle_beta	89.998611
_cell_angle_gamma	86.975619
loop_
_atom_site_label
_atom_site_type_symbol
_atom_site_fract_x
_atom_site_fract_y
_atom_site_fract_z
O1	O	1.010252	0.099146	-0.068631
O2	O	1.343585	0.432479	0.264702
O3	O	1.676918	0.765812	0.598036
O4	O	0.790676	0.112045	-0.068658
O5	O	1.124010	0.445378	0.264675
O6	O	1.457343	0.778711	0.598009
O7	O	0.899584	-0.008546	-0.068638
O8	O	1.232917	0.324788	0.264695
O9	O	1.566250	0.658121	0.598029
O10	O	0.901344	0.219736	-0.068651
O11	O	1.234678	0.553070	0.264682
O12	O	1.568011	0.886403	0.598016
O13	O	0.899567	-0.008553	0.068855
O14	O	1.232901	0.324780	0.402189
O15	O	1.566234	0.658113	0.735522
O16	O	0.790660	0.112037	0.068835
O17	O	1.123993	0.445370	0.402169
O18	O	1.457327	0.778704	0.735502
O19	O	1.010235	0.099138	0.068862
O20	O	1.343569	0.432471	0.402196
O21	O	1.676902	0.765805	0.735529
Cu22	Cu	0.900446	0.105587	0.081403
Cu23	Cu	1.233779	0.438920	0.414736
Cu24	Cu	1.567113	0.772254	0.748070
Cu25	Cu	0.900465	0.105596	-0.081199
Cu26	Cu	1.233799	0.438929	0.252135
Cu27	Cu	1.567132	0.772263	0.585468
O28	O	0.901328	0.219729	0.068842
O29	O	1.234661	0.553062	0.402176
O30	O	1.567994	0.886395	0.735509
C31	C	0.762442	0.111579	0.000085
C32	C	1.095776	0.444912	0.333418
C33	C	1.429109	0.778245	0.666752
C34	C	0.678338	0.110192	0.000075
C35	C	1.011671	0.443525	0.333408
C36	C	1.345005	0.776859	0.666742
C37	C	0.897311	-0.037758	0.000108
C38	C	1.230644	0.295576	0.333442
C39	C	1.563977	0.628909	0.666775
C40	C	0.890554	-0.124789	0.000107
C41	C	1.223887	0.208544	0.333441
C42	C	1.557220	0.541878	0.666774
C43	C	0.634124	0.180976	0.000071
C44	C	0.967457	0.514310	0.333405
C45	C	1.300791	0.847643	0.666738
C46	C	0.555099	0.179669	0.000082
C47	C	0.888433	0.513002	0.333415
C48	C	1.221766	0.846335	0.666749
C49	C	0.520290	0.107576	0.000091
C50	C	0.853623	0.440910	0.333424
C51	C	1.186957	0.774243	0.666757
C52	C	0.564510	0.036787	0.000097
C53	C	0.897843	0.370120	0.333430
C54	C	1.231176	0.703453	0.666763
C55	C	0.643533	0.038095	0.000092
C56	C	0.976866	0.371428	0.333425
C57	C	1.310200	0.704762	0.666759
C58	C	0.245818	0.031509	0.000118
C59	C	0.579151	0.364842	0.333451
C60	C	0.912485	0.698175	0.666784
C61	C	0.166789	0.030206	0.000120
C62	C	0.500122	0.363539	0.333453
C63	C	0.833456	0.696872	0.666787
C64	C	0.157384	0.173082	0.000108
C65	C	0.490718	0.506416	0.333441
C66	C	0.824051	0.839749	0.666774
C67	C	0.236408	0.174391	0.000103
C68	C	0.569741	0.507724	0.333436
C69	C	0.903074	0.841057	0.666769
C70	C	0.280621	0.103602	0.000113
C71	C	0.613954	0.436935	0.333447
C72	C	0.947287	0.770268	0.666780
C73	C	0.366308	0.105020	0.000103
C74	C	0.699641	0.438354	0.333437
C75	C	1.032975	0.771687	0.666770
C76	C	0.434604	0.106157	0.000095
C77	C	0.767937	0.439490	0.333428
C78	C	1.101271	0.772823	0.666761
C79	C	0.955751	-0.175154	0.000116
C80	C	1.289085	0.158180	0.333449
C81	C	1.622418	0.491513	0.666783
C82	C	0.949398	-0.256928	0.000107
C83	C	1.282731	0.076405	0.333441
C84	C	1.616064	0.409738	0.666774
C85	C	0.877846	-0.288336	0.000096
C86	C	1.211179	0.044997	0.333429
C87	C	1.544512	0.378330	0.666763
C88	C	0.812643	-0.237965	0.000084
C89	C	1.145977	0.095368	0.333418
C90	C	1.479310	0.428701	0.666751
C91	C	0.818998	-0.156192	0.000087
C92	C	1.152331	0.177141	0.333420
C93	C	1.485664	0.510474	0.666754
C94	C	0.851510	-0.531884	0.000081
C95	C	1.184843	-0.198551	0.333415
C96	C	1.518176	0.134783	0.666748
C97	C	0.845160	-0.613663	0.000081
C98	C	1.178494	-0.280330	0.333414
C99	C	1.511827	0.053003	0.666748
C100	C	0.981915	-0.632621	0.000102
C101	C	1.315249	-0.299287	0.333436
C102	C	1.648582	0.034046	0.666769
C103	C	0.988263	-0.550845	0.000110
C104	C	1.321597	-0.217512	0.333443
C105	C	1.654930	0.115821	0.666777
C106	C	0.923061	-0.500481	0.000094
C107	C	1.256394	-0.167148	0.333428
C108	C	1.589728	0.166185	0.666761
N109	N	0.871350	-0.371923	0.000090
N110	N	1.204683	-0.038590	0.333423
N111	N	1.538016	0.294744	0.666756
N112	N	0.929558	-0.416897	0.000095
N113	N	1.262891	-0.083563	0.333428
N114	N	1.596224	0.249770	0.666761
C115	C	1.038469	0.099604	0.000117
C116	C	1.371803	0.432937	0.333451
C117	C	1.705136	0.766271	0.666784
C118	C	1.122574	0.100991	0.000122
C119	C	1.455907	0.434324	0.333455
C120	C	1.789240	0.767657	0.666789
C121	C	0.903601	0.248941	0.000094
C122	C	1.236934	0.582274	0.333428
C123	C	1.570267	0.915607	0.666761
C124	C	0.910358	0.335972	0.000090
C125	C	1.243691	0.669305	0.333423
C126	C	1.577025	1.002639	0.666757
N127	N	0.900438	0.105580	0.195768
N128	N	1.233771	0.438913	0.529102
N129	N	1.567104	0.772247	0.862435
N130	N	0.900479	0.105597	-0.195564
N131	N	1.233813	0.438930	0.137769
N132	N	1.567146	0.772263	0.471103
C133	C	0.948679	0.052204	0.239041
C134	C	1.282012	0.385538	0.572375
C135	C	1.615346	0.718871	0.905708
C136	C	0.948683	0.052203	0.325588
C137	C	1.282016	0.385537	0.658922
C138	C	1.615349	0.718870	0.992255
C139	C	0.900449	0.105583	0.368861
C140	C	1.233782	0.438916	0.702194
C141	C	1.567115	0.772249	1.035527
C142	C	0.852202	0.158961	0.325582
C143	C	1.185536	0.492294	0.658915
C144	C	1.518869	0.825628	0.992248
C145	C	0.852195	0.158957	0.239036
C146	C	1.185529	0.492291	0.572370
C147	C	1.518862	0.825624	0.905703
C148	C	0.852229	0.158976	0.674610
C149	C	1.185562	0.492309	1.007943
C150	C	1.518896	0.825642	1.341277
C151	C	0.852242	0.158977	0.761161
C152	C	1.185575	0.492310	1.094495
C153	C	1.518908	0.825643	1.427828
C154	C	0.948717	0.052222	0.761162
C155	C	1.282050	0.385555	1.094495
C156	C	1.615383	0.718888	1.427829
C157	C	0.948709	0.052218	0.674617
C158	C	1.282043	0.385552	1.007950
C159	C	1.615376	0.718885	1.341283
C160	C	0.900461	0.105593	0.631345
C161	C	1.233794	0.438927	0.964678
C162	C	1.567127	0.772260	1.298012
C163	C	0.900456	0.105593	0.537501
C164	C	1.233789	0.438926	0.870834
C165	C	1.567123	0.772259	1.204168
C166	C	0.900457	0.105588	0.462703
C167	C	1.233790	0.438921	0.796037
C168	C	1.567123	0.772254	1.129370
H169	H	0.662460	0.239682	0.000064
H170	H	0.995793	0.573016	0.333397
H171	H	1.329126	0.906349	0.666730
Br172	Br	0.763020	-0.463543	0.000055
Br173	Br	1.096353	-0.130210	0.333388
Br174	Br	1.429686	0.203124	0.666721
Br175	Br	0.495097	0.275737	0.000074
Br176	Br	0.828430	0.609071	0.333408
Br177	Br	1.161764	0.942404	0.666741
Br178	Br	0.283645	0.272234	0.000083
Br179	Br	0.616978	0.605567	0.333417
Br180	Br	0.950312	0.938900	0.666750
Br181	Br	1.014149	-0.020238	0.180323
Br182	Br	1.347482	0.313096	0.513657
Br183	Br	1.680816	0.646429	0.846990
Br184	Br	1.014176	-0.020223	0.615892
Br185	Br	1.347509	0.313111	0.949225
Br186	Br	1.680842	0.646444	1.282559
H187	H	0.812925	0.202421	0.360819
H188	H	1.146259	0.535754	0.694152
H189	H	1.479592	0.869087	1.027486
H190	H	0.754384	-0.263544	0.000070
H191	H	1.087717	0.069789	0.333403
H192	H	1.421051	0.403122	0.666736
H193	H	0.765906	-0.115186	0.000080
H194	H	1.099240	0.218148	0.333413
H195	H	1.432573	0.551481	0.666746
H196	H	0.121377	0.230722	0.000103
H197	H	0.454710	0.564056	0.333437
H198	H	0.788043	0.897389	0.666770
Br199	Br	0.119548	-0.067641	0.000129
Br200	Br	0.452881	0.265693	0.333463
Br201	Br	0.786215	0.599026	0.666796
Br202	Br	1.014151	-0.020239	0.384319
Br203	Br	1.347484	0.313095	0.717652
Br204	Br	1.680817	0.646428	1.050986
Br205	Br	0.786717	0.231394	0.180308
Br206	Br	1.120050	0.564727	0.513642
Br207	Br	1.453384	0.898061	0.846975
H208	H	0.281807	-0.026132	0.000127
H209	H	0.615140	0.307201	0.333460
H210	H	0.948474	0.640534	0.666794
H211	H	0.812961	0.202446	0.796393
H212	H	1.146294	0.535779	1.129726
H213	H	1.479628	0.869113	1.463059
Br214	Br	1.052862	-0.132537	0.000144
Br215	Br	1.386196	0.200796	0.333477
Br216	Br	1.719529	0.534130	0.666810
Br217	Br	0.517270	-0.061055	0.000117
Br218	Br	0.850603	0.272279	0.333450
Br219	Br	1.183936	0.605612	0.666783
Br220	Br	0.703539	-0.057973	0.000104
Br221	Br	1.036872	0.275361	0.333438
Br222	Br	1.370206	0.608694	0.666771
H223	H	0.988001	0.008758	0.796403
H224	H	1.321334	0.342092	1.129736
H225	H	1.654668	0.675425	1.463070
H226	H	1.034999	-0.673635	0.000114
H227	H	1.368333	-0.340302	0.333447
H228	H	1.701666	-0.006969	0.666780
Br229	Br	1.037885	-0.325278	0.000119
Br230	Br	1.371218	0.008055	0.333453
Br231	Br	1.704551	0.341388	0.666786
H232	H	1.046528	-0.525279	0.000120
H233	H	1.379862	-0.191946	0.333453
H234	H	1.713195	0.141387	0.666786
Br235	Br	0.748048	-0.656288	0.000074
Br236	Br	1.081381	-0.322955	0.333407
Br237	Br	1.414714	0.010379	0.666740
Br238	Br	0.786752	0.231412	0.615889
Br239	Br	1.120086	0.564746	0.949222
Br240	Br	1.453419	0.898079	1.282556
