data_functionalizedCrystal
_audit_creation_method	'MofGen! by Chris Wilmer'
_symmetry_space_group_name_H-M	'P1'
_symmetry_Int_Tables_number	1
_symmetry_cell_setting	triclinic
loop_
_symmetry_equiv_pos_as_xyz
  x,y,z
_cell_length_a	16.974800
_cell_length_b	11.026607
_cell_length_c	15.455313
_cell_angle_alpha	93.255562
_cell_angle_beta	90.973911
_cell_angle_gamma	95.962169
loop_
_atom_site_label
_atom_site_type_symbol
_atom_site_fract_x
_atom_site_fract_y
_atom_site_fract_z
O1	O	1.071030	0.154769	0.003083
O2	O	1.571030	0.654769	0.503083
O3	O	0.844227	0.173310	-0.012845
O4	O	1.344227	0.673310	0.487155
O5	O	0.938831	-0.012678	-0.006198
O6	O	1.438831	0.487322	0.493802
O7	O	0.976426	0.340756	-0.003564
O8	O	1.476426	0.840756	0.496436
O9	O	0.933415	-0.002086	0.137683
O10	O	1.433415	0.497914	0.637683
O11	O	0.838811	0.183901	0.131036
O12	O	1.338811	0.683901	0.631036
O13	O	1.065614	0.165360	0.146964
O14	O	1.565614	0.665360	0.646964
Cu15	Cu	0.951718	0.175598	0.152138
Cu16	Cu	1.451718	0.675598	0.652138
Cu17	Cu	0.958123	0.163072	-0.018019
Cu18	Cu	1.458123	0.663072	0.481981
O19	O	0.971010	0.351348	0.140317
O20	O	1.471010	0.851348	0.640317
C21	C	0.812032	0.177706	0.057024
C22	C	1.312032	0.677706	0.557024
C23	C	0.724168	0.175012	0.050854
C24	C	1.224168	0.675012	0.550854
C25	C	0.679942	0.179517	0.126387
C26	C	1.179942	0.679517	0.626387
C27	C	0.597383	0.176967	0.120591
C28	C	1.097383	0.676967	0.620591
C29	C	0.559053	0.169920	0.039262
C30	C	1.059053	0.669920	0.539262
C31	C	0.603286	0.165411	-0.036277
C32	C	1.103286	0.665411	0.463723
C33	C	0.685842	0.167953	-0.030480
C34	C	1.185842	0.667953	0.469520
C35	C	0.312462	0.161690	0.013516
C36	C	0.812462	0.661690	0.513516
C37	C	0.229899	0.159152	0.007725
C38	C	0.729899	0.659152	0.507725
C39	C	0.224002	0.170706	0.164593
C40	C	0.724002	0.670706	0.664593
C41	C	0.306561	0.173255	0.170383
C42	C	0.806561	0.673255	0.670383
C43	C	0.350786	0.168739	0.094844
C44	C	0.850786	0.668739	0.594844
N45	N	0.474666	0.167316	0.033336
N46	N	0.974666	0.667316	0.533336
N47	N	0.435172	0.171334	0.100771
N48	N	0.935172	0.671334	0.600771
C49	C	0.929188	-0.052617	0.065254
C50	C	1.429188	0.447383	0.565254
C51	C	0.908513	-0.187401	0.063799
C52	C	1.408513	0.312599	0.563799
C53	C	0.965600	-0.261012	0.067807
C54	C	1.465600	0.238988	0.567807
C55	C	0.944233	-0.400320	0.066304
C56	C	1.444233	0.099680	0.566304
C57	C	1.097809	0.160964	0.077093
C58	C	1.597809	0.660964	0.577093
C59	C	1.185673	0.163657	0.083258
C60	C	1.685673	0.663657	0.583258
C61	C	0.980653	0.391287	0.068863
C62	C	1.480653	0.891287	0.568863
C63	C	1.001328	0.526071	0.070312
C64	C	1.501328	1.026071	0.570312
N65	N	0.947218	0.184407	0.271817
N66	N	1.447218	0.684407	0.771817
N67	N	0.962627	0.154253	-0.137698
N68	N	1.462627	0.654253	0.362302
C69	C	0.987431	0.105422	0.320037
C70	C	1.487431	0.605422	0.820037
C71	C	0.984038	0.112096	0.410606
C72	C	1.484038	0.612096	0.910606
C73	C	0.940435	0.197761	0.452955
C74	C	1.440435	0.697761	0.952955
C75	C	0.900217	0.276749	0.404728
C76	C	1.400217	0.776749	0.904728
C77	C	0.903607	0.270069	0.314160
C78	C	1.403607	0.770069	0.814160
C79	C	0.925799	0.226561	0.723508
C80	C	1.425799	0.726561	1.223508
C81	C	0.922414	0.233238	0.814083
C82	C	1.422414	0.733238	1.314083
C83	C	1.006234	0.068582	0.819954
C84	C	1.506234	0.568582	1.319954
C85	C	1.009624	0.061915	0.729384
C86	C	1.509624	0.561915	1.229384
C87	C	0.969403	0.140899	0.681166
C88	C	1.469403	0.640899	1.181166
N89	N	0.936967	0.204587	0.545531
N90	N	1.436967	0.704587	1.045531
N91	N	0.972866	0.134066	0.588590
N92	N	1.472866	0.634066	1.088590
H93	H	0.561376	0.180615	0.182098
H94	H	1.061376	0.680615	0.682098
H95	H	1.045129	-0.007840	0.694906
H96	H	1.545129	0.492160	1.194906
H97	H	0.843820	-0.227514	0.059250
H98	H	1.343820	0.272486	0.559250
H99	H	0.348459	0.158009	-0.047993
H100	H	0.848459	0.658009	0.452007
H101	H	0.864710	0.346495	0.439213
H102	H	1.364710	0.846495	0.939213
O103	O	0.728828	0.163369	-0.103830
O104	O	1.228828	0.663369	0.396170
C105	C	0.770800	0.059457	-0.105578
C106	C	1.270800	0.559457	0.394422
H107	H	0.740072	-0.011457	-0.063108
H108	H	1.240072	0.488543	0.436892
H109	H	0.772341	0.019117	-0.175022
H110	H	1.272341	0.519117	0.324978
H111	H	0.833926	0.086685	-0.080021
H112	H	1.333926	0.586685	0.419979
O113	O	1.042739	-0.212967	0.073265
O114	O	1.542739	0.287033	0.573265
C115	C	1.046900	-0.084572	0.073536
C116	C	1.546900	0.415428	0.573536
H117	H	0.988532	-0.053165	0.096748
H118	H	1.488532	0.446835	0.596748
H119	H	1.097244	-0.042354	0.118956
H120	H	1.597244	0.457646	0.618956
H121	H	1.058291	-0.054373	0.005126
H122	H	1.558291	0.445627	0.505126
O123	O	0.886859	0.303346	0.676594
O124	O	1.386859	0.803346	1.176594
C125	C	0.941675	0.374589	0.627920
C126	C	1.441675	0.874589	1.127920
H127	H	0.997018	0.325487	0.618182
H128	H	1.497018	0.825487	1.118182
H129	H	0.913870	0.388980	0.562124
H130	H	1.413870	0.888980	1.062124
H131	H	0.958462	0.466908	0.664094
H132	H	1.458462	0.966908	1.164094
H133	H	1.022941	0.035670	0.285563
H134	H	1.522941	0.535670	0.785563
H135	H	1.016782	0.047779	0.449866
H136	H	1.516782	0.547779	0.949866
H137	H	0.886906	0.303002	0.848558
H138	H	1.386906	0.803002	1.348558
H139	H	1.038980	0.004276	0.859222
H140	H	1.538980	0.504276	1.359222
O141	O	0.867087	-0.448354	0.060921
O142	O	1.367087	0.051646	0.560921
C143	C	0.862927	-0.576752	0.060601
C144	C	1.362927	-0.076752	0.560601
H145	H	0.919244	-0.604154	0.091868
H146	H	1.419244	-0.104154	0.591868
H147	H	0.809437	-0.612827	0.098725
H148	H	1.309437	-0.112827	0.598725
H149	H	0.856737	-0.617102	-0.009045
H150	H	1.356737	-0.117102	0.490955
O151	O	0.717124	0.186146	0.205410
O152	O	1.217124	0.686146	0.705410
C153	C	0.689167	0.083998	0.251296
C154	C	1.189167	0.583998	0.751296
H155	H	0.664025	0.006498	0.203517
H156	H	1.164025	0.506498	0.703517
H157	H	0.740115	0.053024	0.290545
H158	H	1.240115	0.553024	0.790545
H159	H	0.640755	0.109872	0.296930
H160	H	1.140755	0.609872	0.796930
O161	O	1.078489	-0.425963	0.075616
O162	O	1.578489	0.074037	0.575616
C163	C	1.096656	-0.359047	0.002167
C164	C	1.596656	0.140953	0.502167
H165	H	1.039890	-0.329666	-0.026729
H166	H	1.539890	0.170334	0.473271
H167	H	1.139153	-0.274708	0.021956
H168	H	1.639153	0.225292	0.521956
H169	H	1.125614	-0.418654	-0.048117
H170	H	1.625614	0.081346	0.451883
O171	O	0.864647	0.346969	0.267363
O172	O	1.364647	0.846969	0.767363
C173	C	0.893667	0.468845	0.291588
C174	C	1.393667	0.968845	0.791588
H175	H	0.955948	0.471550	0.320908
H176	H	1.455948	0.971550	0.820908
H177	H	0.895466	0.525343	0.231992
H178	H	1.395466	1.025343	0.731992
H179	H	0.853053	0.508195	0.341452
H180	H	1.353053	1.008195	0.841452
O181	O	0.343664	0.180048	0.249455
O182	O	0.843664	0.680048	0.749455
C183	C	0.286926	0.183511	0.314882
C184	C	0.786926	0.683511	0.814882
H185	H	0.226759	0.141599	0.287608
H186	H	0.726759	0.641599	0.787608
H187	H	0.305370	0.129401	0.371180
H188	H	0.805370	0.629401	0.871180
H189	H	0.282769	0.282330	0.338764
H190	H	0.782769	0.782330	0.838764
H191	H	0.198694	0.153417	-0.058507
H192	H	0.698694	0.653417	0.441493
O193	O	0.180995	0.174861	0.237941
O194	O	0.680995	0.674861	0.737941
C195	C	0.127079	0.068697	0.238852
C196	C	0.627079	0.568697	0.738852
H197	H	0.149458	-0.007236	0.195796
H198	H	0.649458	0.492764	0.695796
H199	H	0.121530	0.038509	0.308015
H200	H	0.621530	0.538509	0.808015
H201	H	0.066653	0.088971	0.213485
H202	H	0.566653	0.588971	0.713485
H203	H	0.572071	0.159664	-0.102497
H204	H	1.072071	0.659664	0.397503
