data_functionalizedCrystal
_audit_creation_method	'MofGen! by Chris Wilmer'
_symmetry_space_group_name_H-M	'P1'
_symmetry_Int_Tables_number	1
_symmetry_cell_setting	triclinic
loop_
_symmetry_equiv_pos_as_xyz
  x,y,z
_cell_length_a	12.827893
_cell_length_b	29.839131
_cell_length_c	12.827885
_cell_angle_alpha	90.036821
_cell_angle_beta	90.019272
_cell_angle_gamma	90.041391
loop_
_atom_site_label
_atom_site_type_symbol
_atom_site_fract_x
_atom_site_fract_y
_atom_site_fract_z
Zn1	Zn	1.597481	-0.178832	0.590798
Zn2	Zn	2.097481	0.321168	1.090798
Zn3	Zn	1.597295	-0.253969	0.416036
Zn4	Zn	2.097295	0.246031	0.916036
Zn5	Zn	1.422722	-0.178854	0.416071
Zn6	Zn	1.922722	0.321146	0.916071
Zn7	Zn	1.422628	-0.253936	0.590736
Zn8	Zn	1.922628	0.246064	1.090736
O9	O	1.510031	-0.216398	0.503410
O10	O	2.010031	0.283602	1.003410
O11	O	1.743692	-0.188804	0.567626
O12	O	2.243692	0.311196	1.067626
O13	O	1.574100	-0.244028	0.269805
O14	O	2.074100	0.255972	0.769805
O15	O	1.446021	-0.115984	0.439289
O16	O	1.946021	0.384016	0.939289
O17	O	1.743556	-0.244007	0.439230
O18	O	2.243556	0.255993	0.939230
O19	O	1.574415	-0.115968	0.567660
O20	O	2.074415	0.384032	1.067660
O21	O	1.445841	-0.188841	0.269830
O22	O	1.945841	0.311159	0.769830
O23	O	1.276473	-0.188809	0.439230
O24	O	1.776473	0.311191	0.939230
O25	O	1.445861	-0.243950	0.736981
O26	O	1.945861	0.256050	1.236981
O27	O	1.276404	-0.243971	0.567556
O28	O	1.776404	0.256029	1.067556
O29	O	1.574324	-0.188771	0.737026
O30	O	2.074324	0.311229	1.237026
O31	O	1.574008	-0.316832	0.439170
O32	O	2.074008	0.183168	0.939170
O33	O	1.445681	-0.316807	0.567522
O34	O	1.945681	0.183193	1.067522
C35	C	1.238522	-0.216389	0.503390
C36	C	1.738522	0.283611	1.003390
C37	C	1.122368	-0.216396	0.503407
C38	C	1.622368	0.283604	1.003407
C39	C	1.509843	-0.333120	0.503359
C40	C	2.009843	0.166880	1.003359
C41	C	1.509858	-0.383055	0.503371
C42	C	2.009858	0.116945	1.003371
C43	C	1.070577	-0.243735	0.566808
C44	C	1.570577	0.256265	1.066808
C45	C	0.950527	-0.243743	0.566827
C46	C	1.450527	0.256257	1.066827
C47	C	1.576973	-0.692698	0.436675
C48	C	2.076973	-0.192698	0.936675
C49	C	1.577102	-0.880371	0.436716
C50	C	2.077102	-0.380371	0.936716
O51	O	1.634016	-0.904636	0.379969
O52	O	2.134016	-0.404636	0.879969
N53	N	1.510248	-0.903840	0.503489
N54	N	2.010248	-0.403840	1.003489
C55	C	1.443362	-0.880387	0.570262
C56	C	1.943362	-0.380387	1.070262
O57	O	1.386509	-0.904655	0.627065
O58	O	1.886509	-0.404655	1.127065
C59	C	1.443239	-0.692715	0.570226
C60	C	1.943239	-0.192715	1.070226
C61	C	1.510090	-0.669249	0.503441
C62	C	2.010090	-0.169249	1.003441
C63	C	1.643819	-0.669232	0.369897
C64	C	2.143819	-0.169232	0.869897
C65	C	1.643782	-0.622317	0.369883
C66	C	2.143782	-0.122317	0.869883
C67	C	1.576899	-0.598867	0.436648
C68	C	2.076899	-0.098867	0.936648
C69	C	1.510053	-0.622333	0.503427
C70	C	2.010053	-0.122333	1.003427
C71	C	1.376359	-0.669263	0.637003
C72	C	1.876359	-0.169263	1.137003
C73	C	1.376336	-0.622342	0.636990
C74	C	1.876336	-0.122342	1.136990
C75	C	1.443187	-0.598876	0.570205
C76	C	1.943187	-0.098876	1.070205
C77	C	1.443133	-0.551969	0.570179
C78	C	1.943133	-0.051969	1.070179
N79	N	1.509987	-0.528500	0.503406
N80	N	2.009987	-0.028500	1.003406
C81	C	1.576870	-0.551949	0.436641
C82	C	2.076870	-0.051949	0.936641
C83	C	1.443430	-0.978918	0.570274
C84	C	1.943430	-0.478918	1.070274
C85	C	1.443459	-1.025835	0.570282
C86	C	1.943459	-0.525835	1.070282
C87	C	1.577201	-1.025816	0.436738
C88	C	2.077201	-0.525816	0.936738
C89	C	1.577165	-0.978898	0.436725
C90	C	2.077165	-0.478898	0.936725
C91	C	1.510284	-0.955449	0.503501
C92	C	2.010284	-0.455449	1.003501
C93	C	1.576787	-0.453424	0.436617
C94	C	2.076787	0.046576	0.936617
C95	C	1.576741	-0.406504	0.436606
C96	C	2.076741	0.093496	0.936606
C97	C	1.443004	-0.406527	0.570154
C98	C	1.943004	0.093473	1.070154
C99	C	1.443045	-0.453443	0.570161
C100	C	1.943045	0.046557	1.070161
C101	C	1.509945	-0.476890	0.503389
C102	C	2.009945	0.023110	1.003389
O103	O	1.386257	-0.527675	0.626905
O104	O	1.886257	-0.027675	1.126905
O105	O	1.633731	-0.527674	0.379862
O106	O	2.133731	-0.027674	0.879862
C107	C	1.577010	-0.739614	0.436689
C108	C	2.077010	-0.239614	0.936689
C109	C	1.510164	-0.763080	0.503468
C110	C	2.010164	-0.263080	1.003468
C111	C	1.443281	-0.739630	0.570233
C112	C	1.943281	-0.239630	1.070233
C113	C	1.510193	-0.809997	0.503476
C114	C	2.010193	-0.309997	1.003476
C115	C	1.577076	-0.833447	0.436710
C116	C	2.077076	-0.333447	0.936710
C117	C	1.643930	-0.809978	0.369937
C118	C	2.143930	-0.309978	0.869937
C119	C	1.643893	-0.763063	0.369924
C120	C	2.143893	-0.263063	0.869924
C121	C	1.376427	-0.763099	0.637006
C122	C	1.876427	-0.263099	1.137006
C123	C	1.376468	-0.810014	0.637013
C124	C	1.876468	-0.310014	1.137013
C125	C	1.443351	-0.833464	0.570248
C126	C	1.943351	-0.333464	1.070248
C127	C	1.782602	-0.216407	0.503431
C128	C	2.282602	0.283593	1.003431
C129	C	1.898755	-0.216410	0.503440
C130	C	2.398755	0.283590	1.003440
C131	C	1.510103	-0.216354	0.775981
C132	C	2.010103	0.283646	1.275981
C133	C	1.510133	-0.216336	0.892134
C134	C	2.010133	0.283664	1.392134
C135	C	1.510249	-0.099219	0.503485
C136	C	2.010249	0.400781	1.003485
C137	C	1.510342	-0.049285	0.503517
C138	C	2.010342	0.450715	1.003517
C139	C	1.510021	-0.216408	0.231900
C140	C	2.010021	0.283592	0.731900
C141	C	1.510193	-0.216300	0.115748
C142	C	2.010193	0.283700	0.615748
C143	C	1.573708	-0.189027	0.943941
C144	C	2.073708	0.310973	1.443941
C145	C	1.573740	-0.189007	1.063991
C146	C	2.073740	0.310993	1.563991
H147	H	0.905987	-0.267150	0.621104
H148	H	1.405987	0.232850	1.121104
H149	H	1.628173	-0.165628	1.108544
H150	H	2.128173	0.334372	1.608544
H151	H	1.455722	-0.239699	0.936657
H152	H	1.955722	0.260301	1.436657
C153	C	1.062219	-0.184782	0.430094
C154	C	1.562219	0.315218	0.930094
H155	H	1.110280	-0.167627	0.390319
H156	H	1.610280	0.332373	0.890319
H157	H	1.019591	-0.201962	0.384535
H158	H	1.519591	0.298038	0.884535
H159	H	1.019690	-0.165245	0.470206
H160	H	1.519690	0.334755	0.970206
H161	H	1.321964	-0.744010	0.691376
H162	H	1.821964	-0.244010	1.191376
H163	H	0.943287	-0.193005	0.449153
H164	H	1.443287	0.306995	0.949153
C165	C	1.717391	-0.695019	0.296442
C166	C	2.217391	-0.195019	0.796442
H167	H	1.757185	-0.674318	0.256671
H168	H	2.257185	-0.174318	0.756671
H169	H	1.762922	-0.713292	0.336444
H170	H	2.262922	-0.213292	0.836444
H171	H	1.677444	-0.713350	0.250869
H172	H	2.177444	-0.213350	0.750869
C173	C	1.650284	-0.380694	0.363145
C174	C	2.150284	0.119306	0.863145
H175	H	1.690129	-0.401382	0.323394
H176	H	2.190129	0.098618	0.823394
H177	H	1.610326	-0.362423	0.317569
H178	H	2.110326	0.137577	0.817569
H179	H	1.695786	-0.362359	0.403162
H180	H	2.195786	0.137641	0.903162
H181	H	1.631265	-0.472509	0.382247
H182	H	2.131265	0.027491	0.882247
H183	H	1.115113	-0.267133	0.621079
H184	H	1.615113	0.232867	1.121079
C185	C	1.717298	-0.596508	0.296403
C186	C	2.217298	-0.096508	0.796403
H187	H	1.707697	-0.565205	0.305935
H188	H	2.207697	-0.065205	0.805935
H189	H	1.787514	-0.604159	0.311739
H190	H	2.287514	-0.104159	0.811739
H191	H	1.702017	-0.604234	0.226183
H192	H	2.202017	-0.104234	0.726183
C193	C	1.650709	-0.953089	0.363271
C194	C	2.150709	-0.453089	0.863271
H195	H	1.690546	-0.973778	0.323517
H196	H	2.190546	-0.473778	0.823517
H197	H	1.610755	-0.934816	0.317698
H198	H	2.110755	-0.434816	0.817698
H199	H	1.696216	-0.934757	0.403290
H200	H	2.196216	-0.434757	0.903290
H201	H	1.322021	-0.829116	0.691397
H202	H	1.822021	-0.329116	1.191397
C203	C	1.302830	-0.695066	0.710475
C204	C	1.802830	-0.195066	1.210475
H205	H	1.263009	-0.674374	0.750240
H206	H	1.763009	-0.174374	1.250240
H207	H	1.257321	-0.713403	0.670481
H208	H	1.757321	-0.213403	1.170481
H209	H	1.342802	-0.713333	0.756053
H210	H	1.842802	-0.213333	1.256053
C211	C	1.647208	-0.157461	0.883804
C212	C	2.147208	0.342539	1.383804
H213	H	1.637549	-0.161618	0.811006
H214	H	2.137549	0.338382	1.311006
H215	H	1.631997	-0.127265	0.901658
H216	H	2.131997	0.372735	1.401658
H217	H	1.717434	-0.164033	0.901641
H218	H	2.217434	0.335967	1.401641
H219	H	1.631660	-1.044917	0.382375
H220	H	2.131660	-0.544917	0.882375
H221	H	1.455765	-0.239683	1.071202
H222	H	1.955765	0.260317	1.571202
C223	C	1.369917	-1.051643	0.643739
C224	C	1.869917	-0.551643	1.143739
H225	H	1.330091	-1.030954	0.683505
H226	H	1.830091	-0.530954	1.183505
H227	H	1.324414	-1.069979	0.603736
H228	H	1.824414	-0.569979	1.103736
H229	H	1.409886	-1.069912	0.689317
H230	H	1.909886	-0.569912	1.189317
H231	H	1.388964	-0.959829	0.624653
H232	H	1.888964	-0.459829	1.124653
H233	H	1.388613	-0.472550	0.624546
H234	H	1.888613	0.027450	1.124546
C235	C	1.302765	-0.596551	0.710446
C236	C	1.802765	-0.096551	1.210446
H237	H	1.262956	-0.617249	0.750212
H238	H	1.762956	-0.117249	1.250212
H239	H	1.342703	-0.578216	0.756007
H240	H	1.842703	-0.078216	1.256007
H241	H	1.257231	-0.578283	0.670426
H242	H	1.757231	-0.078283	1.170426
C243	C	1.369447	-0.380729	0.643603
C244	C	1.869447	0.119271	1.143603
H245	H	1.329632	-0.401422	0.683379
H246	H	1.829632	0.098578	1.183379
H247	H	1.409400	-0.362396	0.689155
H248	H	1.909400	0.137604	1.189155
H249	H	1.323917	-0.362457	0.603585
H250	H	1.823917	0.137543	1.103585
C251	C	1.717498	-0.835779	0.296496
C252	C	2.217498	-0.335779	0.796496
H253	H	1.707942	-0.867081	0.306081
H254	H	2.207942	-0.367081	0.806081
H255	H	1.702243	-0.828122	0.226265
H256	H	2.202243	-0.328122	0.726265
H257	H	1.787703	-0.828056	0.311857
H258	H	2.287703	-0.328056	0.811857
H259	H	1.698329	-0.743960	0.315541
H260	H	2.198329	-0.243960	0.815541
