data_functionalizedCrystal
_audit_creation_method	'MofGen! by Chris Wilmer'
_symmetry_space_group_name_H-M	'P1'
_symmetry_Int_Tables_number	1
_symmetry_cell_setting	triclinic
loop_
_symmetry_equiv_pos_as_xyz
  x,y,z
_cell_length_a	19.121063
_cell_length_b	16.625547
_cell_length_c	19.121249
_cell_angle_alpha	87.549433
_cell_angle_beta	89.910748
_cell_angle_gamma	87.531546
loop_
_atom_site_label
_atom_site_type_symbol
_atom_site_fract_x
_atom_site_fract_y
_atom_site_fract_z
Zn1	Zn	-0.262324	-1.239677	0.408422
Zn2	Zn	-0.384537	-1.228121	0.296176
Zn3	Zn	-0.267314	-1.098890	0.291183
Zn4	Zn	-0.379527	-1.099298	0.413361
O5	O	-0.323425	-1.166496	0.352285
O6	O	-0.278543	-1.350977	0.393554
O7	O	-0.373171	-1.205972	0.197406
O8	O	-0.168543	-1.122231	0.302578
O9	O	-0.368333	-1.342487	0.311088
O10	O	-0.164877	-1.225667	0.388713
O11	O	-0.287048	-1.111026	0.193738
O12	O	-0.282191	-0.986111	0.307368
O13	O	-0.359795	-1.122926	0.510813
O14	O	-0.364634	-0.986410	0.397132
O15	O	-0.273686	-1.226062	0.507184
O16	O	-0.481980	-1.206367	0.315877
O17	O	-0.478300	-1.111721	0.401973
C18	C	-0.323411	-0.957004	0.352244
C19	C	-0.323421	-0.867383	0.352244
C20	C	-0.323421	-0.794601	0.352251
C21	C	-0.323423	-0.703293	0.352265
C22	C	-0.323428	-0.630517	0.352281
C23	C	-0.323432	-0.539203	0.352295
C24	C	-0.505578	-1.157857	0.360018
C25	C	-0.583503	-1.154236	0.363350
C26	C	-0.622003	-1.201854	0.320127
C27	C	-0.695222	-1.198453	0.323264
C28	C	-0.729938	-1.147430	0.369622
C29	C	-0.691433	-1.099810	0.412849
C30	C	-0.618215	-1.103215	0.409715
C31	C	-0.950912	-1.134684	0.381330
C32	C	-1.024134	-1.131280	0.384459
C33	C	-1.027918	-1.229925	0.294874
C34	C	-0.954700	-1.233322	0.291741
C35	C	-0.916200	-1.185706	0.334972
C36	C	-0.804779	-1.143951	0.372828
C37	C	-0.841360	-1.189190	0.331768
C38	C	-0.140561	-1.175193	0.344538
C39	C	-0.062635	-1.178898	0.341236
C40	C	-0.315626	-1.175828	0.535148
C41	C	-0.312302	-1.179805	0.613073
C42	C	-0.323438	-0.376806	0.352318
C43	C	-0.323437	-0.466427	0.352310
C44	C	-0.291257	-1.205030	1.053708
C45	C	-0.294383	-1.201289	0.980489
C46	C	-0.340775	-1.145717	0.945772
C47	C	-0.384048	-1.093888	0.984279
C48	C	-0.380925	-1.097635	1.057496
C49	C	-0.352451	-1.131723	0.724797
C50	C	-0.355570	-1.127979	0.651574
C51	C	-0.265906	-1.235381	0.647790
C52	C	-0.262784	-1.239119	0.721009
C53	C	-0.306059	-1.187293	0.759509
C54	C	-0.343970	-1.141889	0.870931
C55	C	-0.302867	-1.191126	0.834349
C56	C	-0.331208	-1.157191	1.170134
C57	C	-0.334525	-1.153204	1.092209
H58	H	-0.726566	-1.237228	0.288067
H59	H	-1.059272	-1.268693	0.259680
C60	C	-0.211756	-1.300252	0.759192
H61	H	-0.186438	-1.330587	0.725775
H62	H	-0.179987	-1.272325	0.786458
H63	H	-0.237367	-1.335570	0.788893
C64	C	-0.435076	-1.032759	0.946092
H65	H	-0.430735	-1.037944	0.896972
H66	H	-0.481673	-1.042927	0.960087
H67	H	-0.424291	-0.979685	0.957653
H68	H	-0.381741	-1.096641	0.842656
C69	C	-0.240227	-1.266162	1.091890
H70	H	-0.214912	-1.296497	1.058471
H71	H	-0.208456	-1.238239	1.119156
H72	H	-0.265838	-1.301480	1.121590
C73	C	-0.218308	-1.292387	0.605442
H74	H	-0.190228	-1.326015	0.636605
H75	H	-0.246346	-1.324781	0.578017
H76	H	-0.188971	-1.261530	0.575585
H77	H	-0.259152	-1.243493	0.949145
H78	H	-0.393334	-1.082707	0.623310
H79	H	-0.387689	-1.089522	0.756135
H80	H	-0.926435	-1.274870	0.253993
C81	C	-0.428518	-1.040624	1.099847
H82	H	-0.456590	-1.006986	1.068686
H83	H	-0.457850	-1.071475	1.129707
H84	H	-0.400472	-1.008228	1.127269
H85	H	-0.265098	-1.236375	0.862619
H86	H	-1.052398	-1.089741	0.422221
C87	C	-0.583821	-1.257981	0.269134
H88	H	-0.617240	-1.285859	0.243847
H89	H	-0.556597	-1.226936	0.237337
H90	H	-0.554080	-1.295791	0.294766
C91	C	-0.908572	-1.082293	0.428869
H92	H	-0.939737	-1.051410	0.456917
H93	H	-0.878668	-1.115988	0.458224
H94	H	-0.881196	-1.047141	0.400787
H95	H	-0.719705	-1.058269	0.450598
H96	H	-0.586869	-1.064441	0.444913
H97	H	-0.813092	-1.230736	0.294026
H98	H	-0.833054	-1.102405	0.410571
