data_functionalizedCrystal
_audit_creation_method	'MofGen! by Chris Wilmer'
_symmetry_space_group_name_H-M	'P1'
_symmetry_Int_Tables_number	1
_symmetry_cell_setting	triclinic
loop_
_symmetry_equiv_pos_as_xyz
  x,y,z
_cell_length_a	11.169417
_cell_length_b	12.827892
_cell_length_c	12.827885
_cell_angle_alpha	89.970024
_cell_angle_beta	89.982092
_cell_angle_gamma	90.016270
loop_
_atom_site_label
_atom_site_type_symbol
_atom_site_fract_x
_atom_site_fract_y
_atom_site_fract_z
Zn1	Zn	1.834897	-0.415958	-0.590809
Zn2	Zn	2.168231	-0.082625	-0.257476
Zn3	Zn	2.501564	0.250709	0.075857
Zn4	Zn	1.834776	-0.590735	-0.416069
Zn5	Zn	2.168109	-0.257402	-0.082736
Zn6	Zn	2.501443	0.075931	0.250598
Zn7	Zn	1.634190	-0.416012	-0.416087
Zn8	Zn	1.967523	-0.082678	-0.082754
Zn9	Zn	2.300857	0.250655	0.250580
Zn10	Zn	1.634173	-0.590660	-0.590773
Zn11	Zn	1.967507	-0.257327	-0.257440
Zn12	Zn	2.300840	0.076006	0.075894
O13	O	1.734509	-0.503341	-0.503435
O14	O	2.067842	-0.170008	-0.170101
O15	O	2.401176	0.163325	0.163232
O16	O	2.002831	-0.439151	-0.567637
O17	O	2.336164	-0.105818	-0.234304
O18	O	2.669498	0.227515	0.099029
O19	O	1.808124	-0.567612	-0.269835
O20	O	2.141457	-0.234278	0.063498
O21	O	2.474791	0.099055	0.396831
O22	O	1.660872	-0.269768	-0.439287
O23	O	1.994206	0.063565	-0.105954
O24	O	2.327539	0.396898	0.227380
O25	O	2.002742	-0.567560	-0.439256
O26	O	2.336075	-0.234226	-0.105923
O27	O	2.669408	0.099107	0.227410
O28	O	1.808331	-0.269729	-0.567655
O29	O	2.141665	0.063604	-0.234321
O30	O	2.474998	0.396938	0.099012
O31	O	1.660754	-0.439243	-0.269849
O32	O	1.994088	-0.105910	0.063485
O33	O	2.327421	0.227424	0.396818
O34	O	1.466238	-0.439170	-0.439252
O35	O	1.799571	-0.105837	-0.105919
O36	O	2.132905	0.227496	0.227415
O37	O	1.660844	-0.567432	-0.737014
O38	O	1.994177	-0.234099	-0.403681
O39	O	2.327510	0.099235	-0.070347
O40	O	1.466226	-0.567484	-0.567593
O41	O	1.799559	-0.234151	-0.234260
O42	O	2.132892	0.099183	0.099074
O43	O	1.808315	-0.439079	-0.737041
O44	O	2.141648	-0.105745	-0.403707
O45	O	2.474981	0.227588	-0.070374
O46	O	1.808108	-0.736961	-0.439221
O47	O	2.141441	-0.403628	-0.105888
O48	O	2.474774	-0.070295	0.227445
O49	O	1.660726	-0.736906	-0.567576
O50	O	1.994059	-0.403573	-0.234242
O51	O	2.327392	-0.070240	0.099091
C52	C	1.422684	-0.503325	-0.503421
C53	C	1.756018	-0.169992	-0.170088
C54	C	2.089351	0.163341	0.163245
C55	C	1.289284	-0.503344	-0.503440
C56	C	1.622618	-0.170011	-0.170107
C57	C	1.955951	0.163323	0.163226
C58	C	1.734434	-0.774851	-0.503415
C59	C	2.067767	-0.441518	-0.170082
C60	C	2.401101	-0.108185	0.163251
C61	C	1.734512	-0.891004	-0.503442
C62	C	2.067845	-0.557671	-0.170109
C63	C	2.401178	-0.224338	0.163225
C64	C	1.807447	-0.942686	-0.567019
C65	C	2.140780	-0.609353	-0.233686
C66	C	2.474113	-0.276020	0.099647
C67	C	1.807529	-1.062736	-0.567048
C68	C	2.140862	-0.729403	-0.233715
C69	C	2.474195	-0.396070	0.099618
C70	C	2.047551	-0.503358	-0.503449
C71	C	2.380885	-0.170025	-0.170115
C72	C	2.714218	0.163309	0.163218
C73	C	2.180951	-0.503365	-0.503455
C74	C	2.514285	-0.170032	-0.170121
C75	C	2.847618	0.163302	0.163212
C76	C	1.734591	-0.503241	-0.776005
C77	C	2.067924	-0.169908	-0.442672
C78	C	2.401257	0.163426	-0.109338
C79	C	1.734626	-0.503198	-0.892158
C80	C	2.067959	-0.169865	-0.558825
C81	C	2.401292	0.163468	-0.225491
C82	C	1.734617	-0.230771	-0.503477
C83	C	2.067951	0.102562	-0.170144
C84	C	2.401284	0.435896	0.163190
C85	C	1.734663	-0.114618	-0.503495
C86	C	2.067997	0.218715	-0.170162
C87	C	2.401330	0.552049	0.163172
C88	C	1.807607	-0.439673	-0.943956
C89	C	2.140940	-0.106339	-0.610623
C90	C	2.474274	0.226994	-0.277289
C91	C	1.807645	-0.439627	-1.064006
C92	C	2.140978	-0.106294	-0.730673
C93	C	2.474311	0.227040	-0.397340
C94	C	1.734497	-0.503366	-0.231925
C95	C	2.067830	-0.170033	0.101409
C96	C	2.401164	0.163301	0.434742
C97	C	1.734695	-0.503114	-0.115772
C98	C	2.068028	-0.169781	0.217561
C99	C	2.401361	0.163552	0.550895
H100	H	1.869825	-0.898059	-0.621434
H101	H	2.203158	-0.564725	-0.288100
H102	H	2.536491	-0.231392	0.045233
Cl103	Cl	1.903947	-1.131351	-0.651085
Cl104	Cl	2.237280	-0.798018	-0.317751
Cl105	Cl	2.570613	-0.464684	0.015582
H106	H	1.672222	-1.070180	-0.449057
H107	H	2.005555	-0.736847	-0.115723
H108	H	2.338888	-0.403514	0.217610
Cl109	Cl	1.638188	-0.959901	-0.419439
Cl110	Cl	1.971521	-0.626567	-0.086106
Cl111	Cl	2.304854	-0.293234	0.247228
Cl112	Cl	1.904007	-0.355725	-0.875213
Cl113	Cl	2.237340	-0.022392	-0.541880
Cl114	Cl	2.570673	0.310941	-0.208546
Cl115	Cl	1.904124	-0.355659	-1.132774
Cl116	Cl	2.237457	-0.022326	-0.799441
Cl117	Cl	2.570791	0.311008	-0.466108
H118	H	1.672214	-0.557508	-1.071234
H119	H	2.005547	-0.224174	-0.737901
H120	H	2.338880	0.109159	-0.404567
H121	H	1.672164	-0.557544	-0.936689
H122	H	2.005497	-0.224211	-0.603356
H123	H	2.338830	0.109123	-0.270022
