data_functionalizedCrystal
_audit_creation_method	'MofGen! by Chris Wilmer'
_symmetry_space_group_name_H-M	'P1'
_symmetry_Int_Tables_number	1
_symmetry_cell_setting	triclinic
loop_
_symmetry_equiv_pos_as_xyz
  x,y,z
_cell_length_a	8.559649
_cell_length_b	15.944551
_cell_length_c	7.088929
_cell_angle_alpha	83.774879
_cell_angle_beta	95.325015
_cell_angle_gamma	76.638701
loop_
_atom_site_label
_atom_site_type_symbol
_atom_site_fract_x
_atom_site_fract_y
_atom_site_fract_z
O1	O	2.103727	-0.018804	-0.158956
O2	O	1.638526	0.024575	-0.158968
O3	O	1.883832	-0.120210	-0.158944
O4	O	1.858421	0.125981	-0.158979
O5	O	1.916614	-0.139599	0.159034
O6	O	1.671309	0.005187	0.159010
O7	O	2.136509	-0.038193	0.159023
Cu8	Cu	1.906902	-0.018273	0.188050
Cu9	Cu	1.868133	0.004656	-0.187996
O10	O	1.891203	0.106593	0.158999
C11	C	1.595388	0.018169	0.000020
C12	C	1.418008	0.027954	0.000015
C13	C	1.899168	-0.161130	0.000045
C14	C	1.896006	-0.254172	0.000046
C15	C	1.736394	-0.458727	0.000015
C16	C	1.826675	-0.534087	0.156800
C17	C	1.890284	-0.424528	0.000031
C18	C	1.794391	-0.514957	-0.156702
C19	C	1.884745	-0.589082	0.000009
C20	C	1.980621	-0.498671	0.156945
C21	C	1.948300	-0.479525	-0.156697
C22	C	2.038697	-0.554877	0.000126
C23	C	1.893471	-0.329732	0.000046
C24	C	1.881571	-0.683878	0.000008
C25	C	2.179647	-0.031786	0.000031
C26	C	2.357025	-0.041571	0.000022
C27	C	1.875866	0.147513	0.000005
C28	C	1.879027	0.240556	-0.000008
N29	N	1.934182	-0.034401	0.452541
N30	N	1.840866	0.020776	-0.452487
H31	H	1.440515	-0.108579	0.000023
H32	H	2.030912	-0.091580	0.534206
C33	C	2.209311	-0.609954	0.000360
C34	C	2.318114	-0.556516	0.002050
C35	C	2.475303	-0.607220	0.002312
H36	H	2.214710	-0.638194	-0.110998
H37	H	2.236747	-0.652352	0.110780
H38	H	2.290687	-0.514134	-0.108359
H39	H	2.312766	-0.528276	0.113400
H40	H	2.502738	-0.649618	0.112732
H41	H	2.480684	-0.635458	-0.109048
H42	H	2.549146	-0.570972	0.003476
C43	C	1.306466	0.117279	-0.000302
C44	C	1.192791	0.137003	-0.163878
C45	C	1.090001	0.219274	-0.164223
H46	H	1.368299	0.159671	-0.000403
H47	H	1.251990	0.117311	0.110522
H48	H	1.247263	0.136978	-0.274673
H49	H	1.130921	0.094633	-0.163811
H50	H	1.035525	0.219306	-0.053399
H51	H	1.151847	0.261659	-0.164319
H52	H	1.012852	0.232664	-0.275197
C53	C	1.566109	-0.403394	0.000602
C54	C	1.503238	-0.431128	0.165144
C55	C	1.346391	-0.380169	0.165771
H56	H	1.499344	-0.409243	-0.109517
H57	H	1.569133	-0.344158	-0.000434
H58	H	1.500203	-0.490349	0.166162
H59	H	1.569957	-0.425276	0.275289
H60	H	1.349415	-0.320933	0.164735
H61	H	1.279640	-0.386022	0.055645
H62	H	1.303718	-0.398974	0.277418
C63	C	1.758229	-0.566259	0.333460
C64	C	1.757584	-0.653917	0.331984
C65	C	1.694551	-0.683581	0.494694
H66	H	1.650802	-0.532912	0.333458
H67	H	1.823364	-0.560279	0.444848
H68	H	1.692449	-0.659890	0.220625
H69	H	1.864992	-0.687285	0.332014
H70	H	1.759685	-0.677601	0.606083
H71	H	1.587127	-0.650228	0.494678
H72	H	1.694118	-0.743061	0.493724
C73	C	2.085446	-0.488224	0.333817
C74	C	2.087091	-0.400530	0.331829
C75	C	2.183613	-0.390869	0.494743
H76	H	2.192625	-0.522020	0.334443
H77	H	2.042601	-0.507349	0.445063
H78	H	2.129941	-0.381415	0.220613
H79	H	1.979936	-0.366716	0.331232
H80	H	2.140768	-0.409994	0.605989
H81	H	2.290785	-0.424669	0.495354
H82	H	2.184730	-0.331367	0.493425
H83	H	1.999667	-0.455510	-0.289250
C84	C	1.711864	0.097097	0.438992
C85	C	1.630210	0.145409	0.569290
C86	C	1.511377	0.215730	0.469378
H87	H	1.637113	0.076044	0.360911
H88	H	1.761406	0.133092	0.360930
H89	H	1.580668	0.109420	0.647319
H90	H	1.704918	0.166483	0.647375
H91	H	1.560919	0.251725	0.391316
H92	H	1.436637	0.194668	0.391300
H93	H	1.455970	0.248522	0.557769
H94	H	1.715616	-0.522750	-0.289260
