data_functionalizedCrystal
_audit_creation_method	'MofGen! by Chris Wilmer'
_symmetry_space_group_name_H-M	'P1'
_symmetry_Int_Tables_number	1
_symmetry_cell_setting	triclinic
loop_
_symmetry_equiv_pos_as_xyz
  x,y,z
_cell_length_a	17.077404
_cell_length_b	13.897447
_cell_length_c	17.077396
_cell_angle_alpha	89.973905
_cell_angle_beta	89.981638
_cell_angle_gamma	90.017500
loop_
_atom_site_label
_atom_site_type_symbol
_atom_site_fract_x
_atom_site_fract_y
_atom_site_fract_z
Zn1	Zn	1.200073	-0.384067	-0.443832
Zn2	Zn	1.199988	-0.545380	-0.312571
Zn3	Zn	1.068805	-0.384095	-0.312582
Zn4	Zn	1.068780	-0.545316	-0.443798
O5	O	1.134411	-0.464714	-0.378196
O6	O	1.309909	-0.405481	-0.426430
O7	O	1.182561	-0.524023	-0.202726
O8	O	1.086264	-0.249109	-0.330012
O9	O	1.309846	-0.523996	-0.329993
O10	O	1.182706	-0.249089	-0.426440
O11	O	1.086181	-0.405528	-0.202734
O12	O	0.958955	-0.405466	-0.329979
O13	O	1.086222	-0.523888	-0.553649
O14	O	0.958937	-0.523915	-0.426382
O15	O	1.182682	-0.405419	-0.553674
O16	O	1.182537	-0.680353	-0.329960
O17	O	1.086139	-0.680306	-0.426371
C18	C	0.930464	-0.464687	-0.378178
C19	C	0.843214	-0.464699	-0.378189
C20	C	0.802257	-0.403097	-0.428480
C21	C	0.720277	-0.403103	-0.428484
C22	C	0.679254	-0.464717	-0.378200
C23	C	0.720217	-0.526321	-0.327903
C24	C	0.802196	-0.526309	-0.327896
C25	C	0.549347	-0.526343	-0.327923
C26	C	0.467362	-0.526356	-0.327930
C27	C	0.467428	-0.403137	-0.428511
C28	C	0.549406	-0.403125	-0.428504
C29	C	0.590363	-0.464731	-0.378208
C30	C	1.134348	-0.715329	-0.378178
C31	C	1.134392	-0.822543	-0.378196
C32	C	1.134430	-0.909612	-0.378214
C33	C	1.134485	-1.018845	-0.378234
C34	C	1.339156	-0.464743	-0.378214
C35	C	1.426405	-0.464755	-0.378222
C36	C	1.134459	-0.464643	-0.582940
C37	C	1.134479	-0.464613	-0.670190
C38	C	1.134497	-0.213121	-0.378231
C39	C	1.134533	-0.105907	-0.378246
C40	C	1.184708	-0.402921	-0.711195
C41	C	1.184717	-0.402889	-0.793175
C42	C	1.134501	-0.464554	-0.834149
C43	C	1.084267	-0.526249	-0.793139
C44	C	1.084255	-0.526276	-0.711160
C45	C	1.084299	-0.526191	-0.964009
C46	C	1.084313	-0.526166	-1.045994
C47	C	1.184762	-0.402805	-1.046024
C48	C	1.184749	-0.402831	-0.964045
C49	C	1.134516	-0.464527	-0.923041
C50	C	1.134409	-0.464716	-0.174248
C51	C	1.134541	-0.464474	-0.086999
H52	H	0.582805	-0.352960	-0.469454
C53	C	0.847378	-0.335320	-0.483795
C54	C	0.802322	-0.267556	-0.539111
C55	C	0.847440	-0.199774	-0.594425
C56	C	0.937614	-0.199757	-0.594423
C57	C	0.982674	-0.267525	-0.539105
C58	C	0.937556	-0.335306	-0.483791
H59	H	0.735565	-0.267566	-0.539114
H60	H	0.814083	-0.149608	-0.635375
H61	H	0.971013	-0.149581	-0.635370
H62	H	1.049431	-0.267514	-0.539102
H63	H	0.970914	-0.385472	-0.442841
C64	C	0.594403	-0.594110	-0.272600
C65	C	0.650743	-0.552213	-0.211024
C66	C	0.695800	-0.619983	-0.155707
C67	C	0.684517	-0.729650	-0.161965
C68	C	0.628173	-0.771553	-0.223543
C69	C	0.583116	-0.703783	-0.278860
H70	H	0.659099	-0.471026	-0.206390
H71	H	0.737510	-0.588963	-0.110123
H72	H	0.717870	-0.779817	-0.121016
H73	H	0.619818	-0.852740	-0.228178
H74	H	0.541407	-0.734803	-0.324445
H75	H	1.225620	-0.352656	-0.826557
H76	H	0.434077	-0.352974	-0.469462
C77	C	1.239985	-0.334998	-0.918973
C78	C	1.205984	-0.259285	-0.862620
C79	C	1.261219	-0.191448	-0.817549
C80	C	1.350456	-0.199323	-0.828830
C81	C	1.384462	-0.275038	-0.885186
C82	C	1.329227	-0.342876	-0.930257
H83	H	1.139922	-0.253453	-0.854266
H84	H	1.236045	-0.135398	-0.775830
H85	H	1.391344	-0.149105	-0.795466
H86	H	1.450524	-0.280870	-0.893539
H87	H	1.354401	-0.398925	-0.971975
H88	H	1.225662	-0.352568	-1.079414
H89	H	0.433964	-0.576528	-0.286985
C90	C	0.847252	-0.594073	-0.272576
C91	C	0.802133	-0.661848	-0.217264
C92	C	0.847188	-0.729610	-0.161939
C93	C	0.937361	-0.729595	-0.161925
C94	C	0.982485	-0.661817	-0.217238
C95	C	0.937430	-0.594056	-0.272564
H96	H	0.735376	-0.661861	-0.217273
H97	H	0.813783	-0.779783	-0.120992
H98	H	0.970714	-0.779756	-0.120969
H99	H	1.049242	-0.661804	-0.217230
H100	H	0.970835	-0.543882	-0.313511
C101	C	1.239947	-0.335087	-0.666126
C102	C	1.233577	-0.225427	-0.677413
C103	C	1.288815	-0.157588	-0.632347
C104	C	1.350423	-0.199409	-0.575994
C105	C	1.356796	-0.309075	-0.564704
C106	C	1.301557	-0.376914	-0.609770
H107	H	1.187969	-0.194463	-0.719131
H108	H	1.284098	-0.076406	-0.640704
H109	H	1.391314	-0.149191	-0.542633
H110	H	1.402404	-0.340039	-0.522986
H111	H	1.306275	-0.458096	-0.601413
C112	C	1.029049	-0.594059	-0.918896
C113	C	0.939815	-0.586186	-0.930145
C114	C	0.884573	-0.654056	-0.885028
C115	C	0.918566	-0.729799	-0.828663
C116	C	1.007805	-0.737675	-0.817412
C117	C	1.063047	-0.669805	-0.862528
H118	H	0.914647	-0.530113	-0.971872
H119	H	0.818513	-0.648225	-0.893357
H120	H	0.877673	-0.780040	-0.795264
H121	H	1.032973	-0.793748	-0.775684
H122	H	1.129107	-0.675636	-0.854199
H123	H	1.043421	-0.576377	-1.079353
H124	H	0.686810	-0.576483	-0.286957
C125	C	1.029006	-0.594140	-0.666049
C126	C	0.939774	-0.586255	-0.677305
C127	C	0.884522	-0.654118	-0.632193
C128	C	0.918503	-0.729865	-0.575825
C129	C	1.007741	-0.737753	-0.564566
C130	C	1.062992	-0.669891	-0.609678
H131	H	0.914615	-0.530179	-0.719034
H132	H	0.818463	-0.648278	-0.640528
H133	H	0.877603	-0.780101	-0.542430
H134	H	1.032900	-0.793829	-0.522836
H135	H	1.129052	-0.675730	-0.601343
H136	H	1.043378	-0.576455	-0.826507
C137	C	0.675232	-0.335344	-0.483815
C138	C	0.686549	-0.343373	-0.573037
C139	C	0.641509	-0.275609	-0.628374
C140	C	0.585153	-0.199818	-0.594488
C141	C	0.573834	-0.191786	-0.505261
C142	C	0.618874	-0.259550	-0.449925
H143	H	0.728269	-0.399481	-0.598126
H144	H	0.649888	-0.281555	-0.694426
H145	H	0.551812	-0.149656	-0.635451
H146	H	0.532114	-0.135678	-0.480173
H147	H	0.610495	-0.253604	-0.383873
