data_functionalizedCrystal
_audit_creation_method	'MofGen! by Chris Wilmer'
_symmetry_space_group_name_H-M	'P1'
_symmetry_Int_Tables_number	1
_symmetry_cell_setting	triclinic
loop_
_symmetry_equiv_pos_as_xyz
  x,y,z
_cell_length_a	14.971491
_cell_length_b	16.992695
_cell_length_c	13.448316
_cell_angle_alpha	89.993283
_cell_angle_beta	89.991393
_cell_angle_gamma	87.142229
loop_
_atom_site_label
_atom_site_type_symbol
_atom_site_fract_x
_atom_site_fract_y
_atom_site_fract_z
O1	O	1.194126	0.102209	-0.082736
O2	O	1.694126	0.602209	0.417264
O3	O	0.934586	0.114442	-0.082729
O4	O	1.434586	0.614442	0.417271
O5	O	1.063315	-0.005818	-0.082724
O6	O	1.563315	0.494182	0.417276
O7	O	1.065396	0.222469	-0.082740
O8	O	1.565396	0.722469	0.417260
O9	O	1.063298	-0.005825	0.082659
O10	O	1.563298	0.494175	0.582659
O11	O	0.934568	0.114435	0.082655
O12	O	1.434568	0.614435	0.582655
O13	O	1.194108	0.102202	0.082648
O14	O	1.694108	0.602202	0.582648
Cu15	Cu	1.064336	0.108318	0.097752
Cu16	Cu	1.564336	0.608318	0.597752
Cu17	Cu	1.064357	0.108326	-0.097833
Cu18	Cu	1.564357	0.608326	0.402167
O19	O	1.065379	0.222462	0.082644
O20	O	1.565379	0.722462	0.582644
C21	C	0.901214	0.113891	-0.000036
C22	C	1.401214	0.613891	0.499964
C23	C	0.801802	0.112249	-0.000033
C24	C	1.301802	0.612249	0.499967
C25	C	0.373608	0.105170	-0.090206
C26	C	0.873608	0.605170	0.409794
C27	C	0.467017	0.106710	-0.090202
C28	C	0.967017	0.606710	0.409798
C29	C	0.513707	0.107481	-0.000048
C30	C	1.013707	0.607481	0.499952
C31	C	0.466985	0.106704	0.090108
C32	C	0.966985	0.606704	0.590108
C33	C	0.373579	0.105158	0.090103
C34	C	0.873579	0.605158	0.590103
C35	C	0.661673	0.109927	0.090112
C36	C	1.161673	0.609927	0.590112
C37	C	0.755086	0.111475	0.090117
C38	C	1.255086	0.611475	0.590117
C39	C	0.755111	0.111479	-0.090194
C40	C	1.255111	0.611479	0.409806
C41	C	0.661705	0.109933	-0.090199
C42	C	1.161705	0.609933	0.409801
C43	C	0.614989	0.109158	-0.000042
C44	C	1.114989	0.609158	0.499958
C45	C	1.060630	-0.035037	-0.000032
C46	C	1.560630	0.464963	0.499968
C47	C	1.052643	-0.122088	-0.000033
C48	C	1.552643	0.377912	0.499967
C49	C	1.129707	-0.172255	-0.000034
C50	C	1.629707	0.327745	0.499966
C51	C	1.122197	-0.254049	-0.000043
C52	C	1.622197	0.245951	0.499957
C53	C	1.037622	-0.285674	-0.000044
C54	C	1.537622	0.214326	0.499956
C55	C	0.960552	-0.235501	-0.000046
C56	C	1.460552	0.264499	0.499954
C57	C	0.968063	-0.153709	-0.000044
C58	C	1.468063	0.346291	0.499956
C59	C	1.006492	-0.529302	-0.000057
C60	C	1.506492	-0.029302	0.499943
C61	C	0.998987	-0.611100	-0.000056
C62	C	1.498987	-0.111100	0.499944
C63	C	1.160633	-0.629643	-0.000055
C64	C	1.660633	-0.129643	0.499945
C65	C	1.168136	-0.547848	-0.000047
C66	C	1.668136	-0.047848	0.499953
C67	C	1.091066	-0.497682	-0.000054
C68	C	1.591066	0.002318	0.499946
N69	N	1.029943	-0.369281	-0.000050
N70	N	1.529943	0.130719	0.499950
N71	N	1.098746	-0.414078	-0.000055
N72	N	1.598746	0.085922	0.499945
C73	C	1.227480	0.102753	-0.000047
C74	C	1.727480	0.602753	0.499953
C75	C	1.326892	0.104395	-0.000057
C76	C	1.826892	0.604395	0.499943
C77	C	1.068064	0.251681	-0.000050
C78	C	1.568064	0.751681	0.499950
C79	C	1.076051	0.338733	-0.000057
C80	C	1.576051	0.838733	0.499943
N81	N	1.064328	0.108311	0.235317
N82	N	1.564328	0.608311	0.735317
N83	N	1.064372	0.108327	-0.235397
N84	N	1.564372	0.608327	0.264603
C85	C	1.121350	0.055082	0.287359
C86	C	1.621350	0.555082	0.787359
C87	C	1.121356	0.055081	0.391462
C88	C	1.621356	0.555081	0.891462
C89	C	1.064343	0.108314	0.443521
C90	C	1.564343	0.608314	0.943521
C91	C	1.007315	0.161546	0.391472
C92	C	1.507315	0.661546	0.891472
C93	C	1.007306	0.161542	0.287370
C94	C	1.507306	0.661542	0.787370
C95	C	1.007340	0.161551	0.608452
C96	C	1.507340	0.661551	1.108452
C97	C	1.007351	0.161556	0.712560
C98	C	1.507351	0.661556	1.212560
C99	C	1.121390	0.055090	0.712544
C100	C	1.621390	0.555090	1.212544
C101	C	1.121381	0.055086	0.608442
C102	C	1.621381	0.555086	1.108442
C103	C	1.064354	0.108319	0.556400
C104	C	1.564354	0.608319	1.056400
H105	H	0.335543	0.104536	0.163512
H106	H	0.835543	0.604536	0.663512
O107	O	0.323251	0.104321	-0.187444
O108	O	0.823251	0.604321	0.312556
H109	H	0.371433	0.105105	-0.250129
H110	H	0.871433	0.605105	0.249871
H111	H	0.623691	0.109311	-0.163610
H112	H	1.123691	0.609311	0.336390
O113	O	0.611464	0.109458	0.187483
O114	O	1.111464	0.609458	0.687483
H115	H	0.564935	0.162292	0.191588
H116	H	1.064935	0.662292	0.691588
O117	O	0.884943	-0.099597	-0.000041
O118	O	1.384943	0.400403	0.499959
H119	H	0.884495	-0.061891	0.067363
H120	H	1.384495	0.438109	0.567363
H121	H	0.793152	0.112112	-0.163603
H122	H	1.293152	0.612112	0.336397
O123	O	1.220931	-0.138153	-0.000032
O124	O	1.720931	0.361847	0.499968
H125	H	1.213211	-0.072849	-0.000021
H126	H	1.713211	0.427151	0.499979
H127	H	1.184951	-0.294892	-0.000042
H128	H	1.684951	0.205108	0.499958
H129	H	1.237006	-0.522106	-0.000046
H130	H	1.737006	-0.022106	0.499954
O131	O	1.243757	-0.683748	-0.000053
O132	O	1.743757	-0.183748	0.499947
H133	H	1.224330	-0.745937	-0.000062
H134	H	1.724330	-0.245937	0.499938
H135	H	0.793098	0.112107	0.163528
H136	H	1.293098	0.612107	0.663528
O137	O	0.945826	0.218964	0.447622
O138	O	1.445826	0.718964	0.947622
H139	H	0.961589	0.280108	0.427613
H140	H	1.461589	0.780108	0.927613
O141	O	1.182909	-0.002323	0.768663
O142	O	1.682909	0.497677	1.268663
H143	H	1.167161	-0.063473	0.748690
H144	H	1.667161	0.436527	1.248690
O145	O	1.182870	-0.002330	0.447581
O146	O	1.682870	0.497670	0.947581
H147	H	1.142507	-0.040510	0.495020
H148	H	1.642507	0.459490	0.995020
O149	O	0.907763	-0.645215	-0.000068
O150	O	1.407763	-0.145215	0.499932
H151	H	0.855432	-0.596591	-0.000084
H152	H	1.355432	-0.096591	0.499916
O153	O	0.517339	0.107544	0.187349
O154	O	1.017339	0.607544	0.687349
H155	H	0.564060	0.054850	0.191673
H156	H	1.064060	0.554850	0.691673
O157	O	0.923371	-0.475198	-0.000039
O158	O	1.423371	0.024802	0.499961
H159	H	0.863302	-0.510933	-0.000022
H160	H	1.363302	-0.010933	0.499978
H161	H	0.891689	-0.261257	-0.000053
H162	H	1.391689	0.238743	0.499947
H163	H	0.505049	0.107335	-0.163611
H164	H	1.005049	0.607335	0.336389
H165	H	1.167780	0.011737	0.244979
H166	H	1.667780	0.511737	0.744979
O167	O	0.945839	0.218969	0.552314
O168	O	1.445839	0.718969	1.052314
H169	H	0.906204	0.255994	0.606001
H170	H	1.406204	0.755994	1.106001
O171	O	1.182867	-0.002330	0.552286
O172	O	1.682867	0.497670	1.052286
H173	H	1.222516	-0.039352	0.605961
H174	H	1.722516	0.460648	1.105961
O175	O	0.945787	0.218944	0.231239
O176	O	1.445787	0.718944	0.731239
H177	H	0.955345	0.209989	0.150106
H178	H	1.455345	0.709989	0.650106
O179	O	0.945841	0.218954	0.768716
O180	O	1.445841	0.718954	1.268716
H181	H	0.906170	0.255957	0.715041
H182	H	1.406170	0.755957	1.215041
