data_functionalizedCrystal
_audit_creation_method	'MofGen! by Chris Wilmer'
_symmetry_space_group_name_H-M	'P1'
_symmetry_Int_Tables_number	1
_symmetry_cell_setting	triclinic
loop_
_symmetry_equiv_pos_as_xyz
  x,y,z
_cell_length_a	14.044220
_cell_length_b	14.044220
_cell_length_c	12.503572
_cell_angle_alpha	93.843168
_cell_angle_beta	86.164750
_cell_angle_gamma	93.188878
loop_
_atom_site_label
_atom_site_type_symbol
_atom_site_fract_x
_atom_site_fract_y
_atom_site_fract_z
O1	O	1.282200	0.225116	-0.089210
O2	O	1.782200	0.725116	0.410790
O3	O	1.005530	0.216809	-0.089237
O4	O	1.505530	0.716809	0.410763
O5	O	1.139712	0.082627	-0.089213
O6	O	1.639712	0.582627	0.410787
O7	O	1.148019	0.359298	-0.089234
O8	O	1.648019	0.859298	0.410766
O9	O	1.129622	0.092737	0.089427
O10	O	1.629622	0.592737	0.589427
O11	O	0.995440	0.226918	0.089403
O12	O	1.495440	0.726918	0.589403
O13	O	1.272110	0.235226	0.089430
O14	O	1.772110	0.735226	0.589430
Cu15	Cu	1.132854	0.231995	0.105728
Cu16	Cu	1.632854	0.731995	0.605728
Cu17	Cu	1.144786	0.220040	-0.105535
Cu18	Cu	1.644786	0.720040	0.394465
O19	O	1.137929	0.369407	0.089406
O20	O	1.637929	0.869407	0.589406
C21	C	0.964864	0.218228	0.000080
C22	C	1.464864	0.718228	0.500080
C23	C	0.858721	0.207383	0.000070
C24	C	1.358721	0.707383	0.500070
C25	C	0.664382	0.187558	0.000092
C26	C	1.164382	0.687558	0.500092
C27	C	0.613253	0.264472	0.000091
C28	C	1.113253	0.764472	0.500091
C29	C	0.505116	0.253441	0.000104
C30	C	1.005116	0.753441	0.500104
C31	C	0.772529	0.198587	0.000080
C32	C	1.272529	0.698587	0.500080
C33	C	1.131031	0.052060	0.000107
C34	C	1.631031	0.552060	0.500107
C35	C	1.120187	-0.054082	0.000107
C36	C	1.620187	0.445918	0.500107
C37	C	1.100361	-0.248421	0.000090
C38	C	1.600361	0.251579	0.500090
C39	C	1.177275	-0.299551	0.000094
C40	C	1.677275	0.200449	0.500094
C41	C	1.166244	-0.407687	0.000084
C42	C	1.666244	0.092313	0.500084
C43	C	1.111391	-0.140274	0.000099
C44	C	1.611391	0.359726	0.500099
C45	C	1.312777	0.233807	0.000111
C46	C	1.812777	0.733807	0.500111
C47	C	1.418920	0.244651	0.000114
C48	C	1.918920	0.744651	0.500114
C49	C	1.146609	0.399974	0.000084
C50	C	1.646609	0.899974	0.500084
C51	C	1.157454	0.506117	0.000077
C52	C	1.657454	1.006117	0.500077
N53	N	1.124469	0.240404	0.254319
N54	N	1.624469	0.740404	0.754319
N55	N	1.153179	0.211624	-0.254126
N56	N	1.653179	0.711624	0.245874
C57	C	1.112134	0.252782	0.473432
C58	C	1.612134	0.752782	0.973432
C59	C	1.165511	0.199249	0.526768
C60	C	1.665511	0.699249	1.026768
C61	C	1.158648	0.206136	0.648690
C62	C	1.658648	0.706136	1.148690
C63	C	1.118996	0.245896	0.351499
C64	C	1.618996	0.745896	0.851499
H65	H	1.251413	-0.262115	0.000029
H66	H	1.751413	0.237885	0.500029
H67	H	0.650692	0.338605	0.000081
H68	H	1.150692	0.838605	0.500081
H69	H	1.061285	0.303783	0.519330
H70	H	1.561285	0.803783	1.019330
N71	N	0.617425	0.094561	0.000074
N72	N	1.117425	0.594561	0.500074
N73	N	0.635408	0.033828	-0.075234
N74	N	1.135408	0.533828	0.424766
H75	H	0.602235	-0.031851	-0.075253
H76	H	1.102235	0.468149	0.424747
N77	N	1.007374	-0.295395	0.000073
N78	N	1.507374	0.204605	0.500073
N79	N	0.998434	-0.384447	0.000066
N80	N	1.498434	0.115553	0.500066
H81	H	0.932762	-0.417634	0.000057
H82	H	1.432762	0.082366	0.500057
H83	H	1.216364	0.148245	0.480864
H84	H	1.716364	0.648245	0.980864
