data_functionalizedCrystal
_audit_creation_method	'MofGen! by Chris Wilmer'
_symmetry_space_group_name_H-M	'P1'
_symmetry_Int_Tables_number	1
_symmetry_cell_setting	triclinic
loop_
_symmetry_equiv_pos_as_xyz
  x,y,z
_cell_length_a	9.065218
_cell_length_b	9.065215
_cell_length_c	8.140239
_cell_angle_alpha	89.999061
_cell_angle_beta	90.010606
_cell_angle_gamma	94.984675
loop_
_atom_site_label
_atom_site_type_symbol
_atom_site_fract_x
_atom_site_fract_y
_atom_site_fract_z
O1	O	-0.216334	1.960398	-0.136626
O2	O	0.117000	2.293731	0.196707
O3	O	0.450333	2.627065	0.530041
O4	O	-0.234085	1.531113	-0.136636
O5	O	0.099249	1.864446	0.196697
O6	O	0.432582	2.197779	0.530031
O7	O	-0.010567	1.754628	-0.136589
O8	O	0.322767	2.087962	0.196744
O9	O	0.656100	2.421295	0.530078
O10	O	-0.439852	1.736882	-0.136673
O11	O	-0.106518	2.070215	0.196660
O12	O	0.226815	2.403549	0.529993
O13	O	-0.010565	1.754621	0.136638
O14	O	0.322768	2.087954	0.469972
O15	O	0.656102	2.421288	0.803305
O16	O	-0.234083	1.531105	0.136591
O17	O	0.099250	1.864439	0.469924
O18	O	0.432584	2.197772	0.803258
O19	O	-0.216332	1.960391	0.136601
O20	O	0.117001	2.293724	0.469934
O21	O	0.450335	2.627057	0.803268
Zn22	Zn	-0.225207	1.745747	0.179977
Zn23	Zn	0.108126	2.079080	0.513310
Zn24	Zn	0.441459	2.412413	0.846643
Zn25	Zn	-0.225209	1.745756	-0.180012
Zn26	Zn	0.108124	2.079090	0.153322
Zn27	Zn	0.441457	2.412423	0.486655
O28	O	-0.439850	1.736875	0.136554
O29	O	-0.106517	2.070208	0.469887
O30	O	0.226817	2.403541	0.803221
C31	C	-0.232379	1.476122	-0.000023
C32	C	0.100955	1.809456	0.333310
C33	C	0.434288	2.142789	0.666644
C34	C	-0.227281	1.312279	-0.000025
C35	C	0.106053	1.645612	0.333308
C36	C	0.439386	1.978946	0.666642
C37	C	0.044421	1.752919	0.000032
C38	C	0.377754	2.086252	0.333365
C39	C	0.711087	2.419586	0.666699
C40	C	0.208264	1.747819	0.000054
C41	C	0.541597	2.081153	0.333387
C42	C	0.874930	2.414486	0.666720
C43	C	0.505163	1.738584	-0.000025
C44	C	0.838496	2.071917	0.333308
C45	C	1.171829	2.405251	0.666641
C46	C	0.341320	1.743683	0.000077
C47	C	0.674653	2.077017	0.333411
C48	C	1.007986	2.410350	0.666744
C49	C	-0.218038	2.015381	-0.000015
C50	C	0.115296	2.348714	0.333318
C51	C	0.448629	2.682048	0.666651
C52	C	-0.223136	2.179224	-0.000024
C53	C	0.110198	2.512557	0.333309
C54	C	0.443531	2.845891	0.666642
N55	N	-0.225205	1.745751	0.425659
N56	N	0.108128	2.079084	0.758993
N57	N	0.441462	2.412418	1.092326
N58	N	-0.225200	1.745764	-0.425694
N59	N	0.108133	2.079097	-0.092361
N60	N	0.441467	2.412430	0.240972
