data_functionalizedCrystal
_audit_creation_method	'MofGen! by Chris Wilmer'
_symmetry_space_group_name_H-M	'P1'
_symmetry_Int_Tables_number	1
_symmetry_cell_setting	triclinic
loop_
_symmetry_equiv_pos_as_xyz
  x,y,z
_cell_length_a	16.109301
_cell_length_b	15.995350
_cell_length_c	15.186229
_cell_angle_alpha	89.998487
_cell_angle_beta	89.999362
_cell_angle_gamma	83.476928
loop_
_atom_site_label
_atom_site_type_symbol
_atom_site_fract_x
_atom_site_fract_y
_atom_site_fract_z
O1	O	1.103160	0.107624	-0.073168
O2	O	1.603160	0.607624	0.426832
O3	O	0.861101	0.121018	-0.073182
O4	O	1.361101	0.621018	0.426818
O5	O	0.988747	-0.007569	-0.073174
O6	O	1.488747	0.492431	0.426826
O7	O	0.975514	0.236210	-0.073176
O8	O	1.475514	0.736210	0.426824
O9	O	0.988739	-0.007570	0.073283
O10	O	1.488739	0.492430	0.573283
O11	O	0.861093	0.121016	0.073275
O12	O	1.361093	0.621016	0.573275
O13	O	1.103151	0.107622	0.073289
O14	O	1.603151	0.607622	0.573289
Zn15	Zn	0.982121	0.114319	0.096535
Zn16	Zn	1.482121	0.614319	0.596535
Zn17	Zn	0.982132	0.114321	-0.096428
Zn18	Zn	1.482132	0.614321	0.403572
O19	O	0.975505	0.236208	0.073281
O20	O	1.475505	0.736208	0.573281
C21	C	0.830122	0.120474	0.000045
C22	C	1.330122	0.620474	0.500045
C23	C	0.737826	0.118848	0.000040
C24	C	1.237826	0.618848	0.500040
C25	C	0.515573	0.191366	0.000049
C26	C	1.015573	0.691366	0.500049
C27	C	0.428853	0.189831	0.000055
C28	C	0.928853	0.689831	0.500055
C29	C	0.448686	0.037268	0.000053
C30	C	0.948686	0.537268	0.500053
C31	C	0.535405	0.038804	0.000053
C32	C	1.035405	0.538804	0.500053
C33	C	0.568846	0.115855	0.000047
C34	C	1.068846	0.615855	0.500047
C35	C	0.395406	0.112785	0.000052
C36	C	0.895406	0.612785	0.500052
C37	C	0.301380	0.111120	0.000058
C38	C	0.801380	0.611120	0.500058
C39	C	0.662879	0.117520	0.000043
C40	C	1.162879	0.617520	0.500043
C41	C	0.988196	-0.038764	0.000053
C42	C	1.488196	0.461236	0.500053
C43	C	0.986556	-0.131714	0.000048
C44	C	1.486556	0.368286	0.500048
C45	C	0.980665	-0.469460	0.000050
C46	C	1.480665	0.030540	0.500050
C47	C	0.889758	-0.422001	-0.000283
C48	C	1.389758	0.077999	0.499717
C49	C	0.891399	-0.325311	0.000047
C50	C	1.391399	0.174689	0.500047
C51	C	0.983587	-0.301900	0.000049
C52	C	1.483587	0.198100	0.500049
C53	C	1.028421	-0.342991	0.083684
C54	C	1.528421	0.157009	0.583684
C55	C	1.026137	-0.439626	0.083754
C56	C	1.526137	0.060374	0.583754
C57	C	1.028025	-0.439983	-0.082795
C58	C	1.528025	0.060017	0.417205
C59	C	1.028003	-0.343037	-0.083901
C60	C	1.528003	0.156963	0.416099
C61	C	0.985243	-0.207203	0.000051
C62	C	1.485243	0.292797	0.500051
C63	C	0.979012	-0.564157	0.000054
C64	C	1.479012	-0.064157	0.500054
C65	C	1.134130	0.108166	0.000060
C66	C	1.634130	0.608166	0.500060
C67	C	1.226426	0.109792	0.000059
C68	C	1.726426	0.609792	0.500059
C69	C	0.976056	0.267404	0.000052
C70	C	1.476056	0.767404	0.500052
C71	C	0.977697	0.360354	0.000051
C72	C	1.477697	0.860354	0.500051
N73	N	0.982119	0.114317	0.228228
N74	N	1.482119	0.614317	0.728228
N75	N	0.982140	0.114317	-0.228121
N76	N	1.482140	0.614317	0.271879
C77	C	1.038660	0.057398	0.453954
C78	C	1.538660	0.557398	0.953954
C79	C	1.038662	0.057396	0.546144
C80	C	1.538662	0.557396	1.046144
C81	C	0.925593	0.171238	0.546146
C82	C	1.425593	0.671238	1.046146
C83	C	0.925587	0.171236	0.453958
C84	C	1.425587	0.671236	0.953958
C85	C	0.982125	0.114316	0.407865
C86	C	1.482125	0.614316	0.907865
C87	C	0.982134	0.114317	0.592242
C88	C	1.482134	0.614317	1.092242
C89	C	0.982136	0.114315	0.692198
C90	C	1.482136	0.614315	1.192198
C91	C	0.982122	0.114317	0.307902
C92	C	1.482122	0.614317	0.807902
H93	H	0.578782	-0.022690	0.000054
H94	H	1.078782	0.477310	0.500054
C95	C	0.845232	-0.199553	-0.080753
C96	C	1.345232	0.300447	0.419247
C97	C	0.843837	-0.286922	-0.080894
C98	C	1.343837	0.213078	0.419106
H99	H	0.815875	-0.175859	-0.130731
H100	H	1.315875	0.324141	0.369269
H101	H	0.819304	-0.176458	-0.028642
H102	H	1.319304	0.323542	0.471358
H103	H	0.901467	-0.187090	-0.082808
H104	H	1.401467	0.312910	0.417192
H105	H	0.787602	-0.299385	-0.078833
H106	H	1.287602	0.200615	0.421167
H107	H	0.869763	-0.310025	-0.133019
H108	H	1.369763	0.189975	0.366981
C109	C	0.876764	0.316179	0.425560
C110	C	1.376764	0.816179	0.925560
C111	C	0.863442	0.233808	0.403289
C112	C	1.363442	0.733808	0.903289
H113	H	0.838401	0.354804	0.394274
H114	H	1.338401	0.854804	0.894274
H115	H	0.868672	0.324324	0.487052
H116	H	1.368672	0.824324	0.987052
H117	H	0.932250	0.325276	0.410442
H118	H	1.432250	0.825276	0.910442
H119	H	0.807957	0.224709	0.418413
H120	H	1.307957	0.724709	0.918413
H121	H	0.871526	0.225660	0.341783
H122	H	1.371526	0.725660	0.841783
H123	H	0.853581	-0.441586	0.059355
H124	H	1.353581	0.058414	0.559355
C125	C	1.088873	0.006844	0.687458
C126	C	1.588873	0.506844	1.187458
C127	C	1.100807	-0.005170	0.596807
C128	C	1.600807	0.494830	1.096807
H129	H	1.127236	-0.031789	0.718733
H130	H	1.627236	0.468211	1.218733
H131	H	1.097902	0.062722	0.702560
H132	H	1.597902	0.562722	1.202560
H133	H	1.033386	-0.002268	0.702560
H134	H	1.533386	0.497732	1.202560
H135	H	1.156292	0.003948	0.581704
H136	H	1.656292	0.503948	1.081704
H137	H	1.091784	-0.061061	0.581699
H138	H	1.591784	0.438939	1.081699
H139	H	0.542798	0.254106	0.000051
H140	H	1.042798	0.754106	0.500051
C141	C	0.957834	-0.392109	0.218162
C142	C	1.457834	0.107891	0.718162
C143	C	0.981983	-0.464327	0.168142
C144	C	1.481983	0.035673	0.668142
H145	H	0.930569	-0.407356	0.270256
H146	H	1.430569	0.092644	0.770256
H147	H	1.005850	-0.365865	0.233440
H148	H	1.505850	0.134135	0.733440
H149	H	0.920691	-0.354134	0.184713
H150	H	1.420691	0.145866	0.684713
H151	H	1.019131	-0.502299	0.201588
H152	H	1.519131	-0.002299	0.701588
H153	H	0.933960	-0.490584	0.152865
H154	H	1.433960	0.009416	0.652865
H155	H	0.385481	0.251320	0.000058
H156	H	0.885481	0.751320	0.500058
C157	C	0.813230	-0.352242	0.129591
C158	C	1.313230	0.147758	0.629591
C159	C	0.843509	-0.287677	0.081124
C160	C	1.343509	0.212323	0.581124
H161	H	0.783672	-0.329007	0.179651
H162	H	1.283672	0.170993	0.679651
H163	H	0.776752	-0.380278	0.093774
H164	H	1.276752	0.119722	0.593774
H165	H	0.858736	-0.391222	0.148231
H166	H	1.358736	0.108778	0.648231
H167	H	0.798003	-0.248700	0.062478
H168	H	1.298003	0.251300	0.562478
H169	H	0.879989	-0.259627	0.116947
H170	H	1.379989	0.240373	0.616947
H171	H	1.096149	-0.328884	0.086795
H172	H	1.596149	0.171116	0.586795
C173	C	0.324557	-0.032828	0.000042
C174	C	0.824557	0.467172	0.500042
C175	C	0.411924	-0.047424	0.000048
C176	C	0.911924	0.452576	0.500048
H177	H	0.301865	-0.085116	0.000031
H178	H	0.801865	0.414884	0.500031
H179	H	0.306274	-0.001748	0.051112
H180	H	0.806274	0.498252	0.551112
H181	H	0.306282	-0.001733	-0.051034
H182	H	0.806282	0.498267	0.448966
H183	H	0.430200	-0.078515	0.051127
H184	H	0.930200	0.421485	0.551127
H185	H	0.430214	-0.078518	-0.051028
H186	H	0.930214	0.421482	0.448972
C187	C	1.172026	-0.422206	0.091900
C188	C	1.672026	0.077794	0.591900
C189	C	1.116232	-0.483191	0.088894
C190	C	1.616232	0.016809	0.588894
H191	H	1.227645	-0.449101	0.095083
H192	H	1.727645	0.050899	0.595083
H193	H	1.165731	-0.388477	0.040334
H194	H	1.665731	0.111523	0.540334
H195	H	1.160548	-0.387692	0.142334
H196	H	1.660548	0.112308	0.642334
H197	H	1.127706	-0.517702	0.038457
H198	H	1.627706	-0.017702	0.538457
H199	H	1.122531	-0.516935	0.140466
H200	H	1.622531	-0.016935	0.640466
H201	H	0.853427	-0.440522	-0.060260
H202	H	1.353427	0.059478	0.439740
C203	C	0.920073	-0.511639	-0.147771
C204	C	1.420073	-0.011639	0.352229
C205	C	0.987905	-0.467689	-0.168373
C206	C	1.487905	0.032311	0.331627
H207	H	0.895296	-0.528738	-0.200600
H208	H	1.395296	-0.028738	0.299400
H209	H	0.938949	-0.559832	-0.113635
H210	H	1.438949	-0.059832	0.386365
H211	H	0.879963	-0.476146	-0.115116
H212	H	1.379963	0.023854	0.384884
H213	H	1.028018	-0.503185	-0.201023
H214	H	1.528018	-0.003185	0.298977
H215	H	0.969030	-0.419489	-0.202523
H216	H	1.469030	0.080511	0.297477
C217	C	0.987118	-0.219094	-0.169687
C218	C	1.487118	0.280906	0.330313
C219	C	0.983817	-0.306168	-0.167430
C220	C	1.483817	0.193832	0.332570
H221	H	0.959842	-0.196331	-0.221256
H222	H	1.459842	0.303669	0.278744
H223	H	0.959967	-0.193979	-0.119134
H224	H	1.459967	0.306021	0.380866
H225	H	1.043785	-0.207922	-0.170217
H226	H	1.543785	0.292078	0.329783
H227	H	0.927150	-0.317341	-0.166894
H228	H	1.427150	0.182659	0.333106
H229	H	1.010966	-0.331292	-0.217997
H230	H	1.510966	0.168708	0.282003
C231	C	1.136552	-0.271984	-0.019265
C232	C	1.636552	0.228016	0.480735
C233	C	1.118763	-0.322334	-0.090718
C234	C	1.618763	0.177666	0.409282
H235	H	1.192587	-0.259209	-0.023468
H236	H	1.692587	0.240791	0.476532
H237	H	1.099640	-0.221268	-0.019977
H238	H	1.599640	0.278732	0.480023
H239	H	1.129504	-0.301336	0.034109
H240	H	1.629504	0.198664	0.534109
H241	H	1.125804	-0.292979	-0.144093
H242	H	1.625804	0.207021	0.355907
H243	H	1.155685	-0.373057	-0.090015
H244	H	1.655685	0.126943	0.409985
H245	H	0.997275	-0.314602	0.145921
H246	H	1.497275	0.185398	0.645921
H247	H	0.879562	0.217582	0.583685
H248	H	1.379562	0.717582	1.083685
H249	H	1.095050	-0.471762	-0.083356
H250	H	1.595050	0.028238	0.416644
H251	H	1.084695	0.011050	0.416427
H252	H	1.584695	0.511050	0.916427
