data_functionalizedCrystal
_audit_creation_method	'MofGen! by Chris Wilmer'
_symmetry_space_group_name_H-M	'P1'
_symmetry_Int_Tables_number	1
_symmetry_cell_setting	triclinic
loop_
_symmetry_equiv_pos_as_xyz
  x,y,z
_cell_length_a	12.759401
_cell_length_b	25.639239
_cell_length_c	12.759393
_cell_angle_alpha	90.037052
_cell_angle_beta	90.018567
_cell_angle_gamma	90.037730
loop_
_atom_site_label
_atom_site_type_symbol
_atom_site_fract_x
_atom_site_fract_y
_atom_site_fract_z
Zn1	Zn	1.606080	-0.208133	0.593943
Zn2	Zn	1.605901	-0.295580	0.418246
Zn3	Zn	1.430382	-0.208159	0.418282
Zn4	Zn	1.430297	-0.295538	0.593888
O5	O	1.518165	-0.251853	0.506090
O6	O	1.753078	-0.219740	0.570645
O7	O	1.582579	-0.284012	0.271230
O8	O	1.453799	-0.134990	0.441622
O9	O	1.752946	-0.283987	0.441561
O10	O	1.582884	-0.134971	0.570680
O11	O	1.453626	-0.219784	0.271256
O12	O	1.283350	-0.219743	0.441569
O13	O	1.453655	-0.283915	0.740916
O14	O	1.283288	-0.283940	0.570585
O15	O	1.582802	-0.219699	0.740957
O16	O	1.582496	-0.368740	0.441507
O17	O	1.453481	-0.368709	0.570550
C18	C	1.245198	-0.251840	0.506075
C19	C	1.128421	-0.251848	0.506094
C20	C	1.073621	-0.218458	0.573412
C21	C	0.963897	-0.218468	0.573419
C22	C	0.963783	-0.285262	0.438786
C23	C	1.073505	-0.285249	0.438775
C24	C	1.128537	-0.185056	0.640731
C25	C	1.073736	-0.151663	0.708055
C26	C	0.964012	-0.151673	0.708062
C27	C	0.909089	-0.185076	0.640744
C28	C	1.517989	-0.387695	0.506042
C29	C	1.518009	-0.445809	0.506056
C30	C	1.585519	-0.806176	0.439012
C31	C	1.585559	-0.860780	0.439026
O32	O	1.642775	-0.889020	0.381969
N33	N	1.518350	-0.888092	0.506160
C34	C	1.451103	-0.860796	0.573291
O35	O	1.393940	-0.889041	0.630396
C36	C	1.451068	-0.806193	0.573282
C37	C	1.518275	-0.778884	0.506136
C38	C	1.652721	-0.778867	0.371873
C39	C	1.652678	-0.724266	0.371857
C40	C	1.585434	-0.696975	0.438981
C41	C	1.518232	-0.724283	0.506121
C42	C	1.383827	-0.778898	0.640418
C43	C	1.383799	-0.724291	0.640403
C44	C	1.451005	-0.696982	0.573257
C45	C	1.450946	-0.642391	0.573230
N46	N	1.518155	-0.615080	0.506096
C47	C	1.585399	-0.642371	0.438972
C48	C	1.451182	-0.975467	0.573307
C49	C	1.451210	-1.030069	0.573312
C50	C	1.585669	-1.030049	0.439048
C51	C	1.585634	-0.975446	0.439039
C52	C	1.518391	-0.948155	0.506174
C53	C	1.585305	-0.527706	0.438945
C54	C	1.585253	-0.473101	0.438932
C55	C	1.450799	-0.473126	0.573200
C56	C	1.450846	-0.527726	0.573209
C57	C	1.518108	-0.555015	0.506078
O58	O	1.393762	-0.614117	0.630260
O59	O	1.642562	-0.614120	0.381887
C60	C	1.792198	-0.251865	0.506105
C61	C	1.908975	-0.251871	0.506112
C62	C	1.518239	-0.251800	0.780123
C63	C	1.518270	-0.251777	0.896900
C64	C	1.518371	-0.115480	0.506161
C65	C	1.518459	-0.057365	0.506192
C66	C	1.518152	-0.251867	0.233123
C67	C	1.518325	-0.251743	0.116346
C68	C	1.585526	-0.218337	0.951785
C69	C	1.585551	-0.218318	1.061509
C70	C	1.451061	-0.285185	1.061454
C71	C	1.451032	-0.285200	0.951732
C72	C	1.652765	-0.184914	0.896954
C73	C	1.720027	-0.151471	0.951839
C74	C	1.720052	-0.151452	1.061563
C75	C	1.652815	-0.184876	1.116402
H76	H	1.640078	-0.549919	0.384282
C77	C	0.929890	-0.310631	0.260793
C78	C	0.903413	-0.321980	0.364802
H79	H	0.892615	-0.333299	0.215121
H80	H	1.003070	-0.315404	0.251156
H81	H	0.911925	-0.275494	0.245559
H82	H	0.921385	-0.357116	0.380038
H83	H	0.830216	-0.317211	0.374444
C84	C	1.793973	-0.662799	0.357371
C85	C	1.726561	-0.694250	0.298060
H86	H	1.839584	-0.644269	0.311809
H87	H	1.834139	-0.684064	0.403181
H88	H	1.753909	-0.638728	0.397336
H89	H	1.766624	-0.718324	0.258100
H90	H	1.686391	-0.672983	0.252232
C91	C	0.751881	-0.171700	0.540857
C92	C	0.788477	-0.185084	0.640749
H93	H	0.677423	-0.171703	0.540868
H94	H	0.776654	-0.196369	0.491145
H95	H	0.776737	-0.137947	0.522823
H96	H	0.763628	-0.218839	0.658781
H97	H	0.763694	-0.160414	0.690477
H98	H	1.396416	-0.953249	0.627974
C99	C	1.241984	-0.121991	0.767832
C100	C	1.134104	-0.114948	0.782047
H101	H	1.279248	-0.099326	0.813517
H102	H	1.259941	-0.114294	0.697277
H103	H	1.259927	-0.157130	0.783077
H104	H	1.116160	-0.079810	0.766794
H105	H	1.116140	-0.122642	0.852617
H106	H	1.217880	-0.185044	0.640733
H107	H	1.118125	-0.312439	0.383959
C108	C	1.436219	-0.589087	0.714531
C109	C	1.376968	-0.557751	0.647005
H110	H	1.390612	-0.607622	0.760089
H111	H	1.481942	-0.567743	0.754748
H112	H	1.476274	-0.613154	0.674547
H113	H	1.336919	-0.533681	0.686989
H114	H	1.331227	-0.579096	0.606783
H115	H	1.652828	-0.184852	1.205747
C116	C	1.436117	-0.411670	0.714483
C117	C	1.376895	-0.443118	0.646987
H118	H	1.390495	-0.393146	0.760043
H119	H	1.476129	-0.387599	0.674485
H120	H	1.481880	-0.432941	0.754708
H121	H	1.331137	-0.421846	0.606755
H122	H	1.336865	-0.467192	0.686989
C123	C	1.242418	-0.662954	0.654885
C124	C	1.309880	-0.694294	0.714201
H125	H	1.196789	-0.644435	0.700446
H126	H	1.202273	-0.684294	0.609091
H127	H	1.282443	-0.638874	0.614904
H128	H	1.269855	-0.718377	0.754176
H129	H	1.350029	-0.672953	0.760013
C130	C	1.391405	-0.314855	1.229628
C131	C	1.377170	-0.321928	1.121731
H132	H	1.345793	-0.337543	1.266838
H133	H	1.376081	-0.279727	1.247630
H134	H	1.461994	-0.322506	1.247593
H135	H	1.306582	-0.314273	1.103765
H136	H	1.392486	-0.357064	1.103722
H137	H	1.396474	-1.052299	0.627979
C138	C	1.718581	-1.024558	0.306328
C139	C	1.659593	-1.060055	0.365267
H140	H	1.764210	-1.043085	0.260778
H141	H	1.758728	-1.003224	0.352131
H142	H	1.672808	-1.003298	0.266091
H143	H	1.705366	-1.081312	0.405510
H144	H	1.619443	-1.081398	0.319458
H145	H	1.639981	-0.450868	0.384251
H146	H	1.640360	-0.953214	0.384364
C147	C	1.785604	-0.773348	0.239150
C148	C	1.726638	-0.808860	0.298074
H149	H	1.831231	-0.791863	0.193578
H150	H	1.825752	-0.752019	0.284960
H151	H	1.739816	-0.752085	0.198936
H152	H	1.772426	-0.830120	0.338295
H153	H	1.686487	-0.830198	0.252258
H154	H	1.774763	-0.124256	0.907182
C155	C	1.250945	-0.773410	0.773148
C156	C	1.309957	-0.808906	0.714235
H157	H	1.205345	-0.791936	0.818728
H158	H	1.210768	-0.752153	0.727332
H159	H	1.296706	-0.752072	0.813354
H160	H	1.264196	-0.830242	0.674024
H161	H	1.350138	-0.830172	0.760057
H162	H	0.919396	-0.124480	0.762873
C163	C	1.679508	-0.234690	0.739785
C164	C	1.652794	-0.184941	0.776344
H165	H	1.679549	-0.234708	0.665327
H166	H	1.629822	-0.259372	0.764559
H167	H	1.747281	-0.243725	0.764665
H168	H	1.585018	-0.175907	0.751471
H169	H	1.702483	-0.160251	0.751560
H170	H	1.396250	-0.312422	0.907043
H171	H	1.774813	-0.124218	1.106247
