data_functionalizedCrystal
_audit_creation_method	'MofGen! by Chris Wilmer'
_symmetry_space_group_name_H-M	'P1'
_symmetry_Int_Tables_number	1
_symmetry_cell_setting	triclinic
loop_
_symmetry_equiv_pos_as_xyz
  x,y,z
_cell_length_a	13.032831
_cell_length_b	13.897448
_cell_length_c	13.032268
_cell_angle_alpha	82.851959
_cell_angle_beta	89.113023
_cell_angle_gamma	82.822399
loop_
_atom_site_label
_atom_site_type_symbol
_atom_site_fract_x
_atom_site_fract_y
_atom_site_fract_z
Zn1	Zn	1.498483	-0.651422	0.780818
Zn2	Zn	1.831816	-0.318089	1.114152
Zn3	Zn	2.165149	0.015244	1.447485
Zn4	Zn	1.520226	-0.795137	0.608835
Zn5	Zn	1.853559	-0.461804	0.942168
Zn6	Zn	2.186892	-0.128471	1.275501
Zn7	Zn	1.348341	-0.611127	0.587060
Zn8	Zn	1.681674	-0.277794	0.920394
Zn9	Zn	2.015008	0.055539	1.253727
Zn10	Zn	1.326474	-0.789922	0.758960
Zn11	Zn	1.659807	-0.456589	1.092293
Zn12	Zn	1.993141	-0.123255	1.425627
O13	O	1.423381	-0.711902	0.683918
O14	O	1.756714	-0.378569	1.017252
O15	O	2.090048	-0.045236	1.350585
O16	O	1.645288	-0.689533	0.776265
O17	O	1.978621	-0.356199	1.109598
O18	O	2.311954	-0.022866	1.442931
O19	O	1.515676	-0.756047	0.462030
O20	O	1.849009	-0.422714	0.795363
O21	O	2.182343	-0.089380	1.128697
O22	O	1.368309	-0.481501	0.612798
O23	O	1.701643	-0.148168	0.946131
O24	O	2.034976	0.185166	1.279465
O25	O	1.661262	-0.795119	0.649909
O26	O	1.994596	-0.461786	0.983242
O27	O	2.327929	-0.128453	1.316576
O28	O	1.478618	-0.511106	0.755151
O29	O	1.811951	-0.177772	1.088484
O30	O	2.145285	0.155561	1.421818
O31	O	1.389393	-0.620856	0.446032
O32	O	1.722726	-0.287522	0.779366
O33	O	2.056059	0.045811	1.112699
O34	O	1.201520	-0.615798	0.591603
O35	O	1.534853	-0.282465	0.924936
O36	O	1.868186	0.050868	1.258269
O37	O	1.331040	-0.786231	0.905776
O38	O	1.664374	-0.452897	1.239109
O39	O	1.997707	-0.119564	1.572443
O40	O	1.185454	-0.747158	0.717897
O41	O	1.518787	-0.413825	1.051230
O42	O	1.852121	-0.080492	1.384563
O43	O	1.457414	-0.684476	0.921835
O44	O	1.790748	-0.351142	1.255169
O45	O	2.124081	-0.017809	1.588502
O46	O	1.494472	-0.929417	0.628714
O47	O	1.827806	-0.596084	0.962047
O48	O	2.161139	-0.262750	1.295381
O49	O	1.352124	-0.925585	0.739010
O50	O	1.685457	-0.592252	1.072344
O51	O	2.018790	-0.258919	1.405677
C52	C	1.156170	-0.676541	0.650016
C53	C	1.489503	-0.343207	0.983349
C54	C	1.822836	-0.009874	1.316682
C55	C	1.041852	-0.661439	0.635536
C56	C	1.375186	-0.328105	0.968870
C57	C	1.708519	0.005228	1.302203
C58	C	0.982977	-0.719784	0.691475
C59	C	1.316310	-0.386451	1.024809
C60	C	1.649643	-0.053118	1.358142
C61	C	0.864824	-0.704177	0.676511
C62	C	1.198157	-0.370844	1.009845
C63	C	1.531490	-0.037510	1.343178
C64	C	1.423310	-0.962504	0.683879
C65	C	1.756643	-0.629170	1.017212
C66	C	2.089976	-0.295837	1.350546
C67	C	1.423369	-1.069728	0.683909
C68	C	1.756702	-0.736395	1.017242
C69	C	2.090035	-0.403061	1.350575
C70	C	1.423469	-1.266044	0.683987
C71	C	1.756802	-0.932710	1.017320
C72	C	2.090135	-0.599377	1.350653
C73	C	1.423410	-1.156800	0.683946
C74	C	1.756743	-0.823466	1.017279
C75	C	2.090076	-0.490133	1.350613
C76	C	1.691635	-0.747403	0.717954
C77	C	2.024969	-0.414069	1.051287
C78	C	2.358302	-0.080736	1.384621
C79	C	1.805950	-0.762531	0.732458
C80	C	2.139283	-0.429197	1.065791
C81	C	2.472616	-0.095864	1.399125
C82	C	1.389363	-0.739266	0.952165
C83	C	1.722696	-0.405933	1.285498
C84	C	2.056029	-0.072600	1.618832
C85	C	1.374866	-0.750927	1.066476
C86	C	1.708200	-0.417594	1.399809
C87	C	2.041533	-0.084260	1.733142
C88	C	1.423478	-0.460328	0.683984
C89	C	1.756811	-0.126995	1.017317
C90	C	2.090144	0.206338	1.350651
C91	C	1.423519	-0.353122	0.684012
C92	C	1.756852	-0.019789	1.017345
C93	C	2.090185	0.313544	1.350678
C94	C	1.457326	-0.684583	0.416723
C95	C	1.790659	-0.351250	0.750056
C96	C	2.123992	-0.017916	1.083390
C97	C	1.472021	-0.672677	0.302438
C98	C	1.805355	-0.339343	0.635771
C99	C	2.138688	-0.006010	0.969105
C100	C	1.430931	-0.705779	1.125385
C101	C	1.764264	-0.372446	1.458718
C102	C	2.097597	-0.039113	1.792051
C103	C	1.415949	-0.717831	1.243531
C104	C	1.749283	-0.384497	1.576864
C105	C	2.082616	-0.051164	1.910197
H106	H	1.020043	-0.781288	0.750448
H107	H	1.353376	-0.447954	1.083781
H108	H	1.686709	-0.114621	1.417115
O109	O	1.550307	-0.609660	1.253401
O110	O	1.883641	-0.276327	1.586734
O111	O	2.216974	0.057006	1.920067
H112	H	1.530110	-0.533707	1.271734
H113	H	1.863444	-0.200373	1.605068
H114	H	2.196777	0.132960	1.938401
H115	H	1.356848	-0.765401	1.280558
H116	H	1.690182	-0.432068	1.613892
H117	H	2.023515	-0.098734	1.947225
O118	O	0.855032	-0.844010	0.810579
O119	O	1.188365	-0.510676	1.143912
O120	O	1.521699	-0.177343	1.477245
H121	H	0.824254	-0.833118	0.888741
H122	H	1.157587	-0.499785	1.222074
H123	H	1.490920	-0.166452	1.555408
H124	H	1.004785	-0.599929	0.576571
H125	H	1.338119	-0.266595	0.909905
H126	H	1.671452	0.066738	1.243238
H127	H	1.490017	-0.658201	1.088351
H128	H	1.823350	-0.324868	1.421685
H129	H	2.156684	0.008465	1.755018
O130	O	1.296584	-0.813941	1.115514
O131	O	1.629917	-0.480608	1.448847
O132	O	1.963251	-0.147275	1.782180
H133	H	1.336431	-0.874066	1.170283
H134	H	1.669764	-0.540733	1.503616
H135	H	2.003097	-0.207400	1.836950
O136	O	0.815748	-0.622711	0.598373
O137	O	1.149081	-0.289377	0.931706
O138	O	1.482415	0.043956	1.265040
H139	H	0.730649	-0.623247	0.598867
H140	H	1.063983	-0.289914	0.932200
H141	H	1.397316	0.043419	1.265534
