data_functionalizedCrystal
_audit_creation_method	'MofGen! by Chris Wilmer'
_symmetry_space_group_name_H-M	'P1'
_symmetry_Int_Tables_number	1
_symmetry_cell_setting	triclinic
loop_
_symmetry_equiv_pos_as_xyz
  x,y,z
_cell_length_a	11.169417
_cell_length_b	18.215405
_cell_length_c	11.169409
_cell_angle_alpha	90.039798
_cell_angle_beta	90.019824
_cell_angle_gamma	90.025764
loop_
_atom_site_label
_atom_site_type_symbol
_atom_site_fract_x
_atom_site_fract_y
_atom_site_fract_z
Zn1	Zn	1.834841	-0.292907	0.678481
Zn2	Zn	2.084841	-0.042907	0.928481
Zn3	Zn	2.334841	0.207093	1.178481
Zn4	Zn	2.584841	0.457093	1.428481
Zn5	Zn	1.834679	-0.415999	0.477771
Zn6	Zn	2.084679	-0.165999	0.727771
Zn7	Zn	2.334679	0.084001	0.977771
Zn8	Zn	2.584679	0.334001	1.227771
Zn9	Zn	1.634127	-0.292952	0.477815
Zn10	Zn	1.884127	-0.042952	0.727815
Zn11	Zn	2.134127	0.207048	0.977815
Zn12	Zn	2.384127	0.457048	1.227815
Zn13	Zn	1.634083	-0.415939	0.678416
Zn14	Zn	1.884083	-0.165939	0.928416
Zn15	Zn	2.134083	0.084061	1.178416
Zn16	Zn	2.384083	0.334061	1.428416
O17	O	1.734433	-0.354449	0.578121
O18	O	1.984433	-0.104449	0.828121
O19	O	2.234433	0.145551	1.078121
O20	O	2.484433	0.395551	1.328121
O21	O	2.002769	-0.309242	0.651865
O22	O	2.252769	-0.059242	0.901865
O23	O	2.502769	0.190758	1.151865
O24	O	2.752769	0.440758	1.401865
O25	O	1.808026	-0.399720	0.309827
O26	O	2.058026	-0.149720	0.559827
O27	O	2.308026	0.100280	0.809827
O28	O	2.558026	0.350280	1.059827
O29	O	1.660838	-0.189962	0.504479
O30	O	1.910838	0.060038	0.754479
O31	O	2.160838	0.310038	1.004479
O32	O	2.410838	0.560038	1.254479
O33	O	2.002651	-0.399677	0.504404
O34	O	2.252651	-0.149677	0.754404
O35	O	2.502651	0.100323	1.004404
O36	O	2.752651	0.350323	1.254404
O37	O	1.808302	-0.189929	0.651907
O38	O	2.058302	0.060071	0.901907
O39	O	2.308302	0.310071	1.151907
O40	O	2.558302	0.560071	1.401907
O41	O	1.660681	-0.309319	0.309859
O42	O	1.910681	-0.059319	0.559859
O43	O	2.160681	0.190681	0.809859
O44	O	2.410681	0.440681	1.059859
O45	O	1.466171	-0.309260	0.504416
O46	O	1.716171	-0.059260	0.754416
O47	O	1.966171	0.190740	1.004416
O48	O	2.216171	0.440740	1.254416
O49	O	1.660764	-0.399574	0.846375
O50	O	1.910764	-0.149574	1.096375
O51	O	2.160764	0.100426	1.346375
O52	O	2.410764	0.350426	1.596375
O53	O	1.466140	-0.399618	0.651797
O54	O	1.716140	-0.149618	0.901797
O55	O	1.966140	0.100382	1.151797
O56	O	2.216140	0.350382	1.401797
O57	O	1.808260	-0.309184	0.846422
O58	O	2.058260	-0.059184	1.096422
O59	O	2.308260	0.190816	1.346422
O60	O	2.558260	0.440816	1.596422
O61	O	1.807984	-0.518975	0.504342
O62	O	2.057984	-0.268975	0.754342
O63	O	2.307984	-0.018975	1.004342
O64	O	2.557984	0.231025	1.254342
O65	O	1.660607	-0.518931	0.651755
O66	O	1.910607	-0.268931	0.901755
O67	O	2.160607	-0.018931	1.151755
O68	O	2.410607	0.231069	1.401755
C69	C	1.422608	-0.354438	0.578105
C70	C	1.672608	-0.104438	0.828105
C71	C	1.922608	0.145562	1.078105
C72	C	2.172608	0.395562	1.328105
C73	C	1.289208	-0.354451	0.578127
C74	C	1.539208	-0.104451	0.828127
C75	C	1.789208	0.145549	1.078127
C76	C	2.039208	0.395549	1.328127
C77	C	1.734306	-0.545656	0.578063
C78	C	1.984306	-0.295656	0.828063
C79	C	2.234306	-0.045656	1.078063
C80	C	2.484306	0.204344	1.328063
C81	C	1.734362	-0.627454	0.578078
C82	C	1.984362	-0.377454	0.828078
C83	C	2.234362	-0.127454	1.078078
C84	C	2.484362	0.122546	1.328078
C85	C	1.811281	-0.815647	0.501462
C86	C	2.061281	-0.565647	0.751462
C87	C	2.311281	-0.315647	1.001462
C88	C	2.561281	-0.065647	1.251462
C89	C	1.811335	-0.892506	0.501491
C90	C	2.061335	-0.642506	0.751491
C91	C	2.311335	-0.392506	1.001491
C92	C	2.561335	-0.142506	1.251491
C93	C	1.657738	-0.892500	0.654866
C94	C	1.907738	-0.642500	0.904866
C95	C	2.157738	-0.392500	1.154866
C96	C	2.407738	-0.142500	1.404866
C97	C	1.657691	-0.815642	0.654842
C98	C	1.907691	-0.565642	0.904842
C99	C	2.157691	-0.315642	1.154842
C100	C	2.407691	-0.065642	1.404842
C101	C	1.734461	-0.777218	0.578133
C102	C	1.984461	-0.527218	0.828133
C103	C	2.234461	-0.277218	1.078133
C104	C	2.484461	-0.027218	1.328133
C105	C	1.734561	-0.930934	0.578186
C106	C	1.984561	-0.680934	0.828186
C107	C	2.234561	-0.430934	1.078186
C108	C	2.484561	-0.180934	1.328186
C109	C	1.734619	-1.014268	0.578218
C110	C	1.984619	-0.764268	0.828218
C111	C	2.234619	-0.514268	1.078218
C112	C	2.484619	-0.264268	1.328218
C113	C	1.734405	-0.693879	0.578102
C114	C	1.984405	-0.443879	0.828102
C115	C	2.234405	-0.193879	1.078102
C116	C	2.484405	0.056121	1.328102
C117	C	2.047475	-0.354461	0.578137
C118	C	2.297475	-0.104461	0.828137
C119	C	2.547475	0.145539	1.078137
C120	C	2.797475	0.395539	1.328137
C121	C	2.180875	-0.354466	0.578144
C122	C	2.430875	-0.104466	0.828144
C123	C	2.680875	0.145534	1.078144
C124	C	2.930875	0.395534	1.328144
C125	C	1.734525	-0.354368	0.891163
C126	C	1.984525	-0.104368	1.141163
C127	C	2.234525	0.145632	1.391163
C128	C	2.484525	0.395632	1.641163
C129	C	1.734564	-0.354333	1.024563
C130	C	1.984564	-0.104333	1.274563
C131	C	2.234564	0.145667	1.524563
C132	C	2.484564	0.395667	1.774563
C133	C	1.734593	-0.162496	0.578205
C134	C	1.984593	0.087504	0.828205
C135	C	2.234593	0.337504	1.078205
C136	C	2.484593	0.587504	1.328205
C137	C	1.734661	-0.080697	0.578241
C138	C	1.984661	0.169303	0.828241
C139	C	2.234661	0.419303	1.078241
C140	C	2.484661	0.669303	1.328241
C141	C	1.734410	-0.354478	0.266296
C142	C	1.984410	-0.104478	0.516296
C143	C	2.234410	0.145522	0.766296
C144	C	2.484410	0.395522	1.016296
C145	C	1.734603	-0.354305	0.132897
C146	C	1.984603	-0.104305	0.382897
C147	C	2.234603	0.145695	0.632897
C148	C	2.484603	0.395695	0.882897
H149	H	1.873793	-0.784363	0.439002
H150	H	2.123793	-0.534363	0.689002
H151	H	2.373793	-0.284363	0.939002
H152	H	2.623793	-0.034363	1.189002
H153	H	1.595135	-0.784351	0.717283
H154	H	1.845135	-0.534351	0.967283
H155	H	2.095135	-0.284351	1.217283
H156	H	2.345135	-0.034351	1.467283
H157	H	1.873891	-0.923791	0.439059
H158	H	2.123891	-0.673791	0.689059
H159	H	2.373891	-0.423791	0.939059
H160	H	2.623891	-0.173791	1.189059
H161	H	1.595233	-0.923794	0.717318
H162	H	1.845233	-0.673794	0.967318
H163	H	2.095233	-0.423794	1.217318
H164	H	2.345233	-0.173794	1.467318
