data_functionalizedCrystal
_audit_creation_method	'MofGen! by Chris Wilmer'
_symmetry_space_group_name_H-M	'P1'
_symmetry_Int_Tables_number	1
_symmetry_cell_setting	triclinic
loop_
_symmetry_equiv_pos_as_xyz
  x,y,z
_cell_length_a	14.628931
_cell_length_b	21.606444
_cell_length_c	21.606444
_cell_angle_alpha	60.002891
_cell_angle_beta	89.999156
_cell_angle_gamma	59.999209
loop_
_atom_site_label
_atom_site_type_symbol
_atom_site_fract_x
_atom_site_fract_y
_atom_site_fract_z
Zr1	Zr	-0.119998	0.677469	0.596247
O2	O	-0.265954	0.806583	0.497429
O3	O	-0.075254	0.548353	0.626536
O4	O	-0.265960	0.677470	0.626541
O5	O	0.075184	0.677466	0.497424
O6	O	-0.265965	0.677475	0.728391
O7	O	-0.075248	0.677465	0.497424
O8	O	0.075173	0.446508	0.728382
O9	O	-0.265955	0.908433	0.497433
O10	O	-0.056176	0.601465	0.715468
O11	O	0.056094	0.601462	0.639458
O12	O	-0.168438	0.753481	0.639464
O13	O	-0.056169	0.753478	0.563455
Zr14	Zr	0.119915	0.677477	0.758685
Zr15	Zr	-0.120007	0.677476	0.758685
Zr16	Zr	0.119923	0.677470	0.596247
Zr17	Zr	-0.119999	0.839909	0.596253
Zr18	Zr	0.119916	0.515037	0.758679
O19	O	0.075171	0.806593	0.728396
O20	O	-0.265966	0.806592	0.728396
O21	O	0.075183	0.806583	0.497429
O22	O	0.265871	0.548364	0.857503
O23	O	-0.075266	0.548363	0.857503
O24	O	0.265883	0.548354	0.626536
O25	O	-0.075267	0.677481	0.857508
O26	O	0.265877	0.677476	0.728391
O27	O	0.265882	0.677471	0.626541
O28	O	0.075165	0.677481	0.857508
O29	O	-0.265962	0.908438	0.626550
O30	O	0.265879	0.446508	0.728382
O31	O	0.265872	0.446513	0.857499
O32	O	0.075166	0.446513	0.857499
O33	O	-0.075250	0.908433	0.497433
O34	O	-0.075257	0.908439	0.626550
O35	O	0.168355	0.601465	0.715468
O36	O	0.056086	0.601468	0.791477
O37	O	-0.056177	0.753484	0.715473
O38	O	0.056093	0.753481	0.639464
C39	C	-0.000040	0.474286	0.677458
C40	C	-0.000039	0.405326	0.677456
C41	C	-0.058645	-0.017981	0.717153
C42	C	-0.058650	0.046820	0.717148
C43	C	-0.000046	0.079215	0.677469
C44	C	0.058557	0.046813	0.637787
C45	C	0.058555	-0.017982	0.637789
C46	C	0.058568	0.308124	0.637779
C47	C	0.058569	0.372921	0.637783
C48	C	-0.058636	0.372925	0.717138
C49	C	-0.058639	0.308131	0.717140
C50	C	-0.000041	0.275737	0.677455
C51	C	-0.000038	0.205475	0.677460
C52	C	-0.000041	0.149472	0.677468
C53	C	-0.300146	0.677473	0.677466
C54	C	-0.401999	0.677472	0.677466
C55	C	-0.503098	0.752882	0.639763
C56	C	-0.608370	0.752884	0.639763
C57	C	0.300063	0.677474	0.677466
C58	C	0.401916	0.677474	0.677466
C59	C	-0.000031	0.677464	0.474280
C60	C	-0.000027	0.677461	0.405321
C61	C	-0.000043	0.880660	0.677474
C62	C	-0.000044	0.949620	0.677476
C63	C	0.058569	0.598111	0.412594
C64	C	0.058570	0.598114	0.347797
C65	C	-0.000032	0.677467	0.275727
C66	C	-0.058630	0.756824	0.268454
C67	C	-0.058624	0.756820	0.333251
C68	C	-0.058655	0.756839	0.007136
C69	C	-0.058659	0.756836	-0.057662
C70	C	0.058539	0.598132	0.021682
C71	C	0.058545	0.598129	0.086479
C72	C	-0.000048	0.677485	0.079201
C73	C	-0.000046	0.677481	0.149462
C74	C	-0.000041	0.677472	0.205466
C75	C	-0.000052	0.677482	0.880652
C76	C	-0.000056	0.677485	0.949611
C77	C	-0.000051	0.474295	0.880644
C78	C	-0.000054	0.405338	0.949601
C79	C	0.300065	0.474287	0.677458
C80	C	0.401918	0.405327	0.677455
C81	C	0.300054	0.474296	0.880644
C82	C	0.401904	0.405339	0.949601
C83	C	-0.300137	0.880651	0.474288
C84	C	-0.401987	0.949607	0.405331
C85	C	-0.000032	0.880651	0.474288
C86	C	-0.000029	0.949608	0.405331
C87	C	-0.300148	0.880660	0.677474
C88	C	-0.402001	0.949619	0.677477
C89	C	-0.058665	0.372953	0.942308
C90	C	-0.058690	0.308170	1.007094
C91	C	-0.000098	0.275768	1.079172
C92	C	0.058515	0.308159	1.086464
C93	C	0.058533	0.372946	1.021679
C94	C	0.508359	0.372945	0.717130
C95	C	0.604070	0.308159	0.717125
C96	C	0.593338	0.275752	0.677448
C97	C	0.486886	0.308141	0.637769
C98	C	0.391177	0.372930	0.637770
C99	C	0.391130	0.372958	1.021666
C100	C	0.486819	0.308175	1.086465
C101	C	0.593281	0.275770	1.079196
C102	C	0.604053	0.308157	1.007122
C103	C	0.508365	0.372943	0.942326
C104	C	-0.391213	0.981996	0.333266
C105	C	-0.486902	1.046800	0.268467
C106	C	-0.593365	1.079208	0.275736
C107	C	-0.604136	1.046816	0.347810
C108	C	-0.508448	0.982019	0.412606
C109	C	0.058572	0.982000	0.412624
C110	C	0.058571	1.046801	0.347838
C111	C	-0.000025	1.079205	0.275759
C112	C	-0.058634	1.046811	0.268468
C113	C	-0.058638	0.982015	0.333253
C114	C	-0.391233	0.982005	0.717160
C115	C	-0.486926	1.046792	0.717178
C116	C	-0.593386	1.079195	0.677506
C117	C	-0.604152	1.046802	0.637821
C118	C	-0.508460	0.982013	0.637809
H119	H	-0.106354	0.399310	0.749449
H120	H	0.304512	0.399287	0.605465
F121	F	0.475482	0.273642	0.595546
H122	H	0.304451	0.399332	1.027599
H123	H	-0.106355	0.281753	0.749453
F124	F	0.120936	0.513651	0.489295
H125	H	0.517119	0.399323	0.749439
F126	F	0.717367	0.273660	0.999398
F127	F	-0.000126	0.206815	1.148117
F128	F	-0.721730	0.837274	0.597566
F129	F	0.475332	0.273714	1.163163
H130	H	-0.511358	0.612909	0.709742
H131	H	-0.106325	0.821435	0.327324
H132	H	-0.478110	1.073162	0.209788
H133	H	-0.478139	1.073159	0.749493
F134	F	-0.121033	0.841299	-0.134368
F135	F	0.120946	0.407398	0.595548
H136	H	-0.393380	0.612912	0.709747
F137	F	-0.277940	0.947531	0.759388
F138	F	-0.519932	0.947550	0.489302
F139	F	-0.000009	1.148166	0.206815
H140	H	0.106286	0.533499	0.353726
H141	H	-0.671295	1.131951	0.677522
F142	F	0.120956	1.081263	0.355614
F143	F	-0.717463	1.081303	0.595597
H144	H	0.106286	0.281755	0.605468
H145	H	0.106261	0.533511	0.145159
F146	F	0.120904	0.513674	0.029424
F147	F	0.120924	0.081296	0.595555
H148	H	0.671188	0.223016	1.131964
H149	H	0.106272	-0.044359	0.605478
H150	H	-0.106392	0.399334	0.883624
H151	H	-0.106341	1.073204	0.209773
H152	H	-0.106385	0.821455	0.001201
H153	H	-0.106338	0.821434	0.209769
H154	H	0.517153	0.399300	0.883649
F155	F	0.120926	0.407401	1.029452
F156	F	0.120873	0.273664	1.163182
F157	F	-0.277917	0.947515	0.325512
F158	F	-0.519937	0.947558	0.595563
F159	F	0.717353	0.273698	0.759361
F160	F	-0.121072	0.273706	0.999318
F161	F	0.695211	0.206797	0.677454
F162	F	-0.695196	1.148172	0.206766
F163	F	-0.514371	0.837271	0.597576
F164	F	-0.717450	1.081315	0.355534
H165	H	-0.106355	0.955644	0.327304
H166	H	0.106295	0.955621	0.471308
H167	H	-0.106368	0.073200	0.749455
F168	F	-0.121011	-0.052459	0.759391
