data_functionalizedCrystal
_audit_creation_method	'MofGen! by Chris Wilmer'
_symmetry_space_group_name_H-M	'P1'
_symmetry_Int_Tables_number	1
_symmetry_cell_setting	triclinic
loop_
_symmetry_equiv_pos_as_xyz
  x,y,z
_cell_length_a	16.109296
_cell_length_b	27.732064
_cell_length_c	14.586319
_cell_angle_alpha	90.008286
_cell_angle_beta	89.993774
_cell_angle_gamma	96.945644
loop_
_atom_site_label
_atom_site_type_symbol
_atom_site_fract_x
_atom_site_fract_y
_atom_site_fract_z
O1	O	-1.102375	0.062123	0.076189
O2	O	-0.860218	0.069858	0.076199
O3	O	-0.988810	-0.004375	0.076197
O4	O	-0.973783	0.136355	0.076191
O5	O	-0.988792	-0.004387	-0.076284
O6	O	-0.860200	0.069845	-0.076282
O7	O	-1.102357	0.062110	-0.076292
Cu8	Cu	-0.981277	0.065977	-0.090210
Cu9	Cu	-0.981298	0.065991	0.090116
O10	O	-0.973765	0.136343	-0.076290
C11	C	-0.829238	0.069538	-0.000040
C12	C	-0.736954	0.068600	-0.000036
C13	C	-0.427451	0.109581	-0.000056
C14	C	-0.514161	0.110467	-0.000050
C15	C	-0.535116	0.022395	-0.000033
C16	C	-0.448408	0.021510	-0.000033
C17	C	-0.394577	0.065104	-0.000048
C18	C	-0.567995	0.066875	-0.000043
C19	C	-0.662010	0.067835	-0.000037
C20	C	-0.300557	0.064144	-0.000053
C21	C	-0.988484	-0.022389	-0.000040
C22	C	-0.987527	-0.076047	-0.000032
C23	C	-0.905026	-0.453464	-0.000025
C24	C	-0.908546	-0.251789	-0.000024
O25	O	-0.844527	-0.220804	0.000016
N26	N	-0.984799	-0.232344	-0.000027
C27	C	-1.060177	-0.263320	-0.000024
O28	O	-1.125116	-0.242153	-0.000017
C29	C	-1.056657	-0.464994	-0.000019
C30	C	-0.980399	-0.484437	-0.000025
C31	C	-0.828774	-0.472908	-0.000030
C32	C	-0.827895	-0.523324	-0.000035
C33	C	-0.903268	-0.554296	-0.000035
C34	C	-0.979520	-0.534853	-0.000030
C35	C	-1.132034	-0.495970	-0.000010
C36	C	-1.131147	-0.546391	-0.000006
C37	C	-1.054890	-0.565834	-0.000012
C38	C	-1.054013	-0.616241	-0.000036
N39	N	-0.977760	-0.635687	-0.000032
C40	C	-0.902388	-0.604714	-0.000032
C41	C	-1.062020	-0.157438	-0.000029
C42	C	-1.062900	-0.107020	-0.000032
C43	C	-0.911268	-0.095493	-0.000030
C44	C	-0.910389	-0.145912	-0.000033
C45	C	-0.985767	-0.176884	-0.000026
C46	C	-0.900547	-0.710591	-0.000044
C47	C	-0.899675	-0.761012	-0.000053
C48	C	-1.051306	-0.772535	-0.000051
C49	C	-1.052179	-0.722119	-0.000046
C50	C	-0.976793	-0.691148	-0.000040
O51	O	-1.117998	-0.647255	-0.000065
O52	O	-0.837459	-0.625891	-0.000019
C53	C	-0.905905	-0.403049	-0.000020
C54	C	-0.982157	-0.383605	-0.000014
C55	C	-1.057530	-0.414578	-0.000015
C56	C	-0.983037	-0.333187	-0.000017
C57	C	-0.907665	-0.302215	-0.000017
C58	C	-0.831412	-0.321660	-0.000014
C59	C	-0.830532	-0.372076	-0.000019
C60	C	-1.133783	-0.395132	-0.000018
C61	C	-1.134655	-0.344716	-0.000013
C62	C	-1.059283	-0.313743	-0.000013
C63	C	-0.133337	0.062432	-0.000053
C64	C	-0.225619	0.063379	-0.000056
C65	C	-0.974091	0.154357	-0.000051
C66	C	-0.975048	0.208015	-0.000053
N67	N	-0.981268	0.065966	-0.217041
C68	C	-0.931245	0.036662	-0.548067
C69	C	-0.931239	0.036656	-0.452085
C70	C	-1.031342	0.095303	-0.452033
C71	C	-1.031353	0.095307	-0.548013
C72	C	-0.981299	0.065987	-0.596027
C73	C	-0.981282	0.065977	-0.404066
C74	C	-0.981276	0.065970	-0.299999
C75	C	-0.981307	0.065994	-0.700101
N76	N	-0.981314	0.065998	0.216948
H77	H	-0.421642	-0.014711	-0.000024
H78	H	-0.890481	0.012776	-0.413040
O79	O	-0.825668	-0.779978	-0.000094
C80	C	-0.841046	-0.831121	-0.000075
H81	H	-0.906077	-0.842965	-0.028947
H82	H	-0.837211	-0.845151	0.073077
C83	C	-0.695306	-0.837485	-0.024409
C84	C	-0.775176	-0.852033	-0.059877
H85	H	-0.654673	-0.850386	-0.061294
H86	H	-0.684944	-0.803030	-0.024419
H87	H	-0.692122	-0.849178	0.036550
H88	H	-0.778363	-0.840335	-0.120831
H89	H	-0.785537	-0.886487	-0.059880
H90	H	-0.767393	-0.447694	-0.000027
O91	O	-1.135192	-0.187571	-0.000148
C92	C	-1.139228	-0.217079	-0.079129
H93	H	-1.073271	-0.219635	-0.105455
H94	H	-1.176970	-0.200495	-0.134430
C95	C	-1.262762	-0.265124	-0.022803
C96	C	-1.181751	-0.268266	-0.055133
H97	H	-1.288995	-0.296698	-0.008004
H98	H	-1.260045	-0.245243	0.030406
H99	H	-1.294203	-0.251301	-0.068893
H100	H	-1.150309	-0.282082	-0.009040
H101	H	-1.184464	-0.288150	-0.108335
O102	O	-0.827242	-0.680580	-0.000082
C103	C	-0.759761	-0.708561	-0.000064
H104	H	-0.781370	-0.746192	-0.028933
H105	H	-0.736360	-0.712149	0.073087
C106	C	-0.661927	-0.637230	-0.024408
C107	C	-0.688466	-0.683447	-0.059872
H108	H	-0.617947	-0.621738	-0.061297
H109	H	-0.707390	-0.618378	-0.024416
H110	H	-0.642432	-0.640226	0.036550
H111	H	-0.707970	-0.680450	-0.120825
H112	H	-0.643004	-0.702298	-0.059876
O113	O	-1.206061	-0.477035	0.000127
C114	C	-1.211123	-0.448224	0.079114
H115	H	-1.145432	-0.435655	0.105431
H116	H	-1.248184	-0.470503	0.134418
C117	C	-1.336011	-0.419075	0.022818
C118	C	-1.255327	-0.403634	0.055136
H119	H	-1.363281	-0.391571	0.008030
H120	H	-1.332603	-0.438487	-0.030396
H121	H	-1.366884	-0.437641	0.068910
H122	H	-1.224452	-0.385074	0.009041
H123	H	-1.258731	-0.384218	0.108342
H124	H	-0.383625	0.145079	-0.000068
H125	H	-0.540922	0.146685	-0.000055
H126	H	-1.195162	-0.420346	-0.000017
O127	O	-1.080080	0.123731	-0.405432
C128	C	-1.164638	0.110360	-0.428884
H129	H	-1.173178	0.071381	-0.455281
H130	H	-1.183618	0.135704	-0.484582
C131	C	-1.209342	0.162046	-0.311186
C132	C	-1.219832	0.114170	-0.343599
H133	H	-1.243389	0.164399	-0.258580
H134	H	-1.152373	0.171056	-0.295388
H135	H	-1.225157	0.183161	-0.357609
H136	H	-1.204006	0.093058	-0.297181
H137	H	-1.276799	0.105157	-0.359388
O138	O	-0.587526	-0.019906	-0.000067
C139	C	-0.671107	-0.009589	-0.000050
H140	H	-0.673942	0.028374	-0.028923
H141	H	-0.696218	-0.011417	0.073102
C142	C	-0.721173	-0.093756	-0.024383
C143	C	-0.724656	-0.047131	-0.059852
H144	H	-0.754206	-0.116915	-0.061268
H145	H	-0.664863	-0.100708	-0.024391
H146	H	-0.742097	-0.095273	0.036577
H147	H	-0.703722	-0.045613	-0.120805
H148	H	-0.780964	-0.040180	-0.059855
O149	O	-1.080076	0.123722	-0.594647
C150	C	-1.137169	0.094257	-0.650179
H151	H	-1.146580	0.055795	-0.621265
H152	H	-1.111497	0.093439	-0.722926
C153	C	-1.209943	0.162372	-0.687137
C154	C	-1.221507	0.115133	-0.651620
H155	H	-1.261966	0.175249	-0.688030
H156	H	-1.171477	0.182224	-0.649727
H157	H	-1.188548	0.161683	-0.747757
H158	H	-1.242892	0.115822	-0.590997
H159	H	-1.259979	0.095281	-0.689019
H160	H	-0.890489	0.012788	-0.587157
H161	H	-0.765798	-0.539149	-0.000032
H162	H	-0.848293	-0.161738	-0.000042
H163	H	-1.124997	-0.091194	-0.000041
O164	O	-1.204449	-0.576407	-0.000040
C165	C	-1.271936	-0.548430	-0.000010
H166	H	-1.250332	-0.510803	-0.028878
H167	H	-1.295341	-0.544835	0.073145
C168	C	-1.369757	-0.619770	-0.024347
C169	C	-1.343224	-0.573556	-0.059810
H170	H	-1.413733	-0.635269	-0.061231
H171	H	-1.324290	-0.638619	-0.024364
H172	H	-1.389256	-0.616767	0.036615
H173	H	-1.323716	-0.576559	-0.120766
H174	H	-1.388690	-0.554707	-0.059805
O175	O	-1.126274	-0.703250	0.000119
C176	C	-1.172190	-0.719088	0.079079
H177	H	-1.127589	-0.729577	0.134266
H178	H	-1.218954	-0.751947	0.061219
C179	C	-1.274205	-0.664949	0.047127
C180	C	-1.219424	-0.677828	0.114911
H181	H	-1.303344	-0.639500	0.069228
H182	H	-1.243272	-0.654280	-0.006072
H183	H	-1.313167	-0.692336	0.032249
H184	H	-1.180457	-0.650444	0.129779
H185	H	-1.250352	-0.688492	0.168114
O186	O	-1.124444	-0.802695	-0.000009
C187	C	-1.107306	-0.851363	-0.000033
H188	H	-1.042028	-0.853287	0.028827
H189	H	-1.110647	-0.865950	-0.073186
C190	C	-1.252428	-0.879859	0.024324
C191	C	-1.172255	-0.882223	0.059779
H192	H	-1.292493	-0.898895	0.061215
H193	H	-1.263975	-0.847071	0.024337
H194	H	-1.255200	-0.892014	-0.036636
H195	H	-1.169481	-0.870062	0.120732
H196	H	-1.160709	-0.915010	0.059777
H197	H	-0.849897	-0.070266	-0.000034
O198	O	-0.756382	-0.390879	0.000022
C199	C	-0.690054	-0.352722	0.000000
H200	H	-0.712921	-0.318474	0.028867
H201	H	-0.666830	-0.345591	-0.073152
C202	C	-0.589997	-0.409006	0.024345
C203	C	-0.618081	-0.366942	0.059807
H204	H	-0.545599	-0.417777	0.061233
H205	H	-0.634682	-0.434713	0.024356
H206	H	-0.570650	-0.403057	-0.036614
H207	H	-0.637437	-0.372893	0.120761
H208	H	-0.573397	-0.341236	0.059808
H209	H	-0.770040	-0.296434	-0.000020
H210	H	-1.196758	-0.328891	-0.000016
