data_functionalizedCrystal
_audit_creation_method	'MofGen! by Chris Wilmer'
_symmetry_space_group_name_H-M	'P1'
_symmetry_Int_Tables_number	1
_symmetry_cell_setting	triclinic
loop_
_symmetry_equiv_pos_as_xyz
  x,y,z
_cell_length_a	12.837943
_cell_length_b	15.021413
_cell_length_c	15.944493
_cell_angle_alpha	90.009890
_cell_angle_beta	90.848008
_cell_angle_gamma	90.007011
loop_
_atom_site_label
_atom_site_type_symbol
_atom_site_fract_x
_atom_site_fract_y
_atom_site_fract_z
O1	O	1.375419	0.073993	-0.218353
O2	O	1.073615	0.073999	-0.207566
O3	O	1.232790	0.074003	-0.091343
O4	O	1.216244	0.073989	-0.334576
O5	O	1.232764	-0.074061	-0.091360
O6	O	1.073590	-0.074065	-0.207583
O7	O	1.375393	-0.074071	-0.218370
Zn8	Zn	1.224488	-0.097577	-0.212979
Zn9	Zn	1.224521	0.097504	-0.212957
O10	O	1.216219	-0.074076	-0.334593
C11	C	1.034983	-0.000032	-0.203931
C12	C	0.919907	-0.000029	-0.193063
N13	N	1.224472	-0.230714	-0.212994
C14	C	0.678925	-0.000049	-0.323716
C15	C	0.570801	-0.000047	-0.313508
C16	C	0.595534	-0.000029	-0.162441
C17	C	0.703658	-0.000031	-0.172648
C18	C	0.745349	-0.000040	-0.253288
C19	C	0.853475	-0.000036	-0.263495
C20	C	0.878206	-0.000024	-0.112428
C21	C	0.770082	-0.000021	-0.102221
C22	C	1.150859	-0.470399	-0.266706
C23	C	1.244524	-0.529737	-0.290507
C24	C	1.224499	-0.412321	-0.212975
C25	C	1.130859	-0.529725	-0.189195
C26	C	1.224516	-0.587745	-0.212958
C27	C	1.318211	-0.470352	-0.236817
C28	C	1.204485	-0.470335	-0.135467
C29	C	1.298218	-0.529646	-0.159241
C30	C	1.224487	-0.311264	-0.212987
C31	C	1.224538	-0.688800	-0.212946
C32	C	1.414026	-0.000038	-0.222005
C33	C	1.529101	-0.000036	-0.232873
C34	C	1.232101	-0.000025	-0.060003
C35	C	1.230073	-0.000014	0.033408
N36	N	1.224544	0.230642	-0.212936
C37	C	1.216908	-0.000045	-0.365933
C38	C	1.218935	-0.000051	-0.459344
C39	C	1.323767	-0.000033	0.261673
C40	C	1.273254	0.072971	0.316291
C41	C	1.226317	-0.000025	0.204430
C42	C	1.273207	-0.073008	0.316252
C43	C	1.222695	-0.000039	0.369629
C44	C	1.175830	0.073040	0.257817
C45	C	1.175796	-0.073006	0.257774
C46	C	1.125212	0.000016	0.312365
C47	C	1.228406	-0.000016	0.109263
C48	C	1.220598	-0.000042	0.464794
H49	H	0.712870	-0.000055	-0.389376
N50	N	1.124262	0.150566	0.225822
N51	N	1.085908	0.205776	0.275240
H52	H	1.049491	0.260530	0.252644
N53	N	1.031506	-0.562447	-0.163986
N54	N	0.951545	-0.543468	-0.205944
H55	H	0.881374	-0.566577	-0.188148
N56	N	1.072829	-0.437740	-0.323765
N57	N	1.059812	-0.355779	-0.332474
H58	H	1.004708	-0.332711	-0.372774
H59	H	1.187513	-0.444223	-0.069946
N60	N	1.124179	-0.150424	0.225561
N61	N	1.030654	-0.164155	0.242032
H62	H	0.994203	-0.218839	0.219283
H63	H	1.314371	-0.134724	0.341883
H64	H	0.887418	-0.000045	-0.329157
H65	H	1.314419	0.134690	0.341951
H66	H	0.516721	-0.000057	-0.370858
N67	N	0.727507	-0.000001	-0.019847
N68	N	0.786830	0.000013	0.043028
H69	H	0.756766	0.000030	0.101207
N70	N	1.417577	-0.437780	-0.262158
N71	N	1.451731	-0.457450	-0.332791
H72	H	1.521905	-0.434444	-0.350693
N73	N	1.429072	0.000061	0.233650
N74	N	1.488577	0.062843	0.253164
H75	H	1.562947	0.062913	0.233373
H76	H	1.041205	0.000058	0.334552
H77	H	0.561569	-0.000095	-0.096787
H78	H	0.932301	-0.000010	-0.055081
N79	N	1.265774	-0.562461	-0.372728
N80	N	1.206059	-0.543483	-0.432722
H81	H	1.221061	-0.566589	-0.490793
H82	H	1.360568	-0.555497	-0.113797
