data_functionalizedCrystal
_audit_creation_method	'MofGen! by Chris Wilmer'
_symmetry_space_group_name_H-M	'P1'
_symmetry_Int_Tables_number	1
_symmetry_cell_setting	triclinic
loop_
_symmetry_equiv_pos_as_xyz
  x,y,z
_cell_length_a	19.288864
_cell_length_b	14.519709
_cell_length_c	18.366186
_cell_angle_alpha	89.992822
_cell_angle_beta	89.977106
_cell_angle_gamma	83.408195
loop_
_atom_site_label
_atom_site_type_symbol
_atom_site_fract_x
_atom_site_fract_y
_atom_site_fract_z
O1	O	0.921767	0.115045	-0.060785
O2	O	1.255100	0.448378	0.272549
O3	O	1.588433	0.781712	0.605882
O4	O	0.719562	0.130564	-0.060735
O5	O	1.052895	0.463898	0.272598
O6	O	1.386229	0.797231	0.605931
O7	O	0.826026	-0.011468	-0.060755
O8	O	1.159359	0.321865	0.272579
O9	O	1.492692	0.655199	0.605912
O10	O	0.815303	0.257077	-0.060765
O11	O	1.148637	0.590410	0.272568
O12	O	1.481970	0.923744	0.605901
O13	O	0.826007	-0.011475	0.060345
O14	O	1.159341	0.321859	0.393678
O15	O	1.492674	0.655192	0.727011
O16	O	0.719544	0.130557	0.060364
O17	O	1.052877	0.463891	0.393698
O18	O	1.386210	0.797224	0.727031
O19	O	0.921749	0.115038	0.060315
O20	O	1.255082	0.448371	0.393648
O21	O	1.588415	0.781705	0.726981
Zn22	Zn	0.820643	0.122797	0.079567
Zn23	Zn	1.153977	0.456130	0.412900
Zn24	Zn	1.487310	0.789463	0.746233
Zn25	Zn	0.820667	0.122806	-0.079987
Zn26	Zn	1.154001	0.456139	0.253346
Zn27	Zn	1.487334	0.789472	0.586680
O28	O	0.815285	0.257070	0.060334
O29	O	1.148618	0.590403	0.393668
O30	O	1.481952	0.923737	0.727001
C31	C	0.693675	0.130061	-0.000179
C32	C	1.027008	0.463395	0.333154
C33	C	1.360341	0.796728	0.666488
C34	C	0.616566	0.128562	-0.000160
C35	C	0.949899	0.461896	0.333173
C36	C	1.283232	0.795229	0.666507
C37	C	0.572169	0.211900	-0.000175
C38	C	0.905503	0.545234	0.333159
C39	C	1.238836	0.878567	0.666492
C40	C	0.499717	0.210492	-0.000183
C41	C	0.833050	0.543825	0.333151
C42	C	1.166384	0.877159	0.666484
C43	C	0.471665	0.125741	-0.000191
C44	C	0.804998	0.459074	0.333143
C45	C	1.138331	0.792408	0.666476
C46	C	0.516071	0.042392	-0.000172
C47	C	0.849404	0.375725	0.333162
C48	C	1.182737	0.709059	0.666495
C49	C	0.588521	0.043803	-0.000156
C50	C	0.921855	0.377136	0.333177
C51	C	1.255188	0.710469	0.666510
C52	C	0.363169	0.059120	-0.042639
C53	C	0.696503	0.392453	0.290694
C54	C	1.029836	0.725786	0.624028
C55	C	0.290720	0.057713	-0.042659
C56	C	0.624053	0.391046	0.290675
C57	C	0.957386	0.724379	0.624008
C58	C	0.248203	0.121387	-0.000234
C59	C	0.581537	0.454720	0.333099
C60	C	0.914870	0.788053	0.666432
C61	C	0.278144	0.186484	0.042200
C62	C	0.611477	0.519817	0.375533
C63	C	0.944811	0.853150	0.708867
C64	C	0.350595	0.187894	0.042215
C65	C	0.683928	0.521228	0.375549
C66	C	1.017261	0.854561	0.708882
C67	C	0.393105	0.124202	-0.000207
C68	C	0.726438	0.457535	0.333127
C69	C	1.059772	0.790869	0.666460
C70	C	0.125246	0.203203	-0.000257
C71	C	0.458579	0.536537	0.333077
C72	C	0.791912	0.869870	0.666410
C73	C	0.052792	0.201792	-0.000260
C74	C	0.386126	0.535125	0.333073
C75	C	0.719459	0.868458	0.666406
C76	C	0.069148	0.033689	-0.000257
C77	C	0.402481	0.367023	0.333077
C78	C	0.735814	0.700356	0.666410
C79	C	0.141599	0.035103	-0.000246
C80	C	0.474933	0.368437	0.333087
C81	C	0.808266	0.701770	0.666421
C82	C	0.169644	0.119863	-0.000249
C83	C	0.502977	0.453196	0.333084
C84	C	0.836310	0.786530	0.666417
C85	C	0.825517	-0.045828	-0.000205
C86	C	1.158850	0.287505	0.333129
C87	C	1.492183	0.620839	0.666462
C88	C	0.824019	-0.148200	-0.000204
C89	C	1.157353	0.185134	0.333129
C90	C	1.490686	0.518467	0.666463
C91	C	0.818507	-0.523061	-0.000222
C92	C	1.151840	-0.189727	0.333112
C93	C	1.485173	0.143606	0.666445
C94	C	0.820037	-0.418762	-0.000216
C95	C	1.153371	-0.085429	0.333117
C96	C	1.486704	0.247904	0.666450
C97	C	0.821263	-0.335633	-0.000212
C98	C	1.154596	-0.002300	0.333121
C99	C	1.487929	0.331033	0.666455
C100	C	0.822794	-0.231329	-0.000208
C101	C	1.156127	0.102005	0.333125
C102	C	1.489461	0.435338	0.666458
C103	C	0.947636	0.115541	-0.000243
C104	C	1.280969	0.448874	0.333090
C105	C	1.614303	0.782207	0.666424
C106	C	1.024745	0.117040	-0.000267
C107	C	1.358078	0.450373	0.333066
C108	C	1.691412	0.783706	0.666400
C109	C	0.815794	0.291430	-0.000217
C110	C	1.149127	0.624764	0.333116
C111	C	1.482461	0.958097	0.666449
C112	C	0.817291	0.393802	-0.000223
C113	C	1.150625	0.727135	0.333110
C114	C	1.483958	1.060469	0.666444
N115	N	0.820632	0.122790	0.188458
N116	N	1.153965	0.456123	0.521791
N117	N	1.487299	0.789456	0.855124
N118	N	0.820684	0.122805	-0.188878
N119	N	1.154017	0.456139	0.144455
N120	N	1.487351	0.789472	0.477788
C121	C	0.867790	0.059929	0.226549
C122	C	1.201123	0.393262	0.559883
C123	C	1.534456	0.726595	0.893216
C124	C	0.867794	0.059925	0.302777
C125	C	1.201127	0.393258	0.636111
C126	C	1.534461	0.726591	0.969444
C127	C	0.820648	0.122797	0.340910
C128	C	1.153981	0.456131	0.674244
C129	C	1.487314	0.789464	1.007577
C130	C	0.773481	0.185663	0.302809
C131	C	1.106814	0.518996	0.636143
C132	C	1.440148	0.852330	0.969476
C133	C	0.773473	0.185659	0.226583
C134	C	1.106807	0.518993	0.559916
C135	C	1.440140	0.852326	0.893250
C136	C	0.811652	0.206826	0.461669
C137	C	1.144985	0.540159	0.795002
C138	C	1.478318	0.873492	1.128335
C139	C	0.811664	0.206831	0.537894
C140	C	1.144998	0.540164	0.871227
C141	C	1.478331	0.873497	1.204560
C142	C	0.820667	0.122809	0.576018
C143	C	1.154001	0.456142	0.909351
C144	C	1.487334	0.789476	1.242685
C145	C	0.829673	0.038778	0.537908
C146	C	1.163006	0.372112	0.871241
C147	C	1.496339	0.705445	1.204574
C148	C	0.829665	0.038775	0.461681
C149	C	1.162998	0.372108	0.795015
C150	C	1.496331	0.705441	1.128348
C151	C	0.820650	0.122808	0.423565
C152	C	1.153984	0.456141	0.756898
C153	C	1.487317	0.789475	1.090232
C154	C	0.867832	0.059938	0.696765
C155	C	1.201166	0.393271	1.030098
C156	C	1.534499	0.726605	1.363431
C157	C	0.867832	0.059933	0.772994
C158	C	1.201165	0.393266	1.106327
C159	C	1.534499	0.726599	1.439660
C160	C	0.773522	0.185679	0.773025
C161	C	1.106855	0.519013	1.106358
C162	C	1.440189	0.852346	1.439691
C163	C	0.773519	0.185677	0.696797
C164	C	1.106853	0.519010	1.030130
C165	C	1.440186	0.852343	1.363464
C166	C	0.820678	0.122807	0.658671
C167	C	1.154011	0.456140	0.992005
C168	C	1.487345	0.789474	1.325338
H169	H	0.148080	0.272220	-0.000249
H170	H	0.481414	0.605553	0.333084
H171	H	0.814747	0.938886	0.666418
H172	H	0.266348	0.004711	-0.077214
H173	H	0.599681	0.338044	0.256119
H174	H	0.933014	0.671377	0.589452
Br175	Br	-0.007463	0.314904	-0.000274
Br176	Br	0.325871	0.648237	0.333060
Br177	Br	0.659204	0.981570	0.666393
Br178	Br	0.931830	-0.025387	0.645021
Br179	Br	1.265164	0.307946	0.978354
Br180	Br	1.598497	0.641280	1.311688
Br181	Br	0.931830	-0.025393	0.824694
Br182	Br	1.265164	0.307940	1.158027
Br183	Br	1.598497	0.641273	1.491361
Br184	Br	0.439453	0.323602	-0.000198
Br185	Br	0.772786	0.656935	0.333135
Br186	Br	1.106120	0.990268	0.666468
Br187	Br	0.841879	-0.075260	0.409962
Br188	Br	1.175212	0.258073	0.743295
Br189	Br	1.508546	0.591406	1.076629
Br190	Br	0.031085	-0.081332	-0.000255
Br191	Br	0.364418	0.252001	0.333078
Br192	Br	0.697751	0.585334	0.666411
H193	H	0.397781	0.007267	-0.077190
H194	H	0.731114	0.340600	0.256143
H195	H	1.064448	0.673933	0.589476
H196	H	0.735122	0.236868	0.665780
H197	H	1.068455	0.570201	0.999114
H198	H	1.401788	0.903534	1.332447
Br199	Br	0.931798	-0.025395	0.354483
Br200	Br	1.265132	0.307938	0.687816
Br201	Br	1.598465	0.641271	1.021149
Br202	Br	0.201856	-0.078005	-0.000228
Br203	Br	0.535189	0.255329	0.333106
Br204	Br	0.868522	0.588662	0.666439
Br205	Br	0.478002	-0.072628	-0.000175
Br206	Br	0.811335	0.260705	0.333158
Br207	Br	1.144668	0.594038	0.666492
Br208	Br	0.709529	0.270998	0.824770
Br209	Br	1.042863	0.604331	1.158104
Br210	Br	1.376196	0.937664	1.491437
Br211	Br	0.648778	-0.069308	-0.000135
Br212	Br	0.982111	0.264025	0.333198
Br213	Br	1.315445	0.597359	0.666532
H214	H	0.374969	0.240896	0.076770
H215	H	0.708303	0.574229	0.410103
H216	H	1.041636	0.907562	0.743436
H217	H	0.594998	0.280918	-0.000179
H218	H	0.928331	0.614252	0.333154
H219	H	1.261665	0.947585	0.666488
Br220	Br	0.931787	-0.025395	0.174807
Br221	Br	1.265120	0.307939	0.508140
Br222	Br	1.598453	0.641272	0.841474
H223	H	0.837003	-0.029640	0.568947
H224	H	1.170337	0.303693	0.902280
H225	H	1.503670	0.637026	1.235613
H226	H	0.735092	0.236854	0.333861
H227	H	1.068426	0.570187	0.667195
H228	H	1.401759	0.903520	1.000528
H229	H	0.804336	0.275253	0.568917
H230	H	1.137670	0.608586	0.902251
H231	H	1.471003	0.941920	1.235584
Br232	Br	0.799502	0.320868	0.409937
Br233	Br	1.132835	0.654202	0.743270
Br234	Br	1.466169	0.987535	1.076603
Br235	Br	0.709468	0.270976	0.174883
Br236	Br	1.042802	0.604310	0.508216
Br237	Br	1.376135	0.937643	0.841549
H238	H	0.243528	0.238333	0.076747
H239	H	0.576862	0.571666	0.410080
H240	H	0.910195	0.904999	0.743413
