data_functionalizedCrystal
_audit_creation_method	'MofGen! by Chris Wilmer'
_symmetry_space_group_name_H-M	'P1'
_symmetry_Int_Tables_number	1
_symmetry_cell_setting	triclinic
loop_
_symmetry_equiv_pos_as_xyz
  x,y,z
_cell_length_a	15.538191
_cell_length_b	15.995292
_cell_length_c	14.750779
_cell_angle_alpha	77.363466
_cell_angle_beta	97.572172
_cell_angle_gamma	65.370355
loop_
_atom_site_label
_atom_site_type_symbol
_atom_site_fract_x
_atom_site_fract_y
_atom_site_fract_z
O1	O	1.229515	-0.247581	-0.079852
O2	O	0.955235	-0.150893	-0.079846
O3	O	1.099901	-0.323415	-0.079850
O4	O	1.084849	-0.075059	-0.079847
O5	O	1.140796	-0.372181	0.079798
O6	O	0.996130	-0.199659	0.079803
O7	O	1.270410	-0.296346	0.079797
Zn8	Zn	1.139763	-0.255745	0.105148
Zn9	Zn	1.085882	-0.191494	-0.105197
O10	O	1.125744	-0.123825	0.079802
C11	C	0.940585	-0.165160	-0.000020
C12	C	0.836005	-0.135028	-0.000018
C13	C	0.548279	-0.434385	-0.000037
C14	C	0.450007	-0.406050	-0.000037
C15	C	0.427527	-0.246669	-0.000035
C16	C	0.525801	-0.274993	-0.000030
C17	C	0.586170	-0.368852	-0.000032
C18	C	0.563691	-0.209459	-0.000025
C19	C	0.661955	-0.237780	-0.000025
C20	C	0.722329	-0.331633	-0.000030
C21	C	0.684434	-0.397172	-0.000032
C22	C	0.503319	-0.115598	-0.000030
C23	C	0.541209	-0.050065	-0.000025
C24	C	0.639477	-0.078387	-0.000018
C25	C	0.699851	-0.172241	-0.000023
C26	C	0.677372	-0.012848	-0.000016
C27	C	0.775636	-0.041169	-0.000016
C28	C	0.798114	-0.200561	-0.000023
C29	C	1.119735	-0.378806	-0.000028
C30	C	1.117897	-0.471199	-0.000036
C31	C	1.111147	-0.806888	-0.000027
C32	C	1.215654	-0.815419	0.000328
C33	C	1.217546	-0.719235	-0.000036
C34	C	1.114496	-0.640349	-0.000030
C35	C	1.038941	-0.625738	-0.091194
C36	C	1.037665	-0.722124	-0.091267
C37	C	1.082038	-0.776789	0.090284
C38	C	1.086215	-0.681839	0.091486
C39	C	1.116383	-0.546225	-0.000036
C40	C	1.109255	-0.901009	-0.000028
C41	C	1.285060	-0.282079	-0.000030
C42	C	1.389638	-0.312209	-0.000039
C43	C	1.105909	-0.068433	-0.000022
C44	C	1.107746	0.023962	-0.000022
N45	N	1.176542	-0.299598	0.248702
N46	N	1.049110	-0.147651	-0.248751
C47	C	0.946390	-0.025215	0.600528
C48	C	0.972170	-0.055940	0.701026
C49	C	1.100298	-0.208674	0.700985
C50	C	1.074526	-0.177963	0.600485
C51	C	0.997572	-0.086233	0.550264
C52	C	1.125708	-0.238981	0.550220
C53	C	1.099941	-0.208270	0.449729
C54	C	1.022992	-0.116542	0.399502
C55	C	0.971805	-0.055522	0.449773
C56	C	1.202665	-0.330709	0.600443
C57	C	1.253847	-0.391727	0.550179
C58	C	1.228076	-0.361019	0.449685
C59	C	1.151128	-0.269291	0.399458
C60	C	1.279263	-0.422039	0.399414
C61	C	1.253496	-0.391328	0.298923
C62	C	1.125361	-0.238580	0.298966
H63	H	1.275169	-0.732597	0.065312
H64	H	0.419162	-0.459422	-0.000043
H65	H	0.733591	-0.473603	-0.000028
H66	H	0.628203	0.063575	-0.000024
H67	H	1.162957	-0.283361	0.741886
H68	H	1.132622	-0.835979	0.159386
H69	H	0.802338	-0.354686	-0.000043
H70	H	1.005338	-0.767609	0.090902
H71	H	1.241902	-0.693333	-0.065501
H72	H	0.883720	0.049478	0.559637
Br73	Br	1.237639	-0.372380	0.736826
H74	H	0.909135	0.019171	0.408881
Br75	Br	1.178358	-0.704480	0.203898
Br76	Br	1.358286	-0.516213	0.618341
H77	H	1.341926	-0.496724	0.440317
Br78	Br	1.068834	-0.750446	-0.204850
H79	H	0.806488	0.012193	-0.000003
Br80	Br	1.254614	-0.850961	-0.108028
H81	H	1.012410	-0.627692	0.096995
H82	H	1.272648	-0.875618	0.065705
H83	H	0.960049	-0.712145	-0.095393
Br84	Br	0.911101	-0.532482	-0.096846
H85	H	1.057813	-0.595971	-0.159040
H86	H	0.930485	-0.006244	0.741947
H87	H	1.295175	-0.441015	0.257997
H88	H	0.847272	-0.276992	-0.000019
H89	H	0.597437	-0.510816	-0.000033
H90	H	0.378361	-0.170247	-0.000037
Br91	Br	1.020908	-0.114092	0.230805
H92	H	0.423306	-0.092542	-0.000033
H93	H	0.492043	0.026357	-0.000027
H94	H	1.002017	-0.091537	0.317675
