data_functionalizedCrystal
_audit_creation_method	'MofGen! by Chris Wilmer'
_symmetry_space_group_name_H-M	'P1'
_symmetry_Int_Tables_number	1
_symmetry_cell_setting	triclinic
loop_
_symmetry_equiv_pos_as_xyz
  x,y,z
_cell_length_a	13.101039
_cell_length_b	16.109301
_cell_length_c	16.109298
_cell_angle_alpha	96.539166
_cell_angle_beta	86.633336
_cell_angle_gamma	86.646051
loop_
_atom_site_label
_atom_site_type_symbol
_atom_site_fract_x
_atom_site_fract_y
_atom_site_fract_z
O1	O	0.085138	-1.107702	0.102281
O2	O	0.418471	-0.774368	0.435615
O3	O	0.751804	-0.441035	0.768948
O4	O	0.085152	-0.865640	0.115580
O5	O	0.418486	-0.532307	0.448913
O6	O	0.751819	-0.198974	0.782247
O7	O	0.085152	-0.993322	-0.012101
O8	O	0.418485	-0.659989	0.321232
O9	O	0.751819	-0.326656	0.654566
O10	O	0.085138	-0.980019	0.229962
O11	O	0.418471	-0.646686	0.563296
O12	O	0.751805	-0.313353	0.896629
O13	O	-0.085278	-0.984161	-0.002925
O14	O	0.248055	-0.650828	0.330409
O15	O	0.581389	-0.317495	0.663742
O16	O	-0.085277	-0.856479	0.124756
O17	O	0.248056	-0.523146	0.458089
O18	O	0.581389	-0.189812	0.791423
O19	O	-0.085292	-1.098540	0.111458
O20	O	0.248041	-0.765207	0.444791
O21	O	0.581374	-0.431874	0.778124
Zn22	Zn	-0.112344	-0.976055	0.119564
Zn23	Zn	0.220989	-0.642722	0.452897
Zn24	Zn	0.554322	-0.309389	0.786230
Zn25	Zn	0.112204	-0.988125	0.107474
Zn26	Zn	0.445538	-0.654792	0.440807
Zn27	Zn	0.778871	-0.321459	0.774140
O28	O	-0.085292	-0.970858	0.239138
O29	O	0.248042	-0.637525	0.572472
O30	O	0.581375	-0.304192	0.905805
C31	C	-0.000060	-0.830085	0.119629
C32	C	0.333273	-0.496752	0.452963
C33	C	0.666606	-0.163418	0.786296
C34	C	-0.000054	-0.737790	0.118014
C35	C	0.333279	-0.404457	0.451347
C36	C	0.666612	-0.071123	0.784680
N37	N	-0.265593	-0.967824	0.127814
N38	N	0.067741	-0.634491	0.461148
N39	N	0.401074	-0.301157	0.794481
C40	C	-0.000059	-0.988204	-0.038488
C41	C	0.333274	-0.654870	0.294845
C42	C	0.666608	-0.321537	0.628179
C43	C	-0.000047	-0.986590	-0.130784
C44	C	0.333287	-0.653257	0.202549
C45	C	0.666620	-0.319924	0.535883
C46	C	-0.474635	-0.956625	0.139047
C47	C	-0.141302	-0.623291	0.472380
C48	C	0.192031	-0.289958	0.805714
C49	C	-0.525511	-1.007560	0.087987
C50	C	-0.192178	-0.674227	0.421320
C51	C	0.141156	-0.340893	0.754653
C52	C	-0.641830	-1.001329	0.094237
C53	C	-0.308496	-0.667995	0.427570
C54	C	0.024837	-0.334662	0.760903
C55	C	-0.358306	-0.962855	0.132798
C56	C	-0.024973	-0.629522	0.466131
C57	C	0.308360	-0.296188	0.799465
N58	N	0.265453	-0.996363	0.099217
N59	N	0.598786	-0.663030	0.432550
N60	N	0.932120	-0.329697	0.765883
C61	C	-0.000077	-1.134096	0.107408
C62	C	0.333256	-0.800763	0.440741
C63	C	0.666590	-0.467429	0.774075
C64	C	-0.000077	-1.226391	0.109023
C65	C	0.333257	-0.893058	0.442357
C66	C	0.666590	-0.559725	0.775690
C67	C	-0.000070	-0.515516	0.190022
C68	C	0.333263	-0.182183	0.523356
C69	C	0.666597	0.151151	0.856689
C70	C	-0.000077	-0.428795	0.188499
C71	C	0.333257	-0.095462	0.521832
C72	C	0.666590	0.237872	0.855165
C73	C	-0.000064	-0.448672	0.037009
C74	C	0.333270	-0.115339	0.370342
C75	C	0.666603	0.217995	0.703676
C76	C	-0.000065	-0.535391	0.038534
C77	C	0.333269	-0.202057	0.371867
C78	C	0.666602	0.131276	0.705201
C79	C	-0.000063	-0.568810	0.115043
C80	C	0.333271	-0.235477	0.448376
C81	C	0.666604	0.097856	0.781710
C82	C	-0.000068	-0.395371	0.111994
C83	C	0.333265	-0.062038	0.445327
C84	C	0.666598	0.271296	0.778661
C85	C	-0.000075	-0.301344	0.110342
C86	C	0.333258	0.031989	0.443675
C87	C	0.666591	0.365322	0.777008
C88	C	-0.000057	-0.662842	0.116696
C89	C	0.333276	-0.329509	0.450029
C90	C	0.666609	0.003824	0.783363
C91	C	0.092833	-0.986315	-0.434854
C92	C	0.426167	-0.652982	-0.101520
C93	C	0.759500	-0.319649	0.231813
C94	C	0.092841	-0.987844	-0.348134
C95	C	0.426174	-0.654510	-0.014801
C96	C	0.759507	-0.321177	0.318533
C97	C	-0.092971	-0.977868	-0.338115
C98	C	0.240362	-0.644534	-0.004782
C99	C	0.573695	-0.311201	0.328551
C100	C	-0.092977	-0.976346	-0.424834
C101	C	0.240356	-0.643012	-0.091501
C102	C	0.573689	-0.309679	0.241832
C103	C	-0.000072	-0.980565	-0.473201
C104	C	0.333261	-0.647232	-0.139867
C105	C	0.666595	-0.313899	0.193466
C106	C	-0.000059	-0.983616	-0.299762
C107	C	0.333275	-0.650282	0.033571
C108	C	0.666608	-0.316949	0.366904
C109	C	-0.000052	-0.985273	-0.205737
C110	C	0.333282	-0.651939	0.127596
C111	C	0.666615	-0.318606	0.460929
C112	C	-0.000079	-0.978910	-0.567232
C113	C	0.333255	-0.645576	-0.233899
C114	C	0.666588	-0.312243	0.099435
C115	C	-0.000079	-0.975977	0.265525
C116	C	0.333255	-0.642644	0.598859
C117	C	0.666588	-0.309310	0.932192
C118	C	-0.000084	-0.977591	0.357821
C119	C	0.333249	-0.644258	0.691154
C120	C	0.666583	-0.310924	1.024488
H121	H	-0.481709	-1.055847	0.039579
H122	H	-0.148376	-0.722514	0.372913
H123	H	0.184958	-0.389181	0.706246
H124	H	-0.168612	-0.974431	-0.298725
H125	H	0.164722	-0.641097	0.034609
H126	H	0.498055	-0.307764	0.367942
H127	H	0.168483	-0.989751	-0.474231
H128	H	0.501816	-0.656417	-0.140898
H129	H	0.835150	-0.323084	0.192435
H130	H	-0.168637	-0.971665	-0.456057
H131	H	0.164696	-0.638332	-0.122723
H132	H	0.498030	-0.304999	0.210610
Br133	Br	-0.000092	-0.356469	0.290262
Br134	Br	0.333241	-0.023136	0.623595
Br135	Br	0.666575	0.310198	0.956928
Br136	Br	-0.547635	-0.876148	0.219728
Br137	Br	-0.214302	-0.542814	0.553061
Br138	Br	0.119032	-0.209481	0.886395
H139	H	-0.000076	-0.542723	0.252321
H140	H	0.333257	-0.209389	0.585655
H141	H	0.666590	0.123944	0.918988
H142	H	-0.000072	-0.421450	-0.025282
H143	H	0.333262	-0.088117	0.308052
H144	H	0.666595	0.245216	0.641385
Br145	Br	-0.000067	-0.607725	-0.063231
Br146	Br	0.333266	-0.274391	0.270102
Br147	Br	0.666599	0.058942	0.603436
H148	H	0.168494	-0.992527	-0.316916
H149	H	0.501827	-0.659194	0.016417
H150	H	0.835160	-0.325861	0.349750
