data_functionalizedCrystal
_audit_creation_method	'MofGen! by Chris Wilmer'
_symmetry_space_group_name_H-M	'P1'
_symmetry_Int_Tables_number	1
_symmetry_cell_setting	triclinic
loop_
_symmetry_equiv_pos_as_xyz
  x,y,z
_cell_length_a	19.077105
_cell_length_b	13.032721
_cell_length_c	19.077174
_cell_angle_alpha	99.721459
_cell_angle_beta	85.483752
_cell_angle_gamma	95.201395
loop_
_atom_site_label
_atom_site_type_symbol
_atom_site_fract_x
_atom_site_fract_y
_atom_site_fract_z
Zn1	Zn	1.051969	-0.507760	-0.483590
Zn2	Zn	1.033390	-0.675201	-0.379469
Zn3	Zn	0.930554	-0.493152	-0.359787
Zn4	Zn	0.920290	-0.675133	-0.492581
O5	O	0.984051	-0.587812	-0.428857
O6	O	1.147649	-0.536114	-0.474253
O7	O	1.016269	-0.644967	-0.277708
O8	O	0.958731	-0.348856	-0.364210
O9	O	1.134000	-0.659132	-0.397755
O10	O	1.047934	-0.359588	-0.455168
O11	O	0.940716	-0.511216	-0.263248
O12	O	0.831048	-0.511150	-0.372928
O13	O	0.941236	-0.659015	-0.590539
O14	O	0.823506	-0.644850	-0.470491
O15	O	1.037980	-0.536048	-0.583933
O16	O	1.006316	-0.821426	-0.406474
O17	O	0.923222	-0.821376	-0.489577
C18	C	0.801829	-0.576408	-0.420550
C19	C	0.723872	-0.571556	-0.417015
C20	C	0.683329	-0.638984	-0.466088
C21	C	0.610081	-0.634411	-0.462769
C22	C	0.577378	-0.562415	-0.410373
C23	C	0.617927	-0.494981	-0.361298
C24	C	0.691173	-0.499549	-0.364621
C25	C	0.358735	-0.541273	-0.394998
C26	C	0.285483	-0.536711	-0.391678
C27	C	0.277643	-0.676141	-0.493149
C28	C	0.350891	-0.680707	-0.496465
C29	C	0.391433	-0.613269	-0.447392
N30	N	0.502507	-0.557742	-0.406978
N31	N	0.466303	-0.617938	-0.450791
C32	C	0.961659	-0.859320	-0.451153
C33	C	0.952144	-0.975478	-0.460718
C34	C	0.989055	-1.027259	-0.423898
C35	C	0.979222	-1.147315	-0.433783
C36	C	1.166984	-0.599260	-0.437197
C37	C	1.244939	-0.604139	-0.440751
C38	C	0.990536	-0.599153	-0.613663
C39	C	0.993299	-0.603987	-0.692417
C40	C	1.006550	-0.315245	-0.406490
C41	C	1.016138	-0.199094	-0.396959
C42	C	0.955263	-0.536622	-0.721886
C43	C	0.957856	-0.541172	-0.795884
C44	C	0.998490	-0.613082	-0.840411
C45	C	1.036528	-0.680454	-0.810937
C46	C	1.033930	-0.675908	-0.736941
C47	C	1.010474	-0.634148	-1.062524
C48	C	1.013070	-0.638687	-1.136525
C49	C	0.934398	-0.499405	-1.121467
C50	C	0.931807	-0.494862	-1.047469
C51	C	0.969841	-0.562237	-1.018002
N52	N	1.001144	-0.617732	-0.916048
N53	N	0.967183	-0.557592	-0.942366
C54	C	0.977637	-0.576441	-0.244765
C55	C	0.975034	-0.571322	-0.165994
H56	H	0.391735	-0.486367	-0.355035
H57	H	0.898716	-0.436308	-1.011220
H58	H	0.903431	-0.444553	-1.145467
H59	H	1.055023	-1.154551	-0.358118
H60	H	0.577074	-0.689319	-0.502728
H61	H	1.027938	-0.982714	-0.385060
N62	N	1.056902	-0.716246	-1.184553
H63	H	1.080602	-0.758240	-1.154658
H64	H	1.025439	-0.764699	-1.217924
N65	N	0.718594	-0.716642	-0.522601
H66	H	0.753642	-0.678165	-0.553381
H67	H	0.743935	-0.765110	-0.499050
H68	H	0.913267	-1.020027	-0.499561
H69	H	1.069609	-0.739010	-0.847197
N70	N	0.386162	-0.758365	-0.552973
H71	H	0.349363	-0.800389	-0.583558
H72	H	0.421215	-0.719818	-0.583703
N73	N	1.074957	-0.748558	-0.705149
H74	H	1.041377	-0.793314	-0.677123
H75	H	1.101093	-0.794735	-0.744619
H76	H	0.258859	-0.478072	-0.349015
N77	N	0.233916	-0.748874	-0.546075
H78	H	0.182551	-0.735059	-0.536022
H79	H	0.249838	-0.736631	-0.595951
H80	H	0.591294	-0.436356	-0.318640
H81	H	1.041435	-0.689021	-1.038542
N82	N	0.916841	-0.468486	-0.827654
H83	H	0.950426	-0.423734	-0.855678
H84	H	0.881904	-0.510852	-0.860324
N85	N	0.734906	-0.426818	-0.311698
H86	H	0.703076	-0.380515	-0.278001
H87	H	0.760640	-0.469153	-0.283725
N88	N	0.927715	-1.206300	-0.485238
H89	H	0.953665	-1.255329	-0.523093
H90	H	0.890550	-1.247785	-0.458590
N91	N	0.911444	-0.459051	-0.673862
H92	H	0.887742	-0.417067	-0.703763
H93	H	0.874397	-0.497665	-0.645168
