data_functionalizedCrystal
_audit_creation_method	'MofGen! by Chris Wilmer'
_symmetry_space_group_name_H-M	'P1'
_symmetry_Int_Tables_number	1
_symmetry_cell_setting	triclinic
loop_
_symmetry_equiv_pos_as_xyz
  x,y,z
_cell_length_a	15.021413
_cell_length_b	14.519709
_cell_length_c	14.519731
_cell_angle_alpha	96.315501
_cell_angle_beta	90.003039
_cell_angle_gamma	90.001715
loop_
_atom_site_label
_atom_site_type_symbol
_atom_site_fract_x
_atom_site_fract_y
_atom_site_fract_z
O1	O	-0.073918	-1.223882	0.120878
O2	O	0.176082	-0.973882	0.370878
O3	O	0.426082	-0.723882	0.620878
O4	O	0.676082	-0.473882	0.870878
O5	O	-0.073946	-0.955406	0.135114
O6	O	0.176054	-0.705406	0.385114
O7	O	0.426054	-0.455406	0.635114
O8	O	0.676054	-0.205406	0.885114
O9	O	-0.073923	-1.096752	-0.006241
O10	O	0.176077	-0.846752	0.243759
O11	O	0.426077	-0.596752	0.493759
O12	O	0.676077	-0.346752	0.743759
O13	O	-0.073941	-1.082536	0.262233
O14	O	0.176059	-0.832536	0.512233
O15	O	0.426059	-0.582536	0.762233
O16	O	0.676059	-0.332536	1.012233
O17	O	0.074141	-1.096729	-0.006221
O18	O	0.324141	-0.846729	0.243779
O19	O	0.574141	-0.596729	0.493779
O20	O	0.824141	-0.346729	0.743779
O21	O	0.074119	-0.955384	0.135134
O22	O	0.324119	-0.705384	0.385134
O23	O	0.574119	-0.455384	0.635134
O24	O	0.824119	-0.205384	0.885134
O25	O	0.074146	-1.223859	0.120898
O26	O	0.324146	-0.973859	0.370898
O27	O	0.574146	-0.723859	0.620898
O28	O	0.824146	-0.473859	0.870898
Zn29	Zn	0.097641	-1.089618	0.128019
Zn30	Zn	0.347641	-0.839618	0.378019
Zn31	Zn	0.597641	-0.589618	0.628019
Zn32	Zn	0.847641	-0.339618	0.878019
Zn33	Zn	-0.097440	-1.089648	0.127993
Zn34	Zn	0.152560	-0.839648	0.377993
Zn35	Zn	0.402560	-0.589648	0.627993
Zn36	Zn	0.652560	-0.339648	0.877993
O37	O	0.074124	-1.082513	0.262253
O38	O	0.324124	-0.832513	0.512253
O39	O	0.574124	-0.582513	0.762253
O40	O	0.824124	-0.332513	1.012253
C41	C	0.000083	-0.921035	0.134461
C42	C	0.250083	-0.671035	0.384461
C43	C	0.500083	-0.421035	0.634461
C44	C	0.750083	-0.171035	0.884461
C45	C	0.000073	-0.818654	0.132473
C46	C	0.250073	-0.568654	0.382473
C47	C	0.500073	-0.318654	0.632473
C48	C	0.750073	-0.068654	0.882473
N49	N	0.230778	-1.089604	0.128037
N50	N	0.480778	-0.839604	0.378037
N51	N	0.730778	-0.589604	0.628037
N52	N	0.980778	-0.339604	0.878037
N53	N	-0.230578	-1.089668	0.127968
N54	N	0.019422	-0.839668	0.377968
N55	N	0.269422	-0.589668	0.627968
N56	N	0.519422	-0.339668	0.877968
C57	C	0.470451	-1.024236	0.193369
C58	C	0.720451	-0.774236	0.443369
C59	C	0.970451	-0.524236	0.693369
C60	C	1.220451	-0.274236	0.943369
C61	C	0.529793	-1.107600	0.211406
C62	C	0.779793	-0.857600	0.461406
C63	C	1.029793	-0.607600	0.711406
C64	C	1.279793	-0.357600	0.961406
C65	C	0.412385	-1.089628	0.128014
C66	C	0.662385	-0.839628	0.378014
C67	C	0.912385	-0.589628	0.628014
C68	C	1.162385	-0.339628	0.878014
C69	C	0.529785	-1.006287	0.109998
C70	C	0.779785	-0.756287	0.359998
C71	C	1.029785	-0.506287	0.609998
C72	C	1.279785	-0.256287	0.859998
C73	C	0.587809	-1.089643	0.127994
C74	C	0.837809	-0.839643	0.377994
C75	C	1.087809	-0.589643	0.627994
C76	C	1.337809	-0.339643	0.877994
C77	C	0.470420	-1.173034	0.146092
C78	C	0.720420	-0.923034	0.396092
C79	C	0.970420	-0.673034	0.646092
C80	C	1.220420	-0.423034	0.896092
C81	C	0.470408	-1.071666	0.044648
C82	C	0.720408	-0.821666	0.294648
C83	C	0.970408	-0.571666	0.544648
C84	C	1.220408	-0.321666	0.794648
C85	C	0.529723	-1.155090	0.062650
C86	C	0.779723	-0.905090	0.312650
C87	C	1.029723	-0.655090	0.562650
C88	C	1.279723	-0.405090	0.812650
C89	C	0.311328	-1.089618	0.128028
C90	C	0.561328	-0.839618	0.378028
C91	C	0.811328	-0.589618	0.628028
C92	C	1.061328	-0.339618	0.878028
C93	C	0.688865	-1.089663	0.127979
C94	C	0.938865	-0.839663	0.377979
C95	C	1.188865	-0.589663	0.627979
C96	C	1.438865	-0.339663	0.877979
C97	C	0.000109	-1.096075	-0.040591
C98	C	0.250109	-0.846075	0.209409
C99	C	0.500109	-0.596075	0.459409
C100	C	0.750109	-0.346075	0.709409
C101	C	0.000110	-1.094079	-0.142971
C102	C	0.250110	-0.844079	0.107029
C103	C	0.500110	-0.594079	0.357029
C104	C	0.750110	-0.344079	0.607029
C105	C	0.000115	-1.258230	0.121551
C106	C	0.250115	-1.008230	0.371551
C107	C	0.500115	-0.758230	0.621551
C108	C	0.750115	-0.508230	0.871551
C109	C	0.000120	-1.360612	0.123539
C110	C	0.250120	-1.110612	0.373539
C111	C	0.500120	-0.860612	0.623539
C112	C	0.750120	-0.610612	0.873539
C113	C	0.000114	-0.443757	0.125153
C114	C	0.250114	-0.193757	0.375153
C115	C	0.500114	0.056243	0.625153
C116	C	0.750114	0.306243	0.875153
C117	C	0.000102	-0.548065	0.127186
C118	C	0.250102	-0.298065	0.377186
C119	C	0.500102	-0.048065	0.627186
C120	C	0.750102	0.201935	0.877186
C121	C	0.000093	-0.631202	0.128813
C122	C	0.250093	-0.381202	0.378813
C123	C	0.500093	-0.131202	0.628813
C124	C	0.750093	0.118798	0.878813
C125	C	0.000082	-0.735517	0.130846
C126	C	0.250082	-0.485517	0.380846
C127	C	0.500082	-0.235517	0.630846
C128	C	0.750082	0.014483	0.880846
C129	C	0.000107	-1.092457	-0.226115
C130	C	0.250107	-0.842457	0.023885
C131	C	0.500107	-0.592457	0.273885
C132	C	0.750107	-0.342457	0.523885
C133	C	0.000100	-1.090430	-0.330424
C134	C	0.250100	-0.840430	-0.080424
C135	C	0.500100	-0.590430	0.169576
C136	C	0.750100	-0.340430	0.419576
C137	C	0.000094	-1.088822	-0.413563
C138	C	0.250094	-0.838822	-0.163563
C139	C	0.500094	-0.588822	0.086437
C140	C	0.750094	-0.338822	0.336437
C141	C	0.000089	-1.086795	-0.517878
C142	C	0.250089	-0.836795	-0.267878
C143	C	0.500089	-0.586795	-0.017878
C144	C	0.750089	-0.336795	0.232122
C145	C	0.000089	-1.083191	0.296603
C146	C	0.250089	-0.833191	0.546603
C147	C	0.500089	-0.583191	0.796603
C148	C	0.750089	-0.333191	1.046603
C149	C	0.000083	-1.085187	0.398983
C150	C	0.250083	-0.835187	0.648983
C151	C	0.500083	-0.585187	0.898983
C152	C	0.750083	-0.335187	1.148983
H153	H	0.444427	-0.968992	0.248682
H154	H	0.694427	-0.718992	0.498682
H155	H	0.944427	-0.468992	0.748682
H156	H	1.194427	-0.218992	0.998682
Br157	Br	0.426894	-1.046280	-0.072808
Br158	Br	0.676894	-0.796280	0.177192
Br159	Br	0.926894	-0.546280	0.427192
Br160	Br	1.176894	-0.296280	0.677192
H161	H	0.555864	-0.935800	0.094769
H162	H	0.805864	-0.685800	0.344769
H163	H	1.055864	-0.435800	0.594769
H164	H	1.305864	-0.185800	0.844769
H165	H	0.555877	-1.122806	0.281897
H166	H	0.805877	-0.872806	0.531897
H167	H	1.055877	-0.622806	0.781897
H168	H	1.305877	-0.372806	1.031897
H169	H	0.555584	-1.210457	0.007369
H170	H	0.805584	-0.960457	0.257369
H171	H	1.055584	-0.710457	0.507369
H172	H	1.305584	-0.460457	0.757369
Br173	Br	0.427148	-1.290546	0.171611
Br174	Br	0.677148	-1.040546	0.421611
Br175	Br	0.927148	-0.790546	0.671611
Br176	Br	1.177148	-0.540546	0.921611
