data_functionalizedCrystal
_audit_creation_method	'MofGen! by Chris Wilmer'
_symmetry_space_group_name_H-M	'P1'
_symmetry_Int_Tables_number	1
_symmetry_cell_setting	triclinic
loop_
_symmetry_equiv_pos_as_xyz
  x,y,z
_cell_length_a	6.817900
_cell_length_b	8.749630
_cell_length_c	10.992410
_cell_angle_alpha	92.607387
_cell_angle_beta	108.764651
_cell_angle_gamma	105.181985
loop_
_atom_site_label
_atom_site_type_symbol
_atom_site_fract_x
_atom_site_fract_y
_atom_site_fract_z
V1	V	-4.094735	-0.218805	-0.398925
O2	O	-4.073314	0.010514	-0.393048
O3	O	-4.053135	-0.433853	-0.394546
O4	O	-4.072627	-0.215439	-0.573663
O5	O	-4.053687	-0.209411	-0.212690
V6	V	-4.574074	-0.191375	-0.376850
O7	O	-4.365169	-0.278973	-0.447348
O8	O	-4.753837	-0.131207	-0.328428
O9	O	-4.392468	0.023673	-0.381230
O10	O	-4.712892	-0.420694	-0.382728
O11	O	-4.732519	-0.200769	-0.563085
O12	O	-4.372976	-0.194741	-0.202112
C13	C	-3.898939	-0.486277	-0.387827
C14	C	-3.946388	-0.662081	-0.385411
C15	C	-3.923802	-0.207666	-0.616307
C16	C	-3.987055	-0.206337	-0.759145
C17	C	-3.855258	-0.194229	-0.954361
C18	C	-3.789526	-0.196267	-0.805862
C19	C	-4.171165	-0.362267	-0.835061
C20	C	-4.235601	-0.360888	-0.983638
C21	C	-4.140295	-0.058952	-0.947908
C22	C	-4.069651	-0.058212	-0.798901
C23	C	-4.210005	0.076089	-0.387945
C24	C	-4.141795	0.251892	-0.390369
C25	C	-4.185142	-0.202519	-0.159462
C26	C	-4.101127	-0.203840	-0.016622
H27	H	-3.651070	-0.084147	-0.753376
H28	H	-4.272794	-0.687265	-0.396469
C29	C	-4.479824	-0.379192	-1.041102
H30	H	-4.520820	-0.378465	-1.132209
H31	H	-4.558970	-0.477446	-1.024023
H32	H	-4.510340	-0.292937	-1.002532
H33	H	-4.115595	-0.472243	-0.808617
H34	H	-4.210255	-0.470595	-1.029072
H35	H	-3.815389	-0.722935	-0.379325
C36	C	-3.809006	-0.334865	-1.018101
H37	H	-3.660108	-0.328149	-0.979925
H38	H	-3.895142	-0.432988	-1.005237
H39	H	-3.843208	-0.330201	-1.108472
C40	C	-3.710515	-0.041738	-0.980972
H41	H	-3.798726	0.017434	-1.030298
H42	H	-3.615921	0.021875	-0.900920
H43	H	-3.627625	-0.070452	-1.028149
C44	C	-3.699574	-0.338856	-0.771244
H45	H	-3.703128	-0.395771	-0.847989
H46	H	-3.554442	-0.300719	-0.712709
H47	H	-3.785697	-0.408074	-0.731694
H48	H	-4.318773	-0.064619	-0.988705
C49	C	-4.372740	-0.379848	-0.796014
H50	H	-4.346340	-0.292041	-0.732911
H51	H	-4.493125	-0.381591	-0.870346
H52	H	-4.403088	-0.476754	-0.760668
H53	H	-4.047940	0.059458	-0.969169
C54	C	-3.890032	0.097620	-0.729368
H55	H	-3.765221	0.072531	-0.676322
H56	H	-3.854497	0.159926	-0.792011
H57	H	-3.939558	0.156527	-0.676846
H58	H	-4.211928	-0.056381	-0.766403
