data_functionalizedCrystal
_audit_creation_method	'MofGen! by Chris Wilmer'
_symmetry_space_group_name_H-M	'P1'
_symmetry_Int_Tables_number	1
_symmetry_cell_setting	triclinic
loop_
_symmetry_equiv_pos_as_xyz
  x,y,z
_cell_length_a	16.992694
_cell_length_b	16.992695
_cell_length_c	13.448316
_cell_angle_alpha	89.993283
_cell_angle_beta	89.999033
_cell_angle_gamma	90.668223
loop_
_atom_site_label
_atom_site_type_symbol
_atom_site_fract_x
_atom_site_fract_y
_atom_site_fract_z
O1	O	1.050853	0.166919	-0.082568
O2	O	0.822453	0.165087	-0.082597
O3	O	0.935737	0.051803	-0.082575
O4	O	0.937569	0.280203	-0.082591
O5	O	0.935722	0.051795	0.082809
O6	O	0.822437	0.165079	0.082786
O7	O	1.050837	0.166910	0.082816
Cu8	Cu	0.936636	0.165994	0.097902
Cu9	Cu	0.936654	0.166004	-0.097684
O10	O	0.937553	0.280195	0.082793
C11	C	0.793085	0.162727	0.000091
C12	C	0.705600	0.155699	0.000080
C13	C	0.659610	0.223517	0.000076
C14	C	0.577409	0.216908	0.000090
C15	C	0.541201	0.142480	0.000101
C16	C	0.587198	0.074657	0.000108
C17	C	0.669397	0.081267	0.000101
C18	C	0.295886	0.115086	0.000129
C19	C	0.213681	0.108481	0.000134
C20	C	0.203898	0.250732	0.000118
C21	C	0.286099	0.257335	0.000105
C22	C	0.332089	0.189512	0.000117
N23	N	0.457178	0.135723	0.000112
N24	N	0.416110	0.196270	0.000112
C25	C	0.933374	0.022439	0.000116
C26	C	0.926345	-0.065046	0.000115
C27	C	0.994163	-0.111037	0.000125
C28	C	0.987554	-0.193238	0.000115
C29	C	0.913127	-0.229446	0.000102
C30	C	0.845303	-0.183449	0.000089
C31	C	0.851913	-0.101250	0.000092
C32	C	0.885732	-0.474760	0.000085
C33	C	0.879127	-0.556966	0.000084
C34	C	1.021379	-0.566749	0.000108
C35	C	1.027982	-0.484547	0.000117
C36	C	0.960159	-0.438558	0.000099
N37	N	0.906369	-0.313468	0.000095
N38	N	0.966917	-0.354537	0.000100
C39	C	1.080205	0.169270	0.000125
C40	C	1.167690	0.176299	0.000130
C41	C	0.939917	0.309559	0.000100
C42	C	0.946945	0.397044	0.000094
N43	N	0.936629	0.165987	0.235466
N44	N	0.936668	0.166005	-0.235248
C45	C	0.986809	0.115847	0.287516
C46	C	0.986814	0.115847	0.391620
C47	C	0.936642	0.165991	0.443671
C48	C	0.886456	0.216132	0.391613
C49	C	0.886448	0.216128	0.287512
C50	C	0.886478	0.216139	0.608593
C51	C	0.886487	0.216144	0.712702
C52	C	0.986844	0.115858	0.712701
C53	C	0.986836	0.115854	0.608600
C54	C	0.936651	0.165997	0.556549
H55	H	0.184203	0.047870	0.000141
H56	H	0.689084	0.284124	0.000066
H57	H	1.027674	0.075019	0.433999
H58	H	0.845601	0.256957	0.433999
H59	H	0.539966	0.272133	0.000086
O60	O	1.035598	0.067072	0.558190
C61	C	1.079908	0.022829	0.626450
H62	H	1.047588	0.019897	0.700665
H63	H	1.087978	-0.039278	0.596379
H64	H	1.139986	0.052089	0.637504
O65	O	0.321143	0.329695	0.000144
C66	C	0.262922	0.388138	0.000119
H67	H	0.205763	0.362576	0.031436
H68	H	0.283253	0.439789	0.048129
H69	H	0.252673	0.409308	-0.079225
H70	H	0.845631	0.256976	0.755077
H71	H	1.027706	0.075030	0.755087
O72	O	0.837706	0.264923	0.558184
C73	C	0.793412	0.309171	0.626446
H74	H	0.825746	0.312102	0.700649
H75	H	0.785341	0.371278	0.596357
H76	H	0.733335	0.279916	0.637530
O77	O	0.552116	0.002315	-0.000016
C78	C	0.575163	-0.039327	-0.085680
H79	H	0.633454	-0.014304	-0.114239
H80	H	0.582452	-0.104168	-0.066412
H81	H	0.528222	-0.033183	-0.145657
O82	O	0.837680	0.264910	0.237101
C83	C	0.793385	0.309156	0.305363
H84	H	0.825720	0.312091	0.379564
H85	H	0.785307	0.371261	0.275271
H86	H	0.733310	0.279896	0.316451
O87	O	1.053374	-0.237999	0.000256
C88	C	1.053805	-0.285840	0.085916
H89	H	0.991059	-0.293907	0.114462
H90	H	1.079258	-0.345712	0.066648
H91	H	1.091446	-0.256589	0.145903
O92	O	0.340437	0.049125	0.000093
C93	C	0.290848	-0.017981	0.000126
H94	H	0.230821	-0.001836	-0.031187
H95	H	0.318018	-0.065817	-0.047883
H96	H	0.283608	-0.040553	0.079472
O97	O	0.772943	-0.218493	0.000029
C98	C	0.714503	-0.160270	0.000043
H99	H	0.740070	-0.103107	-0.031262
H100	H	0.662856	-0.180592	-0.047982
H101	H	0.693326	-0.150031	0.079382
H102	H	0.706842	0.026042	0.000103
H103	H	0.166444	0.305950	0.000110
H104	H	1.054770	-0.081563	0.000142
O105	O	1.100342	-0.449504	0.000089
C106	C	1.158785	-0.507724	0.000125
H107	H	1.133230	-0.564880	-0.031199
H108	H	1.210447	-0.487388	-0.047873
H109	H	1.179935	-0.517983	0.079473
O110	O	1.087178	-0.611540	0.000073
C111	C	1.065389	-0.691856	0.000092
H112	H	1.003364	-0.698875	-0.031225
H113	H	1.108305	-0.726214	-0.047921
H114	H	1.066880	-0.715424	0.079434
H115	H	0.830505	-0.437325	0.000070
O116	O	0.806764	-0.592013	0.000017
C117	C	0.748317	-0.533796	0.000022
H118	H	0.773882	-0.476631	-0.031280
H119	H	0.696676	-0.554123	-0.048010
H120	H	0.727133	-0.523558	0.079358
O121	O	0.786115	-0.056455	0.000042
C122	C	0.807907	0.023860	0.000070
H123	H	0.869939	0.030883	-0.031230
H124	H	0.765002	0.058230	-0.047953
H125	H	0.806402	0.047411	0.079413
O126	O	1.035572	0.067063	0.237113
C127	C	1.079876	0.022823	0.305382
H128	H	1.047552	0.019896	0.379594
H129	H	1.087947	-0.039286	0.275318
H130	H	1.139954	0.052081	0.316440
