data_functionalizedCrystal
_audit_creation_method	'MofGen! by Chris Wilmer'
_symmetry_space_group_name_H-M	'P1'
_symmetry_Int_Tables_number	1
_symmetry_cell_setting	triclinic
loop_
_symmetry_equiv_pos_as_xyz
  x,y,z
_cell_length_a	10.654550
_cell_length_b	11.792241
_cell_length_c	9.130313
_cell_angle_alpha	89.998583
_cell_angle_beta	89.996220
_cell_angle_gamma	84.339159
loop_
_atom_site_label
_atom_site_type_symbol
_atom_site_fract_x
_atom_site_fract_y
_atom_site_fract_z
O1	O	1.667383	0.159415	-0.121920
O2	O	1.301862	0.174603	-0.121897
O3	O	1.493493	0.001859	-0.121899
O4	O	1.475752	0.332159	-0.121918
O5	O	1.493490	0.001864	0.121700
O6	O	1.301859	0.174608	0.121702
O7	O	1.667381	0.159419	0.121678
Cu8	Cu	1.484620	0.167014	0.143933
Cu9	Cu	1.484623	0.167008	-0.144151
O10	O	1.475750	0.332164	0.121680
C11	C	1.255066	0.173490	-0.000095
C12	C	1.115632	0.170154	-0.000085
C13	C	1.035858	0.271863	-0.000113
C14	C	0.904847	0.268721	-0.000138
C15	C	0.933394	0.062152	-0.000114
C16	C	1.064404	0.065295	-0.000079
C17	C	1.087087	0.376722	-0.000119
C18	C	1.007312	0.478439	-0.000148
C19	C	0.876300	0.475297	-0.000173
C20	C	0.825063	0.370438	-0.000170
C21	C	1.492377	-0.040432	-0.000100
C22	C	1.489042	-0.166454	-0.000101
C23	C	1.482908	-0.397180	-0.000125
C24	C	1.486316	-0.268787	-0.000112
C25	C	1.714177	0.160532	-0.000127
C26	C	1.853611	0.163869	-0.000146
C27	C	1.476865	0.374455	-0.000122
C28	C	1.480201	0.500476	-0.000130
N29	N	1.484627	0.167017	0.346555
N30	N	1.484625	0.166996	-0.346774
C31	C	1.569503	0.090552	0.423206
C32	C	1.569500	0.090539	0.576543
C33	C	1.399740	0.243465	0.576564
C34	C	1.399739	0.243472	0.423230
C35	C	1.654392	0.014097	0.346531
C36	C	1.739275	-0.062373	0.423182
C37	C	1.739272	-0.062387	0.576519
C38	C	1.654385	0.014070	0.653205
H39	H	0.811350	0.558120	-0.000182
O40	O	1.317119	0.317620	0.650989
C41	C	1.099205	0.382333	0.697872
C42	C	1.192632	0.298267	0.613524
H43	H	0.998539	0.366732	0.667590
H44	H	1.113680	0.369192	0.820648
H45	H	1.116245	0.473375	0.667747
H46	H	1.175650	0.207192	0.643527
H47	H	1.178135	0.311507	0.490769
H48	H	1.193762	0.379291	-0.000106
O49	O	1.821774	-0.136750	0.348924
C50	C	1.990200	-0.288389	0.365089
C51	C	1.896818	-0.204233	0.449363
H52	H	2.050916	-0.342955	0.446257
H53	H	1.935668	-0.345622	0.293337
H54	H	2.053211	-0.238828	0.293266
H55	H	1.833785	-0.253702	0.521266
H56	H	1.951429	-0.147000	0.521023
H57	H	1.049039	0.563812	-0.000139
O58	O	1.317422	0.317909	0.348825
C59	C	1.245110	0.514651	0.301969
C60	C	1.338429	0.430482	0.386300
H61	H	1.262044	0.605684	0.332260
H62	H	1.259691	0.501616	0.179191
H63	H	1.144436	0.498953	0.332103
H64	H	1.439140	0.446129	0.356289
H65	H	1.323738	0.443537	0.509058
H66	H	1.654381	0.014045	0.778062
O67	O	0.883565	-0.039673	-0.000384
C68	C	0.752188	-0.163071	-0.126583
C69	C	0.808557	-0.047726	-0.126470
H70	H	0.691511	-0.169610	-0.228497
H71	H	0.831660	-0.235275	-0.126652
H72	H	0.691590	-0.169688	-0.024610
H73	H	0.869142	-0.040998	-0.228425
H74	H	0.729026	0.024422	-0.126324
O75	O	1.141724	-0.033610	-0.000130
C76	C	1.156225	-0.238830	-0.000041
C77	C	1.068516	-0.126905	-0.000021
H78	H	1.097072	-0.314288	0.000078
H79	H	1.218274	-0.242598	-0.101995
H80	H	1.218276	-0.242456	0.101896
H81	H	1.006387	-0.123204	-0.101889
H82	H	1.006552	-0.123184	0.102001
H83	H	0.718383	0.367888	-0.000167
H84	H	1.654404	0.014104	0.221677
H85	H	1.808379	-0.124659	0.638927
