data_functionalizedCrystal
_audit_creation_method	'MofGen! by Chris Wilmer'
_symmetry_space_group_name_H-M	'P1'
_symmetry_Int_Tables_number	1
_symmetry_cell_setting	triclinic
loop_
_symmetry_equiv_pos_as_xyz
  x,y,z
_cell_length_a	6.817900
_cell_length_b	9.582880
_cell_length_c	9.582889
_cell_angle_alpha	89.899755
_cell_angle_beta	111.207298
_cell_angle_gamma	111.207034
loop_
_atom_site_label
_atom_site_type_symbol
_atom_site_fract_x
_atom_site_fract_y
_atom_site_fract_z
V1	V	4.156354	0.466328	0.206425
V2	V	4.656354	0.966328	0.706425
O3	O	4.100353	0.457733	-0.010569
O4	O	4.600353	0.957733	0.489431
O5	O	4.146464	0.462868	0.409930
O6	O	4.646464	0.962868	0.909930
O7	O	4.146462	0.669834	0.202964
O8	O	4.646462	1.169834	0.702964
O9	O	4.100354	0.249334	0.197829
O10	O	4.600354	0.749334	0.697829
V11	V	4.630003	0.440407	0.180503
V12	V	5.130003	0.940407	0.680503
O13	O	4.439274	0.523189	0.263285
O14	O	4.939274	1.023189	0.763285
O15	O	4.797280	0.383546	0.123643
O16	O	5.297280	0.883546	0.623643
O17	O	4.416687	0.443867	-0.023002
O18	O	4.916687	0.943867	0.476998
O19	O	4.803401	0.449002	0.397497
O20	O	5.303401	0.949002	0.897497
O21	O	4.803400	0.657401	0.189099
O22	O	5.303400	1.157401	0.689099
O23	O	4.416688	0.236901	0.183964
O24	O	4.916688	0.736901	0.683964
C25	C	3.999583	0.719445	0.195542
C26	C	4.499583	1.219445	0.695542
C27	C	4.073034	0.885810	0.194059
C28	C	4.573034	1.385810	0.694059
C29	C	4.226906	0.451290	-0.072614
C30	C	4.726906	0.951290	0.427386
C31	C	4.132690	0.452772	-0.238979
C32	C	4.632690	0.952772	0.261021
C33	C	3.999587	0.455441	0.459550
C34	C	4.499587	0.955441	0.959550
C35	C	4.073043	0.453968	0.625916
C36	C	4.573043	0.953968	1.125916
C37	C	4.226909	0.187282	0.191391
C38	C	4.726909	0.687282	0.691391
C39	C	4.132695	0.020916	0.192866
C40	C	4.632695	0.520916	0.692866
