data_functionalizedCrystal
_audit_creation_method	'MofGen! by Chris Wilmer'
_symmetry_space_group_name_H-M	'P1'
_symmetry_Int_Tables_number	1
_symmetry_cell_setting	triclinic
loop_
_symmetry_equiv_pos_as_xyz
  x,y,z
_cell_length_a	10.489741
_cell_length_b	11.026607
_cell_length_c	10.065875
_cell_angle_alpha	79.268236
_cell_angle_beta	81.160533
_cell_angle_gamma	83.437405
loop_
_atom_site_label
_atom_site_type_symbol
_atom_site_fract_x
_atom_site_fract_y
_atom_site_fract_z
O1	O	1.746394	-0.153833	-0.113555
O2	O	1.378739	-0.169938	-0.113544
O3	O	1.532095	0.015033	-0.113544
O4	O	1.593038	-0.338804	-0.113555
O5	O	1.502885	-0.020381	0.113445
O6	O	1.349529	-0.205352	0.113445
O7	O	1.717184	-0.189247	0.113434
Zn8	Zn	1.528719	-0.202923	0.149479
Zn9	Zn	1.567204	-0.156263	-0.149589
O10	O	1.563828	-0.374218	0.113433
C11	C	1.316335	-0.186429	-0.000048
C12	C	1.173904	-0.182791	-0.000043
C13	C	1.506248	0.042635	-0.000050
C14	C	1.472733	0.177643	-0.000054
C15	C	1.779589	-0.172756	-0.000065
C16	C	1.922020	-0.176392	-0.000079
C17	C	2.016048	-0.294086	-0.000068
C18	C	2.110346	-0.221029	-0.111979
C19	C	2.081507	-0.255917	0.111814
C20	C	2.014455	-0.103273	-0.112082
C21	C	1.985597	-0.138193	0.111812
C22	C	2.079853	-0.065047	-0.000126
C23	C	1.589676	-0.401820	-0.000063
C24	C	1.623191	-0.536826	-0.000068
N25	N	1.502463	-0.234766	0.353584
C26	C	1.565274	0.250640	-0.000059
C27	C	1.530637	0.390178	-0.000063
N28	N	1.593469	-0.124410	-0.353694
C29	C	1.558059	-0.167334	0.421363
C30	C	1.537864	-0.191851	0.578530
H31	H	2.164497	-0.256068	-0.206593
O32	O	1.667741	-0.033602	0.576732
C33	C	1.592193	0.054632	0.494325
H34	H	1.506357	0.009997	0.472944
H35	H	1.653807	0.089456	0.393828
H36	H	1.555326	0.135791	0.549563
H37	H	1.439907	-0.310643	0.411910
H38	H	1.987700	-0.390833	-0.000185
H39	H	1.984872	-0.038743	-0.206807
O40	O	2.113385	0.050562	-0.000427
C41	C	2.079328	0.130579	-0.118562
H42	H	2.072596	0.073871	-0.200671
H43	H	2.156206	0.198669	-0.157613
H44	H	1.981646	0.183899	-0.092933
O45	O	1.405576	0.439035	-0.000004
C46	C	1.398837	0.567483	-0.000046
H47	H	1.486261	0.589569	0.042924
H48	H	1.306196	0.596909	0.065852
H49	H	1.398603	0.619836	-0.108947
O50	O	1.463125	-0.282240	0.648247
C51	C	1.358575	-0.229436	0.730896
H52	H	1.384634	-0.137948	0.752151
H53	H	1.337307	-0.295637	0.831441
H54	H	1.269243	-0.212026	0.675933
O55	O	2.117138	-0.332792	0.224736
C56	C	2.173605	-0.265136	0.302835
H57	H	2.212095	-0.178908	0.234439
H58	H	2.256763	-0.325361	0.349470
H59	H	2.097622	-0.236433	0.387746
H60	H	1.670142	0.209832	-0.000054
O61	O	1.921020	-0.096644	0.224831
C62	C	1.954877	-0.177365	0.342604
H63	H	1.991377	-0.272405	0.315788
H64	H	1.866255	-0.186390	0.423813
H65	H	2.034372	-0.138574	0.383445
H66	H	1.367865	0.218451	-0.000060
O67	O	1.748361	0.414608	-0.000310
C68	C	1.824671	0.472084	-0.117853
H69	H	1.760438	0.511973	-0.200021
H70	H	1.901671	0.400855	-0.157312
H71	H	1.873609	0.549899	-0.091275
O72	O	1.632555	-0.076773	0.351612
C73	C	1.557291	0.011526	0.268961
H74	H	1.471236	-0.032891	0.247747
H75	H	1.619024	0.045929	0.168396
H76	H	1.520755	0.092938	0.323901
