data_functionalizedCrystal
_audit_creation_method	'MofGen! by Chris Wilmer'
_symmetry_space_group_name_H-M	'P1'
_symmetry_Int_Tables_number	1
_symmetry_cell_setting	triclinic
loop_
_symmetry_equiv_pos_as_xyz
  x,y,z
_cell_length_a	21.295418
_cell_length_b	21.295417
_cell_length_c	17.077395
_cell_angle_alpha	89.969115
_cell_angle_beta	89.965068
_cell_angle_gamma	90.045515
loop_
_atom_site_label
_atom_site_type_symbol
_atom_site_fract_x
_atom_site_fract_y
_atom_site_fract_z
Zn1	Zn	0.962305	-0.250351	-0.444227
Zn2	Zn	0.962225	-0.355622	-0.312952
Zn3	Zn	0.857044	-0.250400	-0.312931
Zn4	Zn	0.856999	-0.355616	-0.444132
O5	O	0.909643	-0.302997	-0.378560
O6	O	1.050383	-0.264298	-0.426862
O7	O	0.948258	-0.341687	-0.203103
O8	O	0.871059	-0.162304	-0.330378
O9	O	1.050325	-0.341640	-0.330415
O10	O	0.948394	-0.162268	-0.426841
O11	O	0.870982	-0.264381	-0.203087
O12	O	0.768949	-0.264374	-0.330286
O13	O	0.870982	-0.341629	-0.553991
O14	O	0.768915	-0.341676	-0.426679
O15	O	0.948350	-0.264292	-0.554061
O16	O	0.948214	-0.443711	-0.330323
O17	O	0.870905	-0.443706	-0.426700
C18	C	0.746091	-0.303030	-0.378470
C19	C	0.676123	-0.303060	-0.378450
C20	C	0.643256	-0.343364	-0.428567
C21	C	0.577513	-0.343348	-0.428602
C22	C	0.544641	-0.303035	-0.378507
C23	C	0.577516	-0.262723	-0.328386
C24	C	0.643257	-0.262735	-0.328358
N25	N	0.441373	-0.298118	-0.309850
N26	N	0.378922	-0.298110	-0.309879
C27	C	0.346566	-0.302995	-0.378590
N28	N	0.379021	-0.307901	-0.447272
N29	N	0.441478	-0.307912	-0.447242
C30	C	0.473355	-0.303017	-0.378532
C31	C	0.242413	-0.343285	-0.428749
C32	C	0.176669	-0.343265	-0.428786
C33	C	0.176674	-0.262643	-0.328563
C34	C	0.242416	-0.262659	-0.328533
C35	C	0.275282	-0.302984	-0.378625
C36	C	0.909563	-0.466549	-0.378521
C37	C	0.909586	-0.536517	-0.378530
C38	C	0.949831	-0.569308	-0.428794
C39	C	0.949853	-0.635050	-0.428813
C40	C	0.909637	-0.667999	-0.378555
C41	C	0.869384	-0.635201	-0.328287
C42	C	0.869359	-0.569459	-0.328275
N43	N	0.904886	-0.771263	-0.309855
N44	N	0.904914	-0.833714	-0.309869
C45	C	0.909711	-0.866074	-0.378590
N46	N	0.914491	-0.833623	-0.447299
N47	N	0.914466	-0.771166	-0.447284
C48	C	0.909660	-0.739285	-0.378563
C49	C	0.949982	-0.970151	-0.428879
C50	C	0.950000	-1.035894	-0.428900
C51	C	0.869534	-1.036043	-0.328367
C52	C	0.869513	-0.970301	-0.328353
C53	C	0.909740	-0.937358	-0.378608
C54	C	1.073833	-0.302964	-0.378652
C55	C	1.143801	-0.302950	-0.378690
C56	C	0.909670	-0.302954	-0.583305
C57	C	0.909682	-0.302936	-0.670555
C58	C	0.909741	-0.138807	-0.378618
C59	C	0.909782	-0.068839	-0.378642
C60	C	0.950037	-0.262581	-1.046407
C61	C	0.950024	-0.262603	-0.964426
C62	C	0.909733	-0.302877	-0.923404
C63	C	0.869458	-0.343135	-0.964366
C64	C	0.869474	-0.343116	-1.046345
C65	C	0.869425	-0.343171	-0.793496
C66	C	0.869407	-0.343190	-0.711511
C67	C	0.949975	-0.262659	-0.711577
C68	C	0.949991	-0.262640	-0.793556
C69	C	0.909715	-0.302897	-0.834513
C70	C	0.909652	-0.302994	-0.174613
C71	C	0.909763	-0.302835	-0.087363
H72	H	0.982585	-0.542488	-0.469717
O73	O	0.989118	-0.938120	-0.477591
C74	C	1.029779	-0.900059	-0.432962
H75	H	1.033710	-0.919900	-0.371147
H76	H	1.078207	-0.899244	-0.461433
H77	H	1.010302	-0.850259	-0.430217
H78	H	0.836638	-0.662032	-0.287368
O79	O	0.989157	-1.067652	-0.477753
C80	C	1.024645	-1.024475	-0.522114
H81	H	1.026820	-0.977628	-0.489956
H82	H	1.074246	-1.043408	-0.530559
H83	H	1.001567	-1.017477	-0.581699
H84	H	0.836655	-0.375929	-0.930959
H85	H	0.149910	-0.376084	-0.469602
H86	H	0.836585	-0.375970	-0.678113
O87	O	0.675150	-0.382462	-0.477344
C88	C	0.659142	-0.368793	-0.555615
H89	H	0.641124	-0.318504	-0.559699
H90	H	0.702397	-0.374265	-0.594370
H91	H	0.620962	-0.402555	-0.576069
H92	H	0.836785	-1.062870	-0.287450
H93	H	0.982620	-0.661754	-0.469754
H94	H	0.149909	-0.229816	-0.287778
O95	O	0.274250	-0.223492	-0.279769
C96	C	0.231141	-0.187894	-0.235574
H97	H	0.184251	-0.213666	-0.232817
H98	H	0.250096	-0.181118	-0.173735
H99	H	0.224219	-0.140114	-0.264433
H100	H	0.836744	-0.943600	-0.287420
H101	H	0.550747	-0.376169	-0.469416
H102	H	0.982797	-0.229843	-0.826955
O103	O	0.989184	-0.223585	-0.671873
C104	C	1.051924	-0.237326	-0.691905
H105	H	1.053236	-0.261504	-0.751424
H106	H	1.080173	-0.191885	-0.694724
H107	H	1.073096	-0.269698	-0.645767
H108	H	0.269174	-0.376116	-0.469541
O109	O	0.830245	-0.537700	-0.279369
C110	C	0.794738	-0.580876	-0.235029
H111	H	0.820538	-0.627711	-0.232360
H112	H	0.788047	-0.561923	-0.173167
H113	H	0.746917	-0.587905	-0.263703
H114	H	0.982842	-0.229782	-1.079802
H115	H	0.982821	-0.229826	-0.931083
H116	H	0.550747	-0.229899	-0.287600
O117	O	0.830241	-0.382298	-0.833161
C118	C	0.794685	-0.417858	-0.779376
H119	H	0.792511	-0.392089	-0.720945
H120	H	0.745088	-0.424573	-0.803038
H121	H	0.817703	-0.465666	-0.770654
O122	O	0.830382	-0.382305	-1.086046
C123	C	0.844106	-0.445047	-1.066013
H124	H	0.868291	-0.446360	-1.006501
H125	H	0.798658	-0.473282	-1.063180
H126	H	0.876467	-0.466233	-1.112159
O127	O	0.675091	-0.223565	-0.279594
C128	C	0.631983	-0.187965	-0.235400
H129	H	0.585091	-0.213734	-0.232646
H130	H	0.650936	-0.181191	-0.173559
H131	H	0.625065	-0.140184	-0.264258
