data_functionalizedCrystal
_audit_creation_method	'MofGen! by Chris Wilmer'
_symmetry_space_group_name_H-M	'P1'
_symmetry_Int_Tables_number	1
_symmetry_cell_setting	triclinic
loop_
_symmetry_equiv_pos_as_xyz
  x,y,z
_cell_length_a	17.019282
_cell_length_b	19.188924
_cell_length_c	18.266242
_cell_angle_alpha	90.007204
_cell_angle_beta	86.127719
_cell_angle_gamma	83.265903
loop_
_atom_site_label
_atom_site_type_symbol
_atom_site_fract_x
_atom_site_fract_y
_atom_site_fract_z
O1	O	1.046371	0.088902	-0.005108
O2	O	1.546371	0.588902	0.494892
O3	O	0.816667	0.100256	0.009381
O4	O	1.316667	0.600256	0.509381
O5	O	0.938151	-0.007066	0.001710
O6	O	1.438151	0.492934	0.501710
O7	O	0.924888	0.196224	0.002563
O8	O	1.424888	0.696224	0.502563
O9	O	0.938130	-0.007069	-0.120051
O10	O	1.438130	0.492931	0.379949
O11	O	0.816647	0.100253	-0.112380
O12	O	1.316647	0.600253	0.387620
O13	O	1.046351	0.088899	-0.126869
O14	O	1.546351	0.588899	0.373131
Zn15	Zn	0.931495	0.094575	-0.138956
Zn16	Zn	1.431495	0.594575	0.361044
Zn17	Zn	0.931523	0.094579	0.021469
Zn18	Zn	1.431523	0.594579	0.521469
O19	O	0.924867	0.196221	-0.119197
O20	O	1.424867	0.696221	0.380803
C21	C	0.787270	0.099826	-0.049646
C22	C	1.287270	0.599826	0.450354
C23	C	0.699704	0.098540	-0.044123
C24	C	1.199704	0.598540	0.455877
C25	C	0.658559	0.097932	-0.107902
C26	C	1.158559	0.597932	0.392098
C27	C	0.576284	0.096713	-0.102714
C28	C	1.076284	0.596713	0.397286
C29	C	0.535154	0.096106	-0.033748
C30	C	1.035154	0.596106	0.466252
C31	C	0.576305	0.096711	0.030036
C32	C	1.076305	0.596711	0.530036
C33	C	0.658580	0.097926	0.024848
C34	C	1.158580	0.597926	0.524848
C35	C	0.286739	0.092435	-0.014763
C36	C	0.786739	0.592435	0.485237
C37	C	0.204459	0.091223	-0.009580
C38	C	0.704459	0.591223	0.490420
C39	C	0.204443	0.091223	-0.142331
C40	C	0.704443	0.591223	0.357669
C41	C	0.286719	0.092441	-0.147512
C42	C	0.786719	0.592441	0.352488
C43	C	0.327863	0.093043	-0.083729
C44	C	0.827863	0.593043	0.416271
C45	C	0.451055	0.094862	-0.028444
C46	C	0.951055	0.594862	0.471556
C47	C	0.411961	0.094282	-0.089034
C48	C	0.911961	0.594282	0.410966
C49	C	0.937712	-0.033079	-0.059144
C50	C	1.437712	0.466921	0.440856
C51	C	0.936425	-0.110586	-0.059065
C52	C	1.436425	0.389414	0.440935
C53	C	0.935836	-0.146984	0.007345
C54	C	1.435836	0.353016	0.507345
C55	C	0.934616	-0.219809	0.007427
C56	C	1.434616	0.280191	0.507427
C57	C	0.934001	-0.256235	-0.058905
C58	C	1.434001	0.243765	0.441095
C59	C	0.934586	-0.219827	-0.125323
C60	C	1.434586	0.280173	0.374677
C61	C	0.935798	-0.147003	-0.125403
C62	C	1.435798	0.352997	0.374597
N63	N	0.976980	-0.375828	-0.111014
N64	N	1.476980	0.124172	0.388986
N65	N	0.975830	-0.445008	-0.110934
N66	N	1.475830	0.054992	0.389066
C67	C	0.930347	-0.475650	-0.058667
C68	C	1.430347	0.024350	0.441333
N69	N	0.886068	-0.434499	-0.006474
N70	N	1.386068	0.065501	0.493526
N71	N	0.887221	-0.365313	-0.006553
N72	N	1.387221	0.134687	0.493447
C73	C	0.932686	-0.335200	-0.058825
C74	C	1.432686	0.164800	0.441175
C75	C	0.928434	-0.591013	0.007836
C76	C	1.428434	-0.091013	0.507836
C77	C	0.927209	-0.663838	0.007917
C78	C	1.427209	-0.163838	0.507917
C79	C	0.927187	-0.663856	-0.124836
C80	C	1.427187	-0.163856	0.375164
C81	C	0.928404	-0.591031	-0.124914
C82	C	1.428404	-0.091031	0.375086
C83	C	0.929031	-0.554614	-0.058576
C84	C	1.429031	-0.054614	0.441424
C85	C	1.075748	0.089329	-0.067840
C86	C	1.575748	0.589329	0.432160
C87	C	1.163314	0.090615	-0.073358
C88	C	1.663314	0.590615	0.426642
C89	C	0.925306	0.222234	-0.058342
C90	C	1.425306	0.722234	0.441658
C91	C	0.926593	0.299741	-0.058416
C92	C	1.426593	0.799741	0.441584
N93	N	0.931483	0.094572	-0.248442
N94	N	1.431483	0.594572	0.251558
C95	C	0.979170	0.136897	-0.289749
C96	C	1.479170	0.636897	0.210251
C97	C	0.979183	0.136895	-0.366395
C98	C	1.479183	0.636895	0.133605
C99	C	0.931494	0.094577	-0.401730
C100	C	1.431494	0.594577	0.098270
C101	C	0.883804	0.052243	-0.360414
C102	C	1.383804	0.552243	0.139586
C103	C	0.883798	0.052241	-0.283770
C104	C	1.383798	0.552241	0.216230
N105	N	0.862409	0.092742	-0.517725
N106	N	1.362409	0.592742	-0.017725
N107	N	0.862416	0.092748	-0.590534
N108	N	1.362416	0.592748	-0.090534
C109	C	0.931510	0.094579	-0.632653
C110	C	1.431510	0.594579	-0.132653
N111	N	1.000596	0.096418	-0.599214
N112	N	1.500596	0.596418	-0.099214
N113	N	1.000588	0.096415	-0.526399
N114	N	1.500588	0.596415	-0.026399
C115	C	0.931495	0.094574	-0.484837
C116	C	1.431495	0.594574	0.015163
C117	C	0.979215	0.136904	-0.757069
C118	C	1.479215	0.636904	-0.257069
C119	C	0.979230	0.136897	-0.833716
C120	C	1.479230	0.636897	-0.333716
C121	C	0.883844	0.052249	-0.827733
C122	C	1.383844	0.552249	-0.327733
C123	C	0.883836	0.052252	-0.751087
C124	C	1.383836	0.552252	-0.251087
C125	C	0.931521	0.094583	-0.715760
C126	C	1.431521	0.594583	-0.215760
N127	N	0.931542	0.094577	0.130954
N128	N	1.431542	0.594577	0.630954
H129	H	0.542812	0.096212	0.086190
H130	H	1.042812	0.596212	0.586190
H131	H	0.928940	-0.561360	0.061853
H132	H	1.428940	-0.061360	0.561853
C133	C	1.031677	0.183461	-0.718206
C134	C	1.531677	0.683461	-0.218206
N135	N	1.071192	0.218528	-0.688937
N136	N	1.571192	0.718528	-0.188937
C137	C	0.159218	0.090554	0.066292
C138	C	0.659218	0.590554	0.566292
N139	N	0.125142	0.090052	0.123436
N140	N	0.625142	0.590052	0.623436
H141	H	0.936275	-0.117368	-0.179484
H142	H	1.436275	0.382632	0.320516
H143	H	0.926680	-0.693512	-0.178845
H144	H	1.426680	-0.193512	0.321155
C145	C	0.926600	-0.703881	0.080974
C146	C	1.426600	-0.203881	0.580974
N147	N	0.926158	-0.734043	0.136001
N148	N	1.426158	-0.234043	0.636001
H149	H	0.320229	0.092923	0.037174
H150	H	0.820229	0.592923	0.537174
C151	C	0.703839	0.098596	0.095010
C152	C	1.203839	0.598596	0.595010
N153	N	0.737927	0.099098	0.147858
N154	N	1.237927	0.599098	0.647858
C155	C	0.331956	0.093105	-0.223381
C156	C	0.831956	0.593105	0.276619
N157	N	0.366028	0.093606	-0.280527
N158	N	0.866028	0.593606	0.219473
H159	H	0.934083	-0.249489	-0.179331
H160	H	1.434083	0.250511	0.320669
C161	C	0.831344	0.005695	-0.399284
C162	C	1.331344	0.505695	0.100716
N163	N	0.791830	-0.029368	-0.428560
N164	N	1.291830	0.470632	0.071440
C165	C	0.457204	0.094969	-0.164895
C166	C	0.957204	0.594969	0.335105
N167	N	0.491286	0.095496	-0.222034
N168	N	0.991286	0.595496	0.277966
H169	H	0.928890	-0.561396	-0.178992
H170	H	1.428890	-0.061396	0.321008
C171	C	0.831386	0.005697	-0.866597
C172	C	1.331386	0.505697	-0.366597
N173	N	0.791876	-0.029369	-0.895873
N174	N	1.291876	0.470631	-0.395873
H175	H	0.936345	-0.117338	0.061362
H176	H	1.436345	0.382662	0.561362
H177	H	0.845001	0.017790	-0.717454
H178	H	1.345001	0.517790	-0.217454
C179	C	1.031634	0.183455	-0.250894
C180	C	1.531634	0.683455	0.249106
N181	N	1.071153	0.218519	-0.221628
N182	N	1.571153	0.718519	0.278372
H183	H	1.018016	0.171363	-0.400034
H184	H	1.518016	0.671363	0.099966
H185	H	1.018068	0.171361	-0.867347
H186	H	1.518068	0.671361	-0.367347
H187	H	0.844964	0.017775	-0.250138
H188	H	1.344964	0.517775	0.249862
H189	H	0.934131	-0.249450	0.061508
H190	H	1.434131	0.250550	0.561508
C191	C	0.703795	0.098599	-0.183771
C192	C	1.203795	0.598599	0.316229
N193	N	0.737864	0.099098	-0.240918
N194	N	1.237864	0.599098	0.259082
C195	C	0.405804	0.094198	0.047418
C196	C	0.905804	0.594198	0.547418
N197	N	0.371718	0.093697	0.104557
N198	N	0.871718	0.593697	0.604557
H199	H	0.542789	0.096207	-0.154650
H200	H	1.042789	0.596207	0.345350
C201	C	0.159179	0.090554	-0.212488
C202	C	0.659179	0.590554	0.287512
N203	N	0.125086	0.090046	-0.265333
N204	N	0.625086	0.590046	0.234667
