data_functionalizedCrystal
_audit_creation_method	'MofGen! by Chris Wilmer'
_symmetry_space_group_name_H-M	'P1'
_symmetry_Int_Tables_number	1
_symmetry_cell_setting	triclinic
loop_
_symmetry_equiv_pos_as_xyz
  x,y,z
_cell_length_a	16.109301
_cell_length_b	15.944551
_cell_length_c	14.586319
_cell_angle_alpha	89.995256
_cell_angle_beta	89.999213
_cell_angle_gamma	83.480109
loop_
_atom_site_label
_atom_site_type_symbol
_atom_site_fract_x
_atom_site_fract_y
_atom_site_fract_z
O1	O	1.103166	0.107966	-0.076184
O2	O	0.861108	0.121403	-0.076199
O3	O	0.988747	-0.007593	-0.076183
O4	O	0.975527	0.236961	-0.076200
O5	O	0.988738	-0.007595	0.076298
O6	O	0.861099	0.121401	0.076282
O7	O	1.103157	0.107964	0.076296
Cu8	Cu	0.982127	0.114682	0.090212
Cu9	Cu	0.982138	0.114685	-0.090114
O10	O	0.975518	0.236960	0.076280
C11	C	0.830129	0.120857	0.000039
C12	C	0.737833	0.119226	0.000034
C13	C	0.515584	0.191975	0.000040
C14	C	0.428863	0.190435	0.000046
C15	C	0.448688	0.037387	0.000053
C16	C	0.535407	0.038927	0.000053
C17	C	0.568853	0.116224	0.000042
C18	C	0.395412	0.113143	0.000047
C19	C	0.301386	0.111473	0.000054
C20	C	0.662885	0.117894	0.000037
C21	C	0.988194	-0.038887	0.000057
C22	C	0.986548	-0.132133	0.000058
C23	C	0.903499	-0.346962	0.000040
C24	C	0.942060	-0.407993	0.075225
C25	C	0.983572	-0.302858	0.000051
C26	C	0.942088	-0.407975	-0.075109
C27	C	0.980691	-0.467769	0.000040
C28	C	1.022155	-0.362660	0.075297
C29	C	1.022171	-0.362636	-0.075104
C30	C	1.060790	-0.423649	0.000099
C31	C	0.985229	-0.207856	0.000058
C32	C	0.979039	-0.562770	0.000039
C33	C	1.134136	0.108510	0.000056
C34	C	1.226432	0.110141	0.000055
C35	C	0.976071	0.268254	0.000038
C36	C	0.977717	0.361500	0.000031
N37	N	0.982126	0.114680	0.217044
N38	N	0.982146	0.114680	-0.216946
C39	C	1.038663	0.057580	0.452057
C40	C	1.038666	0.057578	0.548038
C41	C	0.925602	0.171783	0.548034
C42	C	0.925597	0.171780	0.452054
C43	C	0.982132	0.114680	0.404068
C44	C	0.982140	0.114680	0.596029
C45	C	0.982142	0.114679	0.700096
C46	C	0.982129	0.114680	0.299995
H47	H	0.542812	0.254914	0.000037
H48	H	1.084696	0.011085	0.412989
O49	O	1.062433	-0.338508	-0.150954
C50	C	1.007751	-0.281392	-0.202481
H51	H	0.956471	-0.250117	-0.155883
H52	H	0.978460	-0.316846	-0.259709
C53	C	1.119843	-0.251768	-0.301639
C54	C	1.056864	-0.213350	-0.244405
H55	H	1.150137	-0.209798	-0.327503
H56	H	1.156683	-0.290250	-0.266927
H57	H	1.095424	-0.281312	-0.349321
H58	H	1.081284	-0.183816	-0.196717
H59	H	1.020029	-0.174861	-0.279110
H60	H	0.385495	0.252119	0.000045
H61	H	0.837035	-0.313632	0.000111
O62	O	0.870658	0.227136	0.594752
C63	C	0.819359	0.182138	0.650266
H64	H	0.852469	0.116419	0.664648
H65	H	0.757911	0.176414	0.613286
C66	C	0.760936	0.310211	0.723769
C67	C	0.801605	0.229496	0.741440
H68	H	0.749981	0.339425	0.780008
H69	H	0.795495	0.340528	0.686366
H70	H	0.709734	0.305430	0.692950
H71	H	0.852810	0.234278	0.772248
H72	H	0.767054	0.199181	0.778851
H73	H	0.421446	-0.025546	0.000067
O74	O	0.870648	0.227332	0.405574
C75	C	0.820741	0.277721	0.468506
H76	H	0.854828	0.278687	0.536921
H77	H	0.758982	0.250429	0.478723
C78	C	0.761739	0.367142	0.347002
C79	C	0.803609	0.368334	0.431028
H80	H	0.751167	0.423035	0.323883
H81	H	0.795360	0.333193	0.304602
H82	H	0.710278	0.344395	0.355527
H83	H	0.855073	0.391071	0.422500
H84	H	0.769996	0.402289	0.473426
O85	O	0.587040	-0.034740	0.000014
C86	C	0.538927	-0.103294	0.000038
H87	H	0.474204	-0.081962	-0.028833
H88	H	0.532751	-0.126990	0.073192
C89	C	0.661635	-0.201187	-0.024294
C90	C	0.582144	-0.174988	-0.059761
H91	H	0.688295	-0.245413	-0.061178
H92	H	0.694051	-0.155001	-0.024307
H93	H	0.656478	-0.220927	0.036667
H94	H	0.587304	-0.155238	-0.120716
H95	H	0.549730	-0.221172	-0.059760
H96	H	0.908189	-0.428091	0.138783
H97	H	1.084697	0.011082	0.587108
O98	O	1.140205	-0.463096	0.000200
C99	C	1.197189	-0.402201	0.000971
H100	H	1.165334	-0.340457	0.030194
H101	H	1.218970	-0.391279	-0.071984
C102	C	1.312165	-0.509678	0.024995
C103	C	1.273042	-0.433845	0.060895
H104	H	1.358957	-0.529198	0.061955
H105	H	1.273775	-0.550705	0.024472
H106	H	1.330309	-0.500566	-0.035800
H107	H	1.254890	-0.442960	0.121684
H108	H	1.311431	-0.392820	0.061429
O109	O	1.062464	-0.338686	0.151185
C110	C	1.063513	-0.250389	0.150282
H111	H	1.010145	-0.220174	0.105722
H112	H	1.125593	-0.234655	0.121221
C113	C	1.118437	-0.253116	0.303476
C114	C	1.052885	-0.216005	0.248752
H115	H	1.111885	-0.231906	0.364217
H116	H	1.117734	-0.312604	0.304083
H117	H	1.170164	-0.240001	0.279247
H118	H	1.001161	-0.229129	0.272975
H119	H	1.053580	-0.156518	0.248151
H120	H	0.908213	-0.428039	-0.138677
