data_functionalizedCrystal
_audit_creation_method	'MofGen! by Chris Wilmer'
_symmetry_space_group_name_H-M	'P1'
_symmetry_Int_Tables_number	1
_symmetry_cell_setting	triclinic
loop_
_symmetry_equiv_pos_as_xyz
  x,y,z
_cell_length_a	23.532407
_cell_length_b	14.519709
_cell_length_c	12.996460
_cell_angle_alpha	90.007090
_cell_angle_beta	90.000251
_cell_angle_gamma	83.264411
loop_
_atom_site_label
_atom_site_type_symbol
_atom_site_fract_x
_atom_site_fract_y
_atom_site_fract_z
O1	O	0.755765	0.111951	0.085441
O2	O	1.255765	0.611951	0.585441
O3	O	0.589975	0.128149	0.085471
O4	O	1.089975	0.628149	0.585471
O5	O	0.677266	-0.014240	0.085446
O6	O	1.177266	0.485760	0.585446
O7	O	0.668475	0.254341	0.085466
O8	O	1.168475	0.754341	0.585466
O9	O	0.677257	-0.014248	-0.085688
O10	O	1.177257	0.485752	0.414312
O11	O	0.589966	0.128141	-0.085663
O12	O	1.089966	0.628141	0.414337
O13	O	0.755756	0.111943	-0.085693
O14	O	1.255756	0.611943	0.414307
Cu15	Cu	0.672860	0.120042	-0.101304
Cu16	Cu	1.172860	0.620042	0.398696
Cu17	Cu	0.672871	0.120051	0.101082
Cu18	Cu	1.172871	0.620051	0.601082
O19	O	0.668465	0.254333	-0.085668
O20	O	1.168465	0.754333	0.414332
C21	C	0.568753	0.127733	-0.000092
C22	C	1.068753	0.627733	0.499908
C23	C	0.505530	0.126493	-0.000081
C24	C	1.005530	0.626493	0.499919
C25	C	0.676852	-0.048599	-0.000121
C26	C	1.176852	0.451401	0.499879
C27	C	0.675624	-0.150966	-0.000121
C28	C	1.175624	0.349034	0.499879
C29	C	0.671104	-0.525808	-0.000094
C30	C	1.171104	-0.025808	0.499906
C31	C	0.672359	-0.421515	-0.000102
C32	C	1.172359	0.078485	0.499898
C33	C	0.673364	-0.338390	-0.000109
C34	C	1.173364	0.161610	0.499891
C35	C	0.674619	-0.234091	-0.000115
C36	C	1.174619	0.265909	0.499885
C37	C	0.106772	0.202977	-0.000121
C38	C	0.606772	0.702977	0.499879
C39	C	0.047367	0.201825	-0.000128
C40	C	0.547367	0.701825	0.499872
O41	O	0.010942	0.272727	-0.000160
O42	O	0.510942	0.772727	0.499840
N43	N	0.024358	0.117175	-0.000132
N44	N	0.524358	0.617175	0.499868
C45	C	0.060759	0.033671	-0.000141
C46	C	0.560759	0.533671	0.499859
O47	O	0.035734	-0.038437	-0.000147
O48	O	0.535734	0.461563	0.499853
C49	C	0.120164	0.034824	-0.000142
C50	C	0.620164	0.534824	0.499858
C51	C	0.143168	0.119480	-0.000127
C52	C	0.643168	0.619480	0.499873
C53	C	0.129777	0.287626	-0.000107
C54	C	0.629777	0.787626	0.499893
C55	C	0.189179	0.288778	-0.000099
C56	C	0.689179	0.788778	0.499901
C57	C	0.225575	0.205281	-0.000105
C58	C	0.725575	0.705281	0.499895
C59	C	0.202570	0.120631	-0.000119
C60	C	0.702570	0.620631	0.499881
C61	C	0.156563	-0.048679	-0.000158
C62	C	0.656563	0.451321	0.499842
C63	C	0.215971	-0.047519	-0.000160
C64	C	0.715971	0.452481	0.499840
C65	C	0.238976	0.037137	-0.000145
C66	C	0.738976	0.537137	0.499855
C67	C	0.298367	0.038286	-0.000116
C68	C	0.798367	0.538286	0.499884
N69	N	0.321375	0.122936	-0.000111
N70	N	0.821375	0.622936	0.499889
C71	C	0.284979	0.206434	-0.000106
C72	C	0.784979	0.706434	0.499894
C73	C	-0.063994	0.031256	-0.000141
C74	C	0.436006	0.531256	0.499859
C75	C	-0.123397	0.030102	-0.000133
C76	C	0.376603	0.530102	0.499867
C77	C	-0.136786	0.198257	-0.000121
C78	C	0.363214	0.698257	0.499879
C79	C	-0.077382	0.199410	-0.000122
C80	C	0.422618	0.699410	0.499878
C81	C	-0.040986	0.115906	-0.000136
C82	C	0.459014	0.615906	0.499864
C83	C	0.409727	0.208846	-0.000087
C84	C	0.909727	0.708846	0.499913
C85	C	0.469134	0.209990	-0.000075
C86	C	0.969134	0.709990	0.499925
C87	C	0.482517	0.041836	-0.000092
C88	C	0.982517	0.541836	0.499908
C89	C	0.423115	0.040691	-0.000099
C90	C	0.923115	0.540691	0.499901
C91	C	0.386721	0.124204	-0.000100
C92	C	0.886721	0.624204	0.499900
O93	O	0.334827	-0.032579	-0.000088
O94	O	0.834827	0.467421	0.499912
O95	O	0.310012	0.278529	-0.000114
O96	O	0.810012	0.778529	0.499886
C97	C	0.776979	0.112360	-0.000128
C98	C	1.276979	0.612360	0.499872
C99	C	0.840201	0.113600	-0.000132
C100	C	1.340201	0.613600	0.499868
C101	C	0.668880	0.288692	-0.000099
C102	C	1.168880	0.788692	0.499901
C103	C	0.670107	0.391058	-0.000091
C104	C	1.170107	0.891058	0.499909
N105	N	0.672857	0.120035	-0.243651
N106	N	1.172857	0.620035	0.256349
C107	C	0.672870	0.120052	-0.663465
C108	C	1.172870	0.620052	-0.163465
C109	C	0.672865	0.120050	-0.546660
C110	C	1.172865	0.620050	-0.046660
C111	C	0.672864	0.120044	-0.453562
C112	C	1.172864	0.620044	0.046438
C113	C	0.672858	0.120041	-0.336749
C114	C	1.172858	0.620041	0.163251
N115	N	0.672879	0.120050	0.243429
N116	N	1.172879	0.620050	0.743429
H117	H	0.487860	0.278930	-0.000062
H118	H	0.987860	0.778930	0.499938
Br119	Br	0.080392	0.400961	-0.000100
Br120	Br	0.580392	0.900961	0.499900
Br121	Br	0.360343	0.322185	-0.000091
Br122	Br	0.860343	0.822185	0.499909
Br123	Br	0.220389	0.403674	-0.000083
Br124	Br	0.720389	0.903674	0.499917
Br125	Br	-0.186192	0.311576	-0.000116
Br126	Br	0.313808	0.811576	0.499884
H127	H	-0.058656	0.268344	-0.000116
H128	H	0.441344	0.768344	0.499884
Br129	Br	0.265362	-0.160852	-0.000185
Br130	Br	0.765362	0.339148	0.499815
H131	H	-0.142122	-0.038834	-0.000129
H132	H	0.357878	0.461166	0.499871
H133	H	-0.034363	-0.036747	-0.000143
H134	H	0.465637	0.463253	0.499857
Br135	Br	0.125358	-0.163577	-0.000156
Br136	Br	0.625358	0.336423	0.499844
H137	H	0.404384	-0.028243	-0.000096
H138	H	0.904384	0.471757	0.499904
H139	H	0.512162	-0.026146	-0.000092
H140	H	1.012162	0.473854	0.499908
