data_functionalizedCrystal
_audit_creation_method	'MofGen! by Chris Wilmer'
_symmetry_space_group_name_H-M	'P1'
_symmetry_Int_Tables_number	1
_symmetry_cell_setting	triclinic
loop_
_symmetry_equiv_pos_as_xyz
  x,y,z
_cell_length_a	19.902436
_cell_length_b	23.196402
_cell_length_c	23.196401
_cell_angle_alpha	60.008822
_cell_angle_beta	90.014541
_cell_angle_gamma	59.997492
loop_
_atom_site_label
_atom_site_type_symbol
_atom_site_fract_x
_atom_site_fract_y
_atom_site_fract_z
Zr1	Zr	0.647320	0.630934	-0.075582
O2	O	0.540006	0.751211	-0.167636
O3	O	0.680214	0.510665	-0.047366
O4	O	0.680185	0.630932	-0.167632
O5	O	0.540062	0.630942	0.047500
O6	O	0.790764	0.630920	-0.167624
O7	O	0.540035	0.630944	-0.047371
O8	O	0.790817	0.415785	0.047509
O9	O	0.540009	0.846078	-0.167632
O10	O	0.776771	0.560121	-0.035323
O11	O	0.694267	0.560129	0.035473
O12	O	0.694232	0.701728	-0.106124
O13	O	0.611728	0.701735	-0.035328
Zr14	Zr	0.823722	0.630913	0.075739
Zr15	Zr	0.823680	0.630916	-0.075570
Zr16	Zr	0.647362	0.630931	0.075727
Zr17	Zr	0.647324	0.782236	-0.075576
Zr18	Zr	0.823717	0.479611	0.075732
O19	O	0.790827	0.751182	0.047523
O20	O	0.790767	0.751186	-0.167619
O21	O	0.540066	0.751208	0.047506
O22	O	0.931036	0.510636	0.167793
O23	O	0.930976	0.510639	-0.047349
O24	O	0.680274	0.510661	0.167775
O25	O	0.930980	0.630904	-0.047344
O26	O	0.790857	0.630915	0.167788
O27	O	0.680278	0.630926	0.167781
O28	O	0.931007	0.630903	0.047528
O29	O	0.680192	0.846064	-0.167622
O30	O	0.790850	0.415783	0.167779
O31	O	0.931033	0.415769	0.167789
O32	O	0.931000	0.415770	0.047518
O33	O	0.540042	0.846076	-0.047362
O34	O	0.680225	0.846062	-0.047352
O35	O	0.776810	0.560119	0.106280
O36	O	0.859314	0.560112	0.035485
O37	O	0.776775	0.701718	-0.035316
O38	O	0.694271	0.701725	0.035479
C39	C	0.735515	0.441667	0.000070
C40	C	0.735513	0.377435	0.000067
C41	C	0.778573	0.347261	-0.036890
C42	C	0.778581	0.286900	-0.036884
C43	C	0.735513	0.256727	0.000069
C44	C	0.692450	0.286905	0.037035
C45	C	0.692450	0.347259	0.037034
C46	C	0.663357	0.194705	-0.005210
C47	C	0.663354	0.134356	-0.005214
C48	C	0.735514	0.070572	0.000076
C49	C	0.807675	0.067153	0.005357
C50	C	0.807675	0.127507	0.005356
C51	C	0.735508	0.191283	0.000075
C52	C	0.778587	-0.025053	-0.036876
C53	C	0.778597	-0.085419	-0.036866
C54	C	0.692458	-0.085407	0.037049
C55	C	0.692456	-0.025048	0.037042
C56	C	0.735518	0.005128	0.000076
C57	C	0.514921	0.630946	0.000063
C58	C	0.440051	0.630953	0.000058
C59	C	0.168049	0.630913	0.000085
C60	C	0.144473	0.720241	-0.044364
C61	C	0.222311	0.720297	-0.044610
C62	C	0.302992	0.630934	0.000072
C63	C	0.300571	0.586572	-0.032500
C64	C	0.222343	0.587144	-0.032829
C65	C	0.223361	0.585307	0.077126
C66	C	0.300282	0.586986	0.077007
C67	C	0.379259	0.630940	0.000064
C68	C	0.091784	0.630904	0.000090
C69	C	0.956121	0.630901	0.000094
C70	C	1.030991	0.630894	0.000099
C71	C	0.735468	0.630926	-0.189186
C72	C	0.735450	0.630927	-0.253421
C73	C	0.735527	0.820180	0.000086
C74	C	0.735529	0.884412	0.000089
C75	C	0.692370	0.704842	-0.320551
C76	C	0.692391	0.704843	-0.380906
C77	C	0.735481	0.630925	-0.374127
C78	C	0.778571	0.557001	-0.306984
C79	C	0.778555	0.557002	-0.246631
C80	C	0.729360	0.574298	-0.441447
C81	C	0.729369	0.574300	-0.501801
C82	C	0.735533	0.630919	-0.560275
C83	C	0.741670	0.687550	-0.558395
C84	C	0.741655	0.687551	-0.498041
C85	C	0.735503	0.630916	-0.439566
C86	C	0.692473	0.704840	-0.692852
C87	C	0.692500	0.704838	-0.753207
C88	C	0.778674	0.556994	-0.679282
C89	C	0.778653	0.556998	-0.618930
C90	C	0.735548	0.630923	-0.625719
C91	C	0.735574	0.630920	0.189343
C92	C	0.735592	0.630919	0.253577
C93	C	0.956115	0.441645	0.000086
C94	C	1.030982	0.377405	0.000088
C95	C	0.735568	0.441664	0.189335
C96	C	0.735583	0.377431	0.253566
C97	C	0.956168	0.441642	0.189350
C98	C	1.031053	0.377402	0.253587
C99	C	0.514874	0.820205	-0.189193
C100	C	0.439989	0.884445	-0.253430
C101	C	0.514927	0.820202	0.000071
C102	C	0.440059	0.884441	0.000069
C103	C	0.735474	0.820183	-0.189178
C104	C	0.735458	0.884415	-0.253410
C105	C	1.023054	0.347243	-0.036878
C106	C	1.093393	0.286891	-0.036890
C107	C	1.171660	0.256700	0.000069
C108	C	1.179587	0.286868	0.037036
C109	C	1.109248	0.347223	0.037043
C110	C	0.778678	0.347262	0.320697
C111	C	0.778690	0.286917	0.381056
C112	C	0.735611	0.256738	0.374282
C113	C	0.692512	0.286913	0.307144
C114	C	0.692496	0.347262	0.246787
C115	C	1.109294	0.347230	0.246799
C116	C	1.179663	0.286877	0.307151
C117	C	1.171791	0.256694	0.374290
C118	C	1.093542	0.286872	0.381077
C119	C	1.023174	0.347227	0.320726
C120	C	0.361748	0.914624	-0.246642
C121	C	0.291378	0.974995	-0.306994
C122	C	0.299251	1.005182	-0.374133
C123	C	0.377500	0.975001	-0.380920
C124	C	0.447868	0.914635	-0.320569
C125	C	0.447988	0.914610	0.037028
C126	C	0.377648	0.974978	0.037023
C127	C	0.299382	1.005172	0.000063
C128	C	0.291455	0.975001	-0.036901
C129	C	0.361793	0.914638	-0.036900
C130	C	0.778545	0.914575	-0.246613
C131	C	0.778546	0.974921	-0.306960
C132	C	0.735455	1.005110	-0.374103
C133	C	0.692368	0.974944	-0.380898
C134	C	0.692372	0.914595	-0.320552
H135	H	0.866436	0.015213	0.009674
O136	O	0.825124	0.477267	-0.546524
H137	H	0.872735	0.473726	-0.517247
O138	O	1.264006	0.254301	0.076896
H139	H	1.271181	0.226801	0.133700
O140	O	0.645880	0.784576	-0.327877
H141	H	0.689357	0.788112	-0.302126
O142	O	0.585509	0.263521	-0.010953
H143	H	0.597629	0.304918	-0.010072
O144	O	0.645971	-0.117909	0.076885
H145	H	0.670862	-0.145404	0.133691
O146	O	0.532397	0.882067	0.076885
H147	H	0.539568	0.854584	0.133687
H148	H	0.657406	0.371818	0.192128
H149	H	0.657384	0.262334	0.067123
O150	O	0.175285	0.623173	0.113169
H151	H	0.111424	0.674927	0.076569
O152	O	0.646067	0.254339	0.299857
H153	H	0.579846	0.304988	0.270558
H154	H	0.221039	0.755280	-0.022932
O155	O	0.735443	1.070212	-0.439187
H156	H	0.799592	1.047042	-0.439135
O157	O	0.825063	0.477270	-0.299661
H158	H	0.800186	0.441816	-0.270364
O159	O	1.117797	0.379780	0.174389
H160	H	1.087791	0.446360	0.145125
H161	H	1.086923	0.262336	-0.066992
O162	O	0.825039	-0.117960	-0.076735
H163	H	0.891250	-0.145449	-0.055387
H164	H	0.185785	0.618669	-0.089520
H165	H	1.087144	0.262287	0.435750
O166	O	0.302584	0.627394	-0.106886
H167	H	0.300840	0.595485	-0.129353
H168	H	0.227672	0.999559	-0.301454
O169	O	0.825142	0.379804	0.328019
H170	H	0.872758	0.368206	0.302305
O171	O	0.092601	0.766687	-0.015574
H172	H	0.076778	0.829476	-0.047787
O173	O	0.645928	0.784572	-0.453321
H174	H	0.653188	0.772149	-0.494147
H175	H	0.355327	0.890076	-0.066995
O176	O	0.091618	0.766453	-0.119199
H177	H	0.082066	0.726077	-0.124873
O178	O	0.386214	1.007499	0.076905
H179	H	0.324159	1.054553	0.070694
O180	O	0.585527	0.138048	-0.010919
H181	H	0.535353	0.192531	-0.014587
O182	O	0.722783	0.513228	-0.503869
H183	H	0.778112	0.475043	-0.512257
H184	H	1.228928	0.207555	0.000058
H185	H	0.242114	1.054324	0.000068
O186	O	0.825022	1.007449	-0.299622
H187	H	0.800124	1.034954	-0.270323
H188	H	0.657375	0.765035	-0.698381
H189	H	0.813634	0.890005	-0.191947
O190	O	1.264055	0.254326	0.299823
H191	H	1.257700	0.285445	0.242997
H192	H	0.657284	0.999533	-0.435574
O193	O	1.117803	0.379742	0.076928
H194	H	1.184046	0.348595	0.102631
O195	O	0.645885	0.882078	-0.327886
H196	H	0.615917	0.913220	-0.384714
O197	O	0.885499	0.123823	0.011052
H198	H	0.903147	0.119785	0.059001
H199	H	0.813640	0.371827	-0.066988
O200	O	0.207037	1.007570	-0.076766
H201	H	0.159466	1.054606	-0.070546
O202	O	0.645997	0.379817	0.076889
H203	H	0.616044	0.348701	0.102584
H204	H	0.959469	0.371785	0.326263
O205	O	0.825018	0.254351	-0.076754
H206	H	0.854956	0.285479	-0.102463
O207	O	0.532247	0.882109	-0.327914
H208	H	0.566365	0.893698	-0.302195
H209	H	1.229095	0.207549	0.423426
O210	O	0.353247	0.882077	-0.174231
H211	H	0.287014	0.913220	-0.179662
O212	O	0.825192	0.254364	0.453464
H213	H	0.855158	0.285477	0.448028
H214	H	0.735631	0.207599	0.423434
H215	H	0.220521	0.755314	-0.101439
H216	H	0.299913	0.619331	0.101340
O217	O	0.825038	0.477282	-0.174215
H218	H	0.781554	0.473744	-0.144957
H219	H	0.241947	1.054336	-0.423269
O220	O	0.825040	0.007491	-0.076735
H221	H	0.854998	-0.023645	-0.102423
O222	O	0.385988	1.007556	-0.453336
H223	H	0.323907	1.054594	-0.494155
O224	O	0.247967	0.500336	0.007272
H225	H	0.316126	0.458134	0.026809
O226	O	0.938643	0.379810	-0.076753
H227	H	0.931488	0.329152	-0.055413
O228	O	0.645999	0.007514	0.076893
H229	H	0.616045	-0.023600	0.102585
H230	H	0.357750	0.521790	0.112913
O231	O	0.375841	0.499542	0.008303
H232	H	0.415872	0.486953	0.052335
H233	H	0.243285	0.519504	0.110400
H234	H	0.746654	0.733660	-0.496513
H235	H	0.746685	0.733657	-0.606007
H236	H	0.813760	0.496808	-0.673761
O237	O	0.646033	0.784564	-0.825618
H238	H	0.616052	0.835965	-0.820195
H239	H	0.724335	0.528192	-0.393839
