data_functionalizedCrystal
_audit_creation_method	'MofGen! by Chris Wilmer'
_symmetry_space_group_name_H-M	'P1'
_symmetry_Int_Tables_number	1
_symmetry_cell_setting	triclinic
loop_
_symmetry_equiv_pos_as_xyz
  x,y,z
_cell_length_a	19.188925
_cell_length_b	10.540539
_cell_length_c	9.016244
_cell_angle_alpha	90.005301
_cell_angle_beta	89.998107
_cell_angle_gamma	96.165980
loop_
_atom_site_label
_atom_site_type_symbol
_atom_site_fract_x
_atom_site_fract_y
_atom_site_fract_z
O1	O	0.098389	-1.683722	-0.123269
O2	O	0.107659	-1.314104	-0.123287
O3	O	0.001439	-1.509583	-0.123269
O4	O	0.204609	-1.488243	-0.123287
O5	O	0.001441	-1.509554	0.123411
O6	O	0.107661	-1.314075	0.123393
O7	O	0.098391	-1.683693	0.123412
Cu8	Cu	0.103026	-1.498882	0.145926
Cu9	Cu	0.103024	-1.498915	-0.145802
O10	O	0.204611	-1.488214	0.123394
C11	C	0.106965	-1.266802	0.000051
C12	C	0.104885	-1.125900	0.000044
C13	C	-0.024575	-1.508879	0.000070
C14	C	-0.102094	-1.506808	0.000067
C15	C	0.099085	-1.730995	0.000070
C16	C	0.101165	-1.871897	0.000067
C17	C	-0.663192	-1.607640	0.000034
C18	C	-0.590356	-1.609597	0.000048
C19	C	-0.546186	-1.494897	0.000042
C20	C	-0.574858	-1.378230	0.000060
C21	C	-0.647693	-1.376277	0.000061
N22	N	-0.426060	-1.411868	-0.083926
N23	N	-0.356870	-1.413732	-0.083930
C24	C	-0.326738	-1.500776	0.000041
N25	N	-0.368410	-1.585906	0.083998
N26	N	-0.437606	-1.584046	0.083996
C27	C	-0.467208	-1.497002	0.000041
C28	C	-0.219097	-1.619557	0.000048
C29	C	-0.146259	-1.621509	0.000071
C30	C	-0.130762	-1.390139	0.000068
C31	C	-0.203599	-1.388190	0.000060
C32	C	-0.247762	-1.502903	0.000043
C33	C	0.230626	-1.488918	0.000051
C34	C	0.308144	-1.490989	0.000044
N35	N	0.103028	-1.498867	0.351113
C36	C	0.025184	-0.944232	0.000627
C37	C	0.027292	-1.090804	0.000055
C38	C	0.142225	-1.063419	-0.140821
C39	C	0.139577	-0.916933	-0.140923
C40	C	0.141158	-0.916378	0.139599
C41	C	0.141872	-1.063344	0.141445
N42	N	0.103017	-1.498940	-0.350988
C43	C	0.159658	-1.393986	0.586136
C44	C	0.159870	-1.394211	0.414244
C45	C	0.119601	-1.631224	0.413456
C46	C	0.120002	-1.630650	0.585401
C47	C	0.029640	-1.472713	0.585661
C48	C	0.030115	-1.469657	0.413707
H49	H	-0.699146	-1.701049	0.000029
H50	H	-0.226936	-1.293200	0.000057
Br51	Br	0.053837	-1.764563	0.654730
H52	H	-0.002088	-1.134054	0.101034
Br53	Br	-0.514915	-1.222564	0.000066
H54	H	-0.671029	-1.281283	0.000073
Br55	Br	-0.025908	-0.897691	0.169007
H56	H	0.197203	-0.867914	0.140546
Br57	Br	-0.279037	-1.775234	0.000028
Br58	Br	-0.040628	-1.600287	0.653425
Br59	Br	-0.107357	-1.779836	0.000055
Br60	Br	-0.551444	-1.767921	0.000058
Br61	Br	0.096328	-1.132423	0.315139
H62	H	-0.014060	-1.541159	0.370738
H63	H	0.149839	-1.295277	0.627525
H64	H	-0.094799	-1.296748	0.000076
Br65	Br	-0.025701	-0.895020	-0.166790
H66	H	0.198443	-1.086320	0.149946
H67	H	-0.002297	-1.133214	-0.101092
H68	H	0.111977	-0.889344	-0.246216
H69	H	0.195380	-0.867733	-0.147321
Br70	Br	0.052717	-1.764471	0.345307
H71	H	0.199207	-1.084515	-0.146067
H72	H	0.116284	-1.106592	-0.245651
H73	H	0.116048	-0.885373	0.246373
Br74	Br	0.143298	-1.230185	0.343986
H75	H	0.213789	-1.410458	0.629325
Br76	Br	0.250615	-1.421981	0.345644
Br77	Br	0.209227	-1.669273	0.652222
H78	H	0.172530	-1.654954	0.370375
Br79	Br	0.003363	-1.315364	0.658017
H80	H	0.017553	-1.372296	0.372961
