data_functionalizedCrystal
_audit_creation_method	'MofGen! by Chris Wilmer'
_symmetry_space_group_name_H-M	'P1'
_symmetry_Int_Tables_number	1
_symmetry_cell_setting	triclinic
loop_
_symmetry_equiv_pos_as_xyz
  x,y,z
_cell_length_a	17.699083
_cell_length_b	22.010155
_cell_length_c	17.699083
_cell_angle_alpha	90.003354
_cell_angle_beta	96.716985
_cell_angle_gamma	90.002416
loop_
_atom_site_label
_atom_site_type_symbol
_atom_site_fract_x
_atom_site_fract_y
_atom_site_fract_z
O1	O	1.004081	0.050441	-0.095701
O2	O	1.504081	0.550441	0.404299
O3	O	0.783703	0.050461	-0.108153
O4	O	1.283703	0.550461	0.391847
O5	O	0.900118	0.050445	0.008262
O6	O	1.400118	0.550445	0.508262
O7	O	0.887666	0.050457	-0.212116
O8	O	1.387666	0.550457	0.287884
O9	O	0.900097	-0.050605	0.008245
O10	O	1.400097	0.449395	0.508245
O11	O	0.783682	-0.050589	-0.108171
O12	O	1.283682	0.449411	0.391829
O13	O	1.004060	-0.050609	-0.095718
O14	O	1.504060	0.449391	0.404282
Cu15	Cu	0.893869	-0.059826	-0.101946
Cu16	Cu	1.393869	0.440174	0.398054
Cu17	Cu	0.893894	0.059678	-0.101925
Cu18	Cu	1.393894	0.559678	0.398075
O19	O	0.887645	-0.050593	-0.212134
O20	O	1.387645	0.449407	0.287866
C21	C	0.755495	-0.000061	-0.107716
C22	C	1.255495	0.499939	0.392284
C23	C	0.671477	-0.000054	-0.106377
C24	C	1.171477	0.499946	0.393623
C25	C	0.622856	-0.000050	-0.174711
C26	C	1.122856	0.499950	0.325289
C27	C	0.543913	-0.000058	-0.173448
C28	C	1.043913	0.499942	0.326552
C29	C	0.513592	-0.000065	-0.103852
C30	C	1.013592	0.499935	0.396148
C31	C	0.562219	-0.000071	-0.035513
C32	C	1.062219	0.499929	0.464487
C33	C	0.641161	-0.000067	-0.036776
C34	C	1.141161	0.499933	0.463224
C35	C	0.243856	-0.000086	-0.030418
C36	C	0.743856	0.499914	0.469582
C37	C	0.164908	-0.000088	-0.029160
C38	C	0.664908	0.499912	0.470840
C39	C	0.146608	-0.000077	-0.167090
C40	C	0.646608	0.499923	0.332910
C41	C	0.225550	-0.000074	-0.168353
C42	C	0.725550	0.499926	0.331647
C43	C	0.274170	-0.000082	-0.100015
C44	C	0.774170	0.499918	0.399985
C45	C	0.359769	-0.000075	-0.101384
C46	C	0.859769	0.499925	0.398616
C47	C	0.427995	-0.000069	-0.102481
C48	C	0.927995	0.499931	0.397519
N49	N	0.893857	-0.143878	-0.101960
N50	N	1.393857	0.356122	0.398040
C51	C	0.945446	-0.563665	-0.050384
C52	C	1.445446	-0.063665	0.449616
C53	C	0.945449	-0.627272	-0.050379
C54	C	1.445449	-0.127272	0.449621
O55	O	0.989282	-0.660170	-0.006537
O56	O	1.489282	-0.160170	0.493463
N57	N	0.893894	-0.659085	-0.101910
N58	N	1.393894	-0.159085	0.398090
C59	C	0.842326	-0.627288	-0.153444
C60	C	1.342326	-0.127288	0.346556
O61	O	0.798474	-0.660188	-0.197274
O62	O	1.298474	-0.160188	0.302726
C63	C	0.842319	-0.563681	-0.153445
C64	C	1.342319	-0.063681	0.346555
C65	C	0.893884	-0.531871	-0.101916
C66	C	1.393884	-0.031871	0.398084
C67	C	0.997005	-0.531855	0.001142
C68	C	1.497005	-0.031855	0.501142
C69	C	0.997002	-0.468252	0.001135
C70	C	1.497002	0.031748	0.501135
C71	C	0.945440	-0.436458	-0.050397
C72	C	1.445440	0.063542	0.449603
C73	C	0.893881	-0.468268	-0.101922
C74	C	1.393881	0.031732	0.398078
C75	C	0.790749	-0.531884	-0.204975
C76	C	1.290749	-0.031884	0.295025
C77	C	0.790746	-0.468274	-0.204971
C78	C	1.290746	0.031726	0.295029
C79	C	0.842310	-0.436464	-0.153442
C80	C	1.342310	0.063536	0.346558
C81	C	0.842316	-0.372872	-0.153460
C82	C	1.342316	0.127128	0.346540
N83	N	0.893872	-0.341059	-0.101929
N84	N	1.393872	0.158941	0.398071
C85	C	0.945434	-0.372852	-0.050398
C86	C	1.445434	0.127148	0.449602
C87	C	0.842343	-0.760865	-0.153437
C88	C	1.342343	-0.260865	0.346563
C89	C	0.842352	-0.824471	-0.153440
C90	C	1.342352	-0.324471	0.346560
C91	C	0.945475	-0.824451	-0.050374
C92	C	1.445475	-0.324451	0.449626
C93	C	0.945468	-0.760845	-0.050375
C94	C	1.445468	-0.260845	0.449625
C95	C	0.893898	-0.729052	-0.101906
C96	C	1.393898	-0.229052	0.398094
C97	C	0.945424	-0.239281	-0.050415
C98	C	1.445424	0.260719	0.449585
C99	C	0.945419	-0.175672	-0.050428
C100	C	1.445419	0.324328	0.449572
C101	C	0.842294	-0.175697	-0.153491
C102	C	1.342294	0.324303	0.346509
C103	C	0.842302	-0.239300	-0.153481
C104	C	1.342302	0.260700	0.346519
C105	C	0.893870	-0.271090	-0.101937
C106	C	1.393870	0.228910	0.398063
O107	O	0.798504	-0.339934	-0.197278
O108	O	1.298504	0.160066	0.302722
O109	O	0.989272	-0.339944	-0.006568
O110	O	1.489272	0.160056	0.493432
C111	C	1.032268	-0.000085	-0.096156
C112	C	1.532268	0.499915	0.403844
C113	C	1.116286	-0.000089	-0.097494
C114	C	1.616286	0.499911	0.402506
C115	C	0.899662	-0.000080	0.036451
C116	C	1.399662	0.499920	0.536451
C117	C	0.898323	-0.000080	0.120469
C118	C	1.398323	0.499920	0.620469
N119	N	0.893912	0.143730	-0.101905
N120	N	1.393912	0.643730	0.398095
C121	C	0.888102	-0.000067	-0.240322
C122	C	1.388102	0.499933	0.259678
C123	C	0.889440	-0.000063	-0.324340
C124	C	1.389440	0.499937	0.175660
C125	C	0.966656	-0.000087	0.169090
C126	C	1.466656	0.499913	0.669090
C127	C	0.965394	-0.000082	0.248033
C128	C	1.465394	0.499918	0.748033
C129	C	0.895798	-0.000073	0.278354
C130	C	1.395798	0.499927	0.778354
C131	C	0.827459	-0.000065	0.229727
C132	C	1.327459	0.499935	0.729727
C133	C	0.828722	-0.000066	0.150785
C134	C	1.328722	0.499934	0.650785
C135	C	0.822364	-0.000059	0.548090
C136	C	1.322364	0.499941	1.048090
C137	C	0.821106	-0.000060	0.627038
C138	C	1.321106	0.499940	1.127038
C139	C	0.959036	-0.000075	0.645338
C140	C	1.459036	0.499925	1.145338
C141	C	0.960299	-0.000076	0.566396
C142	C	1.460299	0.499924	1.066396
C143	C	0.891961	-0.000064	0.517776
C144	C	1.391961	0.499936	1.017776
C145	C	0.893330	-0.000069	0.432177
C146	C	1.393330	0.499931	0.932177
C147	C	0.894427	-0.000073	0.363951
C148	C	1.394427	0.499927	0.863951
H149	H	0.647537	-0.000044	-0.231384
H150	H	1.147537	0.499956	0.268616
H151	H	1.016971	-0.000086	0.541714
H152	H	1.516971	0.499914	1.041714
H153	H	0.537526	-0.000085	0.021154
H154	H	1.037526	0.499915	0.521154
H155	H	0.770792	-0.000054	0.254420
H156	H	1.270792	0.499946	0.754420
C157	C	0.785575	-0.140716	-0.210167
C158	C	1.285575	0.359284	0.289833
H159	H	0.792956	-0.098279	-0.202779
H160	H	1.292956	0.401721	0.297221
H161	H	0.793687	-0.151138	-0.260674
H162	H	1.293687	0.348862	0.239326
H163	H	0.735081	-0.151143	-0.201996
H164	H	1.235081	0.348857	0.298004
C165	C	1.002182	-0.725859	0.006312
C166	C	1.502182	-0.225859	0.506312
H167	H	1.032886	-0.753910	0.037003
H168	H	1.532886	-0.253910	0.537003
H169	H	1.033635	-0.701042	-0.020870
H170	H	1.533635	-0.201042	0.479130
H171	H	0.975011	-0.701051	0.037790
H172	H	1.475011	-0.201051	0.537790
C173	C	0.744548	-0.000046	0.660393
C174	C	1.244548	0.499954	1.160393
H175	H	0.753587	-0.000053	0.714371
H176	H	1.253587	0.499947	1.214371
H177	H	0.716428	0.035197	0.643702
H178	H	1.216428	0.535197	1.143702
H179	H	0.716407	-0.035284	0.643692
H180	H	1.216407	0.464716	1.143692
C181	C	0.258899	-0.000069	-0.244909
C182	C	0.758899	0.499931	0.255091
H183	H	0.218635	-0.000074	-0.285426
H184	H	0.718635	0.499926	0.214574
H185	H	0.289316	0.035170	-0.248265
H186	H	0.789316	0.535170	0.251735
H187	H	0.289311	-0.035311	-0.248270
H188	H	0.789311	0.464689	0.251730
C189	C	1.002186	-0.859432	0.006318
C190	C	1.502186	-0.359432	0.506318
H191	H	0.994794	-0.901869	-0.001059
H192	H	1.494794	-0.401869	0.498941
H193	H	1.052683	-0.849010	-0.001830
H194	H	1.552683	-0.349010	0.498170
H195	H	0.994051	-0.849006	0.056823
H196	H	1.494051	-0.349006	0.556823
C197	C	0.490433	-0.000053	-0.248615
C198	C	0.990433	0.499947	0.251385
H199	H	0.519797	-0.000040	-0.290244
H200	H	1.019797	0.499960	0.209756
H201	H	0.459258	-0.035293	-0.251000
H202	H	0.959258	0.464707	0.249000
H203	H	0.459257	0.035189	-0.250980
H204	H	0.959257	0.535189	0.249020
H205	H	1.021038	-0.000089	0.287617
H206	H	1.521038	0.499911	0.787617
C207	C	1.053715	-0.433269	0.057826
C208	C	1.553715	0.066731	0.557826
H209	H	1.084414	-0.461321	0.088519
H210	H	1.584414	0.038679	0.588519
H211	H	1.085172	-0.408453	0.030649
H212	H	1.585172	0.091547	0.530649
H213	H	1.026541	-0.408460	0.089302
H214	H	1.526541	0.091540	0.589302
C215	C	0.093127	-0.000072	-0.242264
C216	C	0.593127	0.499928	0.257736
H217	H	0.122493	-0.000059	-0.283892
H218	H	0.622493	0.499941	0.216108
H219	H	0.061950	-0.035311	-0.244652
H220	H	0.561950	0.464689	0.255348
H221	H	0.061954	0.035170	-0.244628
H222	H	0.561954	0.535170	0.255372
C223	C	0.785632	-0.859455	-0.210122
C224	C	1.285632	-0.359455	0.289878
H225	H	0.754922	-0.831404	-0.240806
H226	H	1.254922	-0.331404	0.259194
H227	H	0.812790	-0.884272	-0.241598
H228	H	1.312790	-0.384272	0.258402
H229	H	0.754177	-0.884263	-0.182925
H230	H	1.254177	-0.384263	0.317075
H231	H	0.748760	-0.557775	-0.246934
H232	H	1.248760	-0.057775	0.253066
C233	C	0.694644	-0.000065	0.038390
C234	C	1.194644	0.499935	0.538390
H235	H	0.665282	-0.000063	0.080021
H236	H	1.165282	0.499937	0.580021
H237	H	0.725822	-0.035301	0.040761
H238	H	1.225822	0.464699	0.540761
H239	H	0.725817	0.035180	0.040768
H240	H	1.225817	0.535180	0.540768
C241	C	1.034208	-0.000078	0.698822
C242	C	1.534208	0.499922	1.198822
H243	H	1.023492	-0.000069	0.750180
H244	H	1.523492	0.499931	1.250180
H245	H	1.062745	-0.035320	0.689644
H246	H	1.562745	0.464680	1.189644
H247	H	1.062757	0.035161	0.689643
H248	H	1.562757	0.535161	1.189643
C249	C	0.753558	-0.000058	0.097298
C250	C	1.253558	0.499942	0.597298
H251	H	0.764277	-0.000053	0.045941
H252	H	1.264277	0.499947	0.545941
H253	H	0.725002	-0.035292	0.106469
H254	H	1.225002	0.464708	0.606469
H255	H	0.725026	0.035190	0.106480
H256	H	1.225026	0.535190	0.606480
C257	C	1.053733	-0.566818	0.057828
C258	C	1.553733	-0.066818	0.557828
H259	H	1.084437	-0.538755	0.088505
H260	H	1.584437	-0.038755	0.588505
H261	H	1.026582	-0.591635	0.089308
H262	H	1.526582	-0.091635	0.589308
H263	H	1.085194	-0.591625	0.030635
H264	H	1.585194	-0.091625	0.530635
H265	H	0.766718	-0.000049	0.508512
H266	H	1.266718	0.499951	1.008512
C267	C	0.131557	-0.000102	0.047400
C268	C	0.631557	0.499898	0.547400
H269	H	0.171819	-0.000112	0.087919
H270	H	0.671819	0.499888	0.587919
H271	H	0.101143	0.035135	0.050769
H272	H	0.601143	0.535135	0.550769
H273	H	0.101141	-0.035346	0.050744
H274	H	0.601141	0.464654	0.550744
H275	H	0.283434	-0.000094	0.025228
H276	H	0.783434	0.499906	0.525228
H277	H	0.987412	-0.149774	-0.008467
H278	H	1.487412	0.350226	0.491533
H279	H	0.987415	-0.265157	-0.008442
H280	H	1.487415	0.234843	0.491558
H281	H	0.800350	-0.734983	-0.195406
H282	H	1.300350	-0.234983	0.304594
C283	C	0.734021	-0.433306	-0.261660
C284	C	1.234021	0.066694	0.238340
H285	H	0.703321	-0.461364	-0.292349
H286	H	1.203321	0.038636	0.207651
H287	H	0.702567	-0.408491	-0.234478
H288	H	1.202567	0.091509	0.265522
H289	H	0.761189	-0.408497	-0.293141
H290	H	1.261189	0.091503	0.206859
C291	C	0.785555	-0.274292	-0.210133
C292	C	1.285555	0.225708	0.289867
H293	H	0.754835	-0.246245	-0.240812
H294	H	1.254835	0.253755	0.259188
H295	H	0.812683	-0.299126	-0.241616
H296	H	1.312683	0.200874	0.258384
H297	H	0.754112	-0.299085	-0.182902
H298	H	1.254112	0.200915	0.317098
H299	H	1.023330	-0.000098	0.144409
H300	H	1.523330	0.499902	0.644409
