data_functionalizedCrystal
_audit_creation_method	'MofGen! by Chris Wilmer'
_symmetry_space_group_name_H-M	'P1'
_symmetry_Int_Tables_number	1
_symmetry_cell_setting	triclinic
loop_
_symmetry_equiv_pos_as_xyz
  x,y,z
_cell_length_a	21.395362
_cell_length_b	13.032868
_cell_length_c	21.395355
_cell_angle_alpha	97.163312
_cell_angle_beta	90.043940
_cell_angle_gamma	82.769555
loop_
_atom_site_label
_atom_site_type_symbol
_atom_site_fract_x
_atom_site_fract_y
_atom_site_fract_z
Zn1	Zn	0.926212	0.415745	0.386221
Zn2	Zn	0.912813	0.590486	0.294741
Zn3	Zn	0.821424	0.415794	0.281426
Zn4	Zn	0.808093	0.590507	0.399447
O5	O	0.867136	0.503133	0.340459
O6	O	1.012115	0.438895	0.374123
O7	O	0.900662	0.567324	0.205298
O8	O	0.846510	0.269539	0.284221
O9	O	1.002271	0.567277	0.306913
O10	O	0.923498	0.269504	0.361213
O11	O	0.833518	0.438978	0.195516
O12	O	0.731975	0.438999	0.297045
O13	O	0.823791	0.567313	0.485370
O14	O	0.722182	0.567361	0.383754
O15	O	0.910572	0.438916	0.475653
O16	O	0.887736	0.736737	0.319737
O17	O	0.810798	0.736753	0.396665
C18	C	0.704344	0.503188	0.340391
C19	C	0.634699	0.503237	0.340378
C20	C	0.596896	0.570163	0.385474
C21	C	0.531462	0.570138	0.385500
C22	C	0.503834	0.503197	0.340420
C23	C	0.541646	0.436258	0.295319
C24	C	0.607078	0.436278	0.295299
C25	C	0.400750	0.494778	0.283374
C26	C	0.335318	0.494765	0.283394
C27	C	0.302018	0.503129	0.340484
C28	C	0.334157	0.511527	0.397556
C29	C	0.399589	0.511547	0.397535
C30	C	0.432884	0.503167	0.340437
C31	C	0.193264	0.570031	0.385612
C32	C	0.127830	0.569998	0.385638
C33	C	0.138014	0.436123	0.295452
C34	C	0.203448	0.436151	0.295431
C35	C	0.231068	0.503110	0.340510
C36	C	0.846384	0.774665	0.361095
C37	C	0.837563	0.890828	0.369944
C38	C	0.871731	0.942574	0.335855
C39	C	0.862616	1.062634	0.345000
C40	C	1.030563	0.503078	0.340528
C41	C	1.100206	0.503055	0.340558
C42	C	0.867189	0.503112	0.503881
C43	C	0.867212	0.503103	0.573521
C44	C	0.887965	1.230541	0.319750
C45	C	0.896789	1.114378	0.310907
C46	C	0.867124	0.503079	0.177667
C47	C	0.867245	0.502793	0.108005
C48	C	0.912398	0.436244	0.601176
C49	C	0.912400	0.436199	0.666608
C50	C	0.867222	0.503032	0.704384
C51	C	0.822029	0.569896	0.676722
C52	C	0.822024	0.569931	0.611291
C53	C	0.855083	0.597135	0.815209
C54	C	0.855093	0.597102	0.880639
C55	C	0.867235	0.502921	0.906197
C56	C	0.879381	0.408772	0.866315
C57	C	0.879376	0.408807	0.800884
C58	C	0.867223	0.503000	0.775334
C59	C	0.912426	0.436008	1.004800
C60	C	0.912424	0.435961	1.070233
C61	C	0.822055	0.569667	1.080347
C62	C	0.822054	0.569704	1.014914
C63	C	0.867243	0.502876	0.977145
H64	H	0.307046	0.518336	0.444044
O65	O	0.944482	1.055339	0.263277
H66	H	0.992083	1.076126	0.275663
H67	H	0.427857	0.487962	0.236881
H68	H	0.801564	0.935410	0.405901
H69	H	0.234227	0.381657	0.258706
H70	H	0.949219	0.381510	1.092747
O71	O	0.223061	0.642212	0.434251
H72	H	0.274912	0.630983	0.426661
H73	H	0.785243	0.624308	0.707484
H74	H	0.785225	0.624375	0.588776
O75	O	0.087088	0.642323	0.434246
H76	H	0.101054	0.624641	0.482105
H77	H	0.826615	1.107212	0.380960
O78	O	0.300662	0.485707	0.221837
H79	H	0.265480	0.555699	0.220695
H80	H	0.785262	0.624155	0.992399
H81	H	0.949218	0.381586	0.974045
H82	H	0.785265	0.624073	1.111103
O83	O	0.841978	0.698720	0.787645
H84	H	0.833541	0.764180	0.826367
H85	H	0.889264	0.332148	0.768415
O86	O	0.108225	0.363928	0.246822
H87	H	0.056374	0.375163	0.254408
H88	H	0.949195	0.381748	0.689128
H89	H	0.845206	0.673764	0.913106
H90	H	0.907735	0.897995	0.299903
H91	H	0.949193	0.381825	0.570427
O92	O	0.511850	0.364077	0.246683
H93	H	0.459998	0.375322	0.254265
H94	H	0.637858	0.381775	0.258576
O95	O	0.892462	0.307177	0.893868
H96	H	0.890412	0.322962	0.946066
H97	H	0.500677	0.624637	0.422225
O98	O	0.626690	0.642366	0.434100
H99	H	0.589406	0.688892	0.465468
H100	H	0.425754	0.518383	0.444006
