data_functionalizedCrystal
_audit_creation_method	'MofGen! by Chris Wilmer'
_symmetry_space_group_name_H-M	'P1'
_symmetry_Int_Tables_number	1
_symmetry_cell_setting	triclinic
loop_
_symmetry_equiv_pos_as_xyz
  x,y,z
_cell_length_a	16.120490
_cell_length_b	16.120484
_cell_length_c	12.759387
_cell_angle_alpha	87.136424
_cell_angle_beta	92.918784
_cell_angle_gamma	90.164100
loop_
_atom_site_label
_atom_site_type_symbol
_atom_site_fract_x
_atom_site_fract_y
_atom_site_fract_z
Zn1	Zn	1.254508	-0.395623	0.699333
Zn2	Zn	1.247343	-0.534695	0.532065
Zn3	Zn	1.115439	-0.388596	0.514343
Zn4	Zn	1.108360	-0.527568	0.698376
O5	O	1.181412	-0.461621	0.611029
O6	O	1.369924	-0.419994	0.684962
O7	O	1.229810	-0.515357	0.382694
O8	O	1.139847	-0.273166	0.531866
O9	O	1.364660	-0.522170	0.562071
O10	O	1.242021	-0.278329	0.667778
O11	O	1.132900	-0.408019	0.369673
O12	O	0.998134	-0.401108	0.530937
O13	O	1.127783	-0.510023	0.845524
O14	O	0.992933	-0.503210	0.666146
O15	O	1.235157	-0.413084	0.846227
O16	O	1.222946	-0.650112	0.561143
O17	O	1.120835	-0.644876	0.683331
C18	C	0.965361	-0.450624	0.596515
C19	C	0.872932	-0.445939	0.590332
C20	C	0.659965	-0.485913	0.643103
C21	C	0.703708	-0.437394	0.579043
C22	C	0.797873	-0.442150	0.585326
C23	C	0.565791	-0.481159	0.636821
C24	C	1.170368	-0.677666	0.624081
C25	C	1.165719	-0.770096	0.629704
C26	C	1.157236	-0.939325	0.639993
C27	C	1.205738	-0.983083	0.582092
C28	C	1.201018	-1.077248	0.587817
C29	C	1.161955	-0.845152	0.634270
C30	C	1.398308	-0.472661	0.625601
C31	C	1.490735	-0.477366	0.631810
C32	C	1.181479	-0.461542	0.885062
C33	C	1.181508	-0.461509	1.001839
C34	C	1.192523	-0.244732	0.597952
C35	C	1.197258	-0.152307	0.592379
C36	C	1.181397	-0.461641	0.338062
C37	C	1.181541	-0.461448	0.221283
C38	C	1.293324	-0.360573	1.002592
C39	C	1.349244	-0.310093	1.057829
C40	C	1.349266	-0.310064	1.167550
C41	C	1.293359	-0.360518	1.222036
C42	C	1.237439	-0.410998	1.166799
C43	C	1.237425	-0.411024	1.057076
C44	C	1.125621	-0.511928	1.166045
C45	C	1.125602	-0.511963	1.056325
C46	C	1.069715	-0.562382	1.220532
C47	C	1.013798	-0.612868	1.165295
C48	C	1.013779	-0.612895	1.055567
C49	C	1.069682	-0.562443	1.001087
H50	H	0.693233	-0.531021	0.702660
H51	H	1.250806	-0.949824	0.528222
H52	H	0.670438	-0.392284	0.519480
H53	H	1.112170	-0.972582	0.693858
H54	H	0.968233	-0.653993	1.010598
H55	H	1.293319	-0.360600	0.913252
H56	H	1.394760	-0.269013	1.013454
H57	H	1.394796	-0.268954	1.212524
H58	H	1.293376	-0.360482	1.311376
H59	H	1.069734	-0.562351	1.309872
H60	H	0.968279	-0.653938	1.209665
H61	H	1.069675	-0.562464	0.911747
