data_functionalizedCrystal
_audit_creation_method	'MofGen! by Chris Wilmer'
_symmetry_space_group_name_H-M	'P1'
_symmetry_Int_Tables_number	1
_symmetry_cell_setting	triclinic
loop_
_symmetry_equiv_pos_as_xyz
  x,y,z
_cell_length_a	11.792241
_cell_length_b	11.026607
_cell_length_c	9.482900
_cell_angle_alpha	78.613859
_cell_angle_beta	80.620039
_cell_angle_gamma	83.610284
loop_
_atom_site_label
_atom_site_type_symbol
_atom_site_fract_x
_atom_site_fract_y
_atom_site_fract_z
O1	O	1.526115	-0.185397	0.120750
O2	O	1.199178	-0.202567	0.120783
O3	O	1.335551	-0.017150	0.120764
O4	O	1.389742	-0.370814	0.120769
O5	O	1.363299	0.020595	-0.121033
O6	O	1.226926	-0.164822	-0.121014
O7	O	1.553863	-0.147652	-0.121047
Cu8	Cu	1.392928	-0.152791	-0.143108
Cu9	Cu	1.360113	-0.197429	0.142844
O10	O	1.417490	-0.333069	-0.121028
C11	C	1.170547	-0.182617	-0.000111
C12	C	1.043891	-0.179392	-0.000098
N13	N	1.337031	-0.228816	0.343967
C14	C	1.339427	0.046998	-0.000132
C15	C	1.309623	0.181907	-0.000124
C16	C	0.812005	-0.173451	-0.000140
C17	C	0.941042	-0.176752	-0.000117
C18	C	1.582494	-0.167603	-0.000150
C19	C	1.709149	-0.170829	-0.000153
C20	C	1.413613	-0.397218	-0.000129
C21	C	1.443416	-0.532128	-0.000128
C22	C	1.391914	0.255172	-0.000130
C23	C	1.361113	0.394608	-0.000121
N24	N	1.416017	-0.121394	-0.344232
C25	C	1.386128	-0.162057	0.416160
C26	C	1.366913	-0.188163	0.583580
H27	H	1.485170	0.214670	-0.000148
H28	H	1.267851	0.435104	-0.000103
H29	H	1.536665	0.427359	-0.000028
C30	C	1.183637	0.236619	-0.000113
N31	N	1.088742	0.277827	-0.000109
C32	C	1.462131	-0.058731	0.332219
N33	N	1.519377	0.019099	0.268997
C34	C	1.290904	-0.291493	0.667515
N35	N	1.233654	-0.369318	0.730737
H36	H	1.472284	-0.044912	0.593636
H37	H	1.280777	-0.305302	0.406105
