data_functionalizedCrystal
_audit_creation_method	'MofGen! by Chris Wilmer'
_symmetry_space_group_name_H-M	'P1'
_symmetry_Int_Tables_number	1
_symmetry_cell_setting	triclinic
loop_
_symmetry_equiv_pos_as_xyz
  x,y,z
_cell_length_a	15.712078
_cell_length_b	15.538191
_cell_length_c	9.730223
_cell_angle_alpha	89.999437
_cell_angle_beta	90.012244
_cell_angle_gamma	83.426622
loop_
_atom_site_label
_atom_site_type_symbol
_atom_site_fract_x
_atom_site_fract_y
_atom_site_fract_z
O1	O	1.000638	0.466176	0.114524
O2	O	0.769286	0.401461	0.114468
O3	O	0.929997	0.312205	0.114514
O4	O	0.839928	0.555432	0.114479
O5	O	0.929989	0.312203	-0.114066
O6	O	0.769279	0.401459	-0.114112
O7	O	1.000631	0.466174	-0.114056
Zn8	Zn	0.884954	0.433816	-0.150376
Zn9	Zn	0.884964	0.433819	0.150788
O10	O	0.839920	0.555430	-0.114101
C11	C	0.740397	0.390888	0.000171
C12	C	0.654328	0.359376	0.000151
C13	C	0.203291	0.626921	0.000207
C14	C	0.122426	0.597291	0.000246
C15	C	0.189623	0.448823	0.000270
C16	C	0.270496	0.478440	0.000238
C17	C	0.277322	0.567490	0.000205
C18	C	0.344527	0.419010	0.000237
C19	C	0.425392	0.448625	0.000198
C20	C	0.432227	0.537671	0.000161
C21	C	0.358188	0.597106	0.000167
C22	C	0.337698	0.329960	0.000260
C23	C	0.411729	0.270529	0.000258
C24	C	0.492597	0.300145	0.000229
C25	C	0.499432	0.389191	0.000192
C26	C	0.566636	0.240710	0.000223
C27	C	0.647502	0.270326	0.000184
C28	C	0.580297	0.418806	0.000153
C29	C	0.939417	0.280355	0.000230
C30	C	0.967486	0.185453	0.000251
C31	C	0.688621	-0.198417	0.000154
C32	C	0.715016	-0.287589	0.000157
C33	C	0.863485	-0.258879	0.000194
C34	C	0.837102	-0.169703	0.000197
C35	C	0.749668	-0.139480	0.000176
C36	C	0.898149	-0.110766	0.000219
C37	C	0.871768	-0.021598	0.000215
C38	C	0.784339	0.008633	0.000189
C39	C	0.723287	-0.050312	0.000172
C40	C	0.985582	-0.140991	0.000231
C41	C	1.046630	-0.082053	0.000253
C42	C	1.020249	0.007117	0.000259
C43	C	0.932820	0.037347	0.000233
C44	C	1.081301	0.066061	0.000276
C45	C	1.054920	0.155229	0.000273
C46	C	0.906439	0.126515	0.000229
C47	C	1.029521	0.476747	0.000244
C48	C	1.115589	0.508259	0.000273
C49	C	0.830500	0.587280	0.000185
C50	C	0.802431	0.682182	0.000173
N51	N	0.884953	0.433816	-0.355912
C52	C	0.956134	0.394315	-0.571702
C53	C	0.956126	0.394318	-0.427819
C54	C	0.813787	0.473321	-0.427896
C55	C	0.813799	0.473323	-0.571776
C56	C	1.027308	0.354807	-0.643602
C57	C	1.098475	0.315303	-0.571628
C58	C	1.098467	0.315306	-0.427745
C59	C	1.027291	0.354813	-0.355836
N60	N	0.884973	0.433815	0.356324
H61	H	0.062147	0.645693	0.000241
H62	H	0.184052	0.376317	0.000281
H63	H	1.156426	0.283144	-0.630184
H64	H	0.585854	0.491320	0.000124
H65	H	0.271850	0.305850	0.000275
H66	H	1.156416	0.283148	-0.369146
C67	C	1.095376	0.397337	-0.149691
C68	C	1.027284	0.354820	-0.197676
H69	H	1.095371	0.397333	-0.052053
H70	H	1.088992	0.455348	-0.182242
H71	H	1.147944	0.368153	-0.182221
H72	H	0.974714	0.384008	-0.165155
H73	H	1.033660	0.296798	-0.165111
C74	C	0.760547	0.583166	-0.266101
C75	C	0.735553	0.516737	-0.348853
H76	H	0.712246	0.609963	-0.217300
H77	H	0.783407	0.624952	-0.322215
H78	H	0.802928	0.559630	-0.202651
H79	H	0.693176	0.540274	-0.412311
H80	H	0.712679	0.474944	-0.292734
H81	H	0.707781	0.221931	0.000186
H82	H	0.755853	0.505488	-0.630377
H83	H	0.665297	-0.335575	0.000119
C84	C	0.949824	0.397815	-0.849750
C85	C	1.027317	0.354802	-0.801759
H86	H	0.949828	0.397805	-0.947389
H87	H	0.943458	0.455828	-0.817215
H88	H	0.903634	0.368971	-0.817210
H89	H	1.073508	0.383649	-0.834291
H90	H	1.033693	0.296778	-0.834308
H91	H	1.104631	0.203219	0.000289
H92	H	0.835242	0.151124	0.000222
H93	H	0.406158	0.198024	0.000269
H94	H	0.498075	0.561783	0.000123
C95	C	0.786960	0.144189	-0.117304
C96	C	0.755337	0.106648	0.000187
H97	H	0.769058	0.204700	-0.117298
H98	H	0.765503	0.118719	-0.197007
H99	H	0.847767	0.134620	-0.117274
H100	H	0.694528	0.116212	0.000152
H101	H	0.776789	0.132127	0.079910
C102	C	0.579159	-0.087642	0.000153
C103	C	0.627178	-0.017081	0.000161
H104	H	0.519829	-0.067124	0.000140
H105	H	0.592541	-0.121823	0.079860
H106	H	0.592532	-0.121823	-0.079562
H107	H	0.613809	0.017097	0.079882
H108	H	0.613790	0.017115	-0.079554
C109	C	0.283643	0.740909	0.000154
C110	C	0.365700	0.694992	0.000137
H111	H	0.288285	0.801336	0.000128
H112	H	0.253523	0.726279	0.079877
H113	H	0.253477	0.726260	-0.079546
H114	H	0.395864	0.709636	0.079843
H115	H	0.395832	0.709629	-0.079593
H116	H	0.208848	0.699434	0.000178
H117	H	0.617424	-0.173808	0.000146
C118	C	0.472511	0.129386	0.000281
C119	C	0.559124	0.142829	0.000253
H120	H	0.467877	0.068957	0.000307
H121	H	0.445444	0.155026	-0.079426
H122	H	0.445477	0.155046	0.079996
H123	H	0.586156	0.117174	-0.079468
H124	H	0.586202	0.117178	0.079968
C125	C	0.998163	-0.261861	0.117744
C126	C	0.959589	-0.292105	0.000224
H127	H	1.057496	-0.282369	0.117759
H128	H	0.971983	-0.282381	0.197427
H129	H	0.991182	-0.200320	0.117732
H130	H	0.966565	-0.353646	0.000241
H131	H	0.985777	-0.271589	-0.079480
C132	C	1.153000	-0.205993	0.000283
C133	C	1.142734	-0.115280	0.000283
H134	H	1.212332	-0.226502	0.000314
H135	H	1.126826	-0.226495	-0.079435
H136	H	1.126816	-0.226499	0.079987
H137	H	1.168914	-0.094773	-0.079426
H138	H	1.168920	-0.094769	0.080010
H139	H	1.007059	-0.213598	0.000246
C140	C	1.215989	0.063072	0.117808
C141	C	1.177405	0.032834	0.000293
H142	H	1.275321	0.042562	0.117811
H143	H	1.189815	0.042550	0.197494
H144	H	1.209009	0.124612	0.117801
H145	H	1.184379	-0.028707	0.000305
H146	H	1.203588	0.053351	-0.079414
