data_functionalizedCrystal
_audit_creation_method	'MofGen! by Chris Wilmer'
_symmetry_space_group_name_H-M	'P1'
_symmetry_Int_Tables_number	1
_symmetry_cell_setting	triclinic
loop_
_symmetry_equiv_pos_as_xyz
  x,y,z
_cell_length_a	17.640280
_cell_length_b	17.077404
_cell_length_c	17.077396
_cell_angle_alpha	89.981638
_cell_angle_beta	78.774396
_cell_angle_gamma	78.798554
loop_
_atom_site_label
_atom_site_type_symbol
_atom_site_fract_x
_atom_site_fract_y
_atom_site_fract_z
Zn1	Zn	-0.314709	1.263298	-0.380710
Zn2	Zn	-0.446890	1.289768	-0.222937
Zn3	Zn	-0.314731	1.132035	-0.249456
Zn4	Zn	-0.446838	1.158551	-0.354174
O5	O	-0.380792	1.210913	-0.301819
O6	O	-0.332255	1.376659	-0.359788
O7	O	-0.429390	1.268825	-0.116602
O8	O	-0.204123	1.127272	-0.289070
O9	O	-0.429368	1.396106	-0.243874
O10	O	-0.204106	1.223711	-0.385502
O11	O	-0.332294	1.152939	-0.136085
O12	O	-0.332243	1.025703	-0.263340
O13	O	-0.429280	1.172465	-0.467547
O14	O	-0.429302	1.045184	-0.340276
O15	O	-0.332205	1.249422	-0.487043
O16	O	-0.557489	1.294537	-0.218143
O17	O	-0.557450	1.198132	-0.314562
C18	C	-0.380770	1.006961	-0.301806
C19	C	-0.380779	0.919713	-0.301815
C20	C	-0.330302	0.868615	-0.362231
C21	C	-0.330307	0.786636	-0.362233
C22	C	-0.380794	0.755756	-0.301823
C23	C	-0.431273	0.806860	-0.241402
C24	C	-0.431263	0.888837	-0.241397
C25	C	-0.431291	0.635994	-0.241418
C26	C	-0.431302	0.554011	-0.241423
C27	C	-0.330335	0.533792	-0.362254
C28	C	-0.330325	0.615769	-0.362249
C29	C	-0.380806	0.666868	-0.301828
C30	C	-0.586148	1.252105	-0.260612
C31	C	-0.674001	1.269800	-0.243010
C32	C	-0.962973	1.076815	-0.435827
C33	C	-1.045524	1.093443	-0.419262
C34	C	-1.045498	1.193892	-0.318963
C35	C	-0.962946	1.177275	-0.335522
C36	C	-0.921690	1.118735	-0.393955
C37	C	-0.921663	1.219195	-0.293649
C38	C	-0.839118	1.202577	-0.310205
C39	C	-0.797856	1.144038	-0.368633
C40	C	-0.839145	1.102116	-0.410510
C41	C	-0.962920	1.277731	-0.235213
C42	C	-0.921637	1.319651	-0.193340
C43	C	-0.839091	1.303037	-0.209899
C44	C	-0.797829	1.244498	-0.268327
C45	C	-0.797802	1.344958	-0.168022
C46	C	-0.715257	1.328339	-0.184578
C47	C	-0.715284	1.227879	-0.284883
C48	C	-0.174634	1.169581	-0.343204
C49	C	-0.086782	1.151968	-0.360840
C50	C	-0.380734	1.210949	-0.506575
C51	C	-0.380709	1.210964	-0.593830
C52	C	-0.380815	1.415662	-0.301833
C53	C	-0.380825	1.502914	-0.301839
C54	C	-0.330158	1.251037	-0.644974
C55	C	-0.330132	1.251041	-0.726960
C56	C	-0.380661	1.210977	-0.757799
C57	C	-0.431214	1.170899	-0.706649
C58	C	-0.431236	1.170890	-0.624666
C59	C	-0.431167	1.170921	-0.877529
C60	C	-0.431146	1.170930	-0.959518
C61	C	-0.330063	1.251071	-0.979823
C62	C	-0.330084	1.251063	-0.897839
C63	C	-0.380639	1.210986	-0.846695
C64	C	-0.380793	1.210911	-0.097871
C65	C	-0.380595	1.211003	-0.010662
H66	H	-0.289192	0.893750	-0.411426
H67	H	-0.805553	1.054453	-0.458097
O68	O	-0.281031	1.289837	-0.614943
C69	C	-0.229976	1.234900	-0.577783
H70	H	-0.257853	1.181001	-0.559892
H71	H	-0.219397	1.264744	-0.522266
H72	H	-0.171396	1.214530	-0.621140
H73	H	-0.681692	1.180216	-0.332470
O74	O	-0.480405	0.685526	-0.182688
C75	C	-0.524958	0.640693	-0.129360
H76	H	-0.527738	0.582825	-0.160953
H77	H	-0.587221	0.676871	-0.108397
H78	H	-0.495945	0.626130	-0.075609
O79	O	-0.837921	1.401903	-0.111362
C80	C	-0.885637	1.462166	-0.146519
H81	H	-0.860732	1.461978	-0.213343
H82	H	-0.886553	1.522773	-0.117991
H83	H	-0.948208	1.450479	-0.136652
H84	H	-0.730643	1.130503	-0.382105
O85	O	-0.480426	0.776974	-0.182736
C86	C	-0.559222	0.812816	-0.183964
H87	H	-0.560890	0.872687	-0.213794
H88	H	-0.594592	0.822695	-0.120157
H89	H	-0.585901	0.772051	-0.218931
O90	O	-1.085537	1.250664	-0.262096
C91	C	-1.065391	1.229513	-0.187889
H92	H	-1.042751	1.162246	-0.188410
H93	H	-1.119683	1.247233	-0.138218
H94	H	-1.017450	1.261956	-0.177031
H95	H	-1.079134	1.059311	-0.453374
H96	H	-0.288943	1.283692	-0.872732
H97	H	-0.472366	0.930441	-0.192200
H98	H	-0.472321	1.138271	-0.835891
O99	O	-1.043105	1.293952	-0.219258
C100	C	-1.070629	1.319597	-0.288992
H101	H	-1.023014	1.344210	-0.331021
H102	H	-1.125822	1.368359	-0.272335
H103	H	-1.085308	1.266963	-0.320009
O104	O	-0.961839	1.376504	-0.136621
C105	C	-1.043548	1.382163	-0.130965
H106	H	-1.054817	1.358697	-0.189263
H107	H	-1.074885	1.447268	-0.119394
H108	H	-1.067014	1.345101	-0.079664
O109	O	-0.480408	1.132040	-0.736497
C110	C	-0.559192	1.164999	-0.700664
H111	H	-0.560849	1.195496	-0.640813
H112	H	-0.594628	1.115451	-0.690738
H113	H	-0.585807	1.210701	-0.741465
H114	H	-0.288970	1.283675	-0.768598
H115	H	-0.289206	0.745035	-0.411431
O116	O	-0.280968	1.289922	-1.029619
C117	C	-0.291788	1.281348	-1.108591
H118	H	-0.317669	1.225962	-1.114580
H119	H	-0.232572	1.274796	-1.151630
H120	H	-0.333869	1.336352	-1.123423
H121	H	-0.472290	1.138304	-0.984625
O122	O	-0.675271	1.369156	-0.143853
C123	C	-0.729384	1.424373	-0.088716
H124	H	-0.788208	1.438922	-0.109072
H125	H	-0.705487	1.481412	-0.085188
H126	H	-0.738215	1.397438	-0.027303
H127	H	-0.472392	1.138249	-0.583026
H128	H	-0.289219	0.640909	-0.411444
H129	H	-0.472413	0.528872	-0.192232
O130	O	-0.281405	0.484097	-0.420964
C131	C	-0.326477	0.445757	-0.462561
H132	H	-0.386338	0.445474	-0.422763
H133	H	-0.294300	0.381658	-0.479599
H134	H	-0.335240	0.479135	-0.518956
H135	H	-0.929381	1.029151	-0.483415
