data_functionalizedCrystal
_audit_creation_method	'MofGen! by Chris Wilmer'
_symmetry_space_group_name_H-M	'P1'
_symmetry_Int_Tables_number	1
_symmetry_cell_setting	triclinic
loop_
_symmetry_equiv_pos_as_xyz
  x,y,z
_cell_length_a	12.759401
_cell_length_b	16.994747
_cell_length_c	12.759393
_cell_angle_alpha	90.011549
_cell_angle_beta	90.018496
_cell_angle_gamma	90.011218
loop_
_atom_site_label
_atom_site_type_symbol
_atom_site_fract_x
_atom_site_fract_y
_atom_site_fract_z
Zn1	Zn	1.606282	-0.313978	0.594127
Zn2	Zn	1.606188	-0.445905	0.418509
Zn3	Zn	1.430584	-0.314019	0.418467
Zn4	Zn	1.430584	-0.445844	0.594150
O5	O	1.518409	-0.379937	0.506313
O6	O	1.753290	-0.331487	0.570839
O7	O	1.582854	-0.428453	0.271482
O8	O	1.453930	-0.203633	0.441741
O9	O	1.753221	-0.428413	0.441813
O10	O	1.583015	-0.203602	0.570798
O11	O	1.453839	-0.331557	0.271451
O12	O	1.283563	-0.331498	0.441764
O13	O	1.453930	-0.428309	0.741168
O14	O	1.283563	-0.428349	0.570838
O15	O	1.583015	-0.331428	0.741152
O16	O	1.582854	-0.556278	0.441835
O17	O	1.453838	-0.556234	0.570878
C18	C	1.245442	-0.379922	0.506299
C19	C	1.128665	-0.379935	0.506318
C20	C	1.518349	-0.584877	0.506361
C21	C	1.518356	-0.674199	0.506358
Zn22	Zn	1.430614	-0.945106	0.418437
Zn23	Zn	1.606329	-0.945043	0.594081
Zn24	Zn	1.430620	-0.813237	0.594133
Zn25	Zn	1.606207	-0.813160	0.418475
O26	O	1.518442	-0.879136	0.506282
O27	O	1.453972	-1.055479	0.441700
O28	O	1.583074	-0.927564	0.741109
O29	O	1.283598	-0.830788	0.570832
O30	O	1.583069	-1.055433	0.570744
O31	O	1.283594	-0.927672	0.441750
O32	O	1.453981	-0.830727	0.741147
O33	O	1.453863	-0.702845	0.570869
O34	O	1.582861	-0.830657	0.271449
O35	O	1.582866	-0.702789	0.441813
O36	O	1.453853	-0.927597	0.271421
O37	O	1.753334	-0.927490	0.570781
O38	O	1.753244	-0.830597	0.441763
C39	C	1.073831	-0.430446	0.573416
C40	C	0.964107	-0.430456	0.573427
C41	C	0.964061	-0.329442	0.439234
C42	C	1.073784	-0.329428	0.439229
C43	C	1.128713	-0.480953	0.640505
C44	C	1.073878	-0.531469	0.707607
C45	C	0.964154	-0.531479	0.707619
C46	C	0.909264	-0.480973	0.640528
C47	C	1.792443	-0.379952	0.506328
C48	C	1.909219	-0.379958	0.506335
C49	C	1.518483	-0.379857	0.780347
C50	C	1.518514	-0.379823	0.897124
C51	C	1.518476	-0.174197	0.506260
C52	C	1.518508	-0.084875	0.506238
C53	C	1.518397	-0.379959	0.233346
C54	C	1.518569	-0.379771	0.116570
C55	C	1.585738	-0.329372	0.951979
C56	C	1.585763	-0.329344	1.061703
C57	C	1.451338	-0.430224	1.061707
C58	C	1.451308	-0.430248	0.951985
C59	C	1.652944	-0.278947	0.897117
C60	C	1.720174	-0.228493	0.951972
C61	C	1.720199	-0.228464	1.061696
C62	C	1.652994	-0.278890	1.116565
C63	C	1.791410	-0.879030	0.506273
C64	C	1.908186	-0.879008	0.506300
C65	C	1.518343	-0.879126	0.232248
C66	C	1.518300	-0.879121	0.115471
C67	C	1.244409	-0.879245	0.506293
C68	C	1.127632	-0.879291	0.506297
C69	C	1.518467	-0.879192	0.779249
C70	C	1.518216	-0.879347	0.896025
C71	C	1.963060	-0.929486	0.573425
C72	C	2.072784	-0.929472	0.573430
C73	C	2.072751	-0.828497	0.439185
C74	C	1.963029	-0.828515	0.439175
C75	C	1.908218	-0.979979	0.640550
C76	C	1.963092	-1.030460	0.707681
C77	C	2.072816	-1.030447	0.707687
C78	C	2.127666	-0.979952	0.640562
C79	C	1.451115	-0.929587	0.060593
C80	C	1.451068	-0.929571	-0.049131
C81	C	1.585400	-0.828620	-0.049089
C82	C	1.585441	-0.828633	0.060633
C83	C	1.383975	-0.980075	0.115432
C84	C	1.316785	-1.030546	0.060554
C85	C	1.316738	-1.030530	-0.049170
C86	C	1.383880	-0.980043	-0.104016
H87	H	1.118576	-0.572584	0.762237
C88	C	2.240935	-0.783631	0.379605
C89	C	2.133040	-0.772989	0.365415
H90	H	2.278152	-0.749356	0.334067
H91	H	2.258909	-0.836609	0.364151
H92	H	2.258918	-0.772129	0.450218
H93	H	2.115056	-0.784496	0.294803
H94	H	2.115059	-0.719999	0.380861
C95	C	1.734864	-0.122321	1.185057
C96	C	1.794088	-0.172998	1.121990
H97	H	1.780485	-0.088076	1.222271
H98	H	1.694862	-0.152347	1.233435
H99	H	1.689092	-0.092163	1.142231
H100	H	1.839854	-0.203161	1.164818
H101	H	1.834108	-0.142969	1.073606
H102	H	1.918349	-0.787407	0.384522
C103	C	1.929359	-1.068994	0.885532
C104	C	1.902805	-1.085960	0.781463
H105	H	1.892145	-1.103262	0.931080
H106	H	1.911381	-1.016013	0.900968
H107	H	2.002561	-1.076214	0.895127
H108	H	1.829604	-1.078734	0.771865
H109	H	1.920776	-1.138954	0.766021
C110	C	1.310903	-1.035061	0.272589
C111	C	1.384021	-0.980092	0.236041
H112	H	1.310931	-1.035066	0.347048
H113	H	1.329094	-1.085943	0.247743
H114	H	1.243090	-1.021443	0.247775
H115	H	1.451835	-0.993713	0.260849
H116	H	1.365835	-0.929198	0.260898
C117	C	1.265683	-1.164141	0.094261
C118	C	1.242980	-1.086039	0.120832
H119	H	1.220112	-1.198398	0.131469
H120	H	1.336277	-1.175652	0.112237
H121	H	1.256039	-1.171341	0.021058
H122	H	1.252632	-1.078837	0.194034
H123	H	1.172369	-1.074523	0.102863
H124	H	1.818875	-0.979993	0.640555
H125	H	1.262020	-1.071619	-0.093849
C126	C	1.310773	-1.035053	-0.261218
C127	C	1.383895	-0.980074	-0.224628
H128	H	1.310811	-1.035091	-0.335677
H129	H	1.242968	-1.021424	-0.236459
H130	H	1.328962	-1.085933	-0.236347
H131	H	1.365702	-0.929193	-0.249493
H132	H	1.451715	-0.993698	-0.249398
C133	C	1.318482	-0.529996	0.963002
C134	C	1.377444	-0.485726	0.891680
H135	H	1.272891	-0.564252	0.925770
H136	H	1.278296	-0.495624	1.005776
H137	H	1.364275	-0.560144	1.005819
H138	H	1.331651	-0.455572	0.848868
H139	H	1.417633	-0.520102	0.848888
H140	H	0.819920	-0.480978	0.640551
C141	C	0.795842	-0.284624	0.379644
C142	C	0.903729	-0.273940	0.365476
H143	H	0.758599	-0.250365	0.334098
H144	H	0.777889	-0.273138	0.450245
H145	H	0.777870	-0.337616	0.364178
H146	H	0.921702	-0.220949	0.380950
H147	H	0.921689	-0.285421	0.294859
H148	H	1.640065	-0.787517	-0.093754
C149	C	0.975225	-0.631329	0.840255
C150	C	0.903878	-0.587003	0.781376
H151	H	0.938012	-0.665613	0.885784
H152	H	1.018036	-0.596995	0.880504
H153	H	1.018002	-0.661451	0.794406
H154	H	0.861106	-0.556876	0.827225
H155	H	0.861048	-0.621341	0.741125
H156	H	1.653008	-0.278854	1.205910
C157	C	1.107520	-0.290860	0.261390
C158	C	1.134074	-0.273916	0.365467
H159	H	1.144749	-0.256591	0.215855
H160	H	1.034331	-0.283631	0.251793
H161	H	1.125491	-0.343847	0.245937
H162	H	1.116095	-0.220931	0.380922
H163	H	1.207280	-0.281139	0.375069
C164	C	1.285917	-0.535936	0.713551
C165	C	1.249322	-0.480941	0.640497
H166	H	1.360375	-0.535924	0.713547
H167	H	1.261086	-0.586816	0.695282
H168	H	1.261119	-0.522356	0.781375
H169	H	1.274113	-0.494524	0.572672
H170	H	1.274163	-0.430050	0.658761
C171	C	1.726095	-0.224062	0.739935
C172	C	1.652914	-0.278975	0.776508
H173	H	1.726070	-0.224078	0.665476
H174	H	1.793882	-0.237708	0.764761
H175	H	1.707950	-0.173154	0.764752
H176	H	1.671064	-0.329884	0.751696
H177	H	1.585112	-0.265333	0.751671
C178	C	1.898085	-0.190086	0.918201
C179	C	1.794039	-0.173063	0.891666
H180	H	1.943683	-0.155860	0.880975
H181	H	1.913429	-0.243083	0.900224
H182	H	1.907707	-0.182847	0.991400
H183	H	1.784415	-0.180307	0.818467
H184	H	1.778688	-0.120053	0.909635
C185	C	1.391710	-0.474987	1.229908
C186	C	1.377482	-0.485658	1.122018
H187	H	1.346120	-0.509217	1.267138
H188	H	1.376352	-0.421991	1.247879
H189	H	1.462306	-0.486530	1.247879
H190	H	1.306887	-0.474110	1.104045
H191	H	1.392832	-0.538666	1.104040
C192	C	2.196206	-1.136547	0.722153
C193	C	2.133135	-1.085935	0.781471
H194	H	2.233437	-1.170804	0.767711
H195	H	2.244568	-1.106474	0.682191
H196	H	2.153379	-1.166696	0.676339
H197	H	2.175963	-1.055782	0.827280
H198	H	2.084767	-1.116011	0.821451
C199	C	1.718227	-0.728853	0.049662
C200	C	1.659295	-0.773163	0.120963
H201	H	1.763823	-0.694610	0.086910
H202	H	1.672424	-0.698695	0.006884
H203	H	1.758416	-0.763205	0.006846
H204	H	1.619100	-0.738811	0.163774
H205	H	1.705104	-0.803323	0.163758
H206	H	2.217011	-0.979950	0.640566
