data_functionalizedCrystal
_audit_creation_method	'MofGen! by Chris Wilmer'
_symmetry_space_group_name_H-M	'P1'
_symmetry_Int_Tables_number	1
_symmetry_cell_setting	triclinic
loop_
_symmetry_equiv_pos_as_xyz
  x,y,z
_cell_length_a	11.026607
_cell_length_b	19.188930
_cell_length_c	10.065875
_cell_angle_alpha	98.754308
_cell_angle_beta	79.302338
_cell_angle_gamma	95.865399
loop_
_atom_site_label
_atom_site_type_symbol
_atom_site_fract_x
_atom_site_fract_y
_atom_site_fract_z
O1	O	1.626420	0.284145	-0.113552
O2	O	2.126420	0.784145	0.386448
O3	O	1.273289	0.250876	-0.113547
O4	O	1.773289	0.750876	0.386453
O5	O	1.460041	0.167156	-0.113523
O6	O	1.960041	0.667156	0.386477
O7	O	1.439668	0.367866	-0.113576
O8	O	1.939668	0.867866	0.386424
O9	O	1.424429	0.183202	0.113461
O10	O	1.924429	0.683202	0.613461
O11	O	1.237678	0.266922	0.113437
O12	O	1.737678	0.766922	0.613437
O13	O	1.590808	0.300192	0.113432
O14	O	2.090808	0.800192	0.613432
Zn15	Zn	1.408589	0.286105	0.149473
Zn16	Zn	1.908589	0.786105	0.649473
Zn17	Zn	1.455509	0.264963	-0.149588
Zn18	Zn	1.955509	0.764963	0.350412
O19	O	1.404057	0.383912	0.113408
O20	O	1.904057	0.883912	0.613408
C21	C	1.210305	0.252761	-0.000054
C22	C	1.710305	0.752761	0.499946
C23	C	1.075688	0.234465	-0.000051
C24	C	1.575688	0.734465	0.499949
C25	C	1.001616	0.284984	-0.000065
C26	C	1.501616	0.784984	0.499935
C27	C	0.862482	0.266075	-0.000062
C28	C	1.362482	0.766075	0.499938
C29	C	1.441574	0.149084	-0.000027
C30	C	1.941574	0.649084	0.499973
C31	C	1.439591	0.071328	-0.000015
C32	C	1.939591	0.571328	0.499985
C33	C	1.549173	0.040370	-0.000010
C34	C	2.049173	0.540370	0.499990
C35	C	1.547315	-0.032693	-0.000032
C36	C	2.047315	0.467307	0.499968
C37	C	1.435865	-0.074793	-0.000031
C38	C	1.935865	0.425207	0.499969
C39	C	1.326271	-0.043828	-0.000044
C40	C	1.826271	0.456172	0.499956
C41	C	1.328134	0.029233	-0.000036
C42	C	1.828134	0.529233	0.499964
N43	N	1.338556	-0.188194	0.077217
N44	N	1.838556	0.311806	0.577217
N45	N	1.336793	-0.257598	0.077212
N46	N	1.836793	0.242402	0.577212
C47	C	1.430245	-0.294920	-0.000059
C48	C	1.930245	0.205080	0.499941
N49	N	1.525543	-0.260215	-0.077308
N50	N	2.025543	0.239785	0.422692
N51	N	1.527308	-0.190805	-0.077297
N52	N	2.027308	0.309195	0.422703
C53	C	1.433832	-0.154015	-0.000041
C54	C	1.933832	0.345985	0.499959
C55	C	1.537819	-0.405101	-0.000080
C56	C	2.037819	0.094899	0.499920
C57	C	1.535958	-0.478166	-0.000110
C58	C	2.035958	0.021834	0.499890
C59	C	1.314909	-0.489298	-0.000108
C60	C	1.814909	0.010702	0.499892
C61	C	1.316775	-0.416236	-0.000092
C62	C	1.816775	0.083764	0.499908
C63	C	1.428233	-0.374141	-0.000071
C64	C	1.928233	0.125859	0.499929
C65	C	1.653793	0.298306	-0.000064
C66	C	2.153793	0.798306	0.499936
C67	C	1.788412	0.316602	-0.000076
C68	C	2.288412	0.816602	0.499924
C69	C	1.422523	0.401983	-0.000091
C70	C	1.922523	0.901983	0.499909
C71	C	1.424508	0.479739	-0.000112
C72	C	1.924508	0.979739	0.499888
N73	N	1.376576	0.300534	0.353575
N74	N	1.876576	0.800534	0.853575
N75	N	1.487531	0.250529	-0.353689
N76	N	1.987531	0.750529	0.146311
C77	C	1.444363	0.269978	0.421362
C78	C	1.944363	0.769978	0.921362
C79	C	1.419734	0.281090	0.578527
C80	C	1.919734	0.781090	1.078527
H81	H	1.639931	0.074639	0.000002
H82	H	2.139931	0.574639	0.500002
N83	N	1.054034	0.360823	-0.000083
N84	N	1.554034	0.860823	0.499917
H85	H	1.092667	0.376620	0.084057
H86	H	1.592667	0.876620	0.584057
H87	H	1.119019	0.364668	-0.084284
H88	H	1.619019	0.864668	0.415716
N89	N	1.545381	0.224428	0.344104
N90	N	2.045381	0.724428	0.844104
H91	H	1.627617	0.244913	0.368862
H92	H	2.127617	0.744913	0.868862
H93	H	1.527460	0.174910	0.368939
H94	H	2.027460	0.674910	0.868939
N95	N	1.658030	-0.359695	-0.000063
N96	N	2.158030	0.140305	0.499937
H97	H	1.650523	-0.323201	0.084094
H98	H	2.150523	0.176799	0.584094
H99	H	1.727104	-0.390451	-0.000121
H100	H	2.227104	0.109549	0.499879
H101	H	1.224166	-0.523576	-0.000114
H102	H	1.724166	-0.023576	0.499886
H103	H	0.822903	0.208818	-0.000082
H104	H	1.322903	0.708818	0.499918
H105	H	1.343457	0.315475	0.636838
H106	H	1.843457	0.815475	1.136838
N107	N	1.654160	-0.511554	-0.000100
N108	N	2.154160	-0.011554	0.499900
H109	H	1.645102	-0.535682	0.084037
H110	H	2.145102	-0.035682	0.584037
H111	H	1.671464	-0.547523	-0.084305
H112	H	2.171464	-0.047523	0.415695
H113	H	1.235528	-0.078110	-0.000047
H114	H	1.735528	0.421890	0.499953
H115	H	1.563799	0.216137	0.588000
H116	H	2.063799	0.716137	1.088000
H117	H	1.036103	0.177212	-0.000071
H118	H	1.536103	0.677212	0.499929
N119	N	1.665510	-0.066096	-0.000030
N120	N	2.165510	0.433904	0.499970
H121	H	1.736399	-0.028342	-0.000018
H122	H	2.236399	0.471658	0.499982
H123	H	1.656337	-0.090225	0.084115
H124	H	2.156337	0.409775	0.584115
N125	N	1.198582	-0.382839	-0.000089
N126	N	1.698582	0.117161	0.499911
H127	H	1.127695	-0.420594	-0.000091
H128	H	1.627695	0.079406	0.499909
H129	H	1.181340	-0.346828	0.084061
H130	H	1.681340	0.153172	0.584061
N131	N	1.275542	0.346078	0.430812
N132	N	1.775542	0.846078	0.930812
H133	H	1.312639	0.386915	0.490081
H134	H	1.812639	0.886915	0.990081
H135	H	1.233722	0.364892	0.363896
H136	H	1.733722	0.864892	0.863896
N137	N	0.840825	0.392444	-0.000083
N138	N	1.340825	0.892444	0.499917
H139	H	0.932787	0.395204	-0.000080
H140	H	1.432787	0.895204	0.499920
H141	H	0.825519	0.410479	-0.084235
H142	H	1.325519	0.910479	0.415765
H143	H	1.238897	0.054438	-0.000039
H144	H	1.738897	0.554438	0.499961
