data_functionalizedCrystal
_audit_creation_method	'MofGen! by Chris Wilmer'
_symmetry_space_group_name_H-M	'P1'
_symmetry_Int_Tables_number	1
_symmetry_cell_setting	triclinic
loop_
_symmetry_equiv_pos_as_xyz
  x,y,z
_cell_length_a	12.759401
_cell_length_b	10.686285
_cell_length_c	12.759387
_cell_angle_alpha	85.570858
_cell_angle_beta	89.958684
_cell_angle_gamma	85.633237
loop_
_atom_site_label
_atom_site_type_symbol
_atom_site_fract_x
_atom_site_fract_y
_atom_site_fract_z
Zn1	Zn	1.638577	-0.501875	-0.562029
Zn2	Zn	1.651912	-0.713036	-0.372889
Zn3	Zn	1.462825	-0.502055	-0.386353
Zn4	Zn	1.476361	-0.712835	-0.548539
O5	O	1.557419	-0.607450	-0.467453
O6	O	1.787368	-0.529895	-0.536950
O7	O	1.626745	-0.685208	-0.227644
O8	O	1.474894	-0.325448	-0.420937
O9	O	1.797164	-0.685034	-0.397990
O10	O	1.604018	-0.325316	-0.550006
O11	O	1.487823	-0.530202	-0.237535
O12	O	1.317599	-0.530007	-0.407856
O13	O	1.497963	-0.684691	-0.697360
O14	O	1.327544	-0.684866	-0.527014
O15	O	1.617143	-0.529700	-0.707271
O16	O	1.639870	-0.889593	-0.384909
O17	O	1.510893	-0.889445	-0.513959
C18	C	1.284450	-0.607435	-0.467433
C19	C	1.167675	-0.607459	-0.467447
C20	C	1.578326	-0.935305	-0.446532
C21	C	1.587366	-1.075562	-0.437617
C22	C	1.118027	-0.688217	-0.529379
C23	C	1.008303	-0.688221	-0.529400
C24	C	0.997886	-0.526707	-0.405548
C25	C	1.107607	-0.526697	-0.405533
C26	C	1.831453	-0.607467	-0.467473
C27	C	1.948230	-0.607474	-0.467482
C28	C	1.557576	-0.607153	-0.741505
C29	C	1.557643	-0.607026	-0.858290
C30	C	1.536459	-0.278316	-0.488478
C31	C	1.527527	-0.138058	-0.497438
C32	C	1.557317	-0.607655	-0.194472
C33	C	1.557431	-0.607427	-0.077710
C34	C	1.484814	-0.527011	0.081701
C35	C	1.484705	-0.527214	-0.028009
C36	C	1.630263	-0.687451	-0.017693
C37	C	1.630367	-0.687253	0.092016
H38	H	1.166931	-0.753975	-0.579796
Br39	Br	1.430607	-1.048399	-0.594171
Br40	Br	0.916359	-0.417107	-0.321526
H41	H	1.645508	-1.129365	-0.379570
Br42	Br	1.386116	-0.418136	0.149141
H43	H	0.967884	-0.753981	-0.579832
H44	H	1.689473	-0.752767	-0.058168
Br45	Br	1.385844	-0.418639	-0.109445
Br46	Br	1.729206	-0.795863	0.173464
Br47	Br	1.174993	-0.417076	-0.321488
