data_functionalizedCrystal
_audit_creation_method	'MofGen! by Chris Wilmer'
_symmetry_space_group_name_H-M	'P1'
_symmetry_Int_Tables_number	1
_symmetry_cell_setting	triclinic
loop_
_symmetry_equiv_pos_as_xyz
  x,y,z
_cell_length_a	6.817900
_cell_length_b	11.452831
_cell_length_c	10.943624
_cell_angle_alpha	80.848247
_cell_angle_beta	108.838799
_cell_angle_gamma	108.696887
loop_
_atom_site_label
_atom_site_type_symbol
_atom_site_fract_x
_atom_site_fract_y
_atom_site_fract_z
V1	V	-4.094219	-0.168884	-0.364610
O2	O	-4.074231	0.008148	-0.396719
O3	O	-4.051254	-0.334899	-0.324559
O4	O	-4.072510	-0.166271	-0.540763
O5	O	-4.052827	-0.161647	-0.179018
V6	V	-4.573684	-0.147710	-0.346974
O7	O	-4.364379	-0.215329	-0.403295
O8	O	-4.753721	-0.101265	-0.308288
O9	O	-4.393442	0.018306	-0.387024
O10	O	-4.711069	-0.324742	-0.314865
O11	O	-4.732472	-0.154947	-0.532565
O12	O	-4.372186	-0.150322	-0.170820
C13	C	-3.896713	-0.375371	-0.309116
C14	C	-3.943049	-0.511091	-0.277545
C15	C	-4.067586	-0.728436	-0.339481
C16	C	-4.019697	-0.588164	-0.372119
C17	C	-3.923827	-0.160267	-0.584904
C18	C	-3.987397	-0.159230	-0.728664
C19	C	-3.833107	-0.152245	-0.807381
C20	C	-4.009404	-0.255926	-0.890078
C21	C	-3.924398	-0.053712	-0.902120
C22	C	-4.162892	-0.263009	-0.809462
C23	C	-4.077817	-0.060703	-0.821502
C24	C	-4.254247	-0.164414	-0.904163
C25	C	-4.211324	0.058771	-0.402462
C26	C	-4.144228	0.194489	-0.434042
C27	C	-4.184210	-0.156330	-0.126671
C28	C	-4.099878	-0.157361	0.017088
H29	H	-3.912863	-0.548944	-0.172416
Cl30	Cl	-4.190788	-0.747066	-0.596345
Cl31	Cl	-4.317642	-0.399727	-0.747037
H32	H	-4.037414	-0.766298	-0.234360
H33	H	-3.654537	-0.147239	-0.765057
Cl34	Cl	-4.121313	0.066729	-0.774495
H35	H	-4.049855	-0.550308	-0.477246
Cl36	Cl	-3.965780	-0.383350	-0.937028
Cl37	Cl	-4.530085	-0.172390	-0.969142
H38	H	-3.824190	0.034721	-0.942750
