data_functionalizedCrystal
_audit_creation_method	'MofGen! by Chris Wilmer'
_symmetry_space_group_name_H-M	'P1'
_symmetry_Int_Tables_number	1
_symmetry_cell_setting	triclinic
loop_
_symmetry_equiv_pos_as_xyz
  x,y,z
_cell_length_a	9.065215
_cell_length_b	9.065218
_cell_length_c	17.766277
_cell_angle_alpha	89.995554
_cell_angle_beta	89.991201
_cell_angle_gamma	85.015291
loop_
_atom_site_label
_atom_site_type_symbol
_atom_site_fract_x
_atom_site_fract_y
_atom_site_fract_z
O1	O	1.960414	0.216339	-0.062582
O2	O	1.531129	0.234090	-0.062585
O3	O	1.754645	0.010572	-0.062582
O4	O	1.736898	0.439857	-0.062585
O5	O	1.754605	0.010560	0.062606
O6	O	1.531089	0.234078	0.062603
O7	O	1.960374	0.216327	0.062606
Cu8	Cu	1.745728	0.225201	0.074036
Cu9	Cu	1.745775	0.225215	-0.074014
O10	O	1.736858	0.439845	0.062603
C11	C	1.476122	0.232379	0.000009
C12	C	1.312279	0.227281	0.000007
C13	C	1.752919	-0.044421	0.000011
C14	C	1.747819	-0.208264	0.000007
C15	C	2.015381	0.218038	0.000011
C16	C	2.179224	0.223136	0.000007
C17	C	1.738584	0.494837	0.000009
C18	C	1.743683	0.658680	0.000007
N19	N	1.745705	0.225190	0.178166
N20	N	1.745809	0.225215	-0.178145
C21	C	1.844711	0.126266	0.217554
C22	C	1.844720	0.126259	0.296356
C23	C	1.745737	0.225202	0.335766
C24	C	1.646712	0.324134	0.296369
C25	C	1.646696	0.324128	0.217568
C26	C	1.728199	0.359329	0.460603
C27	C	1.728225	0.359337	0.539402
C28	C	1.745776	0.225221	0.578813
C29	C	1.763333	0.091091	0.539415
C30	C	1.763317	0.091085	0.460615
C31	C	1.745742	0.225219	0.421212
C32	C	1.844797	0.126281	0.703647
C33	C	1.844795	0.126272	0.782450
C34	C	1.646794	0.324160	0.782461
C35	C	1.646789	0.324156	0.703660
C36	C	1.745798	0.225218	0.664257
H37	H	1.925327	0.045702	0.185475
H38	H	1.925412	0.045716	0.671564
H39	H	1.925413	0.045709	0.814521
H40	H	1.566195	0.404715	0.814549
C41	C	1.539243	0.431740	0.661026
C42	C	1.452583	0.518417	0.712403
C43	C	1.353502	0.617554	0.673157
H44	H	1.476972	0.377973	0.630294
H45	H	1.593099	0.493983	0.630292
H46	H	1.398731	0.456183	0.743124
H47	H	1.514814	0.572216	0.743137
H48	H	1.407357	0.679797	0.642423
H49	H	1.291241	0.563775	0.642426
H50	H	1.294700	0.676386	0.708010
C51	C	1.539315	0.431795	0.339056
C52	C	1.565134	0.577129	0.319858
C53	C	1.466206	0.676342	0.359157
H54	H	1.553399	0.417842	0.391640
H55	H	1.440598	0.414478	0.326139
H56	H	1.663827	0.594439	0.332780
H57	H	1.551039	0.591130	0.267281
H58	H	1.367489	0.659025	0.346241
H59	H	1.480298	0.662375	0.411739
H60	H	1.483701	0.774961	0.346132
H61	H	1.777624	-0.018119	0.571501
H62	H	1.925345	0.045700	0.328432
H63	H	1.713938	0.468553	0.571474
C64	C	1.782306	-0.054689	0.417975
C65	C	1.797645	-0.172151	0.469347
C66	C	1.815113	-0.306461	0.430095
H67	H	1.868177	-0.056692	0.387219
H68	H	1.697855	-0.064124	0.387265
H69	H	1.882087	-0.162719	0.500045
H70	H	1.711787	-0.170197	0.500105
H71	H	1.730662	-0.315897	0.399385
H72	H	1.900984	-0.308449	0.399341
H73	H	1.825509	-0.386176	0.464945
C74	C	1.709391	0.504849	0.417718
C75	C	1.833962	0.518234	0.372448
C76	C	1.816681	0.652250	0.332924
H77	H	1.699009	0.584863	0.452376
H78	H	1.623553	0.506651	0.386945
H79	H	1.919776	0.516446	0.403219
H80	H	1.844367	0.438253	0.337777
H81	H	1.730843	0.654051	0.302150
H82	H	1.806297	0.732252	0.367587
H83	H	1.901192	0.661343	0.302199
H84	H	1.566072	0.404685	0.185498
