data_functionalizedCrystal
_audit_creation_method	'MofGen! by Chris Wilmer'
_symmetry_space_group_name_H-M	'P1'
_symmetry_Int_Tables_number	1
_symmetry_cell_setting	triclinic
loop_
_symmetry_equiv_pos_as_xyz
  x,y,z
_cell_length_a	18.050589
_cell_length_b	16.625548
_cell_length_c	16.625539
_cell_angle_alpha	90.022345
_cell_angle_beta	89.975176
_cell_angle_gamma	89.971920
loop_
_atom_site_label
_atom_site_type_symbol
_atom_site_fract_x
_atom_site_fract_y
_atom_site_fract_z
Zn1	Zn	-0.295661	-1.232648	-0.455967
Zn2	Zn	-0.045661	-0.982648	-0.205967
Zn3	Zn	0.204339	-0.732648	0.044033
Zn4	Zn	0.454339	-0.482648	0.294033
Zn5	Zn	-0.419859	-1.232538	-0.321142
Zn6	Zn	-0.169859	-0.982538	-0.071142
Zn7	Zn	0.080141	-0.732538	0.178858
Zn8	Zn	0.330141	-0.482538	0.428858
Zn9	Zn	-0.295687	-1.097810	-0.321143
Zn10	Zn	-0.045687	-0.847810	-0.071143
Zn11	Zn	0.204313	-0.597810	0.178857
Zn12	Zn	0.454313	-0.347810	0.428857
Zn13	Zn	-0.419813	-1.097767	-0.455928
Zn14	Zn	-0.169813	-0.847767	-0.205928
Zn15	Zn	0.080187	-0.597767	0.044072
Zn16	Zn	0.330187	-0.347767	0.294072
O17	O	-0.357755	-1.165191	-0.388545
O18	O	-0.107755	-0.915191	-0.138545
O19	O	0.142245	-0.665191	0.111455
O20	O	0.392245	-0.415191	0.361455
O21	O	-0.312144	-1.345466	-0.438098
O22	O	-0.062144	-1.095466	-0.188098
O23	O	0.187856	-0.845466	0.061902
O24	O	0.437856	-0.595466	0.311902
O25	O	-0.403417	-1.214638	-0.208310
O26	O	-0.153417	-0.964638	0.041690
O27	O	0.096583	-0.714638	0.291690
O28	O	0.346583	-0.464638	0.541690
O29	O	-0.191759	-1.115761	-0.339045
O30	O	0.058241	-0.865761	-0.089045
O31	O	0.308241	-0.615761	0.160955
O32	O	0.558241	-0.365761	0.410955
O33	O	-0.403392	-1.345385	-0.339043
O34	O	-0.153392	-1.095385	-0.089043
O35	O	0.096608	-0.845385	0.160957
O36	O	0.346608	-0.595385	0.410957
O37	O	-0.191740	-1.214826	-0.438099
O38	O	0.058260	-0.964826	-0.188099
O39	O	0.308260	-0.714826	0.061901
O40	O	0.558260	-0.464826	0.311901
O41	O	-0.312188	-1.115654	-0.208311
O42	O	-0.062188	-0.865654	0.041689
O43	O	0.187812	-0.615654	0.291689
O44	O	0.437812	-0.365654	0.541689
O45	O	-0.312144	-0.984972	-0.339007
O46	O	-0.062144	-0.734972	-0.089007
O47	O	0.187856	-0.484972	0.160993
O48	O	0.437856	-0.234972	0.410993
O49	O	-0.403315	-1.115687	-0.568766
O50	O	-0.153315	-0.865687	-0.318766
O51	O	0.096685	-0.615687	-0.068766
O52	O	0.346685	-0.365687	0.181234
O53	O	-0.403339	-0.984940	-0.438033
O54	O	-0.153339	-0.734940	-0.188033
O55	O	0.096661	-0.484940	0.061967
O56	O	0.346661	-0.234940	0.311967
O57	O	-0.312100	-1.214784	-0.568794
O58	O	-0.062100	-0.964784	-0.318794
O59	O	0.187900	-0.714784	-0.068794
O60	O	0.437900	-0.464784	0.181206
O61	O	-0.523777	-1.214596	-0.339005
O62	O	-0.273777	-0.964596	-0.089005
O63	O	-0.023777	-0.714596	0.160995
O64	O	0.226223	-0.464596	0.410995
O65	O	-0.523744	-1.115580	-0.438032
O66	O	-0.273744	-0.865580	-0.188032
O67	O	-0.023744	-0.615580	0.061968
O68	O	0.226256	-0.365580	0.311968
C69	C	-0.550707	-1.165093	-0.388532
C70	C	-0.300707	-0.915093	-0.138532
C71	C	-0.050707	-0.665093	0.111468
C72	C	0.199293	-0.415093	0.361468
C73	C	-0.633253	-1.165126	-0.388553
C74	C	-0.383253	-0.915126	-0.138553
C75	C	-0.133253	-0.665126	0.111447
C76	C	0.116747	-0.415126	0.361447
C77	C	-0.357740	-0.955700	-0.388516
C78	C	-0.107740	-0.705700	-0.138516
C79	C	0.142260	-0.455700	0.111484
C80	C	0.392260	-0.205700	0.361484
C81	C	-0.357752	-0.866079	-0.388523
C82	C	-0.107752	-0.616079	-0.138523
C83	C	0.142248	-0.366079	0.111477
C84	C	0.392248	-0.116079	0.361477
C85	C	-0.357699	-1.165243	-0.598854
C86	C	-0.107699	-0.915243	-0.348854
C87	C	0.142301	-0.665243	-0.098854
C88	C	0.392301	-0.415243	0.151146
C89	C	-0.357676	-1.165266	-0.688475
C90	C	-0.107676	-0.915266	-0.438475
C91	C	0.142324	-0.665266	-0.188475
C92	C	0.392324	-0.415266	0.061525
C93	C	-0.832712	-1.111334	-0.442385
C94	C	-0.582712	-0.861334	-0.192385
C95	C	-0.332712	-0.611334	0.057615
C96	C	-0.082712	-0.361334	0.307615
C97	C	-0.882154	-1.091677	-0.368808
C98	C	-0.632154	-0.841677	-0.118808
C99	C	-0.382154	-0.591677	0.131192
C100	C	-0.132154	-0.341677	0.381192
C101	C	-0.784383	-1.165205	-0.388564
C102	C	-0.534383	-0.915205	-0.138564
C103	C	-0.284383	-0.665205	0.111436
C104	C	-0.034383	-0.415205	0.361436
C105	C	-0.882023	-1.184901	-0.462149
C106	C	-0.632023	-0.934901	-0.212149
C107	C	-0.382023	-0.684901	0.037851
C108	C	-0.132023	-0.434901	0.287851
C109	C	-0.930368	-1.165280	-0.388580
C110	C	-0.680368	-0.915280	-0.138580
C111	C	-0.430368	-0.665280	0.111420
C112	C	-0.180368	-0.415280	0.361420
C113	C	-0.832738	-1.145510	-0.314948
C114	C	-0.582738	-0.895510	-0.064948
C115	C	-0.332738	-0.645510	0.185052
C116	C	-0.082738	-0.395510	0.435052
C117	C	-0.832602	-1.238767	-0.408338
C118	C	-0.582602	-0.988767	-0.158338
C119	C	-0.332602	-0.738767	0.091662
C120	C	-0.082602	-0.488767	0.341662
C121	C	-0.882022	-1.219139	-0.334711
C122	C	-0.632022	-0.969139	-0.084711
C123	C	-0.382022	-0.719139	0.165289
C124	C	-0.132022	-0.469139	0.415289
C125	C	-0.700285	-1.165160	-0.388555
C126	C	-0.450285	-0.915160	-0.138555
C127	C	-0.200285	-0.665160	0.111445
C128	C	0.049715	-0.415160	0.361445
C129	C	-1.014465	-1.165325	-0.388580
C130	C	-0.764465	-0.915325	-0.138580
C131	C	-0.514465	-0.665325	0.111420
C132	C	-0.264465	-0.415325	0.361420
C133	C	-0.164049	-1.165310	-0.388576
C134	C	0.085951	-0.915310	-0.138576
C135	C	0.335951	-0.665310	0.111424
C136	C	0.585951	-0.415310	0.361424
C137	C	-0.081503	-1.165361	-0.388590
C138	C	0.168497	-0.915361	-0.138590
C139	C	0.418497	-0.665361	0.111410
C140	C	0.668497	-0.415361	0.361410
C141	C	-0.357750	-0.537903	-0.388547
C142	C	-0.107750	-0.287903	-0.138547
C143	C	0.142250	-0.037903	0.111453
C144	C	0.392250	0.212097	0.361453
C145	C	-0.357749	-0.629212	-0.388538
C146	C	-0.107749	-0.379212	-0.138538
C147	C	0.142251	-0.129212	0.111462
C148	C	0.392251	0.120788	0.361462
C149	C	-0.357751	-0.701988	-0.388534
C150	C	-0.107751	-0.451988	-0.138534
C151	C	0.142249	-0.201988	0.111466
C152	C	0.392249	0.048012	0.361466
C153	C	-0.357749	-0.793302	-0.388526
C154	C	-0.107749	-0.543302	-0.138526
C155	C	0.142251	-0.293302	0.111474
C156	C	0.392251	-0.043302	0.361474
C157	C	-0.357765	-0.375500	-0.388567
C158	C	-0.107765	-0.125500	-0.138567
C159	C	0.142235	0.124500	0.111433
C160	C	0.392235	0.374500	0.361433
C161	C	-0.357757	-0.465121	-0.388557
C162	C	-0.107757	-0.215121	-0.138557
C163	C	0.142243	0.034879	0.111443
C164	C	0.392243	0.284879	0.361443
C165	C	-0.357593	-1.165303	-1.016651
C166	C	-0.107593	-0.915303	-0.766651
C167	C	0.142407	-0.665303	-0.516651
C168	C	0.392407	-0.415303	-0.266651
C169	C	-0.357618	-1.165290	-0.925343
C170	C	-0.107618	-0.915290	-0.675343
C171	C	0.142382	-0.665290	-0.425343
C172	C	0.392382	-0.415290	-0.175343
C173	C	-0.357635	-1.165285	-0.852566
C174	C	-0.107635	-0.915285	-0.602566
C175	C	0.142365	-0.665285	-0.352566
C176	C	0.392365	-0.415285	-0.102566
C177	C	-0.357659	-1.165271	-0.761252
C178	C	-0.107659	-0.915271	-0.511252
C179	C	0.142341	-0.665271	-0.261252
C180	C	0.392341	-0.415271	-0.011252
C181	C	-0.357756	-1.165185	-0.179054
C182	C	-0.107756	-0.915185	0.070946
C183	C	0.142244	-0.665185	0.320946
C184	C	0.392244	-0.415185	0.570946
C185	C	-0.357571	-1.165319	-0.089434
C186	C	-0.107571	-0.915319	0.160566
C187	C	0.142429	-0.665319	0.410566
C188	C	0.392429	-0.415319	0.660566
H189	H	-0.811060	-1.065710	-0.487835
H190	H	-0.561060	-0.815710	-0.237835
H191	H	-0.311060	-0.565710	0.012165
H192	H	-0.061060	-0.315710	0.262165
O193	O	-0.804189	-1.123392	-0.232499
O194	O	-0.554189	-0.873392	0.017501
O195	O	-0.304189	-0.623392	0.267501
O196	O	-0.054189	-0.373392	0.517501
H197	H	-0.824527	-1.062557	-0.216037
H198	H	-0.574527	-0.812557	0.033963
H199	H	-0.324527	-0.562557	0.283963
H200	H	-0.074527	-0.312557	0.533963
O201	O	-0.910698	-1.206936	-0.544568
O202	O	-0.660698	-0.956936	-0.294568
O203	O	-0.410698	-0.706936	-0.044568
O204	O	-0.160698	-0.456936	0.205432
H205	H	-0.890949	-1.162089	-0.589116
H206	H	-0.640949	-0.912089	-0.339116
H207	H	-0.390949	-0.662089	-0.089116
H208	H	-0.140949	-0.412089	0.160884
O209	O	-0.803746	-1.321133	-0.430411
O210	O	-0.553746	-1.071133	-0.180411
O211	O	-0.303746	-0.821133	0.069589
O212	O	-0.053746	-0.571133	0.319589
H213	H	-0.824396	-1.365912	-0.386279
H214	H	-0.574396	-1.115912	-0.136279
H215	H	-0.324396	-0.865912	0.113721
H216	H	-0.074396	-0.615912	0.363721
H217	H	-0.903936	-1.029503	-0.352098
H218	H	-0.653936	-0.779503	-0.102098
H219	H	-0.403936	-0.529503	0.147902
H220	H	-0.153936	-0.279503	0.397902
O221	O	-0.910528	-1.279531	-0.274370
O222	O	-0.660528	-1.029531	-0.024370
O223	O	-0.410528	-0.779531	0.225630
O224	O	-0.160528	-0.529531	0.475630
H225	H	-0.890682	-1.263024	-0.213381
H226	H	-0.640682	-1.013024	0.036619
H227	H	-0.390682	-0.763024	0.286619
H228	H	-0.140682	-0.513024	0.536619
