data_functionalizedCrystal
_audit_creation_method	'MofGen! by Chris Wilmer'
_symmetry_space_group_name_H-M	'P1'
_symmetry_Int_Tables_number	1
_symmetry_cell_setting	triclinic
loop_
_symmetry_equiv_pos_as_xyz
  x,y,z
_cell_length_a	15.995350
_cell_length_b	16.992695
_cell_length_c	15.455301
_cell_angle_alpha	87.173129
_cell_angle_beta	87.003404
_cell_angle_gamma	87.080299
loop_
_atom_site_label
_atom_site_type_symbol
_atom_site_fract_x
_atom_site_fract_y
_atom_site_fract_z
O1	O	-1.121222	-0.104129	0.072058
O2	O	-0.621222	0.395871	0.572058
O3	O	-0.878282	-0.116610	0.072076
O4	O	-0.378282	0.383390	0.572076
O5	O	-0.998778	0.003773	0.072060
O6	O	-0.498778	0.503773	0.572060
O7	O	-1.000726	-0.224512	0.072074
O8	O	-0.500726	0.275488	0.572074
O9	O	-0.991813	0.009903	-0.072202
O10	O	-0.491813	0.509903	0.427798
O11	O	-0.871318	-0.110480	-0.072186
O12	O	-0.371318	0.389520	0.427814
O13	O	-1.114257	-0.097999	-0.072204
O14	O	-0.614257	0.402001	0.427796
Cu15	Cu	-0.992151	-0.103680	-0.085368
Cu16	Cu	-0.492151	0.396320	0.414632
Cu17	Cu	-1.000388	-0.110929	0.085240
Cu18	Cu	-0.500388	0.389071	0.585240
O19	O	-0.993761	-0.218382	-0.072188
O20	O	-0.493761	0.281618	0.427812
C21	C	-0.843571	-0.113029	-0.000053
C22	C	-0.343571	0.386971	0.499947
C23	C	-0.750517	-0.111483	-0.000046
C24	C	-0.250517	0.388517	0.499954
C25	C	-0.992790	0.036051	-0.000071
C26	C	-0.492790	0.536051	0.499929
C27	C	-0.985313	0.123095	-0.000070
C28	C	-0.485313	0.623095	0.499930
C29	C	-1.148968	-0.101580	-0.000073
C30	C	-0.648968	0.398420	0.499927
C31	C	-1.242022	-0.103127	-0.000074
C32	C	-0.742022	0.396873	0.499926
C33	C	-0.412397	-0.105927	-0.000065
C34	C	0.087603	0.394073	0.499935
C35	C	-0.454079	-0.020178	-0.000391
C36	C	0.045921	0.479822	0.499609
C37	C	-0.550888	-0.021740	-0.000060
C38	C	-0.050888	0.478260	0.499940
C39	C	-0.580142	-0.108683	-0.000056
C40	C	-0.080142	0.391317	0.499944
C41	C	-0.545862	-0.154470	0.082324
C42	C	-0.045862	0.345530	0.582324
C43	C	-0.449085	-0.152319	0.082387
C44	C	0.050915	0.347681	0.582387
C45	C	-0.440945	-0.147120	-0.081666
C46	C	0.059055	0.352880	0.418334
C47	C	-0.537836	-0.147053	-0.082749
C48	C	-0.037836	0.352947	0.417251
C49	C	-0.674945	-0.110245	-0.000048
C50	C	-0.174945	0.389755	0.499952
C51	C	-0.317595	-0.104367	-0.000066
C52	C	0.182405	0.395633	0.499934
C53	C	-0.999750	-0.250660	-0.000056
C54	C	-0.499750	0.249340	0.499944
C55	C	-1.007226	-0.337704	-0.000051
C56	C	-0.507226	0.162296	0.499949
N57	N	-0.986364	-0.098580	-0.205363
N58	N	-0.486364	0.401420	0.294637
C59	C	-1.057448	0.173336	-0.000076
C60	C	-0.557448	0.673336	0.499924
C61	C	-1.050419	0.255122	-0.000067
C62	C	-0.550419	0.755122	0.499933
C63	C	-0.971254	0.286666	-0.000058
C64	C	-0.471254	0.786666	0.499942
C65	C	-0.899114	0.236419	-0.000050
C66	C	-0.399114	0.736419	0.499950
C67	C	-0.906144	0.154634	-0.000052
C68	C	-0.406144	0.654634	0.499948
C69	C	-0.942116	0.530263	-0.000044
C70	C	-0.442116	1.030263	0.499956
C71	C	-0.935091	0.612055	-0.000044
C72	C	-0.435091	1.112055	0.499956
C73	C	-1.086397	0.630752	-0.000060
C74	C	-0.586397	1.130752	0.499940
C75	C	-1.093421	0.548965	-0.000068
C76	C	-0.593421	1.048965	0.499932
C77	C	-1.021281	0.498725	-0.000055
C78	C	-0.521281	0.998725	0.499945
N79	N	-0.964067	0.370265	-0.000052
N80	N	-0.464067	0.870265	0.499948
N81	N	-1.028469	0.415128	-0.000055
N82	N	-0.528469	0.915128	0.499945
C83	C	-1.038139	-0.144238	-0.250755
C84	C	-0.538139	0.355762	0.249245
C85	C	-1.033773	-0.140376	-0.341563
C86	C	-0.533773	0.359624	0.158437
C87	C	-0.977628	-0.090861	-0.386978
C88	C	-0.477628	0.409139	0.113022
C89	C	-0.925851	-0.045199	-0.341580
C90	C	-0.425851	0.454801	0.158420
C91	C	-0.930221	-0.049057	-0.250774
C92	C	-0.430221	0.450943	0.249226
C93	C	-0.958775	-0.074218	-0.658560
C94	C	-0.458775	0.425782	-0.158560
C95	C	-0.954406	-0.070365	-0.749373
C96	C	-0.454406	0.429635	-0.249373
C97	C	-1.062330	-0.165542	-0.749350
C98	C	-0.562330	0.334458	-0.249350
C99	C	-1.066692	-0.169399	-0.658541
C100	C	-0.566692	0.330601	-0.158541
C101	C	-1.014918	-0.123733	-0.613152
C102	C	-0.514918	0.376267	-0.113152
N103	N	-0.973162	-0.086915	-0.479798
N104	N	-0.473162	0.413085	0.020202
N105	N	-1.019389	-0.127676	-0.520333
N106	N	-0.519389	0.372324	-0.020333
N107	N	-1.006181	-0.116022	0.205235
N108	N	-0.506181	0.383978	0.705235
H109	H	-0.574242	0.014010	-0.059114
H110	H	-0.074242	0.514010	0.440886
H111	H	-0.564409	-0.218475	0.085390
H112	H	-0.064409	0.281525	0.585390
Cl113	Cl	-1.098864	-0.197779	-0.398623
Cl114	Cl	-0.598864	0.302221	0.101377
H115	H	-0.431686	-0.124098	0.143965
H116	H	0.068314	0.375902	0.643965
Cl117	Cl	-1.156975	0.133689	-0.000096
Cl118	Cl	-0.656975	0.633689	0.499904
Cl119	Cl	-1.137244	-0.231682	-0.601455
Cl120	Cl	-0.637244	0.268318	-0.101455
Cl121	Cl	-0.799591	0.276074	-0.000028
Cl122	Cl	-0.299591	0.776074	0.499972
H123	H	-1.104482	-0.202719	-0.786316
H124	H	-0.604482	0.297281	-0.286316
H125	H	-0.413386	-0.210307	-0.082220
H126	H	0.086614	0.289693	0.417780
H127	H	-0.870621	0.637735	-0.000051
H128	H	-0.370621	1.137735	0.499949
Cl129	Cl	-0.815456	0.091473	-0.000041
Cl130	Cl	-0.315456	0.591473	0.499959
Cl131	Cl	-1.177082	0.693915	-0.000075
Cl132	Cl	-0.677082	1.193915	0.499925
Cl133	Cl	-0.406074	-0.249744	0.088166
Cl134	Cl	0.093926	0.250256	0.588166
H135	H	-1.109159	0.296025	-0.000074
H136	H	-0.609159	0.796025	0.499926
H137	H	-0.430411	0.016602	-0.059470
H138	H	0.069589	0.516602	0.440530
Cl139	Cl	-0.424678	0.028641	0.090306
Cl140	Cl	0.075322	0.528641	0.590306
Cl141	Cl	-0.883819	-0.008112	-0.806465
Cl142	Cl	-0.383819	0.491888	-0.306465
H143	H	-0.880140	-0.004879	-0.378564
H144	H	-0.380140	0.495121	0.121436
H145	H	-0.888061	-0.011878	-0.213817
H146	H	-0.388061	0.488122	0.286183
H147	H	-1.083854	-0.184563	-0.213784
H148	H	-0.583854	0.315437	0.286216
H149	H	-0.883374	0.489367	-0.000034
H150	H	-0.383374	0.989367	0.499966
Cl151	Cl	-0.893656	-0.016840	-0.601511
Cl152	Cl	-0.393656	0.483160	-0.101511
H153	H	-0.579363	0.009212	0.059092
H154	H	-0.079363	0.509212	0.559092
H155	H	-0.575231	-0.127704	0.143630
H156	H	-0.075231	0.372296	0.643630
H157	H	-1.157885	0.523288	-0.000075
H158	H	-0.657885	1.023288	0.499925
H159	H	-0.415519	-0.116438	-0.144108
H160	H	0.084481	0.383562	0.355892
H161	H	-0.560145	-0.113594	-0.143694
H162	H	-0.060145	0.386406	0.356306
H163	H	-0.557204	-0.210243	-0.087722
H164	H	-0.057204	0.289757	0.412278
