data_functionalizedCrystal
_audit_creation_method	'MofGen! by Chris Wilmer'
_symmetry_space_group_name_H-M	'P1'
_symmetry_Int_Tables_number	1
_symmetry_cell_setting	triclinic
loop_
_symmetry_equiv_pos_as_xyz
  x,y,z
_cell_length_a	15.944493
_cell_length_b	19.188928
_cell_length_c	15.021413
_cell_angle_alpha	90.005125
_cell_angle_beta	89.993389
_cell_angle_gamma	96.690572
loop_
_atom_site_label
_atom_site_type_symbol
_atom_site_fract_x
_atom_site_fract_y
_atom_site_fract_z
O1	O	1.114222	-0.089848	-0.074035
O2	O	1.614222	0.410152	0.425965
O3	O	0.869624	-0.100992	-0.074041
O4	O	1.369624	0.399008	0.425959
O5	O	0.998982	0.006219	-0.074015
O6	O	1.498982	0.506219	0.425985
O7	O	0.984863	-0.197059	-0.074061
O8	O	1.484863	0.302941	0.425939
O9	O	0.998963	0.006207	0.074049
O10	O	1.498963	0.506207	0.574049
O11	O	0.869604	-0.101004	0.074023
O12	O	1.369604	0.398996	0.574023
O13	O	1.114202	-0.089859	0.074029
O14	O	1.614202	0.410141	0.574029
Zn15	Zn	0.991900	-0.095433	0.097534
Zn16	Zn	1.491900	0.404567	0.597534
Zn17	Zn	0.991926	-0.095418	-0.097547
Zn18	Zn	1.491926	0.404582	0.402453
O19	O	0.984843	-0.197070	0.074003
O20	O	1.484843	0.302930	0.574003
C21	C	0.838321	-0.100542	-0.000010
C22	C	1.338321	0.399458	0.499990
C23	C	0.745077	-0.099177	-0.000011
C24	C	1.245077	0.400823	0.499989
C25	C	0.509080	-0.162284	-0.000026
C26	C	1.009080	0.337716	0.499974
C27	C	0.458640	-0.128258	0.072989
C28	C	0.958640	0.371742	0.572989
C29	C	0.574366	-0.096647	-0.000009
C30	C	1.074366	0.403353	0.499991
C31	C	0.458664	-0.128231	-0.072990
C32	C	0.958664	0.371769	0.427010
C33	C	0.409465	-0.094207	-0.000010
C34	C	0.909465	0.405793	0.499990
C35	C	0.525153	-0.062639	0.073066
C36	C	1.025153	0.437361	0.573066
C37	C	0.525181	-0.062621	-0.072979
C38	C	1.025181	0.437379	0.427021
C39	C	0.474773	-0.028548	0.000054
C40	C	0.974773	0.471452	0.500054
C41	C	0.669360	-0.098054	-0.000007
C42	C	1.169360	0.401946	0.499993
C43	C	0.314473	-0.092795	-0.000006
C44	C	0.814473	0.407205	0.499994
C45	C	0.998515	0.032225	0.000021
C46	C	1.498515	0.532225	0.500021
C47	C	0.997144	0.109733	0.000032
C48	C	1.497144	0.609733	0.500032
C49	C	1.073047	0.154474	0.000040
C50	C	1.573047	0.654474	0.500040
C51	C	1.071759	0.227301	0.000030
C52	C	1.571759	0.727301	0.500030
C53	C	0.994563	0.255384	0.000029
C54	C	1.494563	0.755384	0.500029
C55	C	0.918649	0.210633	0.000015
C56	C	1.418649	0.710633	0.500015
C57	C	0.919940	0.137808	0.000017
C58	C	1.419940	0.637808	0.500017
N59	N	0.935549	0.363527	0.050422
N60	N	1.435549	0.863527	0.550422
N61	N	0.934329	0.432709	0.050422
N62	N	1.434329	0.932709	0.550422
C63	C	0.990669	0.474802	0.000022
C64	C	1.490669	0.974802	0.500022
N65	N	1.048289	0.445102	-0.050368
N66	N	1.548289	0.945102	0.449632
N67	N	1.049513	0.375914	-0.050364
N68	N	1.549513	0.875914	0.449636
C69	C	0.993154	0.334350	0.000026
C70	C	1.493154	0.834350	0.500026
C71	C	1.065180	0.598511	0.000017
C72	C	1.565180	1.098511	0.500017
C73	C	1.063889	0.671339	0.000001
C74	C	1.563889	1.171339	0.500001
C75	C	0.910777	0.654669	-0.000004
C76	C	1.410777	1.154669	0.499996
C77	C	0.912071	0.581843	0.000003
C78	C	1.412071	1.081843	0.500003
C79	C	0.989275	0.553768	0.000018
C80	C	1.489275	1.053768	0.500018
C81	C	1.145505	-0.090309	-0.000004
C82	C	1.645505	0.409691	0.499996
C83	C	1.238748	-0.091675	-0.000009
C84	C	1.738748	0.408325	0.499991
C85	C	0.985313	0.776924	-0.000022
C86	C	1.485313	1.276924	0.499978
C87	C	0.986692	0.699417	-0.000001
C88	C	1.486692	1.199417	0.499999
N89	N	0.991888	-0.095444	0.230672
N90	N	1.491888	0.404556	0.730672
N91	N	0.991944	-0.095402	-0.230684
N92	N	1.491944	0.404598	0.269316
C93	C	0.932565	-0.145405	0.529675
C94	C	1.432565	0.354595	1.029675
C95	C	0.915804	-0.082510	0.470330
C96	C	1.415804	0.417490	0.970330
C97	C	0.991925	-0.095415	0.587709
C98	C	1.491925	0.404585	1.087709
C99	C	1.008628	-0.158322	0.470312
C100	C	1.508628	0.341678	0.970312
C101	C	0.991905	-0.095432	0.412285
C102	C	1.491905	0.404568	0.912285
C103	C	0.975126	-0.032488	0.529670
C104	C	1.475126	0.467512	1.029670
C105	C	1.067983	-0.108341	0.529658
C106	C	1.567983	0.391659	1.029658
C107	C	1.051254	-0.045401	0.470340
C108	C	1.551254	0.454599	0.970340
C109	C	0.991935	-0.095406	0.688766
C110	C	1.491935	0.404594	1.188766
C111	C	0.991896	-0.095434	0.311230
C112	C	1.491896	0.404566	0.811230
H113	H	1.135913	0.131621	0.000050
H114	H	1.635913	0.631621	0.500050
N115	N	0.561645	-0.027901	-0.150421
N116	N	1.061645	0.472099	0.349579
N117	N	0.602252	-0.060555	-0.204353
N118	N	1.102252	0.439445	0.295647
H119	H	0.628005	-0.036046	-0.259059
H120	H	1.128005	0.463954	0.240941
H121	H	1.132292	-0.119293	0.555741
H122	H	1.632292	0.380707	1.055741
N123	N	1.026354	-0.225053	0.437606
N124	N	1.526354	0.274947	0.937606
N125	N	0.978322	-0.279203	0.456630
N126	N	1.478322	0.220797	0.956630
H127	H	0.990834	-0.326334	0.433533
H128	H	1.490834	0.173666	0.933533
N129	N	1.141417	0.717055	0.000003
N130	N	1.641417	1.217055	0.500003
N131	N	1.157790	0.759548	-0.062410
N132	N	1.657790	1.259548	0.437590
H133	H	1.212545	0.791838	-0.062409
H134	H	1.712545	1.291838	0.437591
H135	H	0.851476	-0.071582	0.444263
H136	H	1.351476	0.428418	0.944263
H137	H	0.524492	-0.218823	0.000030
H138	H	1.024492	0.281177	0.500030
H139	H	0.960915	0.020715	0.555634
H140	H	1.460915	0.520715	1.055634
N141	N	0.422205	-0.163042	0.150410
N142	N	0.922205	0.336958	0.650410
N143	N	0.429904	-0.226323	0.163405
N144	N	0.929904	0.273677	0.663405
H145	H	0.404175	-0.250894	0.218081
H146	H	0.904175	0.249106	0.718081
H147	H	0.459520	0.028034	0.000109
H148	H	0.959520	0.528034	0.500109
N149	N	0.561443	-0.027894	0.150578
N150	N	1.061443	0.472106	0.650578
N151	N	0.639389	-0.023374	0.163103
N152	N	1.139389	0.476626	0.663103
H153	H	0.665022	0.001163	0.217845
H154	H	1.165022	0.501163	0.717845
H155	H	1.128044	0.575651	0.000025
H156	H	1.628044	1.075651	0.500025
H157	H	0.847923	0.677533	-0.000009
H158	H	1.347923	1.177533	0.499991
N159	N	0.834544	0.536127	0.000015
N160	N	1.334544	1.036127	0.500015
N161	N	0.835707	0.471106	0.000020
N162	N	1.335707	0.971106	0.500020
H163	H	0.780950	0.438817	0.000027
H164	H	1.280950	0.938817	0.500027
N165	N	1.114223	0.007668	0.437839
N166	N	1.614223	0.507668	0.937839
N167	N	1.173096	-0.008879	0.390242
N168	N	1.673096	0.491121	0.890242
H169	H	1.217566	0.028601	0.367286
H170	H	1.717566	0.528601	0.867286
N171	N	0.422245	-0.163021	-0.150414
N172	N	0.922245	0.336979	0.349586
N173	N	0.429952	-0.226301	-0.163417
N174	N	0.929952	0.273699	0.336583
H175	H	0.404233	-0.250876	-0.218094
H176	H	0.904233	0.249124	0.281906
N177	N	1.149303	0.273004	0.000037
N178	N	1.649303	0.773004	0.500037
N179	N	1.218226	0.247928	0.000048
N180	N	1.718226	0.747928	0.500048
H181	H	1.272993	0.280203	0.000055
H182	H	1.772993	0.780203	0.500055
H183	H	0.855796	0.233503	0.000013
H184	H	1.355796	0.733503	0.500013
N185	N	0.842395	0.092112	0.000004
N186	N	1.342395	0.592112	0.500004
N187	N	0.773473	0.117190	-0.000006
N188	N	1.273473	0.617190	0.499994
H189	H	0.718705	0.084917	-0.000015
H190	H	1.218705	0.584917	0.499985
H191	H	0.882342	-0.187625	0.555728
H192	H	1.382342	0.312375	1.055728
