data_functionalizedCrystal
_audit_creation_method	'MofGen! by Chris Wilmer'
_symmetry_space_group_name_H-M	'P1'
_symmetry_Int_Tables_number	1
_symmetry_cell_setting	triclinic
loop_
_symmetry_equiv_pos_as_xyz
  x,y,z
_cell_length_a	21.295419
_cell_length_b	21.295417
_cell_length_c	18.101390
_cell_angle_alpha	89.962939
_cell_angle_beta	89.980651
_cell_angle_gamma	90.045308
loop_
_atom_site_label
_atom_site_type_symbol
_atom_site_fract_x
_atom_site_fract_y
_atom_site_fract_z
Zn1	Zn	0.962323	-0.250337	-0.418712
Zn2	Zn	0.962235	-0.355617	-0.294862
Zn3	Zn	0.857056	-0.250393	-0.294885
Zn4	Zn	0.857016	-0.355599	-0.418662
O5	O	0.909658	-0.302986	-0.356780
O6	O	1.050401	-0.264286	-0.402295
O7	O	0.948263	-0.341689	-0.191232
O8	O	0.871074	-0.162296	-0.311342
O9	O	1.050336	-0.341635	-0.311302
O10	O	0.948413	-0.162255	-0.402317
O11	O	0.870988	-0.264382	-0.191249
O12	O	0.768961	-0.264364	-0.311293
O13	O	0.871005	-0.341605	-0.522302
O14	O	0.768932	-0.341659	-0.402231
O15	O	0.948374	-0.264269	-0.522339
O16	O	0.948224	-0.443704	-0.311253
O17	O	0.870920	-0.443691	-0.402209
C18	C	0.746106	-0.303016	-0.356759
C19	C	0.676138	-0.303045	-0.356768
C20	C	0.643327	-0.262835	-0.404221
C21	C	0.577585	-0.262818	-0.404224
C22	C	0.544655	-0.303022	-0.356782
C23	C	0.577474	-0.343235	-0.309319
C24	C	0.643215	-0.343246	-0.309313
N25	N	0.441380	-0.358101	-0.350994
N26	N	0.378929	-0.358088	-0.351005
C27	C	0.346581	-0.302989	-0.356798
N28	N	0.379043	-0.247903	-0.362595
N29	N	0.441500	-0.247916	-0.362588
C30	C	0.473370	-0.303014	-0.356783
C31	C	0.242485	-0.262758	-0.404257
C32	C	0.176741	-0.262740	-0.404254
C33	C	0.176631	-0.343162	-0.309354
C34	C	0.242374	-0.343175	-0.309352
C35	C	0.275296	-0.302973	-0.356807
C36	C	0.909575	-0.466538	-0.356739
C37	C	0.909597	-0.536506	-0.356746
C38	C	0.949885	-0.569358	-0.309434
C39	C	0.949915	-0.635101	-0.309451
C40	C	0.909645	-0.667988	-0.356772
C41	C	0.869354	-0.635128	-0.404093
C42	C	0.869330	-0.569387	-0.404080
N43	N	0.854578	-0.771268	-0.362411
N44	N	0.854602	-0.833719	-0.362418
C45	C	0.909716	-0.866063	-0.356814
N46	N	0.964805	-0.833596	-0.351188
N47	N	0.964780	-0.771139	-0.351176
C48	C	0.909667	-0.739274	-0.356791
C49	C	0.950039	-0.970201	-0.309518
C50	C	0.950070	-1.035945	-0.309540
C51	C	0.869503	-1.035971	-0.404178
C52	C	0.869478	-0.970228	-0.404160
C53	C	0.909745	-0.937347	-0.356826
C54	C	1.073848	-0.302956	-0.356802
C55	C	1.143816	-0.302944	-0.356811
C56	C	0.909695	-0.302929	-0.549942
C57	C	0.909711	-0.302904	-0.632256
C58	C	0.909758	-0.138796	-0.356838
C59	C	0.909800	-0.068828	-0.356862
C60	C	0.909745	-0.302865	-0.931348
C61	C	0.958584	-0.254379	-0.900046
C62	C	0.958431	-0.254199	-0.814427
C63	C	0.909729	-0.302884	-0.782965
C64	C	0.843413	-0.284879	-0.814040
C65	C	0.843706	-0.284515	-0.899685
C66	C	0.926638	-0.369482	-0.899754
C67	C	0.928093	-0.369142	-0.814104
C68	C	0.909715	-0.302897	-0.699105
C69	C	0.909754	-0.302851	-1.015207
C70	C	0.909657	-0.302998	-0.164370
C71	C	0.909763	-0.302845	-0.082056
H72	H	0.550658	-0.375968	-0.270691
H73	H	0.947250	-0.204847	-0.793959
H74	H	0.269292	-0.230020	-0.442893
C75	C	0.679308	-0.387485	-0.257112
N76	N	0.706494	-0.420807	-0.217795
H77	H	0.982829	-0.943429	-0.270978
H78	H	0.550865	-0.230071	-0.442865
C79	C	1.025236	-0.269423	-0.927870
N80	N	1.075442	-0.280757	-0.948829
H81	H	0.670129	-0.230099	-0.442863
C82	C	0.140650	-0.218503	-0.456458
N83	N	0.113465	-0.185183	-0.495781
H84	H	0.149821	-0.375897	-0.270725
C85	C	0.994233	-0.671246	-0.257398
N86	N	1.027613	-0.698469	-0.218190
H87	H	0.976895	-0.382720	-0.793793
H88	H	0.836718	-1.062747	-0.442711
H89	H	0.269088	-0.375920	-0.270714
H90	H	0.947543	-0.205302	-0.921588
H91	H	0.829385	-0.235819	-0.919681
H92	H	0.836522	-0.542638	-0.442608
C93	C	0.825171	-0.934089	-0.456223
N94	N	0.791803	-0.906869	-0.495447
H95	H	0.982881	-1.062692	-0.271014
C96	C	0.792916	-0.331114	-0.786499
N97	N	0.754883	-0.365939	-0.765752
C98	C	0.792872	-0.330146	-0.927659
N99	N	0.754581	-0.364511	-0.948725
H100	H	1.007606	-0.265473	-0.793418
H101	H	0.828832	-0.236724	-0.792606
H102	H	0.974147	-0.385881	-0.921397
C103	C	0.883527	-0.420568	-0.785174
N104	N	0.849954	-0.459301	-0.763385
H105	H	0.891069	-0.405610	-0.920001
H106	H	0.836568	-0.661909	-0.442623
H107	H	0.982675	-0.542589	-0.270894
