data_functionalizedCrystal
_audit_creation_method	'MofGen! by Chris Wilmer'
_symmetry_space_group_name_H-M	'P1'
_symmetry_Int_Tables_number	1
_symmetry_cell_setting	triclinic
loop_
_symmetry_equiv_pos_as_xyz
  x,y,z
_cell_length_a	19.188930
_cell_length_b	16.992695
_cell_length_c	15.455313
_cell_angle_alpha	87.152573
_cell_angle_beta	87.313934
_cell_angle_gamma	93.093499
loop_
_atom_site_label
_atom_site_type_symbol
_atom_site_fract_x
_atom_site_fract_y
_atom_site_fract_z
O1	O	0.934752	-0.094420	-0.072413
O2	O	0.732209	-0.107598	-0.072354
O3	O	0.832668	0.013131	-0.072377
O4	O	0.834293	-0.215148	-0.072391
O5	O	0.826922	0.006255	0.071887
O6	O	0.726463	-0.114473	0.071909
O7	O	0.929005	-0.101295	0.071850
Cu8	Cu	0.827209	-0.108512	0.085052
Cu9	Cu	0.834005	-0.100381	-0.085556
O10	O	0.828546	-0.222024	0.071873
C11	C	0.703300	-0.110609	-0.000215
C12	C	0.625719	-0.109329	-0.000192
C13	C	0.827706	0.038899	-0.000244
C14	C	0.821473	0.125921	-0.000243
N15	N	0.822435	-0.114230	0.205049
C16	C	0.584941	-0.180168	-0.000210
C17	C	0.512047	-0.178964	-0.000219
C18	C	0.479935	-0.106917	-0.000228
C19	C	0.520722	-0.036070	-0.000205
C20	C	0.593614	-0.037276	-0.000187
N21	N	0.370689	-0.049505	-0.049359
N22	N	0.301445	-0.048364	-0.049378
C23	C	0.260316	-0.103279	-0.000281
N24	N	0.291047	-0.159389	0.048825
N25	N	0.360298	-0.160532	0.048840
C26	C	0.400897	-0.105601	-0.000247
C27	C	0.140498	-0.172817	-0.000308
C28	C	0.067603	-0.171610	-0.000312
C29	C	0.076279	-0.028714	-0.000307
C30	C	0.149173	-0.029923	-0.000294
C31	C	0.181278	-0.101976	-0.000299
C32	C	0.957915	-0.098284	-0.000291
C33	C	1.035495	-0.099563	-0.000320
C34	C	0.833508	-0.247791	-0.000261
C35	C	0.839742	-0.334814	-0.000269
C36	C	0.881613	0.176369	-0.000259
C37	C	0.875753	0.258136	-0.000266
C38	C	0.809751	0.289453	-0.000250
C39	C	0.749607	0.238999	-0.000235
C40	C	0.755468	0.157234	-0.000235
C41	C	0.785458	0.532968	-0.000254
C42	C	0.779602	0.614739	-0.000252
C43	C	0.905748	0.633870	-0.000284
C44	C	0.911604	0.552102	-0.000279
C45	C	0.851459	0.501656	-0.000269
N46	N	0.803759	0.373031	-0.000253
N47	N	0.857452	0.418079	-0.000271
N48	N	0.838785	-0.094656	-0.205553
C49	C	0.865130	-0.062959	0.250433
C50	C	0.861526	-0.067291	0.341242
C51	C	0.815230	-0.122898	0.386664
C52	C	0.772530	-0.174172	0.341274
C53	C	0.776131	-0.169835	0.250467
C54	C	0.799686	-0.141593	0.658249
C55	C	0.796089	-0.145927	0.749063
C56	C	0.885085	-0.039045	0.749025
C57	C	0.888685	-0.034717	0.658216
C58	C	0.845982	-0.085988	0.612833
N59	N	0.811546	-0.127329	0.479486
N60	N	0.849663	-0.081553	0.520014
H61	H	0.611076	-0.238839	-0.000215
Br62	Br	0.971190	0.133875	-0.000269
Br63	Br	0.660032	0.281501	-0.000228
H64	H	0.954714	0.674952	-0.000293
H65	H	0.725852	0.640233	-0.000225
Br66	Br	0.032706	0.069065	-0.000304
H67	H	0.478839	-0.236651	-0.000232
Br68	Br	0.204518	0.066220	-0.000272
H69	H	0.494572	0.022592	-0.000224
Br70	Br	0.943035	0.030534	0.810619
Br71	Br	0.673846	0.088768	-0.000220
Br72	Br	1.001181	0.509607	-0.000329
Br73	Br	0.957376	0.326598	-0.000289
H74	H	0.902833	-0.017681	0.213456
H75	H	0.758387	-0.191213	0.786042
Br76	Br	0.012258	-0.267757	-0.000329
Br77	Br	0.703833	0.464515	-0.000247
H78	H	0.896292	-0.025542	0.378194
Br79	Br	0.951519	0.040747	0.596570
Br80	Br	0.718179	-0.239416	0.188873
Br81	Br	0.741735	-0.211174	0.596663
Br82	Br	0.709692	-0.249635	0.402915
H83	H	0.626816	0.020411	-0.000173
H84	H	0.166638	-0.231487	-0.000299
