data_functionalizedCrystal
_audit_creation_method	'MofGen! by Chris Wilmer'
_symmetry_space_group_name_H-M	'P1'
_symmetry_Int_Tables_number	1
_symmetry_cell_setting	triclinic
loop_
_symmetry_equiv_pos_as_xyz
  x,y,z
_cell_length_a	12.759394
_cell_length_b	19.077105
_cell_length_c	19.077174
_cell_angle_alpha	94.516248
_cell_angle_beta	92.274588
_cell_angle_gamma	92.288709
loop_
_atom_site_label
_atom_site_type_symbol
_atom_site_fract_x
_atom_site_fract_y
_atom_site_fract_z
Zn1	Zn	-0.510482	-1.093765	-0.441858
Zn2	Zn	-0.678821	-1.088969	-0.323976
Zn3	Zn	-0.495796	-0.971148	-0.319255
Zn4	Zn	-0.678752	-0.975863	-0.437093
O5	O	-0.590963	-1.032436	-0.380546
O6	O	-0.538988	-1.191779	-0.430190
O7	O	-0.648424	-1.069360	-0.224699
O8	O	-0.350726	-0.987447	-0.335538
O9	O	-0.662665	-1.188256	-0.343582
O10	O	-0.361516	-1.077533	-0.425614
O11	O	-0.513957	-0.982797	-0.221232
O12	O	-0.513890	-0.873123	-0.330917
O13	O	-0.662548	-0.995483	-0.536375
O14	O	-0.648307	-0.876587	-0.417492
O15	O	-0.538921	-1.082105	-0.539876
O16	O	-0.825829	-1.073931	-0.338962
O17	O	-0.825779	-0.990833	-0.422069
C18	C	-0.579498	-0.849276	-0.373176
C19	C	-0.574620	-0.770919	-0.370040
C20	C	-0.863926	-1.032393	-0.380527
C21	C	-0.980707	-1.032440	-0.380545
C22	C	-0.602365	-1.039855	-0.564420
C23	C	-0.607224	-1.043016	-0.642776
C24	C	-0.980715	-1.119041	-0.294076
C25	C	-1.035581	-1.162360	-0.250850
C26	C	-1.145306	-1.162402	-0.250871
C27	C	-1.200168	-1.119122	-0.294124
C28	C	-1.145302	-1.075803	-0.337349
C29	C	-1.035574	-1.075764	-0.337322
C30	C	-1.145294	-0.989207	-0.423821
C31	C	-1.035569	-0.989160	-0.423798
C32	C	-1.200156	-0.945927	-0.467074
C33	C	-1.145289	-0.902603	-0.510297
C34	C	-1.035557	-0.902562	-0.510274
C35	C	-0.980702	-0.945841	-0.467023
C36	C	-0.316935	-1.032499	-0.380581
C37	C	-0.200161	-1.032526	-0.380596
C38	C	-0.602472	-1.216312	-0.387945
C39	C	-0.607377	-1.294669	-0.391097
C40	C	-0.642409	-0.735926	-0.413571
C41	C	-0.637812	-0.662303	-0.410628
C42	C	-0.565430	-0.623673	-0.364149
C43	C	-0.497634	-0.658671	-0.320617
C44	C	-0.502227	-0.732293	-0.323564
C45	C	-0.544174	-0.403289	-0.350512
C46	C	-0.539588	-0.329662	-0.347567
C47	C	-0.679765	-0.333299	-0.437579
C48	C	-0.684356	-0.406923	-0.440519
C49	C	-0.616556	-0.441914	-0.396989
N50	N	-0.560731	-0.548417	-0.361138
N51	N	-0.621251	-0.517168	-0.400004
C52	C	-0.539498	-0.999435	-0.677782
C53	C	-0.544073	-1.002403	-0.751406
C54	C	-0.616368	-1.048956	-0.790023
C55	C	-0.684101	-1.092539	-0.755012
C56	C	-0.679531	-1.089567	-0.681389
C57	C	-0.637548	-1.062673	-1.010405
C58	C	-0.642110	-1.065643	-1.084032
C59	C	-0.502082	-0.975506	-1.080421
C60	C	-0.497515	-0.972541	-1.006798
C61	C	-0.565251	-1.016121	-0.971793
N62	N	-0.621043	-1.051992	-0.865278
N63	N	-0.560581	-1.013081	-0.896539
C64	C	-0.579531	-1.025087	-0.197389
C65	C	-0.574385	-1.022062	-0.119038
H66	H	-0.891369	-1.119002	-0.294045
C67	C	-0.975225	-1.209964	-0.203273
N68	N	-0.929767	-1.245819	-0.167437
C69	C	-0.427656	-0.770785	-0.275675
N70	N	-0.371484	-0.799776	-0.239605
C71	C	-0.722036	-0.778413	-0.464701
N72	N	-0.782010	-0.810411	-0.503215
H73	H	-1.289501	-0.945967	-0.467091
C74	C	-0.459967	-0.948222	-0.635310
N75	N	-0.400065	-0.909645	-0.603322
H76	H	-0.700984	-1.103556	-1.115472
H77	H	-0.891358	-0.945807	-0.466995
C78	C	-0.712005	-1.110653	-0.971911
N79	N	-0.768069	-1.146807	-0.942915
H80	H	-1.189979	-1.197680	-0.215677
H81	H	-0.742971	-1.130440	-0.786459
C82	C	-1.320869	-1.119175	-0.294148
N83	N	-1.411783	-1.119213	-0.294165
H84	H	-0.488927	-0.966912	-0.779904
H85	H	-0.438646	-0.934631	-0.975361
H86	H	-0.734674	-1.125061	-0.652888
H87	H	-0.743299	-0.438370	-0.478365
C88	C	-0.975214	-0.854912	-0.557832
N89	N	-0.929767	-0.819022	-0.593655
H90	H	-0.734963	-0.304801	-0.473019
C91	C	-1.205644	-0.854999	-0.557868
N92	N	-1.251107	-0.819140	-0.593697
H93	H	-0.480635	-0.298211	-0.309723
H94	H	-0.446936	-0.940024	-1.108930
H95	H	-0.488974	-0.431770	-0.315062
C96	C	-0.712405	-0.623813	-0.458502
N97	N	-0.768598	-0.594824	-0.494558
C98	C	-0.418010	-0.616175	-0.269492
N99	N	-0.358039	-0.584168	-0.230982
