data_functionalizedCrystal
_audit_creation_method	'MofGen! by Chris Wilmer'
_symmetry_space_group_name_H-M	'P1'
_symmetry_Int_Tables_number	1
_symmetry_cell_setting	triclinic
loop_
_symmetry_equiv_pos_as_xyz
  x,y,z
_cell_length_a	13.185407
_cell_length_b	16.974901
_cell_length_c	15.455313
_cell_angle_alpha	96.324781
_cell_angle_beta	88.250273
_cell_angle_gamma	67.722600
loop_
_atom_site_label
_atom_site_type_symbol
_atom_site_fract_x
_atom_site_fract_y
_atom_site_fract_z
O1	O	-0.129585	-1.028488	-0.144249
O2	O	-0.148362	-0.793497	-0.127773
O3	O	0.020019	-0.951253	-0.138830
O4	O	-0.297965	-0.870732	-0.133192
O5	O	0.010429	-0.942240	0.006064
O6	O	-0.157951	-0.784484	0.017121
O7	O	-0.139174	-1.019475	0.000645
Cu8	Cu	-0.149438	-0.901157	0.022113
Cu9	Cu	-0.138097	-0.911815	-0.149241
O10	O	-0.307554	-0.861719	0.011702
C11	C	-0.152616	-0.759549	-0.053261
C12	C	-0.150995	-0.671823	-0.047110
C13	C	-0.145009	-0.635513	-0.123196
C14	C	-0.143504	-0.553080	-0.117403
C15	C	-0.147976	-0.506959	-0.035524
C16	C	-0.153966	-0.543272	0.040567
C17	C	-0.155479	-0.625702	0.034773
C18	C	-0.144019	-0.259901	-0.009729
C19	C	-0.142502	-0.177467	-0.003941
C20	C	-0.132042	-0.187279	-0.161912
C21	C	-0.133549	-0.269712	-0.167698
C22	C	-0.139544	-0.306017	-0.091607
N23	N	-0.146434	-0.422699	-0.029602
N24	N	-0.141094	-0.390273	-0.097530
C25	C	0.055902	-0.954910	-0.066956
C26	C	0.177109	-0.979224	-0.068664
C27	C	0.464963	-0.747178	-0.052400
C28	C	0.351083	-0.724332	-0.050804
C29	C	0.307584	-0.788053	-0.055269
C30	C	0.377976	-0.874624	-0.061330
C31	C	0.491868	-0.897474	-0.062932
C32	C	0.334489	-0.938348	-0.065801
C33	C	0.404881	-1.024920	-0.071862
C34	C	0.518761	-1.047765	-0.073463
C35	C	0.562261	-0.984044	-0.068999
C36	C	0.220597	-0.915499	-0.064198
C37	C	0.247502	-1.065794	-0.074730
C38	C	0.361382	-1.088641	-0.076326
C39	C	0.656563	-0.858062	-0.060172
C40	C	0.535356	-0.833748	-0.058467
N41	N	-0.157413	-0.893666	0.142634
C42	C	-0.134913	-0.053426	-0.073869
C43	C	-0.136516	-0.141157	-0.080027
N44	N	-0.130113	-0.919314	-0.269762
C45	C	-0.085906	-0.960699	0.183329
C46	C	-0.091947	-0.955039	0.274534
C47	C	-0.169502	-0.882348	0.325041
C48	C	-0.241013	-0.815310	0.284339
C49	C	-0.234966	-0.820968	0.193136
C50	C	-0.195577	-0.857933	0.598334
C51	C	-0.201621	-0.852282	0.689542
C52	C	-0.052553	-0.992011	0.679731
C53	C	-0.046516	-0.997664	0.588526
C54	C	-0.118023	-0.930624	0.547833
N55	N	-0.175682	-0.876563	0.418267
N56	N	-0.111838	-0.936408	0.454609
H57	H	-0.157614	-0.505712	0.107234
C58	C	-0.286938	-0.772312	0.745099
N59	N	-0.351196	-0.712081	0.786944
C60	C	0.273661	-0.629106	-0.044144
N61	N	0.215344	-0.557377	-0.039130
C62	C	-0.140087	-0.686240	-0.213270
N63	N	-0.136383	-0.724443	-0.281116
H64	H	0.016635	-1.056855	0.547405
H65	H	-0.293194	-0.766382	0.160003
C66	C	-0.326315	-0.735344	0.339901
N67	N	-0.390566	-0.675112	0.381749
H68	H	-0.129899	-0.307261	-0.234372
H69	H	-0.160358	-0.655262	0.096731
C70	C	-0.136903	-0.513148	-0.201104
N71	N	-0.131926	-0.483074	-0.264152
C72	C	-0.125457	-0.147334	-0.245606
N73	N	-0.120502	-0.117245	-0.308648
C74	C	0.143178	-0.820271	-0.057527
N75	N	0.084866	-0.748541	-0.052499
H76	H	-0.253802	-0.803347	0.565208
C77	C	0.512821	-0.677095	-0.047485
N78	N	0.548868	-0.624304	-0.043779
H79	H	0.005666	-1.046592	0.712872
H80	H	0.418711	-1.159129	-0.081262
H81	H	-0.146175	-0.139907	0.062738
H82	H	0.654989	-1.002640	-0.070288
H83	H	0.576073	-1.118258	-0.078407
H84	H	-0.148893	-0.289452	0.052230
H85	H	0.212089	-1.117684	-0.078411
C86	C	-0.000588	-1.040664	0.127779
N87	N	0.063680	-1.100895	0.085942
C88	C	-0.013256	-1.028767	0.319296
N89	N	0.046027	-1.084298	0.353010
H90	H	0.214857	-0.769445	-0.053968
