data_functionalizedCrystal
_audit_creation_method	'MofGen! by Chris Wilmer'
_symmetry_space_group_name_H-M	'P1'
_symmetry_Int_Tables_number	1
_symmetry_cell_setting	triclinic
loop_
_symmetry_equiv_pos_as_xyz
  x,y,z
_cell_length_a	27.731993
_cell_length_b	27.732048
_cell_length_c	26.210047
_cell_angle_alpha	90.000479
_cell_angle_beta	90.002578
_cell_angle_gamma	97.368475
loop_
_atom_site_label
_atom_site_type_symbol
_atom_site_fract_x
_atom_site_fract_y
_atom_site_fract_z
O1	O	0.640948	-0.057384	-0.042297
O2	O	1.140948	0.442616	0.457703
O3	O	0.500151	-0.066158	-0.042329
O4	O	1.000151	0.433842	0.457671
O5	O	0.574923	0.008627	-0.042302
O6	O	1.074923	0.508627	0.457698
O7	O	0.566177	-0.132169	-0.042324
O8	O	1.066177	0.367831	0.457676
O9	O	0.574908	0.008615	0.042556
O10	O	1.074908	0.508615	0.542556
O11	O	0.500137	-0.066169	0.042529
O12	O	1.000137	0.433831	0.542529
O13	O	0.640934	-0.057396	0.042561
O14	O	1.140934	0.442604	0.542561
Cu15	Cu	0.570534	-0.061784	0.050293
Cu16	Cu	1.070534	0.438216	0.550293
Cu17	Cu	0.570551	-0.061770	-0.050061
Cu18	Cu	1.070551	0.438230	0.449939
O19	O	0.566163	-0.132180	0.042534
O20	O	1.066163	0.367820	0.542534
C21	C	0.482137	-0.065983	0.000096
C22	C	0.982137	0.434017	0.500096
C23	C	0.428480	-0.065441	0.000084
C24	C	0.928480	0.434559	0.500084
C25	C	0.045328	-0.061504	-0.046147
C26	C	0.545328	0.438496	0.453853
C27	C	0.246985	-0.063571	-0.046161
C28	C	0.746985	0.436429	0.453839
O29	O	0.273065	-0.063813	-0.085501
O30	O	0.773065	0.436187	0.414499
N31	N	0.272198	-0.063836	0.000094
N32	N	0.772198	0.436164	0.500094
C33	C	0.246993	-0.063581	0.046356
C34	C	0.746993	0.436419	0.546356
O35	O	0.273066	-0.063849	0.085699
O36	O	0.773066	0.436151	0.585699
C37	C	0.045337	-0.061511	0.046370
C38	C	0.545337	0.438489	0.546370
C39	C	0.020127	-0.061251	0.000112
C40	C	0.520127	0.438749	0.500112
C41	C	0.020118	-0.061243	-0.092401
C42	C	0.520118	0.438757	0.407599
C43	C	-0.030294	-0.060729	-0.092397
C44	C	0.469706	0.439271	0.407603
C45	C	-0.055495	-0.060476	-0.046139
C46	C	0.444505	0.439524	0.453861
C47	C	-0.030285	-0.060736	0.000116
C48	C	0.469715	0.439264	0.500116
C49	C	0.020134	-0.061252	0.092631
C50	C	0.520134	0.438748	0.592631
C51	C	-0.030283	-0.060733	0.092630
C52	C	0.469717	0.439267	0.592630
C53	C	-0.055493	-0.060473	0.046372
C54	C	0.444507	0.439527	0.546372
C55	C	-0.105898	-0.059969	0.046378
C56	C	0.394102	0.440031	0.546378
N57	N	-0.131110	-0.059704	0.000123
N58	N	0.368890	0.440296	0.500123
C59	C	-0.105909	-0.059957	-0.046135
C60	C	0.394091	0.440043	0.453865
C61	C	0.352865	-0.064669	0.046346
C62	C	0.852865	0.435331	0.546346
C63	C	0.403279	-0.065188	0.046343
C64	C	0.903279	0.434812	0.546343
C65	C	0.403268	-0.065177	-0.046175
C66	C	0.903268	0.434823	0.453825
C67	C	0.352853	-0.064662	-0.046171
C68	C	0.852853	0.435338	0.453829
C69	C	0.327653	-0.064404	0.000091
C70	C	0.827653	0.435596	0.500091
C71	C	-0.211777	-0.058878	-0.046123
C72	C	0.288223	0.441122	0.453877
C73	C	-0.262194	-0.058366	-0.046115
C74	C	0.237806	0.441634	0.453885
C75	C	-0.262178	-0.058375	0.046402
C76	C	0.237822	0.441625	0.546402
C77	C	-0.211766	-0.058889	0.046394
C78	C	0.288234	0.441111	0.546394
C79	C	-0.186567	-0.059139	0.000127
C80	C	0.313433	0.440861	0.500127
O81	O	-0.132008	-0.059721	0.085698
O82	O	0.367992	0.440279	0.585698
O83	O	-0.131989	-0.059679	-0.085472
O84	O	0.368011	0.440321	0.414528
C85	C	0.095740	-0.062018	-0.046151
C86	C	0.595740	0.437982	0.453849
C87	C	0.120950	-0.062279	0.000104
C88	C	0.620950	0.437721	0.500104
C89	C	0.095749	-0.062025	0.046362
C90	C	0.595749	0.437975	0.546362
C91	C	0.171364	-0.062797	0.000101
C92	C	0.671364	0.437203	0.500101
C93	C	0.196565	-0.063051	-0.046158
C94	C	0.696565	0.436949	0.453842
C95	C	0.171353	-0.062786	-0.092413
C96	C	0.671353	0.437214	0.407587
C97	C	0.120941	-0.062272	-0.092409
C98	C	0.620941	0.437728	0.407591
C99	C	0.120961	-0.062290	0.092617
C100	C	0.620961	0.437710	0.592617
C101	C	0.171373	-0.062805	0.092609
C102	C	0.671373	0.437195	0.592609
C103	C	0.196574	-0.063058	0.046351
C104	C	0.696574	0.436942	0.546351
C105	C	0.574732	0.026628	0.000128
C106	C	1.074732	0.526628	0.500128
C107	C	0.574179	0.080282	0.000132
C108	C	1.074179	0.580282	0.500132
C109	C	0.658949	-0.057570	0.000135
C110	C	1.158949	0.442430	0.500135
C111	C	0.712605	-0.058113	0.000143
C112	C	1.212605	0.441887	0.500143
C113	C	0.566353	-0.150181	0.000103
C114	C	1.066353	0.349819	0.500103
C115	C	0.566906	-0.203836	0.000095
C116	C	1.066906	0.296164	0.500095
N117	N	0.570526	-0.061793	0.120877
N118	N	1.070526	0.438207	0.620877
C119	C	0.614884	0.419105	0.000115
C120	C	1.114884	0.919105	0.500115
C121	C	0.612833	0.620765	0.000108
C122	C	1.112833	1.120765	0.500108
O123	O	0.650055	0.652028	0.000094
O124	O	1.150055	1.152028	0.500094
N125	N	0.568497	0.639880	0.000098
N126	N	1.068497	1.139880	0.500098
C127	C	0.524670	0.608576	0.000087
C128	C	1.024670	1.108576	0.500087
O129	O	0.486912	0.629462	0.000073
O130	O	0.986912	1.129462	0.500073
C131	C	0.526721	0.406918	0.000091
C132	C	1.026721	0.906918	0.500091
C133	C	0.571061	0.387806	0.000106
C134	C	1.071061	0.887806	0.500106
C135	C	0.659220	0.399993	0.000129
C136	C	1.159220	0.899993	0.500129
C137	C	0.659732	0.349581	0.000134
C138	C	1.159732	0.849581	0.500134
C139	C	0.615909	0.318282	0.000124
C140	C	1.115909	0.818282	0.500124
C141	C	0.571573	0.337394	0.000110
C142	C	1.071573	0.837394	0.500110
C143	C	0.482895	0.375616	0.000076
C144	C	0.982895	0.875616	0.500076
C145	C	0.483412	0.325199	0.000076
C146	C	0.983412	0.825199	0.500076
C147	C	0.527751	0.306087	0.000091
C148	C	1.027751	0.806087	0.500091
C149	C	0.528262	0.255683	0.000105
C150	C	1.028262	0.755683	0.500105
N151	N	0.572598	0.236568	0.000115
N152	N	1.072598	0.736568	0.500115
C153	C	0.616422	0.267867	0.000124
C154	C	1.116422	0.767867	0.500124
C155	C	0.523596	0.714450	0.000086
C156	C	1.023596	1.214450	0.500086
C157	C	0.523083	0.764865	0.000086
C158	C	1.023083	1.264865	0.500086
C159	C	0.611246	0.777049	0.000105
C160	C	1.111246	1.277049	0.500105
C161	C	0.611759	0.726634	0.000109
C162	C	1.111759	1.226634	0.500109
C163	C	0.567932	0.695335	0.000095
C164	C	1.067932	1.195335	0.500095
C165	C	0.617494	0.161998	0.000135
C166	C	1.117494	0.661998	0.500135
C167	C	0.618003	0.111582	0.000142
C168	C	1.118003	0.611582	0.500142
C169	C	0.529839	0.099401	0.000119
C170	C	1.029839	0.599401	0.500119
C171	C	0.529331	0.149814	0.000115
C172	C	1.029331	0.649814	0.500115
C173	C	0.573162	0.181112	0.000121
C174	C	1.073162	0.681112	0.500121
O175	O	0.491060	0.224392	0.000114
O176	O	0.991060	0.724392	0.500114
O177	O	0.654174	0.246972	0.000127
O178	O	1.154174	0.746972	0.500127
C179	C	0.614372	0.469517	0.000110
C180	C	1.114372	0.969517	0.500110
C181	C	0.570036	0.488630	0.000096
C182	C	1.070036	0.988630	0.500096
C183	C	0.526213	0.457331	0.000087
C184	C	1.026213	0.957331	0.500087
C185	C	0.569523	0.539044	0.000096
C186	C	1.069523	1.039044	0.500096
C187	C	0.613346	0.570343	0.000106
C188	C	1.113346	1.070343	0.500106
C189	C	0.657683	0.551228	0.000115
C190	C	1.157683	1.051228	0.500115
C191	C	0.658195	0.500817	0.000120
C192	C	1.158195	1.000817	0.500120
C193	C	0.481876	0.476446	0.000077
C194	C	0.981876	0.976446	0.500077
C195	C	0.481368	0.526858	0.000073
C196	C	0.981368	1.026858	0.500073
C197	C	0.525191	0.558157	0.000083
C198	C	1.025191	1.058157	0.500083
N199	N	0.570564	-0.061757	-0.120645
N200	N	1.070564	0.438243	0.379355
C201	C	0.603657	-0.028663	0.473403
C202	C	1.103657	0.471337	0.973403
C203	C	0.603667	-0.028656	0.687062
C204	C	1.103667	0.471344	1.187062
O205	O	0.631818	-0.000490	0.714693
O206	O	1.131818	0.499510	1.214693
N207	N	0.570554	-0.061759	0.713771
N208	N	1.070554	0.438241	1.213771
C209	C	0.537433	-0.094864	0.687063
C210	C	1.037433	0.405136	1.187063
O211	O	0.509265	-0.123017	0.714683
O212	O	1.009265	0.376983	1.214683
C213	C	0.537421	-0.094868	0.473405
C214	C	1.037421	0.405132	0.973405
C215	C	0.570540	-0.061766	0.446698
C216	C	1.070540	0.438234	0.946698
C217	C	0.636772	0.004437	0.446696
C218	C	1.136772	0.504437	0.946696
C219	C	0.636771	0.004433	0.393285
C220	C	1.136771	0.504433	0.893285
C221	C	0.603654	-0.028671	0.366580
C222	C	1.103654	0.471329	0.866580
C223	C	0.570538	-0.061770	0.393287
C224	C	1.070538	0.438230	0.893287
C225	C	0.504298	-0.127971	0.446697
C226	C	1.004298	0.372029	0.946697
C227	C	0.504297	-0.127968	0.393280
C228	C	1.004297	0.372032	0.893280
C229	C	0.537416	-0.094866	0.366573
C230	C	1.037416	0.405134	0.866573
C231	C	0.537420	-0.094877	0.313171
C232	C	1.037420	0.405123	0.813171
N233	N	0.570533	-0.061774	0.286461
N234	N	1.070533	0.438226	0.786461
C235	C	0.603650	-0.028671	0.313166
C236	C	1.103650	0.471329	0.813166
C237	C	0.537443	-0.094861	0.799236
C238	C	1.037443	0.405139	1.299236
C239	C	0.537446	-0.094860	0.852650
C240	C	1.037446	0.405140	1.352650
C241	C	0.603680	-0.028651	0.852645
C242	C	1.103680	0.471349	1.352645
C243	C	0.603678	-0.028654	0.799230
C244	C	1.103678	0.471346	1.299230
C245	C	0.570556	-0.061757	0.772526
C246	C	1.070556	0.438243	1.272526
C247	C	0.603646	-0.028682	0.200998
C248	C	1.103646	0.471318	0.700998
C249	C	0.603643	-0.028690	0.147582
C250	C	1.103643	0.471310	0.647582
C251	C	0.537408	-0.094897	0.147591
C252	C	1.037408	0.405103	0.647591
C253	C	0.537412	-0.094891	0.201003
C254	C	1.037412	0.405109	0.701003
C255	C	0.570533	-0.061779	0.227705
C256	C	1.070533	0.438221	0.727705
O257	O	0.509281	-0.123025	0.285506
O258	O	1.009281	0.376975	0.785506
O259	O	0.631807	-0.000515	0.285536
O260	O	1.131807	0.499485	0.785536
C261	C	0.603658	-0.028659	0.526814
C262	C	1.103658	0.471341	1.026814
C263	C	0.570542	-0.061759	0.553521
C264	C	1.070542	0.438241	1.053521
C265	C	0.537425	-0.094862	0.526816
C266	C	1.037425	0.405138	1.026816
C267	C	0.570546	-0.061759	0.606935
C268	C	1.070546	0.438241	1.106935
C269	C	0.603663	-0.028655	0.633640
C270	C	1.103663	0.471345	1.133640
C271	C	0.636776	0.004448	0.606931
C272	C	1.136776	0.504448	1.106931
C273	C	0.636775	0.004444	0.553519
C274	C	1.136775	0.504444	1.053519
C275	C	0.504311	-0.127965	0.553526
C276	C	1.004311	0.372035	1.053526
C277	C	0.504316	-0.127959	0.606937
C278	C	1.004316	0.372041	1.106937
C279	C	0.537433	-0.094856	0.633642
C280	C	1.037433	0.405144	1.133642
H281	H	0.040652	-0.061462	0.130300
H282	H	0.540652	0.438538	0.630300
O283	O	0.505225	-0.126980	0.227007
O284	O	1.005225	0.373020	0.727007
C285	C	0.475591	-0.101297	0.257887
C286	C	0.975591	0.398703	0.757887
H287	H	0.495129	-0.063334	0.265885
H288	H	0.995129	0.436666	0.765885
H289	H	0.467792	-0.121522	0.295451
H290	H	0.967792	0.378478	0.795451
H291	H	0.439892	-0.098268	0.237298
H292	H	0.939892	0.401732	0.737298
H293	H	-0.050799	-0.060528	0.130303
H294	H	0.449201	0.439472	0.630303
H295	H	0.694301	0.485261	0.000132
H296	H	1.194301	0.985261	0.500132
H297	H	0.447722	0.299717	0.000064
H298	H	0.947722	0.799717	0.500064
O299	O	0.505220	-0.127098	0.121724
O300	O	1.005220	0.372902	0.621724
C301	C	0.475979	-0.156308	0.156746
C302	C	0.975979	0.343692	0.656746
H303	H	0.495791	-0.156719	0.194823
H304	H	0.995791	0.343281	0.694823
H305	H	0.468310	-0.194963	0.141309
H306	H	0.968310	0.305037	0.641309
H307	H	0.440191	-0.140862	0.162425
H308	H	0.940191	0.359138	0.662425
O309	O	0.668847	0.036684	0.527561
O310	O	1.168847	0.536684	1.027561
C311	C	0.643127	0.066327	0.496728
C312	C	1.143127	0.566327	0.996728
H313	H	0.605190	0.046749	0.488683
H314	H	1.105190	0.546749	0.988683
H315	H	0.663361	0.074222	0.459185
H316	H	1.163361	0.574222	0.959185
H317	H	0.640033	0.101978	0.517383
H318	H	1.140033	0.601978	1.017383
O319	O	0.702774	0.330963	0.000073
O320	O	1.202774	0.830963	0.500073
C321	C	0.705723	0.302178	-0.043882
C322	C	1.205723	0.802178	0.456118
H323	H	0.667530	0.289327	-0.058539
H324	H	1.167530	0.789327	0.441461
H325	H	0.724747	0.269311	-0.033996
H326	H	1.224747	0.769311	0.466004
H327	H	0.727276	0.324620	-0.074654
H328	H	1.227276	0.824620	0.425346
O329	O	0.486218	0.168302	0.000080
O330	O	0.986218	0.668302	0.500080
C331	C	0.447649	0.129863	0.000087
C332	C	0.947649	0.629863	0.500087
H333	H	0.460942	0.095710	-0.015965
H334	H	0.960942	0.595710	0.484035
H335	H	0.416677	0.140162	-0.024563
H336	H	0.916677	0.640162	0.475437
H337	H	0.434139	0.122634	0.040795
H338	H	0.934139	0.622634	0.540795
H339	H	0.445259	0.542414	0.000065
H340	H	0.945259	1.042414	0.500065
O341	O	0.653773	0.807527	0.000088
O342	O	1.153773	1.307527	0.500088
C343	C	0.643806	0.856120	0.000096
C344	C	1.143806	1.356120	0.500096
H345	H	0.605851	0.857761	-0.015971
H346	H	1.105851	1.357761	0.484029
H347	H	0.671760	0.879174	-0.024541
H348	H	1.171760	1.379174	0.475459
H349	H	0.645749	0.870719	0.040806
H350	H	1.145749	1.370719	0.540806
O351	O	0.328326	-0.064484	0.091254
O352	O	0.828326	0.435516	0.591254
C353	C	0.293378	-0.106069	0.094029
C354	C	0.793378	0.393931	0.594029
H355	H	0.283885	-0.119951	0.053866
H356	H	0.783885	0.380049	0.553866
H357	H	0.259234	-0.096286	0.113614
H358	H	0.759234	0.403714	0.613614
H359	H	0.308753	-0.135598	0.116850
H360	H	0.808753	0.364402	0.616850
O361	O	0.635829	0.003574	0.878535
O362	O	1.135829	0.503574	1.378535
C363	C	0.628316	0.051370	0.865495
C364	C	1.128316	0.551370	1.365495
H365	H	0.609686	0.051178	0.826711
H366	H	1.109686	0.551178	1.326711
H367	H	0.664826	0.075439	0.863674
H368	H	1.164826	0.575439	1.363674
H369	H	0.604363	0.066142	0.895556
H370	H	1.104363	0.566142	1.395556
O371	O	0.668879	0.036653	0.632901
O372	O	1.168879	0.536653	1.132901
C373	C	0.643210	0.066280	0.663805
C374	C	1.143210	0.566280	1.163805
H375	H	0.605097	0.066824	0.647701
H376	H	1.105097	0.566824	1.147701
H377	H	0.663218	0.104843	0.664417
H378	H	1.163218	0.604843	1.164417
H379	H	0.640559	0.051130	0.704284
H380	H	1.140559	0.551130	1.204284
O381	O	-0.187346	-0.059122	0.091373
O382	O	0.312654	0.440878	0.591373
C383	C	-0.220404	-0.058802	0.132202
C384	C	0.279596	0.441198	0.632202
H385	H	-0.254228	-0.043130	0.118643
H386	H	0.245772	0.456870	0.618643
H387	H	-0.202592	-0.035473	0.164555
H388	H	0.297408	0.464527	0.664555
H389	H	-0.231124	-0.097543	0.146424
H390	H	0.268876	0.402457	0.646424
O391	O	0.661119	0.093098	0.000131
O392	O	1.161119	0.593098	0.500131
C393	C	0.699687	0.131538	0.000149
C394	C	1.199687	0.631538	0.500149
H395	H	0.686398	0.165686	-0.015922
H396	H	1.186398	0.665686	0.484078
H397	H	0.730669	0.121234	-0.024480
H398	H	1.230669	0.621234	0.475520
H399	H	0.713180	0.138776	0.040862
H400	H	1.213180	0.638776	0.540862
H401	H	-0.282706	-0.058170	0.084064
H402	H	0.217294	0.441830	0.584064
H403	H	0.423800	-0.065407	0.084011
H404	H	0.923800	0.434593	0.584011
O405	O	0.096533	-0.061995	-0.137390
O406	O	0.596533	0.438005	0.362610
C407	C	0.129594	-0.062341	-0.178214
C408	C	0.629594	0.437659	0.321786
H409	H	0.167647	-0.047402	-0.164646
H410	H	0.667647	0.452598	0.335354
H411	H	0.118278	-0.038711	-0.210564
H412	H	0.618278	0.461289	0.289436
H413	H	0.129590	-0.101190	-0.192442
H414	H	0.629590	0.398810	0.307558
H415	H	0.040631	-0.061448	-0.130072
H416	H	0.540631	0.438552	0.369928
O417	O	0.472095	-0.160136	0.632798
O418	O	0.972095	0.339864	1.132798
C419	C	0.442875	-0.189360	0.597767
C420	C	0.942875	0.310640	1.097767
H421	H	0.442484	-0.169545	0.559691
H422	H	0.942484	0.330455	1.059691
H423	H	0.404215	-0.197003	0.613194
H424	H	0.904215	0.302997	1.113194
H425	H	0.458296	-0.225161	0.592090
H426	H	0.958296	0.274839	1.092090
H427	H	0.647864	0.711077	0.000121
H428	H	1.147864	1.211077	0.500121
H429	H	0.191880	-0.062995	-0.130078
H430	H	0.691880	0.437005	0.369922
H431	H	0.191894	-0.063021	0.130281
H432	H	0.691894	0.436979	0.630281
O433	O	0.635834	0.003515	0.121719
O434	O	1.135834	0.503515	0.621719
C435	C	0.665069	0.032726	0.156747
C436	C	1.165069	0.532726	0.656747
H437	H	0.645254	0.033132	0.194821
H438	H	1.145254	0.533132	0.694821
H439	H	0.672734	0.071382	0.141314
H440	H	1.172734	0.571382	0.641314
H441	H	0.700860	0.017284	0.162431
H442	H	1.200860	0.517284	0.662431
O443	O	0.481052	0.684000	0.000144
O444	O	0.981052	1.184000	0.500144
C445	C	0.478695	0.654482	0.044098
C446	C	0.978695	1.154482	0.544098
H447	H	0.517041	0.652214	0.058758
H448	H	1.017041	1.152214	0.558758
H449	H	0.460395	0.616453	0.034210
H450	H	0.960395	1.116453	0.534210
H451	H	0.456742	0.670907	0.074869
H452	H	0.956742	1.170907	0.574869
H453	H	0.100448	-0.062081	0.130287
H454	H	0.600448	0.437919	0.630287
H455	H	0.332330	-0.064450	-0.083838
H456	H	0.832330	0.435550	0.416162
O457	O	0.487316	0.068924	0.000087
O458	O	0.987316	0.568924	0.500087
C459	C	0.497281	0.020330	0.000104
C460	C	0.997281	0.520330	0.500104
H461	H	0.535240	0.018687	-0.015948
H462	H	1.035240	0.518687	0.484052
H463	H	0.469333	-0.002725	-0.024542
H464	H	0.969333	0.497275	0.475458
H465	H	0.495328	0.005735	0.040814
H466	H	0.995328	0.505735	0.540814
O467	O	-0.187382	-0.059146	-0.091112
O468	O	0.312618	0.440854	0.408888
C469	C	-0.220451	-0.058796	-0.131931
C470	C	0.279549	0.441204	0.368069
H471	H	-0.258501	-0.073736	-0.118360
H472	H	0.241499	0.426264	0.381640
H473	H	-0.209141	-0.082423	-0.164287
H474	H	0.290859	0.417577	0.335713
H475	H	-0.220449	-0.019946	-0.146153
H476	H	0.279551	0.480054	0.353847
H477	H	0.510483	-0.121820	0.874391
H478	H	1.010483	0.378180	1.374391
O479	O	0.635840	0.003416	0.226986
O480	O	1.135840	0.503416	0.726986
C481	C	0.665478	-0.022257	0.257874
C482	C	1.165478	0.477743	0.757874
H483	H	0.645941	-0.060217	0.265887
H484	H	1.145941	0.439783	0.765887
H485	H	0.673286	-0.002018	0.295430
H486	H	1.173286	0.497982	0.795430
H487	H	0.701174	-0.025295	0.237284
H488	H	1.201174	0.474705	0.737284
H489	H	0.653186	0.187476	0.000138
H490	H	1.153186	0.687476	0.500138
H491	H	0.477343	-0.154922	0.531787
H492	H	0.977343	0.345078	1.031787
O493	O	0.668891	0.036718	0.367440
O494	O	1.168891	0.536718	0.867440
C495	C	0.661317	0.084465	0.380610
C496	C	1.161317	0.584465	0.880610
H497	H	0.622592	0.084340	0.395245
H498	H	1.122592	0.584340	0.895245
H499	H	0.667077	0.108851	0.345550
H500	H	1.167077	0.608851	0.845550
H501	H	0.688159	0.098813	0.411684
H502	H	1.188159	0.598813	0.911684
H503	H	-0.050816	-0.060515	-0.130065
H504	H	0.449184	0.439485	0.369935
H505	H	-0.282718	-0.058156	-0.083786
H506	H	0.217282	0.441844	0.416214
O507	O	0.505250	-0.127068	0.773379
O508	O	1.005250	0.372932	1.273379
C509	C	0.476021	-0.156274	0.808413
C510	C	0.976021	0.343726	1.308413
H511	H	0.495842	-0.156673	0.846486
H512	H	0.995842	0.343327	1.346486
H513	H	0.468355	-0.194934	0.792986
H514	H	0.968355	0.305066	1.292986
H515	H	0.440230	-0.140834	0.814097
H516	H	0.940230	0.359166	1.314097
O517	O	0.700241	0.581657	0.000033
O518	O	1.200241	1.081657	0.500033
C519	C	0.702576	0.611188	-0.043912
C520	C	1.202576	1.111188	0.456088
H521	H	0.677722	0.592531	-0.074632
H522	H	1.177722	1.092531	0.425368
H523	H	0.741559	0.617155	-0.058658
H524	H	1.241559	1.117155	0.441342
H525	H	0.690337	0.647757	-0.033981
H526	H	1.190337	1.147757	0.466019
O527	O	0.427797	-0.065486	-0.091078
O528	O	0.927797	0.434514	0.408922
C529	C	0.451156	-0.107670	-0.093862
C530	C	0.951156	0.392330	0.406138
H531	H	0.456775	-0.121720	-0.053703
H532	H	0.956775	0.378280	0.446297
H533	H	0.487912	-0.098609	-0.113434
H534	H	0.987912	0.401391	0.386566
H535	H	0.427673	-0.136792	-0.116699
H536	H	0.927673	0.363208	0.383301
H537	H	0.477330	-0.154925	0.468435
H538	H	0.977330	0.345075	0.968435
O539	O	0.701825	0.430343	0.000072
O540	O	1.201825	0.930343	0.500072
C541	C	0.728771	0.421736	-0.043874
C542	C	1.228771	0.921736	0.456126
H543	H	0.716604	0.383402	-0.058533
H544	H	1.216604	0.883402	0.441467
H545	H	0.769111	0.425575	-0.033976
H546	H	1.269111	0.925575	0.466024
H547	H	0.722387	0.449270	-0.074650
H548	H	1.222387	0.949270	0.425350
H549	H	0.446789	0.391168	0.000061
H550	H	0.946789	0.891168	0.500061
O551	O	0.479969	0.783347	0.000054
O552	O	0.979969	1.283347	0.500054
C553	C	0.441403	0.744904	0.000058
C554	C	0.941403	1.244904	0.500058
H555	H	0.454699	0.710756	-0.016003
H556	H	0.954699	1.210756	0.483997
H557	H	0.410428	0.755205	-0.024587
H558	H	0.910428	1.255205	0.475413
H559	H	0.427896	0.737668	0.040765
H560	H	0.927896	1.237668	0.540765
H561	H	0.477324	-0.154924	0.371540
H562	H	0.977324	0.345076	0.871540
H563	H	0.446189	0.450966	0.000068
H564	H	0.946189	0.950966	0.500068
O565	O	0.668966	0.036529	0.472689
O566	O	1.168966	0.536529	0.972689
C567	C	0.698605	0.010853	0.503572
C568	C	1.198605	0.510853	1.003572
H569	H	0.679067	-0.027107	0.511582
H570	H	1.179067	0.472893	1.011582
H571	H	0.706415	0.031089	0.541129
H572	H	1.206415	0.531089	1.041129
H573	H	0.734299	0.007815	0.482979
H574	H	1.234299	0.507815	0.982979
H575	H	0.630646	-0.001700	0.777489
H576	H	1.130646	0.498300	1.277489
