data_functionalizedCrystal
_audit_creation_method	'MofGen! by Chris Wilmer'
_symmetry_space_group_name_H-M	'P1'
_symmetry_Int_Tables_number	1
_symmetry_cell_setting	triclinic
loop_
_symmetry_equiv_pos_as_xyz
  x,y,z
_cell_length_a	17.639874
_cell_length_b	17.637592
_cell_length_c	11.169409
_cell_angle_alpha	78.744981
_cell_angle_beta	101.172648
_cell_angle_gamma	114.341701
loop_
_atom_site_label
_atom_site_type_symbol
_atom_site_fract_x
_atom_site_fract_y
_atom_site_fract_z
Zn1	Zn	-1.193544	0.073174	0.290383
Zn2	Zn	-1.165546	0.211094	0.055873
Zn3	Zn	-1.055712	0.101115	0.123353
Zn4	Zn	-1.027819	0.238901	0.290164
O5	O	-1.110655	0.156071	0.189943
O6	O	-1.305152	0.068138	0.231125
O7	O	-1.150932	0.196561	-0.103129
O8	O	-1.097386	-0.017975	0.173843
O9	O	-1.284582	0.169467	0.058832
O10	O	-1.198651	-0.038504	0.296558
O11	O	-1.070238	0.115760	-0.053551
O12	O	-0.936690	0.142724	0.173630
O13	O	-1.049847	0.216861	0.458146
O14	O	-0.916197	0.243954	0.296185
O15	O	-1.171604	0.095102	0.458307
O16	O	-1.123886	0.330166	0.058620
O17	O	-1.022699	0.350596	0.230752
C18	C	-0.896542	0.199389	0.242207
C19	C	-0.804939	0.217941	0.264589
C20	C	-0.556979	0.015070	0.019873
C21	C	-0.470901	0.032519	0.040916
C22	C	-0.449587	0.138076	0.168232
C23	C	-0.535665	0.120633	0.147204
C24	C	-0.589355	0.059130	0.073022
C25	C	-0.568041	0.164693	0.200354
C26	C	-0.654112	0.147255	0.179322
C27	C	-0.707806	0.085756	0.105140
C28	C	-0.675426	0.041692	0.051990
C29	C	-0.514349	0.226200	0.274528
C30	C	-0.546725	0.270260	0.327678
C31	C	-0.632798	0.252818	0.306653
C32	C	-0.686493	0.191319	0.232472
C33	C	-0.665179	0.296882	0.359803
C34	C	-0.751249	0.279444	0.338771
C35	C	-0.772563	0.173881	0.211440
C36	C	-1.067250	0.370295	0.137361
C37	C	-1.048756	0.461925	0.114887
C38	C	-1.110737	0.155967	0.502993
C39	C	-1.110772	0.155922	0.636396
C40	C	-0.325607	0.112574	0.137466
C41	C	-0.417212	0.094011	0.115079
C42	C	-0.970002	0.601823	0.019235
C43	C	-0.987385	0.515721	0.040361
C44	C	-1.092771	0.494216	0.168314
C45	C	-1.075399	0.580318	0.147195
C46	C	-1.014013	0.634115	0.072656
C47	C	-1.119410	0.612610	0.200615
C48	C	-1.102036	0.698704	0.179503
C49	C	-1.040651	0.752507	0.104970
C50	C	-0.996639	0.720209	0.051543
C51	C	-1.180792	0.558812	0.275161
C52	C	-1.224803	0.591104	0.328581
C53	C	-1.207434	0.677199	0.307462
C54	C	-1.146049	0.731001	0.232929
C55	C	-1.251446	0.709496	0.360889
C56	C	-1.234073	0.795591	0.339776
C57	C	-1.128675	0.817096	0.211817
C58	C	-1.154217	0.941014	0.242747
C59	C	-1.172686	0.849388	0.265237
C60	C	-1.110633	0.156106	-0.121885
C61	C	-1.110805	0.155886	-0.255270
H62	H	-0.719146	-0.008402	-0.008395
H63	H	-1.078693	0.860900	0.151112
H64	H	-0.777610	0.315321	0.382052
O65	O	-0.609018	-0.044672	-0.052269
C66	C	-0.561992	-0.079841	-0.094648
H67	H	-0.493798	-0.033650	-0.092174
H68	H	-0.588619	-0.093732	-0.193083
H69	H	-0.565533	-0.140580	-0.032960
O70	O	-0.439385	-0.010168	-0.010838
C71	C	-0.380056	0.046800	-0.087774
H72	H	-0.392847	0.106475	-0.117649
H73	H	-0.385084	0.017103	-0.172464
H74	H	-0.314262	0.062886	-0.035423
H75	H	-1.026501	0.822611	0.087791
O76	O	-0.494665	0.329935	0.399899
C77	C	-0.519361	0.307713	0.518819
H78	H	-0.588271	0.263363	0.513883
H79	H	-0.510268	0.366652	0.557171
H80	H	-0.479513	0.275156	0.581564
O81	O	-1.276790	0.826891	0.391872
C82	C	-1.262969	0.809473	0.521047
H83	H	-1.243913	0.753391	0.546548
H84	H	-1.323029	0.794428	0.561175
H85	H	-1.210789	0.866515	0.559872
H86	H	-0.946657	0.764013	-0.009162
H87	H	-0.621451	0.346963	0.420192
H88	H	-0.816283	0.123787	0.151054
H89	H	-0.920019	0.645627	-0.041469
O90	O	-0.944572	0.484486	-0.011668
C91	C	-0.886649	0.550438	-0.081949
H92	H	-0.908030	0.604947	-0.109361
H93	H	-0.882884	0.527398	-0.168290
H94	H	-0.822196	0.572298	-0.025030
H95	H	-0.405861	0.188154	0.228627
O96	O	-0.791386	0.068965	0.084656
C97	C	-0.804140	0.142131	0.027196
H98	H	-0.744934	0.199687	0.048053
H99	H	-0.858773	0.145154	0.063601
H100	H	-0.819028	0.140717	-0.076525
H101	H	-1.142750	0.450406	0.229008
O102	O	-1.197519	0.475210	0.295721
C103	C	-1.124323	0.462486	0.352797
H104	H	-1.066839	0.521757	0.331628
H105	H	-1.121312	0.407888	0.316338
H106	H	-1.125630	0.447523	0.456574
O107	O	-1.284432	0.538721	0.400907
C108	C	-1.290314	0.455809	0.408117
H109	H	-1.265707	0.449584	0.324914
H110	H	-1.358656	0.410536	0.409294
H111	H	-1.251339	0.440263	0.495969
O112	O	-0.430738	0.243153	0.295174
C113	C	-0.406284	0.227881	0.422439
H114	H	-0.453052	0.231955	0.475943
H115	H	-0.341185	0.276767	0.448603
H116	H	-0.404841	0.162574	0.445682
O117	O	-1.310973	0.657166	0.433408
C118	C	-1.274064	0.616887	0.534558
H119	H	-1.214209	0.616714	0.510536
H120	H	-1.319845	0.549512	0.557351
H121	H	-1.258295	0.651865	0.617578
