data_functionalizedCrystal
_audit_creation_method	'MofGen! by Chris Wilmer'
_symmetry_space_group_name_H-M	'P1'
_symmetry_Int_Tables_number	1
_symmetry_cell_setting	triclinic
loop_
_symmetry_equiv_pos_as_xyz
  x,y,z
_cell_length_a	18.426585
_cell_length_b	17.052862
_cell_length_c	17.052832
_cell_angle_alpha	45.842616
_cell_angle_beta	77.684430
_cell_angle_gamma	70.265468
loop_
_atom_site_label
_atom_site_type_symbol
_atom_site_fract_x
_atom_site_fract_y
_atom_site_fract_z
Zr1	Zr	0.869304	0.878619	-0.240997
O2	O	0.807197	1.046070	-0.395009
O3	O	0.868598	0.711166	-0.175857
O4	O	0.930124	0.878623	-0.369163
O5	O	0.719598	0.878610	-0.069613
O6	O	1.049552	0.878628	-0.369167
O7	O	0.745671	0.878613	-0.201703
O8	O	0.939492	0.579078	-0.023378
O9	O	0.829657	1.178160	-0.415401
O10	O	0.981279	0.780047	-0.169737
O11	O	0.872694	0.780041	-0.071156
O12	O	0.945133	0.977200	-0.298749
O13	O	0.836548	0.977194	-0.200168
Zr14	Zr	1.018194	0.878624	-0.030334
Zr15	Zr	1.059777	0.878628	-0.241003
Zr16	Zr	0.827721	0.878615	-0.030328
Zr17	Zr	0.905125	1.089288	-0.273520
Zr18	Zr	0.982372	0.667955	0.002189
O19	O	1.018899	1.046077	-0.095474
O20	O	1.078025	1.046082	-0.395019
O21	O	0.748071	1.046065	-0.095465
O22	O	1.080300	0.711173	0.123678
O23	O	1.139426	0.711178	-0.175866
O24	O	0.809472	0.711161	0.123688
O25	O	1.167899	0.878632	-0.201718
O26	O	0.957373	0.878620	0.097832
O27	O	0.837946	0.878615	0.097836
O28	O	1.141827	0.878630	-0.069628
O29	O	0.981058	1.178167	-0.415407
O30	O	0.906439	0.579076	0.144076
O31	O	1.057840	0.579083	0.144070
O32	O	1.090893	0.579085	-0.023383
O33	O	0.796604	1.178157	-0.247948
O34	O	0.948005	1.178165	-0.247953
O35	O	0.942364	0.780043	0.027418
O36	O	1.050949	0.780049	-0.071163
O37	O	1.014803	0.977202	-0.200175
O38	O	0.906218	0.977196	-0.101594
C39	C	0.898941	0.615106	-0.094984
C40	C	0.883734	0.525671	-0.081176
C41	C	1.067590	0.273591	-0.248104
C42	C	1.081877	0.357624	-0.261084
C43	C	1.032343	0.399639	-0.216108
C44	C	0.968518	0.357615	-0.158150
C45	C	0.954226	0.273580	-0.145177
C46	C	0.918979	0.399628	-0.113181
C47	C	0.855154	0.357604	-0.055223
C48	C	0.840865	0.273576	-0.042251
C49	C	0.890399	0.231560	-0.087227
C50	C	0.933271	0.483663	-0.126154
C51	C	0.819908	0.483652	-0.023227
C52	C	0.805620	0.399619	-0.010247
C53	C	0.705496	0.878610	-0.135657
C54	C	0.624635	0.878607	-0.135654
C55	C	0.328529	0.878641	-0.135677
C56	C	0.410914	0.878636	-0.135674
C57	C	0.476580	0.878624	-0.135666
C58	C	0.558970	0.878619	-0.135662
C59	C	1.182001	0.878633	-0.135674
C60	C	1.262862	0.878636	-0.135677
C61	C	0.995763	0.878626	-0.399180
C62	C	1.013416	0.878627	-0.488615
C63	C	0.988556	1.142137	-0.176347
C64	C	1.003763	1.231571	-0.190155
C65	C	0.799992	0.878609	-0.740697
C66	C	0.783406	0.878600	-0.656664
C67	C	0.840906	0.878607	-0.614648
C68	C	0.914997	0.878622	-0.656672
C69	C	0.931586	0.878622	-0.740708
C70	C	0.972501	0.878621	-0.614659
C71	C	1.046591	0.878636	-0.656683
C72	C	1.063177	0.878636	-0.740711
C73	C	1.005676	0.878629	-0.782727
C74	C	0.955911	0.878621	-0.530623
C75	C	1.087506	0.878634	-0.530634
C76	C	1.104092	0.878643	-0.614667
C77	C	0.891735	0.878617	0.127849
C78	C	0.874082	0.878616	0.217284
C79	C	1.137194	0.615117	-0.094992
C80	C	1.202848	0.525686	-0.081188
C81	C	0.846927	0.615102	0.168531
C82	C	0.814067	0.525666	0.271773
C83	C	1.085180	0.615113	0.168523
C84	C	1.133181	0.525681	0.271762
C85	C	0.802317	1.142130	-0.439854
C86	C	0.754317	1.231562	-0.543093
C87	C	0.750303	1.142126	-0.176339
C88	C	0.684650	1.231556	-0.190143
C89	C	1.040570	1.142141	-0.439862
C90	C	1.073430	1.231577	-0.543104
C91	C	1.197314	0.483687	-0.126169
C92	C	1.259001	0.399669	-0.113220
C93	C	1.326219	0.357646	-0.055283
C94	C	1.331752	0.399653	-0.010301
C95	C	1.270068	0.483676	-0.023257
C96	C	0.835001	0.483667	0.371720
C97	C	0.804122	0.399644	0.468733
C98	C	0.752314	0.357615	0.465797
C99	C	0.731378	0.399622	0.365839
C100	C	0.762252	0.483650	0.268828
C101	C	1.212411	0.483685	0.268786
C102	C	1.257523	0.399666	0.365780
C103	C	1.223403	0.357637	0.465749
C104	C	1.144166	0.399641	0.468722
C105	C	1.099056	0.483665	0.371729
C106	C	0.675088	1.273568	-0.540118
C107	C	0.629980	1.357614	-0.637116
C108	C	0.664101	1.399646	-0.737087
C109	C	0.743337	1.357637	-0.740059
C110	C	0.788445	1.273599	-0.643063
C111	C	0.690186	1.273564	-0.145172
C112	C	0.628508	1.357606	-0.158148
C113	C	0.561291	1.399632	-0.216089
C114	C	0.555757	1.357621	-0.261065
C115	C	0.617437	1.273587	-0.248096
C116	C	1.125236	1.273579	-0.540133
C117	C	1.156126	1.357603	-0.637129
C118	C	1.135204	1.399629	-0.737097
C119	C	1.083395	1.357619	-0.740066
C120	C	1.052510	1.273591	-0.643069
H121	H	0.878773	0.163128	-0.076656
H122	H	1.254482	0.365477	-0.149851
Br123	Br	1.409927	0.243614	-0.037709
H124	H	1.043980	0.468063	-0.226680
H125	H	0.511073	1.468058	-0.226641
H126	H	1.198308	1.391798	-0.634692
Br127	Br	0.733837	0.540633	0.133190
Br128	Br	1.258737	0.540711	0.133125
H129	H	1.322039	0.365475	0.363340
Br130	Br	0.905314	0.540681	0.375736
Br131	Br	0.754237	0.216560	0.036386
Br132	Br	1.277588	0.540658	0.037804
H133	H	0.821179	0.365451	0.550113
Br134	Br	0.719008	0.342568	0.068416
H135	H	0.501021	1.391851	-0.308241
H136	H	0.852956	1.239399	-0.645497
Br137	Br	1.028186	0.878652	-0.896784
Br138	Br	0.781402	1.216551	-0.066537
H139	H	1.010325	1.239402	-0.645504
Br140	Br	1.106099	0.540703	-0.204807
H141	H	1.260143	0.289220	0.544720
Br142	Br	0.710420	0.243577	0.597467
H143	H	1.160358	1.468050	-0.816070
H144	H	1.116394	0.365409	0.550131
Br145	Br	0.991526	0.540643	0.375788
Br146	Br	0.628762	1.216539	-0.404457
H147	H	0.627363	1.468075	-0.816059
Br148	Br	0.609908	1.216581	-0.309131
Br149	Br	1.204639	0.878666	-0.671710
H150	H	0.779571	0.517864	0.013393
H151	H	1.066366	1.391849	-0.821473
Br152	Br	1.422981	0.342606	0.068329
Br153	Br	0.522450	1.414606	-0.633056
H154	H	0.689192	0.365390	0.363465
Br155	Br	0.789632	1.414692	-0.875743
Br156	Br	0.636035	1.414600	-0.097097
H157	H	0.985238	0.517873	-0.173344
Br158	Br	1.134799	0.216581	-0.309153
Br159	Br	1.168488	0.414659	-0.339745
Br160	Br	1.163731	0.878632	-0.797730
H161	H	1.142279	1.239374	-0.458744
Br162	Br	0.721965	0.878579	-0.797705
Br163	Br	0.855364	0.878598	-0.473599
H164	H	0.827399	0.878600	-0.546224
H165	H	0.723082	0.878586	-0.622449
H166	H	1.134328	0.878637	-0.496423
