data_functionalizedCrystal
_audit_creation_method	'MofGen! by Chris Wilmer'
_symmetry_space_group_name_H-M	'P1'
_symmetry_Int_Tables_number	1
_symmetry_cell_setting	triclinic
loop_
_symmetry_equiv_pos_as_xyz
  x,y,z
_cell_length_a	14.853566
_cell_length_b	17.019294
_cell_length_c	13.930277
_cell_angle_alpha	86.116472
_cell_angle_beta	89.995631
_cell_angle_gamma	83.514243
loop_
_atom_site_label
_atom_site_type_symbol
_atom_site_fract_x
_atom_site_fract_y
_atom_site_fract_z
O1	O	1.196090	0.102985	-0.088279
O2	O	0.933597	0.115254	-0.089309
O3	O	1.072165	-0.005705	-0.079297
O4	O	1.057521	0.223944	-0.098291
O5	O	1.072146	-0.005708	0.080365
O6	O	0.933578	0.115252	0.070353
O7	O	1.196071	0.102982	0.071383
Zn8	Zn	1.064821	0.109116	0.096218
Zn9	Zn	1.064846	0.109120	-0.114144
O10	O	1.057502	0.223942	0.061371
C11	C	0.900000	0.114697	-0.009434
C12	C	0.799921	0.113032	-0.009302
C13	C	0.376765	0.105989	-0.095735
C14	C	0.376766	0.105987	0.078335
C15	C	0.470796	0.107551	0.078203
C16	C	0.517815	0.108335	-0.008900
C17	C	0.470804	0.107555	-0.095870
C18	C	0.517812	0.108338	0.165171
C19	C	0.611848	0.109903	0.165042
C20	C	0.658869	0.110682	0.077939
C21	C	0.611853	0.109901	-0.009035
C22	C	0.658872	0.110686	-0.096137
C23	C	0.611858	0.109900	-0.183111
C24	C	0.517825	0.108334	-0.182973
C25	C	0.752902	0.112247	0.077800
C26	C	0.752910	0.112252	-0.096273
C27	C	1.071600	-0.035096	0.002963
C28	C	1.069934	-0.122669	0.010199
C29	C	1.069164	-0.163804	-0.073432
C30	C	1.067592	-0.246087	-0.066630
C31	C	1.066798	-0.287233	0.023805
C32	C	1.067565	-0.246092	0.107443
C33	C	1.069130	-0.163810	0.100639
C34	C	1.062066	-0.535671	0.048701
C35	C	1.060504	-0.617959	0.055498
C36	C	1.060529	-0.617949	-0.118576
C37	C	1.062099	-0.535666	-0.125371
C38	C	1.062862	-0.494531	-0.041733
C39	C	1.065194	-0.371340	0.030760
C40	C	1.064459	-0.410425	-0.048690
C41	C	1.229667	0.103539	-0.008494
C42	C	1.329747	0.105205	-0.008632
C43	C	1.058067	0.253333	-0.020891
C44	C	1.059733	0.340905	-0.028134
N45	N	1.064810	0.109114	0.239784
N46	N	1.064864	0.109116	-0.257710
C47	C	1.003486	0.162660	0.687621
C48	C	1.126232	0.055574	0.696454
C49	C	1.126221	0.055571	0.595959
C50	C	1.064843	0.109115	0.541290
C51	C	1.003475	0.162660	0.587116
C52	C	1.187594	0.002032	0.550124
C53	C	1.187586	0.002028	0.449623
C54	C	1.126203	0.055568	0.394952
C55	C	1.064832	0.109115	0.440785
C56	C	1.003453	0.162659	0.386116
C57	C	0.942078	0.216203	0.431947
C58	C	0.942092	0.216201	0.532446
C59	C	1.126189	0.055570	0.294453
C60	C	1.003443	0.162659	0.285610
H61	H	0.650119	0.110542	0.235862
C62	C	1.058133	-0.744076	-0.185443
C63	C	1.059678	-0.663165	-0.210506
H64	H	1.057599	-0.771987	-0.242201
H65	H	1.110418	-0.763516	-0.148082
H66	H	1.005322	-0.751595	-0.149060
H67	H	1.112492	-0.655645	-0.246883
H68	H	1.007388	-0.643719	-0.247882
C69	C	0.756009	0.112305	-0.260596
C70	C	0.663548	0.110761	-0.278853
H71	H	0.787921	0.112833	-0.319702
H72	H	0.764471	0.158525	-0.228666
H73	H	0.778343	0.066596	-0.221050
H74	H	0.641211	0.156474	-0.318394
H75	H	0.655080	0.064537	-0.310798
H76	H	1.069745	-0.130316	0.168741
C77	C	0.792075	0.044974	0.231730
C78	C	0.804583	0.113109	0.173390
H79	H	0.823987	0.045504	0.290743
H80	H	0.729350	0.043939	0.244276
H81	H	0.814421	-0.000729	0.199740
H82	H	0.782231	0.158812	0.205377
H83	H	0.867321	0.114151	0.160846
C84	C	0.785969	0.262267	0.559625
C85	C	0.874635	0.275051	0.582830
H86	H	0.744327	0.298596	0.590740
H87	H	0.777177	0.269937	0.491957
H88	H	0.776267	0.209599	0.580458
H89	H	0.884339	0.327717	0.561990
H90	H	0.883430	0.267387	0.650512
H91	H	0.791186	0.112888	-0.167203
C92	C	0.993453	-0.062497	-0.182792
C93	C	1.070020	-0.118583	-0.172846
H94	H	0.993979	-0.034580	-0.244167
H95	H	0.940310	-0.088646	-0.177001
H96	H	0.994153	-0.026219	-0.133960
H97	H	1.069316	-0.154865	-0.221674
H98	H	1.123177	-0.092433	-0.178646
H99	H	1.237571	-0.041558	0.594639
H100	H	1.066969	-0.279577	-0.134732
C101	C	1.240588	-0.134484	0.430237
C102	C	1.255038	-0.056919	0.399376
H103	H	1.282225	-0.170901	0.399248
H104	H	1.249311	-0.142048	0.497921
H105	H	1.180429	-0.143109	0.414455
H106	H	1.315196	-0.048292	0.415165
H107	H	1.246322	-0.049352	0.331677
H108	H	0.953512	0.206253	0.724940
C109	C	0.373679	0.105947	-0.260054
C110	C	0.466144	0.107480	-0.278569
H111	H	0.341772	0.105427	-0.319072
H112	H	0.365205	0.059728	-0.220478
H113	H	0.351349	0.151657	-0.228068
H114	H	0.488476	0.061767	-0.310549
H115	H	0.474624	0.153704	-0.318160
H116	H	1.065100	-0.376920	-0.122321
C117	C	1.060617	-0.609707	0.226887
C118	C	1.059622	-0.663188	0.154911
H119	H	1.060068	-0.637631	0.288256
H120	H	1.113771	-0.583571	0.221119
H121	H	1.008675	-0.571656	0.220108
H122	H	1.111567	-0.701236	0.161686
H123	H	1.006463	-0.689338	0.160683
C124	C	0.986355	-0.434383	0.141338
C125	C	1.062918	-0.490473	0.140642
H126	H	0.986883	-0.406485	0.198108
H127	H	0.987054	-0.398097	0.086522
H128	H	0.933203	-0.460533	0.139874
H129	H	1.116070	-0.464323	0.142099
H130	H	1.062227	-0.526765	0.195473
H131	H	1.062748	-0.502171	-0.199012
H132	H	1.066913	-0.279599	0.181077
C133	C	0.882112	0.268513	0.286975
C134	C	0.935974	0.221519	0.225521
H135	H	0.840465	0.304853	0.249876
H136	H	0.849734	0.235622	0.328895
H137	H	0.919611	0.296945	0.323819
H138	H	0.898475	0.193083	0.188682
H139	H	0.968355	0.254415	0.183585
H140	H	1.176164	0.011979	0.257142
C141	C	0.232620	0.103591	0.155826
C142	C	0.325084	0.105128	0.174074
H143	H	0.200714	0.103056	0.214936
H144	H	0.210287	0.149297	0.116292
H145	H	0.224152	0.057368	0.123889
H146	H	0.333554	0.151354	0.206005
H147	H	0.347425	0.059417	0.213624
H148	H	1.064550	-0.404851	0.104393
C149	C	0.499075	0.040104	0.319187
C150	C	0.466127	0.107479	0.260907
H151	H	0.467165	0.039577	0.378294
H152	H	0.490601	-0.006110	0.287252
H153	H	0.561804	0.041161	0.331554
H154	H	0.403398	0.106419	0.248534
H155	H	0.474593	0.153704	0.292850
C156	C	1.282356	0.009485	0.731174
C157	C	1.193693	-0.003286	0.756539
H158	H	1.324001	-0.026855	0.768275
H159	H	1.291123	0.001823	0.664769
H160	H	1.292076	0.062148	0.743294
H161	H	1.183970	-0.055947	0.744412
H162	H	1.184922	0.004370	0.822960
H163	H	0.338483	0.105346	-0.166547
H164	H	0.892107	0.259802	0.387423
