data_functionalizedCrystal
_audit_creation_method	'MofGen! by Chris Wilmer'
_symmetry_space_group_name_H-M	'P1'
_symmetry_Int_Tables_number	1
_symmetry_cell_setting	triclinic
loop_
_symmetry_equiv_pos_as_xyz
  x,y,z
_cell_length_a	12.837943
_cell_length_b	14.519709
_cell_length_c	11.892095
_cell_angle_alpha	93.895429
_cell_angle_beta	85.689438
_cell_angle_gamma	89.254542
loop_
_atom_site_label
_atom_site_type_symbol
_atom_site_fract_x
_atom_site_fract_y
_atom_site_fract_z
O1	O	1.382515	0.234472	-0.093988
O2	O	1.882515	0.734472	0.406012
O3	O	1.080688	0.222627	-0.093995
O4	O	1.580688	0.722627	0.406005
O5	O	1.239604	0.095003	-0.093981
O6	O	1.739604	0.595003	0.406019
O7	O	1.223600	0.362096	-0.094002
O8	O	1.723600	0.862096	0.405998
O9	O	1.226354	0.105626	0.094025
O10	O	1.726354	0.605626	0.594025
O11	O	1.067438	0.233250	0.094012
O12	O	1.567438	0.733250	0.594012
O13	O	1.369265	0.245095	0.094018
O14	O	1.869265	0.745095	0.594018
Zn15	Zn	1.216248	0.240859	0.123865
Zn16	Zn	1.716248	0.740859	0.623865
Zn17	Zn	1.233706	0.226863	-0.123842
Zn18	Zn	1.733706	0.726863	0.376158
O19	O	1.210350	0.372719	0.094005
O20	O	1.710350	0.872719	0.594005
C21	C	1.035435	0.223937	0.000008
C22	C	1.535435	0.723937	0.500008
C23	C	0.920336	0.212002	0.000006
C24	C	1.420336	0.712002	0.500006
C25	C	0.679644	0.355473	0.000011
C26	C	1.179644	0.855473	0.500011
C27	C	0.571497	0.344264	0.000010
C28	C	1.071497	0.844264	0.500010
C29	C	0.595894	0.178377	0.000010
C30	C	1.095894	0.678377	0.500010
C31	C	0.704041	0.189586	0.000012
C32	C	1.204041	0.689586	0.500012
C33	C	0.745911	0.278137	0.000010
C34	C	1.245911	0.778137	0.500010
C35	C	0.854060	0.289344	0.000003
C36	C	1.354060	0.789344	0.500003
C37	C	0.878455	0.123458	0.000012
C38	C	1.378455	0.623458	0.500012
C39	C	0.770308	0.112249	0.000011
C40	C	1.270308	0.612249	0.500011
C41	C	1.232233	0.065890	0.000022
C42	C	1.732233	0.565890	0.500022
C43	C	1.229998	-0.036684	0.000023
C44	C	1.729998	0.463316	0.500023
C45	C	1.221771	-0.412293	-0.000007
C46	C	1.721771	0.087707	0.499993
C47	C	1.224055	-0.307787	0.000002
C48	C	1.724055	0.192213	0.500002
C49	C	1.225884	-0.224492	0.000009
C50	C	1.725884	0.275508	0.500009
C51	C	1.228169	-0.119979	0.000016
C52	C	1.728169	0.380021	0.500016
C53	C	1.414519	0.243785	0.000013
C54	C	1.914519	0.743785	0.500013
C55	C	1.529618	0.255719	0.000008
C56	C	2.029618	0.755719	0.500008
C57	C	1.217721	0.401831	-0.000001
C58	C	1.717721	0.901831	0.499999
C59	C	1.219957	0.504405	-0.000009
C60	C	1.719957	1.004405	0.499991
N61	N	1.204341	0.250411	0.292918
N62	N	1.704341	0.750411	0.792918
N63	N	1.245621	0.217304	-0.292895
N64	N	1.745621	0.717304	0.207105
C65	C	1.328473	0.150784	0.529576
C66	C	1.828473	0.650784	1.029576
C67	C	1.320158	0.157468	0.647918
C68	C	1.820158	0.657468	1.147918
C69	C	1.179391	0.270458	0.647944
C70	C	1.679391	0.770458	1.147944
C71	C	1.187707	0.263774	0.529603
C72	C	1.687707	0.763774	1.029603
C73	C	1.262251	0.203936	0.470423
C74	C	1.762251	0.703936	0.970423
C75	C	1.270570	0.197257	0.352080
C76	C	1.770570	0.697257	0.852080
C77	C	1.129800	0.310242	0.352108
C78	C	1.629800	0.810242	0.852108
C79	C	1.121484	0.316926	0.470449
C80	C	1.621484	0.816926	0.970449
H81	H	0.713735	0.427575	0.000008
H82	H	1.213735	0.927575	0.500008
H83	H	0.888149	0.361447	0.000004
H84	H	1.388149	0.861447	0.500004
C85	C	1.055068	0.066976	0.000007
C86	C	1.555068	0.566976	0.500007
C87	C	0.951300	0.038442	0.000010
C88	C	1.451300	0.538442	0.500010
H89	H	1.100037	0.014490	0.000007
H90	H	1.600037	0.514490	0.500007
H91	H	1.072389	0.099186	-0.065550
H92	H	1.572389	0.599186	0.434450
H93	H	1.063154	0.106590	0.065574
H94	H	1.563154	0.606590	0.565574
H95	H	0.943212	-0.001168	-0.065563
H96	H	1.443212	0.498832	0.434437
H97	H	0.933974	0.006216	0.065573
H98	H	1.433974	0.506216	0.565573
C99	C	1.302116	0.066158	0.219058
C100	C	1.802116	0.566158	0.719058
C101	C	1.352477	0.131439	0.287053
C102	C	1.852477	0.631439	0.787053
H103	H	1.352676	0.025514	0.178921
H104	H	1.852676	0.525514	0.678921
H105	H	1.255633	0.031824	0.265257
H106	H	1.755633	0.531824	0.765257
H107	H	1.263900	0.096867	0.166869
H108	H	1.763900	0.596867	0.666869
H109	H	1.390687	0.100730	0.339249
H110	H	1.890687	0.600730	0.839249
H111	H	1.398978	0.165777	0.240850
H112	H	1.898978	0.665777	0.740850
C113	C	1.478907	0.135760	0.396497
C114	C	1.978907	0.635760	0.896497
C115	C	1.410440	0.085033	0.464536
C116	C	1.910440	0.585033	0.964536
H117	H	1.529521	0.095171	0.356356
H118	H	2.029521	0.595171	0.856356
H119	H	1.440655	0.166433	0.344322
H120	H	1.940655	0.666433	0.844322
H121	H	1.512992	0.180068	0.442677
H122	H	2.012992	0.680068	0.942677
H123	H	1.376349	0.040729	0.418355
H124	H	1.876349	0.540729	0.918355
H125	H	1.448697	0.054345	0.516717
H126	H	1.948697	0.554345	1.016717
C127	C	0.440937	0.087548	0.000030
C128	C	0.940937	0.587548	0.500030
C129	C	0.549855	0.081048	0.000023
C130	C	1.049855	0.581048	0.500023
H131	H	0.412518	0.027460	0.000033
H132	H	0.912518	0.527460	0.500033
H133	H	0.413599	0.123493	0.065586
H134	H	0.913599	0.623493	0.565586
H135	H	0.422830	0.116088	-0.065539
H136	H	0.922830	0.616088	0.434461
H137	H	0.567963	0.052515	0.065596
H138	H	1.067963	0.552515	0.565596
H139	H	0.577204	0.045090	-0.065540
H140	H	1.077204	0.545090	0.434460
H141	H	1.118692	0.319170	0.696143
H142	H	1.618692	0.819170	1.196143
H143	H	1.075880	0.353524	0.303932
H144	H	1.575880	0.853524	0.803932
H145	H	1.374081	0.114185	0.696077
H146	H	1.874081	0.614185	1.196077
C147	C	0.805287	-0.050597	0.000004
C148	C	1.305287	0.449403	0.500004
C149	C	0.724279	0.014917	0.000008
C150	C	1.224279	0.514917	0.500008
H151	H	0.776870	-0.110686	0.000006
H152	H	1.276870	0.389314	0.500006
H153	H	0.851577	-0.046472	-0.065553
H154	H	1.351577	0.453528	0.434447
H155	H	0.842343	-0.039071	0.065571
H156	H	1.342343	0.460929	0.565571
H157	H	0.687228	0.003394	-0.065564
H158	H	1.187228	0.503394	0.434436
H159	H	0.677972	0.010789	0.065572
H160	H	1.177972	0.510789	0.565572
C161	C	0.558250	0.509360	-0.000003
C162	C	1.058250	1.009360	0.499997
C163	C	0.498655	0.429274	0.000001
C164	C	0.998655	0.929274	0.500001
H165	H	0.513279	0.561842	-0.000015
H166	H	1.013279	1.061842	0.499985
H167	H	0.596314	0.513984	0.065557
H168	H	1.096314	1.013984	0.565557
H169	H	0.605564	0.506572	-0.065568
H170	H	1.105564	1.006572	0.434432
H171	H	0.451346	0.432060	0.065570
H172	H	0.951346	0.932060	0.565570
H173	H	0.460574	0.424650	-0.065566
H174	H	0.960574	0.924650	0.434434
C175	C	1.046238	0.377347	0.651871
C176	C	1.546238	0.877347	1.151871
C177	C	1.039553	0.382702	0.535506
C178	C	1.539553	0.882702	1.035506
H179	H	0.995661	0.417962	0.692029
H180	H	1.495661	0.917962	1.192029
H181	H	1.033492	0.315896	0.671263
H182	H	1.533492	0.815896	1.171263
H183	H	1.114092	0.394567	0.671237
H184	H	1.614092	0.894567	1.171237
H185	H	0.971701	0.365474	0.516138
H186	H	1.471701	0.865474	1.016138
H187	H	1.052291	0.444166	0.516105
H188	H	1.552291	0.944166	1.016105
