data_functionalizedCrystal
_audit_creation_method	'MofGen! by Chris Wilmer'
_symmetry_space_group_name_H-M	'P1'
_symmetry_Int_Tables_number	1
_symmetry_cell_setting	triclinic
loop_
_symmetry_equiv_pos_as_xyz
  x,y,z
_cell_length_a	16.992694
_cell_length_b	16.992695
_cell_length_c	9.130313
_cell_angle_alpha	89.995176
_cell_angle_beta	90.002155
_cell_angle_gamma	90.668223
loop_
_atom_site_label
_atom_site_type_symbol
_atom_site_fract_x
_atom_site_fract_y
_atom_site_fract_z
O1	O	1.050849	0.166916	-0.121617
O2	O	0.822449	0.165085	-0.121660
O3	O	0.935734	0.051801	-0.121627
O4	O	0.937565	0.280201	-0.121650
O5	O	0.935725	0.051797	0.121972
O6	O	0.822441	0.165081	0.121939
O7	O	1.050841	0.166912	0.121982
Cu8	Cu	0.936640	0.165996	0.144203
Cu9	Cu	0.936650	0.166001	-0.143881
O10	O	0.937557	0.280197	0.121949
C11	C	0.793085	0.162727	0.000134
C12	C	0.705600	0.155699	0.000118
C13	C	0.659610	0.223517	0.000112
C14	C	0.577409	0.216908	0.000133
C15	C	0.541201	0.142480	0.000149
C16	C	0.587198	0.074657	0.000159
C17	C	0.669397	0.081267	0.000148
C18	C	0.295886	0.115086	0.000191
C19	C	0.213681	0.108481	0.000197
C20	C	0.203898	0.250732	0.000173
C21	C	0.286099	0.257336	0.000154
C22	C	0.332089	0.189512	0.000172
N23	N	0.457178	0.135723	0.000166
N24	N	0.416110	0.196270	0.000166
C25	C	0.933374	0.022439	0.000172
C26	C	0.926345	-0.065046	0.000170
C27	C	0.994163	-0.111037	0.000184
C28	C	0.987554	-0.193238	0.000169
C29	C	0.913127	-0.229446	0.000150
C30	C	0.845303	-0.183449	0.000131
C31	C	0.851913	-0.101250	0.000136
C32	C	0.885732	-0.474760	0.000125
C33	C	0.879127	-0.556966	0.000124
C34	C	1.021379	-0.566749	0.000159
C35	C	1.027982	-0.484547	0.000173
C36	C	0.960159	-0.438558	0.000146
N37	N	0.906369	-0.313468	0.000139
N38	N	0.966917	-0.354537	0.000147
C39	C	1.080205	0.169270	0.000184
C40	C	1.167690	0.176299	0.000191
C41	C	0.939917	0.309559	0.000147
C42	C	0.946945	0.397044	0.000139
N43	N	0.936639	0.165993	0.346825
N44	N	0.936657	0.165999	-0.346504
C45	C	0.986821	0.115854	0.423492
C46	C	0.986828	0.115855	0.576829
C47	C	0.886470	0.216140	0.576819
C48	C	0.886459	0.216135	0.423485
H49	H	0.184203	0.047870	0.000208
H50	H	0.845592	0.256964	0.361059
C51	C	0.719987	0.006667	0.000140
H52	H	0.686651	-0.038606	0.000135
H53	H	0.752263	0.006285	0.085082
H54	H	0.752249	0.006293	-0.084825
H55	H	1.088589	-0.455073	0.000189
C56	C	1.076032	-0.071211	0.000210
H57	H	1.070258	-0.015669	0.000225
H58	H	1.104178	-0.086688	-0.084731
H59	H	1.104166	-0.086700	0.085176
H60	H	0.333322	0.059859	0.000206
H61	H	1.027679	0.075025	0.361079
C62	C	0.153312	0.325333	0.000161
H63	H	0.186649	0.370605	0.000140
H64	H	0.121045	0.325714	0.085110
H65	H	0.121041	0.325711	-0.084797
H66	H	0.830505	-0.437325	0.000104
C67	C	1.042031	0.060705	0.661156
H68	H	1.071916	0.030848	0.593534
H69	H	1.011671	0.026144	0.720985
H70	H	1.076577	0.091105	0.720956
C71	C	0.777316	-0.050656	0.000120
H72	H	0.791911	0.003484	0.000109
H73	H	0.747002	-0.062119	0.085058
H74	H	0.747017	-0.062114	-0.084850
C75	C	0.547371	-0.007212	0.000174
H76	H	0.491829	-0.001436	0.000163
H77	H	0.562855	-0.035355	0.085123
H78	H	0.562850	-0.035348	-0.084785
H79	H	1.076596	-0.604202	0.000178
C80	C	0.699432	0.305388	0.000093
H81	H	0.660265	0.344830	0.000106
H82	H	0.731290	0.310926	-0.084858
H83	H	0.731297	0.310921	0.085049
C84	C	0.526822	0.291508	0.000122
H85	H	0.560159	0.336780	0.000092
H86	H	0.494558	0.291890	0.085075
H87	H	0.494548	0.291884	-0.084832
C88	C	0.797254	-0.596793	0.000079
H89	H	0.757807	-0.557631	0.000045
H90	H	0.791707	-0.628662	0.085021
H91	H	0.791735	-0.628650	-0.084886
C92	C	0.763433	-0.223272	0.000099
H93	H	0.723990	-0.184106	0.000075
H94	H	0.757889	-0.255141	0.085042
H95	H	0.757906	-0.255128	-0.084865
C96	C	0.325923	0.339206	0.000158
H97	H	0.286758	0.378650	0.000173
H98	H	0.357784	0.344746	-0.084790
H99	H	0.357786	0.344734	0.085117
H100	H	1.042779	-0.230680	0.000184
C101	C	0.831285	0.271299	0.661149
H102	H	0.838484	0.264128	0.763450
H103	H	0.778211	0.259428	0.636037
H104	H	0.843128	0.324378	0.635999
