data_functionalizedCrystal
_audit_creation_method	'MofGen! by Chris Wilmer'
_symmetry_space_group_name_H-M	'P1'
_symmetry_Int_Tables_number	1
_symmetry_cell_setting	triclinic
loop_
_symmetry_equiv_pos_as_xyz
  x,y,z
_cell_length_a	19.121102
_cell_length_b	25.639239
_cell_length_c	19.120904
_cell_angle_alpha	92.410104
_cell_angle_beta	90.088173
_cell_angle_gamma	87.592882
loop_
_atom_site_label
_atom_site_type_symbol
_atom_site_fract_x
_atom_site_fract_y
_atom_site_fract_z
Zn1	Zn	1.054765	-0.255751	-0.442042
Zn2	Zn	1.388098	0.077582	-0.108709
Zn3	Zn	1.721431	0.410915	0.224625
Zn4	Zn	1.059658	-0.339618	-0.324799
Zn5	Zn	1.392991	-0.006285	0.008534
Zn6	Zn	1.726325	0.327049	0.341868
Zn7	Zn	0.942536	-0.248315	-0.319827
Zn8	Zn	1.275869	0.085018	0.013507
Zn9	Zn	1.609203	0.418352	0.346840
Zn10	Zn	0.937469	-0.339266	-0.437001
Zn11	Zn	1.270803	-0.005933	-0.103668
Zn12	Zn	1.604136	0.327400	0.229665
O13	O	0.998607	-0.295738	-0.380917
O14	O	1.331940	0.037596	-0.047584
O15	O	1.665274	0.370929	0.285749
O16	O	1.153518	-0.270136	-0.430680
O17	O	1.486852	0.063198	-0.097347
O18	O	1.820185	0.396531	0.235987
O19	O	1.048290	-0.324541	-0.226035
O20	O	1.381623	0.008792	0.107299
O21	O	1.714956	0.342125	0.440632
O22	O	0.957496	-0.176139	-0.336067
O23	O	1.290829	0.157194	-0.002734
O24	O	1.624163	0.490527	0.330599
O25	O	1.157113	-0.331752	-0.344542
O26	O	1.490446	0.001581	-0.011209
O27	O	1.823780	0.334915	0.322125
O28	O	1.039950	-0.181603	-0.425859
O29	O	1.373283	0.151730	-0.092525
O30	O	1.706617	0.485064	0.240808
O31	O	0.962241	-0.257461	-0.222382
O32	O	1.295574	0.075872	0.110952
O33	O	1.628907	0.409205	0.444285
O34	O	0.843760	-0.257121	-0.331180
O35	O	1.177093	0.076213	0.002154
O36	O	1.510426	0.409546	0.335487
O37	O	0.948861	-0.331153	-0.535775
O38	O	1.282194	0.002180	-0.202441
O39	O	1.615527	0.335514	0.130892
O40	O	0.840037	-0.323942	-0.417267
O41	O	1.173370	0.009391	-0.083934
O42	O	1.506704	0.342724	0.249399
O43	O	1.035037	-0.269795	-0.539478
O44	O	1.368370	0.063538	-0.206145
O45	O	1.701704	0.396872	0.127189
O46	O	1.043377	-0.412733	-0.339654
O47	O	1.376710	-0.079400	-0.006321
O48	O	1.710043	0.253933	0.327013
O49	O	0.953605	-0.412475	-0.422089
O50	O	1.286939	-0.079142	-0.088755
O51	O	1.620272	0.254192	0.244578
C52	C	0.816461	-0.289687	-0.373137
C53	C	1.149794	0.043647	-0.039804
C54	C	1.483128	0.376980	0.293529
C55	C	0.738537	-0.287111	-0.369826
C56	C	1.071871	0.046222	-0.036492
C57	C	1.405204	0.379556	0.296841
C58	C	0.998491	-0.431575	-0.380880
C59	C	1.331824	-0.098242	-0.047547
C60	C	1.665157	0.235091	0.285787
C61	C	0.998504	-0.489690	-0.380890
C62	C	1.331837	-0.156357	-0.047557
C63	C	1.665170	0.176977	0.285776
C64	C	0.700012	-0.320740	-0.413021
C65	C	1.033345	0.012593	-0.079687
C66	C	1.366679	0.345927	0.253646
C67	C	0.626794	-0.318313	-0.409912
C68	C	0.960128	0.015020	-0.076579
C69	C	1.293461	0.348353	0.256754
C70	C	0.592104	-0.282260	-0.363605
C71	C	0.925437	0.051074	-0.030272
C72	C	1.258770	0.384407	0.303062
C73	C	0.630634	-0.248627	-0.320408
C74	C	0.963968	0.084706	0.012925
C75	C	1.297301	0.418039	0.346259
C76	C	0.703850	-0.251052	-0.323520
C77	C	1.037184	0.082281	0.009813
C78	C	1.370517	0.415615	0.343146
C79	C	0.371134	-0.273194	-0.351972
C80	C	0.704467	0.060140	-0.018639
C81	C	1.037801	0.393473	0.314695
C82	C	0.297913	-0.270773	-0.348862
C83	C	0.631246	0.062561	-0.015528
C84	C	0.964579	0.395894	0.317805
C85	C	0.294078	-0.340458	-0.438367
C86	C	0.627411	-0.007125	-0.105034
C87	C	0.960744	0.326209	0.228300
C88	C	0.367296	-0.342882	-0.441472
C89	C	0.700629	-0.009548	-0.108139
C90	C	1.033962	0.323785	0.225195
C91	C	0.405820	-0.309247	-0.398278
C92	C	0.739153	0.024086	-0.064945
C93	C	1.072486	0.357419	0.268389
C94	C	0.517264	-0.279779	-0.360425
C95	C	0.850597	0.053554	-0.027092
C96	C	1.183930	0.386887	0.306242
C97	C	0.480658	-0.311726	-0.401462
C98	C	0.813992	0.021608	-0.068129
C99	C	1.147325	0.354941	0.265205
C100	C	1.045465	-0.850185	-0.338075
C101	C	1.378798	-0.516852	-0.004742
C102	C	1.712131	-0.183519	0.328592
C103	C	1.045491	-0.904791	-0.338085
C104	C	1.378825	-0.571458	-0.004752
C105	C	1.712158	-0.238124	0.328581
O106	O	1.085298	-0.933135	-0.301642
O107	O	1.418632	-0.599802	0.031692
O108	O	1.751965	-0.266468	0.365025
N109	N	0.998728	-0.931982	-0.380969
N110	N	1.332062	-0.598649	-0.047636
N111	N	1.665395	-0.265315	0.285698
C112	C	0.951940	-0.904565	-0.423850
C113	C	1.285273	-0.571232	-0.090517
C114	C	1.618607	-0.237899	0.242817
O115	O	0.912167	-0.932708	-0.460327
O116	O	1.245501	-0.599375	-0.126994
O117	O	1.578834	-0.266041	0.206340
C118	C	0.951917	-0.849961	-0.423843
C119	C	1.285251	-0.516628	-0.090509
C120	C	1.618584	-0.183295	0.242824
C121	C	0.998679	-0.822772	-0.380951
C122	C	1.332012	-0.489439	-0.047618
C123	C	1.665345	-0.156106	0.285716
C124	C	1.092223	-0.822997	-0.295188
C125	C	1.425556	-0.489663	0.038146
C126	C	1.758889	-0.156330	0.371479
C127	C	1.092195	-0.768395	-0.295176
C128	C	1.425528	-0.435061	0.038157
C129	C	1.758862	-0.101728	0.371490
C130	C	1.045409	-0.740982	-0.338052
C131	C	1.378742	-0.407648	-0.004719
C132	C	1.712076	-0.074315	0.328614
C133	C	0.998651	-0.768171	-0.380940
C134	C	1.331984	-0.434837	-0.047606
C135	C	1.665318	-0.101504	0.285727
C136	C	0.905133	-0.822546	-0.466727
C137	C	1.238466	-0.489212	-0.133393
C138	C	1.571800	-0.155879	0.199940
C139	C	0.905115	-0.767938	-0.466716
C140	C	1.238448	-0.434604	-0.133383
C141	C	1.571781	-0.101271	0.199951
C142	C	0.951876	-0.740749	-0.423825
C143	C	1.285209	-0.407416	-0.090491
C144	C	1.618543	-0.074082	0.242842
C145	C	0.951837	-0.686156	-0.423805
C146	C	1.285170	-0.352823	-0.090471
C147	C	1.618504	-0.019489	0.242862
N148	N	0.998600	-0.658965	-0.380921
N149	N	1.331933	-0.325631	-0.047588
N150	N	1.665267	0.007702	0.285746
C151	C	1.045386	-0.686378	-0.338045
C152	C	1.378719	-0.353044	-0.004712
C153	C	1.712053	-0.019711	0.328622
C154	C	0.951992	-1.019238	-0.423863
C155	C	1.285326	-0.685905	-0.090530
C156	C	1.618659	-0.352572	0.242804
C157	C	0.952011	-1.073841	-0.423867
C158	C	1.285345	-0.740508	-0.090534
C159	C	1.618678	-0.407175	0.242800
C160	C	1.045564	-1.074063	-0.338103
C161	C	1.378897	-0.740730	-0.004770
C162	C	1.712230	-0.407396	0.328563
C163	C	1.045541	-1.019459	-0.338096
C164	C	1.378874	-0.686125	-0.004763
C165	C	1.712208	-0.352792	0.328571
C166	C	0.998756	-0.992047	-0.380980
C167	C	1.332089	-0.658714	-0.047646
C168	C	1.665422	-0.325380	0.285687
C169	C	1.045324	-0.571710	-0.338024
C170	C	1.378657	-0.238376	-0.004691
C171	C	1.711990	0.094957	0.328643
C172	C	1.045290	-0.517103	-0.338014
C173	C	1.378623	-0.183770	-0.004681
C174	C	1.711956	0.149564	0.328652
C175	C	0.951740	-0.516886	-0.423780
C176	C	1.285074	-0.183553	-0.090447
C177	C	1.618407	0.149780	0.242886
C178	C	0.951771	-0.571488	-0.423788
C179	C	1.285105	-0.238155	-0.090454
C180	C	1.618438	0.095178	0.242879
C181	C	0.998569	-0.598899	-0.380907
C182	C	1.331902	-0.265565	-0.047574
C183	C	1.665236	0.067768	0.285759
O184	O	0.912052	-0.657777	-0.460232
O185	O	1.245386	-0.324444	-0.126898
O186	O	1.578719	0.008889	0.206435
O187	O	1.085159	-0.658229	-0.301581
O188	O	1.418492	-0.324895	0.031753
O189	O	1.751825	0.008438	0.365086
C190	C	1.181464	-0.301813	-0.388728
C191	C	1.514798	0.031521	-0.055395
C192	C	1.848131	0.364854	0.277939
C193	C	1.259387	-0.304401	-0.392057
C194	C	1.592721	0.028932	-0.058723
C195	C	1.926054	0.362265	0.274610
C196	C	0.990838	-0.301264	-0.563775
C197	C	1.324171	0.032069	-0.230442
C198	C	1.657505	0.365402	0.102892
C199	C	0.987527	-0.303619	-0.641698
C200	C	1.320861	0.029714	-0.308365
C201	C	1.654194	0.363047	0.024968
C202	C	0.998742	-0.159371	-0.380971
C203	C	1.332076	0.173963	-0.047637
C204	C	1.665409	0.507296	0.285696
C205	C	0.998800	-0.101259	-0.380993
C206	C	1.332134	0.232074	-0.047660
C207	C	1.665467	0.565408	0.285673
C208	C	1.030837	-0.272781	-0.680236
C209	C	1.364170	0.060552	-0.346903
C210	C	1.697504	0.393885	-0.013569
C211	C	1.027718	-0.274992	-0.753453
C212	C	1.361051	0.058341	-0.420119
C213	C	1.694384	0.391675	-0.086786
C214	C	0.981292	-0.308044	-0.788130
C215	C	1.314625	0.025289	-0.454797
C216	C	1.647958	0.358623	-0.121464
C217	C	0.937977	-0.338883	-0.749587
C218	C	1.271310	-0.005550	-0.416254
C219	C	1.604644	0.327784	-0.082921
C220	C	0.941093	-0.336669	-0.676372
C221	C	1.274427	-0.003336	-0.343039
C222	C	1.607760	0.329997	-0.009705
C223	C	0.969635	-0.316324	-1.009097
C224	C	1.302968	0.017010	-0.675764
C225	C	1.636301	0.350343	-0.342430
C226	C	0.966523	-0.318536	-1.082318
C227	C	1.299856	0.014797	-0.748985
C228	C	1.633190	0.348131	-0.415651
C229	C	1.056263	-0.254644	-1.086178
C230	C	1.389596	0.078689	-0.752845
C231	C	1.722930	0.412022	-0.419511
C232	C	1.059378	-0.252436	-1.012961
C233	C	1.392712	0.080898	-0.679628
C234	C	1.726045	0.414231	-0.346294
C235	C	1.016061	-0.283273	-0.974424
C236	C	1.349395	0.050061	-0.641091
C237	C	1.682728	0.383394	-0.307758
C238	C	0.978104	-0.310306	-0.862970
C239	C	1.311437	0.023028	-0.529636
C240	C	1.644770	0.356361	-0.196303
C241	C	1.019246	-0.281008	-0.899586
C242	C	1.352579	0.052325	-0.566253
C243	C	1.685913	0.385659	-0.232920
C244	C	1.006386	-0.290196	-0.198772
C245	C	1.339720	0.043137	0.134561
C246	C	1.673053	0.376471	0.467894
C247	C	1.009833	-0.287698	-0.120856
C248	C	1.343166	0.045635	0.212478
C249	C	1.676500	0.378969	0.545811
H250	H	0.728252	-0.350100	-0.450727
H251	H	1.061585	-0.016767	-0.117393
H252	H	1.394918	0.316566	0.215940
O253	O	0.585245	-0.354680	-0.456366
O254	O	0.918578	-0.021346	-0.123032
O255	O	1.251912	0.311987	0.210301
H256	H	0.621670	-0.380196	-0.489033
H257	H	0.955004	-0.046863	-0.155700
H258	H	1.288337	0.286471	0.177633
H259	H	1.083618	-0.997325	-0.303171
H260	H	1.416952	-0.663991	0.030163
H261	H	1.750285	-0.330658	0.363496
H262	H	0.913696	-0.593627	-0.458716
H263	H	1.247030	-0.260293	-0.125382
H264	H	1.580363	0.073040	0.207951
O265	O	1.109453	-0.216785	-0.975564
O266	O	1.442786	0.116549	-0.642230
O267	O	1.776119	0.449882	-0.308897
H268	H	1.104348	-0.220430	-0.918178
H269	H	1.437681	0.112903	-0.584845
H270	H	1.771015	0.446236	-0.251511
O271	O	1.096041	-1.103635	-0.291869
O272	O	1.429375	-0.770301	0.041464
O273	O	1.762708	-0.436968	0.374798
H274	H	1.088205	-1.146172	-0.299093
H275	H	1.421539	-0.812839	0.034241
H276	H	1.754872	-0.479505	0.367574
H277	H	1.130325	-0.845310	-0.260273
H278	H	1.463659	-0.511977	0.073061
H279	H	1.796992	-0.178644	0.406394
H280	H	1.130274	-0.746261	-0.260252
H281	H	1.463607	-0.412928	0.073081
H282	H	1.796941	-0.079594	0.406414
H283	H	0.913927	-1.095973	-0.458787
H284	H	1.247261	-0.762640	-0.125454
H285	H	1.580594	-0.429307	0.207880
O286	O	1.102962	-0.221369	-1.127740
O287	O	1.436295	0.111964	-0.794406
O288	O	1.769628	0.445298	-0.461073
H289	H	1.092988	-0.228452	-1.184477
H290	H	1.426321	0.104882	-0.851143
H291	H	1.759655	0.438215	-0.517810
O292	O	0.404713	-0.381763	-0.491424
O293	O	0.738046	-0.048430	-0.158091
O294	O	1.071379	0.284904	0.175243
H295	H	0.365622	-0.404737	-0.520944
H296	H	0.698955	-0.071403	-0.187611
H297	H	1.032288	0.261930	0.145722
H298	H	0.913888	-0.996922	-0.458781
H299	H	1.247222	-0.663589	-0.125448
H300	H	1.580555	-0.330255	0.207885
O301	O	0.916443	-0.354183	-1.119725
O302	O	1.249776	-0.020849	-0.786391
O303	O	1.583109	0.312484	-0.453058
H304	H	0.886839	-0.375250	-1.080628
H305	H	1.220173	-0.041917	-0.747295
H306	H	1.553506	0.291417	-0.413961
O307	O	1.069321	-0.245364	-0.862183
O308	O	1.402655	0.087969	-0.528850
O309	O	1.735988	0.421302	-0.195517
H310	H	1.056745	-0.204354	-0.875728
H311	H	1.390079	0.128979	-0.542395
H312	H	1.723412	0.462313	-0.209062
H313	H	0.900174	-0.365793	-0.777828
H314	H	1.233507	-0.032459	-0.444494
H315	H	1.566840	0.300874	-0.111161
O316	O	0.854701	-0.851864	-0.512993
O317	O	1.188035	-0.518530	-0.179660
O318	O	1.521368	-0.185197	0.153673
H319	H	0.822177	-0.823620	-0.542809
H320	H	1.155510	-0.490287	-0.209476
H321	H	1.488843	-0.156953	0.123858
H322	H	0.867017	-0.745622	-0.501639
H323	H	1.200350	-0.412289	-0.168306
H324	H	1.533684	-0.078955	0.165027
H325	H	0.934373	-0.341441	-0.977730
H326	H	1.267706	-0.008108	-0.644396
H327	H	1.601040	0.325225	-0.311063
O328	O	0.479842	-0.240896	-0.310479
O329	O	0.813175	0.092437	0.022855
O330	O	1.146509	0.425770	0.356188
H331	H	0.518929	-0.217915	-0.280963
H332	H	0.852262	0.115418	0.052370
H333	H	1.185595	0.448751	0.385704
O334	O	1.095737	-0.487781	-0.291758
O335	O	1.429071	-0.154448	0.041576
O336	O	1.762404	0.178885	0.374909
H337	H	1.087860	-0.445205	-0.298947
H338	H	1.421193	-0.111872	0.034386
H339	H	1.754527	0.221462	0.367719
O340	O	0.412671	-0.236928	-0.305362
O341	O	0.746004	0.096405	0.027971
O342	O	1.079338	0.429738	0.361304
H343	H	0.398134	-0.195808	-0.316873
H344	H	0.731467	0.137526	0.016460
H345	H	1.064800	0.470859	0.349794
O346	O	1.095791	-0.601270	-0.291770
O347	O	1.429124	-0.267937	0.041563
O348	O	1.762458	0.065396	0.374897
H349	H	1.128291	-0.573183	-0.261944
H350	H	1.461624	-0.239850	0.071389
H351	H	1.794957	0.093484	0.404723
O352	O	0.928028	-0.345952	-0.900374
O353	O	1.261362	-0.012619	-0.567041
O354	O	1.594695	0.320715	-0.233708
H355	H	0.957960	-0.374602	-0.935063
H356	H	1.291293	-0.041269	-0.601730
H357	H	1.624626	0.292064	-0.268397
H358	H	1.068644	-0.245869	-0.652007
H359	H	1.401978	0.087465	-0.318673
H360	H	1.735311	0.420798	0.014660
O361	O	0.252529	-0.376729	-0.484961
O362	O	0.585862	-0.043395	-0.151628
O363	O	0.919195	0.289938	0.181705
H364	H	0.195788	-0.368984	-0.475025
H365	H	0.529122	-0.035651	-0.141692
H366	H	0.862455	0.297683	0.191642
H367	H	0.269669	-0.241408	-0.311157
H368	H	0.603003	0.091926	0.022177
H369	H	0.936336	0.425259	0.355510
O370	O	0.593212	-0.209754	-0.270450
O371	O	0.926545	0.123580	0.062883
O372	O	1.259878	0.456913	0.396217
H373	H	0.558533	-0.183038	-0.300464
H374	H	0.891866	0.150295	0.032869
H375	H	1.225199	0.483629	0.366202
O376	O	0.745409	-0.214787	-0.276924
O377	O	1.078742	0.118546	0.056409
O378	O	1.412075	0.451879	0.389742
H379	H	0.708988	-0.189314	-0.244194
H380	H	1.042321	0.144019	0.089140
H381	H	1.375654	0.477352	0.422473
H382	H	0.913645	-0.494558	-0.458687
H383	H	1.246979	-0.161225	-0.125354
H384	H	1.580312	0.172109	0.207979
H385	H	0.508906	-0.341078	-0.439168
H386	H	0.842240	-0.007745	-0.105835
H387	H	1.175573	0.325589	0.227499
H388	H	1.062987	-0.249882	-0.784827
H389	H	1.396320	0.083452	-0.451494
H390	H	1.729653	0.416785	-0.118160
O391	O	0.894372	-0.369922	-0.634800
O392	O	1.227706	-0.036589	-0.301467
O393	O	1.561039	0.296744	0.031867
H394	H	0.861566	-0.393278	-0.671213
H395	H	1.194899	-0.059945	-0.337879
H396	H	1.528232	0.273389	-0.004546
