data_functionalizedCrystal
_audit_creation_method	'MofGen! by Chris Wilmer'
_symmetry_space_group_name_H-M	'P1'
_symmetry_Int_Tables_number	1
_symmetry_cell_setting	triclinic
loop_
_symmetry_equiv_pos_as_xyz
  x,y,z
_cell_length_a	14.044191
_cell_length_b	10.489711
_cell_length_c	13.101039
_cell_angle_alpha	93.399879
_cell_angle_beta	86.337551
_cell_angle_gamma	88.859393
loop_
_atom_site_label
_atom_site_type_symbol
_atom_site_fract_x
_atom_site_fract_y
_atom_site_fract_z
O1	O	1.264952	0.301342	-0.085149
O2	O	0.988908	0.290226	-0.085163
O3	O	1.133226	0.110822	-0.085158
O4	O	1.120634	0.480745	-0.085153
O5	O	1.122872	0.123717	0.085271
O6	O	0.978554	0.303121	0.085267
O7	O	1.254597	0.314237	0.085280
Zn8	Zn	1.114932	0.310727	0.112333
Zn9	Zn	1.128574	0.293736	-0.112215
O10	O	1.110279	0.493641	0.085276
C11	C	0.948384	0.291811	0.000050
C12	C	0.843060	0.277308	0.000045
C13	C	0.593288	0.353654	0.000056
C14	C	0.650224	0.250814	0.000053
C15	C	0.757528	0.265558	0.000048
C16	C	0.485974	0.338912	0.000061
C17	C	1.127104	0.069641	0.000054
C18	C	1.124277	-0.072277	0.000045
C19	C	1.211065	-0.245857	0.000059
C20	C	1.162608	-0.151754	0.084087
C21	C	1.172793	-0.164494	-0.083943
C22	C	1.070729	-0.231021	0.084161
C23	C	1.080932	-0.243775	-0.083944
C24	C	1.032407	-0.149704	0.000104
C25	C	1.295122	0.312651	0.000065
C26	C	1.400446	0.327155	0.000064
C27	C	1.116402	0.534821	0.000062
C28	C	1.119229	0.676740	0.000064
N29	N	1.105628	0.322322	0.265581
N30	N	1.137885	0.282132	-0.265463
C31	C	1.092970	0.338109	0.474624
C32	C	1.150540	0.266348	0.525501
C33	C	1.143497	0.275133	0.641819
C34	C	1.100012	0.329326	0.358295
H35	H	1.286542	-0.287882	0.000146
H36	H	1.038397	0.406140	0.518419
H37	H	0.625131	0.452765	0.000054
H38	H	0.956855	-0.107901	0.000147
C39	C	1.209268	-0.097290	0.180059
C40	C	1.312823	-0.135970	0.198525
C41	C	1.359490	-0.081512	0.294493
C42	C	1.302602	0.011626	0.371994
C43	C	1.199040	0.050311	0.353530
C44	C	1.152373	-0.004147	0.257563
H45	H	1.354941	-0.204920	0.141152
H46	H	1.436153	-0.110149	0.308161
H47	H	1.337147	0.051939	0.443035
H48	H	1.156923	0.119261	0.410903
H49	H	1.075710	0.024490	0.243895
C50	C	1.034311	-0.298282	-0.179920
C51	C	0.931363	-0.257824	-0.199420
C52	C	0.884751	-0.312336	-0.295405
C53	C	0.941086	-0.407305	-0.371889
C54	C	1.044040	-0.447768	-0.352391
C55	C	1.090652	-0.393256	-0.256406
H56	H	0.889654	-0.187517	-0.142800
H57	H	0.808537	-0.282382	-0.309838
H58	H	0.906581	-0.447658	-0.442942
H59	H	1.085748	-0.518075	-0.409011
H60	H	1.166866	-0.423210	-0.241972
H61	H	1.027582	-0.260388	0.155280
H62	H	1.215983	-0.134965	-0.154981
H63	H	0.618384	0.151689	-0.000021
H64	H	1.205118	0.198315	0.481700
