data_functionalizedCrystal
_audit_creation_method	'MofGen! by Chris Wilmer'
_symmetry_space_group_name_H-M	'P1'
_symmetry_Int_Tables_number	1
_symmetry_cell_setting	triclinic
loop_
_symmetry_equiv_pos_as_xyz
  x,y,z
_cell_length_a	19.288864
_cell_length_b	9.016244
_cell_length_c	19.288865
_cell_angle_alpha	89.988012
_cell_angle_beta	96.863755
_cell_angle_gamma	90.016237
loop_
_atom_site_label
_atom_site_type_symbol
_atom_site_fract_x
_atom_site_fract_y
_atom_site_fract_z
O1	O	0.921346	0.123833	-0.086650
O2	O	0.719085	0.123734	-0.098339
O3	O	0.826060	0.123757	0.008636
O4	O	0.814371	0.123810	-0.193625
O5	O	0.826056	-0.122924	0.008644
O6	O	0.719081	-0.122947	-0.098331
O7	O	0.921341	-0.122848	-0.086642
Cu8	Cu	0.820211	-0.145421	-0.092486
Cu9	Cu	0.820216	0.146307	-0.092495
O10	O	0.814367	-0.122871	-0.193617
C11	C	0.693207	0.000380	-0.097959
C12	C	0.616103	0.000341	-0.096830
N13	N	0.820212	-0.350608	-0.092479
C14	C	0.571407	0.000381	-0.159598
C15	C	0.498960	0.000397	-0.158537
C16	C	0.471212	0.000403	-0.094705
C17	C	0.515918	0.000355	-0.031929
C18	C	0.588364	0.000324	-0.032991
C19	C	0.362952	0.086863	-0.044528
C20	C	0.290507	0.086903	-0.043469
C21	C	0.247767	0.000492	-0.091425
C22	C	0.277478	-0.085940	-0.140453
C23	C	0.349923	-0.085971	-0.141516
C24	C	0.392658	0.000436	-0.093546
C25	C	0.124514	0.000547	-0.153047
C26	C	0.052066	0.000554	-0.151984
C27	C	0.069026	0.000527	-0.025374
C28	C	0.141473	0.000505	-0.026439
C29	C	0.169212	0.000522	-0.090278
C30	C	0.877645	-0.585582	-0.035447
C31	C	0.877495	-0.413691	-0.035234
C32	C	0.747795	-0.413074	-0.076876
C33	C	0.748137	-0.585019	-0.076477
C34	C	0.834558	-0.585083	-0.165318
C35	C	0.836202	-0.413126	-0.164821
C36	C	0.947220	0.000509	-0.087022
C37	C	1.024324	0.000558	-0.088151
C38	C	0.825682	0.000412	0.034516
C39	C	0.824553	0.000398	0.111620
N40	N	0.820220	0.351493	-0.092497
C41	C	0.814745	0.000477	-0.219497
C42	C	0.815874	0.000501	-0.296601
C43	C	0.887321	0.000422	0.156316
C44	C	0.886260	0.000445	0.228763
C45	C	0.822428	0.000414	0.256511
C46	C	0.759652	0.000399	0.211805
C47	C	0.760714	0.000391	0.139359
C48	C	0.772247	-0.086017	0.364801
C49	C	0.771187	-0.086018	0.437245
C50	C	0.819148	0.000446	0.479956
C51	C	0.868181	0.086892	0.450216
C52	C	0.869243	0.086884	0.377770
C53	C	0.821269	0.000424	0.335065
C54	C	0.880770	0.000496	0.603209
C55	C	0.879707	0.000528	0.675657
C56	C	0.753097	0.000468	0.658697
C57	C	0.754162	0.000451	0.586250
C58	C	0.818000	0.000458	0.558511
H59	H	0.593987	0.000398	-0.211580
Br60	Br	0.649027	0.000267	0.052201
H61	H	0.266322	0.157287	-0.003550
H62	H	0.374111	-0.156352	-0.181434
Br63	Br	0.964900	0.000576	0.736319
H64	H	0.734805	-0.370047	-0.024379
Br65	Br	0.674866	-0.344983	-0.144299
Br66	Br	0.933277	0.204244	0.508171
Br67	Br	0.770977	-0.341551	-0.238866
H68	H	0.046435	0.000624	0.026600
H69	H	0.886224	-0.628406	-0.180372
H70	H	0.015674	0.000578	-0.203099
H71	H	0.931666	-0.626891	-0.044553
H72	H	0.177866	0.000481	0.024674
H73	H	0.731258	-0.156399	0.461454
H74	H	0.889474	-0.372296	-0.176665
Br75	Br	0.219481	-0.203216	-0.205544
Br76	Br	0.420950	0.204142	0.020563
Br77	Br	0.967406	0.000491	0.565558
Br78	Br	0.764757	-0.652915	-0.236075
Br79	Br	0.478263	0.000348	0.054702
H80	H	0.868357	-0.372592	0.018814
H81	H	0.462561	0.000425	-0.209652
Br82	Br	0.162165	0.000560	-0.239683
H83	H	0.931333	-0.371453	-0.044491
H84	H	0.909166	0.157274	0.353558
Br85	Br	0.673021	0.000377	0.249460
Br86	Br	0.973958	0.000473	0.118673
Br87	Br	0.707150	-0.203373	0.306843
H88	H	0.937375	0.000470	0.265162
Br89	Br	0.862644	-0.657650	0.054126
H90	H	0.701123	0.000451	0.681288
H91	H	0.735466	-0.625161	-0.023376
Br92	Br	0.674796	-0.654414	-0.143116
Br93	Br	0.668972	0.000417	0.525587
H94	H	0.709599	0.000371	0.102967
