data_functionalizedCrystal
_audit_creation_method	'MofGen! by Chris Wilmer'
_symmetry_space_group_name_H-M	'P1'
_symmetry_Int_Tables_number	1
_symmetry_cell_setting	triclinic
loop_
_symmetry_equiv_pos_as_xyz
  x,y,z
_cell_length_a	10.489741
_cell_length_b	10.654550
_cell_length_c	9.565339
_cell_angle_alpha	90.005966
_cell_angle_beta	89.999424
_cell_angle_gamma	84.512052
loop_
_atom_site_label
_atom_site_type_symbol
_atom_site_fract_x
_atom_site_fract_y
_atom_site_fract_z
O1	O	-0.179156	-1.667913	0.116155
O2	O	-0.196226	-1.302442	0.116180
O3	O	-0.002089	-1.493493	0.116159
O4	O	-0.373293	-1.476861	0.116176
O5	O	-0.002095	-1.493502	-0.116361
O6	O	-0.196231	-1.302450	-0.116340
O7	O	-0.179162	-1.667921	-0.116365
Zn8	Zn	-0.187698	-1.485187	-0.153270
Zn9	Zn	-0.187690	-1.485176	0.153085
O10	O	-0.373299	-1.476870	-0.116344
C11	C	0.045439	-1.492241	-0.000100
C12	C	0.187067	-1.488483	-0.000098
C13	C	-0.194975	-1.255648	-0.000076
C14	C	-0.191226	-1.116203	-0.000067
C15	C	-0.420827	-1.478122	-0.000081
C16	C	-0.562454	-1.481880	-0.000075
C17	C	0.255148	-1.366923	-0.000079
C18	C	0.347295	-1.424351	-0.114727
C19	C	0.347276	-1.424371	0.114519
C20	C	0.277349	-1.545961	-0.114841
C21	C	0.277319	-1.545965	0.114509
C22	C	0.369439	-1.603481	-0.000168
C23	C	-0.180413	-1.714715	-0.000105
C24	C	-0.184162	-1.854160	-0.000106
N25	N	-0.187702	-1.485204	-0.362349
C26	C	-0.305530	-1.036771	-0.000065
C27	C	-0.301999	-0.905748	-0.000090
C28	C	-0.069849	-0.933603	-0.000112
C29	C	-0.073381	-1.064623	-0.000097
C30	C	-0.097927	-1.573587	-0.453525
C31	C	-0.072147	-1.459873	-0.546689
C32	C	-0.213399	-1.598873	-0.546741
C33	C	-0.161865	-1.371432	-0.453461
C34	C	-0.303168	-1.510507	-0.453506
C35	C	-0.277436	-1.396711	-0.546627
N36	N	-0.187676	-1.485169	0.362165
H37	H	0.378280	-1.372919	-0.211647
H38	H	0.025511	-1.438447	-0.587621
H39	H	0.019705	-1.129300	-0.000102
H40	H	-0.021966	-1.648258	-0.412645
H41	H	-0.401486	-1.078762	-0.000051
O42	O	0.044696	-0.883640	0.000061
C43	C	0.114435	-0.924085	0.120503
H44	H	0.078868	-1.015250	0.160658
H45	H	0.220500	-0.941310	0.093415
H46	H	0.100331	-0.848403	0.204824
O47	O	0.195905	-1.247670	-0.000447
C48	C	0.231384	-1.184044	-0.121531
H49	H	0.264144	-1.255843	-0.205601
H50	H	0.145716	-1.120218	-0.161537
H51	H	0.312979	-1.124620	-0.095367
O52	O	-0.368154	-1.307506	-0.594933
C53	C	-0.489492	-1.333393	-0.545384
H54	H	-0.477337	-1.393394	-0.446752
H55	H	-0.549203	-1.241046	-0.520397
H56	H	-0.540054	-1.386670	-0.628932
O57	O	-0.135760	-1.256791	-0.404564
C58	C	-0.136079	-1.258198	-0.257173
H59	H	-0.116912	-1.359481	-0.218615
H60	H	-0.058220	-1.200036	-0.216441
H61	H	-0.233360	-1.216213	-0.217278
O62	O	0.240467	-1.607393	-0.230462
C63	C	0.178740	-1.713400	-0.189564
H64	H	0.139762	-1.698641	-0.078925
H65	H	0.096387	-1.726254	-0.264367
H66	H	0.250156	-1.801023	-0.192328
O67	O	0.428415	-1.722841	-0.000493
C68	C	0.392728	-1.786454	-0.121513
H69	H	0.360094	-1.714653	-0.205611
H70	H	0.478249	-1.850487	-0.161529
H71	H	0.310987	-1.845662	-0.095261
H72	H	0.246302	-1.597353	0.211434
H73	H	-0.235145	-1.695016	-0.587715
O74	O	0.384035	-1.362822	0.230114
C75	C	0.325310	-1.238132	0.229663
H76	H	0.235157	-1.232925	0.162543
H77	H	0.298682	-1.208265	0.341159
H78	H	0.394601	-1.172378	0.184925
O79	O	-0.413070	-0.828642	0.000165
C80	C	-0.484548	-0.852186	0.120587
H81	H	-0.417593	-0.896331	0.204753
H82	H	-0.534876	-0.759698	0.161002
H83	H	-0.558972	-0.919563	0.093382
O84	O	-0.419585	-1.536328	-0.404689
C85	C	-0.446333	-1.656321	-0.452163
H86	H	-0.352812	-1.715082	-0.478347
H87	H	-0.498891	-1.705512	-0.366871
H88	H	-0.508924	-1.645399	-0.549656
