data_functionalizedCrystal
_audit_creation_method	'MofGen! by Chris Wilmer'
_symmetry_space_group_name_H-M	'P1'
_symmetry_Int_Tables_number	1
_symmetry_cell_setting	triclinic
loop_
_symmetry_equiv_pos_as_xyz
  x,y,z
_cell_length_a	19.805407
_cell_length_b	19.077068
_cell_length_c	19.076929
_cell_angle_alpha	85.532199
_cell_angle_beta	87.717783
_cell_angle_gamma	92.327086
loop_
_atom_site_label
_atom_site_type_symbol
_atom_site_fract_x
_atom_site_fract_y
_atom_site_fract_z
Zn1	Zn	1.007405	-0.296663	0.409867
Zn2	Zn	1.007325	-0.409822	0.296712
Zn3	Zn	0.898964	-0.291953	0.291995
Zn4	Zn	0.889447	-0.414513	0.414553
O5	O	0.950785	-0.353238	0.353281
O6	O	1.102110	-0.311682	0.394869
O7	O	0.996901	-0.390252	0.197439
O8	O	0.917365	-0.193929	0.303696
O9	O	1.102052	-0.394819	0.311735
O10	O	0.997037	-0.197389	0.390296
O11	O	0.917288	-0.303654	0.193974
O12	O	0.802986	-0.308203	0.308240
O13	O	0.901144	-0.402814	0.512578
O14	O	0.795993	-0.398247	0.398282
O15	O	0.987808	-0.316230	0.509135
O16	O	0.987672	-0.509093	0.316278
O17	O	0.901067	-0.512540	0.402856
C18	C	0.774931	-0.353223	0.353258
C19	C	0.699698	-0.353235	0.353266
C20	C	0.943346	-0.536396	0.360603
C21	C	0.940224	-0.614752	0.363759
C22	C	0.660731	-0.400186	0.400080
C23	C	0.590042	-0.400187	0.400090
C24	C	0.558321	-0.353241	0.353282
C25	C	0.597294	-0.306285	0.306464
C26	C	0.667981	-0.306281	0.306458
C27	C	0.312219	-0.306302	0.306488
C28	C	0.241526	-0.306311	0.306497
C29	C	0.234279	-0.400208	0.400120
C30	C	0.304967	-0.400204	0.400114
C31	C	0.343933	-0.353246	0.353300
C32	C	0.420582	-0.353244	0.353291
C33	C	0.481674	-0.353246	0.353287
C34	C	0.983880	-0.649748	0.320202
C35	C	0.980948	-0.723373	0.323175
C36	C	0.934356	-0.762000	0.369700
C37	C	0.890698	-0.726999	0.413261
C38	C	0.893634	-0.653376	0.410292
C39	C	0.920740	-0.982385	0.383413
C40	C	0.917806	-1.056014	0.386378
C41	C	1.008057	-1.052382	0.296292
C42	C	1.010986	-0.978758	0.293324
C43	C	0.967330	-0.943763	0.336887
N44	N	0.931356	-0.837257	0.372738
N45	N	0.970334	-0.868508	0.333853
C46	C	1.127326	-0.353253	0.353305
C47	C	1.202558	-0.353259	0.353315
C48	C	0.943423	-0.360571	0.537149
C49	C	0.940286	-0.363696	0.615503
C50	C	0.958271	-0.169365	0.345947
C51	C	0.961462	-0.091010	0.342821
C52	C	0.958159	-0.345882	0.170127
C53	C	0.961436	-0.342559	0.091766
C54	C	0.917788	-0.386164	1.056745
C55	C	0.920733	-0.383218	0.983123
C56	C	0.967330	-0.336669	0.944523
C57	C	1.010980	-0.293059	0.979549
C58	C	1.008031	-0.296002	1.053169
C59	C	0.980987	-0.323029	0.724149
C60	C	0.983934	-0.320090	0.650524
C61	C	0.893686	-0.410249	0.654103
C62	C	0.890744	-0.413191	0.727725
C63	C	0.934391	-0.369578	0.762744
N64	N	0.970344	-0.333658	0.869270
N65	N	0.931374	-0.372587	0.837996
H66	H	0.686552	-0.438417	0.438196
H67	H	1.043571	-0.260492	1.081682
C68	C	0.840234	-0.463723	0.769758
C69	C	0.847014	-0.456988	0.841728
C70	C	0.800511	-0.503544	0.880471
H71	H	0.795622	-0.452983	0.757373
H72	H	0.848714	-0.510618	0.759611
H73	H	0.838530	-0.410104	0.851870
H74	H	0.891616	-0.467735	0.854134
H75	H	0.808990	-0.550439	0.870324
H76	H	0.755901	-0.492799	0.868080
H77	H	0.805108	-0.498985	0.929307
C78	C	0.710324	-0.255224	0.255741
C79	C	0.751131	-0.211681	0.293922
C80	C	0.790137	-0.164629	0.247226
H81	H	0.738092	-0.280830	0.226038
H82	H	0.681331	-0.227225	0.227874
H83	H	0.780121	-0.239675	0.321777
H84	H	0.723380	-0.186058	0.323623
H85	H	0.761144	-0.136631	0.219359
H86	H	0.817901	-0.190241	0.217525
H87	H	0.817824	-0.135075	0.273125
H88	H	0.343937	-0.268071	0.268364
H89	H	1.016531	-0.287520	0.752653
C90	C	1.061611	-0.936732	0.242923
C91	C	1.105036	-0.895989	0.281173
C92	C	1.151672	-0.857257	0.234765
H93	H	1.087263	-0.968035	0.217386
H94	H	1.038134	-0.906782	0.211038
H95	H	1.128512	-0.925937	0.313046
H96	H	1.079404	-0.864673	0.306708
H97	H	1.128195	-0.827307	0.202880
H98	H	1.177319	-0.888565	0.209231
H99	H	1.181138	-0.829604	0.260711
C100	C	0.547852	-0.451251	0.450939
C101	C	0.590761	-0.492382	0.491911
C102	C	0.551921	-0.539441	0.538754
H103	H	0.520133	-0.425651	0.480696
H104	H	0.520124	-0.480883	0.425160
H105	H	0.618478	-0.462755	0.517689
H106	H	0.618481	-0.517997	0.462174
H107	H	0.524193	-0.569072	0.512974
H108	H	0.524203	-0.513835	0.568506
H109	H	0.581029	-0.567358	0.566554
C110	C	1.055571	-1.090286	0.249039
C111	C	1.122625	-1.072909	0.263722
C112	C	1.166418	-1.107803	0.220201
H113	H	1.047248	-1.139675	0.257423
H114	H	1.048123	-1.076343	0.201167
H115	H	1.130070	-1.086856	0.311583
H116	H	1.130969	-1.023526	0.255335
H117	H	1.158970	-1.093860	0.172329
H118	H	1.158089	-1.157190	0.228588
H119	H	1.211919	-1.096012	0.230153
C120	C	0.840193	-0.768904	0.463892
C121	C	0.852812	-0.753750	0.532932
C122	C	0.806305	-0.792345	0.579592
H123	H	0.795589	-0.756502	0.453143
H124	H	0.844699	-0.817772	0.459469
H125	H	0.848300	-0.704893	0.537352
H126	H	0.897408	-0.766155	0.543703
H127	H	0.810811	-0.841213	0.575169
H128	H	0.761703	-0.779940	0.568836
H129	H	0.814864	-0.782074	0.626441
C130	C	0.339279	-0.451204	0.451015
C131	C	0.290023	-0.492310	0.492031
C132	C	0.321605	-0.539291	0.538937
H133	H	0.366684	-0.480864	0.425305
H134	H	0.366704	-0.425524	0.480733
H135	H	0.262609	-0.517988	0.462317
H136	H	0.262616	-0.462669	0.517756
H137	H	0.349030	-0.513611	0.568655
H138	H	0.349008	-0.568946	0.513221
H139	H	0.288189	-0.567182	0.566776
H140	H	0.858085	-0.624883	0.445761
C141	C	1.034550	-0.269474	0.608737
C142	C	1.072131	-0.231895	0.655161
C143	C	1.118755	-0.185259	0.616693
H144	H	1.064156	-0.295218	0.581091
H145	H	1.011073	-0.237574	0.578803
H146	H	1.095606	-0.263791	0.685083
H147	H	1.042542	-0.206137	0.682808
H148	H	1.095279	-0.153358	0.586759
H149	H	1.148357	-0.211008	0.589049
H150	H	1.144255	-0.159751	0.648185
C151	C	1.034536	-0.607940	0.269664
C152	C	1.072152	-0.654350	0.232169
C153	C	1.118830	-0.615864	0.185614
H154	H	1.011121	-0.578024	0.237704
H155	H	1.064109	-0.580273	0.295483
H156	H	1.042583	-0.682005	0.206352
H157	H	1.095582	-0.684266	0.264111
H158	H	1.148403	-0.588197	0.211433
H159	H	1.095409	-0.585950	0.153659
H160	H	1.144362	-0.647348	0.160173
H161	H	1.048918	-0.255155	0.948115
C162	C	0.846411	-0.457629	0.615988
C163	C	0.884589	-0.501114	0.575512
C164	C	0.841061	-0.544763	0.540382
H165	H	0.818220	-0.485839	0.649438
H166	H	0.819183	-0.429526	0.586150
H167	H	0.911805	-0.529214	0.605348
H168	H	0.912778	-0.472923	0.542050
H169	H	0.813833	-0.516660	0.510544
H170	H	0.812872	-0.572968	0.573838
H171	H	0.866958	-0.574268	0.512911
H172	H	0.571462	-0.268058	0.268355
C173	C	0.867241	-1.098078	0.436823
C174	C	0.874001	-1.170043	0.430080
C175	C	0.827427	-1.208813	0.476526
H176	H	0.875648	-1.087964	0.483743
H177	H	0.822650	-1.085681	0.425974
H178	H	0.918582	-1.182435	0.440934
H179	H	0.865588	-1.180178	0.383170
H180	H	0.782836	-1.196417	0.465677
H181	H	0.835839	-1.198694	0.523443
H182	H	0.832003	-1.257645	0.471953
H183	H	0.885192	-0.953899	0.418883
H184	H	0.202545	-0.438441	0.438241
H185	H	0.215702	-0.268077	0.268379
H186	H	0.879846	-0.424072	1.088168
H187	H	1.016497	-0.751863	0.287706
H188	H	0.885198	-0.418733	0.954613
