data_functionalizedCrystal
_audit_creation_method	'MofGen! by Chris Wilmer'
_symmetry_space_group_name_H-M	'P1'
_symmetry_Int_Tables_number	1
_symmetry_cell_setting	triclinic
loop_
_symmetry_equiv_pos_as_xyz
  x,y,z
_cell_length_a	16.793024
_cell_length_b	16.793047
_cell_length_c	33.586455
_cell_angle_alpha	113.253857
_cell_angle_beta	66.219990
_cell_angle_gamma	112.758327
loop_
_atom_site_label
_atom_site_type_symbol
_atom_site_fract_x
_atom_site_fract_y
_atom_site_fract_z
O1	O	0.005016	-0.570216	-0.583573
O2	O	-0.034529	-0.474528	-0.453458
O3	O	0.114723	-0.474535	-0.528082
O4	O	-0.144235	-0.570209	-0.508949
O5	O	0.108729	-0.346329	-0.530229
O6	O	-0.040523	-0.346322	-0.455605
O7	O	-0.000977	-0.442010	-0.585721
Cu8	Cu	-0.021297	-0.382459	-0.520859
Cu9	Cu	-0.014209	-0.534079	-0.518320
O10	O	-0.150229	-0.442003	-0.511097
C11	C	0.005100	-0.790970	-0.238461
C12	C	-0.040584	-0.395375	-0.435637
C13	C	-0.044693	-0.353446	-0.386631
C14	C	-0.039275	-0.401741	-0.363054
C15	C	-0.040566	-0.125547	-0.300731
C16	C	-0.044689	-0.223451	-0.321635
C17	C	-0.039266	-0.270752	-0.297563
C18	C	0.005118	-0.521142	-0.103554
C19	C	-0.046224	-0.263935	-0.366370
C20	C	-0.036476	-0.360146	-0.318399
C21	C	-0.030850	-0.408530	-0.294565
C22	C	-0.028014	-0.367522	-0.249895
C23	C	-0.030804	-0.278128	-0.229058
C24	C	-0.036430	-0.229743	-0.252892
C25	C	-0.027971	-0.237122	-0.184383
C26	C	-0.022345	-0.285507	-0.160550
C27	C	-0.019555	-0.374900	-0.181386
C28	C	-0.022391	-0.415909	-0.226057
C29	C	-0.019601	-0.505302	-0.246894
C30	C	-0.013975	-0.553687	-0.223060
C31	C	-0.011142	-0.512684	-0.178391
C32	C	-0.013932	-0.423291	-0.157554
C33	C	-0.005516	-0.561069	-0.154557
C34	C	-0.002726	-0.650463	-0.175394
C35	C	-0.005562	-0.691471	-0.220064
C36	C	-0.011185	-0.643081	-0.243897
C37	C	-0.022434	-0.546309	-0.291568
C38	C	-0.019644	-0.635702	-0.312405
C39	C	-0.014021	-0.684089	-0.288567
C40	C	-0.022480	-0.676711	-0.357076
C41	C	-0.028106	-0.628326	-0.380910
C42	C	-0.030896	-0.538933	-0.360073
C43	C	-0.028060	-0.497924	-0.315402
C44	C	-0.036522	-0.490548	-0.383907
C45	C	0.815184	-0.521162	-0.508596
C46	C	0.415541	-0.125553	-0.528781
C47	C	0.375032	-0.223457	-0.531493
C48	C	0.423813	-0.270761	-0.529101
C49	C	0.149318	-0.395376	-0.530584
C50	C	0.246774	-0.353455	-0.532364
C51	C	0.294574	-0.401748	-0.529976
C52	C	0.548961	-0.790984	-0.510398
C53	C	0.286104	-0.263940	-0.532530
C54	C	0.383336	-0.360149	-0.528302
C55	C	0.432207	-0.407971	-0.525810
C56	C	0.392316	-0.497392	-0.524993
C57	C	0.303554	-0.538991	-0.526667
C58	C	0.254683	-0.491169	-0.529159
C59	C	0.263666	-0.628421	-0.525851
C60	C	0.312537	-0.676243	-0.523359
C61	C	0.401299	-0.634644	-0.521685
C62	C	0.441190	-0.545223	-0.522502
C63	C	0.529952	-0.503624	-0.520828
C64	C	0.578823	-0.551446	-0.518336
C65	C	0.538939	-0.640864	-0.517520
C66	C	0.450177	-0.682463	-0.519194
C67	C	0.587810	-0.688687	-0.515028
C68	C	0.676572	-0.647088	-0.513354
C69	C	0.716463	-0.557666	-0.514172
C70	C	0.667586	-0.509847	-0.516662
C71	C	0.569840	-0.414195	-0.521644
C72	C	0.658602	-0.372596	-0.519970
C73	C	0.707476	-0.420426	-0.517480
C74	C	0.698493	-0.283174	-0.520788
C75	C	0.649622	-0.235352	-0.523280
C76	C	0.560860	-0.276951	-0.524954
C77	C	0.520969	-0.366372	-0.524136
C78	C	0.511989	-0.229129	-0.527446
C79	C	-0.040530	-0.395407	-0.935652
C80	C	0.005063	-0.791004	-0.738448
C81	C	0.009186	-0.693099	-0.717543
C82	C	0.003779	-0.645796	-0.741620
C83	C	0.005077	-0.521171	-0.603544
C84	C	0.009198	-0.563096	-0.652550
C85	C	0.003786	-0.514804	-0.676131
C86	C	-0.040516	-0.125574	-0.800747
C87	C	0.010719	-0.652613	-0.672809
C88	C	0.000994	-0.556406	-0.720789
C89	C	-0.004621	-0.508585	-0.744908
C90	C	-0.007444	-0.419162	-0.724369
C91	C	-0.004651	-0.377560	-0.679711
C92	C	0.000964	-0.425381	-0.655592
C93	C	-0.007471	-0.288129	-0.659174
C94	C	-0.013086	-0.240308	-0.683293
C95	C	-0.015878	-0.281910	-0.727951
C96	C	-0.013056	-0.371333	-0.748490
C97	C	-0.015848	-0.412935	-0.793148
C98	C	-0.021463	-0.365114	-0.817267
C99	C	-0.024282	-0.275694	-0.796731
C100	C	-0.021490	-0.234092	-0.752073
C101	C	-0.029897	-0.227873	-0.820850
C102	C	-0.032690	-0.269476	-0.865508
C103	C	-0.029867	-0.358899	-0.886047
C104	C	-0.024255	-0.406717	-0.861925
C105	C	-0.013028	-0.502367	-0.813685
C106	C	-0.015821	-0.543969	-0.858343
C107	C	-0.021433	-0.496140	-0.882464
C108	C	-0.012998	-0.633392	-0.878882
C109	C	-0.007383	-0.681213	-0.854763
C110	C	-0.004591	-0.639611	-0.810105
C111	C	-0.007414	-0.550188	-0.789566
C112	C	0.001024	-0.687432	-0.785986
O113	O	-0.000965	0.173549	-0.277957
O114	O	-0.040516	-0.085616	-0.325254
O115	O	0.108737	0.059592	-0.327284
O116	O	-0.150219	0.028341	-0.275927
O117	O	0.114753	0.055151	-0.263265
O118	O	-0.034500	-0.090057	-0.261234
O119	O	0.005051	0.169108	-0.213937
Cu120	Cu	-0.014175	0.039120	-0.231740
Cu121	Cu	-0.021290	0.044372	-0.307451
O122	O	-0.144202	0.023900	-0.211907
O123	O	-0.034458	-0.474571	0.046517
O124	O	0.005076	-0.570190	-0.083599
O125	O	-0.144170	-0.570237	-0.008972
O126	O	0.114787	-0.474523	-0.028110
O127	O	-0.150200	-0.442024	-0.011093
O128	O	-0.000954	-0.441976	-0.085720
O129	O	-0.040488	-0.346357	0.044396
Cu130	Cu	-0.021272	-0.382460	-0.020856
Cu131	Cu	-0.014141	-0.534087	-0.018347
O132	O	0.108757	-0.346309	-0.030231
C133	C	-0.850734	0.086244	-0.289716
C134	C	-0.450996	0.035117	-0.097351
C135	C	-0.410501	0.028587	-0.146852
C136	C	-0.459292	0.034683	-0.169840
C137	C	-0.184802	0.024283	-0.235878
C138	C	-0.282257	0.023363	-0.213592
C139	C	-0.330068	0.029423	-0.237088
C140	C	-0.584541	0.075410	-0.428242
C141	C	-0.321573	0.024104	-0.168302
C142	C	-0.418828	0.035176	-0.215083
C143	C	-0.467711	0.041476	-0.238329
C144	C	-0.427833	0.042022	-0.283580
C145	C	-0.339073	0.036269	-0.305586
C146	C	-0.290190	0.029970	-0.282340
C147	C	-0.299198	0.036812	-0.350842
C148	C	-0.348081	0.043111	-0.374088
C149	C	-0.436841	0.048864	-0.352082
C150	C	-0.476719	0.048318	-0.306830
C151	C	-0.565480	0.054071	-0.284825
C152	C	-0.614362	0.060370	-0.308071
C153	C	-0.574491	0.060913	-0.353321
C154	C	-0.485730	0.055160	-0.375326
C155	C	-0.623374	0.067212	-0.376567
C156	C	-0.712134	0.072965	-0.354561
C157	C	-0.752012	0.072419	-0.309309
C158	C	-0.703123	0.066123	-0.286065
C159	C	-0.605355	0.053528	-0.239569
C160	C	-0.694115	0.059281	-0.217564
C161	C	-0.743001	0.065577	-0.240813
C162	C	-0.733993	0.058735	-0.172312
C163	C	-0.685110	0.052436	-0.149066
C164	C	-0.596350	0.046683	-0.171072
C165	C	-0.556472	0.047229	-0.216323
C166	C	-0.547467	0.040383	-0.147826
O167	O	0.585213	0.169090	-0.504004
O168	O	0.494056	-0.090076	-0.525516
O169	O	0.488081	0.055124	-0.449918
O170	O	0.591189	0.023889	-0.579602
O171	O	0.359978	0.059584	-0.452885
O172	O	0.365953	-0.085616	-0.528483
O173	O	0.457110	0.173550	-0.506971
Cu174	Cu	0.399835	0.044374	-0.517998
Cu175	Cu	0.551332	0.039099	-0.514489
O176	O	0.463086	0.028349	-0.582569
C177	C	0.815354	-0.521094	-0.008709
C178	C	0.415547	-0.125494	-0.028771
C179	C	0.375059	-0.223405	-0.031498
C180	C	0.423859	-0.270708	-0.029121
C181	C	0.149365	-0.395355	-0.030599
C182	C	0.246820	-0.353421	-0.032381
C183	C	0.294640	-0.401713	-0.030008
C184	C	0.549171	-0.790955	-0.010537
C185	C	0.286131	-0.263897	-0.032533
C186	C	0.383402	-0.360104	-0.028335
C187	C	0.432293	-0.407926	-0.025859
C188	C	0.392422	-0.497356	-0.025055
C189	C	0.303660	-0.538965	-0.026727
C190	C	0.254769	-0.491143	-0.029204
C191	C	0.263791	-0.628403	-0.025925
C192	C	0.312683	-0.676224	-0.023448
C193	C	0.401445	-0.634615	-0.021775
C194	C	0.441316	-0.545185	-0.022579
C195	C	0.530078	-0.503576	-0.020906
C196	C	0.578969	-0.551398	-0.018429
C197	C	0.539104	-0.640825	-0.017627
C198	C	0.450342	-0.682434	-0.019300
C199	C	0.587995	-0.688646	-0.015150
C200	C	0.676757	-0.647037	-0.013477
C201	C	0.716628	-0.557607	-0.014281
C202	C	0.667731	-0.509789	-0.016757
C203	C	0.569946	-0.414138	-0.021709
C204	C	0.658708	-0.372530	-0.020036
C205	C	0.707602	-0.420359	-0.017561
C206	C	0.698579	-0.283100	-0.020840
C207	C	0.649688	-0.235278	-0.023317
C208	C	0.560926	-0.276887	-0.024990
C209	C	0.521055	-0.366317	-0.024186
C210	C	0.512035	-0.229066	-0.027467
O211	O	-0.620614	0.089309	0.052274
O212	O	-0.529507	0.043784	-0.078544
O213	O	-0.523494	0.194833	-0.006033
O214	O	-0.626628	-0.061740	-0.020236
O215	O	-0.395386	0.185419	-0.005549
O216	O	-0.401400	0.034370	-0.078059
O217	O	-0.492507	0.079895	0.052758
Cu218	Cu	-0.435256	0.056273	-0.012607
Cu219	Cu	-0.586758	0.067406	-0.013179
O220	O	-0.498521	-0.071154	-0.019752
C221	C	-0.437537	0.048335	0.402491
C222	C	-0.837226	0.099430	0.210091
C223	C	-0.739773	0.100339	0.187806
C224	C	-0.691967	0.094287	0.211308
C225	C	-0.571027	0.088563	0.071568
C226	C	-0.611521	0.095108	0.121070
C227	C	-0.562739	0.089011	0.144061
C228	C	-0.171338	0.037467	0.263967
C229	C	-0.700452	0.099593	0.142516
C230	C	-0.603213	0.088528	0.189308
C231	C	-0.554892	0.082255	0.212848
C232	C	-0.466098	0.076466	0.191141
C233	C	-0.425624	0.076949	0.145894
C234	C	-0.473945	0.083222	0.122354
C235	C	-0.336822	0.071163	0.124188
C236	C	-0.288502	0.064890	0.147728
C237	C	-0.328975	0.064407	0.192975
C238	C	-0.417770	0.070196	0.214682
C239	C	-0.458244	0.069713	0.259929
C240	C	-0.409923	0.063441	0.283469
C241	C	-0.321132	0.057655	0.261765
C242	C	-0.280658	0.058138	0.216518
C243	C	-0.272811	0.051382	0.285305
C244	C	-0.313285	0.050899	0.330552
C245	C	-0.402079	0.056688	0.352259
C246	C	-0.450397	0.062957	0.328716
C247	C	-0.547046	0.075500	0.281635
C248	C	-0.587520	0.075016	0.326882
C249	C	-0.539191	0.068747	0.350423
C250	C	-0.676314	0.080806	0.348589
C251	C	-0.724634	0.087078	0.325049
C252	C	-0.684160	0.087561	0.279802
C253	C	-0.595366	0.081772	0.258095
C254	C	-0.732481	0.093834	0.256262
O255	O	-0.040608	-1.085661	-0.825229
O256	O	-0.001018	-0.826491	-0.777938
O257	O	-0.150287	-0.971682	-0.775894
O258	O	0.108661	-0.940470	-0.827272
O259	O	-0.144253	-0.976123	-0.711878
O260	O	0.005016	-0.830932	-0.713922
O261	O	-0.034575	-1.090102	-0.761213
Cu262	Cu	-0.014228	-0.960923	-0.731722
Cu263	Cu	-0.021364	-0.955670	-0.807428
O264	O	0.114695	-0.944911	-0.763256
C265	C	-0.128053	-0.251717	-0.407156
C266	C	-0.049778	-0.210056	-0.393257
H267	H	-0.130246	-0.218448	-0.423753
H268	H	-0.127254	-0.311252	-0.425869
H269	H	-0.179746	-0.253691	-0.381270
H270	H	0.001915	-0.208088	-0.419144
H271	H	-0.050570	-0.150505	-0.374544
H272	H	-0.709407	0.080425	0.385586
C273	C	0.069461	-0.791450	-0.312480
C274	C	-0.010936	-0.782758	-0.311568
H275	H	0.071362	-0.852364	-0.326677
H276	H	0.119582	-0.754017	-0.329041
H277	H	0.071955	-0.773879	-0.282339
H278	H	-0.013427	-0.800323	-0.341709
H279	H	-0.061071	-0.820205	-0.295008
C280	C	0.748050	-0.645883	0.036056
C281	C	0.722980	-0.697477	-0.003600
H282	H	0.776589	-0.677013	0.042157
H283	H	0.788796	-0.589650	0.032183
H284	H	0.695761	-0.636010	0.060723
H285	H	0.775270	-0.707345	-0.028268
H286	H	0.682232	-0.753727	0.000270
C287	C	0.830350	-0.285471	-0.016945
C288	C	0.805575	-0.374432	-0.015712
H289	H	0.890831	-0.257121	-0.015801
H290	H	0.825909	-0.285225	-0.044205
H291	H	0.791120	-0.253732	0.008341
H292	H	0.844801	-0.406173	-0.041001
H293	H	0.810023	-0.374682	0.011551
H294	H	-0.281187	0.020914	-0.148901
C295	C	-0.491628	-0.017526	-0.452025
C296	C	-0.441710	0.055762	-0.425274
H297	H	-0.464456	-0.017149	-0.482859
H298	H	-0.492548	-0.071951	-0.449159
H299	H	-0.551730	-0.013172	-0.442202
H300	H	-0.381609	0.051404	-0.435095
H301	H	-0.440780	0.110200	-0.428143
H302	H	-0.580066	0.039960	-0.110823
C303	C	-0.185698	-0.056949	-0.306538
C304	C	-0.192226	0.023613	-0.306630
H305	H	-0.125218	-0.060872	-0.321536
H306	H	-0.202512	-0.058170	-0.276138
H307	H	-0.224929	-0.106443	-0.321883
H308	H	-0.153000	0.073108	-0.291282
H309	H	-0.175401	0.024842	-0.337035
C310	C	-0.805724	-0.021826	-0.095582
C311	C	-0.729118	0.051830	-0.099119
H312	H	-0.832889	-0.022203	-0.064747
H313	H	-0.847707	-0.017223	-0.106316
H314	H	-0.788525	-0.076007	-0.113278
H315	H	-0.746319	0.106011	-0.081425
H316	H	-0.687128	0.047235	-0.088378
C317	C	0.132029	-0.626029	-0.029818
C318	C	0.156800	-0.537069	-0.031051
H319	H	0.071544	-0.654377	-0.030953
H320	H	0.171248	-0.657767	-0.055103
H321	H	0.136482	-0.626270	-0.002555
H322	H	0.152354	-0.536827	-0.058315
H323	H	0.117570	-0.505323	-0.005764
C324	C	0.644564	-0.103864	-0.526283
C325	C	0.555983	-0.130402	-0.528304
H326	H	0.671717	-0.042910	-0.526803
H327	H	0.643610	-0.109633	-0.499066
H328	H	0.678444	-0.141045	-0.551613
H329	H	0.522102	-0.093225	-0.502972
H330	H	0.556932	-0.124625	-0.555524
C331	C	-0.833545	0.141932	-0.110676
C332	C	-0.831958	0.065103	-0.148027
H333	H	-0.894020	0.145874	-0.095687
H334	H	-0.810062	0.138072	-0.090272
H335	H	-0.797638	0.193957	-0.120742
H336	H	-0.867860	0.013077	-0.137961
H337	H	-0.855453	0.068956	-0.168435
C338	C	0.695073	-0.128121	-0.064326
C339	C	0.693705	-0.136564	-0.024196
H340	H	0.722248	-0.067178	-0.064864
H341	H	0.728927	-0.165329	-0.089644
H342	H	0.634966	-0.146117	-0.065680
H343	H	0.753812	-0.118574	-0.022842
H344	H	0.659851	-0.099342	0.001129
C345	C	0.047476	-0.087323	-0.148351
C346	C	-0.031052	-0.138459	-0.161385
H347	H	0.045572	-0.026411	-0.134153
H348	H	0.051239	-0.110368	-0.127681
H349	H	0.098872	-0.090500	-0.174381
H350	H	-0.082448	-0.135287	-0.135354
H351	H	-0.034824	-0.115407	-0.182057
H352	H	-0.020209	-0.749804	-0.374113
H353	H	0.245737	-0.223998	-0.033572
C354	C	0.506041	-0.075549	0.008991
C355	C	0.555997	-0.130346	-0.028342
H356	H	0.533175	-0.014602	0.008453
H357	H	0.445942	-0.093594	0.007628
H358	H	0.505140	-0.081277	0.036210
H359	H	0.556893	-0.124623	-0.055562
H360	H	0.616112	-0.112295	-0.026984
H361	H	0.280077	-0.749342	-0.022791
H362	H	-0.030422	-0.661858	-0.417434
C363	C	-0.097749	-0.212091	-0.084461
C364	C	-0.019239	-0.240230	-0.111242
H365	H	-0.095835	-0.184140	-0.054020
H366	H	-0.101501	-0.170325	-0.095730
H367	H	-0.149158	-0.262728	-0.085466
H368	H	0.032170	-0.189592	-0.110240
H369	H	-0.015478	-0.281998	-0.099970
C370	C	0.317739	-0.807683	-0.020423
C371	C	0.406334	-0.781149	-0.018420
H372	H	0.290579	-0.868627	-0.019883
H373	H	0.283885	-0.770480	0.004899
H374	H	0.318673	-0.801951	-0.047648
H375	H	0.405399	-0.786875	0.008807
H376	H	0.440196	-0.818363	-0.043744
H377	H	-0.440845	0.083623	0.085362
H378	H	0.771156	-0.249077	-0.019476
H379	H	-0.038841	-0.524079	-0.420431
H380	H	-0.815575	0.070280	-0.222817
C381	C	-0.266763	-0.008200	0.048345
C382	C	-0.292149	0.071699	0.074250
H383	H	-0.239184	-0.007866	0.017514
H384	H	-0.225112	-0.012775	0.059304
H385	H	-0.318782	-0.058145	0.050642
H386	H	-0.240129	0.121644	0.071955
H387	H	-0.333803	0.076283	0.063287
C388	C	-0.711661	0.180675	0.100837
C389	C	-0.754954	0.103890	0.116314
H390	H	-0.745308	0.183322	0.084658
H391	H	-0.707719	0.232875	0.125996
H392	H	-0.652600	0.177893	0.081353
H393	H	-0.814013	0.106675	0.135801
H394	H	-0.758906	0.051677	0.091152
C395	C	0.062310	-0.090148	-0.647615
C396	C	-0.016195	-0.141606	-0.660625
H397	H	0.060389	-0.029214	-0.633624
H398	H	0.066060	-0.112766	-0.626775
H399	H	0.113723	-0.093556	-0.673627
H400	H	-0.067607	-0.138203	-0.634613
H401	H	-0.019954	-0.118981	-0.681467
C402	C	-0.184284	-0.022054	0.124042
C403	C	-0.190497	0.058499	0.123767
H404	H	-0.123781	-0.026004	0.109246
H405	H	-0.201535	-0.023235	0.154480
H406	H	-0.223312	-0.071554	0.108578
H407	H	-0.151473	0.107999	0.139234
H408	H	-0.173235	0.059687	0.093323
C409	C	-0.176455	0.032284	-0.419940
C410	C	-0.201231	0.030466	-0.375129
H411	H	-0.115971	0.028370	-0.434934
H412	H	-0.215675	-0.017215	-0.435281
H413	H	-0.180901	0.086938	-0.419994
H414	H	-0.196792	-0.024191	-0.375075
H415	H	-0.162000	0.079969	-0.359783
C416	C	-0.249662	-0.056204	0.329246
C417	C	-0.262739	0.029720	0.352896
H418	H	-0.218453	-0.069274	0.343040
H419	H	-0.306628	-0.099575	0.330014
H420	H	-0.215020	-0.058028	0.298646
H421	H	-0.297387	0.031542	0.383496
H422	H	-0.205763	0.073102	0.352133
C423	C	-0.048515	-0.696546	-0.108448
C424	C	0.017712	-0.696519	-0.150432
H425	H	-0.035900	-0.724985	-0.093040
H426	H	-0.048426	-0.636290	-0.090727
H427	H	-0.106135	-0.728397	-0.113106
H428	H	0.075331	-0.664662	-0.145774
H429	H	0.017631	-0.756786	-0.168157
C430	C	-0.672375	0.074631	0.414505
C431	C	-0.583868	0.068204	0.400364
H432	H	-0.699954	0.074288	0.445334
H433	H	-0.671207	0.129052	0.411533
H434	H	-0.705991	0.024901	0.396241
H435	H	-0.550249	0.117938	0.418625
H436	H	-0.585030	0.013776	0.403340
C437	C	-0.104891	-0.541718	-0.935029
C438	C	-0.024504	-0.542068	-0.931758
H439	H	-0.106779	-0.570069	-0.965461
H440	H	-0.155021	-0.573477	-0.915634
H441	H	-0.107380	-0.481368	-0.926216
H442	H	-0.022018	-0.602419	-0.940567
H443	H	0.025639	-0.510311	-0.951159
H444	H	0.417564	-0.755580	-0.518528
C445	C	-0.131744	-0.270553	-0.901145
C446	C	-0.053120	-0.218994	-0.888260
H447	H	-0.144357	-0.239383	-0.915188
H448	H	-0.123251	-0.326774	-0.921910
H449	H	-0.180949	-0.280453	-0.875072
H450	H	-0.003913	-0.209099	-0.914334
H451	H	-0.061607	-0.162756	-0.867494
C452	C	0.155163	-0.207327	-0.495863
C453	C	0.231595	-0.210067	-0.533943
H454	H	0.121513	-0.174065	-0.496733
H455	H	0.118585	-0.266906	-0.495933
H456	H	0.173558	-0.179137	-0.469098
H457	H	0.213199	-0.238263	-0.560707
H458	H	0.268179	-0.150477	-0.533877
C459	C	0.159215	-0.674005	-0.567916
C460	C	0.165711	-0.674359	-0.527715
H461	H	0.098745	-0.702382	-0.569072
H462	H	0.176020	-0.613662	-0.568754
H463	H	0.198467	-0.705745	-0.593186
H464	H	0.126464	-0.642613	-0.502444
H465	H	0.148896	-0.734713	-0.526873
H466	H	-0.208057	0.053400	0.198770
C467	C	-0.848041	0.091795	0.393888
C468	C	-0.822624	0.093525	0.349015
H469	H	-0.908526	0.095799	0.408687
H470	H	-0.843860	0.037140	0.394076
H471	H	-0.808980	0.141286	0.409337
H472	H	-0.861681	0.044030	0.333566
H473	H	-0.826812	0.148187	0.348825
H474	H	-0.038719	-0.156659	-0.235851
C475	C	0.150201	-0.536734	-0.571208
C476	C	0.156719	-0.537092	-0.531013
H477	H	0.089722	-0.565092	-0.572353
H478	H	0.167021	-0.476391	-0.572049
H479	H	0.189431	-0.568492	-0.596483
H480	H	0.117493	-0.505328	-0.505737
H481	H	0.139888	-0.597446	-0.530168
H482	H	0.279916	-0.749353	-0.522691
C483	C	-0.353989	-0.029580	-0.450784
C484	C	-0.304069	0.043709	-0.424034
H485	H	-0.326820	-0.029203	-0.481618
H486	H	-0.354908	-0.084004	-0.447918
H487	H	-0.414091	-0.025226	-0.440960
H488	H	-0.243968	0.039351	-0.433856
H489	H	-0.303141	0.098147	-0.426903
H490	H	0.710767	-0.684484	-0.506030
H491	H	-0.015274	-0.667410	-0.915397
C492	C	0.830246	-0.285556	-0.516878
C493	C	0.805449	-0.374509	-0.515630
H494	H	0.890726	-0.257213	-0.515733
H495	H	0.825815	-0.285325	-0.544143
H496	H	0.791021	-0.253801	-0.491598
H497	H	0.844670	-0.406267	-0.540912
H498	H	0.809888	-0.374746	-0.488361
C499	C	-0.061865	-0.709227	-0.607717
C500	C	0.014258	-0.706488	-0.645915
H501	H	-0.059684	-0.742492	-0.591115
H502	H	-0.062518	-0.649648	-0.589030
H503	H	-0.115019	-0.737413	-0.617102
H504	H	0.067413	-0.678295	-0.636529
H505	H	0.014919	-0.766078	-0.664605
H506	H	-0.005085	-0.754331	-0.871556
C507	C	0.000368	-0.290509	-0.593315
C508	C	0.004045	-0.379463	-0.606302
H509	H	0.002263	-0.262165	-0.562884
H510	H	0.050506	-0.258759	-0.612711
H511	H	-0.054168	-0.290279	-0.595537
H512	H	0.058585	-0.379692	-0.604084
H513	H	-0.046097	-0.411221	-0.586901
H514	H	0.771070	-0.249160	-0.519423
H515	H	-0.805083	0.098565	0.274011
H516	H	-0.011621	-0.389765	-0.121028
H517	H	-0.005182	-0.254109	-0.622664
C518	C	-0.069766	-0.840992	-0.784061
C519	C	0.004141	-0.786135	-0.808651
H520	H	-0.067840	-0.901925	-0.798055
H521	H	-0.067285	-0.822980	-0.753893
H522	H	-0.124298	-0.835285	-0.783564
H523	H	0.058673	-0.791837	-0.809144
H524	H	0.001667	-0.804153	-0.838826
C525	C	-0.709273	0.177371	-0.387843
C526	C	-0.758320	0.093978	-0.379170
H527	H	-0.737786	0.190340	-0.403037
H528	H	-0.707285	0.222978	-0.359998
H529	H	-0.649489	0.175344	-0.406384
H530	H	-0.818103	0.096007	-0.360627
H531	H	-0.760319	0.048359	-0.407020
H532	H	0.191224	-0.662427	-0.027294
H533	H	-0.023809	-0.160979	-0.735279
H534	H	0.682238	-0.162236	-0.523943
