data_functionalizedCrystal
_audit_creation_method	'MofGen! by Chris Wilmer'
_symmetry_space_group_name_H-M	'P1'
_symmetry_Int_Tables_number	1
_symmetry_cell_setting	triclinic
loop_
_symmetry_equiv_pos_as_xyz
  x,y,z
_cell_length_a	14.519709
_cell_length_b	27.732048
_cell_length_c	12.996460
_cell_angle_alpha	89.988908
_cell_angle_beta	90.000034
_cell_angle_gamma	83.161400
loop_
_atom_site_label
_atom_site_type_symbol
_atom_site_fract_x
_atom_site_fract_y
_atom_site_fract_z
O1	O	1.222766	0.063362	-0.085445
O2	O	0.954160	0.070824	-0.085477
O3	O	1.096805	-0.003264	-0.085440
O4	O	1.080121	0.137450	-0.085482
O5	O	1.096791	-0.003268	0.085693
O6	O	0.954145	0.070820	0.085656
O7	O	1.222752	0.063358	0.085689
Cu8	Cu	1.088447	0.067089	0.101299
Cu9	Cu	1.088464	0.067093	-0.101087
O10	O	1.080106	0.137446	0.085652
C11	C	0.919799	0.070474	0.000086
C12	C	0.817435	0.069432	0.000074
C13	C	0.442606	0.065596	0.000122
C14	C	0.546896	0.066661	0.000108
C15	C	0.630018	0.067514	0.000097
C16	C	0.734314	0.068579	0.000085
C17	C	1.096448	-0.021274	0.000129
C18	C	1.095393	-0.074934	0.000138
C19	C	1.173048	-0.413378	0.000094
C20	C	1.169135	-0.615057	0.000080
O21	O	1.240145	-0.645973	0.000043
N22	N	1.084552	-0.634585	0.000070
C23	C	1.000941	-0.603690	0.000058
O24	O	0.928909	-0.624927	0.000039
C25	C	1.004855	-0.402012	0.000065
C26	C	1.089444	-0.382487	0.000085
C27	C	1.257630	-0.393853	0.000113
C28	C	1.258607	-0.343436	0.000122
C29	C	1.175003	-0.312545	0.000113
C30	C	1.090421	-0.332071	0.000094
C31	C	0.921246	-0.371118	0.000045
C32	C	0.922232	-0.320696	0.000045
C33	C	1.006820	-0.301171	0.000064
C34	C	1.007794	-0.250763	0.000094
N35	N	1.092377	-0.231235	0.000104
C36	C	1.175981	-0.262126	0.000113
C37	C	0.998893	-0.709574	0.000056
C38	C	0.997914	-0.759993	0.000056
C39	C	1.166108	-0.771356	0.000076
C40	C	1.167086	-0.720936	0.000083
C41	C	1.083476	-0.690045	0.000065
C42	C	1.178028	-0.156247	0.000133
C43	C	1.178998	-0.105825	0.000147
C44	C	1.010804	-0.094466	0.000122
C45	C	1.009833	-0.144883	0.000114
C46	C	1.093453	-0.175773	0.000116
O47	O	0.936822	-0.219818	0.000119
O48	O	1.248004	-0.240879	0.000109
C49	C	1.172071	-0.463795	0.000085
C50	C	1.087489	-0.483320	0.000066
C51	C	1.003885	-0.452429	0.000057
C52	C	1.086510	-0.533740	0.000066
C53	C	1.170115	-0.564631	0.000076
C54	C	1.254698	-0.545103	0.000085
C55	C	1.255675	-0.494686	0.000094
C56	C	0.919302	-0.471957	0.000048
C57	C	0.918331	-0.522375	0.000039
C58	C	1.001936	-0.553266	0.000049
C59	C	1.257113	0.063708	0.000124
C60	C	1.359476	0.064750	0.000129
C61	C	1.080464	0.155456	0.000080
C62	C	1.081518	0.209116	0.000065
N63	N	1.088442	0.067085	0.243646
N64	N	1.088477	0.067093	-0.243434
C65	C	1.088463	0.067094	0.663460
C66	C	1.088454	0.067093	0.546655
C67	C	1.088453	0.067090	0.453557
C68	C	1.088443	0.067088	0.336744
H69	H	1.247882	-0.089931	0.000166
H70	H	0.942736	-0.069306	0.000118
C71	C	0.908179	-0.675981	0.000204
C72	C	0.903825	-0.646702	0.088235
C73	C	0.820280	-0.615748	0.088404
H74	H	0.857593	-0.694775	0.000253
H75	H	0.905055	-0.656042	-0.059444
H76	H	0.906940	-0.666638	0.147867
H77	H	0.954391	-0.627898	0.088204
H78	H	0.817156	-0.595809	0.028756
H79	H	0.769701	-0.634546	0.088450
H80	H	0.817319	-0.595876	0.148126
C81	C	1.268785	-0.189803	-0.000069
C82	C	1.273172	-0.219063	-0.088129
C83	C	1.356767	-0.249975	-0.088351
H84	H	1.271986	-0.209760	0.059537
H85	H	1.319319	-0.170964	-0.000111
H86	H	1.222651	-0.237900	-0.088078
H87	H	1.269986	-0.199119	-0.147750
H88	H	1.407301	-0.231137	-0.088392
H89	H	1.359961	-0.269929	-0.028740
H90	H	1.359758	-0.269829	-0.148102
H91	H	1.327488	-0.327544	0.000134
H92	H	1.325714	-0.419000	0.000117
H93	H	1.234182	-0.796516	0.000084
C94	C	1.259020	-0.699833	0.000040
C95	C	1.332021	-0.737684	0.000024
C96	C	1.416727	-0.718266	-0.000034
H97	H	1.263032	-0.680412	0.059699
H98	H	1.262955	-0.680412	-0.059665
H99	H	1.328088	-0.757097	0.059723
H100	H	1.328040	-0.757109	-0.059631
H101	H	1.420662	-0.698845	-0.059739
H102	H	1.420729	-0.698845	0.059626
H103	H	1.466268	-0.743944	-0.000054
H104	H	0.854144	-0.295547	0.000029
C105	C	0.918065	-0.166153	-0.000059
C106	C	0.912610	-0.194763	-0.088102
C107	C	0.828093	-0.214366	-0.088299
H108	H	0.868333	-0.140584	-0.000112
H109	H	0.914174	-0.185623	0.059581
H110	H	0.916492	-0.175294	-0.147726
H111	H	0.962323	-0.220339	-0.088067
H112	H	0.824202	-0.233836	-0.028659
H113	H	0.778367	-0.188794	-0.088349
H114	H	0.824384	-0.233783	-0.148029
H115	H	0.849444	-0.538266	0.000032
H116	H	0.929034	-0.775885	0.000058
C117	C	0.828426	-0.438503	0.000098
C118	C	0.754153	-0.466403	0.000114
C119	C	0.670418	-0.435603	0.000182
H120	H	0.825173	-0.418578	-0.059558
H121	H	0.825256	-0.418615	0.059806
H122	H	0.757321	-0.486283	-0.059588
H123	H	0.757375	-0.486326	0.059766
H124	H	0.667248	-0.415715	0.059890
H125	H	0.667175	-0.415680	-0.059475
H126	H	0.620014	-0.454528	0.000203
H127	H	1.322771	-0.570263	0.000097
H128	H	0.852365	-0.387006	0.000023
H129	H	1.324556	-0.478794	0.000110
