data_functionalizedCrystal
_audit_creation_method	'MofGen! by Chris Wilmer'
_symmetry_space_group_name_H-M	'P1'
_symmetry_Int_Tables_number	1
_symmetry_cell_setting	triclinic
loop_
_symmetry_equiv_pos_as_xyz
  x,y,z
_cell_length_a	15.297476
_cell_length_b	19.120786
_cell_length_c	15.296720
_cell_angle_alpha	83.185849
_cell_angle_beta	88.383492
_cell_angle_gamma	82.328168
loop_
_atom_site_label
_atom_site_type_symbol
_atom_site_fract_x
_atom_site_fract_y
_atom_site_fract_z
Zn1	Zn	1.229663	-0.538903	0.692932
Zn2	Zn	1.250534	-0.638611	0.540217
Zn3	Zn	1.110254	-0.500004	0.523603
Zn4	Zn	1.079060	-0.631805	0.661769
O5	O	1.167378	-0.577331	0.604630
O6	O	1.354167	-0.571257	0.692669
O7	O	1.253715	-0.606793	0.416278
O8	O	1.130414	-0.408277	0.552153
O9	O	1.369501	-0.644512	0.580470
O10	O	1.218143	-0.436856	0.676559
O11	O	1.150652	-0.504959	0.404072
O12	O	0.984381	-0.498360	0.521936
O13	O	1.077248	-0.632913	0.787638
O14	O	0.961463	-0.595194	0.623446
O15	O	1.187896	-0.564658	0.810533
O16	O	1.223467	-0.734595	0.550252
O17	O	1.097486	-0.729595	0.639556
C18	C	0.941357	-0.541818	0.567507
C19	C	0.844660	-0.526645	0.551645
C20	C	0.811130	-0.469033	0.491431
C21	C	0.720279	-0.454775	0.476526
C22	C	0.662948	-0.498123	0.521839
C23	C	0.696477	-0.555733	0.582058
C24	C	0.787338	-0.569996	0.596960
C25	C	0.639156	-0.599087	0.627367
C26	C	0.672686	-0.656697	0.687587
C27	C	0.763538	-0.670956	0.702486
C28	C	0.820868	-0.627608	0.657173
C29	C	0.548295	-0.584824	0.612466
C30	C	0.524504	-0.685787	0.717994
C31	C	0.615355	-0.700045	0.732899
C32	C	1.159377	-0.757223	0.593348
C33	C	1.156028	-0.834197	0.588564
C34	C	1.200081	-0.885177	0.651126
C35	C	1.196931	-0.957502	0.646632
C36	C	1.149733	-0.978846	0.579571
C37	C	1.105674	-0.927859	0.517006
C38	C	1.108820	-0.855535	0.521504
C39	C	1.137949	-1.196476	0.562749
C40	C	1.134809	-1.268806	0.558253
C41	C	1.226065	-1.298444	0.687881
C42	C	1.229210	-1.226118	0.692370
C43	C	1.185148	-1.175137	0.629808
C44	C	1.146514	-1.052774	0.574974
C45	C	1.188362	-1.101211	0.634409
C46	C	1.394281	-0.612983	0.641899
C47	C	1.490973	-0.628175	0.657780
C48	C	1.126764	-0.602366	0.831533
C49	C	1.109457	-0.613034	0.928225
C50	C	1.175430	-0.396742	0.615979
C51	C	1.178862	-0.319786	0.620815
C52	C	1.207885	-0.552351	0.378622
C53	C	1.225369	-0.541514	0.281970
C54	C	1.291111	-0.500966	1.248467
C55	C	1.307377	-0.490945	1.157621
C56	C	1.257899	-0.521466	1.100267
C57	C	1.192151	-0.562011	1.133769
C58	C	1.175888	-0.572038	1.224625
C59	C	1.142676	-0.592538	1.076425
C60	C	1.076928	-0.633082	1.109927
C61	C	1.060668	-0.643107	1.200774
C62	C	1.110146	-0.612586	1.258128
C63	C	1.158939	-0.582511	0.985570
C64	C	1.043716	-0.653582	0.961728
C65	C	1.027449	-0.663603	1.052574
H66	H	0.692986	-0.407872	0.427491
H67	H	1.096370	-1.286179	0.503643
O68	O	1.273872	-0.511755	1.012049
C69	C	1.361884	-0.539308	0.994294
H70	H	1.403129	-0.541140	1.055638
H71	H	1.364051	-0.595264	0.974854
C72	C	1.348719	-0.489096	0.842949
C73	C	1.399380	-0.491340	0.918291
H74	H	1.371848	-0.459509	0.796064
H75	H	1.289423	-0.470535	0.854909
H76	H	1.350530	-0.535728	0.826761
H77	H	1.397559	-0.444710	0.934484
H78	H	1.458676	-0.509892	0.906331
O79	O	0.647838	-0.756084	0.791326
C80	C	0.626021	-0.819474	0.764194
H81	H	0.565968	-0.806825	0.719844
H82	H	0.684126	-0.845821	0.726345
C83	C	0.678576	-0.885748	0.900066
C84	C	0.604814	-0.870214	0.845600
H85	H	0.665498	-0.917049	0.950280
H86	H	0.693278	-0.843042	0.918344
H87	H	0.726990	-0.907701	0.868515
H88	H	0.556404	-0.848254	0.877148
H89	H	0.590103	-0.912917	0.827328
O90	O	0.574687	-0.484160	0.507449
C91	C	0.543285	-0.415534	0.529087
H92	H	0.590131	-0.399378	0.577451
H93	H	0.539508	-0.376141	0.466799
C94	C	0.393269	-0.435452	0.512128
C95	C	0.450802	-0.415611	0.571536
H96	H	0.336219	-0.435498	0.538309
H97	H	0.414424	-0.481686	0.497547
H98	H	0.390132	-0.402622	0.460226
H99	H	0.453947	-0.448447	0.623431
H100	H	0.429645	-0.369383	0.586127
O101	O	0.796050	-0.726855	0.761101
C102	C	0.758995	-0.717928	0.845134
H103	H	0.735672	-0.659197	0.849014
H104	H	0.700555	-0.749300	0.856817
C105	C	0.857615	-0.817270	0.911140
C106	C	0.828975	-0.745134	0.915908
H107	H	0.900779	-0.834054	0.954798
H108	H	0.882577	-0.823286	0.854525
H109	H	0.808908	-0.843404	0.920874
H110	H	0.877679	-0.719000	0.906163
H111	H	0.804022	-0.739114	0.972523
H112	H	1.067240	-0.945242	0.462406
H113	H	0.477825	-0.721086	0.754891
H114	H	0.857816	-0.433748	0.454539
H115	H	1.267643	-1.208742	0.746977
H116	H	0.973917	-0.696615	1.079864
H117	H	1.007138	-0.676128	1.228049
H118	H	1.238520	-0.867806	0.705731
H119	H	1.360911	-0.457935	1.130350
H120	H	1.096906	-0.620743	1.332103
H121	H	1.232812	-0.999009	0.697571
O122	O	1.095143	-1.147054	0.501876
C123	C	1.052802	-1.181404	0.441732
H124	H	1.086729	-1.238205	0.441408
H125	H	0.980675	-1.182258	0.462189
C126	C	1.016481	-1.071283	0.349237
C127	C	1.058156	-1.141044	0.348834
H128	H	1.019780	-1.046386	0.291934
H129	H	1.045004	-1.048140	0.389759
H130	H	0.956379	-1.072004	0.366289
H131	H	1.118259	-1.140323	0.331793
H132	H	1.029643	-1.164187	0.308307
H133	H	1.261937	-1.339959	0.738816
H134	H	1.072946	-0.814026	0.470561
H135	H	1.226787	-1.083831	0.689013
H136	H	1.212470	-0.549498	0.958302
O137	O	0.995783	-0.683275	0.905945
C138	C	1.052722	-0.729987	0.858731
H139	H	1.122173	-0.714426	0.857488
H140	H	1.053724	-0.786662	0.892085
C141	C	0.934449	-0.744589	0.765308
C142	C	1.019748	-0.725472	0.763775
H143	H	0.914107	-0.741807	0.706735
H144	H	0.896086	-0.713120	0.797118
H145	H	0.935295	-0.791817	0.793107
H146	H	1.018898	-0.678242	0.735986
H147	H	1.058110	-0.756933	0.731957
O148	O	1.339276	-0.471299	1.304058
C149	C	1.400775	-0.433343	1.255010
H150	H	1.414116	-0.455024	1.188957
H151	H	1.372994	-0.374687	1.243427
C152	C	1.471072	-0.415202	1.387433
C153	C	1.487463	-0.441835	1.306309
H154	H	1.524544	-0.420437	1.419077
H155	H	1.429637	-0.440771	1.420479
H156	H	1.447919	-0.366324	1.377769
H157	H	1.510605	-0.490714	1.315974
H158	H	1.528904	-0.416274	1.273266
H159	H	0.521005	-0.537916	0.563437
H160	H	1.108088	-1.070160	0.520371
H161	H	0.894848	-0.639213	0.669307
