data_functionalizedCrystal
_audit_creation_method	'MofGen! by Chris Wilmer'
_symmetry_space_group_name_H-M	'P1'
_symmetry_Int_Tables_number	1
_symmetry_cell_setting	triclinic
loop_
_symmetry_equiv_pos_as_xyz
  x,y,z
_cell_length_a	23.096457
_cell_length_b	20.919309
_cell_length_c	20.919292
_cell_angle_alpha	59.202373
_cell_angle_beta	93.153764
_cell_angle_gamma	62.591463
loop_
_atom_site_label
_atom_site_type_symbol
_atom_site_fract_x
_atom_site_fract_y
_atom_site_fract_z
Zr1	Zr	0.576916	0.700777	-0.111347
O2	O	0.483819	0.834340	-0.218774
O3	O	0.602370	0.567214	-0.074806
O4	O	0.600159	0.700779	-0.213575
O5	O	0.491284	0.700773	0.025353
O6	O	0.695439	0.700781	-0.213579
O7	O	0.486030	0.700775	-0.080005
O8	O	0.699395	0.461858	0.034654
O9	O	0.487328	0.939696	-0.222880
O10	O	0.688060	0.622152	-0.063584
O11	O	0.620874	0.622149	0.015046
O12	O	0.618271	0.779405	-0.148337
O13	O	0.551084	0.779402	-0.069706
Zr14	Zr	0.737255	0.700777	0.056681
Zr15	Zr	0.728877	0.700780	-0.111353
Zr16	Zr	0.585294	0.700774	0.056687
Zr17	Zr	0.582513	0.868809	-0.117895
Zr18	Zr	0.731659	0.532746	0.063228
O19	O	0.711801	0.834340	0.020139
O20	O	0.699888	0.834344	-0.218783
O21	O	0.495732	0.834336	0.020148
O22	O	0.830352	0.567214	0.164108
O23	O	0.818439	0.567219	-0.074814
O24	O	0.614283	0.567210	0.164117
O25	O	0.822888	0.700781	-0.080019
O26	O	0.714012	0.700775	0.158909
O27	O	0.618732	0.700773	0.158912
O28	O	0.828141	0.700779	0.025339
O29	O	0.608117	0.939698	-0.222885
O30	O	0.706054	0.461856	0.168219
O31	O	0.826843	0.461858	0.168214
O32	O	0.820183	0.461860	0.034649
O33	O	0.493988	0.939694	-0.089315
O34	O	0.614777	0.939696	-0.089320
O35	O	0.695901	0.622149	0.093671
O36	O	0.763087	0.622152	0.015040
O37	O	0.693298	0.779405	-0.069712
O38	O	0.626112	0.779402	0.008918
C39	C	0.650085	0.490595	-0.019143
C40	C	0.647709	0.419262	-0.016363
C41	C	0.681661	0.385750	-0.056102
C42	C	0.679431	0.318720	-0.053482
C43	C	0.643243	0.285207	-0.011129
C44	C	0.609290	0.318721	0.028615
C45	C	0.611525	0.385745	0.026000
C46	C	0.634745	0.082831	-0.001175
C47	C	0.632510	0.015804	0.001435
C48	C	0.702652	0.015807	-0.080661
C49	C	0.704880	0.082836	-0.083276
C50	C	0.670930	0.116341	-0.043529
C51	C	0.640961	0.216693	-0.008452
C52	C	0.673218	0.184849	-0.046201
C53	C	0.467006	0.700774	-0.027325
C54	C	0.402494	0.700772	-0.027323
C55	C	0.408617	0.618691	0.016910
C56	C	0.348002	0.618689	0.016913
C57	C	0.281263	0.700774	-0.027331
C58	C	0.275143	0.782867	-0.071566
C59	C	0.335758	0.782866	-0.071561
N60	N	0.157172	0.761876	-0.096512
N61	N	0.099592	0.761871	-0.096514
C62	C	0.098630	0.700783	-0.027345
N63	N	0.157429	0.639685	0.041825
N64	N	0.215015	0.639687	0.041826
C65	C	0.215532	0.700785	-0.027340
C66	C	0.039030	0.618694	0.016895
C67	C	-0.021588	0.618696	0.016900
C68	C	-0.094447	0.782876	-0.071586
C69	C	-0.033830	0.782872	-0.071584
C70	C	0.032906	0.700778	-0.027345
C71	C	0.847166	0.700781	-0.027341
C72	C	0.911677	0.700782	-0.027344
C73	C	0.646605	0.700781	-0.237518
C74	C	0.643048	0.700782	-0.308853
C75	C	0.664087	0.910959	-0.035523
C76	C	0.666463	0.982293	-0.038303
C77	C	0.693868	0.700784	-0.342368
C78	C	0.690527	0.700777	-0.409390
C79	C	0.636364	0.700775	-0.442900
C80	C	0.585542	0.700769	-0.409378
C81	C	0.588886	0.700770	-0.342354
C82	C	0.623645	0.700768	-0.645267
C83	C	0.620304	0.700770	-0.712298
C84	C	0.725290	0.700776	-0.712305
C85	C	0.728626	0.700782	-0.645282
C86	C	0.677807	0.700772	-0.611764
C87	C	0.632947	0.700771	-0.511409
C88	C	0.681227	0.700770	-0.543252
C89	C	0.667566	0.700774	0.182852
C90	C	0.671123	0.700772	0.254187
C91	C	0.840165	0.490599	-0.019151
C92	C	0.902300	0.419266	-0.016374
C93	C	0.660565	0.490592	0.191042
C94	C	0.661746	0.419257	0.265156
C95	C	0.850645	0.490595	0.191034
C96	C	0.916338	0.419262	0.265146
C97	C	0.463526	0.910959	-0.245700
C98	C	0.397834	0.982293	-0.319812
C99	C	0.474006	0.910955	-0.035516
C100	C	0.411871	0.982288	-0.038293
C101	C	0.653606	0.910962	-0.245708
C102	C	0.652425	0.982297	-0.319823
C103	C	0.892316	0.385768	-0.056118
C104	C	0.950693	0.318753	-0.053525
C105	C	1.019053	0.285232	-0.011182
C106	C	1.029036	0.318738	0.028563
C107	C	0.970660	0.385756	0.025965
C108	C	0.701464	0.385757	0.341010
C109	C	0.702572	0.318740	0.410654
C110	C	0.663965	0.285219	0.404444
C111	C	0.624242	0.318725	0.328583
C112	C	0.623131	0.385746	0.258940
C113	C	0.982264	0.385764	0.258905
C114	C	1.043995	0.318748	0.328535
C115	C	1.039797	0.285226	0.404404
C116	C	0.973864	0.318730	0.410642
C117	C	0.912135	0.385750	0.341014
C118	C	0.331908	1.015798	-0.313572
C119	C	0.270177	1.082836	-0.383202
C120	C	0.274375	1.116361	-0.459071
C121	C	0.340309	1.082852	-0.465310
C122	C	0.402037	1.015821	-0.395681
C123	C	0.421855	1.015793	0.001444
C124	C	0.363478	1.082827	-0.001168
C125	C	0.295118	1.116350	-0.043513
C126	C	0.285135	1.082841	-0.083255
C127	C	0.343511	1.015813	-0.080647
C128	C	0.691040	1.015797	-0.313586
C129	C	0.689945	1.082815	-0.383218
C130	C	0.650229	1.116336	-0.459085
C131	C	0.611613	1.082830	-0.465320
C132	C	0.612713	1.015809	-0.395689
H133	H	0.579830	0.291424	0.063105
H134	H	0.581265	0.988541	-0.400778
C135	C	0.579443	0.422582	0.175506
H136	H	0.556617	0.393009	0.181789
H137	H	0.545034	0.485861	0.145177
H138	H	0.609731	0.411583	0.148083
C139	C	0.374468	1.119677	0.042549
H140	H	0.329915	1.164408	0.034925
H141	H	0.400741	1.071559	0.098419
H142	H	0.399522	1.145817	0.021255
C143	C	0.567881	1.119762	-0.548776
H144	H	0.545027	1.090228	-0.542527
H145	H	0.533493	1.183038	-0.579044
H146	H	0.598135	1.108806	-0.576242
C147	C	0.581780	0.281845	0.321757
H148	H	0.557959	0.311394	0.266608
H149	H	0.612936	0.218565	0.348672
H150	H	0.548239	0.292836	0.345773
H151	H	0.649340	1.170910	-0.515777
H152	H	0.985695	0.413048	0.197135
H153	H	1.097675	0.291475	0.323441
H154	H	0.335372	0.988535	-0.113003
C155	C	0.197659	1.119681	-0.376329
H156	H	0.161492	1.164413	-0.428660
H157	H	0.192131	1.071560	-0.346609
H158	H	0.194612	1.145818	-0.349487
C159	C	0.721471	0.422605	-0.102687
H160	H	0.741379	0.393037	-0.125971
H161	H	0.689610	0.485884	-0.143993
H162	H	0.758000	0.411610	-0.066826
H163	H	0.547505	0.700766	-0.315065
C164	C	0.206470	1.190082	-0.535655
H165	H	0.166607	1.205221	-0.521065
H166	H	0.206682	1.242386	-0.568025
H167	H	0.204219	1.168103	-0.565115
H168	H	0.247591	1.170928	-0.045630
C169	C	0.969255	0.281841	0.494101
H170	H	1.015464	0.237122	0.534669
H171	H	0.945967	0.329944	0.498124
H172	H	0.943501	0.255678	0.501004
H173	H	1.084703	0.291436	0.063037
C174	C	0.560754	0.700695	-0.749119
H175	H	0.530978	0.700661	-0.719542
H176	H	0.533941	0.753188	-0.803573
H177	H	0.580618	0.648156	-0.746931
C178	C	0.839619	0.422580	0.347889
H179	H	0.845967	0.393005	0.403048
H180	H	0.815306	0.485859	0.320987
H181	H	0.812852	0.411577	0.323887
H182	H	0.607103	0.110100	0.031193
C183	C	0.497044	0.978930	0.048028
H184	H	0.494619	1.008499	0.071310
H185	H	0.522062	0.915652	0.089335
H186	H	0.520833	0.989918	0.012168
C187	C	0.981648	0.422600	0.069686
H188	H	0.937095	0.467321	0.062074
H189	H	1.007929	0.374476	0.125554
H190	H	1.006693	0.448750	0.048387
C191	C	0.716773	0.281866	-0.097201
H192	H	0.738636	0.311434	-0.122809
H193	H	0.751557	0.218588	-0.059314
H194	H	0.683156	0.292858	-0.136467
C195	C	0.327280	0.978933	-0.230123
H196	H	0.373482	0.934206	-0.189540
H197	H	0.303995	1.027050	-0.226118
H198	H	0.301512	0.952787	-0.223226
H199	H	1.090067	0.230654	0.461093
C200	C	0.734733	0.978933	-0.230142
H201	H	0.757576	1.008483	-0.236411
H202	H	0.704454	0.989918	-0.202712
H203	H	0.769139	0.915650	-0.199827
H204	H	0.343718	1.110158	-0.527091
H205	H	0.942550	0.291481	-0.085890
C206	C	0.474552	0.978961	-0.402555
H207	H	0.468204	1.008525	-0.457713
H208	H	0.501340	0.989934	-0.378545
H209	H	0.498843	0.915681	-0.375659
C210	C	0.746271	0.281888	0.494093
H211	H	0.741401	0.237179	0.534685
H212	H	0.794525	0.255739	0.500984
H213	H	0.729836	0.330016	0.498087
H214	H	0.732904	0.413043	0.346082
H215	H	0.229468	1.110146	-0.117732
H216	H	0.664875	0.230646	0.461158
H217	H	0.611497	0.189399	0.026032
H218	H	0.721390	1.110089	-0.378126
H219	H	0.730293	-0.011480	-0.113020
C220	C	0.744691	0.119693	-0.129857
H221	H	0.741155	0.164414	-0.125727
H222	H	0.792931	0.071575	-0.107714
H223	H	0.724536	0.145845	-0.184876
C224	C	0.592705	-0.021064	0.048027
H225	H	0.596230	-0.065772	0.043882
H226	H	0.612857	-0.047217	0.103043
H227	H	0.544462	0.027057	0.025882
C228	C	0.574175	0.422615	0.069706
H229	H	0.580694	0.467326	0.062089
H230	H	0.525203	0.448764	0.048422
H231	H	0.593599	0.374495	0.125582
H232	H	0.702684	0.212134	-0.080682
H233	H	0.731909	0.700779	-0.436678
C234	C	0.354732	0.528396	0.065566
H235	H	0.403158	0.479505	0.091910
H236	H	0.334449	0.524978	0.104537
H237	H	0.330749	0.524995	0.030259
C238	C	0.201734	0.873158	-0.120235
H239	H	0.166509	0.861404	-0.113910
H240	H	0.198546	0.906887	-0.101280
H241	H	0.194853	0.906885	-0.175549
C242	C	0.525963	0.700769	-0.446238
H243	H	0.531245	0.700779	-0.490961
H244	H	0.528246	0.648257	-0.406951
H245	H	0.481637	0.753289	-0.463556
C246	C	0.112440	0.528397	0.065569
H247	H	0.107404	0.479509	0.091925
H248	H	0.135757	0.524976	0.030282
H249	H	0.139444	0.524992	0.104543
C250	C	0.329022	0.873160	-0.120226
H251	H	0.280594	0.922049	-0.146580
H252	H	0.353005	0.876572	-0.084934
H253	H	0.349302	0.876569	-0.159201
C254	C	-0.014850	0.528401	0.065557
H255	H	0.033577	0.479513	0.091896
H256	H	-0.035129	0.524980	0.104532
H257	H	-0.038835	0.524998	0.030253
C258	C	-0.167852	0.873169	-0.120252
H259	H	-0.203077	0.861415	-0.113922
H260	H	-0.171035	0.906895	-0.101296
H261	H	-0.174737	0.906897	-0.175566
H262	H	0.462953	0.551843	0.052927
H263	H	-0.038819	0.849712	-0.107609
C264	C	1.083260	0.211506	-0.008322
H265	H	1.067517	0.196354	-0.038051
H266	H	1.110324	0.233464	-0.031152
H267	H	1.111544	0.159202	0.046009
C268	C	0.753449	0.700785	-0.305513
H269	H	0.783240	0.700777	-0.335070
H270	H	0.733633	0.753297	-0.307667
H271	H	0.780243	0.648265	-0.251061
C272	C	0.788209	0.700777	-0.608422
H273	H	0.818002	0.700769	-0.637978
H274	H	0.768392	0.753288	-0.610576
H275	H	0.815002	0.648256	-0.553971
C276	C	0.781193	0.700775	-0.749166
H277	H	0.813927	0.700781	-0.719612
H278	H	0.805376	0.648261	-0.747009
H279	H	0.758766	0.753293	-0.803618
C280	C	0.740804	0.700773	-0.506397
H281	H	0.770597	0.700770	-0.535953
H282	H	0.720982	0.753284	-0.508551
H283	H	0.767598	0.648252	-0.451946
C284	C	0.567740	0.700768	-0.608412
H285	H	0.535001	0.700777	-0.637976
H286	H	0.590163	0.648256	-0.553963
H287	H	0.543554	0.753288	-0.610573
C288	C	0.817126	0.422633	-0.102699
H289	H	0.783782	0.467342	-0.098556
H290	H	0.809989	0.448785	-0.157715
H291	H	0.811218	0.374512	-0.080555
H292	H	0.588846	0.700771	-0.538699
