data_functionalizedCrystal
_audit_creation_method	'MofGen! by Chris Wilmer'
_symmetry_space_group_name_H-M	'P1'
_symmetry_Int_Tables_number	1
_symmetry_cell_setting	triclinic
loop_
_symmetry_equiv_pos_as_xyz
  x,y,z
_cell_length_a	16.120530
_cell_length_b	12.645330
_cell_length_c	16.120256
_cell_angle_alpha	92.878509
_cell_angle_beta	90.128265
_cell_angle_gamma	87.113442
loop_
_atom_site_label
_atom_site_type_symbol
_atom_site_fract_x
_atom_site_fract_y
_atom_site_fract_z
Zn1	Zn	1.247481	-0.537102	-0.534597
Zn2	Zn	1.747481	-0.037102	-0.034597
Zn3	Zn	1.254445	-0.705858	-0.395549
Zn4	Zn	1.754445	-0.205858	0.104451
Zn5	Zn	1.115470	-0.519182	-0.388514
Zn6	Zn	1.615470	-0.019182	0.111486
Zn7	Zn	1.108401	-0.704887	-0.527519
Zn8	Zn	1.608401	-0.204887	-0.027519
O9	O	1.181449	-0.616757	-0.461545
O10	O	1.681449	-0.116757	0.038455
O11	O	1.364772	-0.567393	-0.522059
O12	O	1.864772	-0.067393	-0.022059
O13	O	1.241883	-0.674002	-0.278249
O14	O	1.741883	-0.174002	0.221751
O15	O	1.133026	-0.373216	-0.407910
O16	O	1.633026	0.126784	0.092090
O17	O	1.369888	-0.691378	-0.419901
O18	O	1.869888	-0.191378	0.080099
O19	O	1.230014	-0.386381	-0.515237
O20	O	1.730014	0.113619	-0.015237
O21	O	1.139778	-0.536852	-0.273081
O22	O	1.639778	-0.036852	0.226919
O23	O	0.998166	-0.535910	-0.401046
O24	O	1.498166	-0.035910	0.098954
O25	O	1.120978	-0.689723	-0.644824
O26	O	1.620978	-0.189723	-0.144824
O27	O	0.992972	-0.672347	-0.503173
O28	O	1.492972	-0.172347	-0.003173
O29	O	1.223159	-0.566452	-0.650025
O30	O	1.723159	-0.066452	-0.150025
O31	O	1.235028	-0.854073	-0.413037
O32	O	1.735028	-0.354073	0.086963
O33	O	1.127730	-0.853359	-0.509994
O34	O	1.627730	-0.353359	-0.009994
C35	C	0.965396	-0.602080	-0.450579
C36	C	1.465396	-0.102080	0.049421
C37	C	0.872967	-0.595827	-0.445907
C38	C	1.372967	-0.095827	0.054093
C39	C	0.703736	-0.584388	-0.437385
C40	C	1.203736	-0.084388	0.062615
C41	C	0.660000	-0.649209	-0.485765
C42	C	1.160000	-0.149209	0.014235
C43	C	0.565834	-0.642844	-0.481024
C44	C	1.065834	-0.142844	0.018976
C45	C	0.797911	-0.590751	-0.442125
C46	C	1.297911	-0.090751	0.057875
C47	C	1.181389	-0.892182	-0.461530
C48	C	1.681389	-0.392182	0.038470
C49	C	1.181438	-1.010017	-0.461555
C50	C	1.681438	-0.510017	0.038445
C51	C	1.114192	-1.177206	-0.522763
C52	C	1.614192	-0.677206	-0.022763
C53	C	1.113875	-1.054612	-0.522539
C54	C	1.613875	-0.554612	-0.022539
C55	C	1.162161	-1.047628	-0.372718
C56	C	1.662161	-0.547628	0.127282
C57	C	1.161750	-1.170224	-0.373090
C58	C	1.661750	-0.670224	0.126910
C59	C	1.268390	-1.184460	-0.488494
C60	C	1.768390	-0.684460	0.011506
C61	C	1.267753	-1.061934	-0.490383
C62	C	1.767753	-0.561934	0.009617
C63	C	1.398346	-0.631493	-0.472554
C64	C	1.898346	-0.131493	0.027446
C65	C	1.490775	-0.637772	-0.477246
C66	C	1.990775	-0.137772	0.022754
C67	C	1.170503	-0.629978	-0.678441
C68	C	1.670503	-0.129978	-0.178441
C69	C	1.165839	-0.635612	-0.770869
C70	C	1.665839	-0.135612	-0.270869
C71	C	1.181532	-0.340259	-0.461579
C72	C	1.681532	0.159741	0.038421
C73	C	1.181566	-0.222433	-0.461593
C74	C	1.681566	0.277567	0.038407
C75	C	1.205774	-0.587350	-0.983850
C76	C	1.705774	-0.087350	-0.483850
C77	C	1.157294	-0.645852	-0.940089
C78	C	1.657294	-0.145852	-0.440089
C79	C	1.162050	-0.640153	-0.845926
C80	C	1.662050	-0.140153	-0.345926
C81	C	1.201019	-0.593048	-1.078022
C82	C	1.701019	-0.093048	-0.578022
C83	C	1.192401	-0.603515	-0.245495
C84	C	1.692401	-0.103515	0.254505
C85	C	1.197227	-0.597593	-0.153076
C86	C	1.697227	-0.097593	0.346924
H87	H	1.125422	-1.029449	-0.588272
H88	H	1.625422	-0.529449	-0.088272
H89	H	1.112214	-0.700211	-0.973343
H90	H	1.612214	-0.200211	-0.473343
H91	H	0.693277	-0.709483	-0.530748
H92	H	1.193277	-0.209483	-0.030748
N93	N	1.286090	-1.031820	-0.572421
N94	N	1.786090	-0.531820	-0.072421
N95	N	1.291382	-0.936123	-0.586626
N96	N	1.791382	-0.436123	-0.086626
H97	H	1.304329	-0.914846	-0.644566
H98	H	1.804329	-0.414846	-0.144566
H99	H	0.670461	-0.524118	-0.392407
H100	H	1.170461	-0.024118	0.107593
H101	H	1.208934	-1.199868	-0.325720
H102	H	1.708934	-0.699868	0.174280
H103	H	1.125591	-1.211613	-0.588702
H104	H	1.625591	-0.711613	-0.088702
N105	N	1.033835	-1.209337	-0.500228
N106	N	1.533835	-0.709337	-0.000228
N107	N	1.025971	-1.265400	-0.439312
N108	N	1.525971	-0.765400	0.060688
H109	H	0.969220	-1.288096	-0.423394
H110	H	1.469220	-0.788096	0.076606
N111	N	1.033012	-1.011252	-0.499744
N112	N	1.533012	-0.511252	0.000256
N113	N	0.976637	-1.071546	-0.483943
N114	N	1.476637	-0.571546	0.016057
H115	H	0.919523	-1.040924	-0.467841
H116	H	1.419523	-0.540924	0.032159
N117	N	1.262321	-0.519144	-0.942153
N118	N	1.762321	-0.019144	-0.442153
N119	N	1.256367	-0.421521	-0.951484
N120	N	1.756367	0.078479	-0.451484
H121	H	1.296305	-0.373351	-0.922028
H122	H	1.796305	0.126649	-0.422028
H123	H	1.209874	-1.018514	-0.325701
H124	H	1.709874	-0.518514	0.174299
N125	N	1.082296	-1.199274	-0.345145
N126	N	1.582296	-0.699274	0.154855
N127	N	1.027533	-1.129039	-0.325505
N128	N	1.527533	-0.629039	0.174495
H129	H	0.971415	-1.149549	-0.305768
H130	H	1.471415	-0.649549	0.194232
N131	N	1.083570	-1.002317	-0.344396
N132	N	1.583570	-0.502317	0.155604
N133	N	1.041627	-0.942320	-0.389479
N134	N	1.541627	-0.442320	0.110521
H135	H	0.986120	-0.910318	-0.369481
H136	H	1.486120	-0.410318	0.130519
H137	H	1.320237	-1.032027	-0.449428
H138	H	1.820237	-0.532027	0.050572
N139	N	1.291535	-1.229837	-0.568670
N140	N	1.791535	-0.729837	-0.068670
N141	N	1.244315	-1.290723	-0.606962
N142	N	1.744315	-0.790723	-0.106962
H143	H	1.260653	-1.322774	-0.663588
H144	H	1.760653	-0.822774	-0.163588
H145	H	1.318530	-1.213811	-0.443996
H146	H	1.818530	-0.713811	0.056004
