data_functionalizedCrystal
_audit_creation_method	'MofGen! by Chris Wilmer'
_symmetry_space_group_name_H-M	'P1'
_symmetry_Int_Tables_number	1
_symmetry_cell_setting	triclinic
loop_
_symmetry_equiv_pos_as_xyz
  x,y,z
_cell_length_a	12.645331
_cell_length_b	12.645330
_cell_length_c	12.645324
_cell_angle_alpha	89.968234
_cell_angle_beta	89.977038
_cell_angle_gamma	90.016671
loop_
_atom_site_label
_atom_site_type_symbol
_atom_site_fract_x
_atom_site_fract_y
_atom_site_fract_z
Zn1	Zn	1.620734	-0.421988	-0.599446
Zn2	Zn	1.620615	-0.599297	-0.422186
Zn3	Zn	1.443448	-0.422045	-0.422191
Zn4	Zn	1.443431	-0.599206	-0.599402
O5	O	1.532057	-0.510634	-0.510806
O6	O	1.769066	-0.445522	-0.575949
O7	O	1.597071	-0.575846	-0.273840
O8	O	1.467023	-0.273690	-0.445724
O9	O	1.768978	-0.575791	-0.445717
O10	O	1.597274	-0.273648	-0.575953
O11	O	1.466907	-0.445620	-0.273843
O12	O	1.295098	-0.445532	-0.445681
O13	O	1.466993	-0.575636	-0.747755
O14	O	1.295086	-0.575692	-0.575877
O15	O	1.597257	-0.445434	-0.747788
O16	O	1.597054	-0.747632	-0.445674
O17	O	1.466877	-0.747566	-0.575873
C18	C	1.256627	-0.510609	-0.510776
C19	C	1.138797	-0.510624	-0.510788
C20	C	0.971206	-0.428363	-0.429333
C21	C	1.093766	-0.428576	-0.428974
C22	C	1.094277	-0.622301	-0.480273
C23	C	0.971678	-0.621852	-0.479717
C24	C	0.971648	-0.482269	-0.623072
C25	C	1.094254	-0.479774	-0.622448
C26	C	1.531980	-0.786064	-0.510791
C27	C	1.532044	-0.903894	-0.510821
C28	C	1.450487	-1.071460	-0.592982
C29	C	1.450070	-0.948901	-0.592717
C30	C	1.501798	-0.948501	-0.399099
C31	C	1.501300	-1.071099	-0.399597
C32	C	1.644345	-1.070982	-0.539475
C33	C	1.643657	-0.948374	-0.541918
C34	C	1.808562	-0.510660	-0.510838
C35	C	1.926392	-0.510671	-0.510851
C36	C	1.532136	-0.510519	-0.787312
C37	C	1.532170	-0.510470	-0.905142
C38	C	1.532164	-0.234129	-0.510844
C39	C	1.532209	-0.116299	-0.510861
C40	C	1.614439	-0.428797	-1.072727
C41	C	1.614175	-0.428502	-0.950167
C42	C	1.420488	-0.480110	-0.949620
C43	C	1.420988	-0.479490	-1.072218
C44	C	1.560678	-0.622622	-1.072340
C45	C	1.563121	-0.622058	-0.949734
C46	C	1.532039	-0.510672	-0.235377
C47	C	1.532210	-0.510423	-0.117547
H48	H	1.124912	-0.535349	-0.686433
O49	O	1.723877	-0.453656	-0.910326
H50	H	1.721164	-0.526501	-0.861389
O51	O	1.481345	-0.703181	-1.110735
H52	H	1.441098	-0.739749	-1.041790
H53	H	1.123358	-0.397592	-0.645458
O54	O	1.724501	-0.453634	-1.111813
H55	H	1.721778	-0.524418	-1.163606
O56	O	0.933254	-0.561662	-0.703537
H57	H	0.960517	-0.641905	-0.680675
H58	H	1.507584	-0.686148	-0.919082
O59	O	0.930354	-0.452928	-0.319816
H60	H	0.998065	-0.469000	-0.266349
O61	O	0.933727	-0.653735	-0.371043
H62	H	0.884852	-0.726386	-0.377277
H63	H	1.419328	-1.099792	-0.375357
H64	H	1.707750	-0.917732	-0.486462
O65	O	0.932395	-0.705838	-0.554922
H66	H	0.883681	-0.668397	-0.617602
O67	O	1.475054	-0.908931	-0.702464
H68	H	1.487548	-0.977169	-0.756205
O69	O	1.474931	-1.110915	-0.702982
H70	H	1.545635	-1.162838	-0.700317
O71	O	1.341048	-1.112369	-0.568192
H72	H	1.344606	-1.164497	-0.497635
O73	O	1.578133	-0.909897	-0.315823
H74	H	1.576101	-0.822201	-0.312785
O75	O	1.132917	-0.705712	-0.556444
H76	H	1.064108	-0.743497	-0.595684
O77	O	1.589782	-0.319299	-1.113517
H78	H	1.519217	-0.322760	-1.165575
O79	O	1.680892	-1.111815	-0.645558
H80	H	1.694102	-1.044162	-0.699947
O81	O	1.134886	-0.654759	-0.372773
H82	H	1.102870	-0.733848	-0.352080
O83	O	1.589222	-0.318408	-0.911322
H84	H	1.577283	-0.265173	-0.980104
O85	O	1.671989	-0.652387	-0.911228
H86	H	1.693280	-0.731335	-0.943089
O87	O	1.394345	-0.907970	-0.366400
H88	H	1.362311	-0.856071	-0.429532
H89	H	0.941742	-0.345301	-0.448254
O90	O	1.133633	-0.318874	-0.454290
H91	H	1.182592	-0.321620	-0.527109
O92	O	0.930737	-0.376278	-0.659838
H93	H	0.877685	-0.342657	-0.598529
O94	O	1.389035	-0.370851	-1.110129
H95	H	1.373377	-0.319250	-1.040897
H96	H	1.123043	-0.447349	-0.345814
H97	H	1.395915	-0.399009	-0.918925
H98	H	1.366938	-0.919667	-0.573760
H99	H	1.666466	-0.919214	-0.624140
O100	O	1.337067	-0.554801	-1.111504
H101	H	1.296301	-0.591496	-1.042933
O102	O	1.725056	-1.109625	-0.460427
H103	H	1.685558	-1.160829	-0.401022
O104	O	1.337111	-0.556422	-0.910979
H105	H	1.374477	-0.616941	-0.859537
O106	O	1.576701	-1.110409	-0.315774
H107	H	1.613353	-1.041850	-0.275056
O108	O	1.666705	-0.659216	-1.113299
H109	H	1.728763	-0.602211	-1.088741
