data_functionalizedCrystal
_audit_creation_method	'MofGen! by Chris Wilmer'
_symmetry_space_group_name_H-M	'P1'
_symmetry_Int_Tables_number	1
_symmetry_cell_setting	triclinic
loop_
_symmetry_equiv_pos_as_xyz
  x,y,z
_cell_length_a	6.817900
_cell_length_b	11.168129
_cell_length_c	17.329378
_cell_angle_alpha	90.470961
_cell_angle_beta	103.025558
_cell_angle_gamma	108.508637
loop_
_atom_site_label
_atom_site_type_symbol
_atom_site_fract_x
_atom_site_fract_y
_atom_site_fract_z
V1	V	-4.032097	-0.148895	-0.245035
O2	O	-3.993163	0.033713	-0.240363
O3	O	-4.008915	-0.320776	-0.243366
O4	O	-3.974463	-0.134951	-0.351900
O5	O	-4.027854	-0.153398	-0.131078
V6	V	-4.513653	-0.128430	-0.231404
O7	O	-4.297668	-0.193787	-0.274936
O8	O	-4.698279	-0.083538	-0.201503
O9	O	-4.313628	0.043451	-0.233073
O10	O	-4.669984	-0.311038	-0.236075
O11	O	-4.635293	-0.123927	-0.345361
O12	O	-4.348081	-0.142373	-0.124539
C13	C	-3.860350	-0.363041	-0.239502
C14	C	-3.922621	-0.503481	-0.238850
C15	C	-3.915282	-0.556162	-0.170164
C16	C	-3.979643	-0.701314	-0.169488
C17	C	-3.816401	-0.126002	-0.377947
C18	C	-3.850730	-0.115739	-0.465310
C19	C	-3.923070	-0.225369	-0.517580
C20	C	-3.955333	-0.215723	-0.599667
C21	C	-3.915240	-0.096446	-0.629481
C22	C	-3.842900	0.013192	-0.577204
C23	C	-3.810652	0.003545	-0.495120
C24	C	-4.009807	-0.061593	-0.876762
C25	C	-4.042055	-0.051954	-0.958854
C26	C	-4.154489	-0.280871	-0.981311
C27	C	-4.122224	-0.290507	-0.899223
C28	C	-4.049897	-0.180869	-0.846954
C29	C	-3.948210	-0.086584	-0.713386
C30	C	-4.016943	-0.190733	-0.763050
C31	C	-4.125537	0.085710	-0.236935
C32	C	-4.042503	0.226149	-0.237592
C33	C	-4.169485	-0.151327	-0.098488
C34	C	-4.114394	-0.161584	-0.011124
H35	H	-4.048675	-0.728517	-0.296400
H36	H	-3.973452	-0.746655	-0.110683
H37	H	-3.976559	-0.565840	-0.297154
O38	O	-3.961962	-0.341330	-0.488752
C39	C	-4.032549	-0.436016	-0.552489
H40	H	-4.102763	-0.397700	-0.609087
H41	H	-4.159632	-0.522081	-0.538729
H42	H	-3.892335	-0.464833	-0.561192
H43	H	-4.014245	-0.304996	-0.642223
O44	O	-4.161984	-0.406494	-0.870413
C45	C	-4.233035	-0.501200	-0.934158
H46	H	-4.302369	-0.462628	-0.990799
H47	H	-4.360924	-0.586930	-0.920506
H48	H	-4.093270	-0.530625	-0.942714
O49	O	-4.003130	0.064013	-0.987686
C50	C	-3.932346	0.158717	-0.923950
H51	H	-3.989275	0.116242	-0.870117
H52	H	-3.999701	0.238401	-0.941949
H53	H	-3.750829	0.198087	-0.908246
O54	O	-4.224843	-0.387242	-1.032198
C55	C	-4.244662	-0.353157	-1.111041
H56	H	-4.264200	-0.255515	-1.113992
H57	H	-4.390139	-0.425719	-1.151540
H58	H	-4.095679	-0.350674	-1.131344
O59	O	-3.939923	0.044863	-0.825977
C60	C	-4.091494	0.040532	-0.781625
H61	H	-4.254432	-0.025437	-0.815392
H62	H	-4.099707	0.139773	-0.772055
H63	H	-4.042910	0.003759	-0.721563
H64	H	-3.751750	0.092818	-0.452561
O65	O	-3.851334	-0.481841	-0.100593
C66	C	-4.016714	-0.513376	-0.060356
H67	H	-4.175772	-0.559856	-0.104875
H68	H	-4.019786	-0.423718	-0.029442
H69	H	-3.988314	-0.582051	-0.014214
H70	H	-3.810270	0.110310	-0.601486
O71	O	-4.055462	-0.306619	-0.734135
C72	C	-3.923741	-0.368166	-0.757198
H73	H	-3.873518	-0.326802	-0.812380
H74	H	-4.015078	-0.473840	-0.771058
H75	H	-3.776117	-0.353628	-0.706805
O76	O	-3.908920	0.029361	-0.742246
C77	C	-3.693233	0.102216	-0.711574
H78	H	-3.627913	0.064536	-0.653901
H79	H	-3.679747	0.205336	-0.699348
H80	H	-3.597631	0.095692	-0.756669
