data_functionalizedCrystal
_audit_creation_method	'MofGen! by Chris Wilmer'
_symmetry_space_group_name_H-M	'P1'
_symmetry_Int_Tables_number	1
_symmetry_cell_setting	triclinic
loop_
_symmetry_equiv_pos_as_xyz
  x,y,z
_cell_length_a	12.594517
_cell_length_b	12.594516
_cell_length_c	11.169409
_cell_angle_alpha	90.031702
_cell_angle_beta	89.976516
_cell_angle_gamma	89.973469
loop_
_atom_site_label
_atom_site_type_symbol
_atom_site_fract_x
_atom_site_fract_y
_atom_site_fract_z
Zn1	Zn	1.627211	0.423662	-0.678665
Zn2	Zn	2.127211	0.923662	-0.178665
Zn3	Zn	1.627062	0.601688	-0.477984
Zn4	Zn	2.127062	1.101688	0.022016
Zn5	Zn	1.449208	0.423723	-0.477987
Zn6	Zn	1.949208	0.923723	0.022013
Zn7	Zn	1.449164	0.601598	-0.678616
Zn8	Zn	1.949164	1.101598	-0.178616
O9	O	1.538161	0.512668	-0.578313
O10	O	2.038161	1.012668	-0.078313
O11	O	1.776137	0.447289	-0.652064
O12	O	2.276137	0.947289	-0.152064
O13	O	1.603425	0.578144	-0.310035
O14	O	2.103425	1.078144	0.189965
O15	O	1.472901	0.274769	-0.504629
O16	O	1.972901	0.774769	-0.004629
O17	O	1.776027	0.578084	-0.504624
O18	O	2.276027	1.078084	-0.004624
O19	O	1.603679	0.274724	-0.652066
O20	O	2.103679	0.774724	-0.152066
O21	O	1.472757	0.447394	-0.310037
O22	O	1.972757	0.947394	0.189963
O23	O	1.300256	0.447307	-0.504581
O24	O	1.800256	0.947307	-0.004581
O25	O	1.472826	0.577931	-0.846573
O26	O	1.972826	1.077931	-0.346573
O27	O	1.300224	0.577990	-0.651983
O28	O	1.800224	1.077990	-0.151983
O29	O	1.603636	0.447202	-0.846609
O30	O	2.103636	0.947202	-0.346609
O31	O	1.603382	0.750622	-0.504577
O32	O	2.103382	1.250622	-0.004577
O33	O	1.472681	0.750556	-0.651981
O34	O	1.972681	1.250556	-0.151981
C35	C	1.261620	0.512646	-0.578278
C36	C	1.761620	1.012646	-0.078278
C37	C	1.143315	0.512663	-0.578291
C38	C	1.643315	1.012663	-0.078291
C39	C	1.074048	0.441487	-0.498272
C40	C	1.574048	0.941487	0.001728
C41	C	1.003218	0.538578	-0.468755
C42	C	1.503218	1.038578	0.031245
C43	C	1.003346	0.415619	-0.607829
C44	C	1.503346	0.915619	-0.107829
C45	C	1.074043	0.609805	-0.548717
C46	C	1.574043	1.109805	-0.048717
C47	C	1.074176	0.486781	-0.687841
C48	C	1.574176	0.986781	-0.187841
C49	C	1.003378	0.583939	-0.658366
C50	C	1.503378	1.083939	-0.158366
C51	C	1.538040	0.789209	-0.578299
C52	C	2.038040	1.289209	-0.078299
C53	C	1.538085	0.907514	-0.578334
C54	C	2.038085	1.407514	-0.078334
C55	C	1.466977	0.976770	-0.658450
C56	C	1.966977	1.476770	-0.158450
C57	C	1.441027	1.047644	-0.548934
C58	C	1.941027	1.547644	-0.048934
C59	C	1.564093	1.047439	-0.687867
C60	C	2.064093	1.547439	-0.187867
C61	C	1.512084	0.976830	-0.468760
C62	C	2.012084	1.476830	0.031240
C63	C	1.635195	0.976619	-0.607767
C64	C	2.135195	1.476619	-0.107767
C65	C	1.609282	1.047461	-0.498176
C66	C	2.109282	1.547461	0.001824
C67	C	1.815782	0.512690	-0.578349
C68	C	2.315782	1.012690	-0.078349
C69	C	1.934087	0.512699	-0.578365
C70	C	2.434087	1.012699	-0.078365
C71	C	1.538243	0.512549	-0.891356
C72	C	2.038243	1.012549	-0.391356
C73	C	1.538278	0.512499	-1.024756
C74	C	2.038278	1.012499	-0.524756
C75	C	1.538265	1.235047	-0.578351
C76	C	2.038265	1.735047	-0.078351
C77	C	1.538190	1.116741	-0.578363
C78	C	2.038190	1.616741	-0.078363
C79	C	1.538141	0.512709	-0.266488
C80	C	2.038141	1.012709	0.233512
C81	C	1.538312	0.512459	-0.133089
C82	C	2.038312	1.012459	0.366911
H83	H	1.105368	0.464837	-0.780426
H84	H	1.605368	0.964837	-0.280426
H85	H	0.972052	0.560492	-0.376142
H86	H	1.472052	1.060492	0.123858
H87	H	0.972544	0.644215	-0.726067
H88	H	1.472544	1.144215	-0.226067
H89	H	1.490033	0.945942	-0.376116
H90	H	1.990033	1.445942	0.123884
H91	H	1.669460	1.078304	-0.430358
H92	H	2.169460	1.578304	0.069642
H93	H	1.104968	0.691913	-0.523662
H94	H	1.604968	1.191913	-0.023662
H95	H	0.972235	0.333546	-0.632740
H96	H	1.472235	0.833546	-0.132740
H97	H	1.406753	0.945730	-0.726103
H98	H	1.906753	1.445730	-0.226103
H99	H	1.717251	0.945401	-0.632689
H100	H	2.217251	1.445401	-0.132689
H101	H	1.358953	1.078865	-0.524064
H102	H	1.858953	1.578865	-0.024064
H103	H	1.105078	0.381354	-0.430519
H104	H	1.605078	0.881354	0.069481
H105	H	1.586049	1.078456	-0.780485
H106	H	2.086049	1.578456	-0.280485
