data_functionalizedCrystal
_audit_creation_method	'MofGen! by Chris Wilmer'
_symmetry_space_group_name_H-M	'P1'
_symmetry_Int_Tables_number	1
_symmetry_cell_setting	triclinic
loop_
_symmetry_equiv_pos_as_xyz
  x,y,z
_cell_length_a	17.000383
_cell_length_b	17.038272
_cell_length_c	9.130313
_cell_angle_alpha	89.995195
_cell_angle_beta	89.993268
_cell_angle_gamma	83.355929
loop_
_atom_site_label
_atom_site_type_symbol
_atom_site_fract_x
_atom_site_fract_y
_atom_site_fract_z
O1	O	1.057998	0.028052	-0.121900
O2	O	1.557998	0.528052	0.378100
O3	O	0.828179	0.056295	-0.121882
O4	O	1.328179	0.556295	0.378118
O5	O	0.941723	-0.071548	-0.121879
O6	O	1.441723	0.428452	0.378121
O7	O	0.944454	0.155895	-0.121903
O8	O	1.444454	0.655895	0.378097
O9	O	0.941714	-0.071551	0.121719
O10	O	1.441714	0.428449	0.621719
O11	O	0.828170	0.056292	0.121717
O12	O	1.328170	0.556292	0.621717
O13	O	1.057990	0.028049	0.121698
O14	O	1.557990	0.528049	0.621698
Cu15	Cu	0.943079	0.042170	0.143950
Cu16	Cu	1.443079	0.542170	0.643950
Cu17	Cu	0.943089	0.042174	-0.144134
Cu18	Cu	1.443089	0.542174	0.355866
O19	O	0.944446	0.155893	0.121696
O20	O	1.444446	0.655893	0.621696
C21	C	0.798624	0.057810	-0.000080
C22	C	1.298624	0.557810	0.499920
C23	C	0.710571	0.062321	-0.000073
C24	C	1.210571	0.562321	0.499927
C25	C	0.939234	-0.100508	-0.000080
C26	C	1.439234	0.399492	0.499920
C27	C	0.931821	-0.186793	-0.000080
C28	C	1.431821	0.313207	0.499920
C29	C	0.212326	0.091445	-0.000130
C30	C	0.712326	0.591445	0.499870
C31	C	0.295061	0.087201	-0.000129
C32	C	0.795061	0.587201	0.499871
C33	C	0.341068	0.013535	-0.000110
C34	C	0.841068	0.513535	0.499890
C35	C	0.304335	-0.055892	-0.000108
C36	C	0.804335	0.444108	0.499892
C37	C	0.221601	-0.051647	-0.000120
C38	C	0.721601	0.448353	0.499880
C39	C	0.591103	-0.002861	-0.000083
C40	C	1.091103	0.497139	0.499917
C41	C	0.673843	-0.007101	-0.000066
C42	C	1.173843	0.492899	0.499934
C43	C	0.664564	0.135993	-0.000090
C44	C	1.164564	0.635993	0.499910
C45	C	0.581828	0.140231	-0.000093
C46	C	1.081828	0.640231	0.499907
C47	C	0.545103	0.070804	-0.000098
C48	C	1.045103	0.570804	0.499902
C49	C	0.425637	0.009195	-0.000104
C50	C	0.925637	0.509195	0.499896
C51	C	0.460535	0.075145	-0.000115
C52	C	0.960535	0.575145	0.499885
C53	C	0.999879	-0.241568	-0.000084
C54	C	1.499879	0.258432	0.499916
C55	C	0.992910	-0.322641	-0.000097
C56	C	1.492910	0.177359	0.499903
C57	C	0.917881	-0.348938	-0.000096
C58	C	1.417881	0.151062	0.499904
C59	C	0.849817	-0.294156	-0.000096
C60	C	1.349817	0.205844	0.499904
C61	C	0.856788	-0.213085	-0.000094
C62	C	1.356788	0.286915	0.499906
C63	C	0.893255	-0.593009	-0.000114
C64	C	1.393255	-0.093009	0.499886
C65	C	0.886289	-0.674088	-0.000113
C66	C	1.386289	-0.174088	0.499887
C67	C	1.029382	-0.702567	-0.000116
C68	C	1.529382	-0.202567	0.499884
C69	C	1.036346	-0.621493	-0.000104
C70	C	1.536346	-0.121493	0.499896
C71	C	0.968283	-0.566718	-0.000112
C72	C	1.468283	-0.066718	0.499888
C73	C	0.910755	-0.431807	-0.000105
C74	C	1.410755	0.068193	0.499895
C75	C	0.975410	-0.483850	-0.000114
C76	C	1.475410	0.016150	0.499886
C77	C	1.087545	0.026534	-0.000107
C78	C	1.587545	0.526534	0.499893
C79	C	1.175598	0.022024	-0.000124
C80	C	1.675598	0.522024	0.499876
C81	C	0.946935	0.184852	-0.000107
C82	C	1.446935	0.684852	0.499893
C83	C	0.954348	0.271137	-0.000117
C84	C	1.454348	0.771137	0.499883
N85	N	0.943078	0.042167	0.346573
N86	N	1.443078	0.542167	0.846573
N87	N	0.943097	0.042171	-0.346756
N88	N	1.443097	0.542171	0.153244
C89	C	0.993375	-0.014421	0.423226
C90	C	1.493375	0.485579	0.923226
C91	C	0.993382	-0.014421	0.576563
C92	C	1.493382	0.485579	1.076563
C93	C	0.892794	0.098762	0.576580
C94	C	1.392794	0.598762	1.076580
C95	C	0.892783	0.098758	0.423246
C96	C	1.392783	0.598758	0.923246
H97	H	0.174873	0.151432	-0.000134
H98	H	0.674873	0.651432	0.499866
F99	F	0.474608	-0.069204	-0.000072
F100	F	0.974608	0.430796	0.499928
H101	H	0.849666	-0.453227	-0.000101
H102	H	1.349666	0.046773	0.499899
F103	F	0.722806	-0.085510	-0.000048
F104	F	1.222806	0.414490	0.499952
H105	H	0.694475	0.192516	-0.000087
H106	H	1.194475	0.692516	0.499913
F107	F	0.532870	0.218637	-0.000122
F108	F	1.032870	0.718637	0.499878
F109	F	0.820815	-0.534724	-0.000127
F110	F	1.320815	-0.034724	0.499873
H111	H	0.825189	-0.695494	-0.000088
H112	H	1.325189	-0.195494	0.499912
H113	H	0.561212	-0.059393	-0.000083
H114	H	1.061212	0.440607	0.499917
F115	F	1.101815	-0.760867	-0.000109
F116	F	1.601815	-0.260867	0.499891
F117	F	1.046913	-0.074651	0.658137
F118	F	1.546913	0.425349	1.158137
F119	F	0.353301	-0.134293	-0.000093
F120	F	0.853301	0.365707	0.499907
F121	F	0.334145	0.161089	-0.000143
F122	F	0.834145	0.661089	0.499857
F123	F	1.065347	-0.380934	-0.000099
F124	F	1.565347	0.119066	0.499901
F125	F	1.046901	-0.074652	0.341630
F126	F	1.546901	0.425348	0.841630
H127	H	0.191699	-0.108177	-0.000117
H128	H	0.691699	0.391823	0.499883
H129	H	0.851846	0.144837	0.639023
H130	H	1.351846	0.644837	1.139023
H131	H	0.423073	0.135124	-0.000137
H132	H	0.923073	0.635124	0.499863
H133	H	0.788727	-0.315573	-0.000105
H134	H	1.288727	0.184427	0.499895
H135	H	0.801367	-0.168486	-0.000091
H136	H	1.301367	0.331514	0.499909
F137	F	1.079736	-0.213589	-0.000071
F138	F	1.579736	0.286411	0.499929
H139	H	1.036498	-0.462436	-0.000147
H140	H	1.536498	0.037564	0.499853
H141	H	1.097443	-0.600089	-0.000105
H142	H	1.597443	-0.100089	0.499895
F143	F	0.839245	0.158987	0.341660
F144	F	1.339245	0.658987	0.841660
