data_functionalizedCrystal
_audit_creation_method	'MofGen! by Chris Wilmer'
_symmetry_space_group_name_H-M	'P1'
_symmetry_Int_Tables_number	1
_symmetry_cell_setting	triclinic
loop_
_symmetry_equiv_pos_as_xyz
  x,y,z
_cell_length_a	16.120490
_cell_length_b	18.215405
_cell_length_c	18.215399
_cell_angle_alpha	90.030875
_cell_angle_beta	87.087627
_cell_angle_gamma	92.879060
loop_
_atom_site_label
_atom_site_type_symbol
_atom_site_fract_x
_atom_site_fract_y
_atom_site_fract_z
Zn1	Zn	1.274488	0.350159	-0.473060
Zn2	Zn	1.774488	0.850159	0.026940
Zn3	Zn	1.274382	0.473230	-0.349988
Zn4	Zn	1.774382	0.973230	0.150012
Zn5	Zn	1.135078	0.343932	-0.343778
Zn6	Zn	1.635078	0.843932	0.156222
Zn7	Zn	1.135023	0.466931	-0.466786
Zn8	Zn	1.635023	0.966931	0.033214
O9	O	1.204743	0.408563	-0.408403
O10	O	1.704743	0.908563	0.091597
O11	O	1.391139	0.371727	-0.461958
O12	O	1.891139	0.871727	0.038042
O13	O	1.255882	0.456109	-0.246179
O14	O	1.755882	0.956109	0.253821
O15	O	1.153639	0.241777	-0.360954
O16	O	1.653639	0.741777	0.139046
O17	O	1.391062	0.462147	-0.371538
O18	O	1.891062	0.962147	0.128462
O19	O	1.256062	0.246351	-0.455937
O20	O	1.756062	0.746351	0.044063
O21	O	1.153536	0.361114	-0.241616
O22	O	1.653536	0.861114	0.258384
O23	O	1.018406	0.355005	-0.354871
O24	O	1.518406	0.855005	0.145129
O25	O	1.153545	0.451410	-0.570603
O26	O	1.653545	0.951410	-0.070603
O27	O	1.018365	0.445372	-0.445244
O28	O	1.518365	0.945372	0.054756
O29	O	1.256009	0.365618	-0.575213
O30	O	1.756009	0.865618	-0.075213
O31	O	1.255829	0.575376	-0.365454
O32	O	1.755829	1.075376	0.134546
O33	O	1.153442	0.570747	-0.451265
O34	O	1.653442	1.070747	0.048735
C35	C	0.988136	0.398830	-0.398703
C36	C	1.488136	0.898830	0.101297
C37	C	0.895470	0.394684	-0.394571
C38	C	1.395470	0.894684	0.105429
C39	C	0.684523	0.430064	-0.429838
C40	C	1.184523	0.930064	0.070162
C41	C	0.725814	0.387121	-0.387026
C42	C	1.225814	0.887121	0.112974
C43	C	0.820219	0.391330	-0.391225
C44	C	1.320219	0.891330	0.108775
C45	C	0.590109	0.425855	-0.425639
C46	C	1.090109	0.925855	0.074361
C47	C	1.204641	0.599765	-0.408370
C48	C	1.704641	1.099765	0.091630
C49	C	1.204673	0.681565	-0.408384
C50	C	1.704673	1.181565	0.091616
C51	C	1.258008	0.872080	-0.457902
C52	C	1.758008	1.372080	0.042098
C53	C	1.258030	0.948940	-0.457915
C54	C	1.758030	1.448940	0.042085
C55	C	1.151464	0.944293	-0.358932
C56	C	1.651464	1.444293	0.141068
C57	C	1.151439	0.867435	-0.358923
C58	C	1.651439	1.367435	0.141077
C59	C	1.204716	0.831330	-0.408407
C60	C	1.704716	1.331330	0.091593
C61	C	1.204762	0.985048	-0.408430
C62	C	1.704762	1.485048	0.091570
C63	C	1.204785	1.068383	-0.408444
C64	C	1.704785	1.568383	0.091556
C65	C	1.204692	0.747990	-0.408394
C66	C	1.704692	1.247990	0.091606
C67	C	1.422196	0.418334	-0.418141
C68	C	1.922196	0.918334	0.081859
C69	C	1.514862	0.422498	-0.422290
C70	C	2.014862	0.922498	0.077710
C71	C	1.204782	0.408506	-0.600358
C72	C	1.704782	0.908506	-0.100358
C73	C	1.204799	0.408482	-0.682157
C74	C	1.704799	0.908482	-0.182157
C75	C	1.204839	1.216614	-0.408448
C76	C	1.704839	1.716614	0.091552
C77	C	1.204805	1.134814	-0.408453
C78	C	1.704805	1.634814	0.091547
C79	C	1.151553	0.358988	-0.867979
C80	C	1.651553	0.858988	-0.367979
C81	C	1.151567	0.358974	-0.944838
C82	C	1.651567	0.858974	-0.444838
C83	C	1.258145	0.457892	-0.949578
C84	C	1.758145	0.957892	-0.449578
C85	C	1.258126	0.457909	-0.872720
C86	C	1.758126	0.957909	-0.372720
C87	C	1.204831	0.408453	-0.831922
C88	C	1.704831	0.908453	-0.331922
C89	C	1.204865	0.408422	-0.985640
C90	C	1.704865	0.908422	-0.485640
C91	C	1.204881	0.408407	-1.068974
C92	C	1.704881	0.908407	-0.568974
C93	C	1.204813	0.408469	-0.748582
C94	C	1.704813	0.908469	-0.248582
C95	C	1.204752	0.408569	-0.217197
C96	C	1.704752	0.908569	0.282803
C97	C	1.204896	0.408393	-0.135405
C98	C	1.704896	0.908393	0.364595
H99	H	0.690264	0.347195	-0.347220
H100	H	1.190264	0.847195	0.152780
F101	F	1.314747	0.992305	-0.510598
F102	F	1.814747	1.492305	-0.010598
H103	H	1.108089	0.973699	-0.318643
H104	H	1.608089	1.473699	0.181357
H105	H	1.108038	0.834254	-0.318618
H106	H	1.608038	1.334254	0.181382
H107	H	0.720071	0.469986	-0.469640
H108	H	1.220071	0.969986	0.030360
H109	H	1.301389	0.842686	-0.498196
H110	H	1.801389	1.342686	0.001804
H111	H	1.108182	0.318695	-0.974192
H112	H	1.608182	0.818695	-0.474192
F113	F	1.094829	0.306354	-0.824561
F114	F	1.594829	0.806354	-0.324561
F115	F	1.314864	0.510523	-0.993004
F116	F	1.814864	1.010523	-0.493004
F117	F	1.314832	0.510562	-0.834344
F118	F	1.814832	1.010562	-0.334344
