data_functionalizedCrystal
_audit_creation_method	'MofGen! by Chris Wilmer'
_symmetry_space_group_name_H-M	'P1'
_symmetry_Int_Tables_number	1
_symmetry_cell_setting	triclinic
loop_
_symmetry_equiv_pos_as_xyz
  x,y,z
_cell_length_a	14.446369
_cell_length_b	20.875641
_cell_length_c	20.875641
_cell_angle_alpha	60.089808
_cell_angle_beta	90.002056
_cell_angle_gamma	62.438463
loop_
_atom_site_label
_atom_site_type_symbol
_atom_site_fract_x
_atom_site_fract_y
_atom_site_fract_z
Zr1	Zr	0.934142	0.694313	-0.105746
O2	O	0.798485	0.820558	-0.209014
O3	O	0.970653	0.563057	-0.070814
O4	O	0.984286	0.687080	-0.204286
O5	O	0.779872	0.703989	0.026017
O6	O	1.136622	0.687074	-0.204282
O7	O	0.784852	0.696536	-0.075542
O8	O	1.112236	0.465220	0.034475
O9	O	0.804259	0.925843	-0.212740
O10	O	1.106044	0.618896	-0.059870
O11	O	0.988640	0.624463	0.015919
O12	O	1.004691	0.770484	-0.141226
O13	O	0.887287	0.776051	-0.065437
Zr14	Zr	1.169159	0.706192	0.056235
Zr15	Zr	1.177102	0.694305	-0.105740
Zr16	Zr	0.926200	0.706201	0.056229
Zr17	Zr	0.943351	0.862231	-0.111689
Zr18	Zr	1.159951	0.538275	0.062177
O19	O	1.132649	0.837449	0.021302
O20	O	1.143942	0.820546	-0.209005
O21	O	0.787192	0.837461	0.021293
O22	O	1.304817	0.579947	0.159503
O23	O	1.316110	0.563044	-0.070805
O24	O	0.959360	0.579959	0.159494
O25	O	1.323429	0.696516	-0.075528
O26	O	1.119016	0.713426	0.154774
O27	O	0.966680	0.713431	0.154770
O28	O	1.318450	0.703970	0.026031
O29	O	0.997379	0.925836	-0.212735
O30	O	1.105923	0.474669	0.163223
O31	O	1.299043	0.474662	0.163228
O32	O	1.305356	0.465213	0.034480
O33	O	0.797946	0.935292	-0.083991
O34	O	0.991066	0.935285	-0.083986
O35	O	1.098611	0.630021	0.091715
O36	O	1.216015	0.624455	0.015925
O37	O	1.114662	0.776042	-0.065431
O38	O	0.997258	0.781609	0.010358
C39	C	1.040133	0.490214	-0.017323
C40	C	1.036223	0.418928	-0.014800
C41	C	1.095667	0.382533	-0.053176
C42	C	1.091996	0.315548	-0.050799
C43	C	1.028875	0.284965	-0.010049
C44	C	0.969429	0.321364	0.028332
C45	C	0.973107	0.388343	0.025958
C46	C	1.011310	0.084955	0.001296
C47	C	1.007635	0.017973	0.003665
C48	C	1.130204	0.012161	-0.075465
C49	C	1.133871	0.079145	-0.077839
C50	C	1.074430	0.115534	-0.039454
N51	N	1.025119	0.216498	-0.007620
N52	N	1.078193	0.183996	-0.041880
C53	C	0.747746	0.700264	-0.024764
C54	C	0.644603	0.700267	-0.024766
C55	C	0.434001	0.795881	-0.075837
C56	C	0.541250	0.795928	-0.076106
C57	C	0.640290	0.648478	-0.057892
C58	C	0.532572	0.649081	-0.058263
C59	C	0.528052	0.655679	0.059517
C60	C	0.634130	0.657537	0.059321
C61	C	1.355556	0.700242	-0.024748
C62	C	1.458699	0.700238	-0.024745
C63	C	1.061585	0.685383	-0.227362
C64	C	1.064957	0.680336	-0.296124
C65	C	1.063169	0.910292	-0.032189
C66	C	1.067079	0.981577	-0.034711
C67	C	1.013638	0.757091	-0.370896
C68	C	1.016820	0.752344	-0.435503
C69	C	1.071316	0.670842	-0.425337
C70	C	1.122642	0.594082	-0.350557
C71	C	1.119465	0.598830	-0.285952
C72	C	1.086495	0.648157	-0.614002
C73	C	1.089664	0.643415	-0.678615
C74	C	0.983844	0.801677	-0.763557
C75	C	0.980667	0.806418	-0.698947
C76	C	1.031998	0.729658	-0.624173
N77	N	1.074567	0.665987	-0.491374
N78	N	1.028752	0.734513	-0.558137
C79	C	1.041716	0.715122	0.177850
C80	C	1.038345	0.720169	0.246613
C81	C	1.344038	0.490203	-0.017315
C82	C	1.443271	0.418914	-0.014790
C83	C	1.030198	0.505083	0.185283
C84	C	1.022917	0.438845	0.256568
C85	C	1.334103	0.505072	0.185291
C86	C	1.429965	0.438830	0.256579
C87	C	0.769199	0.895433	-0.234802
C88	C	0.673337	0.961675	-0.306090
C89	C	0.759264	0.910303	-0.032197
C90	C	0.660031	0.981592	-0.034722
C91	C	1.073104	0.895422	-0.234795
C92	C	1.080385	0.961661	-0.306080
C93	C	1.432469	0.382534	-0.053175
C94	C	1.525701	0.315558	-0.050818
C95	C	1.629734	0.284960	-0.010070
C96	C	1.640534	0.321347	0.028316
C97	C	1.547303	0.388325	0.025954
C98	C	1.076901	0.410640	0.329616
C99	C	1.070056	0.348412	0.396602
C100	C	1.009232	0.314384	0.390539
C101	C	0.955242	0.342595	0.317483
C102	C	0.962081	0.404827	0.250499
C103	C	1.536276	0.404816	0.250495
C104	C	1.626358	0.342583	0.317471
C105	C	1.610127	0.314361	0.390530
C106	C	1.503805	0.348381	0.396612
C107	C	1.413725	0.410617	0.329637
C108	C	0.567026	0.995697	-0.300007
C109	C	0.476945	1.057951	-0.366984
C110	C	0.493177	1.086177	-0.440043
C111	C	0.599499	1.052152	-0.446125
C112	C	0.689578	0.989905	-0.379149
C113	C	0.670834	1.017978	0.003656
C114	C	0.577604	1.084971	0.001281
C115	C	0.473571	1.115571	-0.039469
C116	C	0.462770	1.079182	-0.077852
C117	C	0.556000	1.012195	-0.075481
C118	C	1.141217	0.995669	-0.299992
C119	C	1.148080	1.057899	-0.366965
C120	C	1.094103	1.086124	-0.440026
C121	C	1.033268	1.052109	-0.446113
C122	C	1.026412	0.989876	-0.379140
H123	H	1.185269	0.104044	-0.111020
H124	H	0.918124	0.427782	0.191023
C125	C	1.732281	0.211279	-0.007468
H126	H	1.795792	0.198264	0.022294
H127	H	1.728367	0.160581	0.015559
H128	H	1.735953	0.229543	-0.058657
C129	C	1.101643	1.154586	-0.513690
H130	H	1.145596	1.170800	-0.499594
H131	H	1.133645	1.130496	-0.542148
H132	H	1.030331	1.204712	-0.544768
C133	C	0.544108	0.972164	-0.117689
H134	H	0.614526	0.927888	-0.110448
H135	H	0.501441	0.947481	-0.097222
H136	H	0.509029	1.016434	-0.171445
C137	C	1.554152	0.435852	0.170139
H138	H	1.630375	0.406682	0.176119
H139	H	1.519536	0.422903	0.143675
H140	H	1.523594	0.497123	0.141054
C141	C	1.709221	0.245895	0.464197
H142	H	1.774858	0.229677	0.450103
H143	H	1.709013	0.269984	0.492655
H144	H	1.704937	0.195772	0.495272
H145	H	0.969254	0.823459	-0.379184
H146	H	0.384105	0.830161	-0.137676
C147	C	0.589498	1.124990	0.043503
H148	H	0.519080	1.169278	0.036249
H149	H	0.624572	1.080724	0.097255
H150	H	0.632169	1.149676	0.023036
H151	H	0.918040	0.296454	0.061516
C152	C	0.371028	1.189254	-0.042070
H153	H	0.392370	1.206532	-0.013369
H154	H	0.332517	1.237821	-0.094323
H155	H	0.324942	1.168855	-0.020103
H156	H	0.378054	1.104107	-0.111030
C157	C	1.129453	0.317384	0.476954
H158	H	1.116664	0.275456	0.515984
H159	H	1.205815	0.291666	0.483543
H160	H	1.102505	0.365896	0.480909
H161	H	1.185173	0.972698	-0.240508
H162	H	0.755534	0.993069	0.036845
C163	C	1.195596	-0.027878	-0.117674
H164	H	1.184376	-0.072154	-0.110420
H165	H	1.171486	0.016382	-0.171427
H166	H	1.271283	-0.052582	-0.097200
H167	H	1.197616	1.085587	-0.361995
H168	H	1.161255	0.536328	-0.225069
C169	C	0.927397	0.886105	-0.845805
H170	H	0.937099	0.871608	-0.882828
H171	H	0.851448	0.919401	-0.852673
H172	H	0.958840	0.919389	-0.852661
H173	H	0.390381	1.085644	-0.362017
H174	H	0.989322	1.075100	-0.505608
C175	C	1.485964	0.317322	0.476980
H176	H	1.554843	0.275377	0.515991
H177	H	1.448056	0.365811	0.480962
H178	H	1.443999	0.291595	0.483574
C179	C	0.549151	0.964670	-0.219651
H180	H	0.472930	0.993864	-0.225632
H181	H	0.579694	0.903405	-0.190557
H182	H	0.583782	0.977623	-0.193196
H183	H	0.956228	-0.006924	0.036848
H184	H	1.167019	0.527721	-0.342284
C185	C	1.296787	0.448016	0.336339
H186	H	1.300032	0.422283	0.389444
H187	H	1.261116	0.509525	0.310545
H188	H	1.257076	0.435293	0.313176
H189	H	1.712923	0.314890	0.312505
H190	H	0.924698	0.417978	0.057206
C191	C	0.959478	0.952484	-0.385847
H192	H	0.928308	0.978219	-0.438953
H193	H	1.006057	0.890975	-0.360052
H194	H	0.902755	0.965210	-0.362686
C195	C	0.471169	0.690320	-0.141915
H196	H	0.404931	0.691045	-0.142878
H197	H	0.455023	0.748423	-0.174054
H198	H	0.515674	0.656917	-0.160416
C199	C	1.165106	0.416165	-0.097998
H200	H	1.199992	0.384886	-0.120505
H201	H	1.119196	0.476654	-0.137678
H202	H	1.218994	0.407682	-0.063451
C203	C	0.394082	1.154636	-0.513709
H204	H	0.328445	1.170843	-0.499615
H205	H	0.398355	1.204759	-0.544797
H206	H	0.394300	1.130528	-0.542155
H207	H	1.140401	0.285915	-0.082047
C208	C	0.888355	0.305149	0.310824
H209	H	0.892033	0.264039	0.361184
H210	H	0.814228	0.351251	0.282277
H211	H	0.917563	0.277033	0.284915
C212	C	0.617339	1.083200	-0.526492
H213	H	0.548459	1.125136	-0.565503
H214	H	0.659318	1.108914	-0.533098
H215	H	0.655231	1.034696	-0.530461
C216	C	0.561029	0.554044	-0.011004
H217	H	0.495451	0.553769	-0.010909
H218	H	0.602589	0.524950	-0.033669
H219	H	0.602593	0.524787	0.040724
C220	C	0.738437	0.553246	-0.009850
H221	H	0.783026	0.544205	0.030932
H222	H	0.712645	0.514769	0.011367
H223	H	0.780206	0.542018	-0.042212
H224	H	0.776139	0.962204	-0.384111
H225	H	0.962914	0.114572	0.032555
H226	H	1.725250	0.296423	0.061492
H227	H	1.126430	0.438339	0.334567
C228	C	0.649677	0.688712	-0.140734
H229	H	0.656225	0.737055	-0.155256
H230	H	0.712481	0.646056	-0.142490
H231	H	0.586095	0.707867	-0.175570
C232	C	1.513806	0.275535	-0.093036
H233	H	1.584226	0.231268	-0.085805
H234	H	1.471152	0.250840	-0.072565
H235	H	1.478715	0.319810	-0.146790
C236	C	0.460909	0.701427	0.097346
H237	H	0.389943	0.748136	0.062099
H238	H	0.454757	0.660646	0.143024
H239	H	0.496595	0.723745	0.110233
H240	H	0.540481	0.836454	-0.054274
C241	C	1.318043	0.416185	-0.098002
H242	H	1.264053	0.461282	-0.093912
H243	H	1.313529	0.438499	-0.150977
H244	H	1.305948	0.369531	-0.076762
H245	H	0.381038	0.836496	-0.053943
H246	H	1.128292	0.585654	-0.553126
H247	H	0.543918	0.830326	-0.138318
C248	C	0.634383	0.708598	0.092803
H249	H	0.640849	0.755759	0.055700
H250	H	0.567989	0.730768	0.104832
H251	H	0.694495	0.670764	0.138531
C252	C	1.559193	0.428339	0.068180
H253	H	1.488776	0.472617	0.060937
H254	H	1.594282	0.384066	0.121930
H255	H	1.601852	0.453034	0.047709
H256	H	0.975033	0.814845	-0.496384
H257	H	0.707436	0.588006	0.100318
C258	C	0.920721	0.896070	-0.710135
H259	H	0.890617	0.941104	-0.763921
H260	H	0.863594	0.901210	-0.686700
H261	H	0.970976	0.901212	-0.686696
H262	H	0.549740	0.585265	0.097723
H263	H	1.003672	0.263712	0.445088
C264	C	1.149614	0.553761	-0.667433
H265	H	1.144140	0.561930	-0.716620
H266	H	1.224524	0.522024	-0.639396
H267	H	1.117139	0.522026	-0.639395
