data_functionalizedCrystal
_audit_creation_method	'MofGen! by Chris Wilmer'
_symmetry_space_group_name_H-M	'P1'
_symmetry_Int_Tables_number	1
_symmetry_cell_setting	triclinic
loop_
_symmetry_equiv_pos_as_xyz
  x,y,z
_cell_length_a	13.185408
_cell_length_b	15.944551
_cell_length_c	12.376457
_cell_angle_alpha	101.276265
_cell_angle_beta	82.594262
_cell_angle_gamma	67.736119
loop_
_atom_site_label
_atom_site_type_symbol
_atom_site_fract_x
_atom_site_fract_y
_atom_site_fract_z
O1	O	1.467842	-0.239627	-0.093908
O2	O	1.150356	-0.154492	-0.093932
O3	O	1.317767	-0.321292	-0.093910
O4	O	1.300432	-0.072826	-0.093931
O5	O	1.275929	-0.279639	0.094097
O6	O	1.108519	-0.112839	0.094074
O7	O	1.426005	-0.197974	0.094098
Zn8	Zn	1.260619	-0.148793	0.123936
Zn9	Zn	1.315742	-0.203672	-0.123770
O10	O	1.258594	-0.031174	0.094075
C11	C	1.088810	-0.125034	0.000068
C12	C	0.967754	-0.099328	0.000059
C13	C	0.897893	-0.007793	0.000049
C14	C	0.784150	0.016366	0.000057
C15	C	0.740259	-0.051008	0.000066
C16	C	0.810122	-0.142546	0.000069
C17	C	0.923874	-0.166706	0.000069
C18	C	0.766241	-0.209921	0.000087
C19	C	0.836104	-0.301459	0.000089
C20	C	0.949844	-0.325615	0.000089
C21	C	0.993735	-0.258240	0.000080
C22	C	0.652489	-0.185761	0.000086
C23	C	0.678470	-0.344674	0.000107
C24	C	0.792213	-0.368833	0.000099
C25	C	1.296128	-0.331596	0.000094
C26	C	1.293970	-0.424355	0.000094
C27	C	1.185045	-0.614588	0.000070
C28	C	1.214999	-0.666503	0.092773
C29	C	1.290068	-0.594200	0.000085
C30	C	1.256273	-0.707559	-0.092587
C31	C	1.286292	-0.758261	0.000072
C32	C	1.320034	-0.644877	0.092864
C33	C	1.361311	-0.685941	-0.092579
C34	C	1.391337	-0.737852	0.000146
C35	C	1.292240	-0.499687	0.000094
C36	C	1.284126	-0.852772	0.000071
C37	C	1.487551	-0.227431	0.000095
C38	C	1.608609	-0.253140	0.000097
C39	C	1.280233	-0.020869	0.000069
C40	C	1.282393	0.071887	0.000061
N41	N	1.223007	-0.111342	0.292989
N42	N	1.353363	-0.241132	-0.292824
C43	C	1.440672	-0.328085	0.648004
C44	C	1.466991	-0.354296	0.529668
C45	C	1.405997	-0.293560	0.470492
C46	C	1.318680	-0.206608	0.529665
C47	C	1.292365	-0.180391	0.648013
C48	C	1.257689	-0.145866	0.470501
C49	C	1.170373	-0.058914	0.529673
C50	C	1.144061	-0.032702	0.648010
C51	C	1.205055	-0.093438	0.707185
C52	C	1.284005	-0.172083	0.352153
C53	C	1.135697	-0.024389	0.352162
C54	C	1.109379	0.001823	0.470498
H55	H	0.849111	-0.443365	0.000101
O56	O	1.017706	-0.414588	-0.000100
C57	C	1.019453	-0.478597	-0.097449
H58	H	0.995729	-0.440546	-0.165513
H59	H	1.107419	-0.537767	-0.130126
H60	H	0.956628	-0.509238	-0.075429
H61	H	1.423135	-0.693209	-0.170949
O62	O	0.635679	-0.410027	0.000061
C63	C	0.520299	-0.369071	0.000082
H64	H	0.501524	-0.305373	-0.035519
H65	H	0.497508	-0.422725	-0.054497
H66	H	0.468567	-0.345997	0.090278
O67	O	0.716126	0.105243	0.000091
C68	C	0.606328	0.112114	0.000063
H69	H	0.594032	0.055020	0.035673
H70	H	0.542659	0.184135	0.054631
H71	H	0.593505	0.102743	-0.090136
O72	O	1.076522	0.034490	0.294517
C73	C	1.118489	-0.007284	0.177378
H74	H	1.162833	-0.086840	0.161221
H75	H	1.045911	0.010732	0.132407
H76	H	1.180654	0.020476	0.143784
O77	O	1.080963	-0.551300	0.000366
C78	C	1.004199	-0.540178	0.098270
H79	H	1.051672	-0.561262	0.166247
H80	H	0.940908	-0.463544	0.130615
H81	H	0.957943	-0.586731	0.077116
O82	O	1.551801	-0.438808	0.472367
C83	C	1.600011	-0.486785	0.549968
H84	H	1.536545	-0.458962	0.634330
H85	H	1.624252	-0.565193	0.515780
H86	H	1.678218	-0.474998	0.562542
O87	O	1.352283	-0.612230	0.186351
C88	C	1.451213	-0.600223	0.153281
H89	H	1.458004	-0.591321	0.063822
H90	H	1.448270	-0.535044	0.213763
H91	H	1.527360	-0.664594	0.155519
O92	O	1.224101	-0.740134	-0.186170
C93	C	1.202517	-0.674485	-0.251228
H94	H	1.250025	-0.628890	-0.230652
H95	H	1.231599	-0.713410	-0.344886
H96	H	1.108477	-0.628074	-0.230754
H97	H	1.355098	-0.242879	0.303985
O98	O	1.059175	0.051688	0.705614
C99	C	0.976667	0.037043	0.774060
H100	H	1.016157	-0.034555	0.791793
H101	H	0.940910	0.094430	0.857274
H102	H	0.906216	0.039414	0.728461
H103	H	1.153138	-0.659206	0.171139
H104	H	1.427429	-0.314905	0.374137
H105	H	1.478577	-0.790725	0.000205
O106	O	1.104243	-0.281628	-0.000078
C107	C	1.156779	-0.267711	-0.097474
H108	H	1.090862	-0.214592	-0.129941
H109	H	1.221617	-0.239956	-0.075588
H110	H	1.200341	-0.337332	-0.165647
H111	H	0.595617	-0.111230	0.000086
H112	H	0.647644	-0.031332	0.000074
O113	O	1.499772	-0.386981	0.705661
C114	C	1.457842	-0.345181	0.822798
H115	H	1.367551	-0.290651	0.838963
H116	H	1.459976	-0.401561	0.867789
H117	H	1.512094	-0.309533	0.856364
O118	O	1.179478	-0.067816	0.822140
C119	C	1.192877	0.015660	0.861672
H120	H	1.185700	0.055085	0.793473
H121	H	1.124682	0.061803	0.940845
H122	H	1.279079	-0.002405	0.882666
O123	O	1.024494	0.086210	0.528110
C124	C	0.941991	0.071559	0.596555
H125	H	0.981485	-0.000044	0.614275
H126	H	0.906240	0.128938	0.679776
H127	H	0.871535	0.073935	0.550961
H128	H	0.933639	0.047055	0.000049
