data_functionalizedCrystal
_audit_creation_method	'MofGen! by Chris Wilmer'
_symmetry_space_group_name_H-M	'P1'
_symmetry_Int_Tables_number	1
_symmetry_cell_setting	triclinic
loop_
_symmetry_equiv_pos_as_xyz
  x,y,z
_cell_length_a	19.805407
_cell_length_b	14.908178
_cell_length_c	19.805399
_cell_angle_alpha	86.674164
_cell_angle_beta	89.984884
_cell_angle_gamma	93.311253
loop_
_atom_site_label
_atom_site_type_symbol
_atom_site_fract_x
_atom_site_fract_y
_atom_site_fract_z
Zn1	Zn	1.019205	-0.359259	-0.367131
Zn2	Zn	1.352539	-0.025925	-0.033798
Zn3	Zn	1.685872	0.307408	0.299535
Zn4	Zn	1.012611	-0.510139	-0.247410
Zn5	Zn	1.345944	-0.176806	0.085923
Zn6	Zn	1.679277	0.156528	0.419257
Zn7	Zn	0.906024	-0.359280	-0.253959
Zn8	Zn	1.239358	-0.025947	0.079375
Zn9	Zn	1.572691	0.307386	0.412708
Zn10	Zn	0.899471	-0.510080	-0.360563
Zn11	Zn	1.232805	-0.176747	-0.027229
Zn12	Zn	1.566138	0.156587	0.306104
O13	O	0.959328	-0.434689	-0.307266
O14	O	1.292661	-0.101356	0.026068
O15	O	1.625995	0.231977	0.359401
O16	O	1.113046	-0.379289	-0.351258
O17	O	1.446380	-0.045956	-0.017925
O18	O	1.779713	0.287378	0.315408
O19	O	0.998454	-0.490161	-0.153560
O20	O	1.331788	-0.156827	0.179773
O21	O	1.665121	0.176506	0.513106
O22	O	0.926541	-0.233023	-0.274461
O23	O	1.259874	0.100310	0.058873
O24	O	1.593207	0.433643	0.392206
O25	O	1.108201	-0.490140	-0.263300
O26	O	1.441535	-0.156807	0.070034
O27	O	1.774868	0.176527	0.403367
O28	O	1.009694	-0.233007	-0.357608
O29	O	1.343027	0.100326	-0.024275
O30	O	1.676361	0.433659	0.309058
O31	O	0.920146	-0.379326	-0.158372
O32	O	1.253479	-0.045992	0.174962
O33	O	1.586813	0.287341	0.508295
O34	O	0.810439	-0.379269	-0.268091
O35	O	1.143773	-0.045935	0.065242
O36	O	1.477106	0.287398	0.398575
O37	O	0.915372	-0.490040	-0.456152
O38	O	1.248705	-0.156706	-0.122819
O39	O	1.582038	0.176627	0.210515
O40	O	0.805625	-0.490061	-0.346413
O41	O	1.138958	-0.156727	-0.013080
O42	O	1.472291	0.176606	0.320254
O43	O	1.003340	-0.379232	-0.460978
O44	O	1.336673	-0.045899	-0.127645
O45	O	1.670006	0.287435	0.205689
O46	O	0.992100	-0.636385	-0.256930
O47	O	1.325433	-0.303052	0.076403
O48	O	1.658767	0.030281	0.409737
O49	O	0.908977	-0.636342	-0.340063
O50	O	1.242310	-0.303009	-0.006730
O51	O	1.575644	0.030325	0.326604
C52	C	0.783473	-0.434661	-0.307250
C53	C	1.116806	-0.101328	0.026083
C54	C	1.450140	0.232005	0.359416
C55	C	0.708241	-0.434671	-0.307259
C56	C	1.041574	-0.101338	0.026074
C57	C	1.374907	0.231996	0.359408
C58	C	0.675416	-0.377053	-0.353121
C59	C	1.008749	-0.043720	-0.019787
C60	C	1.342082	0.289614	0.313546
C61	C	0.604727	-0.377058	-0.353123
C62	C	0.938060	-0.043724	-0.019790
C63	C	1.271394	0.289609	0.313544
C64	C	0.566865	-0.434686	-0.307267
C65	C	0.900198	-0.101352	0.026067
C66	C	1.233531	0.231981	0.359400
C67	C	0.599694	-0.492306	-0.261400
C68	C	0.933028	-0.158973	0.071933
C69	C	1.266361	0.174361	0.405267
C70	C	0.670382	-0.492296	-0.261395
C71	C	1.003715	-0.158963	0.071938
C72	C	1.337049	0.174370	0.405272
C73	C	0.314619	-0.492347	-0.261419
C74	C	0.647953	-0.159013	0.071914
C75	C	0.981286	0.174320	0.405248
C76	C	0.243927	-0.492354	-0.261429
C77	C	0.577260	-0.159021	0.071904
C78	C	0.910594	0.174313	0.405238
C79	C	0.248964	-0.377108	-0.353147
C80	C	0.582298	-0.043775	-0.019814
C81	C	0.915631	0.289559	0.313520
C82	C	0.319652	-0.377098	-0.353142
C83	C	0.652985	-0.043765	-0.019809
C84	C	0.986319	0.289569	0.313525
C85	C	0.352476	-0.434715	-0.307273
C86	C	0.685809	-0.101382	0.026060
C87	C	1.019143	0.231952	0.359393
C88	C	0.429125	-0.434708	-0.307271
C89	C	0.762458	-0.101375	0.026063
C90	C	1.095791	0.231959	0.359396
C91	C	0.490217	-0.434698	-0.307272
C92	C	0.823550	-0.101365	0.026061
C93	C	1.156884	0.231969	0.359395
C94	C	0.949130	-0.669100	-0.297088
C95	C	1.282464	-0.335767	0.036245
C96	C	1.615797	-0.002433	0.369579
C97	C	0.944830	-0.769382	-0.292757
C98	C	1.278163	-0.436048	0.040577
C99	C	1.611496	-0.102715	0.373910
C100	C	1.023270	-0.957655	-0.371292
C101	C	1.356604	-0.624322	-0.037958
C102	C	1.689937	-0.290989	0.295375
C103	C	1.019232	-1.051879	-0.367224
C104	C	1.352565	-0.718546	-0.033891
C105	C	1.685898	-0.385212	0.299442
C106	C	0.932711	-1.052054	-0.280558
C107	C	1.266044	-0.718721	0.052775
C108	C	1.599378	-0.385388	0.386109
C109	C	0.936750	-0.957831	-0.284625
C110	C	1.270083	-0.624497	0.048708
C111	C	1.603416	-0.291164	0.382041
C112	C	0.982031	-0.910635	-0.329993
C113	C	1.315365	-0.577301	0.003340
C114	C	1.648698	-0.243968	0.336674
C115	C	0.986073	-0.816409	-0.334057
C116	C	1.319406	-0.483076	-0.000723
C117	C	1.652740	-0.149743	0.332610
C118	C	0.899549	-0.816586	-0.247394
C119	C	1.232883	-0.483253	0.085939
C120	C	1.566216	-0.149920	0.419272
C121	C	0.895511	-0.910810	-0.243327
C122	C	1.228844	-0.577477	0.090007
C123	C	1.562177	-0.244143	0.423340
C124	C	1.135869	-0.434719	-0.307281
C125	C	1.469203	-0.101385	0.026052
C126	C	1.802536	0.231948	0.359385
C127	C	1.211101	-0.434731	-0.307288
C128	C	1.544434	-0.101398	0.026045
C129	C	1.877767	0.231936	0.359379
C130	C	0.959360	-0.434627	-0.483811
C131	C	1.292694	-0.101294	-0.150478
C132	C	1.626027	0.232040	0.182856
C133	C	0.959374	-0.434600	-0.559044
C134	C	1.292707	-0.101267	-0.225711
C135	C	1.626041	0.232066	0.107622
C136	C	0.969584	-0.199364	-0.317498
C137	C	1.302917	0.133970	0.015835
C138	C	1.636251	0.467303	0.349169
C139	C	0.973954	-0.099082	-0.321858
C140	C	1.307288	0.234251	0.011475
C141	C	1.640621	0.567585	0.344808
C142	C	0.918611	-0.376883	-0.596893
C143	C	1.251945	-0.043550	-0.263560
C144	C	1.585278	0.289784	0.069773
C145	C	0.918622	-0.376865	-0.667583
C146	C	1.251955	-0.043532	-0.334249
C147	C	1.585288	0.289801	-0.000916
C148	C	0.959398	-0.434561	-0.700422
C149	C	1.292732	-0.101228	-0.367088
C150	C	1.626065	0.232105	-0.033755
C151	C	1.000163	-0.492285	-0.662567
C152	C	1.333496	-0.158952	-0.329234
C153	C	1.666829	0.174382	0.004099
C154	C	1.000149	-0.492306	-0.591879
C155	C	1.333482	-0.158973	-0.258546
C156	C	1.666815	0.174360	0.074787
C157	C	1.000220	-0.492201	-0.947644
C158	C	1.333553	-0.158867	-0.614311
C159	C	1.666887	0.174466	-0.280978
C160	C	1.000233	-0.492173	-1.018338
C161	C	1.333566	-0.158839	-0.685004
C162	C	1.666899	0.174494	-0.351671
C163	C	0.918693	-0.376760	-1.023348
C164	C	1.252026	-0.043426	-0.690015
C165	C	1.585360	0.289907	-0.356681
C166	C	0.918679	-0.376781	-0.952660
C167	C	1.252012	-0.043448	-0.619326
C168	C	1.585346	0.289886	-0.285993
C169	C	0.959440	-0.434508	-0.914811
C170	C	1.292774	-0.101174	-0.581478
C171	C	1.626107	0.232159	-0.248145
C172	C	0.959428	-0.434527	-0.838162
C173	C	1.292761	-0.101194	-0.504829
C174	C	1.626095	0.232140	-0.171495
C175	C	0.959415	-0.434538	-0.777070
C176	C	1.292748	-0.101204	-0.443736
C177	C	1.626082	0.232129	-0.110403
C178	C	0.959337	-0.434687	-0.131410
C179	C	1.292671	-0.101353	0.201924
C180	C	1.626004	0.231980	0.535257
C181	C	0.959466	-0.434459	-0.056188
C182	C	1.292799	-0.101126	0.277145
C183	C	1.626132	0.232207	0.610479
H184	H	0.350476	-0.330175	-0.390485
H185	H	0.683810	0.003159	-0.057152
H186	H	1.017143	0.336492	0.276181
H187	H	0.222231	-0.330190	-0.390493
H188	H	0.555564	0.003143	-0.057160
H189	H	0.888898	0.336476	0.276173
H190	H	0.213101	-0.539284	-0.224084
H191	H	0.546434	-0.205951	0.109249
H192	H	0.879768	0.127383	0.442582
H193	H	0.885477	-0.329796	-0.925926
H194	H	1.218810	0.003538	-0.592593
H195	H	1.552143	0.336871	-0.259259
H196	H	0.885410	-0.329895	-0.570161
H197	H	1.218744	0.003438	-0.236828
H198	H	1.552077	0.336772	0.096505
F199	F	0.559397	-0.553634	-0.212592
F200	F	0.892730	-0.220300	0.120741
F201	F	1.226063	0.113033	0.454074
F202	F	1.043531	-0.553740	-0.551597
F203	F	1.376865	-0.220407	-0.218264
F204	F	1.710198	0.112926	0.115069
H205	H	0.341336	-0.539263	-0.224071
H206	H	0.674669	-0.205929	0.109263
H207	H	1.008003	0.127404	0.442596
F208	F	1.043556	-0.553695	-0.697519
F209	F	1.376890	-0.220362	-0.364185
F210	F	1.710223	0.112972	-0.030852
F211	F	0.855661	-0.766537	-0.203434
F212	F	1.188994	-0.433203	0.129899
F213	F	1.522328	-0.099870	0.463232
F214	F	1.043606	-0.553633	-0.907373
F215	F	1.376939	-0.220300	-0.574039
F216	F	1.710273	0.113033	-0.240706
H217	H	1.022945	-0.777983	-0.370996
H218	H	1.356279	-0.444649	-0.037662
H219	H	1.689612	-0.111316	0.295671
F220	F	0.715706	-0.315720	-0.401931
F221	F	1.049039	0.017613	-0.068598
F222	F	1.382372	0.350946	0.264735
H223	H	1.060145	-0.919228	-0.408227
H224	H	1.393479	-0.585894	-0.074894
H225	H	1.726812	-0.252561	0.258439
H226	H	0.858642	-0.949250	-0.206391
H227	H	1.191975	-0.615917	0.126942
H228	H	1.525309	-0.282583	0.460275
H229	H	0.697107	-0.539214	-0.224049
H230	H	1.030440	-0.205881	0.109284
H231	H	1.363774	0.127453	0.442617
F232	F	0.875308	-0.315324	-1.063634
F233	F	1.208642	0.018009	-0.730301
F234	F	1.541975	0.351343	-0.396968
H235	H	1.033439	-0.539159	-1.045073
H236	H	1.366773	-0.205826	-0.711740
H237	H	1.700106	0.127507	-0.378406
F238	F	1.063122	-1.101919	-0.411182
F239	F	1.396456	-0.768586	-0.077848
F240	F	1.729789	-0.435252	0.255485
H241	H	0.895842	-1.090498	-0.243625
H242	H	1.229175	-0.757165	0.089708
H243	H	1.562508	-0.423831	0.423042
H244	H	0.885426	-0.329870	-0.698396
H245	H	1.218759	0.003464	-0.365063
H246	H	1.552092	0.336797	-0.031730
H247	H	0.578004	-0.330141	-0.390469
H248	H	0.911337	0.003192	-0.057136
H249	H	1.244671	0.336526	0.276197
