data_functionalizedCrystal
_audit_creation_method	'MofGen! by Chris Wilmer'
_symmetry_space_group_name_H-M	'P1'
_symmetry_Int_Tables_number	1
_symmetry_cell_setting	triclinic
loop_
_symmetry_equiv_pos_as_xyz
  x,y,z
_cell_length_a	19.188930
_cell_length_b	19.188924
_cell_length_c	9.730223
_cell_angle_alpha	89.993539
_cell_angle_beta	89.982832
_cell_angle_gamma	83.143372
loop_
_atom_site_label
_atom_site_type_symbol
_atom_site_fract_x
_atom_site_fract_y
_atom_site_fract_z
O1	O	0.926141	0.087168	-0.114738
O2	O	0.722830	0.098902	-0.114644
O3	O	0.830355	-0.008621	-0.114678
O4	O	0.818616	0.194691	-0.114705
O5	O	0.830348	-0.008624	0.113902
O6	O	0.722823	0.098899	0.113935
O7	O	0.926135	0.087165	0.113842
Zn8	Zn	0.824478	0.093032	0.150181
Zn9	Zn	0.824487	0.093035	-0.150983
O10	O	0.818609	0.194688	0.113875
C11	C	0.696815	0.098521	-0.000342
C12	C	0.619311	0.097380	-0.000306
C13	C	0.574385	0.160471	-0.000336
C14	C	0.501562	0.159399	-0.000351
C15	C	0.473667	0.095233	-0.000364
C16	C	0.518602	0.032134	-0.000326
C17	C	0.591424	0.033207	-0.000297
N18	N	0.365690	0.046187	-0.078208
N19	N	0.296511	0.045171	-0.078238
C20	C	0.254258	0.091995	-0.000447
N21	N	0.283795	0.139883	0.077358
N22	N	0.352980	0.140900	0.077382
C23	C	0.394704	0.094062	-0.000394
C24	C	0.130368	0.153928	-0.000492
C25	C	0.057543	0.152854	-0.000498
C26	C	0.074585	0.025586	-0.000487
C27	C	0.147409	0.026663	-0.000466
C28	C	0.175295	0.090835	-0.000475
C29	C	0.829973	-0.034634	-0.000386
C30	C	0.828834	-0.112138	-0.000382
C31	C	0.828306	-0.148536	-0.124981
C32	C	0.827226	-0.221358	-0.124991
C33	C	0.826688	-0.257783	-0.000395
C34	C	0.827212	-0.221376	0.124221
C35	C	0.828285	-0.148554	0.124227
N36	N	0.864733	-0.377447	0.092321
N37	N	0.863715	-0.446626	0.092307
C38	C	0.823454	-0.477192	-0.000407
N39	N	0.784257	-0.435968	-0.093126
N40	N	0.785278	-0.366784	-0.093115
C41	C	0.825524	-0.336746	-0.000388
C42	C	0.821754	-0.592552	-0.125025
C43	C	0.820670	-0.665375	-0.125030
C44	C	0.820663	-0.665393	0.124185
C45	C	0.821740	-0.592570	0.124187
C46	C	0.822289	-0.556154	-0.000422
C47	C	0.952149	0.087546	-0.000463
C48	C	1.029654	0.088687	-0.000508
C49	C	0.818992	0.220700	-0.000419
C50	C	0.820131	0.298205	-0.000432
N51	N	0.824477	0.093029	0.355717
N52	N	0.824493	0.093033	-0.356520
C53	C	0.872105	0.045437	0.427628
C54	C	0.872112	0.045437	0.571511
C55	C	0.776860	0.140626	0.571559
C56	C	0.776850	0.140622	0.427679
H57	H	0.628003	-0.018171	-0.000274
O58	O	0.725477	0.191952	0.350093
H59	H	0.734203	0.246364	0.377658
H60	H	0.597086	0.212725	-0.000346
H61	H	0.495885	-0.020111	-0.000355
H62	H	0.910894	0.006683	0.630058
O63	O	0.453090	0.227448	-0.000387
H64	H	0.462999	0.258161	-0.093563
H65	H	0.828751	-0.118890	-0.226448
O66	O	0.160455	0.223138	-0.000473
H67	H	0.116978	0.266831	-0.000470
O68	O	0.009082	0.220905	-0.000525
H69	H	0.040711	0.265705	-0.000538
O70	O	0.725501	0.191967	0.649172
H71	H	0.733514	0.183981	0.761304
O72	O	0.044511	-0.043625	-0.000501
H73	H	-0.013675	-0.033773	-0.000532
H74	H	0.822197	-0.562900	-0.226489
H75	H	0.820237	-0.695008	-0.226497
H76	H	0.910884	0.006682	0.369041
H77	H	0.826772	-0.251037	0.225668
O78	O	0.826658	-0.260624	-0.259390
H79	H	0.825815	-0.317379	-0.238457
H80	H	0.828712	-0.118919	0.225694
O81	O	0.195872	-0.041386	-0.000446
H82	H	0.164243	-0.086186	-0.000466
O83	O	0.820088	-0.704668	0.258578
H84	H	0.819258	-0.761422	0.237644
H85	H	0.822176	-0.562936	0.225649
