data_functionalizedCrystal
_audit_creation_method	'MofGen! by Chris Wilmer'
_symmetry_space_group_name_H-M	'P1'
_symmetry_Int_Tables_number	1
_symmetry_cell_setting	triclinic
loop_
_symmetry_equiv_pos_as_xyz
  x,y,z
_cell_length_a	13.032831
_cell_length_b	12.759400
_cell_length_c	13.033109
_cell_angle_alpha	97.155446
_cell_angle_beta	76.665514
_cell_angle_gamma	82.818273
loop_
_atom_site_label
_atom_site_type_symbol
_atom_site_fract_x
_atom_site_fract_y
_atom_site_fract_z
Zn1	Zn	1.700177	-0.738602	-0.806446
Zn2	Zn	1.677522	-0.888736	-0.628837
Zn3	Zn	1.499997	-0.687500	-0.606337
Zn4	Zn	1.522537	-0.888644	-0.783881
O5	O	1.600058	-0.800871	-0.706375
O6	O	1.845810	-0.779943	-0.801746
O7	O	1.635058	-0.840694	-0.477219
O8	O	1.526599	-0.547267	-0.632909
O9	O	1.829165	-0.890246	-0.671257
O10	O	1.673671	-0.584812	-0.779929
O11	O	1.504631	-0.692847	-0.460689
O12	O	1.354349	-0.692757	-0.611028
O13	O	1.565015	-0.890088	-0.935507
O14	O	1.370909	-0.840537	-0.741469
O15	O	1.695527	-0.779853	-0.952086
O16	O	1.656914	-1.035736	-0.649377
O17	O	1.543047	-1.035668	-0.763287
C18	C	1.324089	-0.761092	-0.671359
C19	C	1.206031	-0.744104	-0.656404
C20	C	1.161606	-0.809737	-0.714180
C21	C	1.039587	-0.792180	-0.698725
C22	C	1.600000	-1.073827	-0.706351
C23	C	1.600077	-1.190619	-0.706389
C24	C	1.676630	-1.264954	-0.782993
C25	C	1.676683	-1.374688	-0.783026
C26	C	1.523625	-1.335742	-0.629839
C27	C	1.523569	-1.226010	-0.629813
C28	C	1.753139	-1.229563	-0.859570
C29	C	1.829699	-1.303899	-0.936179
C30	C	1.829752	-1.413634	-0.936212
C31	C	1.753244	-1.449032	-0.859634
C32	C	1.877105	-0.840805	-0.741528
C33	C	1.995166	-0.857823	-0.756509
C34	C	1.635312	-0.840661	-0.983413
C35	C	1.650336	-0.857617	-1.101470
C36	C	1.600148	-0.526855	-0.706426
C37	C	1.600186	-0.410086	-0.706448
C38	C	1.592501	-0.792024	-1.145924
C39	C	1.608027	-0.809548	-1.267942
C40	C	1.565002	-0.761168	-0.430423
C41	C	1.550184	-0.743946	-0.312393
H42	H	1.153731	-0.674912	-0.595503
H43	H	1.753106	-1.140213	-0.859550
H44	H	1.891984	-1.275072	-0.998532
C45	C	1.912987	-1.494176	-1.019442
C46	C	1.979988	-1.439689	-1.086478
C47	C	2.056691	-1.513847	-1.163153
H48	H	1.878359	-1.537812	-1.060652
H49	H	1.954214	-1.537796	-0.984766
H50	H	1.938767	-1.396088	-1.121152
H51	H	2.014642	-1.396058	-1.045298
H52	H	2.097918	-1.557467	-1.128476
H53	H	2.022053	-1.557480	-1.204355
H54	H	2.102166	-1.476889	-1.208639
H55	H	1.213906	-0.878922	-0.775089
H56	H	1.531488	-0.722899	-1.093649
C57	C	1.753498	-1.568219	-0.859822
C58	C	1.836925	-1.625747	-0.943291
C59	C	1.837201	-1.735541	-0.943490
H60	H	1.687347	-1.585971	-0.869490
H61	H	1.763266	-1.585925	-0.793667
H62	H	1.827150	-1.608048	-1.009431
H63	H	1.903089	-1.608028	-0.933641
H64	H	1.846968	-1.753247	-0.877335
H65	H	1.771046	-1.753282	-0.953155
H66	H	1.893810	-1.774587	-1.000116
H67	H	1.461231	-1.165484	-0.567435
H68	H	1.669039	-0.878683	-1.320213
H69	H	1.489169	-0.674813	-1.260123
C70	C	1.440691	-1.374385	-0.546752
C71	C	1.457145	-1.486395	-0.563154
C72	C	1.380777	-1.522028	-0.486623
H73	H	1.371221	-1.348501	-0.553104
H74	H	1.447213	-1.348471	-0.477354
H75	H	1.450614	-1.512297	-0.632535
H76	H	1.526600	-1.512306	-0.556793
H77	H	1.387298	-1.496114	-0.417225
H78	H	1.311311	-1.496137	-0.492981
H79	H	1.391936	-1.598029	-0.497735
C80	C	1.731831	-0.949646	-1.171231
C81	C	1.807990	-0.909051	-1.243543
C82	C	1.883092	-0.993797	-1.307810
H83	H	1.696792	-0.995789	-1.209444
H84	H	1.766169	-0.988518	-1.127558
H85	H	1.773655	-0.870197	-1.287211
H86	H	1.843057	-0.862918	-1.205360
H87	H	1.917430	-1.032669	-1.264137
H88	H	1.848043	-1.039935	-1.346015
H89	H	1.934780	-0.966265	-1.356874
C90	C	0.969677	-0.700020	-0.617509
C91	C	0.862548	-0.700957	-0.618292
C92	C	0.798114	-0.616091	-0.543477
H93	H	0.989661	-0.634216	-0.635357
H94	H	0.978644	-0.707634	-0.548370
H95	H	0.853586	-0.693334	-0.687415
H96	H	0.842531	-0.766741	-0.600433
H97	H	0.807080	-0.623706	-0.474338
H98	H	0.818107	-0.550293	-0.561331
H99	H	0.725419	-0.616721	-0.543991
H100	H	1.047462	-0.927011	-0.817425
