data_functionalizedCrystal
_audit_creation_method	'MofGen! by Chris Wilmer'
_symmetry_space_group_name_H-M	'P1'
_symmetry_Int_Tables_number	1
_symmetry_cell_setting	triclinic
loop_
_symmetry_equiv_pos_as_xyz
  x,y,z
_cell_length_a	14.853567
_cell_length_b	10.654541
_cell_length_c	9.730217
_cell_angle_alpha	89.995122
_cell_angle_beta	89.999249
_cell_angle_gamma	84.059430
loop_
_atom_site_label
_atom_site_type_symbol
_atom_site_fract_x
_atom_site_fract_y
_atom_site_fract_z
O1	O	-1.197240	-0.163962	0.114195
O2	O	-0.934885	-0.183494	0.114218
O3	O	-1.072096	0.009074	0.114197
O4	O	-1.060030	-0.356530	0.114215
O5	O	-1.072086	0.009082	-0.114383
O6	O	-0.934876	-0.183486	-0.114362
O7	O	-1.197231	-0.163954	-0.114386
Zn8	Zn	-1.066052	-0.173719	-0.150666
Zn9	Zn	-1.066064	-0.173729	0.150498
O10	O	-1.060020	-0.356522	-0.114365
C11	C	-0.901287	-0.182605	-0.000069
C12	C	-0.801189	-0.179953	-0.000060
C13	C	-1.071206	0.055867	-0.000092
C14	C	-1.068556	0.195283	-0.000089
C15	C	-1.230829	-0.164843	-0.000095
C16	C	-1.330927	-0.167495	-0.000095
C17	C	-0.387984	-0.054353	-0.000097
C18	C	-0.367926	-0.283128	-0.000085
C19	C	-0.461973	-0.285622	-0.000080
C20	C	-0.519030	-0.172479	-0.000082
C21	C	-0.482040	-0.056843	-0.000089
C22	C	-0.498971	-0.401256	-0.000060
C23	C	-0.593023	-0.403754	-0.000054
C24	C	-0.650082	-0.290610	-0.000065
C25	C	-0.613086	-0.174969	-0.000073
C26	C	-0.670143	-0.061827	-0.000075
C27	C	-0.633149	0.053816	-0.000093
C28	C	-0.539098	0.056301	-0.000100
C29	C	-0.744132	-0.293095	-0.000058
C30	C	-0.764199	-0.064317	-0.000067
C31	C	-1.060910	-0.403315	-0.000073
C32	C	-1.063560	-0.542731	-0.000066
N33	N	-1.066049	-0.173711	-0.356202
C34	C	-1.232629	0.224958	-0.000121
C35	C	-1.313417	0.305292	-0.000140
C36	C	-1.310922	0.436284	-0.000136
C37	C	-1.227630	0.486944	-0.000108
C38	C	-1.146842	0.406610	-0.000089
C39	C	-1.149346	0.275617	-0.000098
C40	C	-0.982772	0.376935	-0.000048
C41	C	-0.985265	0.245943	-0.000062
C42	C	-0.899480	0.427595	-0.000020
C43	C	-0.818690	0.347261	-0.000011
C44	C	-0.821189	0.216262	-0.000017
C45	C	-0.904477	0.165609	-0.000043
C46	C	-0.955758	-0.021081	-0.356256
C47	C	-0.900622	0.055237	-0.428223
C48	C	-0.900636	0.055237	-0.572102
C49	C	-0.955789	-0.021091	-0.644019
C50	C	-1.010925	-0.097409	-0.572052
C51	C	-1.010907	-0.097398	-0.428169
C52	C	-1.121210	-0.250045	-0.571999
C53	C	-1.121202	-0.250040	-0.428119
C54	C	-1.176363	-0.326373	-0.643915
C55	C	-1.231505	-0.402686	-0.571948
C56	C	-1.231490	-0.402682	-0.428060
C57	C	-1.176338	-0.326358	-0.356152
N58	N	-1.066074	-0.173727	0.356035
H59	H	-0.810649	0.027819	-0.000074
H60	H	-0.906519	0.058951	-0.000057
C61	C	-1.403870	0.250356	0.000117
C62	C	-1.452757	0.291132	0.117725
C63	C	-1.536079	0.240541	0.118023
H64	H	-1.437271	0.277890	-0.079507
H65	H	-1.393825	0.160832	0.000190
H66	H	-1.462805	0.380637	0.117639
H67	H	-1.419384	0.263600	0.197367
H68	H	-1.526035	0.151017	0.118097
H69	H	-1.569472	0.268079	0.038395
H70	H	-1.569256	0.268191	0.197825
C71	C	-0.728242	0.402194	0.000306
C72	C	-0.679378	0.361388	0.117930
C73	C	-0.596058	0.411985	0.118278
H74	H	-0.694825	0.374684	-0.079306
H75	H	-0.738291	0.491718	0.000391
H76	H	-0.669327	0.271883	0.117833
H77	H	-0.712768	0.388897	0.197562
H78	H	-0.606106	0.501509	0.118363
H79	H	-0.562648	0.384472	0.038661
H80	H	-0.562896	0.384315	0.198090
H81	H	-1.234669	0.118299	-0.000144
C82	C	-0.840690	0.137902	-0.349962
C83	C	-0.780113	0.061931	-0.267334
C84	C	-0.724898	0.138037	-0.195212
H85	H	-0.807770	0.183377	-0.413270
H86	H	-0.877251	0.195577	-0.293757
H87	H	-0.743555	0.004278	-0.323535
H88	H	-0.813008	0.016457	-0.204001
H89	H	-0.761459	0.195713	-0.139006
H90	H	-0.691984	0.183509	-0.258530
H91	H	-0.683795	0.086504	-0.139131
C92	C	-0.840745	0.138230	-0.649998
C93	C	-0.792456	0.205096	-0.556232
C94	C	-0.737286	0.281573	-0.627939
H95	H	-0.799506	0.087009	-0.706138
H96	H	-0.877325	0.195992	-0.706093
H97	H	-0.755879	0.147341	-0.500161
H98	H	-0.833672	0.256341	-0.500089
H99	H	-0.773865	0.339335	-0.684033
H100	H	-0.696052	0.230342	-0.684076
H101	H	-0.704521	0.326959	-0.564330
H102	H	-0.755401	0.150860	0.000004
C103	C	-1.291498	-0.485330	-0.650101
C104	C	-1.352098	-0.409345	-0.732682
C105	C	-1.407387	-0.485430	-0.804687
H106	H	-1.255018	-0.543049	-0.706336
H107	H	-1.324393	-0.530752	-0.586682
H108	H	-1.319206	-0.363945	-0.796093
H109	H	-1.388598	-0.351627	-0.676480
H110	H	-1.440282	-0.530852	-0.741268
H111	H	-1.370900	-0.543146	-0.860914
H112	H	-1.448516	-0.433885	-0.860716
H113	H	-0.897454	0.534257	-0.000008
H114	H	-0.452509	-0.493370	-0.000044
H115	H	-0.955748	-0.021064	-0.239101
C116	C	-1.291450	-0.485586	-0.350178
C117	C	-1.339763	-0.552402	-0.443960
C118	C	-1.395017	-0.628775	-0.372272
H119	H	-1.254954	-0.543386	-0.294044
H120	H	-1.332670	-0.434259	-0.294079
H121	H	-1.298549	-0.603725	-0.500035
H122	H	-1.376276	-0.494635	-0.500097
H123	H	-1.436236	-0.577448	-0.316173
H124	H	-1.358514	-0.686567	-0.316140
H125	H	-1.427810	-0.674110	-0.435892
H126	H	-0.955786	-0.021096	-0.761173
H127	H	-0.679617	0.145936	-0.000085
H128	H	-0.508969	0.150451	-0.000147
H129	H	-0.357859	0.039800	-0.000117
H130	H	-0.623135	-0.497916	-0.000039
H131	H	-0.321465	-0.375243	-0.000072
H132	H	-0.774249	-0.387249	-0.000046
H133	H	-1.376707	0.501693	-0.000140
H134	H	-1.225606	0.593606	-0.000088
H135	H	-1.176365	-0.326374	-0.761069
H136	H	-1.176323	-0.326344	-0.238998
