data_functionalizedCrystal
_audit_creation_method	'MofGen! by Chris Wilmer'
_symmetry_space_group_name_H-M	'P1'
_symmetry_Int_Tables_number	1
_symmetry_cell_setting	triclinic
loop_
_symmetry_equiv_pos_as_xyz
  x,y,z
_cell_length_a	18.215407
_cell_length_b	19.805405
_cell_length_c	18.215399
_cell_angle_alpha	90.030610
_cell_angle_beta	90.019833
_cell_angle_gamma	90.026858
loop_
_atom_site_label
_atom_site_type_symbol
_atom_site_fract_x
_atom_site_fract_y
_atom_site_fract_z
Zn1	Zn	1.125064	-0.269462	0.416102
Zn2	Zn	1.625064	0.230538	0.916102
Zn3	Zn	1.124969	-0.382653	0.293030
Zn4	Zn	1.624969	0.117347	0.793030
Zn5	Zn	1.001997	-0.269484	0.293050
Zn6	Zn	1.501997	0.230516	0.793050
Zn7	Zn	1.001959	-0.382615	0.416055
Zn8	Zn	1.501959	0.117385	0.916055
O9	O	1.063497	-0.326054	0.354559
O10	O	1.563497	0.173946	0.854559
O11	O	1.228036	-0.284484	0.399788
O12	O	1.728036	0.215516	0.899788
O13	O	1.108633	-0.367666	0.190049
O14	O	1.608633	0.132334	0.690049
O15	O	1.018377	-0.174765	0.309401
O16	O	1.518377	0.325235	0.809401
O17	O	1.227966	-0.367644	0.309368
O18	O	1.727966	0.132356	0.809368
O19	O	1.108794	-0.174748	0.399807
O20	O	1.608794	0.325252	0.899807
O21	O	1.018285	-0.284521	0.190063
O22	O	1.518285	0.215479	0.690063
O23	O	0.899008	-0.284485	0.309355
O24	O	1.399008	0.215515	0.809355
O25	O	1.018313	-0.367580	0.519046
O26	O	1.518313	0.132420	1.019046
O27	O	0.898980	-0.367602	0.399727
O28	O	1.398980	0.132398	0.899727
O29	O	1.108758	-0.284447	0.519080
O30	O	1.608758	0.215553	1.019080
O31	O	1.108596	-0.477365	0.309322
O32	O	1.608596	0.022635	0.809322
O33	O	1.018221	-0.477337	0.399708
O34	O	1.518221	0.022663	0.899708
C35	C	0.872291	-0.326042	0.354538
C36	C	1.372291	0.173958	0.854538
C37	C	0.790492	-0.326053	0.354547
C38	C	1.290492	0.173947	0.854547
C39	C	1.063415	-0.501910	0.354524
C40	C	1.563415	-0.001910	0.854524
C41	C	1.063446	-0.577142	0.354533
C42	C	1.563446	-0.077142	0.854533
C43	C	0.602303	-0.369400	0.401544
C44	C	1.102303	0.130600	0.901544
C45	C	0.525444	-0.369403	0.401553
C46	C	1.025444	0.130597	0.901553
C47	C	0.525444	-0.282719	0.307591
C48	C	1.025444	0.217281	0.807591
C49	C	0.602301	-0.282714	0.307586
C50	C	1.102301	0.217286	0.807586
C51	C	0.640729	-0.326059	0.354561
C52	C	1.140729	0.173941	0.854561
C53	C	0.487013	-0.326066	0.354575
C54	C	0.987013	0.173934	0.854575
C55	C	0.403679	-0.326068	0.354585
C56	C	0.903679	0.173932	0.854585
C57	C	0.724068	-0.326056	0.354553
C58	C	1.224068	0.173944	0.854553
C59	C	1.110550	-0.612478	0.307518
C60	C	1.610550	-0.112478	0.807518
C61	C	1.110582	-0.683166	0.307535
C62	C	1.610582	-0.183166	0.807535
C63	C	1.063505	-0.718517	0.354562
C64	C	1.563505	-0.218517	0.854562
C65	C	1.016399	-0.683176	0.401582
C66	C	1.516399	-0.183176	0.901582
C67	C	1.016372	-0.612489	0.401569
C68	C	1.516372	-0.112489	0.901569
C69	C	1.016507	-0.968249	0.401637
C70	C	1.516507	-0.468249	0.901637
C71	C	1.016536	-1.038941	0.401645
C72	C	1.516536	-0.538941	0.901645
C73	C	1.110717	-1.038927	0.307602
C74	C	1.610717	-0.538927	0.807602
C75	C	1.110690	-0.968239	0.307589
C76	C	1.610690	-0.468239	0.807589
C77	C	1.063587	-0.932905	0.354611
C78	C	1.563587	-0.432905	0.854611
C79	C	1.063555	-0.856256	0.354594
C80	C	1.563555	-0.356256	0.854594
C81	C	1.063533	-0.795164	0.354577
C82	C	1.563533	-0.295164	0.854577
C83	C	1.255450	-0.326066	0.354581
C84	C	1.755450	0.173934	0.854581
C85	C	1.337249	-0.326071	0.354590
C86	C	1.837249	0.173929	0.854590
C87	C	1.063542	-0.326007	0.546512
C88	C	1.563542	0.173993	1.046512
C89	C	1.063561	-0.325987	0.628311
C90	C	1.563561	0.174013	1.128311
C91	C	1.063601	-0.149511	0.354611
C92	C	1.563601	0.350489	0.854611
C93	C	1.063645	-0.074279	0.354633
C94	C	1.563645	0.425721	0.854633
C95	C	1.063495	-0.326051	0.163353
C96	C	1.563495	0.173949	0.663353
C97	C	1.063619	-0.325880	0.081555
C98	C	1.563619	0.174120	0.581555
C99	C	1.110673	-0.282659	0.816524
C100	C	1.610673	0.217341	1.316524
C101	C	1.110682	-0.282639	0.893383
C102	C	1.610682	0.217361	1.393383
C103	C	1.016502	-0.369210	0.893336
C104	C	1.516502	0.130790	1.393336
C105	C	1.016490	-0.369226	0.816479
C106	C	1.516490	0.130774	1.316479
C107	C	1.063580	-0.325952	0.778075
C108	C	1.563580	0.174048	1.278075
C109	C	1.063600	-0.325916	0.931791
C110	C	1.563600	0.174084	1.431791
C111	C	1.063609	-0.325895	1.015125
C112	C	1.563609	0.174105	1.515125
C113	C	1.063570	-0.325972	0.694736
C114	C	1.563570	0.174028	1.194736
H115	H	0.633589	-0.404693	0.439797
H116	H	1.133589	0.095307	0.939797
O117	O	0.970730	-1.073313	0.447230
O118	O	1.470730	-0.573313	0.947230
C119	C	0.923246	-1.114276	0.405298
C120	C	1.423246	-0.614276	0.905298
H121	H	0.918716	-1.093011	0.347331
H122	H	1.418716	-0.593011	0.847331
H123	H	0.946025	-1.167832	0.402787
H124	H	1.446025	-0.667832	0.902787
C125	C	0.852289	-1.141521	0.512389
C126	C	1.352289	-0.641521	1.012389
C127	C	0.846721	-1.115400	0.441194
C128	C	1.346721	-0.615400	0.941194
H129	H	0.805086	-1.142217	0.534532
H130	H	1.305086	-0.642217	1.034532
H131	H	0.884281	-1.113926	0.540640
H132	H	1.384281	-0.613926	1.040640
H133	H	0.871274	-1.186149	0.510286
H134	H	1.371274	-0.686149	1.010286
H135	H	0.827745	-1.070771	0.443298
H136	H	1.327745	-0.570771	0.943298
H137	H	0.814724	-1.142988	0.412944
H138	H	1.314724	-0.642988	0.912944
H139	H	1.149028	-0.247385	0.924686
H140	H	1.649028	0.252615	1.424686
H141	H	0.978071	-0.711965	0.439876
H142	H	1.478071	-0.211965	0.939876
H143	H	1.149014	-0.247420	0.785258
H144	H	1.649014	0.252580	1.285258
O145	O	1.156570	-1.073276	0.262041
O146	O	1.656570	-0.573276	0.762041
C147	C	1.204086	-1.114104	0.303998
C148	C	1.704086	-0.614104	0.803998
H149	H	1.208573	-1.092761	0.361961
H150	H	1.708573	-0.592761	0.861961
H151	H	1.181366	-1.167697	0.306515
H152	H	1.681366	-0.667697	0.806515
C153	C	1.275108	-1.141348	0.196937
C154	C	1.775108	-0.641348	0.696937
C155	C	1.280624	-1.115132	0.268127
C156	C	1.780624	-0.615132	0.768127
H157	H	1.322319	-1.141986	0.174809
H158	H	1.822319	-0.641986	0.674809
H159	H	1.243094	-1.113844	0.168669
H160	H	1.743094	-0.613844	0.668669
H161	H	1.256171	-1.186008	0.199045
H162	H	1.756171	-0.686008	0.699045
H163	H	1.299551	-1.070471	0.266018
H164	H	1.799551	-0.570471	0.766018
H165	H	1.312643	-1.142629	0.296394
H166	H	1.812643	-0.642629	0.796394
O167	O	0.970834	-0.411227	0.930757
O168	O	1.470834	0.088773	1.430757
C169	C	0.980930	-0.401919	1.006838
C170	C	1.480930	0.098081	1.506838
H171	H	1.037738	-0.379752	1.017354
H172	H	1.537738	0.120248	1.517354
H173	H	0.937301	-0.365869	1.028654
H174	H	1.437301	0.134131	1.528654
C175	C	0.904381	-0.497622	1.033357
C176	C	1.404381	0.002378	1.533357
C177	C	0.974157	-0.470401	1.046273
C178	C	1.474157	0.029599	1.546273
H179	H	0.900200	-0.539863	1.057684
H180	H	1.400200	-0.039863	1.557684
H181	H	0.897577	-0.503891	0.982100
H182	H	1.397577	-0.003891	1.482100
H183	H	0.868032	-0.467573	1.051537
H184	H	1.368032	0.032427	1.551537
H185	H	1.010504	-0.500445	1.028086
H186	H	1.510504	-0.000445	1.528086
H187	H	0.980967	-0.464138	1.097529
H188	H	1.480967	0.035862	1.597529
H189	H	0.494162	-0.404695	0.439812
H190	H	0.994162	0.095305	0.939812
O191	O	0.488078	-0.240716	0.261881
O192	O	0.988078	0.259284	0.761881
C193	C	0.443570	-0.279198	0.214289
C194	C	0.943570	0.220802	0.714289
H195	H	0.466708	-0.332499	0.209634
H196	H	0.966708	0.167501	0.709634
H197	H	0.385331	-0.281561	0.237044
H198	H	0.885331	0.218439	0.737044
C199	C	0.413950	-0.180574	0.143566
C200	C	0.913950	0.319426	0.643566
C201	C	0.442372	-0.246038	0.137845
C202	C	0.942372	0.253962	0.637845
H203	H	0.413208	-0.160118	0.096413
H204	H	0.913208	0.339882	0.596413
H205	H	0.443934	-0.154647	0.175632
H206	H	0.943934	0.345353	0.675632
H207	H	0.365420	-0.182553	0.162532
H208	H	0.865420	0.317447	0.662532
H209	H	0.490905	-0.244057	0.118888
H210	H	0.990905	0.255943	0.618888
H211	H	0.412397	-0.271963	0.105775
H212	H	0.912397	0.228037	0.605775
O213	O	0.970821	-0.411381	0.779156
O214	O	1.470821	0.088619	1.279156
C215	C	0.986857	-0.478838	0.797927
C216	C	1.486857	0.021162	1.297927
H217	H	1.045650	-0.482254	0.819068
H218	H	1.545650	0.017746	1.319068
H219	H	0.947397	-0.496522	0.842523
H220	H	1.447397	0.003478	1.342523
C221	C	0.906051	-0.519824	0.703667
C222	C	1.406051	-0.019824	1.203667
C223	C	0.978263	-0.524021	0.729627
C224	C	1.478263	-0.024021	1.229627
H225	H	0.900746	-0.547696	0.661538
H226	H	1.400746	-0.047696	1.161538
H227	H	0.895244	-0.474378	0.691022
H228	H	1.395244	0.025622	1.191022
H229	H	0.873175	-0.534560	0.740837
H230	H	1.373175	-0.034560	1.240837
H231	H	1.011136	-0.509277	0.692460
H232	H	1.511136	-0.009277	1.192460
H233	H	0.989075	-0.569466	0.742264
H234	H	1.489075	-0.069466	1.242264
H235	H	0.633588	-0.247416	0.269327
H236	H	1.133588	0.252584	0.769327
H237	H	1.148883	-0.583700	0.269220
H238	H	1.648883	-0.083700	0.769220
H239	H	1.149022	-0.939459	0.269292
H240	H	1.649022	-0.439459	0.769292
O241	O	1.156360	-0.717387	0.261793
O242	O	1.656360	-0.217387	0.761793
C243	C	1.197914	-0.671027	0.220292
C244	C	1.697914	-0.171027	0.720292
H245	H	1.167750	-0.620665	0.217708
H246	H	1.667750	-0.120665	0.717708
H247	H	1.253789	-0.663448	0.247288
H248	H	1.753789	-0.163448	0.747288
C249	C	1.245620	-0.760514	0.145154
C250	C	1.745620	-0.260514	0.645154
C251	C	1.208569	-0.698659	0.141976
C252	C	1.708569	-0.198659	0.641976
H253	H	1.252196	-0.777559	0.096846
H254	H	1.752196	-0.277559	0.596846
H255	H	1.217626	-0.791748	0.173115
H256	H	1.717626	-0.291748	0.673115
H257	H	1.292179	-0.754189	0.167654
H258	H	1.792179	-0.254189	0.667654
H259	H	1.162007	-0.704986	0.119485
H260	H	1.662007	-0.204986	0.619485
H261	H	1.236555	-0.667427	0.114009
H262	H	1.736555	-0.167427	0.614009
H263	H	0.978016	-0.583719	0.439854
H264	H	1.478016	-0.083719	0.939854
H265	H	0.978153	-0.939485	0.439923
H266	H	1.478153	-0.439485	0.939923
