data_functionalizedCrystal
_audit_creation_method	'MofGen! by Chris Wilmer'
_symmetry_space_group_name_H-M	'P1'
_symmetry_Int_Tables_number	1
_symmetry_cell_setting	triclinic
loop_
_symmetry_equiv_pos_as_xyz
  x,y,z
_cell_length_a	19.805407
_cell_length_b	21.295417
_cell_length_c	19.805399
_cell_angle_alpha	90.029796
_cell_angle_beta	90.019573
_cell_angle_gamma	90.029702
loop_
_atom_site_label
_atom_site_type_symbol
_atom_site_fract_x
_atom_site_fract_y
_atom_site_fract_z
Zn1	Zn	1.034720	-0.250624	0.382709
Zn2	Zn	1.284720	-0.000624	0.632709
Zn3	Zn	1.534720	0.249376	0.882709
Zn4	Zn	1.784720	0.499376	1.132709
Zn5	Zn	1.034629	-0.355893	0.269517
Zn6	Zn	1.284629	-0.105893	0.519517
Zn7	Zn	1.534629	0.144107	0.769517
Zn8	Zn	1.784629	0.394107	1.019517
Zn9	Zn	0.921535	-0.250641	0.269534
Zn10	Zn	1.171535	-0.000641	0.519534
Zn11	Zn	1.421535	0.249359	0.769534
Zn12	Zn	1.671535	0.499359	1.019534
Zn13	Zn	0.921492	-0.355859	0.382663
Zn14	Zn	1.171492	-0.105859	0.632663
Zn15	Zn	1.421492	0.144141	0.882663
Zn16	Zn	1.671492	0.394141	1.132663
O17	O	0.978094	-0.303254	0.326106
O18	O	1.228094	-0.053254	0.576106
O19	O	1.478094	0.196746	0.826106
O20	O	1.728094	0.446746	1.076106
O21	O	1.129425	-0.264595	0.367706
O22	O	1.379425	-0.014595	0.617706
O23	O	1.629425	0.235405	0.867706
O24	O	1.879425	0.485405	1.117706
O25	O	1.019606	-0.341952	0.174802
O26	O	1.269606	-0.091952	0.424802
O27	O	1.519606	0.158048	0.674802
O28	O	1.769606	0.408048	0.924802
O29	O	0.936605	-0.162549	0.284573
O30	O	1.186605	0.087451	0.534573
O31	O	1.436605	0.337451	0.784573
O32	O	1.686605	0.587451	1.034573
O33	O	1.129357	-0.341935	0.284544
O34	O	1.379357	-0.091935	0.534544
O35	O	1.629357	0.158065	0.784544
O36	O	1.879357	0.408065	1.034544
O37	O	1.019762	-0.162537	0.367723
O38	O	1.269762	0.087463	0.617723
O39	O	1.519762	0.337463	0.867723
O40	O	1.769762	0.587463	1.117723
O41	O	0.936517	-0.264624	0.174815
O42	O	1.186517	-0.014624	0.424815
O43	O	1.436517	0.235376	0.674815
O44	O	1.686517	0.485376	0.924815
O45	O	0.826813	-0.264592	0.284529
O46	O	1.076813	-0.014592	0.534529
O47	O	1.326813	0.235408	0.784529
O48	O	1.576813	0.485408	1.034529
O49	O	0.936532	-0.341878	0.477386
O50	O	1.186532	-0.091878	0.727386
O51	O	1.436532	0.158122	0.977386
O52	O	1.686532	0.408122	1.227386
O53	O	0.826781	-0.341895	0.367644
O54	O	1.076781	-0.091895	0.617644
O55	O	1.326781	0.158105	0.867644
O56	O	1.576781	0.408105	1.117644
O57	O	1.019721	-0.264562	0.477420
O58	O	1.269721	-0.014562	0.727420
O59	O	1.519721	0.235438	0.977420
O60	O	1.769721	0.485438	1.227420
O61	O	1.019564	-0.443977	0.284499
O62	O	1.269564	-0.193977	0.534499
O63	O	1.519564	0.056023	0.784499
O64	O	1.769564	0.306023	1.034499
O65	O	0.936443	-0.443953	0.367628
O66	O	1.186443	-0.193953	0.617628
O67	O	1.436443	0.056047	0.867628
O68	O	1.686443	0.306047	1.117628
C69	C	0.802238	-0.303242	0.326084
C70	C	1.052238	-0.053242	0.576084
C71	C	1.302238	0.196758	0.826084
C72	C	1.552238	0.446758	1.076084
C73	C	0.727006	-0.303252	0.326091
C74	C	0.977006	-0.053252	0.576091
C75	C	1.227006	0.196748	0.826091
C76	C	1.477006	0.446748	1.076091
C77	C	0.978008	-0.466806	0.326071
C78	C	1.228008	-0.216806	0.576071
C79	C	1.478008	0.033194	0.826071
C80	C	1.728008	0.283194	1.076071
C81	C	0.978033	-0.536774	0.326079
C82	C	1.228033	-0.286774	0.576079
C83	C	1.478033	-0.036774	0.826079
C84	C	1.728033	0.213226	1.076079
C85	C	0.691663	-0.343564	0.369299
C86	C	0.941663	-0.093564	0.619299
C87	C	1.191663	0.156436	0.869299
C88	C	1.441663	0.406436	1.119299
C89	C	0.620975	-0.343566	0.369308
C90	C	0.870975	-0.093566	0.619308
C91	C	1.120975	0.156434	0.869308
C92	C	1.370975	0.406434	1.119308
C93	C	0.585630	-0.303257	0.326106
C94	C	0.835630	-0.053257	0.576106
C95	C	1.085630	0.196743	0.826106
C96	C	1.335630	0.446743	1.076106
C97	C	0.620978	-0.262940	0.282895
C98	C	0.870978	-0.012940	0.532895
C99	C	1.120978	0.237060	0.782895
C100	C	1.370978	0.487060	1.032895
C101	C	0.691665	-0.262936	0.282890
C102	C	0.941665	-0.012936	0.532890
C103	C	1.191665	0.237064	0.782890
C104	C	1.441665	0.487064	1.032890
C105	C	0.335905	-0.262954	0.282918
C106	C	0.585905	-0.012954	0.532918
C107	C	0.835905	0.237046	0.782918
C108	C	1.085905	0.487046	1.032918
C109	C	0.265213	-0.262962	0.282925
C110	C	0.515213	-0.012962	0.532925
C111	C	0.765213	0.237038	0.782925
C112	C	1.015213	0.487038	1.032925
C113	C	0.265214	-0.343583	0.369336
C114	C	0.515214	-0.093583	0.619336
C115	C	0.765214	0.156417	0.869336
C116	C	1.015214	0.406417	1.119336
C117	C	0.335901	-0.343579	0.369331
C118	C	0.585901	-0.093579	0.619331
C119	C	0.835901	0.156421	0.869331
C120	C	1.085901	0.406421	1.119331
C121	C	0.371243	-0.303261	0.326123
C122	C	0.621243	-0.053261	0.576123
C123	C	0.871243	0.196739	0.826123
C124	C	1.121243	0.446739	1.076123
C125	C	0.447891	-0.303259	0.326114
C126	C	0.697891	-0.053259	0.576114
C127	C	0.947891	0.196741	0.826114
C128	C	1.197891	0.446741	1.076114
C129	C	0.508983	-0.303261	0.326111
C130	C	0.758983	-0.053261	0.576111
C131	C	1.008983	0.196739	0.826111
C132	C	1.258983	0.446739	1.076111
C133	C	1.021308	-0.569577	0.369406
C134	C	1.271308	-0.319577	0.619406
C135	C	1.521308	-0.069577	0.869406
C136	C	1.771308	0.180423	1.119406
C137	C	1.021331	-0.635319	0.369423
C138	C	1.271331	-0.385319	0.619423
C139	C	1.521331	-0.135319	0.869423
C140	C	1.771331	0.114681	1.119423
C141	C	0.978087	-0.668256	0.326101
C142	C	1.228087	-0.418256	0.576101
C143	C	1.478087	-0.168256	0.826101
C144	C	1.728087	0.081744	1.076101
C145	C	0.934804	-0.635446	0.282771
C146	C	1.184804	-0.385446	0.532771
C147	C	1.434804	-0.135446	0.782771
C148	C	1.684804	0.114554	1.032771
C149	C	0.934777	-0.569704	0.282760
C150	C	1.184777	-0.319704	0.532760
C151	C	1.434777	-0.069704	0.782760
C152	C	1.684777	0.180296	1.032760
N153	N	0.972976	-0.771518	0.266865
N154	N	1.222976	-0.521518	0.516865
N155	N	1.472976	-0.271518	0.766865
N156	N	1.722976	-0.021518	1.016865
N157	N	0.973006	-0.833969	0.266877
N158	N	1.223006	-0.583969	0.516877
N159	N	1.473006	-0.333969	0.766877
N160	N	1.723006	-0.083969	1.016877
C161	C	0.978167	-0.866331	0.326131
C162	C	1.228167	-0.616331	0.576131
C163	C	1.478167	-0.366331	0.826131
C164	C	1.728167	-0.116331	1.076131
N165	N	0.983309	-0.833882	0.385374
N166	N	1.233309	-0.583882	0.635374
N167	N	1.483309	-0.333882	0.885374
N168	N	1.733309	-0.083882	1.135374
N169	N	0.983283	-0.771425	0.385362
N170	N	1.233283	-0.521425	0.635362
N171	N	1.483283	-0.271425	0.885362
N172	N	1.733283	-0.021425	1.135362
C173	C	0.978112	-0.739542	0.326108
C174	C	1.228112	-0.489542	0.576108
C175	C	1.478112	-0.239542	0.826108
C176	C	1.728112	0.010458	1.076108
C177	C	1.021470	-0.970419	0.369480
C178	C	1.271470	-0.720419	0.619480
C179	C	1.521470	-0.470419	0.869480
C180	C	1.771470	-0.220419	1.119480
C181	C	1.021489	-1.036163	0.369498
C182	C	1.271489	-0.786163	0.619498
C183	C	1.521489	-0.536163	0.869498
C184	C	1.771489	-0.286163	1.119498
C185	C	0.934965	-1.036288	0.282840
C186	C	1.184965	-0.786288	0.532840
C187	C	1.434965	-0.536288	0.782840
C188	C	1.684965	-0.286288	1.032840
C189	C	0.934942	-0.970546	0.282828
C190	C	1.184942	-0.720546	0.532828
C191	C	1.434942	-0.470546	0.782828
C192	C	1.684942	-0.220546	1.032828
C193	C	0.978198	-0.937615	0.326147
C194	C	1.228198	-0.687615	0.576147
C195	C	1.478198	-0.437615	0.826147
C196	C	1.728198	-0.187615	1.076147
C197	C	1.154637	-0.303267	0.326128
C198	C	1.404637	-0.053267	0.576128
C199	C	1.654637	0.196733	0.826128
C200	C	1.904637	0.446733	1.076128
C201	C	1.229869	-0.303272	0.326138
C202	C	1.479869	-0.053272	0.576138
C203	C	1.729869	0.196728	0.826138
C204	C	1.979869	0.446728	1.076138
C205	C	0.978132	-0.303214	0.502649
C206	C	1.228132	-0.053214	0.752649
C207	C	1.478132	0.196786	1.002649
C208	C	1.728132	0.446786	1.252649
C209	C	0.978148	-0.303198	0.577881
C210	C	1.228148	-0.053198	0.827881
C211	C	1.478148	0.196802	1.077881
C212	C	1.728148	0.446802	1.327881
C213	C	0.978199	-0.139064	0.326155
C214	C	1.228199	0.110936	0.576155
C215	C	1.478199	0.360936	0.826155
C216	C	1.728199	0.610936	1.076155
C217	C	0.978244	-0.069096	0.326176
C218	C	1.228244	0.180904	0.576176
C219	C	1.478244	0.430904	0.826176
C220	C	1.728244	0.680904	1.076176
C221	C	0.978095	-0.303248	0.150250
C222	C	1.228095	-0.053248	0.400250
C223	C	1.478095	0.196752	0.650250
C224	C	1.728095	0.446752	0.900250
C225	C	0.978210	-0.303088	0.075018
C226	C	1.228210	-0.053088	0.325018
C227	C	1.478210	0.196912	0.575018
C228	C	1.728210	0.446912	0.825018
C229	C	1.021465	-0.262937	0.613243
C230	C	1.271465	-0.012937	0.863243
C231	C	1.521465	0.237063	1.113243
C232	C	1.771465	0.487063	1.363243
C233	C	1.021472	-0.262919	0.683932
C234	C	1.271472	-0.012919	0.933932
C235	C	1.521472	0.237081	1.183932
C236	C	1.771472	0.487081	1.433932
C237	C	0.978165	-0.303165	0.719256
C238	C	1.228165	-0.053165	0.969256
C239	C	1.478165	0.196835	1.219256
C240	C	1.728165	0.446835	1.469256
C241	C	0.934843	-0.343427	0.683888
C242	C	1.184843	-0.093427	0.933888
C243	C	1.434843	0.156573	1.183888
C244	C	1.684843	0.406573	1.433888
C245	C	0.934833	-0.343441	0.613201
C246	C	1.184833	-0.093441	0.863201
C247	C	1.434833	0.156559	1.113201
C248	C	1.684833	0.406559	1.363201
C249	C	0.934881	-0.343368	0.968962
C250	C	1.184881	-0.093368	1.218962
C251	C	1.434881	0.156632	1.468962
C252	C	1.684881	0.406632	1.718962
C253	C	0.934896	-0.343352	1.039654
C254	C	1.184896	-0.093352	1.289654
C255	C	1.434896	0.156648	1.539654
C256	C	1.684896	0.406648	1.789654
C257	C	1.021520	-0.262846	1.039692
C258	C	1.271520	-0.012846	1.289692
C259	C	1.521520	0.237154	1.539692
C260	C	1.771520	0.487154	1.789692
C261	C	1.021510	-0.262860	0.969005
C262	C	1.271510	-0.012860	1.219005
C263	C	1.521510	0.237140	1.469005
C264	C	1.771510	0.487140	1.719005
C265	C	0.978186	-0.303120	0.933644
C266	C	1.228186	-0.053120	1.183644
C267	C	1.478186	0.196880	1.433644
C268	C	1.728186	0.446880	1.683644
C269	C	0.978178	-0.303138	0.856995
C270	C	1.228178	-0.053138	1.106995
C271	C	1.478178	0.196862	1.356995
C272	C	1.728178	0.446862	1.606995
C273	C	0.978176	-0.303150	0.795903
C274	C	1.228176	-0.053150	1.045903
C275	C	1.478176	0.196850	1.295903
C276	C	1.728176	0.446850	1.545903
H277	H	0.720435	-0.376390	0.404477
H278	H	0.970435	-0.126390	0.654477
H279	H	1.220435	0.123610	0.904477
H280	H	1.470435	0.373610	1.154477
H281	H	0.899536	-0.542996	0.247478
H282	H	1.149536	-0.292996	0.497478
H283	H	1.399536	-0.042996	0.747478
H284	H	1.649536	0.207004	0.997478
Cl285	Cl	1.075915	-0.212343	0.568843
Cl286	Cl	1.325915	0.037657	0.818843
Cl287	Cl	1.575915	0.287657	1.068843
Cl288	Cl	1.825915	0.537657	1.318843
Cl289	Cl	0.880373	-0.394055	0.568745
Cl290	Cl	1.130373	-0.144055	0.818745
Cl291	Cl	1.380373	0.105945	1.068745
Cl292	Cl	1.630373	0.355945	1.318745
Cl293	Cl	1.075889	-1.077402	0.423979
Cl294	Cl	1.325889	-0.827402	0.673979
Cl295	Cl	1.575889	-0.577402	0.923979
Cl296	Cl	1.825889	-0.327402	1.173979
H297	H	1.056747	-0.230136	0.712721
H298	H	1.306747	0.019864	0.962721
H299	H	1.556747	0.269864	1.212721
H300	H	1.806747	0.519864	1.462721
H301	H	0.236437	-0.230134	0.247744
H302	H	0.486437	0.019866	0.497744
H303	H	0.736437	0.269866	0.747744
H304	H	0.986437	0.519866	0.997744
H305	H	0.899614	-0.376159	0.940179
H306	H	1.149614	-0.126159	1.190179
H307	H	1.399614	0.123841	1.440179
H308	H	1.649614	0.373841	1.690179
H309	H	0.899707	-0.943836	0.247544
H310	H	1.149707	-0.693836	0.497544
H311	H	1.399707	-0.443836	0.747544
H312	H	1.649707	-0.193836	0.997544
H313	H	1.056565	-0.662032	0.404713
H314	H	1.306565	-0.412032	0.654713
H315	H	1.556565	-0.162032	0.904713
H316	H	1.806565	0.087968	1.154713
H317	H	1.056778	-0.230090	0.940248
H318	H	1.306778	0.019910	1.190248
H319	H	1.556778	0.269910	1.440248
H320	H	1.806778	0.519910	1.690248
Cl321	Cl	1.075983	-0.212230	1.084151
Cl322	Cl	1.325983	0.037770	1.334151
Cl323	Cl	1.575983	0.287770	1.584151
Cl324	Cl	1.825983	0.537770	1.834151
Cl325	Cl	0.880598	-1.077689	0.228379
Cl326	Cl	1.130598	-0.827689	0.478379
Cl327	Cl	1.380598	-0.577689	0.728379
Cl328	Cl	1.630598	-0.327689	0.978379
Cl329	Cl	0.880397	-0.394020	0.728296
Cl330	Cl	1.130397	-0.144020	0.978296
Cl331	Cl	1.380397	0.105980	1.228296
Cl332	Cl	1.630397	0.355980	1.478296
Cl333	Cl	0.880447	-0.393950	1.084061
Cl334	Cl	1.130447	-0.143950	1.334061
Cl335	Cl	1.380447	0.106050	1.584061
Cl336	Cl	1.630447	0.356050	1.834061
H337	H	0.236430	-0.376410	0.404521
H338	H	0.486430	-0.126410	0.654521
H339	H	0.736430	0.123590	0.904521
H340	H	0.986430	0.373590	1.154521
Cl341	Cl	0.576545	-0.212262	0.228588
Cl342	Cl	0.826545	0.037738	0.478588
Cl343	Cl	1.076545	0.287738	0.728588
Cl344	Cl	1.326545	0.537738	0.978588
Cl345	Cl	0.380330	-0.394257	0.423642
Cl346	Cl	0.630330	-0.144257	0.673642
Cl347	Cl	0.880330	0.105743	0.923642
Cl348	Cl	1.130330	0.355743	1.173642
H349	H	0.592201	-0.376392	0.404492
H350	H	0.842201	-0.126392	0.654492
H351	H	1.092201	0.123608	0.904492
H352	H	1.342201	0.373608	1.154492
Cl353	Cl	1.075844	-0.929018	0.423940
Cl354	Cl	1.325844	-0.679018	0.673940
Cl355	Cl	1.575844	-0.429018	0.923940
Cl356	Cl	1.825844	-0.179018	1.173940
Cl357	Cl	0.880436	-0.676851	0.228313
Cl358	Cl	1.130436	-0.426851	0.478313
Cl359	Cl	1.380436	-0.176851	0.728313
Cl360	Cl	1.630436	0.073149	0.978313
Cl361	Cl	0.380325	-0.212266	0.228602
Cl362	Cl	0.630325	0.037734	0.478602
Cl363	Cl	0.880325	0.287734	0.728602
Cl364	Cl	1.130325	0.537734	0.978602
Cl365	Cl	0.736097	-0.212254	0.228570
Cl366	Cl	0.986097	0.037746	0.478570
Cl367	Cl	1.236097	0.287746	0.728570
Cl368	Cl	1.486097	0.537746	0.978570
Cl369	Cl	1.075682	-0.528182	0.423869
Cl370	Cl	1.325682	-0.278182	0.673869
Cl371	Cl	1.575682	-0.028182	0.923869
Cl372	Cl	1.825682	0.221818	1.173869
