data_functionalizedCrystal
_audit_creation_method	'MofGen! by Chris Wilmer'
_symmetry_space_group_name_H-M	'P1'
_symmetry_Int_Tables_number	1
_symmetry_cell_setting	triclinic
loop_
_symmetry_equiv_pos_as_xyz
  x,y,z
_cell_length_a	12.759401
_cell_length_b	12.759400
_cell_length_c	12.759393
_cell_angle_alpha	90.030447
_cell_angle_beta	90.018567
_cell_angle_gamma	90.012209
loop_
_atom_site_label
_atom_site_type_symbol
_atom_site_fract_x
_atom_site_fract_y
_atom_site_fract_z
Zn1	Zn	1.606267	-0.418231	0.593991
Zn2	Zn	1.606166	-0.593950	0.418315
Zn3	Zn	1.430569	-0.418283	0.418331
Zn4	Zn	1.430562	-0.593866	0.593956
O5	O	1.518391	-0.506082	0.506148
O6	O	1.753274	-0.441554	0.570696
O7	O	1.582833	-0.570704	0.271296
O8	O	1.453920	-0.271255	0.441654
O9	O	1.753200	-0.570654	0.441627
O10	O	1.583005	-0.271217	0.570711
O11	O	1.453822	-0.441642	0.271307
O12	O	1.283547	-0.441560	0.441620
O13	O	1.453909	-0.570511	0.740982
O14	O	1.283542	-0.570561	0.570651
O15	O	1.582998	-0.441473	0.741008
O16	O	1.582826	-0.740960	0.441593
O17	O	1.453811	-0.740898	0.570636
C18	C	1.245423	-0.506058	0.506134
C19	C	1.128647	-0.506072	0.506152
C20	C	1.073816	-0.438977	0.573463
C21	C	0.964092	-0.438997	0.573469
C22	C	0.964039	-0.573217	0.438853
C23	C	1.073761	-0.573191	0.438841
C24	C	1.128702	-0.371858	0.640774
C25	C	1.073872	-0.304758	0.708090
C26	C	0.964148	-0.304778	0.708097
C27	C	0.909254	-0.371899	0.640787
C28	C	1.518336	-0.779050	0.506132
C29	C	1.518408	-0.895826	0.506160
C30	C	1.585589	-0.950589	0.573415
C31	C	1.585638	-1.060313	0.573441
C32	C	1.451322	-1.060502	0.438947
C33	C	1.451269	-0.950780	0.438927
C34	C	1.652728	-0.895635	0.640647
C35	C	1.719915	-0.950398	0.707907
C36	C	1.719964	-1.060122	0.707933
C37	C	1.652826	-1.115083	0.640699
C38	C	1.792424	-0.506108	0.506164
C39	C	1.909201	-0.506119	0.506170
C40	C	1.518464	-0.505976	0.780182
C41	C	1.518496	-0.505931	0.896959
C42	C	1.518475	-0.232049	0.506188
C43	C	1.518510	-0.115272	0.506205
C44	C	1.518378	-0.506112	0.233181
C45	C	1.518550	-0.505861	0.116405
C46	C	1.585722	-0.438735	0.951836
C47	C	1.585747	-0.438697	1.061560
C48	C	1.451316	-0.573061	1.061520
C49	C	1.451287	-0.573093	0.951798
C50	C	1.652930	-0.371573	0.896997
C51	C	1.720163	-0.304372	0.951874
C52	C	1.720188	-0.304334	1.061598
C53	C	1.652980	-0.371497	1.116445
H54	H	1.218045	-0.371834	0.640776
H55	H	1.774874	-0.249684	0.907210
O56	O	1.385944	-0.638339	1.114633
C57	C	1.326620	-0.697678	1.042667
H58	H	1.322969	-0.654667	0.964463
H59	H	1.365068	-0.777476	1.030978
C60	C	1.219295	-0.765627	1.181535
C61	C	1.214804	-0.712796	1.085487
H62	H	1.150324	-0.774958	1.207949
H63	H	1.259265	-0.725654	1.230021
H64	H	1.251340	-0.832121	1.171782
H65	H	1.182773	-0.646300	1.095244
H66	H	1.174826	-0.752760	1.037003
H67	H	0.919335	-0.627865	0.384054
H68	H	1.774571	-0.905643	0.762653
H69	H	1.118405	-0.627826	0.384032
O70	O	0.910836	-0.239488	0.773332
C71	C	0.847324	-0.171586	0.713646
H72	H	0.880355	-0.164983	0.630908
H73	H	0.764166	-0.204083	0.709976
C74	C	0.805090	-0.070542	0.866792
C75	C	0.845665	-0.062426	0.765174
H76	H	0.804062	-0.003208	0.898578
H77	H	0.847876	-0.116291	0.907004
H78	H	0.735796	-0.097627	0.863720
H79	H	0.914962	-0.035354	0.768248
H80	H	0.802890	-0.016669	0.724963
H81	H	1.652698	-0.806292	0.640632
H82	H	1.118573	-0.250105	0.762885
H83	H	1.396563	-0.906192	0.384163
H84	H	0.819909	-0.371887	0.640775
O85	O	1.785071	-1.113367	0.773380
C86	C	1.725255	-1.176844	0.841187
H87	H	1.642490	-1.143830	0.847604
H88	H	1.721691	-1.260027	0.808719
C89	C	1.878187	-1.218960	0.942566
C90	C	1.776535	-1.178406	0.950454
H91	H	1.909820	-1.219928	1.009966
H92	H	1.918487	-1.176197	0.896881
H93	H	1.875203	-1.288275	0.915505
H94	H	1.779522	-1.109088	0.977501
H95	H	1.736236	-1.221157	0.996146
H96	H	1.652859	-1.204428	0.640737
O97	O	1.785536	-0.239199	1.115026
C98	C	1.853405	-0.299001	1.178471
H99	H	1.816329	-0.378611	1.194888
H100	H	1.931251	-0.310566	1.136193
C101	C	1.918002	-0.143383	1.262546
C102	C	1.872461	-0.241159	1.282717
H103	H	1.929762	-0.107702	1.326848
H104	H	1.872281	-0.103092	1.219799
H105	H	1.982869	-0.153034	1.227311
H106	H	1.807590	-0.231506	1.317939
H107	H	1.918172	-0.281446	1.325472
O108	O	1.386143	-0.638421	0.898357
C109	C	1.445937	-0.706308	0.834898
H110	H	1.525565	-0.669260	0.818495
H111	H	1.457463	-0.784160	0.877157
C112	C	1.290318	-0.770846	0.750797
C113	C	1.388116	-0.725339	0.730644
H114	H	1.254651	-0.782590	0.686490
H115	H	1.250033	-0.725113	0.793554
H116	H	1.299937	-0.835718	0.786016
H117	H	1.378495	-0.660462	0.695438
H118	H	1.428399	-0.771062	0.687879
O119	O	1.386063	-1.114004	0.373780
C120	C	1.318188	-1.177459	0.433549
H121	H	1.355208	-1.193812	0.513204
H122	H	1.240302	-1.135222	0.445017
C123	C	1.253784	-1.261653	0.277912
C124	C	1.299256	-1.281746	0.375743
H125	H	1.242100	-1.325981	0.242254
H126	H	1.299509	-1.218900	0.237644
H127	H	1.188883	-1.226453	0.287483
H128	H	1.364160	-1.316934	0.366171
H129	H	1.253541	-1.324508	0.416008
H130	H	1.652920	-0.371599	0.807654
H131	H	1.652994	-0.371449	1.205790
