data_functionalizedCrystal
_audit_creation_method	'MofGen! by Chris Wilmer'
_symmetry_space_group_name_H-M	'P1'
_symmetry_Int_Tables_number	1
_symmetry_cell_setting	triclinic
loop_
_symmetry_equiv_pos_as_xyz
  x,y,z
_cell_length_a	17.038272
_cell_length_b	27.731996
_cell_length_c	15.500227
_cell_angle_alpha	92.797931
_cell_angle_beta	86.956295
_cell_angle_gamma	86.866472
loop_
_atom_site_label
_atom_site_type_symbol
_atom_site_fract_x
_atom_site_fract_y
_atom_site_fract_z
O1	O	1.039770	0.102823	-0.071855
O2	O	1.289770	0.352823	0.178145
O3	O	1.539770	0.602823	0.428145
O4	O	1.789770	0.852823	0.678145
O5	O	0.812161	0.101156	-0.071880
O6	O	1.062161	0.351156	0.178120
O7	O	1.312161	0.601156	0.428120
O8	O	1.562161	0.851156	0.678120
O9	O	0.933055	0.031916	-0.071848
O10	O	1.183055	0.281916	0.178152
O11	O	1.433055	0.531916	0.428152
O12	O	1.683055	0.781916	0.678152
O13	O	0.918876	0.172063	-0.071887
O14	O	1.168876	0.422063	0.178113
O15	O	1.418876	0.672063	0.428113
O16	O	1.668876	0.922063	0.678113
O17	O	0.925719	0.036100	0.072039
O18	O	1.175719	0.286100	0.322039
O19	O	1.425719	0.536100	0.572039
O20	O	1.675719	0.786100	0.822039
O21	O	0.804825	0.105340	0.072007
O22	O	1.054825	0.355340	0.322007
O23	O	1.304825	0.605340	0.572007
O24	O	1.554825	0.855340	0.822007
O25	O	1.032434	0.107007	0.072032
O26	O	1.282434	0.357007	0.322032
O27	O	1.532434	0.607007	0.572032
O28	O	1.782434	0.857007	0.822032
Cu29	Cu	0.917960	0.106555	0.085157
Cu30	Cu	1.167960	0.356555	0.335157
Cu31	Cu	1.417960	0.606555	0.585157
Cu32	Cu	1.667960	0.856555	0.835157
Cu33	Cu	0.926635	0.101607	-0.085006
Cu34	Cu	1.176635	0.351607	0.164994
Cu35	Cu	1.426635	0.601607	0.414994
Cu36	Cu	1.676635	0.851607	0.664994
O37	O	0.911540	0.176247	0.072000
O38	O	1.161540	0.426247	0.322000
O39	O	1.411540	0.676247	0.572000
O40	O	1.661540	0.926247	0.822000
C41	C	0.779383	0.101733	0.000060
C42	C	1.029383	0.351733	0.250060
C43	C	1.279383	0.601733	0.500060
C44	C	1.529383	0.851733	0.750060
C45	C	0.692644	0.097212	0.000052
C46	C	0.942644	0.347212	0.250052
C47	C	1.192644	0.597212	0.500052
C48	C	1.442644	0.847212	0.750052
C49	C	0.642034	0.138715	0.000041
C50	C	0.892034	0.388715	0.250041
C51	C	1.142034	0.638715	0.500041
C52	C	1.392034	0.888715	0.750041
C53	C	0.560534	0.134465	0.000054
C54	C	0.810534	0.384465	0.250054
C55	C	1.060534	0.634465	0.500054
C56	C	1.310534	0.884465	0.750054
C57	C	0.529646	0.088711	0.000072
C58	C	0.779646	0.338711	0.250072
C59	C	1.029646	0.588711	0.500072
C60	C	1.279646	0.838711	0.750072
C61	C	0.580262	0.047205	0.000085
C62	C	0.830262	0.297205	0.250085
C63	C	1.080262	0.547205	0.500085
C64	C	1.330262	0.797205	0.750085
C65	C	0.661760	0.051456	0.000078
C66	C	0.911760	0.301456	0.250078
C67	C	1.161760	0.551456	0.500078
C68	C	1.411760	0.801456	0.750078
C69	C	0.284066	0.073695	0.000099
C70	C	0.534066	0.323695	0.250099
C71	C	0.784066	0.573695	0.500099
C72	C	1.034066	0.823695	0.750099
C73	C	0.202561	0.069447	0.000103
C74	C	0.452561	0.319447	0.250103
C75	C	0.702561	0.569447	0.500103
C76	C	0.952561	0.819447	0.750103
C77	C	0.182839	0.156707	0.000074
C78	C	0.432839	0.406707	0.250074
C79	C	0.682839	0.656707	0.500074
C80	C	0.932839	0.906707	0.750074
C81	C	0.264340	0.160954	0.000062
C82	C	0.514340	0.410954	0.250062
C83	C	0.764340	0.660954	0.500062
C84	C	1.014340	0.910954	0.750062
C85	C	0.314949	0.119448	0.000080
C86	C	0.564949	0.369448	0.250080
C87	C	0.814949	0.619448	0.500080
C88	C	1.064949	0.869448	0.750080
C89	C	0.446340	0.084366	0.000082
C90	C	0.696340	0.334366	0.250082
C91	C	0.946340	0.584366	0.500082
C92	C	1.196340	0.834366	0.750082
C93	C	0.398253	0.123794	0.000075
C94	C	0.648253	0.373794	0.250075
C95	C	0.898253	0.623794	0.500075
C96	C	1.148253	0.873794	0.750075
C97	C	0.929095	0.015987	0.000098
C98	C	1.179095	0.265987	0.250098
C99	C	1.429095	0.515987	0.500098
C100	C	1.679095	0.765987	0.750098
C101	C	0.928218	-0.037709	0.000107
C102	C	1.178218	0.212291	0.250107
C103	C	1.428218	0.462291	0.500107
C104	C	1.678218	0.712291	0.750107
C105	C	0.926698	-0.372960	-0.078369
C106	C	1.176698	-0.122960	0.171631
C107	C	1.426698	0.127040	0.421631
C108	C	1.676698	0.377040	0.671631
C109	C	0.923367	-0.574771	-0.078384
C110	C	1.173367	-0.324771	0.171616
C111	C	1.423367	-0.074771	0.421616
C112	C	1.673367	0.175229	0.671616
O113	O	0.926304	-0.602803	-0.145089
O114	O	1.176304	-0.352803	0.104911
O115	O	1.426304	-0.102803	0.354911
O116	O	1.676304	0.147197	0.604911
N117	N	0.918955	-0.597726	0.000048
N118	N	1.168955	-0.347726	0.250048
N119	N	1.418955	-0.097726	0.500048
N120	N	1.668955	0.152274	0.750048
C121	C	0.915369	-0.570226	0.078489
C122	C	1.165369	-0.320226	0.328489
C123	C	1.415369	-0.070226	0.578489
C124	C	1.665369	0.179774	0.828489
O125	O	0.911532	-0.594381	0.145200
O126	O	1.161532	-0.344381	0.395200
O127	O	1.411532	-0.094381	0.645200
O128	O	1.661532	0.155619	0.895200
C129	C	0.918695	-0.368415	0.078504
C130	C	1.168695	-0.118415	0.328504
C131	C	1.418695	0.131585	0.578504
C132	C	1.668695	0.381585	0.828504
C133	C	0.923116	-0.345463	0.000067
C134	C	1.173116	-0.095463	0.250067
C135	C	1.423116	0.154537	0.500067
C136	C	1.673116	0.404537	0.750067
C137	C	0.931118	-0.350007	-0.156799
C138	C	1.181118	-0.100007	0.093201
C139	C	1.431118	0.149993	0.343201
C140	C	1.681118	0.399993	0.593201
C141	C	0.931955	-0.299558	-0.156795
C142	C	1.181955	-0.049558	0.093205
C143	C	1.431955	0.200442	0.343205
C144	C	1.681955	0.450442	0.593205
C145	C	0.928372	-0.272061	-0.078359
C146	C	1.178372	-0.022061	0.171641
C147	C	1.428372	0.227939	0.421641
C148	C	1.678372	0.477939	0.671641
C149	C	0.923953	-0.295013	0.000071
C150	C	1.173953	-0.045013	0.250071
C151	C	1.423953	0.204987	0.500071
C152	C	1.673953	0.454987	0.750071
C153	C	0.915104	-0.340915	0.156944
C154	C	1.165104	-0.090915	0.406944
C155	C	1.415104	0.159085	0.656944
C156	C	1.665104	0.409085	0.906944
C157	C	0.915934	-0.290459	0.156941
C158	C	1.165934	-0.040459	0.406941
C159	C	1.415934	0.209541	0.656941
C160	C	1.665934	0.459541	0.906941
C161	C	0.920355	-0.267507	0.078504
C162	C	1.170355	-0.017507	0.328504
C163	C	1.420355	0.232493	0.578504
C164	C	1.670355	0.482493	0.828504
C165	C	0.921207	-0.217067	0.078511
C166	C	1.171207	0.032933	0.328511
C167	C	1.421207	0.282933	0.578511
C168	C	1.671207	0.532933	0.828511
N169	N	0.925620	-0.194111	0.000080
N170	N	1.175620	0.055889	0.250080
N171	N	1.425620	0.305889	0.500080
N172	N	1.675620	0.555889	0.750080
C173	C	0.929202	-0.221608	-0.078356
C174	C	1.179202	0.028392	0.171644
C175	C	1.429202	0.278392	0.421644
C176	C	1.679202	0.528392	0.671644
C177	C	0.913625	-0.676179	0.078476
C178	C	1.163625	-0.426179	0.328476
C179	C	1.413625	-0.176179	0.578476
C180	C	1.663625	0.073821	0.828476
C181	C	0.912795	-0.726632	0.078472
C182	C	1.162795	-0.476632	0.328472
C183	C	1.412795	-0.226632	0.578472
C184	C	1.662795	0.023368	0.828472
C185	C	0.920792	-0.731173	-0.078401
C186	C	1.170792	-0.481173	0.171599
C187	C	1.420792	-0.231173	0.421599
C188	C	1.670792	0.018827	0.671599
C189	C	0.921627	-0.680720	-0.078397
C190	C	1.171627	-0.430720	0.171603
C191	C	1.421627	-0.180720	0.421603
C192	C	1.671627	0.069280	0.671603
C193	C	0.918038	-0.653224	0.000044
C194	C	1.168038	-0.403224	0.250044
C195	C	1.418038	-0.153224	0.500044
C196	C	1.668038	0.096776	0.750044
C197	C	0.930960	-0.115660	-0.078340
C198	C	1.180960	0.134340	0.171660
C199	C	1.430960	0.384340	0.421660
C200	C	1.680960	0.634340	0.671660
C201	C	0.931800	-0.065206	-0.078328
C202	C	1.181800	0.184794	0.171672
C203	C	1.431800	0.434794	0.421672
C204	C	1.681800	0.684794	0.671672
C205	C	0.923800	-0.060669	0.078545
C206	C	1.173800	0.189331	0.328545
C207	C	1.423800	0.439331	0.578545
C208	C	1.673800	0.689331	0.828545
C209	C	0.922964	-0.111118	0.078534
C210	C	1.172964	0.138882	0.328534
C211	C	1.422964	0.388882	0.578534
C212	C	1.672964	0.638882	0.828534
C213	C	0.926542	-0.138613	0.000084
C214	C	1.176542	0.111387	0.250084
C215	C	1.426542	0.361387	0.500084
C216	C	1.676542	0.611387	0.750084
O217	O	0.918264	-0.189005	0.145181
O218	O	1.168264	0.060995	0.395181
O219	O	1.418264	0.310995	0.645181
O220	O	1.668264	0.560995	0.895181
O221	O	0.933022	-0.197443	-0.145057
O222	O	1.183022	0.052557	0.104943
O223	O	1.433022	0.302557	0.354943
O224	O	1.683022	0.552557	0.604943
C225	C	0.925861	-0.423410	-0.078373
C226	C	1.175861	-0.173410	0.171627
C227	C	1.425861	0.076590	0.421627
C228	C	1.675861	0.326590	0.671627
C229	C	0.921442	-0.446362	0.000057
C230	C	1.171442	-0.196362	0.250057
C231	C	1.421442	0.053638	0.500057
C232	C	1.671442	0.303638	0.750057
C233	C	0.917859	-0.418865	0.078493
C234	C	1.167859	-0.168865	0.328493
C235	C	1.417859	0.081135	0.578493
C236	C	1.667859	0.331135	0.828493
C237	C	0.920612	-0.496815	0.000054
C238	C	1.170612	-0.246815	0.250054
C239	C	1.420612	0.003185	0.500054
C240	C	1.670612	0.253185	0.750054
C241	C	0.924194	-0.524312	-0.078381
C242	C	1.174194	-0.274312	0.171619
C243	C	1.424194	-0.024312	0.421619
C244	C	1.674194	0.225688	0.671619
C245	C	0.928607	-0.501356	-0.156813
C246	C	1.178607	-0.251356	0.093187
C247	C	1.428607	-0.001356	0.343187
C248	C	1.678607	0.248644	0.593187
C249	C	0.929444	-0.450907	-0.156809
C250	C	1.179444	-0.200907	0.093191
C251	C	1.429444	0.049093	0.343191
C252	C	1.679444	0.299093	0.593191
C253	C	0.913447	-0.441820	0.156925
C254	C	1.163447	-0.191820	0.406925
C255	C	1.413447	0.058180	0.656925
C256	C	1.663447	0.308180	0.906925
C257	C	0.912611	-0.492270	0.156913
C258	C	1.162611	-0.242270	0.406913
C259	C	1.412611	0.007730	0.656913
C260	C	1.662611	0.257730	0.906913
C261	C	0.916193	-0.519767	0.078478
C262	C	1.166193	-0.269767	0.328478
C263	C	1.416193	-0.019767	0.578478
C264	C	1.666193	0.230233	0.828478
C265	C	1.065212	0.106430	0.000089
C266	C	1.315212	0.356430	0.250089
C267	C	1.565212	0.606430	0.500089
C268	C	1.815212	0.856430	0.750089
C269	C	1.151951	0.110950	0.000092
C270	C	1.401951	0.360950	0.250092
C271	C	1.651951	0.610950	0.500092
C272	C	1.901951	0.860950	0.750092
C273	C	0.915500	0.192175	0.000051
C274	C	1.165500	0.442175	0.250051
C275	C	1.415500	0.692175	0.500051
C276	C	1.665500	0.942175	0.750051
C277	C	0.916378	0.245871	0.000037
C278	C	1.166378	0.495871	0.250037
C279	C	1.416378	0.745871	0.500037
C280	C	1.666378	0.995871	0.750037
N281	N	0.911864	0.110035	0.204841
N282	N	1.161864	0.360035	0.454841
N283	N	1.411864	0.610035	0.704841
N284	N	1.661864	0.860035	0.954841
N285	N	0.932738	0.098123	-0.204689
N286	N	1.182738	0.348123	0.045311
N287	N	1.432738	0.598123	0.295311
N288	N	1.682738	0.848123	0.545311
C289	C	0.963108	0.080708	0.250131
C290	C	1.213108	0.330708	0.500131
C291	C	1.463108	0.580708	0.750131
C292	C	1.713108	0.830708	1.000131
C293	C	0.958505	0.083345	0.340702
C294	C	1.208505	0.333345	0.590702
C295	C	1.458505	0.583345	0.840702
C296	C	1.708505	0.833345	1.090702
C297	C	0.902660	0.115312	0.385982
C298	C	1.152660	0.365312	0.635982
C299	C	1.402660	0.615312	0.885982
C300	C	1.652660	0.865312	1.135982
C301	C	0.851410	0.144640	0.340686
C302	C	1.101410	0.394640	0.590686
C303	C	1.351410	0.644640	0.840686
C304	C	1.601410	0.894640	1.090686
C305	C	0.856010	0.142001	0.250116
C306	C	1.106010	0.392001	0.500116
C307	C	1.356010	0.642001	0.750116
C308	C	1.606010	0.892001	1.000116
C309	C	0.886088	0.124812	0.659445
C310	C	1.136088	0.374812	0.909445
C311	C	1.386088	0.624812	1.159445
C312	C	1.636088	0.874812	1.409445
C313	C	0.881493	0.127451	0.750021
C314	C	1.131493	0.377451	1.000021
C315	C	1.381493	0.627451	1.250021
C316	C	1.631493	0.877451	1.500021
C317	C	0.988588	0.066155	0.750031
C318	C	1.238588	0.316155	1.000031
C319	C	1.488588	0.566155	1.250031
C320	C	1.738588	0.816155	1.500031
C321	C	0.993186	0.063520	0.659460
C322	C	1.243186	0.313520	0.909460
C323	C	1.493186	0.563520	1.159460
C324	C	1.743186	0.813520	1.409460
C325	C	0.941933	0.092846	0.614171
C326	C	1.191933	0.342846	0.864171
C327	C	1.441933	0.592846	1.114171
C328	C	1.691933	0.842846	1.364171
C329	C	0.897955	0.118009	0.478561
C330	C	1.147955	0.368009	0.728561
C331	C	1.397955	0.618009	0.978561
C332	C	1.647955	0.868009	1.228561
C333	C	0.946635	0.090147	0.521594
C334	C	1.196635	0.340147	0.771594
C335	C	1.446635	0.590147	1.021594
C336	C	1.696635	0.840147	1.271594
H337	H	0.667177	0.175972	0.000026
H338	H	0.917177	0.425972	0.250026
H339	H	1.167177	0.675972	0.500026
H340	H	1.417177	0.925972	0.750026
H341	H	0.519330	0.168261	0.000044
H342	H	0.769330	0.418261	0.250044
H343	H	1.019330	0.668261	0.500044
H344	H	1.269330	0.918261	0.750044
H345	H	0.923710	-0.753570	-0.142266
H346	H	1.173710	-0.503570	0.107734
H347	H	1.423710	-0.253570	0.357734
H348	H	1.673710	-0.003570	0.607734
H349	H	1.000232	0.059464	0.377577
H350	H	1.250232	0.309464	0.627577
H351	H	1.500232	0.559464	0.877577
H352	H	1.750232	0.809464	1.127577
H353	H	1.038659	0.037490	0.622595
H354	H	1.288659	0.287490	0.872595
H355	H	1.538659	0.537490	1.122595
H356	H	1.788659	0.787490	1.372595
H357	H	0.555106	0.009952	0.000112
H358	H	0.805106	0.259952	0.250112
H359	H	1.055106	0.509952	0.500112
H360	H	1.305106	0.759952	0.750112
H361	H	0.934033	-0.372390	-0.220674
H362	H	1.184033	-0.122390	0.029326
H363	H	1.434033	0.127610	0.279326
H364	H	1.684033	0.377610	0.529326
H365	H	0.325262	0.039898	0.000114
H366	H	0.575262	0.289898	0.250114
H367	H	0.825262	0.539898	0.500114
H368	H	1.075262	0.789898	0.750114
H369	H	0.933870	-0.138041	-0.142221
H370	H	1.183870	0.111959	0.107779
H371	H	1.433870	0.361959	0.357779
H372	H	1.683870	0.611959	0.607779
H373	H	0.805936	0.170666	0.377558
H374	H	1.055936	0.420666	0.627558
H375	H	1.305936	0.670666	0.877558
H376	H	1.555936	0.920666	1.127558
H377	H	0.421180	0.047114	0.000121
H378	H	0.671180	0.297114	0.250121
H379	H	0.921180	0.547114	0.500121
H380	H	1.171180	0.797114	0.750121
H381	H	0.910706	-0.653796	0.142355
H382	H	1.160706	-0.403796	0.392355
H383	H	1.410706	-0.153796	0.642355
H384	H	1.660706	0.096204	0.892355
H385	H	0.925226	-0.662036	-0.142267
H386	H	1.175226	-0.412036	0.107733
H387	H	1.425226	-0.162036	0.357733
H388	H	1.675226	0.087964	0.607733
H389	H	0.909017	-0.510954	0.220791
H390	H	1.159017	-0.260954	0.470791
H391	H	1.409017	-0.010954	0.720791
H392	H	1.659017	0.239046	0.970791
H393	H	0.920886	-0.038272	0.142405
H394	H	1.170886	0.211728	0.392405
H395	H	1.420886	0.461728	0.642405
H396	H	1.670886	0.711728	0.892405
H397	H	1.030314	0.042278	0.786914
H398	H	1.280314	0.292278	1.036914
H399	H	1.530314	0.542278	1.286914
H400	H	1.780314	0.792278	1.536914
H401	H	0.931528	-0.523753	-0.220678
H402	H	1.181528	-0.273753	0.029322
H403	H	1.431528	-0.023753	0.279322
H404	H	1.681528	0.226247	0.529322
H405	H	0.702967	0.017660	0.000087
H406	H	0.952967	0.267660	0.250087
H407	H	1.202967	0.517660	0.500087
H408	H	1.452967	0.767660	0.750087
H409	H	0.910530	-0.419437	0.220797
H410	H	1.160530	-0.169437	0.470797
H411	H	1.410530	0.080563	0.720797
H412	H	1.660530	0.330563	0.970797
H413	H	0.909207	-0.745315	0.142344
H414	H	1.159207	-0.495315	0.392344
H415	H	1.409207	-0.245315	0.642344
H416	H	1.659207	0.004685	0.892344
H417	H	0.911505	-0.359594	0.220816
H418	H	1.161505	-0.109594	0.470816
H419	H	1.411505	0.140406	0.720816
H420	H	1.661505	0.390406	0.970816
H421	H	0.423406	0.161046	0.000065
H422	H	0.673406	0.411046	0.250065
H423	H	0.923406	0.661046	0.500065
H424	H	1.173406	0.911046	0.750065
H425	H	0.935402	-0.046521	-0.142204
H426	H	1.185402	0.203479	0.107796
H427	H	1.435402	0.453479	0.357796
H428	H	1.685402	0.703479	0.607796
H429	H	0.992101	0.064117	0.484725
H430	H	1.242101	0.314117	0.734725
H431	H	1.492101	0.564117	0.984725
H432	H	1.742101	0.814117	1.234725
H433	H	0.852486	0.144038	0.515435
H434	H	1.102486	0.394038	0.765435
H435	H	1.352486	0.644038	1.015435
H436	H	1.602486	0.894038	1.265435
H437	H	0.177416	0.032187	0.000117
H438	H	0.427416	0.282187	0.250117
H439	H	0.677416	0.532187	0.500117
H440	H	0.927416	0.782187	0.750117
H441	H	0.935552	-0.280875	-0.220666
H442	H	1.185552	-0.030875	0.029334
H443	H	1.435552	0.219125	0.279334
H444	H	1.685552	0.469125	0.529334
H445	H	0.912999	-0.268074	0.220818
H446	H	1.162999	-0.018074	0.470818
H447	H	1.412999	0.231926	0.720818
H448	H	1.662999	0.481926	0.970818
H449	H	1.008586	0.054680	0.213270
H450	H	1.258586	0.304680	0.463270
H451	H	1.508586	0.554680	0.713270
H452	H	1.758586	0.804680	0.963270
H453	H	0.836015	0.153484	0.786884
H454	H	1.086015	0.403484	1.036884
H455	H	1.336015	0.653484	1.286884
H456	H	1.586015	0.903484	1.536884
H457	H	0.919371	-0.129807	0.142403
H458	H	1.169371	0.120193	0.392403
H459	H	1.419371	0.370193	0.642403
H460	H	1.669371	0.620193	0.892403
H461	H	0.933043	-0.432224	-0.220680
H462	H	1.183043	-0.182224	0.029320
H463	H	1.433043	0.067776	0.279320
H464	H	1.683043	0.317776	0.529320
H465	H	0.844357	0.148692	0.622578
H466	H	1.094357	0.398692	0.872578
H467	H	1.344357	0.648692	1.122578
H468	H	1.594357	0.898692	1.372578
H469	H	0.141625	0.190499	0.000061
H470	H	0.391625	0.440499	0.250061
H471	H	0.641625	0.690499	0.500061
H472	H	0.891625	0.940499	0.750061
H473	H	0.814281	0.165881	0.213241
H474	H	1.064281	0.415881	0.463241
H475	H	1.314281	0.665881	0.713241
H476	H	1.564281	0.915881	0.963241
H477	H	0.289483	0.198211	0.000037
H478	H	0.539483	0.448211	0.250037
H479	H	0.789483	0.698211	0.500037
H480	H	1.039483	0.948211	0.750037
