data_functionalizedCrystal
_audit_creation_method	'MofGen! by Chris Wilmer'
_symmetry_space_group_name_H-M	'P1'
_symmetry_Int_Tables_number	1
_symmetry_cell_setting	triclinic
loop_
_symmetry_equiv_pos_as_xyz
  x,y,z
_cell_length_a	17.699083
_cell_length_b	12.376897
_cell_length_c	17.699083
_cell_angle_alpha	77.312465
_cell_angle_beta	83.283015
_cell_angle_gamma	77.316470
loop_
_atom_site_label
_atom_site_type_symbol
_atom_site_fract_x
_atom_site_fract_y
_atom_site_fract_z
O1	O	0.991179	0.093844	0.082800
O2	O	0.770795	0.093881	0.095247
O3	O	0.887215	0.093852	-0.021164
O4	O	0.874759	0.093874	0.199211
O5	O	0.913042	-0.094149	0.004698
O6	O	0.796622	-0.094119	0.121109
O7	O	1.017006	-0.094157	0.108662
Zn8	Zn	0.910915	-0.123987	0.118991
Zn9	Zn	0.876886	0.123712	0.084918
O10	O	0.900586	-0.094127	0.225073
C11	C	0.755511	-0.000114	0.107731
C12	C	0.671491	-0.000100	0.106391
N13	N	0.934144	-0.293035	0.142245
C14	C	0.622869	-0.000094	0.174723
C15	C	0.543928	-0.000109	0.173463
C16	C	0.513609	-0.000122	0.103869
C17	C	0.562238	-0.000132	0.035531
C18	C	0.641178	-0.000125	0.036793
C19	C	0.243878	-0.000160	0.030440
C20	C	0.164931	-0.000163	0.029182
C21	C	0.146628	-0.000144	0.167110
C22	C	0.225569	-0.000137	0.168372
C23	C	0.274191	-0.000153	0.100036
C24	C	0.359789	-0.000139	0.101403
C25	C	0.428012	-0.000128	0.102499
C26	C	0.799714	-0.648081	0.007672
C27	C	0.783443	-0.529748	-0.008606
C28	C	0.821117	-0.470564	0.029106
C29	C	0.875064	-0.529724	0.083097
C30	C	0.891340	-0.648068	0.099372
C31	C	0.912743	-0.470551	0.120806
C32	C	0.966690	-0.529711	0.174797
C33	C	0.982963	-0.648044	0.191069
C34	C	0.945290	-0.707228	0.153358
C35	C	0.896467	-0.352207	0.104531
C36	C	0.988093	-0.352195	0.196231
C37	C	1.004364	-0.470527	0.212509
C38	C	1.032290	-0.000158	0.096177
C39	C	1.116309	-0.000165	0.097517
C40	C	0.899682	-0.000149	-0.036430
C41	C	0.898344	-0.000149	-0.120448
N42	N	0.853663	0.292759	0.061658
C43	C	0.966679	-0.000162	-0.169067
C44	C	0.965415	-0.000152	-0.248012
C45	C	0.895816	-0.000137	-0.278335
C46	C	0.827476	-0.000120	-0.229710
C47	C	0.828739	-0.000122	-0.150768
C48	C	0.822379	-0.000110	-0.548074
C49	C	0.821121	-0.000111	-0.627022
C50	C	0.959055	-0.000140	-0.645318
C51	C	0.960318	-0.000142	-0.566376
C52	C	0.891977	-0.000119	-0.517759
C53	C	0.893348	-0.000128	-0.432159
C54	C	0.894446	-0.000136	-0.363933
C55	C	0.888119	-0.000124	0.240339
C56	C	0.889456	-0.000116	0.324356
H57	H	0.647548	-0.000082	0.231395
H58	H	0.773093	-0.000111	-0.111182
H59	H	0.504342	-0.000102	0.229106
H60	H	0.107031	-0.000137	0.222753
H61	H	1.023355	-0.000182	-0.144384
H62	H	0.769051	-0.696279	-0.023032
H63	H	0.250249	-0.000121	0.225042
H64	H	0.807866	-0.374212	0.015850
H65	H	0.140249	-0.000176	-0.027493
H66	H	0.283458	-0.000174	-0.025204
H67	H	0.764443	-0.000101	-0.651707
H68	H	0.537548	-0.000159	-0.021132
H69	H	0.680766	-0.000130	-0.018850
H70	H	0.852543	-0.304051	0.060572
H71	H	0.739522	-0.481589	-0.052567
H72	H	0.766731	-0.000092	-0.508499
H73	H	1.016993	-0.000160	-0.541692
H74	H	0.958531	-0.803584	0.166612
H75	H	1.026897	-0.696208	0.235025
H76	H	1.048288	-0.518712	0.256469
H77	H	0.770806	-0.000100	-0.254406
H78	H	1.018771	-0.304007	0.226939
H79	H	1.021061	-0.000165	-0.287595
H80	H	1.014701	-0.000152	-0.684913
