data_functionalizedCrystal
_audit_creation_method	'MofGen! by Chris Wilmer'
_symmetry_space_group_name_H-M	'P1'
_symmetry_Int_Tables_number	1
_symmetry_cell_setting	triclinic
loop_
_symmetry_equiv_pos_as_xyz
  x,y,z
_cell_length_a	23.096457
_cell_length_b	14.809374
_cell_length_c	14.809384
_cell_angle_alpha	119.201816
_cell_angle_beta	90.001439
_cell_angle_gamma	67.425492
loop_
_atom_site_label
_atom_site_type_symbol
_atom_site_fract_x
_atom_site_fract_y
_atom_site_fract_z
Zr1	Zr	0.639529	0.955209	0.203707
O2	O	0.568604	1.113128	0.350862
O3	O	0.651230	0.777443	0.145631
O4	O	0.674913	0.926590	0.332171
O5	O	0.537661	0.993478	0.031923
O6	O	0.770194	0.926591	0.332176
O7	O	0.544921	0.963981	0.164321
O8	O	0.727829	0.659795	-0.001511
O9	O	0.580026	1.260274	0.365610
O10	O	0.739459	0.857913	0.136530
O11	O	0.662934	0.879925	0.037719
O12	O	0.690818	1.055526	0.257346
O13	O	0.614293	1.077538	0.158536
Zr14	Zr	0.779912	1.002255	-0.007445
Zr15	Zr	0.791491	0.955212	0.203715
Zr16	Zr	0.627950	1.002253	-0.007453
Zr17	Zr	0.657746	1.189890	0.227229
Zr18	Zr	0.761695	0.767574	-0.030967
O19	O	0.768211	1.180021	0.050632
O20	O	0.784674	1.113131	0.350873
O21	O	0.552141	1.180018	0.050620
O22	O	0.850837	0.844336	-0.154599
O23	O	0.867300	0.777446	0.145642
O24	O	0.634767	0.844333	-0.154611
O25	O	0.881780	0.963986	0.164339
O26	O	0.744528	1.030874	-0.135909
O27	O	0.649247	1.030873	-0.135914
O28	O	0.874520	0.993483	0.031941
O29	O	0.700815	1.260276	0.365617
O30	O	0.718626	0.697188	-0.169354
O31	O	0.839415	0.697190	-0.169348
O32	O	0.848618	0.659797	-0.001504
O33	O	0.570823	1.297667	0.197766
O34	O	0.691612	1.297669	0.197773
O35	O	0.728623	0.901938	-0.061084
O36	O	0.805148	0.879927	0.037727
O37	O	0.756507	1.077540	0.158543
O38	O	0.679982	1.099551	0.059732
C39	C	0.686934	0.685182	0.068709
C40	C	0.679201	0.585554	0.058723
C41	C	0.713714	0.530217	0.103288
C42	C	0.705722	0.427246	0.092968
C43	C	0.519639	0.978729	0.098121
C44	C	0.455127	0.978728	0.098118
C45	C	0.450212	0.875578	0.035062
C46	C	0.389597	0.875577	0.035058
C47	C	0.333898	0.978729	0.098128
C48	C	0.338816	1.081894	0.161188
C49	C	0.399431	1.081894	0.161182
N50	N	0.222329	1.045363	0.190625
N51	N	0.164749	1.045355	0.190628
C52	C	0.151267	0.978736	0.098147
N53	N	0.197544	0.912105	0.005663
N54	N	0.255130	0.912108	0.005662
C55	C	0.268168	0.978741	0.098141
C56	C	0.080627	0.875578	0.035082
C57	C	0.020009	0.875583	0.035075
C58	C	-0.030771	1.081901	0.161214
C59	C	0.029847	1.081895	0.161211
C60	C	0.085543	0.978730	0.098147
C61	C	0.899802	0.978735	0.098141
C62	C	0.964314	0.978736	0.098145
C63	C	0.724204	0.919888	0.362259
C64	C	0.729119	0.899917	0.451902
C65	C	0.732507	1.272282	0.127554
C66	C	0.740241	1.371910	0.137539
C67	C	0.707181	0.989043	0.551801
C68	C	0.712261	0.968404	0.644453
C69	C	0.695237	1.037575	0.834002
C70	C	0.690320	1.057541	0.744356
C71	C	0.877015	0.685185	0.068719
C72	C	0.933794	0.585558	0.058737
C73	C	0.672451	0.744026	-0.195420
C74	C	0.659802	0.664369	-0.295048
C75	C	0.862532	0.744029	-0.195410
C76	C	0.914395	0.664373	-0.295035
C77	C	0.556909	1.213435	0.391672
C78	C	0.505046	1.293091	0.491297
C79	C	0.542426	1.272279	0.127543
C80	C	0.485647	1.371907	0.137526
C81	C	0.746990	1.213438	0.391682
C82	C	0.759639	1.293095	0.491310
C83	C	0.926169	0.527279	0.105632
C84	C	0.979514	0.433677	0.096274
C85	C	1.040483	0.398351	0.040013
C86	C	1.048107	0.456639	-0.006883
C87	C	0.994763	0.550244	0.002482
C88	C	0.688150	0.638454	-0.393418
C89	C	0.676263	0.563623	-0.487036
C90	C	0.636031	0.514701	-0.482283
C91	C	0.607679	0.540623	-0.383902
C92	C	0.619563	0.615459	-0.290286
C93	C	0.978702	0.615476	-0.290241
C94	C	1.027440	0.540641	-0.383840
C95	C	1.011869	0.514700	-0.482232
C96	C	0.947556	0.563606	-0.487022
C97	C	0.898820	0.638445	-0.393424
C98	C	0.440740	1.342000	0.486505
C99	C	0.392004	1.416863	0.580106
C100	C	0.407575	1.442810	0.678499
C101	C	0.471888	1.393898	0.683289
C102	C	0.520623	1.319043	0.589688
C103	C	0.493274	1.430193	0.090640
C104	C	0.439931	1.523816	0.100024
C105	C	0.378963	1.559145	0.156288
C106	C	0.371338	1.500852	0.203180
C107	C	0.424681	1.407237	0.193802
C108	C	0.799874	1.341994	0.486523
C109	C	0.811772	1.416830	0.580125
C110	C	0.783430	1.442771	0.678514
C111	C	0.743192	1.393863	0.683299
C112	C	0.731299	1.319023	0.589697
H113	H	0.670256	0.398391	0.047169
C114	C	0.788159	0.410879	0.199405
N115	N	0.824251	0.440232	0.246002
C116	C	0.320290	1.662123	0.166589
N117	N	0.276099	1.739684	0.174340
C118	C	0.304264	1.539715	0.265050
N119	N	0.253742	1.568981	0.311640
C120	C	0.353957	1.525145	0.781452
N121	N	0.313568	1.587156	0.858992
C122	C	0.588381	0.643942	-0.182083
N123	N	0.564893	0.665389	-0.100586
H124	H	0.626360	0.453766	-0.558520
C125	C	0.631287	0.546575	-0.003144
N126	N	0.595196	0.517218	-0.049742
H127	H	0.667778	1.149132	0.761300
C128	C	0.563428	0.486792	-0.378692
N129	N	0.530101	0.446238	-0.374772
C130	C	0.416279	1.343118	0.245370
N131	N	0.409946	1.294827	0.284213
C132	C	0.930437	0.535048	-0.595265
N133	N	0.917545	0.513528	-0.676798
H134	H	0.973294	0.386228	0.134463
C135	C	1.003160	0.614333	-0.049124
N136	N	1.009489	0.662599	-0.087998
H137	H	0.991392	0.636584	-0.210135
H138	H	0.572983	1.279219	0.593602
H139	H	0.684642	1.080626	0.568735
C140	C	-0.092037	1.195371	0.230591
N141	N	-0.138186	1.280839	0.282846
H142	H	1.083914	0.322129	0.032394
C143	C	0.759573	0.776188	0.429018
N144	N	0.782510	0.682993	0.411779
H145	H	0.495559	0.791571	-0.016284
C146	C	1.098179	0.486845	-0.378548
N147	N	1.151459	0.446325	-0.374559
H148	H	0.822956	1.320887	0.406418
C149	C	0.828081	0.692222	-0.398715
N150	N	0.774801	0.732727	-0.402707
C151	C	0.277546	1.195361	0.230569
N152	N	0.231397	1.280828	0.282829
C153	C	1.115178	0.417759	-0.068776
N154	N	1.165697	0.388465	-0.115402
C155	C	0.856031	1.470622	0.574838
N156	N	0.889367	1.511137	0.570853
C157	C	1.065487	0.432363	-0.585185
N158	N	1.105875	0.370341	-0.662726
H159	H	0.720910	0.678280	-0.397308
C160	C	0.321264	1.470652	0.574813
N161	N	0.267984	1.511164	0.570824
C162	C	0.560335	1.391356	0.028749
N163	N	0.610846	1.362115	-0.017863
C164	C	0.707464	0.535112	-0.595245
N165	N	0.730966	0.513637	-0.676745
C166	C	0.859108	0.566123	0.167532
N167	N	0.808600	0.595380	0.214164
H168	H	0.428049	1.320879	0.406397
C169	C	0.796518	1.525103	0.781470
N170	N	0.806377	1.587118	0.859014
C171	C	0.489006	1.422439	0.791530
N172	N	0.501896	1.443931	0.873059
H173	H	0.720119	1.414997	0.763421
H174	H	0.698534	1.279217	0.593611
H175	H	0.734807	0.876814	0.627511
H176	H	0.749182	0.559068	0.149077
C177	C	0.384187	0.762098	-0.034306
N178	N	0.380114	0.676624	-0.086549
C179	C	0.448331	1.587913	0.048426
N180	N	0.454660	1.636186	0.009558
H181	H	0.125976	0.791579	-0.016290
H182	H	0.403429	1.165895	0.212527
C183	C	0.035253	1.195367	0.230594
N184	N	0.039323	1.280839	0.282857
H185	H	0.016012	0.791583	-0.016280
