data_functionalizedCrystal
_audit_creation_method	'MofGen! by Chris Wilmer'
_symmetry_space_group_name_H-M	'P1'
_symmetry_Int_Tables_number	1
_symmetry_cell_setting	triclinic
loop_
_symmetry_equiv_pos_as_xyz
  x,y,z
_cell_length_a	25.639239
_cell_length_b	16.959455
_cell_length_c	16.959447
_cell_angle_alpha	89.985678
_cell_angle_beta	89.966924
_cell_angle_gamma	90.035633
loop_
_atom_site_label
_atom_site_type_symbol
_atom_site_fract_x
_atom_site_fract_y
_atom_site_fract_z
Zn1	Zn	-0.208183	1.208282	-0.446894
Zn2	Zn	0.291817	1.708282	0.053106
Zn3	Zn	-0.295624	1.208161	-0.314709
Zn4	Zn	0.204376	1.708161	0.185291
Zn5	Zn	-0.208199	1.076110	-0.314731
Zn6	Zn	0.291801	1.576110	0.185269
Zn7	Zn	-0.295585	1.076032	-0.446847
Zn8	Zn	0.204415	1.576032	0.053153
O9	O	-0.251898	1.142146	-0.380795
O10	O	0.248102	1.642146	0.119205
O11	O	-0.219792	1.318876	-0.429369
O12	O	0.280208	1.818876	0.070631
O13	O	-0.284050	1.190627	-0.204101
O14	O	0.215950	1.690627	0.295899
O15	O	-0.135032	1.093726	-0.332291
O16	O	0.364968	1.593726	0.167709
O17	O	-0.284034	1.318788	-0.332253
O18	O	0.215966	1.818788	0.167747
O19	O	-0.135020	1.190832	-0.429391
O20	O	0.364980	1.690832	0.070609
O21	O	-0.219820	1.093609	-0.204117
O22	O	0.280180	1.593609	0.295883
O23	O	-0.219782	0.965489	-0.332247
O24	O	0.280218	1.465489	0.167753
O25	O	-0.283967	1.093593	-0.557464
O26	O	0.216033	1.593593	-0.057464
O27	O	-0.283983	0.965431	-0.429312
O28	O	0.216017	1.465431	0.070688
O29	O	-0.219754	1.190756	-0.557498
O30	O	0.280246	1.690756	-0.057498
O31	O	-0.368784	1.190551	-0.332208
O32	O	0.131216	1.690551	0.167792
O33	O	-0.368755	1.093476	-0.429290
O34	O	0.131245	1.593476	0.070710
C35	C	-0.251880	0.936780	-0.380777
C36	C	0.248120	1.436780	0.119223
C37	C	-0.251886	0.848923	-0.380788
C38	C	0.248114	1.348923	0.119212
C39	C	-0.218441	0.477453	-0.330359
C40	C	0.281559	0.977453	0.169641
C41	C	-0.285398	0.477442	-0.431277
C42	C	0.214602	0.977442	0.068723
C43	C	-0.285390	0.559988	-0.431272
C44	C	0.214610	1.059988	0.068728
C45	C	-0.251908	0.601270	-0.380809
C46	C	0.248092	1.101270	0.119191
C47	C	-0.218433	0.560007	-0.330351
C48	C	0.281567	1.060007	0.169649
C49	C	-0.318868	0.601258	-0.481723
C50	C	0.181132	1.101258	0.018277
C51	C	-0.318863	0.683809	-0.481720
C52	C	0.181137	1.183809	0.018280
C53	C	-0.285377	0.725092	-0.431260
C54	C	0.214623	1.225092	0.068740
C55	C	-0.251901	0.683824	-0.380801
C56	C	0.248099	1.183824	0.119199
C57	C	-0.218418	0.725106	-0.330338
C58	C	0.281582	1.225106	0.169662
C59	C	-0.184939	0.683839	-0.279882
C60	C	0.315061	1.183839	0.220118
C61	C	-0.184948	0.601290	-0.279891
C62	C	0.315052	1.101290	0.220109
C63	C	-0.285368	0.807641	-0.431251
C64	C	0.214632	1.307641	0.068749
C65	C	-0.218411	0.807660	-0.330330
C66	C	0.281589	1.307660	0.169670
C67	C	-0.387740	1.142013	-0.380759
C68	C	0.112260	1.642013	0.119241
C69	C	-0.445854	1.142029	-0.380770
C70	C	0.054146	1.642029	0.119230
C71	C	-0.806220	1.192825	-0.330331
C72	C	-0.306220	1.692825	0.169669
C73	C	-0.860824	1.192855	-0.330341
C74	C	-0.360824	1.692855	0.169659
O75	O	-0.889063	1.235906	-0.287417
O76	O	-0.389063	1.735906	0.212583
N77	N	-0.888137	1.142285	-0.380847
N78	N	-0.388137	1.642285	0.119153
C79	C	-0.860842	1.091686	-0.431352
C80	C	-0.360842	1.591686	0.068648
O81	O	-0.889088	1.048675	-0.474313
O82	O	-0.389088	1.548675	0.025687
C83	C	-0.806239	1.091660	-0.431345
C84	C	-0.306239	1.591660	0.068655
C85	C	-0.778929	1.142228	-0.380830
C86	C	-0.278929	1.642228	0.119170
C87	C	-0.778910	1.243389	-0.279820
C88	C	-0.278910	1.743389	0.220180
C89	C	-0.724309	1.243358	-0.279809
C90	C	-0.224309	1.743358	0.220191
C91	C	-0.697019	1.192761	-0.330308
C92	C	-0.197019	1.692761	0.169692
C93	C	-0.724329	1.142196	-0.380818
C94	C	-0.224329	1.642196	0.119182
C95	C	-0.778946	1.041066	-0.481853
C96	C	-0.278946	1.541066	0.018147
C97	C	-0.724339	1.041045	-0.481842
C98	C	-0.224339	1.541045	0.018158
C99	C	-0.697029	1.091613	-0.431326
C100	C	-0.197029	1.591613	0.068674
C101	C	-0.642437	1.091568	-0.431306
C102	C	-0.142437	1.591568	0.068694
N103	N	-0.615125	1.142139	-0.380800
N104	N	-0.115125	1.642139	0.119200
C105	C	-0.642415	1.192735	-0.330301
C106	C	-0.142415	1.692735	0.169699
C107	C	-0.975513	1.091746	-0.431364
C108	C	-0.475513	1.591746	0.068636
C109	C	-1.030115	1.091767	-0.431368
C110	C	-0.530115	1.591767	0.068632
C111	C	-1.030093	1.192938	-0.330358
C112	C	-0.530093	1.692938	0.169642
C113	C	-0.975490	1.192912	-0.330351
C114	C	-0.475490	1.692912	0.169649
C115	C	-0.948200	1.142316	-0.380858
C116	C	-0.448200	1.642316	0.119142
C117	C	-0.527750	1.192664	-0.330280
C118	C	-0.027750	1.692664	0.169720
C119	C	-0.473145	1.192625	-0.330271
C120	C	0.026855	1.692625	0.169729
C121	C	-0.473172	1.091458	-0.431283
C122	C	0.026828	1.591458	0.068717
C123	C	-0.527772	1.091493	-0.431290
C124	C	-0.027772	1.591493	0.068710
C125	C	-0.555060	1.142103	-0.380786
C126	C	-0.055060	1.642103	0.119214
O127	O	-0.614164	1.048541	-0.474211
O128	O	-0.114164	1.548541	0.025789
O129	O	-0.614163	1.235746	-0.287355
O130	O	-0.114163	1.735746	0.212645
C131	C	-0.115525	1.142301	-0.380849
C132	C	0.384475	1.642301	0.119151
C133	C	-0.057411	1.142367	-0.380872
C134	C	0.442589	1.642367	0.119128
C135	C	-0.251854	1.142179	-0.586963
C136	C	0.248146	1.642179	-0.086963
C137	C	-0.251836	1.142193	-0.674820
C138	C	0.248164	1.642193	-0.174820
C139	C	-0.251915	1.348314	-0.380814
C140	C	0.248085	1.848314	0.119186
C141	C	-0.251923	1.436171	-0.380822
C142	C	0.248077	1.936171	0.119178
C143	C	-0.285214	1.091699	-1.046281
C144	C	0.214786	1.591699	-0.546281
C145	C	-0.218348	1.192876	-1.046311
C146	C	0.281652	1.692876	-0.546311
C147	C	-0.218359	1.192855	-0.963765
C148	C	0.281641	1.692855	-0.463765
C149	C	-0.251799	1.142256	-0.922473
C150	C	0.248201	1.642256	-0.422473
C151	C	-0.285227	1.091678	-0.963727
C152	C	0.214773	1.591678	-0.463727
C153	C	-0.184935	1.243438	-0.922505
C154	C	0.315065	1.743438	-0.422505
C155	C	-0.184945	1.243419	-0.839954
C156	C	0.315055	1.743419	-0.339954
C157	C	-0.218382	1.192816	-0.798661
C158	C	0.281618	1.692816	-0.298661
C159	C	-0.251812	1.142235	-0.839920
C160	C	0.248188	1.642235	-0.339920
C161	C	-0.285251	1.091636	-0.798628
C162	C	0.214749	1.591636	-0.298628
C163	C	-0.318679	1.041051	-0.839885
C164	C	0.181321	1.541051	-0.339885
C165	C	-0.318665	1.041074	-0.922433
C166	C	0.181335	1.541074	-0.422433
C167	C	-0.218396	1.192792	-0.716112
C168	C	0.281604	1.692792	-0.216112
C169	C	-0.285265	1.091615	-0.716074
C170	C	0.214735	1.591615	-0.216074
C171	C	-0.251903	1.142159	-0.175429
C172	C	0.248097	1.642159	0.324571
C173	C	-0.251774	1.142298	-0.087573
C174	C	0.248226	1.642298	0.412427
H175	H	-0.157680	0.717462	-0.238791
H176	H	0.342320	1.217462	0.261209
F177	F	-0.321000	0.851557	-0.484941
F178	F	0.179000	1.351557	0.015059
F179	F	-0.695298	0.987194	-0.535601
F180	F	-0.195298	1.487194	-0.035601
H181	H	-0.191181	0.443850	-0.289281
H182	H	0.308819	0.943850	0.210719
F183	F	-0.556839	1.037659	-0.485039
F184	F	-0.056839	1.537659	0.014961
H185	H	-0.312428	1.050511	-1.079876
H186	H	0.187572	1.550511	-0.579876
F187	F	-0.354239	0.987246	-0.966348
F188	F	0.145761	1.487246	-0.466348
H189	H	-0.450911	1.233804	-0.289133
H190	H	0.049089	1.733804	0.210867
F191	F	-0.354269	0.987205	-0.795930
F192	F	0.145731	1.487205	-0.295930
F193	F	-0.556784	1.246528	-0.276528
F194	F	-0.056784	1.746528	0.223472
F195	F	-0.321039	0.433505	-0.484965
F196	F	0.178961	0.933505	0.015035
H197	H	-0.953257	1.234089	-0.289218
H198	H	-0.453257	1.734089	0.210782
F199	F	-0.149320	0.557366	-0.226197
F200	F	0.350680	1.057366	0.273803
F201	F	-0.444118	1.037614	-0.485027
F202	F	0.055882	1.537614	0.014973
F203	F	-0.354514	0.557318	-0.535405
F204	F	0.145486	1.057318	-0.035405
F205	F	-0.807946	1.297247	-0.226069
F206	F	-0.307946	1.797247	0.273931
H207	H	-0.346123	0.717401	-0.522805
H208	H	0.153877	1.217401	-0.022805
H209	H	-0.702077	1.284537	-0.238678
H210	H	-0.202077	1.784537	0.261322
F211	F	-0.320854	1.037755	-0.672134
F212	F	0.179146	1.537755	-0.172134
F213	F	-1.059147	1.246786	-0.276611
F214	F	-0.559147	1.746786	0.223389
H215	H	-0.801172	0.999884	-0.522984
H216	H	-0.301172	1.499884	-0.022984
H217	H	-1.052346	1.050582	-0.472495
H218	H	-0.552346	1.550582	0.027505
H219	H	-0.191142	0.841266	-0.289241
H220	H	0.308858	1.341266	0.210759
H221	H	-0.157726	1.284608	-0.806369
H222	H	0.342274	1.784608	-0.306369
H223	H	-0.191126	1.234076	-1.079936
H224	H	0.308874	1.734076	-0.579936
H225	H	-0.157713	1.284638	-0.956131
H226	H	0.342287	1.784638	-0.456131
H227	H	-0.953296	1.050538	-0.472491
H228	H	-0.453296	1.550538	0.027509
H229	H	-0.191182	1.233980	-0.682524
H230	H	0.308818	1.733980	-0.182524
