data_functionalizedCrystal
_audit_creation_method	'MofGen! by Chris Wilmer'
_symmetry_space_group_name_H-M	'P1'
_symmetry_Int_Tables_number	1
_symmetry_cell_setting	triclinic
loop_
_symmetry_equiv_pos_as_xyz
  x,y,z
_cell_length_a	23.532407
_cell_length_b	23.532407
_cell_length_c	14.048226
_cell_angle_alpha	89.988910
_cell_angle_beta	89.996211
_cell_angle_gamma	82.848712
loop_
_atom_site_label
_atom_site_type_symbol
_atom_site_fract_x
_atom_site_fract_y
_atom_site_fract_z
O1	O	0.755261	0.069136	-0.079110
O2	O	1.005261	0.319136	0.170890
O3	O	1.255261	0.569136	0.420890
O4	O	1.505261	0.819136	0.670890
O5	O	0.589398	0.079140	-0.079127
O6	O	0.839398	0.329140	0.170873
O7	O	1.089398	0.579140	0.420873
O8	O	1.339398	0.829140	0.670873
O9	O	0.677331	-0.008794	-0.079100
O10	O	0.927331	0.241206	0.170900
O11	O	1.177331	0.491206	0.420900
O12	O	1.427331	0.741206	0.670900
O13	O	0.667328	0.157070	-0.079136
O14	O	0.917328	0.407070	0.170864
O15	O	1.167328	0.657070	0.420864
O16	O	1.417328	0.907070	0.670864
O17	O	0.677320	-0.008799	0.079221
O18	O	0.927320	0.241201	0.329221
O19	O	1.177320	0.491201	0.579221
O20	O	1.427320	0.741201	0.829221
O21	O	0.589387	0.079134	0.079195
O22	O	0.839387	0.329134	0.329195
O23	O	1.089387	0.579134	0.579195
O24	O	1.339387	0.829134	0.829195
O25	O	0.755250	0.069131	0.079211
O26	O	1.005250	0.319131	0.329211
O27	O	1.255250	0.569131	0.579211
O28	O	1.505250	0.819131	0.829211
Zn29	Zn	0.672317	0.074132	0.104340
Zn30	Zn	0.922317	0.324132	0.354340
Zn31	Zn	1.172317	0.574132	0.604340
Zn32	Zn	1.422317	0.824132	0.854340
Zn33	Zn	0.672331	0.074139	-0.104255
Zn34	Zn	0.922331	0.324139	0.145745
Zn35	Zn	1.172331	0.574139	0.395745
Zn36	Zn	1.422331	0.824139	0.645745
O37	O	0.667317	0.157065	0.079185
O38	O	0.917317	0.407065	0.329185
O39	O	1.167317	0.657065	0.579185
O40	O	1.417317	0.907065	0.829185
C41	C	0.568176	0.078882	0.000032
C42	C	0.818176	0.328882	0.250032
C43	C	1.068176	0.578882	0.500032
C44	C	1.318176	0.828882	0.750032
C45	C	0.504959	0.078116	0.000027
C46	C	0.754959	0.328116	0.250027
C47	C	1.004959	0.578116	0.500027
C48	C	1.254959	0.828116	0.750027
C49	C	0.238792	0.022921	0.000065
C50	C	0.488792	0.272921	0.250065
C51	C	0.738792	0.522921	0.500065
C52	C	0.988792	0.772921	0.750065
C53	C	0.298192	0.023632	0.000064
C54	C	0.548192	0.273632	0.250064
C55	C	0.798192	0.523632	0.500064
C56	C	1.048192	0.773632	0.750064
O57	O	0.334937	-0.020153	0.000107
O58	O	0.584937	0.229847	0.250107
O59	O	0.834937	0.479847	0.500107
O60	O	1.084937	0.729847	0.750107
N61	N	0.320818	0.075909	0.000046
N62	N	0.570818	0.325909	0.250046
N63	N	0.820818	0.575909	0.500046
N64	N	1.070818	0.825909	0.750046
C65	C	0.284041	0.127477	0.000039
C66	C	0.534041	0.377477	0.250039
C67	C	0.784041	0.627477	0.500039
C68	C	1.034041	0.877477	0.750039
O69	O	0.308740	0.172007	0.000024
O70	O	0.558740	0.422007	0.250024
O71	O	0.808740	0.672007	0.500024
O72	O	1.058740	0.922007	0.750024
C73	C	0.224642	0.126765	0.000046
C74	C	0.474642	0.376765	0.250046
C75	C	0.724642	0.626765	0.500046
C76	C	0.974642	0.876765	0.750046
C77	C	0.202019	0.074485	0.000054
C78	C	0.452019	0.324485	0.250054
C79	C	0.702019	0.574485	0.500054
C80	C	0.952019	0.824485	0.750054
C81	C	0.216168	-0.029354	0.000074
C82	C	0.466168	0.220646	0.250074
C83	C	0.716168	0.470646	0.500074
C84	C	0.966168	0.720646	0.750074
C85	C	0.156772	-0.030066	0.000072
C86	C	0.406772	0.219934	0.250072
C87	C	0.656772	0.469934	0.500072
C88	C	0.906772	0.719934	0.750072
C89	C	0.119999	0.021499	0.000062
C90	C	0.369999	0.271499	0.250062
C91	C	0.619999	0.521499	0.500062
C92	C	0.869999	0.771499	0.750062
C93	C	0.142623	0.073774	0.000053
C94	C	0.392623	0.323774	0.250053
C95	C	0.642623	0.573774	0.500053
C96	C	0.892623	0.823774	0.750053
C97	C	0.187865	0.178333	0.000045
C98	C	0.437865	0.428333	0.250045
C99	C	0.687865	0.678333	0.500045
C100	C	0.937865	0.928333	0.750045
C101	C	0.128463	0.177616	0.000053
C102	C	0.378463	0.427616	0.250053
C103	C	0.628463	0.677616	0.500053
C104	C	0.878463	0.927616	0.750053
C105	C	0.105840	0.125336	0.000061
C106	C	0.355840	0.375336	0.250061
C107	C	0.605840	0.625336	0.500061
C108	C	0.855840	0.875336	0.750061
C109	C	0.046454	0.124627	0.000041
C110	C	0.296454	0.374627	0.250041
C111	C	0.546454	0.624627	0.500041
C112	C	0.796454	0.874627	0.750041
N113	N	0.023828	0.072351	0.000059
N114	N	0.273828	0.322351	0.250059
N115	N	0.523828	0.572351	0.500059
N116	N	0.773828	0.822351	0.750059
C117	C	0.060600	0.020787	0.000069
C118	C	0.310600	0.270787	0.250069
C119	C	0.560600	0.520787	0.500069
C120	C	0.810600	0.770787	0.750069
C121	C	0.408783	0.128968	0.000025
C122	C	0.658783	0.378968	0.250025
C123	C	0.908783	0.628968	0.500025
C124	C	1.158783	0.878968	0.750025
C125	C	0.468181	0.129681	0.000011
C126	C	0.718181	0.379681	0.250011
C127	C	0.968181	0.629681	0.500011
C128	C	1.218181	0.879681	0.750011
C129	C	0.482328	0.025836	0.000038
C130	C	0.732328	0.275836	0.250038
C131	C	0.982328	0.525836	0.500038
C132	C	1.232328	0.775836	0.750038
C133	C	0.422929	0.025124	0.000046
C134	C	0.672929	0.275124	0.250046
C135	C	0.922929	0.525124	0.500046
C136	C	1.172929	0.775124	0.750046
C137	C	0.386157	0.076692	0.000043
C138	C	0.636157	0.326692	0.250043
C139	C	0.886157	0.576692	0.500043
C140	C	1.136157	0.826692	0.750043
C141	C	-0.064136	0.019297	0.000065
C142	C	0.185864	0.269297	0.250065
C143	C	0.435864	0.519297	0.500065
C144	C	0.685864	0.769297	0.750065
C145	C	-0.123538	0.018590	0.000060
C146	C	0.126462	0.268590	0.250060
C147	C	0.376462	0.518590	0.500060
C148	C	0.626462	0.768590	0.750060
C149	C	-0.137680	0.122435	0.000038
C150	C	0.112320	0.372435	0.250038
C151	C	0.362320	0.622435	0.500038
C152	C	0.612320	0.872435	0.750038
C153	C	-0.078284	0.123142	0.000038
C154	C	0.171716	0.373142	0.250038
C155	C	0.421716	0.623142	0.500038
C156	C	0.671716	0.873142	0.750038
C157	C	-0.041512	0.071568	0.000055
C158	C	0.208488	0.321568	0.250055
C159	C	0.458488	0.571568	0.500055
C160	C	0.708488	0.821568	0.750055
O161	O	0.009675	0.168390	0.000002
O162	O	0.259675	0.418390	0.250002
O163	O	0.509675	0.668390	0.500002
O164	O	0.759675	0.918390	0.750002
O165	O	0.035892	-0.023737	0.000096
O166	O	0.285892	0.226263	0.250096
O167	O	0.535892	0.476263	0.500096
O168	O	0.785892	0.726263	0.750096
C169	C	0.677071	-0.030012	0.000063
C170	C	0.927071	0.219988	0.250063
C171	C	1.177071	0.469988	0.500063
C172	C	1.427071	0.719988	0.750063
C173	C	0.676305	-0.093229	0.000070
C174	C	0.926305	0.156771	0.250070
C175	C	1.176305	0.406771	0.500070
C176	C	1.426305	0.656771	0.750070
C177	C	0.723538	-0.492332	0.000022
C178	C	0.973538	-0.242332	0.250022
C179	C	1.223538	0.007668	0.500022
C180	C	1.473538	0.257668	0.750022
C181	C	0.722827	-0.551733	0.000015
C182	C	0.972827	-0.301733	0.250015
C183	C	1.222827	-0.051733	0.500015
C184	C	1.472827	0.198267	0.750015
O185	O	0.766613	-0.588477	-0.000016
O186	O	1.016613	-0.338477	0.249984
O187	O	1.266613	-0.088477	0.499984
O188	O	1.516613	0.161523	0.749984
N189	N	0.670551	-0.574359	0.000011
N190	N	0.920551	-0.324359	0.250011
N191	N	1.170551	-0.074359	0.500011
N192	N	1.420551	0.175641	0.750011
C193	C	0.618982	-0.537581	0.000004
C194	C	0.868982	-0.287581	0.250004
C195	C	1.118982	-0.037581	0.500004
C196	C	1.368982	0.212419	0.750004
O197	O	0.574452	-0.562281	-0.000002
O198	O	0.824452	-0.312281	0.249998
O199	O	1.074452	-0.062281	0.499998
O200	O	1.324452	0.187719	0.749998
C201	C	0.619695	-0.478182	0.000004
C202	C	0.869695	-0.228182	0.250004
C203	C	1.119695	0.021818	0.500004
C204	C	1.369695	0.271818	0.750004
C205	C	0.671974	-0.455559	0.000018
C206	C	0.921974	-0.205559	0.250018
C207	C	1.171974	0.044441	0.500018
C208	C	1.421974	0.294441	0.750018
C209	C	0.775814	-0.469709	0.000035
C210	C	1.025814	-0.219709	0.250035
C211	C	1.275814	0.030291	0.500035
C212	C	1.525814	0.280291	0.750035
C213	C	0.776525	-0.410313	0.000045
C214	C	1.026525	-0.160313	0.250045
C215	C	1.276525	0.089687	0.500045
C216	C	1.526525	0.339687	0.750045
C217	C	0.724961	-0.373540	0.000041
C218	C	0.974961	-0.123540	0.250041
C219	C	1.224961	0.126460	0.500041
C220	C	1.474961	0.376460	0.750041
C221	C	0.672685	-0.396163	0.000027
C222	C	0.922685	-0.146163	0.250027
C223	C	1.172685	0.103837	0.500027
C224	C	1.422685	0.353837	0.750027
C225	C	0.568127	-0.441406	-0.000009
C226	C	0.818127	-0.191406	0.249991
C227	C	1.068127	0.058594	0.499991
C228	C	1.318127	0.308594	0.749991
C229	C	0.568843	-0.382003	-0.000010
C230	C	0.818843	-0.132003	0.249990
C231	C	1.068843	0.117997	0.499990
C232	C	1.318843	0.367997	0.749990
C233	C	0.621123	-0.359381	0.000004
C234	C	0.871123	-0.109381	0.250004
C235	C	1.121123	0.140619	0.500004
C236	C	1.371123	0.390619	0.750004
C237	C	0.621832	-0.299994	0.000033
C238	C	0.871832	-0.049994	0.250033
C239	C	1.121832	0.200006	0.500033
C240	C	1.371832	0.450006	0.750033
N241	N	0.674109	-0.277368	0.000037
N242	N	0.924109	-0.027368	0.250037
N243	N	1.174109	0.222632	0.500037
N244	N	1.424109	0.472632	0.750037
C245	C	0.725673	-0.314141	0.000041
C246	C	0.975673	-0.064141	0.250041
C247	C	1.225673	0.185859	0.500041
C248	C	1.475673	0.435859	0.750041
C249	C	0.617491	-0.662324	0.000001
C250	C	0.867491	-0.412324	0.250001
C251	C	1.117491	-0.162324	0.500001
C252	C	1.367491	0.087676	0.750001
C253	C	0.616778	-0.721722	0.000007
C254	C	0.866778	-0.471722	0.250007
C255	C	1.116778	-0.221722	0.500007
C256	C	1.366778	0.028278	0.750007
C257	C	0.720623	-0.735869	0.000017
C258	C	0.970623	-0.485869	0.250017
C259	C	1.220623	-0.235869	0.500017
C260	C	1.470623	0.014131	0.750017
C261	C	0.721335	-0.676470	0.000017
C262	C	0.971335	-0.426470	0.250017
C263	C	1.221335	-0.176470	0.500017
C264	C	1.471335	0.073530	0.750017
C265	C	0.669767	-0.639698	0.000006
C266	C	0.919767	-0.389698	0.250006
C267	C	1.169767	-0.139698	0.500006
C268	C	1.419767	0.110302	0.750006
C269	C	0.727163	-0.189404	0.000061
C270	C	0.977163	0.060596	0.250061
C271	C	1.227163	0.310596	0.500061
C272	C	1.477163	0.560596	0.750061
C273	C	0.727869	-0.130002	0.000074
C274	C	0.977869	0.119998	0.250074
C275	C	1.227869	0.369998	0.500074
C276	C	1.477869	0.619998	0.750074
C277	C	0.624025	-0.115860	0.000059
C278	C	0.874025	0.134140	0.250059
C279	C	1.124025	0.384140	0.500059
C280	C	1.374025	0.634140	0.750059
C281	C	0.623318	-0.175257	0.000051
C282	C	0.873318	0.074743	0.250051
C283	C	1.123318	0.324743	0.500051
C284	C	1.373318	0.574743	0.750051
C285	C	0.674891	-0.212028	0.000049
C286	C	0.924891	0.037972	0.250049
C287	C	1.174891	0.287972	0.500049
C288	C	1.424891	0.537972	0.750049
O289	O	0.578069	-0.263215	0.000059
O290	O	0.828069	-0.013215	0.250059
O291	O	1.078069	0.236785	0.500059
O292	O	1.328069	0.486785	0.750059
O293	O	0.770196	-0.289433	0.000034
O294	O	1.020196	-0.039433	0.250034
O295	O	1.270196	0.210567	0.500034
O296	O	1.520196	0.460567	0.750034
C297	C	0.776472	0.069389	0.000050
C298	C	1.026472	0.319389	0.250050
C299	C	1.276472	0.569389	0.500050
C300	C	1.526472	0.819389	0.750050
C301	C	0.839689	0.070155	0.000050
C302	C	1.089689	0.320155	0.250050
C303	C	1.339689	0.570155	0.500050
C304	C	1.589689	0.820155	0.750050
C305	C	0.667577	0.178283	0.000020
C306	C	0.917577	0.428283	0.250020
C307	C	1.167577	0.678283	0.500020
C308	C	1.417577	0.928283	0.750020
C309	C	0.668343	0.241500	0.000006
C310	C	0.918343	0.491500	0.250006
C311	C	1.168343	0.741500	0.500006
C312	C	1.418343	0.991500	0.750006
N313	N	0.672312	0.074127	0.246701
N314	N	0.922312	0.324127	0.496701
N315	N	1.172312	0.574127	0.746701
N316	N	1.422312	0.824127	0.996701
N317	N	0.672341	0.074139	-0.246616
N318	N	0.922341	0.324139	0.003384
N319	N	1.172341	0.574139	0.253384
N320	N	1.422341	0.824139	0.503384
C321	C	0.711261	0.035206	0.296530
C322	C	0.961261	0.285206	0.546530
C323	C	1.211261	0.535206	0.796530
C324	C	1.461261	0.785206	1.046530
C325	C	0.711265	0.035206	0.396188
C326	C	0.961265	0.285206	0.646188
C327	C	1.211265	0.535206	0.896188
C328	C	1.461265	0.785206	1.146188
C329	C	0.672322	0.074130	0.446014
C330	C	0.922322	0.324130	0.696014
C331	C	1.172322	0.574130	0.946014
C332	C	1.422322	0.824130	1.196014
C333	C	0.633369	0.113052	0.396177
C334	C	0.883369	0.363052	0.646177
C335	C	1.133369	0.613052	0.896177
C336	C	1.383369	0.863052	1.146177
C337	C	0.633363	0.113050	0.296522
C338	C	0.883363	0.363050	0.546522
C339	C	1.133363	0.613050	0.796522
C340	C	1.383363	0.863050	1.046522
C341	C	0.633385	0.113056	0.603892
C342	C	0.883385	0.363056	0.853892
C343	C	1.133385	0.613056	1.103892
C344	C	1.383385	0.863056	1.353892
C345	C	0.633392	0.113060	0.703554
C346	C	0.883392	0.363060	0.953554
C347	C	1.133392	0.613060	1.203554
C348	C	1.383392	0.863060	1.453554
C349	C	0.711287	0.035213	0.703558
C350	C	0.961287	0.285213	0.953558
C351	C	1.211287	0.535213	1.203558
C352	C	1.461287	0.785213	1.453558
C353	C	0.711281	0.035210	0.603902
C354	C	0.961281	0.285210	0.853902
C355	C	1.211281	0.535210	1.103902
C356	C	1.461281	0.785210	1.353902
C357	C	0.672328	0.074134	0.554072
C358	C	0.922328	0.324134	0.804072
C359	C	1.172328	0.574134	1.054072
C360	C	1.422328	0.824134	1.304072
H361	H	0.098525	0.219610	0.000055
H362	H	0.348525	0.469610	0.250055
H363	H	0.598525	0.719610	0.500055
H364	H	0.848525	0.969610	0.750055
Cl365	Cl	0.584431	0.161994	0.766186
Cl366	Cl	0.834431	0.411994	1.016186
Cl367	Cl	1.084431	0.661994	1.266186
Cl368	Cl	1.334431	0.911994	1.516186
Cl369	Cl	0.584413	0.161989	0.541253
Cl370	Cl	0.834413	0.411989	0.791253
Cl371	Cl	1.084413	0.661989	1.041253
Cl372	Cl	1.334413	0.911989	1.291253
Cl373	Cl	0.528568	-0.038988	0.000051
Cl374	Cl	0.778568	0.211012	0.250051
Cl375	Cl	1.028568	0.461012	0.500051
Cl376	Cl	1.278568	0.711012	0.750051
Cl377	Cl	0.785447	-0.782109	0.000015
Cl378	Cl	1.035447	-0.532109	0.250015
Cl379	Cl	1.285447	-0.282109	0.500015
Cl380	Cl	1.535447	-0.032109	0.750015
H381	H	-0.167631	0.164417	0.000025
H382	H	0.082369	0.414417	0.250025
H383	H	0.332369	0.664417	0.500025
H384	H	0.582369	0.914417	0.750025
Cl385	Cl	0.394496	-0.040601	0.000061
Cl386	Cl	0.644496	0.209399	0.250061
Cl387	Cl	0.894496	0.459399	0.500061
Cl388	Cl	1.144496	0.709399	0.750061
Cl389	Cl	0.551053	-0.750154	0.000008
Cl390	Cl	0.801053	-0.500154	0.250008
Cl391	Cl	1.051053	-0.250154	0.500008
Cl392	Cl	1.301053	-0.000154	0.750008
H393	H	-0.059864	0.165712	0.000030
H394	H	0.190136	0.415712	0.250030
H395	H	0.440136	0.665712	0.500030
H396	H	0.690136	0.915712	0.750030
H397	H	0.575496	-0.632386	-0.000000
H398	H	0.825496	-0.382386	0.250000
H399	H	1.075496	-0.132386	0.500000
H400	H	1.325496	0.117614	0.750000
H401	H	0.206274	0.220904	0.000034
H402	H	0.456274	0.470904	0.250034
H403	H	0.706274	0.720904	0.500034
H404	H	0.956274	0.970904	0.750034
H405	H	0.742994	0.003518	0.563334
H406	H	0.992994	0.253518	0.813334
H407	H	1.242994	0.503518	1.063334
H408	H	1.492994	0.753518	1.313334
H409	H	0.763906	-0.658055	0.000028
H410	H	1.013906	-0.408055	0.250028
H411	H	1.263906	-0.158055	0.500028
H412	H	1.513906	0.091945	0.750028
Cl413	Cl	0.793597	-0.101567	0.000090
Cl414	Cl	1.043597	0.148433	0.250090
Cl415	Cl	1.293597	0.398433	0.500090
Cl416	Cl	1.543597	0.648433	0.750090
Cl417	Cl	0.760256	-0.013718	0.766204
Cl418	Cl	1.010256	0.236282	1.016204
Cl419	Cl	1.260256	0.486282	1.266204
Cl420	Cl	1.510256	0.736282	1.516204
H421	H	0.601646	0.144742	0.255951
H422	H	0.851646	0.394742	0.505951
H423	H	1.101646	0.644742	0.755951
H424	H	1.351646	0.894742	1.005951
Cl425	Cl	0.502400	-0.469830	-0.000033
Cl426	Cl	0.752400	-0.219830	0.249967
Cl427	Cl	1.002400	0.030170	0.499967
Cl428	Cl	1.252400	0.280170	0.749967
H429	H	0.769159	-0.219337	0.000055
H430	H	1.019159	0.030663	0.250055
H431	H	1.269159	0.280663	0.500055
H432	H	1.519159	0.530663	0.750055
H433	H	0.526850	-0.352065	-0.000021
H434	H	0.776850	-0.102065	0.249979
H435	H	1.026850	0.147935	0.499979
H436	H	1.276850	0.397935	0.749979
H437	H	0.582043	-0.085909	0.000059
H438	H	0.832043	0.164091	0.250059
H439	H	1.082043	0.414091	0.500059
H440	H	1.332043	0.664091	0.750059
H441	H	0.378846	0.170964	0.000016
H442	H	0.628846	0.420964	0.250016
H443	H	0.878846	0.670964	0.500016
H444	H	1.128846	0.920964	0.750016
Cl445	Cl	0.760223	-0.013727	0.233902
Cl446	Cl	1.010223	0.236273	0.483902
Cl447	Cl	1.260223	0.486273	0.733902
Cl448	Cl	1.510223	0.736273	0.983902
H449	H	0.601658	0.144743	0.436752
H450	H	0.851658	0.394743	0.686752
H451	H	1.101658	0.644743	0.936752
H452	H	1.351658	0.894743	1.186752
H453	H	0.819097	-0.391900	0.000052
H454	H	1.069097	-0.141900	0.250052
H455	H	1.319097	0.108100	0.500052
H456	H	1.569097	0.358100	0.750052
Cl457	Cl	0.840647	-0.515928	0.000042
Cl458	Cl	1.090647	-0.265928	0.250042
Cl459	Cl	1.340647	-0.015928	0.500042
Cl460	Cl	1.590647	0.234072	0.750042
H461	H	0.580747	-0.193677	0.000066
H462	H	0.830747	0.056323	0.250066
H463	H	1.080747	0.306323	0.500066
H464	H	1.330747	0.556323	0.750066
Cl465	Cl	0.262388	-0.094187	0.000088
Cl466	Cl	0.512388	0.155813	0.250088
Cl467	Cl	0.762388	0.405813	0.500088
Cl468	Cl	1.012388	0.655813	0.750088
H469	H	0.742979	0.003513	0.436759
H470	H	0.992979	0.253513	0.686759
H471	H	1.242979	0.503513	0.936759
H472	H	1.492979	0.753513	1.186759
H473	H	-0.034204	-0.022699	0.000079
H474	H	0.215796	0.227301	0.250079
H475	H	0.465796	0.477301	0.500079
H476	H	0.715796	0.727301	0.750079
Cl477	Cl	0.128342	-0.095792	0.000074
Cl478	Cl	0.378342	0.154208	0.250074
Cl479	Cl	0.628342	0.404208	0.500074
Cl480	Cl	0.878342	0.654208	0.750074
Cl481	Cl	-0.151974	-0.047138	0.000064
Cl482	Cl	0.098026	0.202862	0.250064
Cl483	Cl	0.348026	0.452862	0.500064
Cl484	Cl	0.598026	0.702862	0.750064
H485	H	0.486595	0.172252	-0.000009
H486	H	0.736595	0.422252	0.249991
H487	H	0.986595	0.672252	0.499991
H488	H	1.236595	0.922252	0.749991
