data_functionalizedCrystal
_audit_creation_method	'MofGen! by Chris Wilmer'
_symmetry_space_group_name_H-M	'P1'
_symmetry_Int_Tables_number	1
_symmetry_cell_setting	triclinic
loop_
_symmetry_equiv_pos_as_xyz
  x,y,z
_cell_length_a	14.044220
_cell_length_b	10.723024
_cell_length_c	9.798715
_cell_angle_alpha	90.003391
_cell_angle_beta	89.995876
_cell_angle_gamma	91.171627
loop_
_atom_site_label
_atom_site_type_symbol
_atom_site_fract_x
_atom_site_fract_y
_atom_site_fract_z
O1	O	0.133040	-1.670498	-0.113486
O2	O	0.633040	-1.170498	0.386514
O3	O	0.145774	-1.308619	-0.113491
O4	O	0.645774	-0.808619	0.386509
O5	O	0.001387	-1.484127	-0.113476
O6	O	0.501387	-0.984127	0.386524
O7	O	0.277427	-1.494990	-0.113502
O8	O	0.777427	-0.994990	0.386498
O9	O	0.001387	-1.484112	0.113507
O10	O	0.501387	-0.984112	0.613507
O11	O	0.145774	-1.308605	0.113491
O12	O	0.645774	-0.808605	0.613491
O13	O	0.133039	-1.670483	0.113496
O14	O	0.633039	-1.170483	0.613496
Zn15	Zn	0.139407	-1.489542	0.149532
Zn16	Zn	0.639407	-0.989542	0.649532
Zn17	Zn	0.139407	-1.489561	-0.149527
Zn18	Zn	0.639407	-0.989561	0.350473
O19	O	0.277427	-1.494976	0.113480
O20	O	0.777427	-0.994976	0.613480
C21	C	-0.033958	-1.479364	0.000016
C22	C	0.466042	-0.979364	0.500016
C23	C	-0.139276	-1.465180	0.000018
C24	C	0.360724	-0.965180	0.500018
C25	C	0.144847	-1.262020	-0.000001
C26	C	0.644847	-0.762020	0.499999
C27	C	0.142075	-1.123188	-0.000002
C28	C	0.642075	-0.623188	0.499998
C29	C	0.133966	-1.717083	0.000002
C30	C	0.633966	-1.217083	0.500002
C31	C	0.136739	-1.855914	-0.000005
C32	C	0.636739	-1.355914	0.499995
C33	C	-0.332106	-1.439248	-0.000002
C34	C	0.167894	-0.939248	0.499998
C35	C	-0.389085	-1.539849	-0.000005
C36	C	0.110915	-1.039849	0.499995
C37	C	-0.496383	-1.525420	-0.000016
C38	C	0.003617	-1.025420	0.499984
C39	C	-0.224799	-1.453675	0.000009
C40	C	0.275201	-0.953675	0.500009
C41	C	0.312772	-1.499738	-0.000015
C42	C	0.812772	-0.999738	0.499985
C43	C	0.418090	-1.513923	-0.000025
C44	C	0.918090	-1.013923	0.499975
N45	N	0.139406	-1.489538	0.353631
N46	N	0.639406	-0.989538	0.853631
C47	C	0.222866	-1.056288	-0.000011
C48	C	0.722866	-0.556288	0.499989
C49	C	0.220002	-0.912798	-0.000013
C50	C	0.720002	-0.412798	0.499987
N51	N	0.139401	-1.489573	-0.353627
N52	N	0.639401	-0.989573	0.146373
C53	C	0.078514	-1.563202	0.421415
C54	C	0.578514	-1.063202	0.921415
C55	C	0.078511	-1.563222	0.578578
C56	C	0.578511	-1.063222	1.078578
H57	H	-0.357284	-1.636814	-0.000095
H58	H	0.142716	-1.136814	0.499905
H59	H	-0.363906	-1.342291	-0.000007
H60	H	0.136094	-0.842291	0.499993
H61	H	0.070786	-1.074234	-0.000030
H62	H	0.570786	-0.574234	0.499970
H63	H	0.026381	-1.626250	0.363098
H64	H	0.526381	-1.126250	0.863098
H65	H	0.067571	-0.913420	-0.000006
H66	H	0.567571	-0.413420	0.499994
H67	H	0.026383	-1.626294	0.636869
H68	H	0.526383	-1.126294	1.136869
H69	H	0.294155	-1.105243	-0.000010
H70	H	0.794155	-0.605243	0.499990
H71	H	0.191538	-1.426508	0.588091
H72	H	0.691538	-0.926508	1.088091
H73	H	0.191531	-1.426481	0.411950
H74	H	0.691531	-0.926481	0.911950
H75	H	0.289166	-0.855286	-0.000026
H76	H	0.789166	-0.355286	0.499974
