data_functionalizedCrystal
_audit_creation_method	'MofGen! by Chris Wilmer'
_symmetry_space_group_name_H-M	'P1'
_symmetry_Int_Tables_number	1
_symmetry_cell_setting	triclinic
loop_
_symmetry_equiv_pos_as_xyz
  x,y,z
_cell_length_a	18.050590
_cell_length_b	18.050589
_cell_length_c	18.050582
_cell_angle_alpha	89.981795
_cell_angle_beta	90.000767
_cell_angle_gamma	90.017386
loop_
_atom_site_label
_atom_site_type_symbol
_atom_site_fract_x
_atom_site_fract_y
_atom_site_fract_z
Zn1	Zn	1.135292	-0.295921	-0.419624
Zn2	Zn	1.635292	0.204079	0.080376
Zn3	Zn	1.135203	-0.420105	-0.295444
Zn4	Zn	1.635203	0.079895	0.204556
Zn5	Zn	1.011112	-0.295910	-0.295482
Zn6	Zn	1.511112	0.204090	0.204518
Zn7	Zn	1.011060	-0.420051	-0.419626
Zn8	Zn	1.511060	0.079949	0.080374
O9	O	1.073167	-0.357997	-0.357544
O10	O	1.573167	0.142003	0.142456
O11	O	1.239205	-0.312422	-0.403134
O12	O	1.739205	0.187578	0.096866
O13	O	1.118727	-0.403648	-0.191524
O14	O	1.618727	0.096352	0.308476
O15	O	1.027644	-0.191987	-0.311965
O16	O	1.527644	0.308013	0.188035
O17	O	1.239140	-0.403659	-0.311899
O18	O	1.739140	0.096341	0.188101
O19	O	1.118879	-0.191995	-0.403172
O20	O	1.618879	0.308005	0.096828
O21	O	1.027557	-0.312402	-0.191553
O22	O	1.527557	0.187598	0.308447
O23	O	0.907180	-0.312350	-0.311967
O24	O	1.407180	0.187650	0.188033
O25	O	1.027555	-0.403567	-0.523550
O26	O	1.527555	0.096433	-0.023550
O27	O	0.907142	-0.403555	-0.403175
O28	O	1.407142	0.096445	0.096825
O29	O	1.118828	-0.312370	-0.523549
O30	O	1.618828	0.187630	-0.023549
O31	O	1.118676	-0.524022	-0.311901
O32	O	1.618676	-0.024022	0.188099
O33	O	1.027468	-0.523982	-0.403138
O34	O	1.527468	-0.023982	0.096862
C35	C	0.880215	-0.357946	-0.357576
C36	C	1.380215	0.142054	0.142424
C37	C	0.797669	-0.357942	-0.357607
C38	C	1.297669	0.142058	0.142393
C39	C	1.073077	-0.550949	-0.357532
C40	C	1.573077	-0.050949	0.142468
C41	C	1.073107	-0.633494	-0.357551
C42	C	1.573107	-0.133494	0.142449
C43	C	0.598219	-0.407682	-0.407088
C44	C	1.098219	0.092318	0.092912
C45	C	0.548826	-0.339967	-0.425358
C46	C	1.048826	0.160033	0.074642
C47	C	0.646538	-0.357984	-0.357571
C48	C	1.146538	0.142016	0.142429
C49	C	0.548850	-0.425737	-0.339300
C50	C	1.048850	0.074263	0.160700
C51	C	0.500553	-0.358030	-0.357537
C52	C	1.000553	0.141970	0.142463
C53	C	0.598233	-0.290233	-0.375876
C54	C	1.098233	0.209767	0.124124
C55	C	0.598261	-0.376049	-0.289787
C56	C	1.098261	0.123951	0.210213
C57	C	0.548890	-0.308287	-0.308031
C58	C	1.048890	0.191713	0.191969
C59	C	0.730637	-0.357958	-0.357592
C60	C	1.230637	0.142042	0.142408
C61	C	0.416457	-0.358047	-0.357516
C62	C	0.916457	0.141953	0.142484
C63	C	1.023557	-0.832950	-0.407148
C64	C	1.523557	-0.332950	0.092852
C65	C	1.005459	-0.882381	-0.339386
C66	C	1.505459	-0.382381	0.160614
C67	C	1.073180	-0.784625	-0.357561
C68	C	1.573180	-0.284625	0.142439
C69	C	1.091314	-0.882276	-0.425331
C70	C	1.591314	-0.382276	0.074669
C71	C	1.073249	-0.930610	-0.357576
C72	C	1.573249	-0.430610	0.142424
C73	C	1.055046	-0.832968	-0.289763
C74	C	1.555046	-0.332968	0.210237
C75	C	1.140933	-0.832859	-0.375754
C76	C	1.640933	-0.332859	0.124246
C77	C	1.122861	-0.882267	-0.307945
C78	C	1.622861	-0.382267	0.192055
C79	C	1.073138	-0.700527	-0.357553
C80	C	1.573138	-0.200527	0.142447
C81	C	1.073290	-1.014706	-0.357576
C82	C	1.573290	-0.514706	0.142424
C83	C	1.266872	-0.358048	-0.357512
C84	C	1.766872	0.141952	0.142488
C85	C	1.349418	-0.358070	-0.357499
C86	C	1.849418	0.141930	0.142501
C87	C	1.073196	-0.357964	-0.551250
C88	C	1.573196	0.142036	-0.051250
C89	C	1.073208	-0.357950	-0.633796
C90	C	1.573208	0.142050	-0.133796
C91	C	1.073277	-0.164291	-0.357573
C92	C	1.573277	0.335709	0.142427
C93	C	1.073324	-0.081745	-0.357585
C94	C	1.573324	0.418255	0.142415
C95	C	1.023612	-0.407475	-0.833247
C96	C	1.523612	0.092525	-0.333247
C97	C	1.091367	-0.425641	-0.882621
C98	C	1.591367	0.074359	-0.382621
C99	C	1.073245	-0.357893	-0.784926
C100	C	1.573245	0.142107	-0.284926
C101	C	1.005527	-0.339706	-0.882634
C102	C	1.505527	0.160294	-0.382634
C103	C	1.073274	-0.357840	-0.930911
C104	C	1.573274	0.142160	-0.430911
C105	C	1.141036	-0.376095	-0.833213
C106	C	1.641036	0.123905	-0.333213
C107	C	1.055150	-0.290128	-0.833221
C108	C	1.555150	0.209872	-0.333221
C109	C	1.122952	-0.308269	-0.882573
C110	C	1.622952	0.191731	-0.382573
C111	C	1.073227	-0.357926	-0.700828
C112	C	1.573227	0.142074	-0.200828
C113	C	1.073300	-0.357807	-1.015008
C114	C	1.573300	0.142193	-0.515008
C115	C	1.073180	-0.357976	-0.164592
C116	C	1.573180	0.142024	0.335408
C117	C	1.073312	-0.357781	-0.082047
C118	C	1.573312	0.142219	0.417953
H119	H	0.527112	-0.324702	-0.482668
H120	H	1.027112	0.175298	0.017332
N121	N	0.520124	-0.501609	-0.318840
N122	N	1.020124	-0.001609	0.181160
H123	H	0.489347	-0.498019	-0.272251
H124	H	0.989347	0.001981	0.227749
H125	H	0.488570	-0.521445	-0.360569
H126	H	0.988570	-0.021445	0.139431
H127	H	0.948195	-0.904150	-0.324012
H128	H	1.448195	-0.404150	0.175988
N129	N	1.216929	-0.396589	-0.804618
N130	N	1.716929	0.103411	-0.304618
H131	H	1.254498	-0.359394	-0.822980
H132	H	1.754498	0.140606	-0.322980
H133	H	1.216401	-0.396541	-0.748669
H134	H	1.716401	0.103459	-0.248669
H135	H	0.981530	-0.811296	-0.449023
H136	H	1.481530	-0.311296	0.050977
N137	N	1.034681	-0.804406	-0.213830
N138	N	1.534681	-0.304406	0.286170
H139	H	1.034759	-0.748455	-0.214298
H140	H	1.534759	-0.248455	0.285702
H141	H	0.983707	-0.822912	-0.200027
H142	H	1.483707	-0.322912	0.299973
H143	H	1.164855	-0.903785	-0.265968
H144	H	1.664855	-0.403785	0.234032
H145	H	1.164986	-0.266316	-0.904094
H146	H	1.664986	0.233684	-0.404094
N147	N	1.111659	-0.501516	-0.911378
N148	N	1.611659	-0.001516	-0.411378
H149	H	1.158254	-0.497967	-0.942156
H150	H	1.658254	0.002033	-0.442156
H151	H	1.120350	-0.536077	-0.868235
H152	H	1.620350	-0.036077	-0.368235
N153	N	1.034829	-0.214274	-0.804444
N154	N	1.534829	0.285726	-0.304444
H155	H	0.983627	-0.200601	-0.822386
H156	H	1.483627	0.299399	-0.322386
H157	H	1.035492	-0.214806	-0.748498
H158	H	1.535492	0.285194	-0.248498
N159	N	0.626915	-0.463253	-0.462618
N160	N	1.126915	0.036747	0.037382
H161	H	0.682864	-0.463176	-0.461906
H162	H	1.182864	0.036824	0.038094
H163	H	0.608127	-0.514261	-0.449325
H164	H	1.108127	-0.014261	0.050675
H165	H	1.198184	-0.811091	-0.391160
H166	H	1.698184	-0.311091	0.108840
N167	N	1.111597	-0.910974	-0.501235
N168	N	1.611597	-0.410974	-0.001235
H169	H	1.074050	-0.893035	-0.538642
H170	H	1.574050	-0.393035	-0.038642
H171	H	1.162396	-0.892181	-0.515292
H172	H	1.662396	-0.392181	-0.015292
H173	H	0.948246	-0.324346	-0.904342
H174	H	1.448246	0.175654	-0.404342
N175	N	0.626836	-0.214335	-0.396413
N176	N	1.126836	0.285665	0.103587
H177	H	0.682788	-0.214791	-0.396320
H178	H	1.182788	0.285209	0.103680
H179	H	0.608364	-0.200638	-0.447423
H180	H	1.108364	0.299362	0.052577
N181	N	0.520380	-0.252580	-0.252543
N182	N	1.020380	0.247420	0.247457
H183	H	0.488862	-0.214528	-0.278800
H184	H	0.988862	0.285472	0.221200
H185	H	0.489615	-0.278869	-0.213890
H186	H	0.989615	0.221131	0.286110
N187	N	0.627041	-0.396285	-0.213891
N188	N	1.127041	0.103715	0.286109
H189	H	0.609107	-0.447482	-0.200144
H190	H	1.109107	0.052518	0.299856
H191	H	0.682986	-0.395594	-0.214399
H192	H	1.182986	0.104406	0.285601
N193	N	0.968066	-0.463081	-0.804550
N194	N	1.468066	0.036919	-0.304550
H195	H	0.981847	-0.514238	-0.822520
H196	H	1.481847	-0.014238	-0.322520
H197	H	0.968139	-0.462309	-0.748604
H198	H	1.468139	0.037691	-0.248604
