data_functionalizedCrystal
_audit_creation_method	'MofGen! by Chris Wilmer'
_symmetry_space_group_name_H-M	'P1'
_symmetry_Int_Tables_number	1
_symmetry_cell_setting	triclinic
loop_
_symmetry_equiv_pos_as_xyz
  x,y,z
_cell_length_a	16.959454
_cell_length_b	14.908783
_cell_length_c	16.959447
_cell_angle_alpha	86.681167
_cell_angle_beta	89.976829
_cell_angle_gamma	93.311155
loop_
_atom_site_label
_atom_site_type_symbol
_atom_site_fract_x
_atom_site_fract_y
_atom_site_fract_z
Zn1	Zn	-0.245059	1.379244	-0.516780
Zn2	Zn	-0.377248	1.379147	-0.384605
Zn3	Zn	-0.252699	1.228379	-0.376977
Zn4	Zn	-0.384817	1.228347	-0.509106
O5	O	-0.314956	1.303779	-0.446867
O6	O	-0.256228	1.505479	-0.505651
O7	O	-0.360756	1.359120	-0.272981
O8	O	-0.141072	1.248445	-0.395542
O9	O	-0.353347	1.505408	-0.408542
O10	O	-0.135458	1.359285	-0.498254
O11	O	-0.269250	1.248351	-0.267377
O12	O	-0.276590	1.102126	-0.388101
O13	O	-0.366249	1.248391	-0.620737
O14	O	-0.373657	1.102103	-0.485175
O15	O	-0.263568	1.359254	-0.626375
O16	O	-0.488865	1.359089	-0.401101
O17	O	-0.494427	1.248297	-0.492572
C18	C	-0.326775	1.069380	-0.434978
C19	C	-0.331850	0.969103	-0.429910
C20	C	-0.240396	0.780744	-0.521662
C21	C	-0.245162	0.686524	-0.516903
C22	C	-0.346144	0.686443	-0.415631
C23	C	-0.341378	0.780662	-0.420389
C24	C	-0.288503	0.827809	-0.473407
C25	C	-0.283741	0.922030	-0.478170
C26	C	-0.384719	0.921947	-0.376894
C27	C	-0.389485	0.827728	-0.372135
C28	C	-0.520326	1.303704	-0.446850
C29	C	-0.608180	1.303754	-0.446873
C30	C	-0.982576	1.246173	-0.494495
C31	C	-0.976720	1.361636	-0.399333
C32	C	-0.894175	1.361605	-0.399324
C33	C	-0.855828	1.303856	-0.446900
C34	C	-0.900024	1.246138	-0.494486
C35	C	-0.849973	1.419315	-0.351734
C36	C	-0.767424	1.419285	-0.351722
C37	C	-0.729074	1.361540	-0.399303
C38	C	-0.773276	1.303820	-0.446891
C39	C	-0.734928	1.246071	-0.494468
C40	C	-0.779128	1.188356	-0.542060
C41	C	-0.861674	1.188393	-0.542067
C42	C	-0.646528	1.361503	-0.399297
C43	C	-0.652376	1.246036	-0.494458
C44	C	-0.108782	1.303880	-0.446903
C45	C	-0.020924	1.303922	-0.446918
C46	C	-0.314900	1.303830	-0.653038
C47	C	-0.314877	1.303851	-0.740896
C48	C	-0.303091	1.539094	-0.458803
C49	C	-0.298035	1.639371	-0.463890
C50	C	-0.368328	1.246141	-0.779236
C51	C	-0.261400	1.361577	-0.785110
C52	C	-0.261373	1.361595	-0.867656
C53	C	-0.314823	1.303885	-0.905997
C54	C	-0.368301	1.246156	-0.861791
C55	C	-0.207891	1.419317	-0.911868
C56	C	-0.207861	1.419337	-0.994420
C57	C	-0.261316	1.361631	-1.032763
C58	C	-0.314797	1.303900	-0.988551
C59	C	-0.368247	1.246190	-1.026892
C60	C	-0.421732	1.188463	-0.982682
C61	C	-0.421756	1.188449	-0.900133
C62	C	-0.261292	1.361644	-1.115312
C63	C	-0.368220	1.246205	-1.109446
C64	C	-0.314951	1.303781	-0.241501
C65	C	-0.314743	1.303934	-0.153653
H66	H	-0.197347	0.819131	-0.564834
H67	H	-0.217879	1.408558	-0.753887
N68	N	-0.403154	0.635585	-0.358437
H69	H	-0.398866	0.568756	-0.362742
H70	H	-0.458794	0.652032	-0.371468
H71	H	-0.465247	1.141470	-1.013910
N72	N	-0.479431	1.126189	-0.852446
H73	H	-0.470405	1.061737	-0.863543
H74	H	-0.535173	1.140256	-0.867534
N75	N	-0.446517	0.776881	-0.314957
H76	H	-0.433346	0.793254	-0.259328
H77	H	-0.442215	0.710066	-0.319328
H78	H	-0.164372	1.466298	-0.880645
N79	N	-0.436616	0.972710	-0.324850
H80	H	-0.425578	1.039552	-0.335910
H81	H	-0.425082	0.956219	-0.267583
H82	H	-0.610544	1.408490	-0.360544
H83	H	-1.007948	1.408648	-0.360593
H84	H	-0.621158	1.199013	-0.533204
H85	H	-0.164312	1.466343	-1.030409
H86	H	-0.411875	1.199144	-0.743238
N87	N	-0.203608	1.423891	-1.162995
H88	H	-0.169748	1.460443	-1.126180
H89	H	-0.233661	1.465639	-1.199362
N90	N	-0.193269	0.635758	-0.568941
H91	H	-0.159050	0.679926	-0.603245
H92	H	-0.227461	0.596673	-0.603496
H93	H	-0.240689	0.960416	-0.521341
H94	H	-0.747896	1.141332	-0.580793
N95	N	-0.425876	1.183965	-1.150798
H96	H	-0.459759	1.147397	-1.110264
H97	H	-0.395798	1.142230	-1.182930
H98	H	-1.018567	1.199185	-0.533246
H99	H	-0.897669	1.141403	-0.580813
H100	H	-0.881203	1.466324	-0.312993
H101	H	-0.731441	1.466280	-0.312971
