data_functionalizedCrystal
_audit_creation_method	'MofGen! by Chris Wilmer'
_symmetry_space_group_name_H-M	'P1'
_symmetry_Int_Tables_number	1
_symmetry_cell_setting	triclinic
loop_
_symmetry_equiv_pos_as_xyz
  x,y,z
_cell_length_a	16.120490
_cell_length_b	18.050588
_cell_length_c	16.120297
_cell_angle_alpha	87.127354
_cell_angle_beta	89.870317
_cell_angle_gamma	87.121953
loop_
_atom_site_label
_atom_site_type_symbol
_atom_site_fract_x
_atom_site_fract_y
_atom_site_fract_z
Zn1	Zn	1.247402	-0.376307	0.534535
Zn2	Zn	1.254339	-0.494531	0.395477
Zn3	Zn	1.115393	-0.363751	0.388456
Zn4	Zn	1.108295	-0.493840	0.527450
O5	O	1.181357	-0.432107	0.461479
O6	O	1.364689	-0.397533	0.521992
O7	O	1.241781	-0.472218	0.278180
O8	O	1.132972	-0.261496	0.407860
O9	O	1.369785	-0.484393	0.419827
O10	O	1.229959	-0.270721	0.515184
O11	O	1.139699	-0.376134	0.273022
O12	O	0.998085	-0.375464	0.400990
O13	O	1.120874	-0.483215	0.644755
O14	O	0.992870	-0.471040	0.503109
O15	O	1.223075	-0.396863	0.649961
O16	O	1.234898	-0.598360	0.412957
O17	O	1.127600	-0.597852	0.509917
C18	C	0.965305	-0.421815	0.450519
C19	C	0.872876	-0.417431	0.445850
C20	C	0.659910	-0.454844	0.485700
C21	C	0.703653	-0.409433	0.437325
C22	C	0.797817	-0.413884	0.442070
C23	C	0.565737	-0.450394	0.480956
C24	C	1.181253	-0.625054	0.461449
C25	C	1.181283	-0.707601	0.461468
C26	C	1.123022	-0.956182	0.514199
C27	C	1.197812	-0.911194	0.538443
C28	C	1.181454	-1.004732	0.461523
C29	C	1.106581	-0.902635	0.437291
C30	C	1.181366	-0.858742	0.461498
C31	C	1.256283	-0.960835	0.485808
C32	C	1.165002	-0.952276	0.384618
C33	C	1.239847	-0.907312	0.408836
C34	C	1.181503	-1.088833	0.461540
C35	C	1.181325	-0.774643	0.461481
C36	C	1.398253	-0.442441	0.472483
C37	C	1.490681	-0.446844	0.477172
C38	C	1.170409	-0.441363	0.678374
C39	C	1.165743	-0.445307	0.770801
C40	C	1.181484	-0.238410	0.461529
C41	C	1.181537	-0.155867	0.461550
C42	C	1.192311	-0.422837	0.245431
C43	C	1.197138	-0.418691	0.153012
C44	C	1.157195	-0.452489	0.940026
C45	C	1.205684	-0.411511	0.983793
C46	C	1.200927	-0.415507	1.077955
C47	C	1.161950	-0.448494	0.845855
H48	H	1.073702	-0.977652	0.558796
C49	C	1.155337	-0.911286	0.681300
C50	C	1.216554	-0.886639	0.626222
H51	H	1.166902	-0.896123	0.735490
H52	H	1.155007	-0.963919	0.682045
H53	H	1.102584	-0.890519	0.663723
H54	H	1.269306	-0.907410	0.643795
H55	H	1.216893	-0.833995	0.625480
C56	C	1.340989	-1.072552	0.513373
C57	C	1.341729	-0.995024	0.513575
H58	H	1.393736	-1.093658	0.530523
H59	H	1.329244	-1.086922	0.458921
H60	H	1.299490	-1.089653	0.550552
H61	H	1.383224	-0.977922	0.476391
H62	H	1.353483	-0.980647	0.568036
H63	H	1.112114	-0.490571	0.973273
C64	C	1.247614	-0.286567	0.958943
C65	C	1.266552	-0.360095	0.938924
H66	H	1.285189	-0.254827	0.931238
H67	H	1.252359	-0.282553	1.017246
H68	H	1.192453	-0.272452	0.941907
H69	H	1.321712	-0.374211	0.955965
H70	H	1.261814	-0.364112	0.880608
C71	C	0.717455	-0.311310	0.332784
C72	C	0.658746	-0.352437	0.376598
H73	H	0.689728	-0.276123	0.295298
H74	H	0.752925	-0.343834	0.302591
H75	H	0.749521	-0.286069	0.370750
H76	H	0.626684	-0.377682	0.338631
H77	H	0.623263	-0.319908	0.406792
C78	C	0.790760	-0.505278	0.539408
C79	C	0.704818	-0.511846	0.546410
H80	H	0.818490	-0.540473	0.576882
H81	H	0.804341	-0.456586	0.552386
H82	H	0.807736	-0.514333	0.484208
H83	H	0.687842	-0.502785	0.601608
H84	H	0.691232	-0.560550	0.533437
H85	H	1.289277	-0.885984	0.364281
H86	H	1.151095	-0.970475	0.319609
C87	C	0.960113	-0.893023	0.464881
C88	C	1.021152	-0.868340	0.409617
H89	H	0.907371	-0.871861	0.447792
H90	H	0.972155	-0.878323	0.519133
H91	H	0.959409	-0.945628	0.465185
H92	H	1.021860	-0.815736	0.409317
H93	H	1.009107	-0.883036	0.355350
