data_functionalizedCrystal
_audit_creation_method	'MofGen! by Chris Wilmer'
_symmetry_space_group_name_H-M	'P1'
_symmetry_Int_Tables_number	1
_symmetry_cell_setting	triclinic
loop_
_symmetry_equiv_pos_as_xyz
  x,y,z
_cell_length_a	22.610064
_cell_length_b	23.532407
_cell_length_c	23.532357
_cell_angle_alpha	97.161515
_cell_angle_beta	90.001483
_cell_angle_gamma	89.997161
loop_
_atom_site_label
_atom_site_type_symbol
_atom_site_fract_x
_atom_site_fract_y
_atom_site_fract_z
O1	O	0.049118	-0.755251	0.069129
O2	O	0.549118	-0.255251	0.569129
O3	O	0.049136	-0.589386	0.079132
O4	O	0.549136	-0.089386	0.579132
O5	O	0.049114	-0.677335	-0.008803
O6	O	0.549114	-0.177335	0.491197
O7	O	0.049140	-0.667302	0.157064
O8	O	0.549140	-0.167302	0.657064
O9	O	-0.049255	-0.677319	-0.008790
O10	O	0.450745	-0.177319	0.491210
O11	O	-0.049233	-0.589370	0.079145
O12	O	0.450767	-0.089370	0.579145
O13	O	-0.049251	-0.755236	0.069142
O14	O	0.450749	-0.255236	0.569142
Zn15	Zn	-0.064860	-0.672301	0.074145
Zn16	Zn	0.435140	-0.172301	0.574145
Zn17	Zn	0.064745	-0.672321	0.074128
Zn18	Zn	0.564745	-0.172321	0.574128
O19	O	-0.049229	-0.667286	0.157077
O20	O	0.450771	-0.167286	0.657077
C21	C	-0.000046	-0.568162	0.078884
C22	C	0.499954	-0.068162	0.578884
C23	C	-0.000040	-0.504945	0.078118
C24	C	0.499960	-0.004945	0.578118
N25	N	-0.153313	-0.672291	0.074157
N26	N	0.346687	-0.172291	0.574157
C27	C	-0.000072	-0.677076	-0.030013
C28	C	0.499928	-0.177076	0.469987
C29	C	-0.000078	-0.676322	-0.093232
C30	C	0.499922	-0.176322	0.406768
C31	C	-0.561964	-0.711267	0.035197
C32	C	-0.061964	-0.211267	0.535197
C33	C	-0.623884	-0.711269	0.035192
C34	C	-0.123884	-0.211269	0.535192
O35	O	-0.655911	-0.744384	0.002076
O36	O	-0.155911	-0.244384	0.502076
N37	N	-0.654850	-0.672321	0.074117
N38	N	-0.154850	-0.172321	0.574117
C39	C	-0.623893	-0.633362	0.113044
C40	C	-0.123893	-0.133362	0.613044
O41	O	-0.655918	-0.600233	0.146151
O42	O	-0.155918	-0.100233	0.646151
C43	C	-0.561974	-0.633357	0.113045
C44	C	-0.061974	-0.133357	0.613045
C45	C	-0.531011	-0.672312	0.074122
C46	C	-0.031011	-0.172312	0.574122
C47	C	-0.531001	-0.750218	-0.003724
C48	C	-0.031001	-0.250218	0.496276
C49	C	-0.469085	-0.750216	-0.003719
C50	C	0.030915	-0.250216	0.496281
C51	C	-0.438133	-0.711262	0.035207
C52	C	0.061867	-0.211262	0.535207
C53	C	-0.469096	-0.672310	0.074127
C54	C	0.030904	-0.172310	0.574127
C55	C	-0.531018	-0.594397	0.151969
C56	C	-0.031018	-0.094397	0.651969
C57	C	-0.469095	-0.594395	0.151966
C58	C	0.030905	-0.094395	0.651966
C59	C	-0.438133	-0.633350	0.113043
C60	C	0.061867	-0.133350	0.613043
C61	C	-0.376227	-0.633354	0.113057
C62	C	0.123773	-0.133354	0.613057
N63	N	-0.345261	-0.672303	0.074133
N64	N	0.154739	-0.172303	0.574133
C65	C	-0.376214	-0.711257	0.035208
C66	C	0.123786	-0.211257	0.535208
C67	C	-0.753927	-0.633376	0.113038
C68	C	-0.253927	-0.133376	0.613038
C69	C	-0.815844	-0.633383	0.113040
C70	C	-0.315844	-0.133383	0.613040
C71	C	-0.815831	-0.711290	0.035188
C72	C	-0.315831	-0.211290	0.535188
C73	C	-0.753912	-0.711284	0.035189
C74	C	-0.253912	-0.211284	0.535189
C75	C	-0.722961	-0.672324	0.074114
C76	C	-0.222961	-0.172324	0.574114
C77	C	-0.246187	-0.711249	0.035221
C78	C	0.253813	-0.211249	0.535221
C79	C	-0.184265	-0.711245	0.035231
C80	C	0.315735	-0.211245	0.535231
C81	C	-0.184284	-0.633337	0.113081
C82	C	0.315716	-0.133337	0.613081
C83	C	-0.246200	-0.633342	0.113073
C84	C	0.253800	-0.133342	0.613073
C85	C	-0.277150	-0.672301	0.074139
C86	C	0.222850	-0.172301	0.574139
O87	O	-0.344161	-0.600255	0.146155
O88	O	0.155839	-0.100255	0.646155
O89	O	-0.344182	-0.744375	0.002101
O90	O	0.155818	-0.244375	0.502101
N91	N	0.153198	-0.672335	0.074113
N92	N	0.653198	-0.172335	0.574113
C93	C	-0.000068	-0.776459	0.069390
C94	C	0.499932	-0.276459	0.569390
C95	C	-0.000070	-0.839676	0.070156
C96	C	0.499930	-0.339676	0.570156
C97	C	-0.000059	-0.105834	0.125353
C98	C	0.499941	0.394166	0.625353
C99	C	-0.000063	-0.046434	0.124641
C100	C	0.499937	0.453566	0.624641
O101	O	-0.000078	-0.009681	0.168428
O102	O	0.499922	0.490319	0.668428
N103	N	-0.000070	-0.023817	0.072364
N104	N	0.499930	0.476183	0.572364
C105	C	-0.000079	-0.060604	0.020794
C106	C	0.499921	0.439396	0.520794
O107	O	-0.000086	-0.035912	-0.023737
O108	O	0.499914	0.464088	0.476263
C109	C	-0.000080	-0.120003	0.021506
C110	C	0.499920	0.379997	0.521506
C111	C	-0.000067	-0.142616	0.073787
C112	C	0.499933	0.357384	0.573787
C113	C	-0.000047	-0.128448	0.177629
C114	C	0.499953	0.371552	0.677629
C115	C	-0.000042	-0.187844	0.178341
C116	C	0.499958	0.312156	0.678341
C117	C	-0.000050	-0.224626	0.126775
C118	C	0.499950	0.275374	0.626775
C119	C	-0.000062	-0.202012	0.074498
C120	C	0.499938	0.297988	0.574498
C121	C	-0.000093	-0.156788	-0.030063
C122	C	0.499907	0.343212	0.469937
C123	C	-0.000094	-0.216191	-0.029346
C124	C	0.499906	0.283809	0.470654
C125	C	-0.000081	-0.238804	0.022935
C126	C	0.499919	0.261196	0.522935
C127	C	-0.000065	-0.298190	0.023644
C128	C	0.499935	0.201810	0.523644
N129	N	-0.000058	-0.320807	0.075922
N130	N	0.499942	0.179193	0.575922
C131	C	-0.000050	-0.284025	0.127487
C132	C	0.499950	0.215975	0.627487
C133	C	-0.000079	0.064139	0.019303
C134	C	0.499921	0.564139	0.519303
C135	C	-0.000075	0.123536	0.018590
C136	C	0.499925	0.623536	0.518590
C137	C	-0.000059	0.137702	0.122437
C138	C	0.499941	0.637702	0.622437
C139	C	-0.000060	0.078303	0.123149
C140	C	0.499940	0.578303	0.623149
C141	C	-0.000072	0.041522	0.071580
C142	C	0.499928	0.541522	0.571580
C143	C	-0.000040	-0.408761	0.128977
C144	C	0.499960	0.091239	0.628977
C145	C	-0.000032	-0.468163	0.129684
C146	C	0.499968	0.031837	0.629684
C147	C	-0.000051	-0.482324	0.025837
C148	C	0.499949	0.017676	0.525837
C149	C	-0.000055	-0.422927	0.025130
C150	C	0.499945	0.077073	0.525130
C151	C	-0.000051	-0.386147	0.076704
C152	C	0.499949	0.113853	0.576704
O153	O	-0.000052	-0.334977	-0.020120
O154	O	0.499948	0.165023	0.479880
O155	O	-0.000051	-0.308725	0.172011
O156	O	0.499949	0.191275	0.672011
C157	C	0.053576	-0.671594	-0.485250
C158	C	0.553576	-0.171594	0.014750
C159	C	0.053579	-0.670876	-0.544650
C160	C	0.553579	-0.170876	-0.044650
O161	O	0.099182	-0.670493	-0.575372
O162	O	0.599182	-0.170493	-0.075372
N163	N	-0.000041	-0.670512	-0.574354
N164	N	0.499959	-0.170512	-0.074354
C165	C	-0.053668	-0.670859	-0.544655
C166	C	0.446332	-0.170859	-0.044655
O167	O	-0.099276	-0.670483	-0.575375
O168	O	0.400724	-0.170483	-0.075375
C169	C	-0.053671	-0.671573	-0.485256
C170	C	0.446329	-0.171573	0.014744
C171	C	-0.000047	-0.671943	-0.455556
C172	C	0.499953	-0.171943	0.044444
C173	C	0.107195	-0.671963	-0.455550
C174	C	0.607195	-0.171963	0.044450
C175	C	0.107192	-0.672681	-0.396155
C176	C	0.607192	-0.172681	0.103845
C177	C	0.053569	-0.673030	-0.366460
C178	C	0.553569	-0.173030	0.133540
C179	C	-0.000051	-0.672661	-0.396160
C180	C	0.499949	-0.172661	0.103840
C181	C	-0.107298	-0.671916	-0.455557
C182	C	0.392702	-0.171916	0.044443
C183	C	-0.107296	-0.672629	-0.396154
C184	C	0.392704	-0.172629	0.103846
C185	C	-0.053672	-0.672998	-0.366454
C186	C	0.446328	-0.172998	0.133546
C187	C	-0.053678	-0.673728	-0.307070
C188	C	0.446322	-0.173728	0.192930
N189	N	-0.000057	-0.674092	-0.277366
N190	N	0.499943	-0.174092	0.222634
C191	C	0.053566	-0.673743	-0.307061
C192	C	0.553566	-0.173743	0.192939
C193	C	-0.053658	-0.669361	-0.669396
C194	C	0.446342	-0.169361	-0.169396
C195	C	-0.053656	-0.668652	-0.728795
C196	C	0.446344	-0.168652	-0.228795
C197	C	0.053592	-0.668668	-0.728785
C198	C	0.553592	-0.168668	-0.228785
C199	C	0.053589	-0.669381	-0.669387
C200	C	0.553589	-0.169381	-0.169387
C201	C	-0.000038	-0.669725	-0.639692
C202	C	0.499962	-0.169725	-0.139692
C203	C	0.053554	-0.675252	-0.182327
C204	C	0.553554	-0.175252	0.317673
C205	C	0.053545	-0.675973	-0.122927
C206	C	0.553545	-0.175973	0.377073
C207	C	-0.053702	-0.675954	-0.122941
C208	C	0.446298	-0.175954	0.377059
C209	C	-0.053694	-0.675236	-0.182336
C210	C	0.446306	-0.175236	0.317664
C211	C	-0.000061	-0.674883	-0.212027
C212	C	0.499939	-0.174883	0.287973
O213	O	-0.099257	-0.674109	-0.276310
O214	O	0.400743	-0.174109	0.223690
O215	O	0.099166	-0.674112	-0.276333
O216	O	0.599166	-0.174112	0.223667
C217	C	-0.000042	-0.667545	0.178287
C218	C	0.499958	-0.167545	0.678287
C219	C	-0.000032	-0.668300	0.241506
C220	C	0.499968	-0.168300	0.741506
H221	H	-0.159057	-0.742969	0.003536
H222	H	0.340943	-0.242969	0.503536
C223	C	0.112579	-0.668278	-0.761460
C224	C	0.612579	-0.168278	-0.261460
N225	N	0.157005	-0.667983	-0.786073
N226	N	0.657005	-0.167983	-0.286073
C227	C	-0.000057	0.178174	0.179161
C228	C	0.499943	0.678174	0.679161
N229	N	-0.000056	0.208659	0.221882
N230	N	0.499944	0.708659	0.721882
H231	H	-0.000105	-0.138388	-0.072635
H232	H	0.499895	0.361612	0.427365
C233	C	-0.000032	-0.368311	0.185712
C234	C	0.499968	0.131689	0.685712
N235	N	-0.000023	-0.337844	0.228445
N236	N	0.499977	0.162156	0.728445
C237	C	0.112579	-0.669782	-0.636721
C238	C	0.612579	-0.169782	-0.136721
N239	N	0.157012	-0.670083	-0.612120
N240	N	0.657012	-0.170083	-0.112120
H241	H	-0.097359	-0.674940	-0.206520
H242	H	0.402641	-0.174940	0.293480
C243	C	-0.849897	-0.590533	0.155862
C244	C	-0.349897	-0.090533	0.655862
N245	N	-0.875543	-0.558254	0.188115
N246	N	-0.375543	-0.058254	0.688115
C247	C	-0.112646	-0.668251	-0.761459
C248	C	0.387354	-0.168251	-0.261459
N249	N	-0.157080	-0.667944	-0.786059
N250	N	0.342920	-0.167944	-0.286059
C251	C	-0.565064	-0.551538	0.194783
C252	C	-0.065064	-0.051538	0.694783
N253	N	-0.590706	-0.519252	0.227032
N254	N	-0.090706	-0.019252	0.727032
C255	C	-0.000106	-0.256648	-0.086078
C256	C	0.499894	0.243352	0.413922
N257	N	-0.000112	-0.287118	-0.128808
N258	N	0.499888	0.212882	0.371192
C259	C	-0.000062	-0.398052	-0.032382
C260	C	0.499938	0.101948	0.467618
N261	N	-0.000072	-0.379320	-0.075700
N262	N	0.499928	0.120680	0.424300
H263	H	-0.556197	-0.781939	-0.035424
H264	H	-0.056197	-0.281939	0.464576
H265	H	-0.000031	-0.206249	0.220913
H266	H	0.499969	0.293751	0.720913
C267	C	-0.112656	-0.669749	-0.636739
C268	C	0.387344	-0.169749	-0.136739
N269	N	-0.157093	-0.670041	-0.612145
N270	N	0.342907	-0.170041	-0.112145
C271	C	-0.166289	-0.671502	-0.488213
C272	C	0.333711	-0.171502	0.011787
N273	N	-0.210725	-0.671186	-0.512809
N274	N	0.289275	-0.171186	-0.012809
C275	C	-0.000066	-0.522795	-0.030883
C276	C	0.499934	-0.022795	0.469117
N277	N	-0.000084	-0.553280	-0.073604
N278	N	0.499916	-0.053280	0.426396
C279	C	-0.719859	-0.754134	-0.007633
C280	C	-0.219859	-0.254134	0.492367
N281	N	-0.694213	-0.786409	-0.039889
N282	N	-0.194213	-0.286409	0.460111
C283	C	-0.435053	-0.551540	0.194793
C284	C	0.064947	-0.051540	0.694793
N285	N	-0.409413	-0.519266	0.227054
N286	N	0.090587	-0.019266	0.727054
H287	H	-0.150966	-0.672900	-0.371979
H288	H	0.349034	-0.172900	0.128021
H289	H	-0.000043	-0.098505	0.219623
H290	H	0.499957	0.401495	0.719623
C291	C	-0.849891	-0.754136	-0.007635
C292	C	-0.349891	-0.254136	0.492365
N293	N	-0.875546	-0.786406	-0.039887
N294	N	-0.375546	-0.286406	0.460113
C295	C	-0.150225	-0.590487	0.155895
C296	C	0.349775	-0.090487	0.655895
N297	N	-0.124569	-0.558210	0.188139
N298	N	0.375431	-0.058210	0.688139
H299	H	-0.097360	-0.676241	-0.098753
H300	H	0.402640	-0.176241	0.401247
H301	H	-0.000076	0.141942	-0.023982
H302	H	0.499924	0.641942	0.476018
C303	C	-0.280222	-0.754107	-0.007607
C304	C	0.219778	-0.254107	0.492393
N305	N	-0.305857	-0.786390	-0.039864
N306	N	0.194143	-0.286390	0.460136
C307	C	-0.000052	0.053435	0.180662
C308	C	0.499948	0.553435	0.680662
N309	N	-0.000049	0.034707	0.223983
N310	N	0.499951	0.534707	0.723983
C311	C	0.112538	-0.676378	-0.090260
C312	C	0.612538	-0.176378	0.409740
N313	N	0.156971	-0.676681	-0.065657
N314	N	0.656971	-0.176681	0.434343
C315	C	-0.280260	-0.590493	0.155894
C316	C	0.219740	-0.090493	0.655894
N317	N	-0.305910	-0.558215	0.188143
N318	N	0.194090	-0.058215	0.688143
C319	C	0.112553	-0.674874	-0.214980
C320	C	0.612553	-0.174874	0.285020
N321	N	0.156990	-0.674595	-0.239575
N322	N	0.656990	-0.174595	0.260425
C323	C	0.166190	-0.671603	-0.488208
C324	C	0.666190	-0.171603	0.011792
N325	N	0.210629	-0.671346	-0.512804
N326	N	0.710629	-0.171346	-0.012804
C327	C	-0.435034	-0.793064	-0.046543
C328	C	0.064966	-0.293064	0.453457
N329	N	-0.409391	-0.825337	-0.078804
N330	N	0.090609	-0.325337	0.421196
C331	C	-0.719885	-0.590540	0.155887
C332	C	-0.219885	-0.090540	0.655887
N333	N	-0.694249	-0.558283	0.188169
N334	N	-0.194249	-0.058283	0.688169
H335	H	0.150858	-0.672980	-0.371978
H336	H	0.650858	-0.172980	0.128022
H337	H	-0.000084	0.034193	-0.022694
H338	H	0.499916	0.534193	0.477306
C339	C	-0.000022	-0.493033	0.187199
C340	C	0.499978	0.006967	0.687199
N341	N	-0.000018	-0.511764	0.230519
N342	N	0.499982	-0.011764	0.730519
