data_functionalizedCrystal
_audit_creation_method	'MofGen! by Chris Wilmer'
_symmetry_space_group_name_H-M	'P1'
_symmetry_Int_Tables_number	1
_symmetry_cell_setting	triclinic
loop_
_symmetry_equiv_pos_as_xyz
  x,y,z
_cell_length_a	10.723023
_cell_length_b	10.723024
_cell_length_c	9.130313
_cell_angle_alpha	89.996649
_cell_angle_beta	89.996623
_cell_angle_gamma	84.467709
loop_
_atom_site_label
_atom_site_type_symbol
_atom_site_fract_x
_atom_site_fract_y
_atom_site_fract_z
O1	O	1.657187	0.175022	-0.121791
O2	O	1.294035	0.191777	-0.121795
O3	O	1.483988	0.001823	-0.121787
O4	O	1.467234	0.364976	-0.121798
O5	O	1.483975	0.001818	0.121811
O6	O	1.294022	0.191771	0.121804
O7	O	1.657174	0.175017	0.121808
Cu8	Cu	1.475597	0.183393	0.144048
Cu9	Cu	1.475612	0.183400	-0.144035
O10	O	1.467221	0.364970	0.121800
C11	C	1.247529	0.190555	0.000004
C12	C	1.108974	0.186908	0.000003
C13	C	0.904000	0.181509	0.126189
C14	C	1.047203	0.185279	0.126193
C15	C	1.482762	-0.044679	0.000010
C16	C	1.479114	-0.183233	0.000005
C17	C	1.585402	-0.258216	0.000004
C18	C	1.581634	-0.401420	-0.000001
C19	C	1.703680	0.176239	0.000005
C20	C	1.842235	0.179886	-0.000003
C21	C	1.468447	0.411473	-0.000001
C22	C	1.472095	0.550027	-0.000005
N23	N	1.475595	0.183388	0.346671
N24	N	1.475624	0.183396	-0.346658
C25	C	1.559735	0.099312	0.423326
C26	C	1.559747	0.099313	0.576663
C27	C	1.391475	0.267475	0.576676
C28	C	1.391458	0.267468	0.423342
H29	H	0.895372	0.181294	-0.108037
C30	C	1.652305	0.006832	0.660985
C31	C	1.744868	-0.085630	0.576647
C32	C	1.837429	-0.178116	0.660969
C33	C	1.837428	-0.178140	0.829631
C34	C	1.744861	-0.085675	0.913979
C35	C	1.652300	0.006811	0.829656
H36	H	1.744873	-0.085615	0.451785
H37	H	1.905953	-0.246564	0.598528
H38	H	1.905947	-0.246604	0.892051
H39	H	1.744857	-0.085690	1.038841
H40	H	1.583776	0.075260	0.892097
H41	H	1.672625	-0.465852	0.000004
C42	C	1.352407	-0.239717	0.000001
C43	C	1.259175	-0.210458	-0.126494
C44	C	1.132464	-0.266938	-0.126498
C45	C	1.098984	-0.352676	-0.000007
C46	C	1.192219	-0.381940	0.126497
C47	C	1.318930	-0.325460	0.126501
H48	H	1.283956	-0.146985	-0.220138
H49	H	1.063446	-0.245274	-0.220145
H50	H	1.005185	-0.394486	-0.000011
H51	H	1.167437	-0.445412	0.220141
H52	H	1.387948	-0.347123	0.220148
H53	H	0.850860	0.180115	0.234223
H54	H	1.381099	-0.385548	0.000006
C55	C	1.118948	0.187164	0.272155
C56	C	1.114403	0.078521	0.381736
C57	C	1.186150	0.080406	0.527704
C58	C	1.262443	0.190935	0.564090
C59	C	1.266992	0.299587	0.454507
C60	C	1.195244	0.297701	0.308539
H61	H	1.057923	-0.003307	0.354803
H62	H	1.182783	-0.000025	0.608824
H63	H	1.315555	0.192331	0.672144
H64	H	1.323471	0.381415	0.481440
H65	H	1.198611	0.378133	0.227419
C66	C	1.037237	0.185022	-0.145965
C67	C	0.960944	0.074493	-0.182352
C68	C	0.889197	0.072608	-0.328319
C69	C	0.893742	0.181251	-0.437900
C70	C	0.970038	0.291788	-0.401516
C71	C	1.041786	0.293674	-0.255548
H72	H	0.957577	-0.005939	-0.101231
H73	H	0.832717	-0.009220	-0.355252
H74	H	0.840630	0.179855	-0.545954
H75	H	0.973406	0.372220	-0.482636
H76	H	1.098265	0.375502	-0.228615
H77	H	1.628242	0.030848	0.360904
H78	H	1.322974	0.335933	0.639117
H79	H	1.679188	-0.216394	0.000014
H80	H	1.322935	0.335933	0.360925
