data_functionalizedCrystal
_audit_creation_method	'MofGen! by Chris Wilmer'
_symmetry_space_group_name_H-M	'P1'
_symmetry_Int_Tables_number	1
_symmetry_cell_setting	triclinic
loop_
_symmetry_equiv_pos_as_xyz
  x,y,z
_cell_length_a	12.759400
_cell_length_b	12.827893
_cell_length_c	12.827885
_cell_angle_alpha	90.020999
_cell_angle_beta	89.969506
_cell_angle_gamma	89.987296
loop_
_atom_site_label
_atom_site_type_symbol
_atom_site_fract_x
_atom_site_fract_y
_atom_site_fract_z
Zn1	Zn	-0.418271	-1.597675	-0.590892
Zn2	Zn	0.081729	-1.097675	-0.090892
Zn3	Zn	-0.593986	-1.597571	-0.416150
Zn4	Zn	-0.093986	-1.097571	0.083850
Zn5	Zn	-0.418316	-1.422916	-0.416160
Zn6	Zn	0.081684	-0.922916	0.083840
Zn7	Zn	-0.593902	-1.422904	-0.590845
Zn8	Zn	-0.093902	-0.922904	-0.090845
O9	O	-0.506119	-1.510266	-0.503511
O10	O	-0.006119	-1.010266	-0.003511
O11	O	-0.441596	-1.743897	-0.567727
O12	O	0.058404	-1.243897	-0.067727
O13	O	-0.570738	-1.574365	-0.269915
O14	O	-0.070738	-1.074365	0.230085
O15	O	-0.271289	-1.446147	-0.439363
O16	O	0.228711	-0.946147	0.060637
O17	O	-0.570694	-1.743821	-0.439345
O18	O	-0.070694	-1.243821	0.060655
O19	O	-0.271256	-1.574541	-0.567737
O20	O	0.228744	-1.074541	-0.067737
O21	O	-0.441673	-1.446046	-0.269923
O22	O	0.058327	-0.946046	0.230077
O23	O	-0.441592	-1.276678	-0.439317
O24	O	0.058408	-0.776678	0.060683
O25	O	-0.570550	-1.446125	-0.737087
O26	O	-0.070550	-0.946125	-0.237087
O27	O	-0.570594	-1.276669	-0.567657
O28	O	-0.070594	-0.776669	-0.067657
O29	O	-0.441515	-1.574529	-0.737122
O30	O	0.058485	-1.074529	-0.237122
O31	O	-0.740996	-1.574352	-0.439299
O32	O	-0.240996	-1.074352	0.060701
O33	O	-0.740935	-1.446025	-0.567647
O34	O	-0.240935	-0.946025	-0.067647
C35	C	-0.506089	-1.238756	-0.503483
C36	C	-0.006089	-0.738756	-0.003483
C37	C	-0.506102	-1.122603	-0.503496
C38	C	-0.006102	-0.622603	-0.003496
C39	C	-0.442347	-0.950812	-0.567133
C40	C	0.057653	-0.450812	-0.067133
C41	C	-0.442332	-1.070862	-0.567121
C42	C	0.057668	-0.570862	-0.067121
C43	C	-0.779086	-1.510204	-0.503490
C44	C	-0.279086	-1.010204	-0.003490
C45	C	-0.895863	-1.510273	-0.503515
C46	C	-0.395863	-1.010273	-0.003515
C47	C	-0.950722	-1.577168	-0.436759
C48	C	-0.450722	-1.077168	0.063241
C49	C	-1.060446	-1.577232	-0.436791
C50	C	-0.560446	-1.077232	0.063209
C51	C	-1.060442	-1.443499	-0.570339
C52	C	-0.560442	-0.943499	-0.070339
C53	C	-0.950720	-1.443440	-0.570312
C54	C	-0.450720	-0.943440	-0.070312
C55	C	-0.895865	-1.644001	-0.369962
C56	C	-0.395865	-1.144001	0.130038
C57	C	-0.950725	-1.710899	-0.303200
C58	C	-0.450725	-1.210899	0.196800
C59	C	-1.060449	-1.710964	-0.303232
C60	C	-0.560449	-1.210964	0.196768
C61	C	-1.115313	-1.644129	-0.370027
C62	C	-0.615313	-1.144129	0.129973
C63	C	-0.232086	-1.510357	-0.503556
C64	C	0.267914	-1.010357	-0.003556
C65	C	-0.115309	-1.510396	-0.503575
C66	C	0.384691	-1.010396	-0.003575
C67	C	-0.506018	-1.510337	-0.776082
C68	C	-0.006018	-1.010337	-0.276082
C69	C	-0.505975	-1.510368	-0.892235
C70	C	-0.005975	-1.010368	-0.392235
C71	C	-0.506141	-0.782836	-0.503532
C72	C	-0.006141	-0.282836	-0.003532
C73	C	-0.506128	-0.898990	-0.503519
C74	C	-0.006128	-0.398990	-0.003519
C75	C	-0.442112	-1.573913	-0.944037
C76	C	0.057888	-1.073913	-0.444037
C77	C	-0.442066	-1.573946	-1.064087
C78	C	0.057934	-1.073946	-0.564087
C79	C	-0.506144	-1.510256	-0.232002
C80	C	-0.006144	-1.010256	0.267998
C81	C	-0.505891	-1.510428	-0.115849
C82	C	-0.005891	-1.010428	0.384151
H83	H	-0.806522	-1.643953	-0.369926
H84	H	-0.306522	-1.143953	0.130074
C85	C	-1.236014	-1.644207	-0.370062
C86	C	-0.736014	-1.144207	0.129938
N87	N	-1.326924	-1.644263	-0.370084
N88	N	-0.826924	-1.144263	0.129916
C89	C	-0.579793	-1.436897	-0.952384
C90	C	-0.079793	-0.936897	-0.452384
N91	N	-0.635394	-1.381557	-0.997688
N92	N	-0.135394	-0.881557	-0.497688
H93	H	-0.387722	-1.115428	-0.621578
H94	H	0.112278	-0.615428	-0.121578
C95	C	-0.368575	-0.890686	-0.640709
C96	C	0.131425	-0.390686	-0.140709
N97	N	-0.313001	-0.845401	-0.696123
N98	N	0.186999	-0.345401	-0.196123
H99	H	-0.906048	-1.765320	-0.248823
H100	H	-0.406048	-1.265320	0.251177
C101	C	-1.120791	-1.784554	-0.229794
C102	C	-0.620791	-1.284554	0.270206
N103	N	-1.166239	-1.839981	-0.174474
N104	N	-0.666239	-1.339981	0.325526
C105	C	-0.579877	-1.062407	-0.429914
C106	C	-0.079877	-0.562407	0.070086
N107	N	-0.635446	-1.017059	-0.374493
N108	N	-0.135446	-0.517059	0.125507
H109	H	-0.560729	-0.943499	-0.449054
H110	H	-0.060729	-0.443499	0.050946
H111	H	-1.105121	-1.389084	-0.624720
H112	H	-0.605121	-0.889084	-0.124720
H113	H	-0.387393	-1.628352	-1.108636
H114	H	0.112607	-1.128352	-0.608636
H115	H	-0.560573	-1.456025	-1.071307
H116	H	-0.060573	-0.956025	-0.571307
H117	H	-0.906053	-1.388970	-0.624672
H118	H	-0.406053	-0.888970	-0.124672
C119	C	-0.368287	-1.647376	-0.883888
C120	C	0.131713	-1.147376	-0.383888
N121	N	-0.312680	-1.702711	-0.838584
N122	N	0.187320	-1.202711	-0.338584
