data_functionalizedCrystal
_audit_creation_method	'MofGen! by Chris Wilmer'
_symmetry_space_group_name_H-M	'P1'
_symmetry_Int_Tables_number	1
_symmetry_cell_setting	triclinic
loop_
_symmetry_equiv_pos_as_xyz
  x,y,z
_cell_length_a	18.215407
_cell_length_b	13.897447
_cell_length_c	18.215399
_cell_angle_alpha	90.025056
_cell_angle_beta	90.019833
_cell_angle_gamma	90.019978
loop_
_atom_site_label
_atom_site_type_symbol
_atom_site_fract_x
_atom_site_fract_y
_atom_site_fract_z
Zn1	Zn	1.125099	-0.384013	0.416131
Zn2	Zn	1.375099	-0.134013	0.666131
Zn3	Zn	1.625099	0.115987	0.916131
Zn4	Zn	1.875099	0.365987	1.166131
Zn5	Zn	1.125019	-0.545323	0.293071
Zn6	Zn	1.375019	-0.295323	0.543071
Zn7	Zn	1.625019	-0.045323	0.793071
Zn8	Zn	1.875019	0.204677	1.043071
Zn9	Zn	1.002032	-0.384045	0.293078
Zn10	Zn	1.252032	-0.134045	0.543078
Zn11	Zn	1.502032	0.115955	0.793078
Zn12	Zn	1.752032	0.365955	1.043078
Zn13	Zn	1.002009	-0.545269	0.416096
Zn14	Zn	1.252009	-0.295269	0.666096
Zn15	Zn	1.502009	-0.045269	0.916096
Zn16	Zn	1.752009	0.204731	1.166096
O17	O	1.063540	-0.464663	0.354594
O18	O	1.313540	-0.214663	0.604594
O19	O	1.563540	0.035337	0.854594
O20	O	1.813540	0.285337	1.104594
O21	O	1.228073	-0.405421	0.399818
O22	O	1.478073	-0.155421	0.649818
O23	O	1.728073	0.094579	0.899818
O24	O	1.978073	0.344579	1.149818
O25	O	1.108681	-0.523965	0.190087
O26	O	1.358681	-0.273965	0.440087
O27	O	1.608681	-0.023965	0.690087
O28	O	1.858681	0.226035	0.940087
O29	O	1.018400	-0.249059	0.309419
O30	O	1.268400	0.000941	0.559419
O31	O	1.518400	0.250941	0.809419
O32	O	1.768400	0.500941	1.059419
O33	O	1.228014	-0.523934	0.309406
O34	O	1.478014	-0.273934	0.559406
O35	O	1.728014	-0.023934	0.809406
O36	O	1.978014	0.226066	1.059406
O37	O	1.108817	-0.249036	0.399825
O38	O	1.358817	0.000964	0.649825
O39	O	1.608817	0.250964	0.899825
O40	O	1.858817	0.500964	1.149825
O41	O	1.018322	-0.405474	0.190093
O42	O	1.268322	-0.155474	0.440093
O43	O	1.518322	0.094526	0.690093
O44	O	1.768322	0.344526	0.940093
O45	O	0.899045	-0.405422	0.309385
O46	O	1.149045	-0.155422	0.559385
O47	O	1.399045	0.094578	0.809385
O48	O	1.649045	0.344578	1.059385
O49	O	1.018361	-0.523843	0.519084
O50	O	1.268361	-0.273843	0.769084
O51	O	1.518361	-0.023843	1.019084
O52	O	1.768361	0.226157	1.269084
O53	O	0.899028	-0.523873	0.399765
O54	O	1.149028	-0.273873	0.649765
O55	O	1.399028	-0.023873	0.899765
O56	O	1.649028	0.226127	1.149765
O57	O	1.108795	-0.405369	0.519110
O58	O	1.358795	-0.155369	0.769110
O59	O	1.608795	0.094631	1.019110
O60	O	1.858795	0.344631	1.269110
O61	O	1.108659	-0.680297	0.309372
O62	O	1.358659	-0.430297	0.559372
O63	O	1.608659	-0.180297	0.809372
O64	O	1.858659	0.069703	1.059372
O65	O	1.018284	-0.680258	0.399758
O66	O	1.268284	-0.430258	0.649758
O67	O	1.518284	-0.180258	0.899758
O68	O	1.768284	0.069742	1.149758
C69	C	0.872334	-0.464646	0.354573
C70	C	1.122334	-0.214646	0.604573
C71	C	1.372334	0.035354	0.854573
C72	C	1.622334	0.285354	1.104573
C73	C	0.790535	-0.464662	0.354581
C74	C	1.040535	-0.214662	0.604581
C75	C	1.290535	0.035338	0.854581
C76	C	1.540535	0.285338	1.104581
C77	C	0.602351	-0.526437	0.401583
C78	C	0.852351	-0.276437	0.651583
C79	C	1.102351	-0.026437	0.901583
C80	C	1.352351	0.223563	1.151583
C81	C	0.525493	-0.526440	0.401592
C82	C	0.775493	-0.276440	0.651592
C83	C	1.025493	-0.026440	0.901592
C84	C	1.275493	0.223560	1.151592
C85	C	0.525480	-0.402906	0.307620
C86	C	0.775480	-0.152906	0.557620
C87	C	1.025480	0.097094	0.807620
C88	C	1.275480	0.347094	1.057620
C89	C	0.602338	-0.402899	0.307616
C90	C	0.852338	-0.152899	0.557616
C91	C	1.102338	0.097101	0.807616
C92	C	1.352338	0.347101	1.057616
C93	C	0.640771	-0.464670	0.354596
C94	C	0.890771	-0.214670	0.604596
C95	C	1.140771	0.035330	0.854596
C96	C	1.390771	0.285330	1.104596
C97	C	0.487055	-0.464680	0.354610
C98	C	0.737055	-0.214680	0.604610
C99	C	0.987055	0.035320	0.854610
C100	C	1.237055	0.285320	1.104610
C101	C	0.403722	-0.464683	0.354619
C102	C	0.653722	-0.214683	0.604619
C103	C	0.903722	0.035317	0.854619
C104	C	1.153722	0.285317	1.104619
C105	C	0.724110	-0.464666	0.354587
C106	C	0.974110	-0.214666	0.604587
C107	C	1.224110	0.035334	0.854587
C108	C	1.474110	0.285334	1.104587
C109	C	1.063480	-0.715277	0.354577
C110	C	1.313480	-0.465277	0.604577
C111	C	1.563480	-0.215277	0.854577
C112	C	1.813480	0.034723	1.104577
C113	C	1.063522	-0.822491	0.354594
C114	C	1.313522	-0.572491	0.604594
C115	C	1.563522	-0.322491	0.854594
C116	C	1.813522	-0.072491	1.104594
C117	C	1.063557	-0.909561	0.354611
C118	C	1.313557	-0.659561	0.604611
C119	C	1.563557	-0.409561	0.854611
C120	C	1.813557	-0.159561	1.104611
C121	C	1.063609	-1.018793	0.354630
C122	C	1.313609	-0.768793	0.604630
C123	C	1.563609	-0.518793	0.854630
C124	C	1.813609	-0.268793	1.104630
C125	C	1.255493	-0.464680	0.354615
C126	C	1.505493	-0.214680	0.604615
C127	C	1.755493	0.035320	0.854615
C128	C	2.005493	0.285320	1.104615
C129	C	1.337292	-0.464687	0.354625
C130	C	1.587292	-0.214687	0.604625
C131	C	1.837292	0.035313	0.854625
C132	C	2.087292	0.285313	1.104625
C133	C	1.063585	-0.464596	0.546547
C134	C	1.313585	-0.214596	0.796547
C135	C	1.563585	0.035404	1.046547
C136	C	1.813585	0.285404	1.296547
C137	C	1.063604	-0.464568	0.628346
C138	C	1.313604	-0.214568	0.878346
C139	C	1.563604	0.035432	1.128346
C140	C	1.813604	0.285432	1.378346
C141	C	1.063620	-0.213070	0.354627
C142	C	1.313620	0.036930	0.604627
C143	C	1.563620	0.286930	0.854627
C144	C	1.813620	0.536930	1.104627
C145	C	1.063654	-0.105856	0.354641
C146	C	1.313654	0.144144	0.604641
C147	C	1.563654	0.394144	0.854641
C148	C	1.813654	0.644144	1.104641
C149	C	1.063538	-0.464659	0.163387
C150	C	1.313538	-0.214659	0.413387
C151	C	1.563538	0.035341	0.663387
C152	C	1.813538	0.285341	0.913387
C153	C	1.063661	-0.464416	0.081589
C154	C	1.313661	-0.214416	0.331589
C155	C	1.563661	0.035584	0.581589
C156	C	1.813661	0.285584	0.831589
C157	C	1.110710	-0.402821	0.816554
C158	C	1.360710	-0.152821	1.066554
C159	C	1.610710	0.097179	1.316554
C160	C	1.860710	0.347179	1.566554
C161	C	1.110718	-0.402792	0.893413
C162	C	1.360718	-0.152792	1.143413
C163	C	1.610718	0.097208	1.393413
C164	C	1.860718	0.347208	1.643413
C165	C	1.016550	-0.526166	0.893375
C166	C	1.266550	-0.276166	1.143375
C167	C	1.516550	-0.026166	1.393375
C168	C	1.766550	0.223834	1.643375
C169	C	1.016538	-0.526188	0.816518
C170	C	1.266538	-0.276188	1.066518
C171	C	1.516538	-0.026188	1.316518
C172	C	1.766538	0.223812	1.566518
C173	C	1.063622	-0.464517	0.778109
C174	C	1.313622	-0.214517	1.028109
C175	C	1.563622	0.035483	1.278109
C176	C	1.813622	0.285483	1.528109
C177	C	1.063643	-0.464466	0.931825
C178	C	1.313643	-0.214466	1.181825
C179	C	1.563643	0.035534	1.431825
C180	C	1.813643	0.285534	1.681825
C181	C	1.063652	-0.464436	1.015159
C182	C	1.313652	-0.214436	1.265159
C183	C	1.563652	0.035564	1.515159
C184	C	1.813652	0.285564	1.765159
C185	C	1.063612	-0.464546	0.694770
C186	C	1.313612	-0.214546	0.944770
C187	C	1.563612	0.035454	1.194770
C188	C	1.813612	0.285454	1.444770
H189	H	0.633620	-0.352595	0.269353
H190	H	0.883620	-0.102595	0.519353
H191	H	1.133620	0.147405	0.769353
H192	H	1.383620	0.397405	1.019353
H193	H	0.978218	-0.576378	0.924656
H194	H	1.228218	-0.326378	1.174656
H195	H	1.478218	-0.076378	1.424656
H196	H	1.728218	0.173622	1.674656
H197	H	1.149046	-0.352601	0.785285
H198	H	1.399046	-0.102601	1.035285
H199	H	1.649046	0.147399	1.285285
H200	H	1.899046	0.397399	1.535285
F201	F	0.484607	-0.592179	0.451604
F202	F	0.734607	-0.342179	0.701604
F203	F	0.984607	-0.092179	0.951604
F204	F	1.234607	0.157821	1.201604
H205	H	0.633642	-0.576732	0.439839
H206	H	0.883642	-0.326732	0.689839
H207	H	1.133642	-0.076732	0.939839
H208	H	1.383642	0.173268	1.189839
H209	H	0.494178	-0.352616	0.269370
H210	H	0.744178	-0.102616	0.519370
H211	H	0.994178	0.147384	0.769370
H212	H	1.244178	0.397384	1.019370
H213	H	1.149061	-0.352551	0.924712
H214	H	1.399061	-0.102551	1.174712
H215	H	1.649061	0.147449	1.424712
H216	H	1.899061	0.397449	1.674712
H217	H	0.978189	-0.576428	0.785215
H218	H	1.228189	-0.326428	1.035215
H219	H	1.478189	-0.076428	1.285215
H220	H	1.728189	0.173572	1.535215
