data_functionalizedCrystal
_audit_creation_method	'MofGen! by Chris Wilmer'
_symmetry_space_group_name_H-M	'P1'
_symmetry_Int_Tables_number	1
_symmetry_cell_setting	triclinic
loop_
_symmetry_equiv_pos_as_xyz
  x,y,z
_cell_length_a	18.101398
_cell_length_b	18.101395
_cell_length_c	18.101389
_cell_angle_alpha	90.016841
_cell_angle_beta	89.975673
_cell_angle_gamma	89.973629
loop_
_atom_site_label
_atom_site_type_symbol
_atom_site_fract_x
_atom_site_fract_y
_atom_site_fract_z
Zn1	Zn	1.132121	0.295001	-0.418847
Zn2	Zn	1.132017	0.418826	-0.295009
Zn3	Zn	1.008280	0.294993	-0.295008
Zn4	Zn	1.008231	0.418795	-0.418797
O5	O	1.070162	0.356904	-0.356915
O6	O	1.235740	0.311443	-0.402440
O7	O	1.115580	0.402410	-0.191376
O8	O	1.024772	0.191361	-0.311456
O9	O	1.235664	0.402417	-0.311457
O10	O	1.115757	0.191367	-0.402440
O11	O	1.024671	0.311430	-0.191375
O12	O	0.904641	0.311399	-0.311408
O13	O	1.024688	0.402363	-0.522437
O14	O	0.904604	0.402356	-0.402355
O15	O	1.115710	0.311412	-0.522473
O16	O	1.115532	0.522455	-0.311409
O17	O	1.024587	0.522432	-0.402356
C18	C	1.070063	0.549314	-0.356893
C19	C	1.070088	0.631628	-0.356909
C20	C	0.877752	0.356874	-0.356877
C21	C	0.795437	0.356879	-0.356878
C22	C	1.070205	0.356885	-0.550077
C23	C	1.070223	0.356877	-0.632391
C24	C	0.496347	0.356925	-0.356940
C25	C	0.527670	0.299412	-0.299997
C26	C	0.613288	0.299566	-0.299754
C27	C	0.644729	0.356901	-0.356909
C28	C	0.613611	0.434909	-0.335587
C29	C	0.527966	0.434590	-0.335191
C30	C	0.527961	0.337109	-0.435339
C31	C	0.613612	0.335371	-0.434911
C32	C	0.728589	0.356893	-0.356893
C33	C	0.412487	0.356939	-0.356954
C34	C	1.263324	0.356934	-0.356954
C35	C	1.345638	0.356948	-0.356971
C36	C	1.070282	0.163742	-0.356953
C37	C	1.070333	0.081428	-0.356970
C38	C	1.070251	0.930719	-0.356949
C39	C	1.013163	0.899410	-0.414312
C40	C	1.012892	0.813792	-0.414133
C41	C	1.070170	0.782337	-0.356930
C42	C	1.049041	0.813472	-0.278878
C43	C	1.048673	0.899117	-0.279221
C44	C	1.148593	0.899073	-0.376950
C45	C	1.148132	0.813422	-0.378661
C46	C	1.070126	0.698477	-0.356914
C47	C	1.070293	1.014579	-0.356959
C48	C	1.070266	0.356738	-0.931482
C49	C	1.012801	0.413780	-0.900134
C50	C	1.012956	0.414045	-0.814516
C51	C	1.070244	0.356807	-0.783100
C52	C	1.148270	0.377998	-0.814206
C53	C	1.147949	0.378372	-0.899851
C54	C	1.050385	0.278379	-0.899905
C55	C	1.048649	0.278832	-0.814254
C56	C	1.070237	0.356845	-0.699240
C57	C	1.070279	0.356702	-1.015342
C58	C	1.070162	0.356869	-0.164505
C59	C	1.070287	0.356668	-0.082191
H60	H	0.634329	0.241719	-0.313119
H61	H	1.087450	0.234076	-0.792868
H62	H	0.506389	0.281216	-0.454725
H63	H	1.026252	0.919970	-0.472374
O64	O	1.207467	0.785071	-0.327359
H65	H	1.234545	0.832435	-0.299391
O66	O	0.935974	0.786731	-0.396573
H67	H	0.915229	0.752694	-0.443162
H68	H	1.026111	0.792740	-0.472007
H69	H	1.088449	0.919830	-0.235023
O70	O	1.102379	0.786489	-0.220711
H71	H	1.100975	0.725225	-0.218592
O72	O	1.204975	0.926055	-0.321733
H73	H	1.177378	0.961810	-0.280228
O74	O	0.501448	0.456841	-0.259273
H75	H	0.549796	0.467725	-0.223186
O76	O	0.973985	0.785146	-0.256028
H77	H	0.951611	0.748903	-0.300131
O78	O	0.501126	0.392587	-0.491547
H79	H	0.465446	0.434076	-0.463827
O80	O	1.105819	0.222077	-0.926761
H81	H	1.147331	0.249721	-0.962426
H82	H	1.192236	0.337757	-0.793859
H83	H	0.635026	0.452008	-0.278892
H84	H	0.955448	0.920990	-0.401230
O85	O	0.936323	0.396456	-0.786646
H86	H	0.898817	0.387690	-0.834340
O87	O	1.170986	0.453066	-0.785805
H88	H	1.226241	0.467433	-0.808176
O89	O	1.029992	0.490254	-0.928644
H90	H	0.982042	0.511412	-0.960462
O91	O	0.500514	0.493277	-0.387725
H92	H	0.439196	0.493485	-0.387839
H93	H	0.633956	0.277966	-0.450989
O94	O	0.972591	0.257653	-0.787325
H95	H	0.976185	0.205752	-0.754884
H96	H	1.026082	0.472127	-0.794035
H97	H	0.633975	0.478909	-0.375763
O98	O	0.976322	0.252808	-0.928478
H99	H	0.952855	0.295669	-0.965510
H100	H	0.507099	0.241388	-0.313215
H101	H	1.164065	0.793071	-0.436103
H102	H	0.954768	0.400655	-0.920720
O103	O	1.170262	0.454249	-0.926333
H104	H	1.181176	0.490330	-0.877968
O105	O	0.972817	0.925666	-0.256787
H106	H	0.936741	0.877333	-0.245799
H107	H	1.167856	0.920633	-0.432895
H108	H	1.192217	0.338629	-0.920590
H109	H	0.633741	0.312665	-0.241661
O110	O	0.499150	0.316573	-0.223486
H111	H	0.462762	0.365886	-0.225839
O112	O	0.641936	0.386831	-0.494124
H113	H	0.678797	0.428744	-0.468769
