data_functionalizedCrystal
_audit_creation_method	'MofGen! by Chris Wilmer'
_symmetry_space_group_name_H-M	'P1'
_symmetry_Int_Tables_number	1
_symmetry_cell_setting	triclinic
loop_
_symmetry_equiv_pos_as_xyz
  x,y,z
_cell_length_a	14.519709
_cell_length_b	17.699083
_cell_length_c	16.176319
_cell_angle_alpha	90.001389
_cell_angle_beta	89.992256
_cell_angle_gamma	96.518420
loop_
_atom_site_label
_atom_site_type_symbol
_atom_site_fract_x
_atom_site_fract_y
_atom_site_fract_z
O1	O	0.116624	-1.004413	-0.068632
O2	O	0.131798	-0.784078	-0.068660
O3	O	-0.010052	-0.900087	-0.068638
O4	O	0.258474	-0.888403	-0.068654
O5	O	-0.010061	-0.900071	0.068855
O6	O	0.131789	-0.784062	0.068833
O7	O	0.116615	-1.004397	0.068861
Cu8	Cu	0.124201	-0.894228	0.081401
Cu9	Cu	0.124212	-0.894247	-0.081200
O10	O	0.258465	-0.888387	0.068839
C11	C	-0.044414	-0.899534	0.000109
C12	C	-0.146789	-0.897903	0.000109
C13	C	0.131249	-0.755871	0.000083
C14	C	0.129618	-0.671848	0.000073
C15	C	0.117164	-1.032603	0.000116
C16	C	0.118795	-1.116626	0.000121
C17	C	-0.521659	-0.891896	0.000087
C18	C	-0.417358	-0.893564	0.000093
C19	C	-0.334227	-0.894899	0.000099
C20	C	-0.229920	-0.896568	0.000104
C21	C	0.292827	-0.888940	0.000090
C22	C	0.395202	-0.890572	0.000085
N23	N	0.124193	-0.894220	0.195767
C24	C	0.212881	-0.623466	0.000068
C25	C	0.211343	-0.544518	0.000079
C26	C	0.126541	-0.513954	0.000089
C27	C	0.043272	-0.562343	0.000096
C28	C	0.044811	-0.641289	0.000091
C29	C	0.037064	-0.243962	0.000117
C30	C	0.035531	-0.165010	0.000119
C31	C	0.203596	-0.147191	0.000105
C32	C	0.205135	-0.226137	0.000100
C33	C	0.121866	-0.274519	0.000112
C34	C	0.123535	-0.360123	0.000102
C35	C	0.124872	-0.428352	0.000093
N36	N	0.124213	-0.894260	-0.195565
C37	C	0.061408	-0.945604	0.239040
C38	C	0.061407	-0.945608	0.325588
C39	C	0.124196	-0.894231	0.368859
C40	C	0.186985	-0.842841	0.325579
C41	C	0.186981	-0.842834	0.239034
C42	C	0.187002	-0.842867	0.674608
C43	C	0.187003	-0.842879	0.761159
C44	C	0.061428	-0.945641	0.761161
C45	C	0.061424	-0.945634	0.674616
C46	C	0.124209	-0.894242	0.631343
C47	C	0.124208	-0.894237	0.537499
C48	C	0.124202	-0.894238	0.462702
H49	H	0.281937	-0.648344	0.000060
O50	O	0.248011	-0.793024	0.196904
C51	C	0.304858	-0.833624	0.146841
H52	H	0.268038	-0.892797	0.133875
H53	H	0.319490	-0.802049	0.085984
H54	H	0.373013	-0.838856	0.180182
H55	H	0.010281	-0.987449	0.360821
O56	O	-0.046931	-0.135445	0.000171
C57	C	-0.120098	-0.195076	0.000161
H58	H	-0.094370	-0.248741	0.026187
H59	H	-0.179311	-0.178494	0.040088
H60	H	-0.145777	-0.206212	-0.065798
H61	H	0.238106	-0.801004	0.360816
O62	O	0.000340	-0.995570	0.632711
C63	C	-0.055063	-1.040938	0.689465
H64	H	-0.056055	-1.009914	0.751163
H65	H	-0.128733	-1.052383	0.664469
H66	H	-0.025206	-1.097200	0.698655
H67	H	0.010302	-0.987485	0.796403
H68	H	0.238125	-0.801023	0.639382
O69	O	-0.043762	-0.291028	0.000008
C70	C	-0.047910	-0.337211	-0.071214
H71	H	0.025283	-0.341308	-0.094956
H72	H	-0.082406	-0.396496	-0.055201
H73	H	-0.089960	-0.311176	-0.121075
H74	H	0.279144	-0.505128	0.000074
H75	H	-0.025775	-0.537452	0.000116
H76	H	0.238136	-0.801038	0.796389
O77	O	-0.036156	-0.688183	0.000055
C78	C	-0.111335	-0.644280	0.000083
H79	H	-0.087796	-0.585391	-0.025946
H80	H	-0.169661	-0.673323	-0.039832
H81	H	-0.137342	-0.638626	0.066048
H82	H	0.271397	-0.107789	0.000100
O83	O	0.287571	-0.255732	-0.000021
C84	C	0.338310	-0.231029	-0.071243
H85	H	0.313295	-0.176244	-0.094978
H86	H	0.415133	-0.220171	-0.055233
H87	H	0.327534	-0.276695	-0.121108
O88	O	0.000324	-0.995542	0.197138
C89	C	-0.055077	-1.040908	0.253896
H90	H	-0.056067	-1.009881	0.315592
H91	H	-0.128747	-1.052355	0.228903
H92	H	-0.025218	-1.097169	0.263089
