data_functionalizedCrystal
_audit_creation_method	'MofGen! by Chris Wilmer'
_symmetry_space_group_name_H-M	'P1'
_symmetry_Int_Tables_number	1
_symmetry_cell_setting	triclinic
loop_
_symmetry_equiv_pos_as_xyz
  x,y,z
_cell_length_a	10.489746
_cell_length_b	14.044220
_cell_length_c	13.101039
_cell_angle_alpha	86.332523
_cell_angle_beta	86.610823
_cell_angle_gamma	91.134911
loop_
_atom_site_label
_atom_site_type_symbol
_atom_site_fract_x
_atom_site_fract_y
_atom_site_fract_z
O1	O	1.714048	-0.128676	-0.085148
O2	O	1.344128	-0.141232	-0.085165
O3	O	1.523535	0.003068	-0.085147
O4	O	1.534641	-0.272976	-0.085167
O5	O	1.510664	-0.007303	0.085282
O6	O	1.331258	-0.151603	0.085263
O7	O	1.701178	-0.139046	0.085281
Zn8	Zn	1.514174	-0.146971	0.112331
Zn9	Zn	1.531131	-0.133307	-0.112216
O10	O	1.521771	-0.283347	0.085262
C11	C	1.290065	-0.145468	0.000047
C12	C	1.148148	-0.142627	0.000040
C13	C	0.985806	-0.049132	0.000061
C14	C	1.061596	-0.100989	0.084085
C15	C	1.074243	-0.090786	-0.083944
C16	C	0.971073	-0.189476	0.084159
C17	C	0.983719	-0.179256	-0.083946
C18	C	1.059464	-0.231179	0.000099
C19	C	1.512239	0.033230	0.000068
C20	C	1.497739	0.138555	0.000068
C21	C	1.755241	-0.134811	0.000066
C22	C	1.897158	-0.137651	0.000066
N23	N	1.502611	-0.156296	0.265578
C24	C	1.533067	-0.313509	0.000045
C25	C	1.547568	-0.418833	0.000038
C26	C	1.471232	0.331399	0.000052
C27	C	1.574069	0.388329	0.000054
C28	C	1.559320	0.495633	0.000045
C29	C	1.485979	0.224084	0.000061
N30	N	1.542704	-0.123975	-0.265463
C31	C	1.486879	-0.168991	0.474619
C32	C	1.558432	-0.111283	0.525502
C33	C	1.549679	-0.118347	0.641820
C34	C	1.495631	-0.161929	0.358291
H35	H	1.095917	-0.067944	0.155129
O36	O	1.692223	0.350181	0.000115
C37	C	1.814846	0.206896	0.000083
C38	C	1.680968	0.249976	0.000034
H39	H	1.805793	0.125876	-0.000004
H40	H	1.863557	0.227075	0.071429
H41	H	1.874313	0.235861	-0.071219
H42	H	1.621398	0.221035	0.071288
H43	H	1.632357	0.229804	-0.071359
H44	H	1.419052	-0.223698	0.518409
O45	O	0.917511	-0.239029	0.169087
C46	C	0.781640	-0.233866	0.323413
C47	C	0.842239	-0.177638	0.227285
H48	H	0.720748	-0.184259	0.370481
H49	H	0.860189	-0.264211	0.371579
H50	H	0.719049	-0.294783	0.299301
H51	H	0.904820	-0.116679	0.251305
H52	H	0.763627	-0.147363	0.179142
H53	H	1.626265	-0.056574	0.481707
O54	O	1.097918	-0.323098	0.000323
C55	C	1.088393	-0.478974	0.089085
C56	C	1.044770	-0.374903	0.088965
H57	H	1.045421	-0.520892	0.160733
H58	H	1.197058	-0.480484	0.088466
H59	H	1.054925	-0.512607	0.018093
H60	H	1.078149	-0.341206	0.159945
H61	H	0.936107	-0.373458	0.089530
O62	O	0.942805	-0.218496	-0.168805
C63	C	0.949242	-0.210819	-0.353316
C64	C	0.995652	-0.166282	-0.257289
H65	H	0.991971	-0.168635	-0.424880
H66	H	0.840570	-0.208873	-0.352156
H67	H	0.980899	-0.287974	-0.353996
H68	H	0.964087	-0.089111	-0.256546
H69	H	1.104321	-0.168302	-0.258486
H70	H	1.372121	0.363247	0.000045
H71	H	0.953272	0.027833	0.000152
O72	O	1.127799	-0.040905	-0.168665
C73	C	1.151339	0.111393	-0.264340
C74	C	1.090588	0.055005	-0.168371
H75	H	1.121299	0.188951	-0.264123
H76	H	1.117969	0.078864	-0.335988
H77	H	1.259812	0.108116	-0.263921
H78	H	0.982111	0.058261	-0.168690
H79	H	1.124060	0.087550	-0.096766
