data_functionalizedCrystal
_audit_creation_method	'MofGen! by Chris Wilmer'
_symmetry_space_group_name_H-M	'P1'
_symmetry_Int_Tables_number	1
_symmetry_cell_setting	triclinic
loop_
_symmetry_equiv_pos_as_xyz
  x,y,z
_cell_length_a	19.188931
_cell_length_b	19.188930
_cell_length_c	18.266242
_cell_angle_alpha	90.011475
_cell_angle_beta	89.992492
_cell_angle_gamma	96.855219
loop_
_atom_site_label
_atom_site_type_symbol
_atom_site_fract_x
_atom_site_fract_y
_atom_site_fract_z
O1	O	0.926149	-0.087169	-0.060863
O2	O	1.426149	0.412831	0.439137
O3	O	0.722838	-0.098903	-0.060871
O4	O	1.222838	0.401097	0.439129
O5	O	0.830361	0.008620	-0.060852
O6	O	1.330361	0.508620	0.439148
O7	O	0.818626	-0.194691	-0.060881
O8	O	1.318626	0.305309	0.439119
O9	O	0.830343	0.008625	0.060910
O10	O	1.330343	0.508625	0.560910
O11	O	0.722820	-0.098897	0.060891
O12	O	1.222820	0.401103	0.560891
O13	O	0.926131	-0.087163	0.060899
O14	O	1.426131	0.412837	0.560899
Zn15	Zn	0.824473	-0.093029	0.080227
Zn16	Zn	1.324473	0.406971	0.580227
Zn17	Zn	0.824496	-0.093037	-0.080199
Zn18	Zn	1.324496	0.406963	0.419801
O19	O	0.818608	-0.194686	0.060880
O20	O	1.318608	0.305314	0.560880
C21	C	0.696818	-0.098520	0.000009
C22	C	1.196818	0.401480	0.500009
C23	C	0.619313	-0.097380	0.000006
C24	C	1.119313	0.402620	0.500006
C25	C	0.829972	0.034634	0.000031
C26	C	1.329972	0.534634	0.500031
C27	C	0.828831	0.112138	0.000037
C28	C	1.328831	0.612138	0.500037
C29	C	0.952151	-0.087546	0.000017
C30	C	1.452151	0.412454	0.500017
C31	C	1.029656	-0.088687	0.000015
C32	C	1.529656	0.411313	0.500015
C33	C	1.074580	-0.025596	0.000018
C34	C	1.574580	0.474404	0.500018
C35	C	1.147403	-0.026667	0.000022
C36	C	1.647403	0.473333	0.500022
C37	C	1.175300	-0.090834	0.000009
C38	C	1.675300	0.409166	0.500009
C39	C	1.130366	-0.153933	0.000010
C40	C	1.630366	0.346067	0.500010
C41	C	1.057544	-0.152859	0.000014
C42	C	1.557544	0.347141	0.500014
N43	N	1.283301	-0.139883	-0.041448
N44	N	1.783301	0.360117	0.458552
N45	N	1.352479	-0.140898	-0.041453
N46	N	1.852479	0.359102	0.458547
C47	C	1.394709	-0.094072	0.000001
C48	C	1.894709	0.405928	0.500001
N49	N	1.365147	-0.046181	0.041451
N50	N	1.865147	0.453819	0.541451
N51	N	1.295963	-0.045163	0.041452
N52	N	1.795963	0.454837	0.541452
C53	C	1.254262	-0.092005	0.000006
C54	C	1.754262	0.407995	0.500006
C55	C	1.518597	-0.032139	0.000010
C56	C	2.018597	0.467861	0.500010
C57	C	1.591422	-0.033213	0.000018
C58	C	2.091422	0.466787	0.500018
C59	C	1.574383	-0.160480	-0.000001
C60	C	2.074383	0.339520	0.499999
C61	C	1.501560	-0.159404	-0.000002
C62	C	2.001560	0.340596	0.499998
C63	C	1.473671	-0.095231	-0.000000
C64	C	1.973671	0.404769	0.500000
C65	C	0.818997	-0.220700	-0.000004
C66	C	1.318997	0.279300	0.499996
C67	C	0.820138	-0.298204	-0.000015
C68	C	1.320138	0.201796	0.499985
N69	N	0.824461	-0.093024	0.189714
N70	N	1.324461	0.406976	0.689714
C71	C	0.891922	0.157062	0.000043
C72	C	1.391922	0.657062	0.500043
C73	C	0.890850	0.229886	0.000031
C74	C	1.390850	0.729886	0.500031
C75	C	0.826684	0.257782	0.000028
C76	C	1.326684	0.757782	0.500028
C77	C	0.763585	0.212849	0.000018
C78	C	1.263585	0.712849	0.500018
C79	C	0.764658	0.140026	0.000022
C80	C	1.264658	0.640026	0.500022
N81	N	0.777630	0.365789	0.041464
N82	N	1.277630	0.865789	0.541464
N83	N	0.776615	0.434968	0.041461
N84	N	1.276615	0.934968	0.541461
C85	C	0.823446	0.477191	0.000013
C86	C	1.323446	0.977191	0.500013
N87	N	0.871341	0.447624	-0.041423
N88	N	1.371341	0.947624	0.458577
N89	N	0.872359	0.378439	-0.041417
N90	N	1.372359	0.878439	0.458583
C91	C	0.825513	0.336745	0.000023
C92	C	1.325513	0.836745	0.500023
C93	C	0.885379	0.601079	0.000005
C94	C	1.385379	1.101079	0.500005
C95	C	0.884305	0.673904	-0.000011
C96	C	1.384305	1.173904	0.499989
C97	C	0.757038	0.656865	-0.000017
C98	C	1.257038	1.156865	0.499983
C99	C	0.758114	0.584042	-0.000008
C100	C	1.258114	1.084042	0.499992
C101	C	0.822286	0.556154	0.000007
C102	C	1.322286	1.056154	0.500007
N103	N	0.824513	-0.093037	-0.189686
N104	N	1.324513	0.406963	0.310314
C105	C	0.872088	-0.045436	0.228031
C106	C	1.372088	0.454564	0.728031
C107	C	0.872092	-0.045433	0.304676
C108	C	1.372092	0.454567	0.804676
C109	C	0.824477	-0.093030	0.343001
C110	C	1.324477	0.406970	0.843001
C111	C	0.776841	-0.140621	0.304675
C112	C	1.276841	0.359379	0.804675
C113	C	0.776834	-0.140618	0.228031
C114	C	1.276834	0.359382	0.728031
N115	N	0.815401	-0.154837	0.463325
N116	N	1.315401	0.345163	0.963325
N117	N	0.815413	-0.154837	0.536133
N118	N	1.315413	0.345163	1.036133
C119	C	0.824496	-0.093040	0.573924
C120	C	1.324496	0.406960	1.073924
N121	N	0.833582	-0.031239	0.536156
N122	N	1.333582	0.468761	1.036156
N123	N	0.833574	-0.031240	0.463341
N124	N	1.333574	0.468760	0.963341
C125	C	0.824480	-0.093038	0.426108
C126	C	1.324480	0.406962	0.926108
C127	C	0.872130	-0.045444	0.695348
C128	C	1.372130	0.454556	1.195348
C129	C	0.872130	-0.045440	0.771994
C130	C	1.372130	0.454560	1.271994
C131	C	0.776882	-0.140634	0.771991
C132	C	1.276882	0.359366	1.271991
C133	C	0.776879	-0.140632	0.695346
C134	C	1.276879	0.359368	1.195346
C135	C	0.824507	-0.093038	0.657029
C136	C	1.324507	0.406962	1.157029
H137	H	1.183987	0.024710	0.000022
H138	H	1.683987	0.524710	0.500022
H139	H	1.153084	-0.206177	0.000002
H140	H	1.653084	0.293823	0.500002
O141	O	0.923471	0.005916	0.654017
O142	O	1.423471	0.505916	1.154017
H143	H	0.915464	-0.002075	0.594284
H144	H	1.415464	0.497925	1.094284
H145	H	0.910877	-0.006680	0.335880
H146	H	1.410877	0.493320	0.835880
H147	H	1.051878	0.026658	0.000022
H148	H	1.551878	0.526658	0.500022
O149	O	0.923452	0.005905	0.186710
O150	O	1.423452	0.505905	0.686710
H151	H	0.957294	-0.023399	0.151778
H152	H	1.457294	0.476601	0.651778
O153	O	1.009083	-0.220909	0.000005
O154	O	1.509083	0.279091	0.500005
H155	H	1.040712	-0.265710	-0.000006
H156	H	1.540712	0.234290	0.499994
O157	O	0.696605	0.091571	0.000021
O158	O	1.196605	0.591571	0.500021
H159	H	0.708132	0.036247	0.000022
H160	H	1.208132	0.536247	0.500022
H161	H	0.944176	0.134360	0.000052
H162	H	1.444176	0.634360	0.500052
H163	H	0.738110	-0.179386	0.803195
H164	H	1.238110	0.320614	1.303195
H165	H	1.495889	0.020115	0.000014
H166	H	1.995889	0.520115	0.500014
O167	O	0.725486	-0.191963	0.346004
O168	O	1.225486	0.308037	0.846004
H169	H	0.733498	-0.183977	0.405737
H170	H	1.233498	0.316023	0.905737
O171	O	0.725519	-0.191967	0.654011
O172	O	1.225519	0.308033	1.154011
H173	H	0.692412	-0.225069	0.693534
H174	H	1.192412	0.274931	1.193534
H175	H	1.464981	-0.210779	-0.000009
H176	H	1.964981	0.289221	0.499991
O177	O	1.639882	0.034838	0.000026
O178	O	2.139882	0.534838	0.500026
H179	H	1.608251	0.079638	0.000023
H180	H	2.108251	0.579638	0.500023
O181	O	0.954590	0.570994	0.000004
O182	O	1.454590	1.070994	0.500004
H183	H	0.984896	0.589073	0.049627
H184	H	1.484896	1.089073	0.549627
H185	H	0.935683	0.710481	-0.000010
H186	H	1.435683	1.210481	0.499990
O187	O	1.604459	-0.229691	-0.000016
O188	O	2.104459	0.270309	0.499984
H189	H	1.662645	-0.219840	-0.000022
H190	H	2.162645	0.280160	0.499978
H191	H	0.704792	0.679578	-0.000023
H192	H	1.204792	1.179578	0.499977
H193	H	0.711340	0.235567	0.000014
H194	H	1.211340	0.735567	0.500014
H195	H	0.910911	-0.006685	0.803193
H196	H	1.410911	0.493315	1.303193
H197	H	0.942228	0.266470	0.000033
H198	H	1.442228	0.766470	0.500033
H199	H	0.738049	-0.179371	0.196833
H200	H	1.238049	0.320629	0.696833
H201	H	0.706738	0.547464	-0.000009
H202	H	1.206738	1.047464	0.499991
