data_functionalizedCrystal
_audit_creation_method	'MofGen! by Chris Wilmer'
_symmetry_space_group_name_H-M	'P1'
_symmetry_Int_Tables_number	1
_symmetry_cell_setting	triclinic
loop_
_symmetry_equiv_pos_as_xyz
  x,y,z
_cell_length_a	14.519709
_cell_length_b	10.654562
_cell_length_c	9.130313
_cell_angle_alpha	90.001421
_cell_angle_beta	89.995655
_cell_angle_gamma	84.085124
loop_
_atom_site_label
_atom_site_type_symbol
_atom_site_fract_x
_atom_site_fract_y
_atom_site_fract_z
O1	O	0.129587	1.666570	-0.121899
O2	O	0.141916	1.300975	-0.121881
O3	O	0.001564	1.493466	-0.121878
O4	O	0.269940	1.474079	-0.121903
O5	O	0.001561	1.493481	0.121721
O6	O	0.141913	1.300990	0.121718
O7	O	0.129584	1.666585	0.121700
Cu8	Cu	0.135748	1.483789	0.143951
Cu9	Cu	0.135752	1.483771	-0.144133
O10	O	0.269936	1.474094	0.121696
C11	C	0.141007	1.254194	-0.000079
C12	C	0.138291	1.114777	-0.000072
C13	C	0.137023	1.049267	0.132702
C14	C	0.134478	0.918269	0.132678
C15	C	0.134475	0.918303	-0.132907
C16	C	0.137013	1.049300	-0.132881
C17	C	0.138301	1.114745	0.265511
C18	C	0.137034	1.049234	0.398296
C19	C	0.134489	0.918236	0.398272
C20	C	0.133212	0.852749	0.265463
C21	C	-0.032802	1.492570	-0.000078
C22	C	-0.135198	1.489862	-0.000077
C23	C	-0.510145	1.479895	-0.000114
C24	C	-0.405823	1.482663	-0.000103
C25	C	-0.322675	1.484878	-0.000094
C26	C	-0.218346	1.487647	-0.000086
C27	C	0.304302	1.474990	-0.000107
C28	C	0.406698	1.477698	-0.000118
C29	C	0.130493	1.713367	-0.000105
C30	C	0.133209	1.852783	-0.000122
N31	N	0.135748	1.483760	-0.346755
C32	C	0.197769	1.398380	-0.423447
C33	C	0.197766	1.398402	-0.576783
C34	C	0.073717	1.569194	-0.576724
C35	C	0.073717	1.569165	-0.423390
C36	C	0.259800	1.312974	-0.346812
C37	C	0.321827	1.227588	-0.423503
C38	C	0.321824	1.227610	-0.576840
C39	C	0.259794	1.313018	-0.653485
N40	N	0.135745	1.483811	0.346574
H41	H	0.138050	1.102639	-0.240998
H42	H	0.023213	1.638688	-0.360948
C43	C	0.133080	0.846268	-0.278988
C44	C	0.051399	0.770272	-0.315517
C45	C	0.050008	0.698238	-0.461600
C46	C	0.130299	0.702200	-0.571156
C47	C	0.211986	0.778198	-0.534630
C48	C	0.213377	0.850233	-0.388547
H49	H	-0.008043	0.767337	-0.234415
H50	H	-0.010463	0.641979	-0.488638
H51	H	0.129270	0.648876	-0.679296
H52	H	0.271428	0.781134	-0.615732
H53	H	0.273848	0.906492	-0.361509
H54	H	0.140376	1.221409	0.265546
C55	C	0.390055	1.133640	-0.339201
C56	C	0.390065	1.133611	-0.170539
C57	C	0.458293	1.039659	-0.086241
C58	C	0.526512	0.945736	-0.170604
C59	C	0.526505	0.945762	-0.339275
C60	C	0.458276	1.039714	-0.423573
H61	H	0.339563	1.203141	-0.108080
H62	H	0.458298	1.039640	0.038621
H63	H	0.577019	0.876187	-0.108201
H64	H	0.577007	0.876232	-0.401734
H65	H	0.458271	1.039732	-0.548435
H66	H	0.133450	0.864902	0.506392
H67	H	0.259811	1.312951	-0.221957
H68	H	0.023215	1.638731	-0.639139
H69	H	0.138066	1.102563	0.506425
H70	H	0.131138	0.746082	0.265454
H71	H	0.372322	1.158078	-0.639280
H72	H	0.259790	1.313020	-0.778342
