data_functionalizedCrystal
_audit_creation_method	'MofGen! by Chris Wilmer'
_symmetry_space_group_name_H-M	'P1'
_symmetry_Int_Tables_number	1
_symmetry_cell_setting	triclinic
loop_
_symmetry_equiv_pos_as_xyz
  x,y,z
_cell_length_a	10.489741
_cell_length_b	10.654550
_cell_length_c	9.730223
_cell_angle_alpha	90.001694
_cell_angle_beta	90.002989
_cell_angle_gamma	84.512038
loop_
_atom_site_label
_atom_site_type_symbol
_atom_site_fract_x
_atom_site_fract_y
_atom_site_fract_z
O1	O	-1.693971	-0.177189	-0.114201
O2	O	-1.322767	-0.193821	-0.114222
O3	O	-1.516903	-0.002769	-0.114206
O4	O	-1.499834	-0.368240	-0.114217
O5	O	-1.516881	-0.002771	0.114374
O6	O	-1.322745	-0.193822	0.114358
O7	O	-1.693949	-0.177190	0.114379
Zn8	Zn	-1.508343	-0.185506	0.150660
Zn9	Zn	-1.508372	-0.185504	-0.150504
O10	O	-1.499812	-0.368241	0.114363
C11	C	-1.515639	0.044029	0.000082
C12	C	-1.511889	0.183474	0.000077
C13	C	-1.275225	-0.192565	0.000065
C14	C	-1.133597	-0.188807	0.000057
C15	C	-1.741491	-0.178445	0.000089
C16	C	-1.883118	-0.182204	0.000088
C17	C	-1.065516	-0.067246	0.000074
C18	C	-0.973372	-0.124670	-0.112627
C19	C	-0.973384	-0.124700	0.112735
C20	C	-1.043319	-0.246280	-0.112737
C21	C	-1.043341	-0.246294	0.112726
C22	C	-0.951224	-0.303805	-0.000002
C23	C	-1.501076	-0.415039	0.000071
C24	C	-1.504826	-0.554484	0.000067
N25	N	-1.508333	-0.185506	0.356197
C26	C	-1.626194	0.262906	0.000088
C27	C	-1.622663	0.393928	0.000078
C28	C	-1.390513	0.366074	0.000053
C29	C	-1.394045	0.235054	0.000053
C30	C	-1.744038	0.211326	0.000112
C31	C	-1.858352	0.290759	0.000124
C32	C	-1.854821	0.421782	0.000115
C33	C	-1.736976	0.473371	0.000093
N34	N	-1.508393	-0.185494	-0.356040
C35	C	-1.586410	-0.262412	0.572001
C36	C	-1.586377	-0.262422	0.428118
C37	C	-1.430306	-0.108586	0.428166
C38	C	-1.430333	-0.108583	0.572046
C39	C	-1.664470	-0.339323	0.643915
C40	C	-1.742495	-0.416246	0.571955
C41	C	-1.742462	-0.416255	0.428072
C42	C	-1.664404	-0.339343	0.356149
H43	H	-1.115254	0.032684	-0.000064
C44	C	-1.733099	0.617501	0.000074
N45	N	-1.730180	0.726059	0.000067
H46	H	-1.806038	-0.478874	0.630525
H47	H	-1.954297	0.248746	0.000108
C48	C	-1.344516	-0.023963	0.651206
N49	N	-1.279875	0.039773	0.710829
C50	C	-1.980567	0.509155	0.000129
N51	N	-2.075283	0.574962	0.000149
C52	C	-1.084942	-0.315701	-0.241609
N53	N	-1.116296	-0.367982	-0.338677
H54	H	-1.664371	-0.339369	0.238989
C55	C	-1.260892	0.422828	0.000050
N56	N	-1.163260	0.465575	0.000058
C57	C	-1.664507	-0.339325	0.802188
N58	N	-1.664532	-0.339328	0.921401
H59	H	-0.942422	-0.073244	0.208015
C60	C	-1.344570	-0.023868	0.349044
N61	N	-1.280037	0.039986	0.289450
C62	C	-1.828287	-0.500873	0.348921
N63	N	-1.892940	-0.564605	0.289307
H64	H	-1.074353	-0.297687	0.208010
C65	C	-1.747933	0.067200	0.000123
N66	N	-1.750865	-0.041356	0.000133
H67	H	-0.942392	-0.073234	-0.207906
H68	H	-1.300968	0.170377	0.000046
H69	H	-0.901752	-0.403841	-0.000066
