data_functionalizedCrystal
_audit_creation_method	'MofGen! by Chris Wilmer'
_symmetry_space_group_name_H-M	'P1'
_symmetry_Int_Tables_number	1
_symmetry_cell_setting	triclinic
loop_
_symmetry_equiv_pos_as_xyz
  x,y,z
_cell_length_a	18.101395
_cell_length_b	21.395362
_cell_length_c	21.395355
_cell_angle_alpha	90.048039
_cell_angle_beta	89.984273
_cell_angle_gamma	89.950633
loop_
_atom_site_label
_atom_site_type_symbol
_atom_site_fract_x
_atom_site_fract_y
_atom_site_fract_z
Zn1	Zn	-0.294554	-0.957858	-0.354666
Zn2	Zn	0.205446	-0.457858	0.145334
Zn3	Zn	-0.418378	-0.957760	-0.249894
Zn4	Zn	0.081622	-0.457760	0.250106
Zn5	Zn	-0.294594	-0.853073	-0.249860
Zn6	Zn	0.205406	-0.353073	0.250140
Zn7	Zn	-0.418398	-0.853041	-0.354591
Zn8	Zn	0.081602	-0.353041	0.145409
O9	O	-0.356481	-0.905433	-0.302253
O10	O	0.143519	-0.405433	0.197747
O11	O	-0.310955	-1.045523	-0.340814
O12	O	0.189045	-0.545523	0.159186
O13	O	-0.401966	-0.943845	-0.162211
O14	O	0.098034	-0.443845	0.337789
O15	O	-0.190956	-0.867027	-0.263780
O16	O	0.309044	-0.367027	0.236220
O17	O	-0.401927	-1.045451	-0.263838
O18	O	0.098073	-0.545451	0.236162
O19	O	-0.190927	-0.944012	-0.340781
O20	O	0.309073	-0.444012	0.159219
O21	O	-0.311022	-0.866932	-0.162187
O22	O	0.188978	-0.366932	0.337813
O23	O	-0.311042	-0.765391	-0.263707
O24	O	0.188958	-0.265391	0.236293
O25	O	-0.401962	-0.866973	-0.442279
O26	O	0.098038	-0.366973	0.057721
O27	O	-0.402000	-0.765368	-0.340653
O28	O	0.098000	-0.265368	0.159347
O29	O	-0.310974	-0.943982	-0.442334
O30	O	0.189026	-0.443982	0.057666
O31	O	-0.522013	-0.943814	-0.263765
O32	O	-0.022013	-0.443814	0.236235
O33	O	-0.522028	-0.866878	-0.340685
O34	O	-0.022028	-0.366878	0.159315
C35	C	-0.356528	-0.742645	-0.302168
C36	C	0.143472	-0.242645	0.197832
C37	C	-0.356566	-0.673004	-0.302147
C38	C	0.143434	-0.173004	0.197853
C39	C	-0.548892	-0.905349	-0.302234
C40	C	-0.048892	-0.405349	0.197766
C41	C	-0.631206	-0.905371	-0.302247
C42	C	-0.131206	-0.405371	0.197753
C43	C	-0.403993	-0.640295	-0.342150
C44	C	0.096007	-0.140295	0.157850
C45	C	-0.403978	-0.574860	-0.342174
C46	C	0.096022	-0.074860	0.157826
C47	C	-0.356544	-0.542136	-0.302183
C48	C	0.143456	-0.042136	0.197817
C49	C	-0.309109	-0.574852	-0.262177
C50	C	0.190891	-0.074852	0.237823
C51	C	-0.309120	-0.640286	-0.262159
C52	C	0.190880	-0.140286	0.237841
C53	C	-0.350583	-0.438411	-0.245770
C54	C	0.149417	0.061589	0.254230
C55	C	-0.350577	-0.372978	-0.245786
C56	C	0.149423	0.127022	0.254214
C57	C	-0.356506	-0.340315	-0.302237
C58	C	0.143494	0.159685	0.197763
C59	C	-0.362456	-0.373093	-0.358673
C60	C	0.137544	0.126907	0.141327
C61	C	-0.362467	-0.438527	-0.358656
C62	C	0.137533	0.061473	0.141344
C63	C	-0.356527	-0.471183	-0.302197
C64	C	0.143473	0.028817	0.197803
C65	C	-0.403918	-0.236654	-0.342269
C66	C	0.096082	0.263346	0.157731
C67	C	-0.403898	-0.171217	-0.342293
C68	C	0.096102	0.328783	0.157707
C69	C	-0.309033	-0.171211	-0.262291
C70	C	0.190967	0.328789	0.237709
C71	C	-0.309049	-0.236646	-0.262272
C72	C	0.190951	0.263354	0.237728
C73	C	-0.356496	-0.269364	-0.302260
C74	C	0.143504	0.230636	0.197740
C75	C	-0.930297	-0.905508	-0.302281
C76	C	-0.430297	-0.405508	0.197719
C77	C	-0.899012	-0.857214	-0.350798
C78	C	-0.399012	-0.357214	0.149202
C79	C	-0.813394	-0.856985	-0.350646
C80	C	-0.313394	-0.356985	0.149354
C81	C	-0.781914	-0.905440	-0.302265
C82	C	-0.281914	-0.405440	0.197735
C83	C	-0.813056	-0.887557	-0.236224
C84	C	-0.313056	-0.387557	0.263776
C85	C	-0.898702	-0.887246	-0.236515
C86	C	-0.398702	-0.387246	0.263485
C87	C	-0.898619	-0.971790	-0.319224
C88	C	-0.398619	-0.471790	0.180776
C89	C	-0.812969	-0.971401	-0.320672
C90	C	-0.312969	-0.471401	0.179328
C91	C	-0.698055	-0.905402	-0.302252
C92	C	-0.198055	-0.405402	0.197748
C93	C	-1.014156	-0.905544	-0.302290
C94	C	-0.514156	-0.405544	0.197710
C95	C	-0.163319	-0.905534	-0.302285
C96	C	0.336681	-0.405534	0.197715
C97	C	-0.081005	-0.905577	-0.302299
C98	C	0.418995	-0.405577	0.197701
C99	C	-0.356466	-0.905485	-0.465676
C100	C	0.143534	-0.405485	0.034324
C101	C	-0.356460	-0.905507	-0.535317
C102	C	0.143540	-0.405507	-0.035317
C103	C	-0.356447	-0.068856	-0.302320
C104	C	0.143553	0.431144	0.197680
C105	C	-0.356463	-0.138497	-0.302303
C106	C	0.143537	0.361503	0.197697
C107	C	-0.309081	-0.945604	-0.568060
C108	C	0.190919	-0.445604	-0.068060
C109	C	-0.309049	-0.945603	-0.633496
C110	C	0.190951	-0.445603	-0.133496
C111	C	-0.356409	-0.905512	-0.666186
C112	C	0.143591	-0.405512	-0.166186
C113	C	-0.403792	-0.865408	-0.633435
C114	C	0.096208	-0.365408	-0.133435
C115	C	-0.403817	-0.865405	-0.568001
C116	C	0.096183	-0.365405	-0.068001
C117	C	-0.423092	-0.900536	-0.769852
C118	C	0.076908	-0.400536	-0.269852
C119	C	-0.423068	-0.900542	-0.835285
C120	C	0.076932	-0.400542	-0.335285
C121	C	-0.356331	-0.905516	-0.868007
C122	C	0.143669	-0.405516	-0.368007
C123	C	-0.289615	-0.910496	-0.835287
C124	C	0.210385	-0.410496	-0.335287
C125	C	-0.289641	-0.910493	-0.769853
C126	C	0.210359	-0.410493	-0.269853
C127	C	-0.356387	-0.905510	-0.737138
C128	C	0.143613	-0.405510	-0.237138
C129	C	-0.308913	-0.945614	-0.971702
C130	C	0.191087	-0.445614	-0.471702
C131	C	-0.308880	-0.945608	-1.037139
C132	C	0.191120	-0.445608	-0.537139
C133	C	-0.403630	-0.865417	-1.037077
C134	C	0.096370	-0.365417	-0.537077
C135	C	-0.403656	-0.865418	-0.971641
C136	C	0.096344	-0.365418	-0.471641
C137	C	-0.356299	-0.905520	-0.938958
C138	C	0.143701	-0.405520	-0.438958
C139	C	-0.356443	-0.905417	-0.139465
C140	C	0.143557	-0.405417	0.360535
C141	C	-0.356240	-0.905516	-0.069824
C142	C	0.143760	-0.405516	0.430176
H143	H	-0.442626	-0.666930	-0.374713
H144	H	0.057374	-0.166930	0.125287
C145	C	-0.216254	-0.915962	-0.733864
C146	C	0.283746	-0.415962	-0.233864
N147	N	-0.160978	-0.920077	-0.706757
N148	N	0.339022	-0.420077	-0.206757
C149	C	-0.369010	-0.474580	-0.420734
C150	C	0.130990	0.025420	0.079266
N151	N	-0.373938	-0.501735	-0.467493
N152	N	0.126062	-0.001735	0.032507
C153	C	-0.256883	-0.272627	-0.218259
C154	C	0.243117	0.227373	0.281741
N155	N	-0.217588	-0.299728	-0.185107
N156	N	0.282412	0.200272	0.314893
H157	H	-0.920172	-0.988093	-0.366562
H158	H	-0.420172	-0.488093	0.133438
H159	H	-0.442549	-0.263294	-0.374833
H160	H	0.057451	0.236706	0.125167
H161	H	-0.270408	-0.144568	-0.229732
H162	H	0.229592	0.355432	0.270268
H163	H	-0.345737	-0.346295	-0.199832
H164	H	0.154263	0.153705	0.300168
C165	C	-0.455728	-0.821316	-1.073032
C166	C	0.044272	-0.321316	-0.573032
N167	N	-0.494969	-0.788099	-1.100117
N168	N	0.005031	-0.288099	-0.600117
C169	C	-0.455781	-0.821311	-0.935623
C170	C	0.044219	-0.321311	-0.435623
N171	N	-0.495042	-0.788086	-0.908494
N172	N	0.004958	-0.288086	-0.408494
H173	H	-0.918847	-1.007771	-0.283888
H174	H	-0.418847	-0.507771	0.216112
C175	C	-0.344064	-0.474334	-0.183665
C176	C	0.155936	0.025666	0.316335
N177	N	-0.339156	-0.501390	-0.136889
N178	N	0.160844	-0.001390	0.363111
H179	H	-0.270497	-0.666918	-0.229583
H180	H	0.229503	-0.166918	0.270417
H181	H	-0.367282	-0.346500	-0.404642
H182	H	0.132718	0.153500	0.095358
C183	C	-0.456080	-0.135237	-0.386297
C184	C	0.043920	0.364763	0.113703
N185	N	-0.495388	-0.108137	-0.419439
N186	N	0.004612	0.391863	0.080561
H187	H	-0.477392	-0.896491	-0.861920
H188	H	0.022608	-0.396491	-0.361920
C189	C	-0.785503	-0.933577	-0.186053
C190	C	-0.285503	-0.433577	0.313947
N191	N	-0.764747	-0.968239	-0.148265
N192	N	-0.264747	-0.468239	0.351735
C193	C	-0.256932	-0.538855	-0.218186
C194	C	0.243068	-0.038855	0.281814
N195	N	-0.217629	-0.511741	-0.185053
N196	N	0.282371	-0.011741	0.314947
H197	H	-0.442598	-0.548223	-0.374751
H198	H	0.057402	-0.048223	0.125249
H199	H	-0.792337	-0.868173	-0.399613
H200	H	-0.292337	-0.368173	0.100387
H201	H	-0.270294	-0.978259	-1.063797
H202	H	0.229706	-0.478259	-0.563797
C203	C	-0.496515	-0.895076	-0.733865
C204	C	0.003485	-0.395076	-0.233865
N205	N	-0.551816	-0.890969	-0.706760
N206	N	-0.051816	-0.390969	-0.206760
C207	C	-0.785821	-0.790602	-0.335527
C208	C	-0.285821	-0.290602	0.164473
N209	N	-0.765054	-0.740595	-0.324155
N210	N	-0.265054	-0.240595	0.175845
C211	C	-0.926787	-0.872175	-0.417166
C212	C	-0.426787	-0.372175	0.082834
N213	N	-0.947714	-0.883443	-0.467156
N214	N	-0.447714	-0.383443	0.032844
H215	H	-0.920614	-0.808383	-0.339714
H216	H	-0.420614	-0.308383	0.160286
H217	H	-0.442351	-0.832764	-0.660056
H218	H	0.057649	-0.332764	-0.160056
C219	C	-0.925801	-0.821788	-0.217134
C220	C	-0.425801	-0.321788	0.282866
N221	N	-0.946208	-0.772483	-0.202538
N222	N	-0.446208	-0.272483	0.297462
H223	H	-0.919398	-0.920895	-0.199132
H224	H	-0.419398	-0.420895	0.300868
C225	C	-0.784195	-0.822790	-0.216494
C226	C	-0.284195	-0.322790	0.283506
N227	N	-0.762458	-0.774006	-0.201638
N228	N	-0.262458	-0.274006	0.298362
C229	C	-0.455942	-0.821295	-0.531983
C230	C	0.044058	-0.321295	-0.031983
N231	N	-0.495204	-0.788072	-0.504853
N232	N	0.004796	-0.288072	-0.004853
H233	H	-0.792612	-0.984886	-0.369274
H234	H	-0.292612	-0.484886	0.130726
C235	C	-0.784015	-1.022583	-0.276414
C236	C	-0.284015	-0.522583	0.223586
N237	N	-0.762208	-1.061133	-0.243073
N238	N	-0.262208	-0.561133	0.256927
C239	C	-0.256976	-0.989709	-0.532112
C240	C	0.243024	-0.489709	-0.032112
N241	N	-0.217727	-1.022926	-0.505035
N242	N	0.282273	-0.522926	-0.005035
C243	C	-0.256930	-0.989718	-0.669520
C244	C	0.243070	-0.489718	-0.169520
N245	N	-0.217677	-1.022947	-0.696652
N246	N	0.282323	-0.522947	-0.196652
H247	H	-0.270348	-0.978263	-0.945090
H248	H	0.229652	-0.478263	-0.445090
H249	H	-0.235271	-0.914546	-0.861928
H250	H	0.264729	-0.414546	-0.361928
