data_functionalizedCrystal
_audit_creation_method	'MofGen! by Chris Wilmer'
_symmetry_space_group_name_H-M	'P1'
_symmetry_Int_Tables_number	1
_symmetry_cell_setting	triclinic
loop_
_symmetry_equiv_pos_as_xyz
  x,y,z
_cell_length_a	23.532407
_cell_length_b	23.532407
_cell_length_c	10.065918
_cell_angle_alpha	99.889985
_cell_angle_beta	99.888156
_cell_angle_gamma	82.848712
loop_
_atom_site_label
_atom_site_type_symbol
_atom_site_fract_x
_atom_site_fract_y
_atom_site_fract_z
O1	O	0.762668	0.076538	0.113423
O2	O	1.096001	0.409872	0.446756
O3	O	1.429334	0.743205	0.780090
O4	O	0.596806	0.086543	0.113447
O5	O	0.930139	0.419876	0.446780
O6	O	1.263473	0.753210	0.780113
O7	O	0.684737	-0.001393	0.113409
O8	O	1.018070	0.331941	0.446742
O9	O	1.351404	0.665274	0.780076
O10	O	0.674737	0.164474	0.113460
O11	O	1.008070	0.497807	0.446794
O12	O	1.341404	0.831141	0.780127
O13	O	0.669903	-0.016211	-0.113582
O14	O	1.003236	0.317122	0.219751
O15	O	1.336570	0.650456	0.553085
O16	O	0.581972	0.071725	-0.113544
O17	O	0.915306	0.405058	0.219789
O18	O	1.248639	0.738391	0.553122
O19	O	0.747834	0.061720	-0.113568
O20	O	1.081167	0.395053	0.219765
O21	O	1.414501	0.728387	0.553099
Zn22	Zn	0.662548	0.064370	-0.149596
Zn23	Zn	0.995881	0.397703	0.183737
Zn24	Zn	1.329215	0.731036	0.517071
Zn25	Zn	0.682092	0.083893	0.149474
Zn26	Zn	1.015425	0.417227	0.482808
Zn27	Zn	1.348759	0.750560	0.816141
O28	O	0.659903	0.149656	-0.113530
O29	O	0.993237	0.482989	0.219803
O30	O	1.326570	0.816322	0.553136
C31	C	0.568173	0.078879	-0.000046
C32	C	0.901507	0.412213	0.333287
C33	C	1.234840	0.745546	0.666620
C34	C	0.504957	0.078114	-0.000038
C35	C	0.838290	0.411447	0.333295
C36	C	1.171623	0.744781	0.666628
C37	C	0.238786	0.022915	-0.000093
C38	C	0.572119	0.356248	0.333241
C39	C	0.905452	0.689582	0.666574
C40	C	0.298186	0.023626	-0.000092
C41	C	0.631519	0.356960	0.333241
C42	C	0.964853	0.690293	0.666575
O43	O	0.334927	-0.020163	-0.000153
O44	O	0.668260	0.313170	0.333180
O45	O	1.001593	0.646503	0.666514
N46	N	0.320814	0.075904	-0.000067
N47	N	0.654147	0.409238	0.333267
N48	N	0.987481	0.742571	0.666600
C49	C	0.284037	0.127473	-0.000056
C50	C	0.617370	0.460807	0.333278
C51	C	0.950704	0.794140	0.666611
O52	O	0.308738	0.172005	-0.000035
O53	O	0.642071	0.505338	0.333298
O54	O	0.975405	0.838672	0.666632
C55	C	0.224637	0.126761	-0.000066
C56	C	0.557971	0.460094	0.333267
C57	C	0.891304	0.793427	0.666601
C58	C	0.202014	0.074480	-0.000078
C59	C	0.535347	0.407814	0.333256
C60	C	0.868681	0.741147	0.666589
C61	C	0.216162	-0.029361	-0.000106
C62	C	0.549495	0.303972	0.333228
C63	C	0.882828	0.637305	0.666561
C64	C	0.156766	-0.030072	-0.000104
C65	C	0.490099	0.303261	0.333230
C66	C	0.823432	0.636594	0.666563
C67	C	0.119994	0.021493	-0.000089
C68	C	0.453327	0.354826	0.333245
C69	C	0.786660	0.688159	0.666578
C70	C	0.142618	0.073769	-0.000076
C71	C	0.475951	0.407102	0.333258
C72	C	0.809285	0.740436	0.666591
C73	C	0.187861	0.178328	-0.000065
C74	C	0.521194	0.511662	0.333269
C75	C	0.854528	0.844995	0.666602
C76	C	0.128458	0.177611	-0.000076
C77	C	0.461791	0.510944	0.333257
C78	C	0.795124	0.844278	0.666591
C79	C	0.105834	0.125331	-0.000088
C80	C	0.439168	0.458664	0.333246
C81	C	0.772501	0.791997	0.666579
C82	C	0.046450	0.124623	-0.000058
C83	C	0.379783	0.457957	0.333275
C84	C	0.713117	0.791290	0.666608
N85	N	0.023822	0.072345	-0.000084
N86	N	0.357155	0.405679	0.333249
N87	N	0.690489	0.739012	0.666583
C88	C	0.060594	0.020780	-0.000099
C89	C	0.393927	0.354113	0.333234
C90	C	0.727261	0.687447	0.666568
C91	C	0.408781	0.128966	-0.000036
C92	C	0.742114	0.462299	0.333297
C93	C	1.075448	0.795633	0.666630
C94	C	0.468180	0.129680	-0.000016
C95	C	0.801513	0.463013	0.333317
C96	C	1.134847	0.796347	0.666651
C97	C	0.482325	0.025833	-0.000055
C98	C	0.815658	0.359166	0.333278
C99	C	1.148991	0.692499	0.666612
C100	C	0.422925	0.025120	-0.000066
C101	C	0.756258	0.358453	0.333268
C102	C	1.089592	0.691787	0.666601
C103	C	0.386153	0.076688	-0.000062
C104	C	0.719486	0.410021	0.333272
C105	C	1.052820	0.743355	0.666605
C106	C	-0.064142	0.019291	-0.000094
C107	C	0.269191	0.352624	0.333240
C108	C	0.602524	0.685957	0.666573
C109	C	-0.123544	0.018585	-0.000086
C110	C	0.209789	0.351918	0.333247
C111	C	0.543123	0.685251	0.666581
C112	C	-0.137684	0.122431	-0.000054
C113	C	0.195649	0.455765	0.333279
C114	C	0.528983	0.789098	0.666612
C115	C	-0.078287	0.123138	-0.000055
C116	C	0.255046	0.456471	0.333279
C117	C	0.588379	0.789805	0.666612
C118	C	-0.041518	0.071563	-0.000079
C119	C	0.291816	0.404896	0.333254
C120	C	0.625149	0.738230	0.666588
O121	O	0.009674	0.168390	-0.000003
O122	O	0.343008	0.501723	0.333330
O123	O	0.676341	0.835056	0.666663
O124	O	0.035883	-0.023745	-0.000137
O125	O	0.369217	0.309588	0.333196
O126	O	0.702550	0.642921	0.666529
C127	C	0.677065	-0.030018	-0.000090
C128	C	1.010398	0.303315	0.333243
C129	C	1.343732	0.636649	0.666577
C130	C	0.676298	-0.093236	-0.000100
C131	C	1.009632	0.240097	0.333233
C132	C	1.342965	0.573431	0.666566
C133	C	0.723536	-0.492334	-0.000032
C134	C	1.056870	-0.159001	0.333301
C135	C	1.390203	0.174332	0.666635
C136	C	0.722826	-0.551734	-0.000022
C137	C	1.056159	-0.218401	0.333312
C138	C	1.389492	0.114933	0.666645
O139	O	0.766614	-0.588476	0.000022
O140	O	1.099948	-0.255142	0.333356
O141	O	1.433281	0.078191	0.666689
N142	N	0.670550	-0.574360	-0.000015
N143	N	1.003883	-0.241026	0.333318
N144	N	1.337216	0.092307	0.666651
C145	C	0.618982	-0.537582	-0.000005
C146	C	0.952315	-0.204248	0.333328
C147	C	1.285649	0.129085	0.666661
O148	O	0.574452	-0.562281	0.000002
O149	O	0.907786	-0.228947	0.333336
O150	O	1.241119	0.104386	0.666669
C151	C	0.619694	-0.478183	-0.000006
C152	C	0.953027	-0.144849	0.333327
C153	C	1.286361	0.188484	0.666661
C154	C	0.671972	-0.455561	-0.000026
C155	C	1.005306	-0.122228	0.333307
C156	C	1.338639	0.211105	0.666640
C157	C	0.775811	-0.469712	-0.000051
C158	C	1.109144	-0.136379	0.333282
C159	C	1.442477	0.196954	0.666616
C160	C	0.776521	-0.410317	-0.000064
C161	C	1.109854	-0.076984	0.333269
C162	C	1.443188	0.256350	0.666603
C163	C	0.724957	-0.373544	-0.000058
C164	C	1.058290	-0.040210	0.333275
C165	C	1.391624	0.293123	0.666609
C166	C	0.672683	-0.396166	-0.000039
C167	C	1.006016	-0.062833	0.333294
C168	C	1.339350	0.270501	0.666627
C169	C	0.568128	-0.441405	0.000014
C170	C	0.901461	-0.108071	0.333347
C171	C	1.234794	0.225262	0.666680
C172	C	0.568844	-0.382002	0.000014
C173	C	0.902178	-0.048669	0.333347
C174	C	1.235511	0.284664	0.666681
C175	C	0.621123	-0.359381	-0.000006
C176	C	0.954456	-0.026048	0.333327
C177	C	1.287789	0.307286	0.666660
C178	C	0.621829	-0.299997	-0.000047
C179	C	0.955163	0.033336	0.333287
C180	C	1.288496	0.366669	0.666620
N181	N	0.674105	-0.277372	-0.000053
N182	N	1.007439	0.055962	0.333280
N183	N	1.340772	0.389295	0.666614
C184	C	0.725669	-0.314145	-0.000059
C185	C	1.059002	0.019189	0.333275
C186	C	1.392336	0.352522	0.666608
C187	C	0.617491	-0.662324	-0.000002
C188	C	0.950824	-0.328991	0.333332
C189	C	1.284158	0.004343	0.666665
C190	C	0.616778	-0.721722	-0.000011
C191	C	0.950111	-0.388389	0.333323
C192	C	1.283444	-0.055056	0.666656
C193	C	0.720622	-0.735871	-0.000024
C194	C	1.053955	-0.402537	0.333309
C195	C	1.387288	-0.069204	0.666642
C196	C	0.721334	-0.676472	-0.000025
C197	C	1.054667	-0.343138	0.333308
C198	C	1.388000	-0.009805	0.666642
C199	C	0.669767	-0.639698	-0.000008
C200	C	1.003100	-0.306365	0.333325
C201	C	1.336434	0.026969	0.666659
C202	C	0.727157	-0.189410	-0.000087
C203	C	1.060490	0.143923	0.333246
C204	C	1.393824	0.477257	0.666579
C205	C	0.727862	-0.130009	-0.000106
C206	C	1.061196	0.203324	0.333227
C207	C	1.394529	0.536658	0.666561
C208	C	0.624019	-0.115866	-0.000085
C209	C	0.957353	0.217468	0.333248
C210	C	1.290686	0.550801	0.666582
C211	C	0.623313	-0.175262	-0.000074
C212	C	0.956646	0.158072	0.333260
C213	C	1.289980	0.491405	0.666593
C214	C	0.674887	-0.212033	-0.000070
C215	C	1.008220	0.121301	0.333263
C216	C	1.341553	0.454634	0.666597
O217	O	0.578064	-0.263221	-0.000085
O218	O	0.911397	0.070113	0.333248
O219	O	1.244731	0.403446	0.666581
O220	O	0.770193	-0.289436	-0.000049
O221	O	1.103526	0.043897	0.333285
O222	O	1.436860	0.377230	0.666618
C223	C	0.776467	0.069384	-0.000072
C224	C	1.109800	0.402717	0.333261
C225	C	1.443134	0.736051	0.666595
C226	C	0.839684	0.070150	-0.000071
C227	C	1.173017	0.403483	0.333262
C228	C	1.506351	0.736817	0.666596
C229	C	0.667575	0.178281	-0.000029
C230	C	1.000909	0.511615	0.333305
C231	C	1.334242	0.844948	0.666638
C232	C	0.668342	0.241500	-0.000009
C233	C	1.001676	0.574833	0.333324
C234	C	1.335009	0.908166	0.666657
N235	N	0.649214	0.051045	-0.353704
N236	N	0.982547	0.384378	-0.020370
N237	N	1.315880	0.717712	0.312963
C238	C	0.667196	0.069001	-0.578643
C239	C	1.000529	0.402334	-0.245310
C240	C	1.333862	0.735668	0.088023
C241	C	0.677453	0.079262	-0.421475
C242	C	1.010786	0.412595	-0.088141
C243	C	1.344120	0.745928	0.245192
N244	N	0.695431	0.097213	0.353582
N245	N	1.028764	0.430547	0.686915
N246	N	1.362098	0.763880	1.020249
H247	H	0.138351	-0.072645	-0.000119
H248	H	0.471684	0.260688	0.333214
H249	H	0.805018	0.594022	0.666548
N250	N	0.719535	0.121320	-0.344218
N251	N	1.052868	0.454653	-0.010885
N252	N	1.386201	0.787986	0.322448
H253	H	0.706481	0.161210	-0.369002
H254	H	1.039815	0.494543	-0.035668
H255	H	1.373148	0.827876	0.297665
H256	H	0.759406	0.108191	-0.369034
H257	H	1.092740	0.441524	-0.035700
H258	H	1.426073	0.774858	0.297633
H259	H	0.378844	0.170962	-0.000023
H260	H	0.712177	0.504296	0.333310
H261	H	1.045511	0.837629	0.666644
H262	H	0.574206	-0.740136	-0.000018
H263	H	0.907539	-0.406803	0.333316
H264	H	1.240873	-0.073470	0.666649
N265	N	0.088805	0.233238	-0.000069
N266	N	0.422139	0.566571	0.333264
N267	N	0.755472	0.899905	0.666598
H268	H	0.069340	0.240758	0.084075
H269	H	0.402674	0.574091	0.417408
H270	H	0.736007	0.907425	0.750742
H271	H	0.058383	0.229730	-0.084272
H272	H	0.391716	0.563064	0.249061
H273	H	0.725049	0.896397	0.582395
N274	N	0.513218	-0.342349	0.000008
N275	N	0.846551	-0.009016	0.333341
N276	N	1.179885	0.324318	0.666675
H277	H	0.505698	-0.322892	-0.084147
H278	H	0.839031	0.010441	0.249187
H279	H	1.172365	0.343774	0.582520
H280	H	0.516725	-0.311920	0.084200
H281	H	0.850059	0.021414	0.417534
H282	H	1.183392	0.354747	0.750867
H283	H	0.763903	-0.658058	-0.000040
H284	H	1.097237	-0.324724	0.333293
H285	H	1.430570	0.008609	0.666626
H286	H	0.575496	-0.632386	0.000001
H287	H	0.908829	-0.299053	0.333334
H288	H	1.242162	0.034281	0.666667
N289	N	0.212245	0.234721	-0.000045
N290	N	0.545579	0.568055	0.333288
N291	N	0.878912	0.901388	0.666621
H292	H	0.193313	0.251799	-0.084188
H293	H	0.526647	0.585132	0.249145
H294	H	0.859980	0.918465	0.582479
H295	H	0.255455	0.227319	0.000011
H296	H	0.588788	0.560652	0.333344
H297	H	0.922122	0.893986	0.666677
N298	N	0.255817	-0.084983	-0.000103
N299	N	0.589150	0.248350	0.333230
N300	N	0.922484	0.581684	0.666564
H301	H	0.296883	-0.076609	-0.000090
H302	H	0.630216	0.256724	0.333243
H303	H	0.963550	0.590057	0.666577
H304	H	0.243026	-0.113276	-0.084255
H305	H	0.576360	0.220057	0.249078
H306	H	0.909693	0.553391	0.582411
N307	N	0.776239	-0.775540	-0.000012
N308	N	1.109572	-0.442207	0.333322
N309	N	1.442906	-0.108873	0.666655
H310	H	0.809468	-0.752199	-0.000019
H311	H	1.142801	-0.418866	0.333314
H312	H	1.476134	-0.085533	0.666647
H313	H	0.772705	-0.805993	-0.084156
H314	H	1.106038	-0.472660	0.249177
H315	H	1.439372	-0.139326	0.582510
N316	N	0.607135	0.008981	-0.430945
N317	N	0.940468	0.342314	-0.097612
N318	N	1.273802	0.675648	0.235722
H319	H	0.605772	0.007611	-0.532272
H320	H	0.939105	0.340945	-0.198939
H321	H	1.272438	0.674278	0.134395
H322	H	0.567272	0.022084	-0.406052
H323	H	0.900605	0.355418	-0.072719
H324	H	1.233938	0.688751	0.260614
N325	N	-0.053880	0.179524	-0.000036
N326	N	0.279453	0.512857	0.333297
N327	N	0.612786	0.846191	0.666630
H328	H	-0.024052	0.187628	0.084105
H329	H	0.309282	0.520962	0.417439
H330	H	0.642615	0.854295	0.750772
H331	H	-0.086225	0.212046	-0.000073
H332	H	0.247108	0.545379	0.333260
H333	H	0.580442	0.878713	0.666594
N334	N	0.737516	0.139267	-0.569168
N335	N	1.070849	0.472600	-0.235835
N336	N	1.404183	0.805933	0.097498
H337	H	0.738879	0.140634	-0.467842
H338	H	1.072213	0.473967	-0.134508
H339	H	1.405546	0.807301	0.198825
H340	H	0.724437	0.179133	-0.594060
H341	H	1.057771	0.512467	-0.260726
H342	H	1.391104	0.845800	0.072607
N343	N	0.782781	-0.229065	-0.000084
N344	N	1.116115	0.104269	0.333250
N345	N	1.449448	0.437602	0.666583
H346	H	0.816000	-0.205713	-0.000101
H347	H	1.149333	0.127620	0.333233
H348	H	1.482667	0.460954	0.666566
H349	H	0.779250	-0.259517	-0.084230
H350	H	1.112584	0.073816	0.249104
H351	H	1.445917	0.407149	0.582437
H352	H	0.525558	-0.459812	0.000038
H353	H	0.858891	-0.126478	0.333372
H354	H	1.192224	0.206855	0.666705
H355	H	-0.141960	-0.023990	-0.000092
H356	H	0.191373	0.309343	0.333241
H357	H	0.524707	0.642677	0.666575
N358	N	-0.177350	0.178046	-0.000047
N359	N	0.155983	0.511379	0.333287
N360	N	0.489316	0.844713	0.666620
H361	H	-0.164615	0.206367	0.084104
H362	H	0.168719	0.539700	0.417437
H363	H	0.502052	0.873033	0.750770
H364	H	-0.218398	0.169607	-0.000106
H365	H	0.114936	0.502940	0.333227
H366	H	0.448269	0.836274	0.666561
H367	H	0.580741	-0.193683	-0.000095
H368	H	0.914075	0.139650	0.333238
H369	H	1.247408	0.472984	0.666572
H370	H	0.817803	-0.499648	-0.000051
H371	H	1.151136	-0.166314	0.333283
H372	H	1.484470	0.167019	0.666616
H373	H	-0.034211	-0.022707	-0.000113
H374	H	0.299122	0.310627	0.333220
H375	H	0.632456	0.643960	0.666554
N376	N	0.784250	-0.105611	-0.000136
N377	N	1.117583	0.227722	0.333198
N378	N	1.450916	0.561055	0.666531
H379	H	0.816806	-0.137923	-0.000134
H380	H	1.150139	0.195410	0.333200
H381	H	1.483473	0.528743	0.666533
H382	H	0.792308	-0.075774	0.084006
H383	H	1.125641	0.257560	0.417339
H384	H	1.458975	0.590893	0.750672
N385	N	0.568410	-0.076191	-0.000105
N386	N	0.901743	0.257142	0.333229
N387	N	1.235076	0.590476	0.666562
H388	H	0.571893	-0.045729	0.084034
H389	H	0.905226	0.287604	0.417367
H390	H	1.238560	0.620937	0.750700
H391	H	0.535205	-0.099568	-0.000150
H392	H	0.868539	0.233765	0.333183
H393	H	1.201872	0.567098	0.666516
N394	N	0.398526	-0.031267	-0.000080
N395	N	0.731859	0.302066	0.333254
N396	N	1.065193	0.635399	0.666587
H397	H	0.430839	-0.063822	-0.000084
H398	H	0.764173	0.269511	0.333249
H399	H	1.097506	0.602844	0.666582
H400	H	0.368696	-0.039321	-0.084235
H401	H	0.702029	0.294012	0.249098
H402	H	1.035362	0.627345	0.582432
H403	H	0.512276	-0.016155	-0.000068
H404	H	0.845609	0.317179	0.333266
H405	H	1.178942	0.650512	0.666599
N406	N	0.832911	-0.385928	-0.000075
N407	N	1.166245	-0.052595	0.333259
N408	N	1.499578	0.280738	0.666592
H409	H	0.860980	-0.393866	0.084073
H410	H	1.194313	-0.060532	0.417406
H411	H	1.527646	0.272801	0.750739
H412	H	0.825499	-0.342726	-0.000128
H413	H	1.158832	-0.009393	0.333205
H414	H	1.492166	0.323941	0.666538
N415	N	0.492580	0.186070	0.000032
N416	N	0.825914	0.519403	0.333365
N417	N	1.159247	0.852737	0.666699
H418	H	0.460267	0.218626	0.000046
H419	H	0.793601	0.551959	0.333380
H420	H	1.126934	0.885292	0.666713
H421	H	0.511421	0.183141	-0.084112
H422	H	0.844754	0.516474	0.249221
H423	H	1.178087	0.849808	0.582555
N424	N	0.625120	0.026939	-0.655893
N425	N	0.958453	0.360272	-0.322560
N426	N	1.291786	0.693606	0.010774
H427	H	0.623758	0.025570	-0.757219
H428	H	0.957091	0.358903	-0.423886
H429	H	1.290424	0.692237	-0.090553
H430	H	0.585256	0.040042	-0.631002
H431	H	0.918589	0.373375	-0.297669
H432	H	1.251923	0.706708	0.035664
