data_functionalizedCrystal
_audit_creation_method	'MofGen! by Chris Wilmer'
_symmetry_space_group_name_H-M	'P1'
_symmetry_Int_Tables_number	1
_symmetry_cell_setting	triclinic
loop_
_symmetry_equiv_pos_as_xyz
  x,y,z
_cell_length_a	12.827893
_cell_length_b	25.639240
_cell_length_c	12.827885
_cell_angle_alpha	90.043165
_cell_angle_beta	90.019272
_cell_angle_gamma	90.032728
loop_
_atom_site_label
_atom_site_type_symbol
_atom_site_fract_x
_atom_site_fract_y
_atom_site_fract_z
Zn1	Zn	1.597543	-0.208126	0.590751
Zn2	Zn	1.597385	-0.295571	0.415971
Zn3	Zn	1.422785	-0.208151	0.416025
Zn4	Zn	1.422717	-0.295532	0.590671
O5	O	1.510108	-0.251845	0.503355
O6	O	1.743758	-0.219731	0.567578
O7	O	1.574185	-0.284002	0.269742
O8	O	1.446062	-0.134983	0.439259
O9	O	1.743642	-0.283977	0.439167
O10	O	1.574456	-0.134964	0.567630
O11	O	1.445908	-0.219775	0.269782
O12	O	1.276540	-0.219737	0.439181
O13	O	1.445946	-0.283911	0.736918
O14	O	1.276490	-0.283935	0.567493
O15	O	1.574391	-0.219694	0.736977
O16	O	1.574120	-0.368731	0.439089
O17	O	1.445792	-0.368702	0.567440
C18	C	1.238598	-0.251835	0.503335
C19	C	1.122445	-0.251843	0.503351
C20	C	1.070663	-0.283660	0.566746
C21	C	0.950612	-0.283670	0.566764
C22	C	1.509960	-0.387688	0.503273
C23	C	1.509992	-0.445802	0.503273
C24	C	1.576996	-0.806117	0.570318
C25	C	1.577027	-0.860721	0.570339
O26	O	1.633820	-0.888917	0.627259
N27	N	1.510253	-0.888084	0.503456
C28	C	1.443436	-0.860840	0.436554
O29	O	1.386642	-0.889129	0.379667
C30	C	1.443401	-0.806237	0.436539
C31	C	1.510186	-0.778876	0.503419
C32	C	1.643775	-0.778756	0.637194
C33	C	1.643746	-0.724155	0.637171
C34	C	1.576936	-0.696915	0.570272
C35	C	1.510157	-0.724276	0.503396
C36	C	1.376579	-0.778994	0.369643
C37	C	1.376549	-0.724387	0.369634
C38	C	1.443335	-0.697027	0.436515
C39	C	1.443318	-0.642435	0.436475
N40	N	1.510092	-0.615072	0.503358
C41	C	1.576901	-0.642312	0.570257
C42	C	1.443514	-0.975511	0.436592
C43	C	1.443554	-1.030113	0.436601
C44	C	1.577143	-1.029990	0.570388
C45	C	1.577108	-0.975387	0.570373
C46	C	1.510288	-0.948148	0.503476
C47	C	1.576834	-0.527647	0.570203
C48	C	1.576802	-0.473042	0.570171
C49	C	1.443209	-0.473170	0.436389
C50	C	1.443245	-0.527770	0.436416
C51	C	1.510061	-0.555008	0.503332
O52	O	1.386551	-0.614205	0.379587
O53	O	1.633676	-0.614017	0.627144
C54	C	1.782678	-0.251856	0.503375
C55	C	1.898831	-0.251860	0.503384
C56	C	1.510179	-0.251795	0.775925
C57	C	1.510209	-0.251773	0.892078
C58	C	1.510284	-0.115472	0.503460
C59	C	1.510360	-0.057358	0.503504
C60	C	1.510097	-0.251857	0.231845
C61	C	1.510269	-0.251731	0.115692
C62	C	1.573774	-0.219991	0.943892
C63	C	1.573807	-0.219968	1.063943
H64	H	1.631190	-0.450766	0.624633
Br65	Br	1.048212	-0.206446	0.412915
H66	H	1.115207	-0.310891	0.621010
Br67	Br	1.667749	-0.938260	0.661142
H68	H	1.388870	-0.550048	0.381949
Br69	Br	1.664412	-0.174648	0.869706
H70	H	1.322133	-0.702212	0.315160
Br71	Br	1.667515	-0.564604	0.661016
Br72	Br	0.876399	-0.329078	0.657222
Br73	Br	1.419565	-0.297093	1.041439
H74	H	0.943355	-0.224621	0.449103
Br75	Br	1.734381	-0.687032	0.727949
Br76	Br	1.664526	-0.174617	1.138203
H77	H	1.389104	-0.953335	0.382108
Br78	Br	1.667815	-1.066969	0.661180
Br79	Br	1.734452	-0.815714	0.728003
Br80	Br	1.285933	-0.816112	0.278873
Br81	Br	1.352930	-1.067238	0.345814
Br82	Br	1.352545	-0.436191	0.345601
H83	H	1.455806	-0.278964	0.936595
