data_functionalizedCrystal
_audit_creation_method	'MofGen! by Chris Wilmer'
_symmetry_space_group_name_H-M	'P1'
_symmetry_Int_Tables_number	1
_symmetry_cell_setting	triclinic
loop_
_symmetry_equiv_pos_as_xyz
  x,y,z
_cell_length_a	12.837943
_cell_length_b	27.732048
_cell_length_c	11.892095
_cell_angle_alpha	93.851775
_cell_angle_beta	85.689438
_cell_angle_gamma	88.735798
loop_
_atom_site_label
_atom_site_type_symbol
_atom_site_fract_x
_atom_site_fract_y
_atom_site_fract_z
O1	O	1.380115	0.122782	-0.094008
O2	O	1.078409	0.116579	-0.094014
O3	O	1.238631	0.049749	-0.093989
O4	O	1.219894	0.189612	-0.094033
O5	O	1.225272	0.055311	0.094016
O6	O	1.065051	0.122142	0.093992
O7	O	1.366757	0.128345	0.093997
Zn8	Zn	1.213783	0.126126	0.123844
Zn9	Zn	1.231383	0.118797	-0.123861
O10	O	1.206535	0.195175	0.093973
C11	C	1.033143	0.117265	-0.000011
C12	C	0.918166	0.111016	-0.000012
C13	C	0.676005	0.186144	-0.000019
C14	C	0.567973	0.180275	-0.000020
C15	C	0.594068	0.093407	-0.000005
C16	C	0.702100	0.099277	-0.000005
C17	C	0.743064	0.145647	-0.000014
C18	C	0.851099	0.151516	-0.000022
C19	C	0.877191	0.064649	0.000001
C20	C	0.769159	0.058780	0.000001
C21	C	1.231558	0.034504	0.000017
C22	C	1.230373	-0.019210	0.000026
C23	C	1.317601	-0.353705	-0.000031
C24	C	1.313207	-0.555583	-0.000046
O25	O	1.392971	-0.582888	-0.000094
N26	N	1.218201	-0.579414	-0.000047
C27	C	1.124288	-0.552772	-0.000051
O28	O	1.043379	-0.577674	-0.000064
C29	C	1.128683	-0.350895	-0.000043
C30	C	1.223695	-0.327067	-0.000031
C31	C	1.412605	-0.329876	-0.000020
C32	C	1.413702	-0.279410	-0.000010
C33	C	1.319795	-0.252772	-0.000010
C34	C	1.224792	-0.276600	-0.000021
C35	C	1.034772	-0.324255	-0.000056
C36	C	1.035879	-0.273783	-0.000056
C37	C	1.130890	-0.249954	-0.000044
C38	C	1.131982	-0.199496	-0.000012
N39	N	1.226988	-0.175665	-0.000011
C40	C	1.320894	-0.202303	-0.000010
C41	C	1.121987	-0.658760	-0.000053
C42	C	1.120887	-0.709229	-0.000053
C43	C	1.309807	-0.712036	-0.000050
C44	C	1.310905	-0.661566	-0.000042
C45	C	1.216992	-0.634929	-0.000052
C46	C	1.323191	-0.096319	0.000012
C47	C	1.324280	-0.045848	0.000027
C48	C	1.135361	-0.043045	0.000018
C49	C	1.134271	-0.093512	0.000009
C50	C	1.228195	-0.120148	0.000002
O51	O	1.052262	-0.172160	0.000024
O52	O	1.401793	-0.177392	-0.000023
C53	C	1.316504	-0.404172	-0.000041
C54	C	1.221500	-0.428000	-0.000051
C55	C	1.127594	-0.401362	-0.000052
C56	C	1.220401	-0.478469	-0.000051
C57	C	1.314308	-0.505107	-0.000051
C58	C	1.409314	-0.481276	-0.000050
C59	C	1.410411	-0.430810	-0.000040
C60	C	1.032588	-0.425193	-0.000053
C61	C	1.031499	-0.475660	-0.000062
C62	C	1.125405	-0.502298	-0.000061
C63	C	1.412023	0.127658	-0.000008
C64	C	1.527001	0.133908	-0.000014
C65	C	1.213608	0.210420	-0.000035
C66	C	1.214794	0.264133	-0.000052
N67	N	1.201778	0.131128	0.292897
N68	N	1.243396	0.113792	-0.292913
C69	C	1.326930	0.078958	0.529564
C70	C	1.318546	0.082459	0.647904
C71	C	1.176623	0.141626	0.647921
C72	C	1.185007	0.138126	0.529580
C73	C	1.260163	0.106791	0.470406
C74	C	1.268551	0.103294	0.352063
C75	C	1.126624	0.162459	0.352082
C76	C	1.118240	0.165959	0.470422
H77	H	1.401652	-0.026449	0.000039
C78	C	1.095075	0.175714	0.712027
C79	C	1.113122	0.223105	0.683217
C80	C	1.038008	0.254517	0.742235
H81	H	1.099560	0.173875	0.790997
H82	H	1.027389	0.166717	0.692615
H83	H	1.180791	0.232100	0.702637
H84	H	1.108628	0.224959	0.604257
H85	H	0.970321	0.245520	0.722822
H86	H	1.042499	0.252674	0.821202
H87	H	1.050236	0.286675	0.722688
C88	C	0.549730	0.043034	-0.000168
C89	C	0.590759	0.015392	-0.096874
C90	C	0.549947	-0.031015	-0.097056
H91	H	0.475795	0.045273	-0.000222
H92	H	0.568170	0.028061	0.065363
H93	H	0.572313	0.030361	-0.162387
H94	H	0.664690	0.013140	-0.096840
H95	H	0.568386	-0.045988	-0.031526
H96	H	0.476013	-0.028772	-0.097108
H97	H	0.577786	-0.049778	-0.162664
H98	H	0.709358	0.223900	-0.000028
H99	H	1.386269	-0.733734	-0.000049
C100	C	0.724832	0.008404	-0.000171
C101	C	0.765873	-0.019232	-0.096882
C102	C	0.725076	-0.065643	-0.097077
H103	H	0.650897	0.010638	-0.000229
H104	H	0.743274	-0.006570	0.065356
H105	H	0.747424	-0.004261	-0.162392
H106	H	0.839804	-0.021479	-0.096844
H107	H	0.743517	-0.080617	-0.031549
H108	H	0.651142	-0.063404	-0.097132
H109	H	0.752923	-0.084401	-0.162688
C110	C	1.425271	-0.125146	0.000068
C111	C	1.508693	-0.093466	0.000110
C112	C	1.602741	-0.120003	0.000184
H113	H	1.433587	-0.146830	-0.065478
H114	H	1.424169	-0.142947	0.065654
H115	H	1.509796	-0.075673	-0.065470
H116	H	1.500412	-0.071781	0.065651
H117	H	1.601639	-0.137804	0.065771
H118	H	1.611046	-0.141686	-0.065362
H119	H	1.659353	-0.098512	0.000223
C120	C	0.495341	0.224302	-0.000089
C121	C	0.554346	0.266164	-0.000125
C122	C	0.487473	0.306732	-0.000203
H123	H	0.447972	0.225824	0.065453
H124	H	0.457331	0.221906	-0.065679
H125	H	0.592338	0.268560	0.065458
H126	H	0.601711	0.264658	-0.065662
H127	H	0.449463	0.304336	-0.065793
H128	H	0.440108	0.308249	0.065340
H129	H	0.527499	0.335139	-0.000238
H130	H	1.072261	0.185124	0.303902
C131	C	0.949869	0.020640	0.000184
C132	C	0.924580	-0.004140	0.096898
C133	C	0.991499	-0.044685	0.097092
H134	H	1.020108	0.030711	0.000238
H135	H	0.942162	-0.000132	-0.065341
H136	H	0.932295	0.016628	0.162407
H137	H	0.854352	-0.014223	0.096865
H138	H	0.983793	-0.065457	0.031567
H139	H	1.061735	-0.034610	0.097143
H140	H	0.974344	-0.061506	0.162705
H141	H	1.491070	-0.260013	-0.000004
H142	H	1.489079	-0.351560	-0.000023
H143	H	0.959402	-0.252098	-0.000066
H144	H	1.388271	-0.642169	-0.000033
H145	H	0.957404	-0.343648	-0.000072
H146	H	1.043518	-0.728625	-0.000043
C147	C	1.019900	-0.629927	0.000006
C148	C	0.936472	-0.661605	0.000039
C149	C	0.842414	-0.635063	0.000116
H150	H	1.020898	-0.612112	-0.065536
H151	H	1.011683	-0.608255	0.065596
H152	H	0.944688	-0.683269	-0.065544
H153	H	0.935441	-0.679421	0.065576
H154	H	0.834197	-0.613391	0.065706
H155	H	0.843422	-0.617249	-0.065427
H156	H	0.785796	-0.656552	0.000149
H157	H	1.487778	-0.411413	-0.000030
H158	H	1.056903	-0.112913	0.000031
C159	C	1.349963	0.069216	0.287698
C160	C	1.300031	0.035094	0.219794
C161	C	1.374981	0.003685	0.160491
H162	H	1.388535	0.053091	0.339779
H163	H	1.396098	0.087182	0.241433
H164	H	1.253914	0.017130	0.266055
H165	H	1.261464	0.051205	0.167692
H166	H	1.421116	0.021651	0.114226
H167	H	1.413549	-0.012436	0.212580
H168	H	1.341114	-0.019467	0.114403
C169	C	1.511165	-0.510291	-0.000111
C170	C	1.489855	-0.559589	-0.000151
C171	C	1.583649	-0.586335	-0.000230
H172	H	1.545583	-0.500727	0.065432
H173	H	1.554822	-0.504562	-0.065700
H174	H	1.446215	-0.565315	0.065431
H175	H	1.455451	-0.569167	-0.065689
H176	H	1.627307	-0.580606	-0.065819
H177	H	1.618061	-0.576767	0.065314
H178	H	1.569205	-0.619787	-0.000267
H179	H	1.057046	0.191469	0.518616
C180	C	0.928232	-0.501440	-0.000132
C181	C	0.846238	-0.467304	-0.000163
C182	C	0.751100	-0.491034	-0.000254
H183	H	0.919059	-0.519138	0.065404
H184	H	0.928483	-0.522991	-0.065728
H185	H	0.845984	-0.445762	0.065426
H186	H	0.855376	-0.449605	-0.065694
H187	H	0.751351	-0.512585	-0.065850
H188	H	0.741937	-0.508731	0.065283
H189	H	0.695456	-0.467877	-0.000286
C190	C	0.930672	-0.396259	-0.000281
C191	C	0.932627	-0.370064	-0.097013
C192	C	0.838747	-0.343413	-0.097263
H193	H	0.922415	-0.374541	0.065208
H194	H	0.873916	-0.417671	-0.000345
H195	H	0.989367	-0.348655	-0.096939
H196	H	0.940867	-0.391771	-0.162518
H197	H	0.781991	-0.364824	-0.097327
H198	H	0.830498	-0.321697	-0.031769
H199	H	0.840057	-0.325640	-0.162899
H200	H	1.058904	-0.021347	0.000022
H201	H	1.372913	0.059793	0.696067
C202	C	0.895372	0.201900	0.000029
C203	C	0.813513	0.236110	0.000057
C204	C	0.854253	0.282530	0.000122
H205	H	0.941612	0.204128	-0.065515
H206	H	0.932283	0.207958	0.065617
H207	H	0.776619	0.230054	-0.065524
H208	H	0.767267	0.233897	0.065596
H209	H	0.891164	0.288588	0.065710
H210	H	0.900493	0.284753	-0.065423
H211	H	0.798718	0.305747	0.000152
H212	H	1.388132	0.053448	0.481383
