data_functionalizedCrystal
_audit_creation_method	'MofGen! by Chris Wilmer'
_symmetry_space_group_name_H-M	'P1'
_symmetry_Int_Tables_number	1
_symmetry_cell_setting	triclinic
loop_
_symmetry_equiv_pos_as_xyz
  x,y,z
_cell_length_a	10.654550
_cell_length_b	9.798715
_cell_length_c	10.654551
_cell_angle_alpha	90.000567
_cell_angle_beta	84.485132
_cell_angle_gamma	90.007230
loop_
_atom_site_label
_atom_site_type_symbol
_atom_site_fract_x
_atom_site_fract_y
_atom_site_fract_z
O1	O	1.667841	0.113594	0.176396
O2	O	2.167841	0.613594	0.676396
O3	O	1.302362	0.113571	0.193202
O4	O	1.802362	0.613571	0.693202
O5	O	1.493504	0.113584	0.002060
O6	O	1.993504	0.613584	0.502060
O7	O	1.476699	0.113581	0.367538
O8	O	1.976699	0.613581	0.867538
O9	O	1.493490	-0.113398	0.002059
O10	O	1.993490	0.386602	0.502059
O11	O	1.302348	-0.113411	0.193201
O12	O	1.802348	0.386589	0.693201
O13	O	1.667826	-0.113388	0.176395
O14	O	2.167826	0.386612	0.676395
Zn15	Zn	1.485085	-0.149438	0.184798
Zn16	Zn	1.985085	0.350562	0.684798
Zn17	Zn	1.485104	0.149621	0.184800
Zn18	Zn	1.985104	0.649621	0.684800
O19	O	1.476685	-0.113401	0.367537
O20	O	1.976685	0.386599	0.867537
C21	C	1.255557	0.000077	0.191968
C22	C	1.755557	0.500077	0.691968
C23	C	1.116114	0.000069	0.188276
C24	C	1.616114	0.500069	0.688276
C25	C	1.036629	0.000088	0.300817
C26	C	1.536629	0.500088	0.800817
C27	C	0.905608	0.000112	0.297341
C28	C	1.405608	0.500112	0.797341
C29	C	0.933570	0.000103	0.068771
C30	C	1.433570	0.500103	0.568771
C31	C	1.064589	0.000069	0.072249
C32	C	1.564589	0.500069	0.572249
C33	C	1.020484	0.000099	0.432780
C34	C	1.520484	0.500099	0.932780
C35	C	0.889463	0.000123	0.429304
C36	C	1.389463	0.500123	0.929304
N37	N	1.485081	-0.353538	0.184796
N38	N	1.985081	0.146462	0.684796
C39	C	1.558324	-0.421311	0.257632
C40	C	2.058324	0.078689	0.757632
C41	C	1.558344	-0.578474	0.257630
C42	C	2.058344	-0.078474	0.757630
C43	C	1.714632	0.000109	0.177629
C44	C	2.214632	0.500109	0.677629
C45	C	1.854075	0.000126	0.181321
C46	C	2.354075	0.500126	0.681321
C47	C	1.492263	0.000096	-0.044739
C48	C	1.992263	0.500096	0.455261
C49	C	1.488570	0.000105	-0.184182
C50	C	1.988570	0.500105	0.315818
N51	N	1.485117	0.353721	0.184792
N52	N	1.985117	0.853721	0.684792
C53	C	1.486846	0.123830	-0.249693
C54	C	1.986846	0.623830	0.250307
C55	C	1.483365	0.123824	-0.380713
C56	C	1.983365	0.623824	0.119287
C57	C	1.483340	-0.123645	-0.380700
C58	C	1.983340	0.376355	0.119300
C59	C	1.486811	-0.123637	-0.249681
C60	C	1.986811	0.376363	0.250319
C61	C	1.486866	0.266704	-0.249702
C62	C	1.986866	0.766704	0.250298
C63	C	1.483386	0.266698	-0.380722
C64	C	1.983386	0.766698	0.119278
C65	C	1.477926	0.000090	0.414336
C66	C	1.977926	0.500090	0.914336
C67	C	1.481619	0.000090	0.553779
C68	C	1.981619	0.500090	1.053779
H69	H	1.056145	0.098097	0.474800
H70	H	1.556145	0.598097	0.974800
H71	H	1.621043	-0.636757	0.319995
H72	H	2.121043	-0.136757	0.819995
H73	H	1.422402	-0.588005	0.122437
H74	H	1.922402	-0.088005	0.622437
H75	H	1.129302	0.000034	-0.019393
H76	H	1.629302	0.500034	0.480607
H77	H	0.891602	0.000124	-0.025694
H78	H	1.391602	0.500124	0.474306
H79	H	1.049809	-0.094898	0.484390
H80	H	1.549809	0.405102	0.984390
H81	H	1.422394	-0.411866	0.122434
H82	H	1.922394	0.088134	0.622434
Cl83	Cl	0.818929	-0.151165	0.490877
Cl84	Cl	1.318929	0.348835	0.990877
Cl85	Cl	1.488937	-0.279184	-0.167323
Cl86	Cl	1.988937	0.220816	0.332677
H87	H	1.621020	-0.362982	0.319985
H88	H	2.121020	0.137018	0.819985
Cl89	Cl	0.825031	0.146788	0.506065
Cl90	Cl	1.325031	0.646788	1.006065
Cl91	Cl	1.481125	-0.279197	-0.463051
Cl92	Cl	1.981125	0.220803	0.036949
Cl93	Cl	1.352880	0.351397	-0.178238
Cl94	Cl	1.852880	0.851397	0.321762
Cl95	Cl	1.628286	0.335161	-0.204042
Cl96	Cl	2.128286	0.835161	0.295958
Cl97	Cl	1.341975	0.335146	-0.426383
Cl98	Cl	1.841975	0.835146	0.073617
H99	H	1.570180	0.321560	-0.427013
H100	H	2.070180	0.821560	0.072987
