data_functionalizedCrystal
_audit_creation_method	'MofGen! by Chris Wilmer'
_symmetry_space_group_name_H-M	'P1'
_symmetry_Int_Tables_number	1
_symmetry_cell_setting	triclinic
loop_
_symmetry_equiv_pos_as_xyz
  x,y,z
_cell_length_a	19.077105
_cell_length_b	12.594516
_cell_length_c	19.076919
_cell_angle_alpha	92.277239
_cell_angle_beta	90.076224
_cell_angle_gamma	87.712633
loop_
_atom_site_label
_atom_site_type_symbol
_atom_site_fract_x
_atom_site_fract_y
_atom_site_fract_z
Zn1	Zn	1.058319	-0.514930	-0.440450
Zn2	Zn	1.558319	-0.014930	0.059550
Zn3	Zn	1.062975	-0.686069	-0.322954
Zn4	Zn	1.562975	-0.186069	0.177046
Zn5	Zn	0.945535	-0.500672	-0.318243
Zn6	Zn	1.445535	-0.000672	0.181757
Zn7	Zn	0.940797	-0.685427	-0.435707
Zn8	Zn	1.440797	-0.185427	0.064293
O9	O	1.001907	-0.596775	-0.379338
O10	O	1.501907	-0.096775	0.120662
O11	O	1.157269	-0.543868	-0.428821
O12	O	1.657269	-0.043868	0.071179
O13	O	1.051328	-0.655777	-0.223998
O14	O	1.551328	-0.155777	0.276002
O15	O	0.960531	-0.353620	-0.334467
O16	O	1.460531	0.146380	0.165533
O17	O	1.160690	-0.669603	-0.342497
O18	O	1.660690	-0.169603	0.157503
O19	O	1.043393	-0.364096	-0.424253
O20	O	1.543393	0.135904	0.075747
O21	O	0.965046	-0.519567	-0.220536
O22	O	1.465046	-0.019567	0.279464
O23	O	0.846574	-0.518944	-0.329868
O24	O	1.346574	-0.018944	0.170132
O25	O	0.952455	-0.668509	-0.534668
O26	O	1.452455	-0.168509	-0.034668
O27	O	0.843093	-0.654683	-0.416168
O28	O	1.343093	-0.154683	0.083832
O29	O	1.038798	-0.543246	-0.538153
O30	O	1.538798	-0.043246	-0.038153
O31	O	1.046733	-0.834927	-0.337898
O32	O	1.546733	-0.334927	0.162102
O33	O	0.956969	-0.834455	-0.420737
O34	O	1.456969	-0.334455	0.079263
C35	C	0.819337	-0.585197	-0.371992
C36	C	1.319337	-0.085197	0.128008
C37	C	0.741233	-0.580271	-0.368866
C38	C	1.241233	-0.080271	0.131134
C39	C	0.702747	-0.648728	-0.412259
C40	C	1.202747	-0.148728	0.087741
C41	C	0.629360	-0.644085	-0.409325
C42	C	1.129360	-0.144085	0.090675
C43	C	0.594459	-0.570991	-0.362994
C44	C	1.094459	-0.070991	0.137006
C45	C	0.632949	-0.502527	-0.319600
C46	C	1.132949	-0.002527	0.180400
C47	C	0.706335	-0.507165	-0.322538
C48	C	1.206335	-0.007165	0.177462
C49	C	0.375169	-0.549525	-0.349400
C50	C	0.875169	-0.049525	0.150600
C51	C	0.301778	-0.544895	-0.346464
C52	C	0.801778	-0.044895	0.153536
C53	C	0.298194	-0.686452	-0.436191
C54	C	0.798194	-0.186452	0.063809
C55	C	0.371582	-0.691088	-0.439121
C56	C	0.871582	-0.191088	0.060879
C57	C	0.410065	-0.622620	-0.395730
C58	C	0.910065	-0.122620	0.104270
N59	N	0.519445	-0.566246	-0.359993
N60	N	1.019445	-0.066246	0.140007
N61	N	0.485078	-0.627361	-0.398735
N62	N	0.985078	-0.127361	0.101265
C63	C	1.001861	-0.873312	-0.379330
C64	C	1.501861	-0.373312	0.120670
C65	C	1.001905	-0.991622	-0.379352
C66	C	1.501905	-0.491622	0.120648
C67	C	0.953079	-1.060655	-0.424375
C68	C	1.453079	-0.560655	0.075625
C69	C	0.938538	-1.126689	-0.359570
C70	C	1.438538	-0.626689	0.140430
C71	C	1.016509	-1.136391	-0.444171
C72	C	1.516509	-0.636391	0.055829
C73	C	0.987331	-1.056094	-0.314511
C74	C	1.487331	-0.556094	0.185489
C75	C	1.065330	-1.065794	-0.399157
C76	C	1.565330	-0.565794	0.100843
C77	C	1.050816	-1.131795	-0.334309
C78	C	1.550816	-0.631795	0.165691
C79	C	1.185189	-0.608398	-0.386714
C80	C	1.685189	-0.108398	0.113286
C81	C	1.263293	-0.613351	-0.389857
C82	C	1.763293	-0.113351	0.110143
C83	C	0.994578	-0.607396	-0.562619
C84	C	1.494578	-0.107396	-0.062619
C85	C	0.991455	-0.611923	-0.640723
C86	C	1.491455	-0.111923	-0.140723
C87	C	1.001971	-0.319159	-0.379363
C88	C	1.501971	0.180841	0.120637
C89	C	1.001998	-0.200856	-0.379374
C90	C	1.501998	0.299144	0.120626
C91	C	1.034940	-0.548834	-0.679231
C92	C	1.534940	-0.048834	-0.179231
C93	C	1.031997	-0.553083	-0.752617
C94	C	1.531997	-0.053083	-0.252617
C95	C	0.985572	-0.620426	-0.787494
C96	C	1.485572	-0.120426	-0.287494
C97	C	0.942083	-0.683517	-0.748980
C98	C	1.442083	-0.183517	-0.248980
C99	C	0.945023	-0.679262	-0.675595
C100	C	1.445023	-0.179262	-0.175595
C101	C	0.971956	-0.640139	-1.006776
C102	C	1.471956	-0.140139	-0.506776
C103	C	0.969021	-0.644391	-1.080166
C104	C	1.469021	-0.144391	-0.580166
C105	C	1.058935	-0.513955	-1.083799
C106	C	1.558935	-0.013955	-0.583799
C107	C	1.061873	-0.509711	-1.010412
C108	C	1.561873	-0.009711	-0.510412
C109	C	1.018381	-0.572798	-0.971905
C110	C	1.518381	-0.072798	-0.471905
N111	N	0.982565	-0.624772	-0.862506
N112	N	1.482565	-0.124772	-0.362506
N113	N	1.021386	-0.568445	-0.896894
N114	N	1.521386	-0.068445	-0.396894
C115	C	1.009247	-0.586120	-0.196772
C116	C	1.509247	-0.086120	0.303228
C117	C	1.012506	-0.581302	-0.118675
C118	C	1.512506	-0.081302	0.381325
H119	H	0.406494	-0.493782	-0.314062
H120	H	0.906494	0.006218	0.185938
N121	N	0.587850	-0.717934	-0.456117
N122	N	1.087850	-0.217934	0.043883
H123	H	0.621096	-0.764952	-0.485906
H124	H	1.121096	-0.264952	0.014094
H125	H	0.558540	-0.763527	-0.426227
H126	H	1.058540	-0.263527	0.073773
N127	N	0.867543	-1.162341	-0.337393
N128	N	1.367543	-0.662341	0.162607
H129	H	0.868237	-1.242552	-0.337124
H130	H	1.368237	-0.742552	0.162876
H131	H	0.856204	-1.131818	-0.288785
H132	H	1.356204	-0.631818	0.211215
N133	N	0.264132	-0.466057	-0.296489
N134	N	0.764132	0.033943	0.203511
H135	H	0.299646	-0.423385	-0.269447
H136	H	0.799646	0.076615	0.230553
H137	H	0.232547	-0.416612	-0.323930
H138	H	0.732547	0.083388	0.176070
N139	N	1.085019	-0.476210	-0.641616
N140	N	1.585019	0.023790	-0.141616
H141	H	1.073615	-0.400207	-0.653950
H142	H	1.573615	0.099793	-0.153950
H143	H	1.080260	-0.483185	-0.589296
H144	H	1.580260	0.016815	-0.089296
H145	H	0.731159	-0.708252	-0.449984
H146	H	1.231159	-0.208252	0.050016
N147	N	1.078894	-0.485015	-0.794140
N148	N	1.578894	0.014985	-0.294140
H149	H	1.129610	-0.503985	-0.783394
H150	H	1.629610	-0.003985	-0.283394
H151	H	1.069931	-0.497937	-0.845908
H152	H	1.569931	0.002063	-0.345908
H153	H	0.604527	-0.443008	-0.281879
H154	H	1.104527	0.056992	0.218121
H155	H	1.099679	-0.454876	-0.982021
H156	H	1.599679	0.045124	-0.482021
N157	N	0.747848	-0.433324	-0.275741
N158	N	1.247848	0.066676	0.224259
H159	H	0.714604	-0.386315	-0.245945
H160	H	1.214604	0.113685	0.254055
H161	H	0.779588	-0.476603	-0.244392
H162	H	1.279588	0.023397	0.255608
N163	N	0.898293	-1.019266	-0.474721
N164	N	1.398293	-0.519266	0.025279
H165	H	0.898948	-0.939116	-0.474683
H166	H	1.398948	-0.439116	0.025317
H167	H	0.908824	-1.049745	-0.523512
H168	H	1.408824	-0.549745	-0.023512
H169	H	0.974954	-1.021106	-0.259686
H170	H	1.474954	-0.521106	0.240314
N171	N	1.105840	-0.445913	-1.125331
N172	N	1.605840	0.054087	-0.625331
H173	H	1.096935	-0.458823	-1.177112
H174	H	1.596935	0.041177	-0.677112
H175	H	1.095434	-0.368461	-1.112069
H176	H	1.595434	0.131539	-0.612069
N177	N	1.105569	-1.172906	-0.283834
N178	N	1.605569	-0.672906	0.216166
H179	H	1.094482	-1.143423	-0.234919
H180	H	1.594482	-0.643423	0.265081
H181	H	1.105562	-1.253129	-0.284475
H182	H	1.605562	-0.753129	0.215525
H183	H	1.118911	-1.038859	-0.415922
H184	H	1.618911	-0.538859	0.084078
N185	N	1.032824	-1.182911	-0.516766
N186	N	1.532824	-0.682911	-0.016766
H187	H	0.995873	-1.157021	-0.550723
H188	H	1.495873	-0.657021	-0.050723
H189	H	1.080351	-1.159780	-0.532007
H190	H	1.580351	-0.659780	-0.032007
H191	H	0.931215	-0.699232	-1.108560
H192	H	1.431215	-0.199232	-0.608560
N193	N	0.409224	-0.769931	-0.489088
N194	N	0.909224	-0.269931	0.010912
H195	H	0.373707	-0.812595	-0.516133
H196	H	0.873707	-0.312595	-0.016133
H197	H	0.438386	-0.730498	-0.522875
H198	H	0.938386	-0.230498	-0.022875
H199	H	0.909606	-0.730624	-0.644242
H200	H	1.409606	-0.230624	-0.144242
N201	N	0.256687	-0.760295	-0.482989
N202	N	0.756687	-0.260295	0.017011
H203	H	0.204901	-0.746269	-0.474100
H204	H	0.704901	-0.246269	0.025900
H205	H	0.267521	-0.747567	-0.533707
H206	H	0.767521	-0.247567	-0.033707
N207	N	0.925026	-0.708142	-0.965247
N208	N	1.425026	-0.208142	-0.465247
H209	H	0.895166	-0.751438	-0.998479
H210	H	1.395166	-0.251438	-0.498479
H211	H	0.954811	-0.757459	-0.935931
H212	H	1.454811	-0.257459	-0.435931
N213	N	0.891994	-0.756127	-0.786591
N214	N	1.391994	-0.256127	-0.286591
H215	H	0.896726	-0.749247	-0.838924
H216	H	1.396726	-0.249247	-0.338924
H217	H	0.903413	-0.832098	-0.774202
H218	H	1.403413	-0.332098	-0.274202
