data_functionalizedCrystal
_audit_creation_method	'MofGen! by Chris Wilmer'
_symmetry_space_group_name_H-M	'P1'
_symmetry_Int_Tables_number	1
_symmetry_cell_setting	triclinic
loop_
_symmetry_equiv_pos_as_xyz
  x,y,z
_cell_length_a	18.215407
_cell_length_b	18.215405
_cell_length_c	18.215399
_cell_angle_alpha	89.972459
_cell_angle_beta	89.982632
_cell_angle_gamma	90.020175
loop_
_atom_site_label
_atom_site_type_symbol
_atom_site_fract_x
_atom_site_fract_y
_atom_site_fract_z
Zn1	Zn	1.125083	-0.293042	-0.416070
Zn2	Zn	1.124996	-0.416113	-0.293004
Zn3	Zn	1.002015	-0.293060	-0.293022
Zn4	Zn	1.001986	-0.416066	-0.416034
O5	O	1.063520	-0.354570	-0.354533
O6	O	1.228056	-0.309380	-0.399752
O7	O	1.108658	-0.399817	-0.190022
O8	O	1.018389	-0.190073	-0.309367
O9	O	1.227992	-0.399800	-0.309336
O10	O	1.108807	-0.190060	-0.399769
O11	O	1.018305	-0.309410	-0.190035
O12	O	0.899027	-0.309364	-0.309333
O13	O	1.018339	-0.399719	-0.519023
O14	O	0.899006	-0.399736	-0.399709
O15	O	1.108778	-0.309334	-0.519049
O16	O	1.108630	-0.519091	-0.309302
O17	O	1.018255	-0.519056	-0.399692
C18	C	0.872314	-0.354548	-0.354520
C19	C	0.790515	-0.354556	-0.354532
C20	C	0.602353	-0.307571	-0.401685
C21	C	0.525495	-0.307577	-0.401688
C22	C	0.525439	-0.401590	-0.307393
C23	C	0.602296	-0.401580	-0.307387
C24	C	0.640751	-0.354571	-0.354538
C25	C	0.487035	-0.354588	-0.354546
C26	C	0.403702	-0.354595	-0.354548
C27	C	0.724090	-0.354563	-0.354534
C28	C	1.063450	-0.545777	-0.354507
C29	C	1.063487	-0.627575	-0.354521
C30	C	1.110589	-0.815702	-0.401657
C31	C	1.110616	-0.892560	-0.401671
C32	C	1.016542	-0.892687	-0.307454
C33	C	1.016512	-0.815830	-0.307444
C34	C	1.063540	-0.777339	-0.354545
C35	C	1.063596	-0.931055	-0.354568
C36	C	1.063625	-1.014389	-0.354583
C37	C	1.063511	-0.694000	-0.354531
C38	C	1.255473	-0.354593	-0.354546
C39	C	1.337272	-0.354603	-0.354552
C40	C	1.063565	-0.354519	-0.546486
C41	C	1.063584	-0.354498	-0.628284
C42	C	1.063611	-0.162617	-0.354574
C43	C	1.063650	-0.080818	-0.354592
C44	C	1.110692	-0.307390	-0.816493
C45	C	1.110701	-0.307369	-0.893352
C46	C	1.016528	-0.401492	-0.893314
C47	C	1.016516	-0.401509	-0.816456
C48	C	1.063602	-0.354459	-0.778048
C49	C	1.063623	-0.354421	-0.931764
C50	C	1.063632	-0.354398	-1.015098
C51	C	1.063592	-0.354481	-0.694709
C52	C	1.063518	-0.354568	-0.163326
C53	C	1.063641	-0.354382	-0.081528
H54	H	0.633661	-0.269291	-0.440076
H55	H	0.978164	-0.439837	-0.785154
H56	H	0.978193	-0.439799	-0.924595
H57	H	0.494234	-0.269304	-0.440079
C58	C	0.483136	-0.453302	-0.255538
H59	H	0.431863	-0.446583	-0.262299
H60	H	0.495713	-0.442471	-0.206108
H61	H	0.495727	-0.502762	-0.266229
H62	H	0.633561	-0.439853	-0.268990
C63	C	1.162311	-0.773361	-0.453469
H64	H	1.155561	-0.722092	-0.446712
H65	H	1.151515	-0.785934	-0.502907
H66	H	1.211772	-0.785928	-0.442741
C67	C	1.162374	-0.934756	-0.453491
H68	H	1.190380	-0.900823	-0.481535
H69	H	1.134218	-0.964739	-0.485537
H70	H	1.194470	-0.964731	-0.425366
C71	C	0.964823	-0.935029	-0.255640
H72	H	0.971584	-0.986297	-0.262386
H73	H	0.915364	-0.922466	-0.266359
H74	H	0.975627	-0.922452	-0.206200
C75	C	0.964757	-0.773628	-0.255616
H76	H	0.936760	-0.807558	-0.227559
H77	H	0.932664	-0.743652	-0.283735
H78	H	0.992923	-0.743645	-0.223572
H79	H	1.149046	-0.269039	-0.924651
C80	C	1.162476	-0.255629	-0.774246
H81	H	1.190516	-0.227588	-0.808154
H82	H	1.194527	-0.283784	-0.744259
H83	H	1.134324	-0.223567	-0.744272
