data_functionalizedCrystal
_audit_creation_method	'MofGen! by Chris Wilmer'
_symmetry_space_group_name_H-M	'P1'
_symmetry_Int_Tables_number	1
_symmetry_cell_setting	triclinic
loop_
_symmetry_equiv_pos_as_xyz
  x,y,z
_cell_length_a	18.050590
_cell_length_b	18.050590
_cell_length_c	12.759393
_cell_angle_alpha	89.965321
_cell_angle_beta	89.992932
_cell_angle_gamma	90.007719
loop_
_atom_site_label
_atom_site_type_symbol
_atom_site_fract_x
_atom_site_fract_y
_atom_site_fract_z
Zn1	Zn	1.135400	-0.295838	-0.593601
Zn2	Zn	1.135314	-0.420046	-0.417908
Zn3	Zn	1.011202	-0.295851	-0.417978
Zn4	Zn	1.011188	-0.419968	-0.593588
O5	O	1.073276	-0.357926	-0.505769
O6	O	1.239313	-0.312342	-0.570270
O7	O	1.118821	-0.403610	-0.270896
O8	O	1.027719	-0.191925	-0.441310
O9	O	1.239250	-0.403597	-0.441190
O10	O	1.118966	-0.191915	-0.570339
O11	O	1.027636	-0.312364	-0.270948
O12	O	0.907276	-0.312288	-0.441297
O13	O	1.027695	-0.403463	-0.740610
O14	O	0.907265	-0.403476	-0.570317
O15	O	1.118953	-0.312266	-0.740620
O16	O	1.118807	-0.523960	-0.441177
O17	O	1.027612	-0.523903	-0.570248
C18	C	0.880324	-0.357875	-0.505814
C19	C	0.797778	-0.357871	-0.505858
C20	C	1.073219	-0.550878	-0.505727
C21	C	1.073262	-0.633424	-0.505744
C22	C	0.598343	-0.407601	-0.575852
C23	C	0.548941	-0.339883	-0.601707
C24	C	0.646648	-0.357913	-0.505807
C25	C	0.548968	-0.425670	-0.479951
C26	C	0.500663	-0.357959	-0.505759
C27	C	0.598333	-0.290158	-0.531712
C28	C	0.598364	-0.375991	-0.409911
C29	C	0.548984	-0.308226	-0.435729
C30	C	0.730746	-0.357887	-0.505837
C31	C	0.416566	-0.357977	-0.505729
C32	C	1.122958	-0.832879	-0.435653
C33	C	1.141102	-0.882207	-0.531534
C34	C	1.073305	-0.784554	-0.505786
C35	C	1.055235	-0.882307	-0.409948
C36	C	1.073347	-0.930539	-0.505818
C37	C	1.091484	-0.832795	-0.601717
C38	C	1.005586	-0.832891	-0.480067
C39	C	1.023705	-0.882197	-0.576014
C40	C	1.073282	-0.700456	-0.505766
C41	C	1.073369	-1.014636	-0.505848
C42	C	1.266982	-0.357977	-0.505724
C43	C	1.349527	-0.357999	-0.505705
C44	C	1.073332	-0.357854	-0.779802
C45	C	1.073355	-0.357824	-0.896579
C46	C	1.073354	-0.164220	-0.505834
C47	C	1.073387	-0.081674	-0.505861
C48	C	1.120877	-0.310330	-0.951447
C49	C	1.120889	-0.310298	-1.061172
C50	C	1.025857	-0.405260	-1.061149
C51	C	1.025841	-0.405288	-0.951427
C52	C	1.147482	-0.222683	-1.211150
C53	C	1.195015	-0.175195	-1.266022
C54	C	1.267479	-0.163823	-1.230407
C55	C	1.292425	-0.199949	-1.139921
C56	C	1.244895	-0.247442	-1.085055
C57	C	1.172421	-0.258800	-1.120668
C58	C	0.999256	-0.492904	-0.801447
C59	C	0.951730	-0.540402	-0.746578
C60	C	0.879265	-0.551782	-0.782191
C61	C	0.854322	-0.515669	-0.872680
C62	C	0.901848	-0.468172	-0.927549
C63	C	0.974312	-0.456790	-0.891928
C64	C	1.073263	-0.357943	-0.232801
C65	C	1.073384	-0.357764	-0.116025
H66	H	0.620018	-0.449547	-0.635154
O67	O	0.624123	-0.221848	-0.558071
C68	C	0.667591	-0.227135	-0.649578
H69	H	0.651179	-0.278921	-0.695099
H70	H	0.658123	-0.176091	-0.700500
H71	H	0.728620	-0.230666	-0.627132
H72	H	1.106728	-0.811140	-0.682849
O73	O	1.077039	-0.233649	-1.245597
C74	C	1.026586	-0.211329	-1.167386
H75	H	1.054536	-0.169745	-1.113031
H76	H	0.976242	-0.184455	-1.205666
H77	H	1.008180	-0.261738	-1.120218
H78	H	1.164962	-0.811223	-0.376405
H79	H	1.174698	-0.145782	-1.339696
O80	O	0.523245	-0.258168	-0.364924
C81	C	0.480258	-0.294954	-0.288693
H82	H	0.496974	-0.355810	-0.285380
H83	H	0.489923	-0.268313	-0.208871
H84	H	0.419120	-0.290483	-0.310186
O85	O	1.209387	-0.908175	-0.557563
C86	C	1.208295	-0.986277	-0.558138
H87	H	1.149072	-1.006458	-0.570300
H88	H	1.244823	-1.007567	-0.624495
H89	H	1.230107	-1.007961	-0.480086
H90	H	0.840572	-0.590465	-0.737512
H91	H	0.527232	-0.324606	-0.682784
O92	O	0.973716	-0.907840	-0.647004
C93	C	0.993054	-0.882457	-0.747890
H94	H	1.054664	-0.868642	-0.749942
H95	H	0.980579	-0.927496	-0.807949
H96	H	0.959556	-0.830711	-0.767360
O97	O	1.362812	-0.189021	-1.105221
C98	C	1.374630	-0.231077	-1.013584
H99	H	1.333793	-0.279233	-1.011315
H100	H	1.433660	-0.253522	-1.013519
H101	H	1.365995	-0.194486	-0.941821
O102	O	0.522971	-0.493967	-0.453932
C103	C	0.444870	-0.492863	-0.453313
H104	H	0.424293	-0.445614	-0.504989
H105	H	0.422908	-0.547746	-0.484724
H106	H	0.424254	-0.484337	-0.369728
H107	H	0.987174	-0.443906	-1.105819
H108	H	0.948316	-0.811210	-0.458264
O109	O	1.037063	-0.908163	-0.313165
C110	C	1.089550	-0.883050	-0.239469
H111	H	1.117812	-0.831019	-0.270612
H112	H	1.060460	-0.869794	-0.162421
H113	H	1.132820	-0.928026	-0.225779
O114	O	1.313686	-0.117636	-1.283549
C115	C	1.336225	-0.059477	-1.217080
H116	H	1.330601	-0.077707	-1.131892
H117	H	1.396472	-0.044822	-1.234106
H118	H	1.299830	-0.008875	-1.231493
H119	H	0.620089	-0.391288	-0.328857
O120	O	0.877491	-0.433121	-1.015405
C121	C	0.803346	-0.453364	-1.035094
H122	H	0.776413	-0.472911	-0.959136
H123	H	0.771775	-0.403488	-1.066888
H124	H	0.801893	-0.500060	-1.095180
O125	O	1.166946	-0.264113	-0.898216
C126	C	1.150758	-0.190087	-0.925079
H127	H	1.091434	-0.186317	-0.955247
H128	H	1.157160	-0.153414	-0.852937
H129	H	1.190589	-0.170670	-0.988774
O130	O	1.269125	-0.282650	-0.997259
C131	C	1.264568	-0.359925	-1.011970
H132	H	1.265265	-0.372887	-1.099396
H133	H	1.313830	-0.387880	-0.972443
H134	H	1.210927	-0.381494	-0.975967
O135	O	0.783897	-0.526778	-0.907113
C136	C	0.747303	-0.576456	-0.839296
H137	H	0.775338	-0.575635	-0.759251
H138	H	0.686895	-0.559107	-0.830553
H139	H	0.750086	-0.634797	-0.873245
O140	O	0.976070	-0.575521	-0.658767
C141	C	1.037356	-0.620516	-0.684046
H142	H	1.064706	-0.598871	-0.758555
H143	H	1.079021	-0.619172	-0.616937
H144	H	1.017899	-0.679887	-0.697088
O145	O	1.069702	-0.481864	-0.767044
C146	C	1.120145	-0.504207	-0.845253
H147	H	1.091649	-0.502711	-0.924954
H148	H	1.169667	-0.465007	-0.845871
H149	H	1.139911	-0.562970	-0.828178
