data_functionalizedCrystal
_audit_creation_method	'MofGen! by Chris Wilmer'
_symmetry_space_group_name_H-M	'P1'
_symmetry_Int_Tables_number	1
_symmetry_cell_setting	triclinic
loop_
_symmetry_equiv_pos_as_xyz
  x,y,z
_cell_length_a	17.640112
_cell_length_b	17.638032
_cell_length_c	17.639306
_cell_angle_alpha	87.868654
_cell_angle_beta	87.804122
_cell_angle_gamma	65.665633
loop_
_atom_site_label
_atom_site_type_symbol
_atom_site_fract_x
_atom_site_fract_y
_atom_site_fract_z
Zn1	Zn	1.223633	0.103263	-0.179034
Zn2	Zn	1.171376	0.216821	-0.034429
Zn3	Zn	1.068509	0.113865	-0.076041
Zn4	Zn	1.057915	0.268959	-0.178906
O5	O	1.130358	0.175727	-0.117103
O6	O	1.329104	0.092070	-0.142491
O7	O	1.140295	0.185780	0.063618
O8	O	1.115390	0.000027	-0.107172
O9	O	1.290711	0.175500	-0.036250
O10	O	1.229358	-0.007762	-0.182841
O11	O	1.064719	0.110139	0.033046
O12	O	0.954701	0.160695	-0.107047
O13	O	1.097334	0.264362	-0.282490
O14	O	0.946917	0.274642	-0.182622
O15	O	1.219086	0.142626	-0.282585
O16	O	1.130022	0.336169	-0.036126
O17	O	1.046663	0.374474	-0.142273
C18	C	0.921664	0.224477	-0.149337
C19	C	0.832382	0.245355	-0.163141
C20	C	1.081547	0.384471	-0.084683
C21	C	1.060743	0.473760	-0.070827
C22	C	1.162857	0.208128	-0.310142
C23	C	1.176706	0.221935	-0.392404
C24	C	0.559042	0.017107	-0.012241
C25	C	0.475146	0.036743	-0.025220
C26	C	0.467035	0.155510	-0.103730
C27	C	0.550934	0.135881	-0.090761
C28	C	0.596930	0.066680	-0.045015
C29	C	0.588822	0.185454	-0.123535
C30	C	0.672711	0.165830	-0.110564
C31	C	0.718713	0.096632	-0.064818
C32	C	0.680820	0.047055	-0.032044
C33	C	0.542822	0.254659	-0.169277
C34	C	0.580710	0.304232	-0.202051
C35	C	0.664603	0.284604	-0.189084
C36	C	0.710604	0.215407	-0.143338
C37	C	0.702496	0.334181	-0.221858
C38	C	0.786385	0.314557	-0.208887
C39	C	0.794494	0.195782	-0.130367
C40	C	1.339868	0.126787	-0.084743
C41	C	1.429148	0.105932	-0.070954
C42	C	1.288839	0.746938	-0.222515
C43	C	1.269263	0.830842	-0.209486
C44	C	1.150640	0.839029	-0.130590
C45	C	1.170209	0.755123	-0.143609
C46	C	1.239309	0.709084	-0.189573
C47	C	1.120679	0.717268	-0.110667
C48	C	1.140244	0.633371	-0.123689
C49	C	1.209339	0.587327	-0.169652
C50	C	1.258873	0.625186	-0.202595
C51	C	1.051576	0.763310	-0.064708
C52	C	1.002046	0.725456	-0.031766
C53	C	1.021614	0.641555	-0.044783
C54	C	1.090709	0.595512	-0.090747
C55	C	0.972079	0.603696	-0.011841
C56	C	0.991644	0.519798	-0.024863
C57	C	1.110273	0.511614	-0.103768
C58	C	1.179359	0.966170	-0.149662
C59	C	1.200176	0.876882	-0.163534
C60	C	1.025530	0.070463	-0.742554
C61	C	1.038558	0.083449	-0.819846
C62	C	1.117247	0.162206	-0.787995
C63	C	1.104229	0.149223	-0.710698
C64	C	1.058370	0.103351	-0.687985
C65	C	1.137069	0.182111	-0.656129
C66	C	1.124048	0.169132	-0.578839
C67	C	1.078189	0.123265	-0.556119
C68	C	1.045349	0.090372	-0.610695
C69	C	1.182923	0.227988	-0.678844
C70	C	1.215762	0.260876	-0.624275
C71	C	1.202747	0.247893	-0.546984
C72	C	1.156888	0.202025	-0.524263
C73	C	1.235587	0.280785	-0.492408
C74	C	1.222566	0.267806	-0.415118
C75	C	1.143867	0.189046	-0.446974
C76	C	1.098046	0.143384	0.075184
C77	C	1.084405	0.129314	0.157434
H78	H	0.831952	0.139421	-0.093129
C79	C	1.167048	0.211950	-0.812811
C80	C	1.171439	0.216263	-0.892178
C81	C	1.217320	0.262070	-0.915064
H82	H	1.140591	0.266586	-0.793644
H83	H	1.221661	0.185448	-0.793675
H84	H	1.116836	0.242767	-0.911307
H85	H	1.197903	0.161640	-0.911366
H86	H	1.271933	0.235568	-0.895927
H87	H	1.190859	0.316703	-0.895892
H88	H	1.220312	0.264996	-0.968916
C89	C	0.827390	0.368451	-0.244572
C90	C	0.769161	0.433240	-0.287429
C91	C	0.806907	0.482900	-0.320319
H92	H	0.847167	0.391079	-0.205791
H93	H	0.872714	0.335559	-0.276607
H94	H	0.723852	0.466128	-0.255396
H95	H	0.749380	0.410636	-0.326222
H96	H	0.852231	0.450008	-0.352354
H97	H	0.826682	0.505522	-0.281533
H98	H	0.767406	0.526860	-0.349407
H99	H	1.225267	0.519012	-0.180253
C100	C	0.926978	0.775578	0.018027
C101	C	0.871273	0.842840	-0.024309
C102	C	0.802117	0.889034	0.021541
H103	H	0.900181	0.741123	0.035803
H104	H	0.944652	0.795756	0.060068
H105	H	0.853598	0.822662	-0.066336
H106	H	0.898043	0.877315	-0.042084
H107	H	0.819792	0.909213	0.063582
H108	H	0.775328	0.854573	0.039314
H109	H	0.764317	0.934681	-0.007175
H110	H	1.345112	0.709449	-0.259937
C111	C	0.608837	-0.058034	0.037485
C112	C	0.557699	-0.097242	0.063428
C113	C	0.603536	-0.166451	0.109247
H114	H	0.654523	-0.095975	0.008828
H115	H	0.628924	-0.040441	0.079635
H116	H	0.537625	-0.114837	0.021285
H117	H	0.512014	-0.059325	0.092096
H118	H	0.623623	-0.148857	0.151398
H119	H	0.649220	-0.204384	0.080585
H120	H	0.568844	-0.193057	0.126861
C121	C	0.975651	0.020780	-0.717775
C122	C	0.906063	0.070843	-0.674271
C123	C	0.860103	0.025104	-0.651421
H124	H	0.957871	0.003029	-0.761271
H125	H	1.009459	-0.026453	-0.688273
H126	H	0.872260	0.118061	-0.703772
H127	H	0.923819	0.088594	-0.630765
H128	H	0.893912	-0.022129	-0.621919
H129	H	0.842329	0.007355	-0.694921
H130	H	0.812887	0.059062	-0.621895
H131	H	1.193525	0.238551	-0.741779
C132	C	0.809753	0.075493	-0.050696
C133	C	0.816444	0.142276	-0.015547
C134	C	0.900296	0.122837	-0.002533
H135	H	0.831806	0.027219	-0.018734
H136	H	0.840041	0.065292	-0.097679
H137	H	0.786168	0.152466	0.031429
H138	H	0.794409	0.190557	-0.047497
H139	H	0.930584	0.112636	-0.049517
H140	H	0.922342	0.074561	0.029427
H141	H	0.904848	0.168148	0.021310
C142	C	0.433918	-0.016962	0.010453
C143	C	0.367142	0.031731	0.057575
C144	C	0.329147	-0.017714	0.090450
H145	H	0.414073	-0.039513	-0.028337
H146	H	0.473288	-0.060978	0.039595
H147	H	0.327779	0.075732	0.028435
H148	H	0.386965	0.054281	0.096379
H149	H	0.368517	-0.061731	0.119592
H150	H	0.309307	-0.040263	0.051654
H151	H	0.283841	0.015314	0.122431
H152	H	0.543247	0.360578	-0.239295
H153	H	1.094378	0.876525	-0.093168
H154	H	0.951310	0.488978	0.001961
C155	C	1.185207	0.461704	-0.153805
C156	C	1.175212	0.498474	-0.226571
C157	C	1.244211	0.452512	-0.272687
H158	H	1.234229	0.460964	-0.132652
H159	H	1.189760	0.406321	-0.156893
H160	H	1.170668	0.553842	-0.223481
H161	H	1.126203	0.499212	-0.247746
H162	H	1.248765	0.397129	-0.275775
H163	H	1.293229	0.451776	-0.251527
H164	H	1.237436	0.477450	-0.322066
H165	H	1.008016	0.053009	-0.592201
H166	H	1.272918	0.318141	-0.510913
H167	H	0.915813	0.641195	0.025576
C168	C	1.064003	0.109344	-0.472179
C169	C	1.021326	0.186327	-0.437876
C170	C	1.008252	0.173537	-0.360551
H171	H	1.031961	0.077360	-0.466363
H172	H	1.116134	0.080440	-0.448805
H173	H	0.969203	0.215218	-0.461242
H174	H	1.053354	0.218323	-0.443671
H175	H	1.060384	0.144633	-0.337177
H176	H	0.976212	0.141551	-0.354742
H177	H	0.979301	0.225767	-0.337265
C178	C	1.002869	0.047634	-0.878980
C179	C	0.959939	0.004669	-0.842541
C180	C	0.927060	-0.028341	-0.896990
H181	H	0.965712	0.091535	-0.909790
H182	H	1.046853	0.010469	-0.909818
H183	H	0.915960	0.041831	-0.811716
H184	H	0.997079	-0.039244	-0.811736
H185	H	0.971043	-0.065505	-0.927828
H186	H	0.889905	0.015566	-0.927796
H187	H	0.897934	-0.057502	-0.872274
C188	C	1.258282	0.303357	-0.355787
C189	C	1.312915	0.238389	-0.310515
C190	C	1.345821	0.271112	-0.255846
H191	H	1.287518	0.332519	-0.380286
H192	H	1.214304	0.340454	-0.324900
H193	H	1.356887	0.201306	-0.341397
H194	H	1.283699	0.209222	-0.285998
H195	H	1.301842	0.308210	-0.224959
H196	H	1.375053	0.300274	-0.280352
H197	H	1.382887	0.227038	-0.225118
C198	C	1.265564	0.310620	-0.649091
C199	C	1.269954	0.314933	-0.728458
C200	C	1.315836	0.360740	-0.751344
H201	H	1.239107	0.365256	-0.629924
H202	H	1.320177	0.284118	-0.629955
H203	H	1.215351	0.341437	-0.747587
H204	H	1.296418	0.260310	-0.747646
H205	H	1.370449	0.334238	-0.732207
H206	H	1.289374	0.415373	-0.732172
H207	H	1.318827	0.363666	-0.805196
C208	C	0.652551	0.409204	-0.271640
C209	C	0.623021	0.383027	-0.333649
C210	C	0.577018	0.452113	-0.379530
H211	H	0.606823	0.447103	-0.242998
H212	H	0.687114	0.435919	-0.289355
H213	H	0.588460	0.356325	-0.315935
H214	H	0.668732	0.345138	-0.362311
H215	H	0.611581	0.478829	-0.397244
H216	H	0.531295	0.490007	-0.350881
H217	H	0.556983	0.434361	-0.421612
C218	C	0.417095	0.230744	-0.153286
C219	C	0.416182	0.302716	-0.121554
C220	C	0.370182	0.372035	-0.167184
H221	H	0.441911	0.224305	-0.202729
H222	H	0.361685	0.235390	-0.156308
H223	H	0.471582	0.298069	-0.118541
H224	H	0.391360	0.309181	-0.072117
H225	H	0.314771	0.376682	-0.170206
H226	H	0.395002	0.365589	-0.216625
H227	H	0.369550	0.420877	-0.145657
H228	H	1.315147	0.587697	-0.240017
H229	H	1.106534	0.151683	-0.428480
C230	C	1.323157	0.871787	-0.245309
C231	C	1.387860	0.813506	-0.288341
C232	C	1.437520	0.851195	-0.321354
H233	H	1.290274	0.917107	-0.277250
H234	H	1.345848	0.891557	-0.206564
H235	H	1.365170	0.793748	-0.327081
H236	H	1.420762	0.768184	-0.256417
H237	H	1.460211	0.870964	-0.282609
H238	H	1.404630	0.896514	-0.353291
H239	H	1.481431	0.811655	-0.350549
C240	C	1.030344	0.854431	-0.050731
C241	C	1.015202	0.898797	-0.120049
C242	C	0.995647	0.982737	-0.107207
H243	H	0.982082	0.876539	-0.018686
H244	H	1.075625	0.859168	-0.027054
H245	H	0.969925	0.894064	-0.143716
H246	H	1.063453	0.876715	-0.152105
H247	H	1.040928	0.987475	-0.083529
H248	H	0.947387	1.004837	-0.075159
H249	H	0.985378	1.012849	-0.154236
H250	H	0.718278	-0.009306	0.005194
H251	H	0.474514	0.270635	-0.179836
