data_functionalizedCrystal
_audit_creation_method	'MofGen! by Chris Wilmer'
_symmetry_space_group_name_H-M	'P1'
_symmetry_Int_Tables_number	1
_symmetry_cell_setting	triclinic
loop_
_symmetry_equiv_pos_as_xyz
  x,y,z
_cell_length_a	10.654550
_cell_length_b	9.016244
_cell_length_c	10.540539
_cell_angle_alpha	90.000067
_cell_angle_beta	84.505197
_cell_angle_gamma	90.010882
loop_
_atom_site_label
_atom_site_type_symbol
_atom_site_fract_x
_atom_site_fract_y
_atom_site_fract_z
O1	O	1.667910	0.123455	0.178295
O2	O	1.302437	0.123430	0.195283
O3	O	1.493512	0.123441	0.002079
O4	O	1.476835	0.123444	0.371499
O5	O	1.493483	-0.123240	0.002084
O6	O	1.302409	-0.123251	0.195287
O7	O	1.667882	-0.123226	0.178300
Cu8	Cu	1.485143	-0.145762	0.186794
Cu9	Cu	1.485176	0.145966	0.186789
O10	O	1.476807	-0.123237	0.371503
C11	C	1.255625	0.000087	0.194038
C12	C	1.116180	0.000078	0.190306
C13	C	1.036734	0.000100	0.304061
C14	C	0.905712	0.000126	0.300547
C15	C	0.933595	0.000113	0.069513
C16	C	1.064614	0.000076	0.073028
C17	C	1.088301	0.000101	0.421338
C18	C	1.008854	0.000125	0.535103
C19	C	0.877832	0.000151	0.531589
C20	C	0.826257	0.000153	0.414310
N21	N	1.485129	-0.350948	0.186797
C22	C	1.382603	-0.585987	0.289801
C23	C	1.382830	-0.414096	0.290187
C24	C	1.616436	-0.413278	0.216883
C25	C	1.615876	-0.585223	0.217612
C26	C	1.457651	-0.585495	0.053368
C27	C	1.454638	-0.413541	0.054234
C28	C	1.714694	0.000121	0.179545
C29	C	1.854139	0.000140	0.183276
C30	C	1.492247	0.000103	-0.045221
C31	C	1.488505	0.000111	-0.186168
N32	N	1.485200	0.351153	0.186776
C33	C	1.345134	0.000655	-0.369543
C34	C	1.348927	0.000100	-0.222926
C35	C	1.555661	-0.140751	-0.247847
C36	C	1.550897	-0.140870	-0.394390
C37	C	1.553768	0.139652	-0.394914
C38	C	1.555054	0.141515	-0.247933
C39	C	1.478072	0.000104	0.418803
C40	C	1.481813	0.000106	0.559750
H41	H	1.129301	0.000062	-0.019601
H42	H	0.891591	0.000138	-0.025970
C43	C	1.277529	0.136507	-0.165343
N44	N	1.223742	0.239249	-0.121977
H45	H	1.284732	-0.627387	0.271984
H46	H	1.639971	-0.625309	0.314941
H47	H	1.641068	-0.370197	0.313112
H48	H	1.400538	-0.372947	0.389164
C49	C	1.270651	0.137111	-0.408169
N50	N	1.214548	0.239890	-0.437275
H51	H	1.694648	-0.372369	0.143891
H52	H	1.285265	-0.371958	0.272090
C53	C	1.406212	-0.644333	0.422761
N54	N	1.423999	-0.688281	0.522905
C55	C	1.722222	-0.641397	0.120209
N56	N	1.802334	-0.683701	0.046862
C57	C	1.270947	-0.135087	-0.410282
N58	N	1.215078	-0.237341	-0.440956
C59	C	1.686505	-0.149518	-0.459245
N60	N	1.788644	-0.156041	-0.508088
H61	H	1.050855	0.000112	0.630586
C62	C	1.331002	-0.644145	0.014696
N63	N	1.235603	-0.688319	-0.014418
H64	H	1.358041	-0.372806	0.031428
C65	C	1.548921	-0.355509	-0.054310
N66	N	1.619953	-0.311812	-0.136061
C67	C	1.694129	-0.147842	-0.217673
N68	N	1.798420	-0.153186	-0.194934
H69	H	1.656818	0.150028	-0.223748
H70	H	1.532456	-0.626143	-0.023314
H71	H	1.295691	-0.101051	-0.181149
C72	C	1.483801	-0.283122	-0.432461
N73	N	1.433258	-0.390267	-0.461129
H74	H	1.508988	-0.245583	-0.205229
H75	H	1.508605	0.246417	-0.426452
C76	C	1.488736	0.282299	-0.192640
N77	N	1.438773	0.388334	-0.150998
C78	C	1.689963	0.140948	-0.458770
N79	N	1.792541	0.141915	-0.506875
H80	H	0.719568	0.000150	0.411458
H81	H	0.813149	0.000156	0.624221
H82	H	1.194984	0.000087	0.424213
