data_functionalizedCrystal
_audit_creation_method	'MofGen! by Chris Wilmer'
_symmetry_space_group_name_H-M	'P1'
_symmetry_Int_Tables_number	1
_symmetry_cell_setting	triclinic
loop_
_symmetry_equiv_pos_as_xyz
  x,y,z
_cell_length_a	11.792254
_cell_length_b	19.188930
_cell_length_c	10.268362
_cell_angle_alpha	89.989600
_cell_angle_beta	89.995475
_cell_angle_gamma	83.671689
loop_
_atom_site_label
_atom_site_type_symbol
_atom_site_fract_x
_atom_site_fract_y
_atom_site_fract_z
O1	O	1.505467	0.095737	-0.108315
O2	O	1.174981	0.105590	-0.108320
O3	O	1.349761	-0.000937	-0.108292
O4	O	1.330687	0.202265	-0.108343
O5	O	1.349746	-0.000942	0.108309
O6	O	1.174966	0.105586	0.108281
O7	O	1.505452	0.095733	0.108286
Cu8	Cu	1.340207	0.100659	0.128061
Cu9	Cu	1.340225	0.100664	-0.128095
O10	O	1.330672	0.202261	0.108258
C11	C	1.132692	0.104968	-0.000019
C12	C	1.006706	0.103110	-0.000020
C13	C	0.904392	0.101600	-0.000025
C14	C	0.776034	0.099713	-0.000026
C15	C	1.349136	-0.026954	0.000012
C16	C	1.347282	-0.104469	0.000023
C17	C	1.449837	-0.148809	0.000031
C18	C	1.448095	-0.221643	0.000010
C19	C	1.343792	-0.250134	0.000008
C20	C	1.241223	-0.205784	-0.000007
C21	C	1.242968	-0.132951	0.000001
N22	N	1.264059	-0.358594	0.073720
N23	N	1.262409	-0.427782	0.073715
C24	C	1.338528	-0.469572	-0.000019
N25	N	1.416378	-0.439562	-0.073731
N26	N	1.418032	-0.370368	-0.073721
C27	C	1.341888	-0.329107	-0.000002
C28	C	1.439202	-0.592887	-0.000035
C29	C	1.437455	-0.665722	-0.000064
C30	C	1.230580	-0.649861	-0.000069
C31	C	1.232330	-0.577028	-0.000053
C32	C	1.336643	-0.548546	-0.000030
C33	C	1.547741	0.096356	-0.000017
C34	C	1.673726	0.098214	-0.000025
C35	C	1.331297	0.228278	-0.000049
C36	C	1.333151	0.305793	-0.000069
N37	N	1.340203	0.100655	0.308227
N38	N	1.340239	0.100663	-0.308261
C39	C	1.340220	0.100663	0.573897
C40	C	1.340207	0.100660	0.426059
H41	H	1.534777	-0.125624	0.000045
H42	H	1.148818	-0.540925	-0.000052
H43	H	1.145654	-0.673057	-0.000077
Br44	Br	1.103774	-0.072771	-0.000013
Br45	Br	1.587287	-0.281831	0.000015
H46	H	1.156298	-0.228985	-0.000012
Br47	Br	1.580766	-0.554229	0.000009
H48	H	1.520972	-0.701824	-0.000065
