data_functionalizedCrystal
_audit_creation_method	'MofGen! by Chris Wilmer'
_symmetry_space_group_name_H-M	'P1'
_symmetry_Int_Tables_number	1
_symmetry_cell_setting	triclinic
loop_
_symmetry_equiv_pos_as_xyz
  x,y,z
_cell_length_a	16.109301
_cell_length_b	10.654550
_cell_length_c	14.586319
_cell_angle_alpha	89.996358
_cell_angle_beta	89.999213
_cell_angle_gamma	83.973206
loop_
_atom_site_label
_atom_site_type_symbol
_atom_site_fract_x
_atom_site_fract_y
_atom_site_fract_z
O1	O	1.104091	0.161419	-0.076182
O2	O	0.862148	0.181507	-0.076197
O3	O	0.988682	-0.011352	-0.076183
O4	O	0.977557	0.354278	-0.076195
O5	O	0.988673	-0.011354	0.076298
O6	O	0.862139	0.181504	0.076284
O7	O	1.104082	0.161416	0.076299
Cu8	Cu	0.983110	0.171460	0.090214
Cu9	Cu	0.983120	0.171463	-0.090112
O10	O	0.977548	0.354275	0.076285
C11	C	0.831164	0.180692	0.000042
C12	C	0.738854	0.178253	0.000037
C13	C	0.517228	0.287019	0.000044
C14	C	0.430494	0.284717	0.000049
C15	C	0.449008	0.055896	0.000053
C16	C	0.535741	0.058199	0.000054
C17	C	0.569848	0.173764	0.000044
C18	C	0.396382	0.169159	0.000050
C19	C	0.302341	0.166662	0.000056
C20	C	0.663895	0.176262	0.000040
C21	C	0.987861	-0.058140	0.000057
C22	C	0.985417	-0.197550	0.000055
C23	C	1.059918	-0.278046	0.000059
C24	C	1.057616	-0.409036	0.000048
C25	C	0.906306	-0.379020	0.000032
C26	C	0.908608	-0.248033	0.000037
C27	C	1.145364	-0.606070	-0.053373
C28	C	1.219869	-0.686572	-0.053353
C29	C	1.287407	-0.657317	0.000086
C30	C	1.280443	-0.547563	0.053528
C31	C	1.205937	-0.467068	0.053516
C32	C	1.138402	-0.496322	0.000056
C33	C	0.820866	-0.050997	0.053465
C34	C	0.746359	0.029500	0.053460
C35	C	0.678814	0.000249	0.000026
C36	C	0.685770	-0.109507	-0.053402
C37	C	0.760277	-0.190004	-0.053397
C38	C	0.827822	-0.160745	0.000036
C39	C	1.135066	0.162231	0.000058
C40	C	1.227376	0.164671	0.000058
C41	C	0.978369	0.401063	0.000043
C42	C	0.980813	0.540473	0.000039
N43	N	0.983108	0.171457	0.217046
N44	N	0.983128	0.171457	-0.216944
C45	C	1.039156	0.086088	0.452058
C46	C	1.039159	0.086084	0.548040
C47	C	0.927074	0.256830	0.548037
C48	C	0.927068	0.256826	0.452058
C49	C	0.983114	0.171456	0.404071
C50	C	0.983122	0.171457	0.596031
C51	C	0.983124	0.171455	0.700099
C52	C	0.983111	0.171457	0.299997
H53	H	0.544996	0.381119	0.000043
C54	C	0.738707	0.150232	0.112229
H55	H	0.789609	0.156137	0.144045
H56	H	0.694637	0.147213	0.155182
H57	H	0.727169	0.221837	0.073706
C58	C	0.411486	-0.071215	0.000052
H59	H	0.352295	-0.056368	0.000042
H60	H	0.429501	-0.117854	0.053224
H61	H	0.429507	-0.117835	-0.053129
C62	C	0.895170	-0.018820	0.112240
H63	H	0.940542	-0.082471	0.104582
H64	H	0.879143	-0.014390	0.174925
H65	H	0.911673	0.060252	0.093457
C66	C	1.100809	-0.007816	0.600822
H67	H	1.134188	-0.058650	0.558493
H68	H	1.070607	-0.060109	0.638270
H69	H	1.135679	0.037386	0.638257
H70	H	1.122460	-0.236948	0.000072
H71	H	0.578586	-0.034032	0.000057
C72	C	1.100796	-0.007826	0.399275
H73	H	1.134167	-0.058676	0.441605
H74	H	1.135664	0.037356	0.361826
H75	H	1.070579	-0.060120	0.361843
C76	C	0.767935	-0.310734	-0.112168
H77	H	0.821980	-0.354488	-0.104506
H78	H	0.759544	-0.288788	-0.174855
H79	H	0.727011	-0.363421	-0.093385
H80	H	0.881444	0.326338	0.587118
C81	C	0.865421	0.350739	0.399268
H82	H	0.832051	0.401595	0.441592
H83	H	0.830552	0.305547	0.361831
H84	H	0.895633	0.403029	0.361821
H85	H	1.200265	-0.377712	0.097031
C86	C	1.354735	-0.515394	0.112318
H87	H	1.400108	-0.579047	0.104665
H88	H	1.338701	-0.510964	0.175001
H89	H	1.371242	-0.436322	0.093539
H90	H	1.348071	-0.722871	0.000101
C91	C	0.611474	-0.141685	-0.112185
H92	H	0.566108	-0.078018	-0.104545
H93	H	0.594967	-0.220751	-0.093411
H94	H	0.627510	-0.146112	-0.174874
C95	C	1.227536	-0.807288	-0.112140
H96	H	1.281578	-0.851046	-0.104466
H97	H	1.219159	-0.785333	-0.174827
H98	H	1.186606	-0.859977	-0.093373
C99	C	1.071076	-0.638239	-0.112169
H100	H	1.025709	-0.574572	-0.104537
H101	H	1.054566	-0.717305	-0.093401
H102	H	1.087123	-0.642664	-0.174854
H103	H	0.843771	-0.420140	0.000019
H104	H	0.618142	0.065794	0.000039
H105	H	0.387654	0.376940	0.000051
