data_functionalizedCrystal
_audit_creation_method	'MofGen! by Chris Wilmer'
_symmetry_space_group_name_H-M	'P1'
_symmetry_Int_Tables_number	1
_symmetry_cell_setting	triclinic
loop_
_symmetry_equiv_pos_as_xyz
  x,y,z
_cell_length_a	21.295420
_cell_length_b	21.295417
_cell_length_c	19.805399
_cell_angle_alpha	89.967749
_cell_angle_beta	89.984007
_cell_angle_gamma	90.026289
loop_
_atom_site_label
_atom_site_type_symbol
_atom_site_fract_x
_atom_site_fract_y
_atom_site_fract_z
Zn1	Zn	0.962302	-0.250686	-0.382688
Zn2	Zn	1.295635	0.082647	-0.049355
Zn3	Zn	1.628969	0.415981	0.283979
Zn4	Zn	0.962220	-0.355957	-0.269493
Zn5	Zn	1.295553	-0.022624	0.063840
Zn6	Zn	1.628887	0.310709	0.397173
Zn7	Zn	0.857041	-0.250698	-0.269514
Zn8	Zn	1.190374	0.082635	0.063819
Zn9	Zn	1.523708	0.415969	0.397152
Zn10	Zn	0.856995	-0.355913	-0.382642
Zn11	Zn	1.190328	-0.022580	-0.049309
Zn12	Zn	1.523661	0.310753	0.284025
O13	O	0.909639	-0.303314	-0.326084
O14	O	1.242973	0.030020	0.007249
O15	O	1.576306	0.363353	0.340582
O16	O	1.050380	-0.264664	-0.367683
O17	O	1.383714	0.068670	-0.034350
O18	O	1.717047	0.402003	0.298984
O19	O	0.948253	-0.342018	-0.174780
O20	O	1.281586	-0.008684	0.158554
O21	O	1.614920	0.324649	0.491887
O22	O	0.871058	-0.162607	-0.284555
O23	O	1.204391	0.170726	0.048778
O24	O	1.537724	0.504060	0.382111
O25	O	1.050320	-0.342006	-0.284519
O26	O	1.383654	-0.008673	0.048814
O27	O	1.716987	0.324661	0.382147
O28	O	0.948392	-0.162598	-0.367704
O29	O	1.281726	0.170735	-0.034370
O30	O	1.615059	0.504069	0.298963
O31	O	0.870978	-0.264684	-0.174795
O32	O	1.204312	0.068649	0.158538
O33	O	1.537645	0.401982	0.491872
O34	O	0.768945	-0.264642	-0.284511
O35	O	1.102279	0.068691	0.048823
O36	O	1.435612	0.402025	0.382156
O37	O	0.870979	-0.341931	-0.477365
O38	O	1.204312	-0.008598	-0.144031
O39	O	1.537645	0.324735	0.189302
O40	O	0.768911	-0.341943	-0.367625
O41	O	1.102245	-0.008610	-0.034291
O42	O	1.435578	0.324723	0.299042
O43	O	0.948347	-0.264621	-0.477399
O44	O	1.281681	0.068712	-0.144065
O45	O	1.615014	0.402046	0.189268
O46	O	0.948208	-0.444041	-0.284475
O47	O	1.281541	-0.110707	0.048859
O48	O	1.614875	0.222626	0.382192
O49	O	0.870899	-0.444009	-0.367604
O50	O	1.204233	-0.110675	-0.034271
O51	O	1.537566	0.222658	0.299062
C52	C	0.746088	-0.303290	-0.326065
C53	C	1.079421	0.030044	0.007268
C54	C	1.412754	0.363377	0.340601
C55	C	0.676120	-0.303294	-0.326073
C56	C	1.009453	0.030039	0.007260
C57	C	1.342786	0.363372	0.340593
C58	C	0.176692	-0.263136	-0.369468
C59	C	0.510026	0.070197	-0.036135
C60	C	0.843359	0.403530	0.297198
C61	C	0.242435	-0.263132	-0.369468
C62	C	0.575768	0.070202	-0.036135
C63	C	0.909102	0.403535	0.297198
C64	C	0.275280	-0.303333	-0.326100
C65	C	0.608614	0.030001	0.007233
C66	C	0.941947	0.363334	0.340566
C67	C	0.242378	-0.343553	-0.282741
C68	C	0.575711	-0.010220	0.050592
C69	C	0.909044	0.323114	0.383925
C70	C	0.176636	-0.343561	-0.282747
C71	C	0.509970	-0.010228	0.050586
C72	C	0.843303	0.323106	0.383919
N73	N	0.378478	-0.308079	-0.266834
N74	N	0.711812	0.025255	0.066500
N75	N	1.045145	0.358588	0.399833
N76	N	0.440930	-0.308067	-0.266830
N77	N	0.774263	0.025266	0.066503
N78	N	1.107596	0.358599	0.399837
C79	C	0.473355	-0.303312	-0.326080
C80	C	0.806688	0.030021	0.007253
C81	C	1.140022	0.363355	0.340586
N82	N	0.440969	-0.298556	-0.385336
N83	N	0.774303	0.034777	-0.052003
N84	N	1.107636	0.368110	0.281331
N85	N	0.378512	-0.298564	-0.385339
N86	N	0.711846	0.034769	-0.052006
N87	N	1.045179	0.368102	0.281328
C88	C	0.346566	-0.303329	-0.326089
C89	C	0.679899	0.030004	0.007244
C90	C	1.013232	0.363338	0.340578
C91	C	0.577535	-0.263092	-0.369440
C92	C	0.910868	0.070241	-0.036106
C93	C	1.244202	0.403574	0.297227
C94	C	0.643279	-0.263092	-0.369441
C95	C	0.976612	0.070241	-0.036108
C96	C	1.309946	0.403574	0.297226
C97	C	0.643220	-0.343510	-0.282708
C98	C	0.976554	-0.010177	0.050625
C99	C	1.309887	0.323156	0.383959
C100	C	0.577478	-0.343514	-0.282713
C101	C	0.910811	-0.010180	0.050620
C102	C	1.244145	0.323153	0.383954
C103	C	0.544639	-0.303302	-0.326078
C104	C	0.877973	0.030032	0.007255
C105	C	1.211306	0.363365	0.340589
C106	C	0.909557	-0.466865	-0.326047
C107	C	1.242890	-0.133532	0.007286
C108	C	1.576224	0.199801	0.340620
C109	C	0.909579	-0.536833	-0.326054
C110	C	1.242912	-0.203500	0.007280
C111	C	1.576246	0.129833	0.340613
C112	C	0.949870	-0.569696	-0.282812
C113	C	1.283203	-0.236363	0.050521
C114	C	1.616536	0.096971	0.383854
C115	C	0.949899	-0.635438	-0.282828
C116	C	1.283232	-0.302105	0.050506
C117	C	1.616566	0.031228	0.383839
C118	C	0.909627	-0.668316	-0.326077
C119	C	1.242960	-0.334983	0.007256
C120	C	1.576294	-0.001649	0.340590
C121	C	0.869334	-0.635445	-0.369327
C122	C	1.202667	-0.302112	-0.035993
C123	C	1.536000	0.031221	0.297340
C124	C	0.869310	-0.569704	-0.369315
C125	C	1.202643	-0.236371	-0.035982
C126	C	1.535976	0.096962	0.297352
N127	N	0.854559	-0.771578	-0.331230
N128	N	1.187892	-0.438244	0.002103
N129	N	1.521226	-0.104911	0.335436
N130	N	0.854584	-0.834029	-0.331238
N131	N	1.187917	-0.500696	0.002096
N132	N	1.521250	-0.167362	0.335429
C133	C	0.909697	-0.866391	-0.326116
C134	C	1.243031	-0.533057	0.007218
C135	C	1.576364	-0.199724	0.340551
N136	N	0.964787	-0.833941	-0.320973
N137	N	1.298120	-0.500608	0.012360
N138	N	1.631454	-0.167275	0.345693
N139	N	0.964762	-0.771484	-0.320963
N140	N	1.298095	-0.438151	0.012371
N141	N	1.631428	-0.104818	0.345704
C142	C	0.909649	-0.739601	-0.326095
C143	C	1.242982	-0.406268	0.007239
C144	C	1.576315	-0.072935	0.340572
C145	C	0.950023	-0.970539	-0.282889
C146	C	1.283357	-0.637205	0.050445
C147	C	1.616690	-0.303872	0.383778
C148	C	0.950054	-1.036282	-0.282909
C149	C	1.283387	-0.702949	0.050425
C150	C	1.616720	-0.369616	0.383758
C151	C	0.869483	-1.036288	-0.369404
C152	C	1.202816	-0.702955	-0.036071
C153	C	1.536149	-0.369621	0.297262
C154	C	0.869458	-0.970546	-0.369388
C155	C	1.202791	-0.637212	-0.036054
C156	C	1.536124	-0.303879	0.297279
C157	C	0.909727	-0.937675	-0.326126
C158	C	1.243061	-0.604342	0.007207
C159	C	1.576394	-0.271008	0.340540
C160	C	1.073830	-0.303338	-0.326104
C161	C	1.407163	0.029995	0.007229
C162	C	1.740496	0.363328	0.340563
C163	C	1.143798	-0.303349	-0.326112
C164	C	1.477131	0.029985	0.007221
C165	C	1.810464	0.363318	0.340554
C166	C	0.909739	-0.139123	-0.326137
C167	C	1.243073	0.194210	0.007196
C168	C	1.576406	0.527543	0.340530
C169	C	0.909782	-0.069155	-0.326159
C170	C	1.243115	0.264178	0.007174
C171	C	1.576449	0.597511	0.340507
C172	C	0.909667	-0.303270	-0.502627
C173	C	1.243000	0.030063	-0.169294
C174	C	1.576334	0.363397	0.164039
C175	C	0.909679	-0.303251	-0.577859
C176	C	1.243012	0.030082	-0.244526
C177	C	1.576345	0.363415	0.088807
C178	C	0.869453	-0.262980	-0.613211
C179	C	1.202787	0.070353	-0.279878
C180	C	1.536120	0.403687	0.053456
C181	C	0.869462	-0.262968	-0.683899
C182	C	1.202795	0.070366	-0.350566
C183	C	1.536129	0.403699	-0.017233
C184	C	0.909700	-0.303224	-0.719235
C185	C	1.243033	0.030109	-0.385902
C186	C	1.576366	0.363442	-0.052568
C187	C	0.949927	-0.343500	-0.683878
C188	C	1.283260	-0.010167	-0.350545
C189	C	1.616594	0.323167	-0.017212
C190	C	0.949915	-0.343515	-0.613191
C191	C	1.283248	-0.010182	-0.279858
C192	C	1.616581	0.323152	0.053476
C193	C	0.949977	-0.343441	-0.968952
C194	C	1.283310	-0.010108	-0.635618
C195	C	1.616644	0.323226	-0.302285
C196	C	0.949987	-0.343422	-1.039644
C197	C	1.283321	-0.010088	-0.706311
C198	C	1.616654	0.323245	-0.372977
C199	C	0.869524	-0.262894	-1.039660
C200	C	1.202858	0.070439	-0.706327
C201	C	1.536191	0.403773	-0.372993
C202	C	0.869512	-0.262909	-0.968973
C203	C	1.202845	0.070424	-0.635640
C204	C	1.536179	0.403758	-0.302306
C205	C	0.909736	-0.303187	-0.933622
C206	C	1.243070	0.030147	-0.600289
C207	C	1.576403	0.363480	-0.266956
C208	C	0.909726	-0.303200	-0.856974
C209	C	1.243059	0.030133	-0.523641
C210	C	1.576392	0.363466	-0.190307
C211	C	0.909714	-0.303208	-0.795882
C212	C	1.243047	0.030126	-0.462549
C213	C	1.576381	0.363459	-0.129215
C214	C	0.909648	-0.303312	-0.150229
C215	C	1.242981	0.030022	0.183105
C216	C	1.576315	0.363355	0.516438
C217	C	0.909758	-0.303153	-0.074997
C218	C	1.243092	0.030180	0.258336
C219	C	1.576425	0.363514	0.591670
H220	H	0.550796	-0.230349	-0.404750
H221	H	0.884130	0.102984	-0.071417
H222	H	1.217463	0.436317	0.261917
O223	O	0.826136	-0.219454	-1.077792
O224	O	1.159469	0.113880	-0.744459
O225	O	1.492802	0.447213	-0.411126
H226	H	0.798161	-0.191458	-1.041345
H227	H	1.131494	0.141875	-0.708011
H228	H	1.464828	0.475209	-0.374678
O229	O	0.541993	-0.386882	-0.235945
O230	O	0.875326	-0.053548	0.097388
O231	O	1.208660	0.279785	0.430722
H232	H	0.512036	-0.358668	-0.201572
H233	H	0.845369	-0.025335	0.131762
H234	H	1.178703	0.307998	0.465095
H235	H	0.982755	-0.376206	-1.068412
H236	H	1.316089	-0.042872	-0.735079
H237	H	1.649422	0.290461	-0.401745
O238	O	0.993517	-1.071725	-0.236267
O239	O	1.326851	-0.738391	0.097067
O240	O	1.660184	-0.405058	0.430400
H241	H	1.025545	-1.101621	-0.266598
H242	H	1.358878	-0.768287	0.066735
H243	H	1.692212	-0.434954	0.400068
O244	O	0.993309	-0.534241	-0.236164
O245	O	1.326643	-0.200907	0.097170
O246	O	1.659976	0.132426	0.430503
H247	H	1.021336	-0.568141	-0.206103
H248	H	1.354670	-0.234808	0.127230
H249	H	1.688003	0.098525	0.460564
O250	O	0.993351	-0.670896	-0.236182
O251	O	1.326684	-0.337562	0.097152
O252	O	1.660018	-0.004229	0.430485
H253	H	1.021345	-0.636994	-0.206094
H254	H	1.354678	-0.303660	0.127239
H255	H	1.688011	0.029673	0.460572
O256	O	0.678636	-0.386868	-0.235926
O257	O	1.011970	-0.053535	0.097407
O258	O	1.345303	0.279799	0.430740
H259	H	0.708592	-0.418925	-0.266152
H260	H	1.041925	-0.085592	0.067181
H261	H	1.375258	0.247741	0.400515
O262	O	0.141277	-0.219768	-0.416244
O263	O	0.474610	0.113565	-0.082911
O264	O	0.807944	0.446898	0.250423
H265	H	0.090036	-0.226524	-0.408963
H266	H	0.423369	0.106809	-0.075629
H267	H	0.756702	0.440142	0.257704
O268	O	0.993306	-0.386944	-0.575056
O269	O	1.326640	-0.053610	-0.241723
O270	O	1.659973	0.279723	0.091610
H271	H	1.021294	-0.414929	-0.611501
H272	H	1.354628	-0.081595	-0.278168
H273	H	1.687961	0.251738	0.055165
O274	O	0.826058	-0.219555	-0.575101
O275	O	1.159391	0.113778	-0.241768
O276	O	1.492725	0.447111	0.091566
H277	H	0.776647	-0.230342	-0.588653
H278	H	1.109981	0.102991	-0.255320
H279	H	1.443314	0.436324	0.078013
H280	H	0.836695	-1.063056	-0.404622
H281	H	1.170028	-0.729723	-0.071288
H282	H	1.503362	-0.396390	0.262045
H283	H	0.836647	-0.943787	-0.404596
H284	H	1.169980	-0.610454	-0.071263
H285	H	1.503314	-0.277121	0.262071
H286	H	0.982686	-0.376281	-0.712654
H287	H	1.316019	-0.042947	-0.379321
H288	H	1.649353	0.290386	-0.045987
O289	O	0.277924	-0.219755	-0.416230
O290	O	0.611257	0.113579	-0.082897
O291	O	0.944591	0.446912	0.250437
H292	H	0.307877	-0.187698	-0.385986
H293	H	0.641210	0.145636	-0.052653
H294	H	0.974544	0.478969	0.280681
H295	H	0.269125	-0.376287	-0.247433
H296	H	0.602458	-0.042953	0.085901
H297	H	0.935791	0.290380	0.419234
O298	O	0.826082	-0.219527	-0.722032
O299	O	1.159415	0.113806	-0.388698
O300	O	1.492749	0.447139	-0.055365
H301	H	0.798108	-0.191530	-0.685585
H302	H	1.131441	0.141803	-0.352252
H303	H	1.464774	0.475137	-0.018918
O304	O	0.141154	-0.386928	-0.235973
O305	O	0.474487	-0.053594	0.097360
O306	O	0.807821	0.279739	0.430693
H307	H	0.153758	-0.436346	-0.247478
H308	H	0.487092	-0.103013	0.085855
H309	H	0.820425	0.230321	0.419188
O310	O	0.678763	-0.219714	-0.416200
O311	O	1.012097	0.113620	-0.082867
O312	O	1.345430	0.446953	0.250467
H313	H	0.644881	-0.191749	-0.446347
H314	H	0.978214	0.141584	-0.113013
H315	H	1.311548	0.474918	0.220320
O316	O	0.825889	-0.670900	-0.415969
O317	O	1.159222	-0.337567	-0.082635
O318	O	1.492555	-0.004234	0.250698
H319	H	0.832667	-0.722136	-0.408705
H320	H	1.166000	-0.388803	-0.075372
H321	H	1.499333	-0.055469	0.257962
O322	O	0.825840	-0.534253	-0.415943
O323	O	1.159174	-0.200920	-0.082609
O324	O	1.492507	0.132414	0.250724
H325	H	0.797836	-0.568157	-0.446016
H326	H	1.131169	-0.234823	-0.112683
H327	H	1.464502	0.098510	0.220651
O328	O	0.993462	-0.935077	-0.236241
O329	O	1.326795	-0.601744	0.097093
O330	O	1.660128	-0.268411	0.430426
H331	H	1.021493	-0.968977	-0.206182
H332	H	1.354826	-0.635643	0.127151
H333	H	1.688159	-0.302310	0.460484
H334	H	0.836748	-0.230126	-0.940206
H335	H	1.170082	0.103208	-0.606873
H336	H	1.503415	0.436541	-0.273540
O337	O	0.993375	-0.386865	-0.930827
O338	O	1.326709	-0.053532	-0.597494
O339	O	1.660042	0.279801	-0.264160
H340	H	1.021365	-0.414844	-0.967276
H341	H	1.354699	-0.081511	-0.633942
H342	H	1.688032	0.251822	-0.300609
