data_functionalizedCrystal
_audit_creation_method	'MofGen! by Chris Wilmer'
_symmetry_space_group_name_H-M	'P1'
_symmetry_Int_Tables_number	1
_symmetry_cell_setting	triclinic
loop_
_symmetry_equiv_pos_as_xyz
  x,y,z
_cell_length_a	29.839134
_cell_length_b	29.839131
_cell_length_c	29.839126
_cell_angle_alpha	90.031806
_cell_angle_beta	90.029638
_cell_angle_gamma	90.030088
loop_
_atom_site_label
_atom_site_type_symbol
_atom_site_fract_x
_atom_site_fract_y
_atom_site_fract_z
Zn1	Zn	0.686773	-0.178949	0.254101
Zn2	Zn	1.186773	0.321051	0.754101
Zn3	Zn	0.686703	-0.254070	0.178961
Zn4	Zn	1.186703	0.245930	0.678961
Zn5	Zn	0.611646	-0.178948	0.178971
Zn6	Zn	1.111646	0.321052	0.678971
Zn7	Zn	0.611612	-0.254046	0.254049
Zn8	Zn	1.111612	0.245954	0.754049
O9	O	0.649183	-0.216503	0.216521
O10	O	1.149183	0.283497	0.716521
O11	O	0.749631	-0.188925	0.244151
O12	O	1.249631	0.311075	0.744151
O13	O	0.676732	-0.244114	0.116095
O14	O	1.176732	0.255886	0.616095
O15	O	0.621655	-0.116081	0.188963
O16	O	1.121655	0.383919	0.688963
O17	O	0.749579	-0.244115	0.188946
O18	O	1.249579	0.255885	0.688946
O19	O	0.676851	-0.116082	0.244161
O20	O	1.176851	0.383918	0.744161
O21	O	0.621587	-0.188922	0.116102
O22	O	1.121587	0.311078	0.616102
O23	O	0.548774	-0.188899	0.188912
O24	O	1.048774	0.311101	0.688912
O25	O	0.621597	-0.244075	0.316923
O26	O	1.121597	0.255925	0.816923
O27	O	0.548749	-0.244074	0.244073
O28	O	1.048749	0.255926	0.744073
O29	O	0.676818	-0.188902	0.316961
O30	O	1.176818	0.311098	0.816961
O31	O	0.676699	-0.316934	0.188896
O32	O	1.176699	0.183066	0.688896
O33	O	0.621529	-0.316917	0.244063
O34	O	1.121529	0.183083	0.744063
C35	C	0.532461	-0.216484	0.216488
C36	C	1.032461	0.283516	0.716488
C37	C	0.482526	-0.216487	0.216485
C38	C	0.982526	0.283513	0.716485
C39	C	0.172879	-0.245275	0.245207
C40	C	0.672879	0.254725	0.745207
C41	C	-0.014794	-0.245288	0.245227
C42	C	0.485206	0.254712	0.745227
O43	O	-0.039062	-0.269743	0.269629
O44	O	0.460938	0.230257	0.769629
N45	N	-0.038259	-0.216520	0.216554
N46	N	0.461741	0.283480	0.716554
C47	C	-0.014803	-0.187744	0.187877
C48	C	0.485197	0.312256	0.687877
O49	O	-0.039067	-0.163273	0.163492
O50	O	0.460933	0.336727	0.663492
C51	C	0.172870	-0.187730	0.187859
C52	C	0.672870	0.312270	0.687859
C53	C	0.196332	-0.216503	0.216531
C54	C	0.696332	0.283497	0.716531
C55	C	0.196342	-0.274046	0.273877
C56	C	0.696342	0.225954	0.773877
C57	C	0.243257	-0.274044	0.273870
C58	C	0.743257	0.225956	0.773870
C59	C	0.266710	-0.245272	0.245193
C60	C	0.766710	0.254728	0.745193
C61	C	0.243248	-0.216501	0.216524
C62	C	0.743248	0.283499	0.716524
C63	C	0.196325	-0.158953	0.159184
C64	C	0.696325	0.341047	0.659184
C65	C	0.243246	-0.158951	0.159183
C66	C	0.743246	0.341049	0.659183
C67	C	0.266708	-0.187724	0.187855
C68	C	0.766708	0.312276	0.687855
C69	C	0.313616	-0.187727	0.187840
C70	C	0.813616	0.312273	0.687840
N71	N	0.337081	-0.216495	0.216513
N72	N	0.837081	0.283505	0.716513
C73	C	0.313628	-0.245268	0.245189
C74	C	0.813628	0.254732	0.745189
C75	C	-0.113333	-0.187755	0.187887
C76	C	0.386667	0.312245	0.687887
C77	C	-0.160251	-0.187759	0.187891
C78	C	0.339749	0.312241	0.687891
C79	C	-0.160239	-0.245302	0.245242
C80	C	0.339761	0.254698	0.745242
C81	C	-0.113320	-0.245300	0.245236
C82	C	0.386680	0.254700	0.745236
C83	C	-0.089868	-0.216523	0.216560
C84	C	0.410132	0.283477	0.716560
C85	C	0.412154	-0.245262	0.245172
C86	C	0.912154	0.254738	0.745172
C87	C	0.459074	-0.245259	0.245161
C88	C	0.959074	0.254741	0.745161
C89	C	0.459057	-0.187715	0.187812
C90	C	0.959057	0.312285	0.687812
C91	C	0.412142	-0.187719	0.187821
C92	C	0.912142	0.312281	0.687821
C93	C	0.388691	-0.216494	0.216505
C94	C	0.888691	0.283506	0.716505
O95	O	0.337913	-0.163281	0.163455
O96	O	0.837913	0.336719	0.663455
O97	O	0.337901	-0.269729	0.269577
O98	O	0.837901	0.230271	0.769577
C99	C	0.125964	-0.245277	0.245214
C100	C	0.625964	0.254723	0.745214
C101	C	0.102501	-0.216506	0.216545
C102	C	0.602501	0.283494	0.716545
C103	C	0.125954	-0.187734	0.187868
C104	C	0.625954	0.312266	0.687868
C105	C	0.055583	-0.216511	0.216548
C106	C	0.555583	0.283489	0.716548
C107	C	0.032131	-0.245283	0.245225
C108	C	0.532131	0.254717	0.745225
C109	C	0.055596	-0.274051	0.273898
C110	C	0.555596	0.225949	0.773898
C111	C	0.102511	-0.274049	0.273891
C112	C	0.602511	0.225951	0.773891
C113	C	0.102489	-0.158966	0.159196
C114	C	0.602489	0.341034	0.659196
C115	C	0.055573	-0.158971	0.159205
C116	C	0.555573	0.341029	0.659205
C117	C	0.032121	-0.187743	0.187881
C118	C	0.532121	0.312257	0.687881
C119	C	0.649115	-0.333226	0.216483
C120	C	1.149115	0.166774	0.716483
C121	C	0.649127	-0.383160	0.216482
C122	C	1.149127	0.116840	0.716482
C123	C	0.677917	-0.692769	0.245303
C124	C	1.177917	-0.192769	0.745303
C125	C	0.677966	-0.880442	0.245330
C126	C	1.177966	-0.380442	0.745330
O127	O	0.702378	-0.904678	0.269807
O128	O	1.202378	-0.404678	0.769807
N129	N	0.649260	-0.903945	0.216570
N130	N	1.149260	-0.403945	0.716570
C131	C	0.620537	-0.880527	0.187804
C132	C	1.120537	-0.380527	0.687804
O133	O	0.596118	-0.904824	0.163346
O134	O	1.096118	-0.404824	0.663346
C135	C	0.620486	-0.692855	0.187780
C136	C	1.120486	-0.192855	0.687780
C137	C	0.649198	-0.669354	0.216538
C138	C	1.149198	-0.169354	0.716538
C139	C	0.706626	-0.669269	0.274060
C140	C	1.206626	-0.169269	0.774060
C141	C	0.706616	-0.622353	0.274051
C142	C	1.206616	-0.122353	0.774051
C143	C	0.677896	-0.598938	0.245286
C144	C	1.177896	-0.098938	0.745286
C145	C	0.649187	-0.622439	0.216529
C146	C	1.149187	-0.122439	0.716529
C147	C	0.591761	-0.669438	0.159016
C148	C	1.091761	-0.169438	0.659016
C149	C	0.591750	-0.622517	0.159013
C150	C	1.091750	-0.122517	0.659013
C151	C	0.620462	-0.599016	0.187771
C152	C	1.120462	-0.099016	0.687771
C153	C	0.620456	-0.552109	0.187755
C154	C	1.120456	-0.052109	0.687755
N155	N	0.649163	-0.528606	0.216515
N156	N	1.149163	-0.028606	0.716515
C157	C	0.677883	-0.552021	0.245280
C158	C	1.177883	-0.052021	0.745280
C159	C	0.620566	-0.979058	0.187818
C160	C	1.120566	-0.479058	0.687818
C161	C	0.620579	-1.025976	0.187824
C162	C	1.120579	-0.525976	0.687824
C163	C	0.678008	-1.025888	0.245351
C164	C	1.178008	-0.525888	0.745351
C165	C	0.677997	-0.978969	0.245342
C166	C	1.177997	-0.478969	0.745342
C167	C	0.649273	-0.955555	0.216578
C168	C	1.149273	-0.455555	0.716578
C169	C	0.677858	-0.453495	0.245259
C170	C	1.177858	0.046505	0.745259
C171	C	0.677846	-0.406575	0.245247
C172	C	1.177846	0.093425	0.745247
C173	C	0.620416	-0.406667	0.187722
C174	C	1.120416	0.093333	0.687722
C175	C	0.620429	-0.453583	0.187732
C176	C	1.120429	0.046417	0.687732
C177	C	0.649152	-0.476995	0.216505
C178	C	1.149152	0.023005	0.716505
O179	O	0.596054	-0.527844	0.163295
O180	O	1.096054	-0.027844	0.663295
O181	O	0.702291	-0.527716	0.269742
O182	O	1.202291	-0.027716	0.769742
C183	C	0.677928	-0.739685	0.245312
C184	C	1.177928	-0.239685	0.745312
C185	C	0.649219	-0.763185	0.216556
C186	C	1.149219	-0.263185	0.716556
C187	C	0.620499	-0.739770	0.187790
C188	C	1.120499	-0.239770	0.687790
C189	C	0.649232	-0.810103	0.216561
C190	C	1.149232	-0.310103	0.716561
C191	C	0.677952	-0.833518	0.245326
C192	C	1.177952	-0.333518	0.745326
C193	C	0.706659	-0.810015	0.274086
C194	C	1.206659	-0.310015	0.774086
C195	C	0.706648	-0.763100	0.274077
C196	C	1.206648	-0.263100	0.774077
C197	C	0.591793	-0.763273	0.159031
C198	C	1.091793	-0.263273	0.659031
C199	C	0.591806	-0.810189	0.159041
C200	C	1.091806	-0.310189	0.659041
C201	C	0.620526	-0.833604	0.187807
C202	C	1.120526	-0.333604	0.687807
C203	C	0.766362	-0.216523	0.216553
C204	C	1.266362	0.283477	0.716553
C205	C	0.816296	-0.216531	0.216567
C206	C	1.316296	0.283469	0.716567
C207	C	0.649211	-0.216486	0.333699
C208	C	1.149211	0.283514	0.833699
C209	C	0.649223	-0.216479	0.383633
C210	C	1.149223	0.283521	0.883633
C211	C	0.649264	-0.099325	0.216568
C212	C	1.149264	0.400675	0.716568
C213	C	0.649299	-0.049390	0.216589
C214	C	1.149299	0.450610	0.716589
C215	C	0.649181	-0.216488	0.099798
C216	C	1.149181	0.283512	0.599798
C217	C	0.649257	-0.216369	0.049864
C218	C	1.149257	0.283631	0.549864
C219	C	0.620518	-0.187695	0.693284
C220	C	1.120518	0.312305	1.193284
C221	C	0.620531	-0.187664	0.880957
C222	C	1.120531	0.312336	1.380957
O223	O	0.596103	-0.163236	0.905227
O224	O	1.096103	0.336764	1.405227
N225	N	0.649244	-0.216394	0.904419
N226	N	1.149244	0.283606	1.404419
C227	C	0.677954	-0.245137	0.880960
C228	C	1.177954	0.254863	1.380960
O229	O	0.702374	-0.269576	0.905222
O230	O	1.202374	0.230424	1.405222
C231	C	0.677939	-0.245170	0.693287
C232	C	1.177939	0.254830	1.193287
C233	C	0.649227	-0.216434	0.669828
C234	C	1.149227	0.283566	1.169828
C235	C	0.591808	-0.158963	0.669824
C236	C	1.091808	0.341037	1.169824
C237	C	0.591807	-0.158969	0.622908
C238	C	1.091807	0.341031	1.122908
C239	C	0.620516	-0.187708	0.599453
C240	C	1.120516	0.312292	1.099453
C241	C	0.649226	-0.216441	0.622912
C242	C	1.149226	0.283559	1.122912
C243	C	0.706647	-0.273914	0.669829
C244	C	1.206647	0.226086	1.169829
C245	C	0.706639	-0.273920	0.622908
C246	C	1.206639	0.226080	1.122908
C247	C	0.677927	-0.245185	0.599448
C248	C	1.177927	0.254815	1.099448
C249	C	0.677934	-0.245186	0.552541
C250	C	1.177934	0.254814	1.052541
N251	N	0.649220	-0.216456	0.529079
N252	N	1.149220	0.283544	1.029079
C253	C	0.620511	-0.187717	0.552535
C254	C	1.120511	0.312283	1.052535
C255	C	0.677961	-0.245117	0.979490
C256	C	1.177961	0.254883	1.479490
C257	C	0.677965	-0.245108	1.026408
C258	C	1.177965	0.254892	1.526408
C259	C	0.620541	-0.187636	1.026402
C260	C	1.120541	0.312364	1.526402
C261	C	0.620540	-0.187643	0.979483
C262	C	1.120540	0.312357	1.479483
C263	C	0.649248	-0.216386	0.956028
C264	C	1.149248	0.283614	1.456028
C265	C	0.620511	-0.187732	0.454009
C266	C	1.120511	0.312268	0.954009
C267	C	0.620514	-0.187740	0.407089
C268	C	1.120514	0.312260	0.907089
C269	C	0.677936	-0.245213	0.407100
C270	C	1.177936	0.254787	0.907100
C271	C	0.677936	-0.245204	0.454015
C272	C	1.177936	0.254796	0.954015
C273	C	0.649219	-0.216462	0.477469
C274	C	1.149219	0.283538	0.977469
O275	O	0.702345	-0.269605	0.528242
O276	O	1.202345	0.230395	1.028242
O277	O	0.596089	-0.163288	0.528264
O278	O	1.096089	0.336712	1.028264
C279	C	0.620519	-0.187689	0.740199
C280	C	1.120519	0.312311	1.240199
C281	C	0.649229	-0.216422	0.763659
C282	C	1.149229	0.283578	1.263659
C283	C	0.677938	-0.245161	0.740203
C284	C	1.177938	0.254839	1.240203
C285	C	0.649234	-0.216413	0.810577
C286	C	1.149234	0.283587	1.310577
C287	C	0.620525	-0.187674	0.834032
C288	C	1.120525	0.312326	1.334032
C289	C	0.591812	-0.158944	0.810570
C290	C	1.091812	0.341056	1.310570
C291	C	0.591811	-0.158950	0.763655
C292	C	1.091811	0.341050	1.263655
C293	C	0.706652	-0.273891	0.763665
C294	C	1.206652	0.226109	1.263665
C295	C	0.706651	-0.273882	0.810580
C296	C	1.206651	0.226118	1.310580
C297	C	0.677942	-0.245143	0.834036
C298	C	1.177942	0.254857	1.334036
H299	H	0.262338	-0.135514	0.135834
H300	H	0.762338	0.364486	0.635834
H301	H	-0.179342	-0.268729	0.268592
H302	H	0.320658	0.231271	0.768592
H303	H	0.568381	-0.688564	0.135597
H304	H	1.068381	-0.188564	0.635597
C305	C	-0.087516	-0.276949	0.276779
C306	C	0.412484	0.223051	0.776779
N307	N	-0.068082	-0.300788	0.300540
N308	N	0.431918	0.199212	0.800540
C309	C	0.029789	-0.305699	0.305443
C310	C	0.529789	0.194301	0.805443
N311	N	0.010348	-0.329534	0.329203
N312	N	0.510348	0.170466	0.829203
H313	H	0.121579	-0.135536	0.135843
H314	H	0.621579	0.364464	0.635843
H315	H	0.729994	-0.603222	0.297470
H316	H	1.229994	-0.103222	0.797470
H317	H	0.568358	-0.603455	0.135590
H318	H	1.068358	-0.103455	0.635590
C319	C	0.738238	-0.305495	0.836381
C320	C	1.238238	0.194505	1.336381
N321	N	0.762026	-0.329309	0.855812
N322	N	1.262026	0.170691	1.355812
H323	H	0.121610	-0.297479	0.297238
H324	H	0.621610	0.202521	0.797238
C325	C	0.738234	-0.737255	0.305713
C326	C	1.238234	-0.237255	0.805713
N327	N	0.762026	-0.717792	0.329544
N328	N	1.262026	-0.217792	0.829544
C329	C	0.709560	-0.276723	0.953696
C330	C	1.209560	0.223277	1.453696
N331	N	0.733367	-0.300523	0.934269
N332	N	1.233367	0.199477	1.434269
H333	H	0.597204	-1.045106	0.164401
H334	H	1.097204	-0.545106	0.664401
C335	C	0.588952	-0.156035	0.953682
C336	C	1.088952	0.343965	1.453682
N337	N	0.565157	-0.132228	0.934251
N338	N	1.065157	0.367772	1.434251
C339	C	0.709523	-0.276811	0.479821
C340	C	1.209523	0.223189	0.979821
N341	N	0.733311	-0.300622	0.499256
N342	N	1.233311	0.199378	0.999256
C343	C	0.709434	-0.380727	0.276883
C344	C	1.209434	0.119273	0.776883
N345	N	0.733225	-0.361260	0.300711
N346	N	1.233225	0.138740	0.800711
H347	H	0.597128	-0.164327	0.473099
H348	H	1.097128	0.335673	0.973099
C349	C	0.560231	-0.127331	0.836381
C350	C	1.060231	0.372669	1.336381
N351	N	0.536445	-0.103524	0.855823
N352	N	1.036445	0.396476	1.355823
H353	H	0.568426	-0.829319	0.135619
H354	H	1.068426	-0.329319	0.635619
C355	C	-0.186055	-0.156109	0.156347
C356	C	0.313945	0.343891	0.656347
N357	N	-0.205488	-0.132267	0.132590
N358	N	0.294512	0.367733	0.632590
H359	H	0.568430	-0.135551	0.744558
H360	H	1.068430	0.364449	1.244558
H361	H	0.568425	-0.135572	0.603812
H362	H	1.068425	0.364428	1.103812
C363	C	0.386365	-0.276919	0.276723
C364	C	0.886365	0.223081	0.776723
N365	N	0.366941	-0.300767	0.300484
N366	N	0.866941	0.199233	0.800484
C367	C	0.560227	-0.127342	0.695618
C368	C	1.060227	0.372658	1.195618
N369	N	0.536441	-0.103519	0.715043
N370	N	1.036441	0.396481	1.215043
H371	H	0.568405	-0.744213	0.135607
H372	H	1.068405	-0.244213	0.635607
H373	H	0.701351	-0.268502	1.045505
H374	H	1.201351	0.231498	1.545505
C375	C	0.588926	-0.156129	0.381286
C376	C	1.088926	0.343871	0.881286
N377	N	0.565134	-0.132321	0.361853
N378	N	1.065134	0.367679	0.861853
H379	H	0.701244	-0.472552	0.268692
H380	H	1.201244	0.027448	0.768692
C381	C	-0.087542	-0.156099	0.156337
C382	C	0.412458	0.343901	0.656337
N383	N	-0.068118	-0.132257	0.132570
N384	N	0.431882	0.367743	0.632570
C385	C	0.029770	-0.127315	0.127663
C386	C	0.529770	0.372685	0.627663
N387	N	0.010336	-0.103468	0.103909
N388	N	0.510336	0.396532	0.603909
C389	C	0.588959	-0.156025	1.052212
C390	C	1.088959	0.343975	1.552212
N391	N	0.565170	-0.132220	1.071654
N392	N	1.065170	0.367780	1.571654
H393	H	0.478175	-0.268691	0.268510
H394	H	0.978175	0.231309	0.768510
H395	H	0.730027	-0.297314	0.688922
H396	H	1.230027	0.202686	1.188922
C397	C	0.588960	-0.953308	0.156177
C398	C	1.088960	-0.453308	0.656177
N399	N	0.565154	-0.933916	0.132346
N400	N	1.065154	-0.433916	0.632346
H401	H	0.262357	-0.297473	0.297218
H402	H	0.762357	0.202527	0.797218
H403	H	0.701312	-0.268610	0.387993
H404	H	1.201312	0.231390	0.887993
C405	C	0.170526	-0.127294	0.127648
C406	C	0.670526	0.372706	0.627648
N407	N	0.151096	-0.103445	0.103895
N408	N	0.651096	0.396555	0.603895
C409	C	0.386332	-0.156071	0.156278
C410	C	0.886332	0.343929	0.656278
N411	N	0.366895	-0.132230	0.132522
N412	N	0.866895	0.367770	0.632522
C413	C	0.709580	-0.953123	0.276980
C414	C	1.209580	-0.453123	0.776980
N415	N	0.733369	-0.933658	0.300812
N416	N	1.233369	-0.433658	0.800812
C417	C	0.709598	-1.051653	0.276995
C418	C	1.209598	-0.551653	0.776995
N419	N	0.733387	-1.071061	0.300831
N420	N	1.233387	-0.571061	0.800831
C421	C	0.738224	-0.305539	0.597111
C422	C	1.238224	0.194461	1.097111
N423	N	0.762016	-0.329352	0.577681
N424	N	1.262016	0.170648	1.077681
C425	C	0.484864	-0.156062	0.156275
C426	C	0.984864	0.343938	0.656275
N427	N	0.504304	-0.132216	0.132525
N428	N	1.004304	0.367784	0.632525
C429	C	0.588848	-0.479434	0.156095
C430	C	1.088848	0.020566	0.656095
N431	N	0.565057	-0.498902	0.132267
N432	N	1.065057	0.001098	0.632267
H433	H	0.730013	-0.688328	0.297486
H434	H	1.230013	-0.188328	0.797486
C435	C	0.588824	-0.380902	0.156083
C436	C	1.088824	0.119098	0.656083
N437	N	0.565026	-0.361494	0.132256
N438	N	1.065026	0.138506	0.632256
H439	H	0.730045	-0.829088	0.297506
H440	H	1.230045	-0.329088	0.797506
H441	H	0.730029	-0.297296	0.744572
H442	H	1.230029	0.202704	1.244572
C443	C	0.170551	-0.305705	0.305421
C444	C	0.670551	0.194295	0.805421
N445	N	0.151129	-0.329557	0.329178
N446	N	0.651129	0.170443	0.829178
