data_functionalizedCrystal
_audit_creation_method	'MofGen! by Chris Wilmer'
_symmetry_space_group_name_H-M	'P1'
_symmetry_Int_Tables_number	1
_symmetry_cell_setting	triclinic
loop_
_symmetry_equiv_pos_as_xyz
  x,y,z
_cell_length_a	25.639242
_cell_length_b	25.639239
_cell_length_c	25.639233
_cell_angle_alpha	89.981253
_cell_angle_beta	90.022166
_cell_angle_gamma	89.965787
loop_
_atom_site_label
_atom_site_type_symbol
_atom_site_fract_x
_atom_site_fract_y
_atom_site_fract_z
Zn1	Zn	0.799225	0.208277	0.295742
Zn2	Zn	0.799149	0.295696	0.208307
Zn3	Zn	0.711801	0.208269	0.208306
Zn4	Zn	0.711746	0.295676	0.295696
O5	O	0.755480	0.251979	0.252013
O6	O	0.872380	0.219884	0.284163
O7	O	0.787553	0.284103	0.135141
O8	O	0.723453	0.135105	0.219924
O9	O	0.872324	0.284111	0.219924
O10	O	0.787683	0.135111	0.284163
O11	O	0.723379	0.219871	0.135141
O12	O	0.638629	0.219853	0.219880
O13	O	0.723360	0.284078	0.368868
O14	O	0.638589	0.284070	0.284085
O15	O	0.787630	0.219866	0.368901
O16	O	0.787499	0.368858	0.219880
O17	O	0.723286	0.368844	0.284085
C18	C	0.619638	0.251959	0.251977
C19	C	0.561524	0.251963	0.251975
C20	C	0.755392	0.387822	0.251989
C21	C	0.755403	0.445936	0.251996
C22	C	0.201149	0.285473	0.285413
C23	C	0.146544	0.285477	0.285421
O24	O	0.118297	0.313943	0.313821
N25	N	0.119241	0.251994	0.252047
C26	C	0.146545	0.218502	0.218666
O27	O	0.118308	0.190022	0.190280
C28	C	0.201149	0.218496	0.218661
C29	C	0.228449	0.251985	0.252034
C30	C	0.228449	0.318959	0.318783
C31	C	0.283049	0.318956	0.318774
C32	C	0.310350	0.285468	0.285395
C33	C	0.283049	0.251983	0.252024
C34	C	0.228452	0.185002	0.185283
C35	C	0.283059	0.185000	0.185281
C36	C	0.310359	0.218488	0.218654
C37	C	0.364950	0.218492	0.218636
N38	N	0.392253	0.251974	0.252010
C39	C	0.364953	0.285463	0.285389
C40	C	0.031875	0.218515	0.218680
C41	C	-0.022728	0.218523	0.218683
C42	C	-0.022725	0.285497	0.285438
C43	C	0.031878	0.285492	0.285433
C44	C	0.059178	0.251998	0.252054
C45	C	0.479618	0.285455	0.285368
C46	C	0.534223	0.285451	0.285354
C47	C	0.534216	0.218475	0.218601
C48	C	0.479615	0.218481	0.218612
C49	C	0.452318	0.251972	0.252000
O50	O	0.393232	0.190038	0.190252
O51	O	0.393197	0.313933	0.313776
C52	C	0.755497	0.251970	0.388386
C53	C	0.755504	0.251966	0.446500
C54	C	0.891853	0.252000	0.252049
C55	C	0.949967	0.252009	0.252064
C56	C	0.755583	0.115606	0.252048
C57	C	0.755627	0.057492	0.252064
C58	C	0.789004	0.806294	0.218638
C59	C	0.789024	0.860898	0.218645
O60	O	0.817502	0.889131	0.190257
N61	N	0.755572	0.888218	0.252048
C62	C	0.722102	0.860932	0.285449
O63	O	0.693651	0.889184	0.313861
C64	C	0.722085	0.806328	0.285444
C65	C	0.755535	0.779011	0.252036
C66	C	0.822452	0.778976	0.185233
C67	C	0.822431	0.724376	0.185226
C68	C	0.788962	0.697093	0.218623
C69	C	0.755514	0.724410	0.252028
C70	C	0.688617	0.779042	0.318847
C71	C	0.688603	0.724435	0.318840
C72	C	0.722053	0.697118	0.285432
C73	C	0.722024	0.642527	0.285418
N74	N	0.755475	0.615206	0.252016
C75	C	0.788944	0.642490	0.218618
C76	C	0.722141	0.975602	0.285457
C77	C	0.722155	1.030204	0.285459
C78	C	0.789078	1.030167	0.218656
C79	C	0.789061	0.975564	0.218652
C80	C	0.755593	0.948282	0.252055
C81	C	0.788897	0.527824	0.218605
C82	C	0.788872	0.473219	0.218599
C83	C	0.721951	0.473261	0.285403
C84	C	0.721974	0.527862	0.285408
C85	C	0.755452	0.555142	0.252007
O86	O	0.693562	0.614260	0.313793
O87	O	0.817396	0.614231	0.190216
C88	C	0.755494	0.251951	0.116170
C89	C	0.755588	0.251807	0.058057
C90	C	0.789012	0.218432	0.806886
C91	C	0.789019	0.218417	0.861491
O92	O	0.817466	0.189967	0.889747
N93	N	0.755562	0.251844	0.888783
C94	C	0.722093	0.285283	0.861468
O95	O	0.693636	0.313713	0.889695
C96	C	0.722084	0.285294	0.806864
C97	C	0.755547	0.251870	0.779575
C98	C	0.822472	0.185009	0.779597
C99	C	0.822466	0.185025	0.724997
C100	C	0.789000	0.218462	0.697685
C101	C	0.755541	0.251885	0.724974
C102	C	0.688613	0.318731	0.779550
C103	C	0.688607	0.318739	0.724943
C104	C	0.722069	0.285314	0.697654
C105	C	0.722070	0.285338	0.643063
N106	N	0.755526	0.251912	0.615771
C107	C	0.788992	0.218474	0.643082
C108	C	0.722113	0.285256	0.976138
C109	C	0.722124	0.285247	1.030741
C110	C	0.789049	0.218381	1.030760
C111	C	0.789041	0.218392	0.976157
C112	C	0.755570	0.251829	0.948846
C113	C	0.788977	0.218509	0.528417
C114	C	0.788970	0.218529	0.473811
C115	C	0.722043	0.285393	0.473797
C116	C	0.722052	0.285375	0.528397
C117	C	0.755521	0.251929	0.555706
O118	O	0.693635	0.313773	0.614771
O119	O	0.817439	0.190044	0.614847
H120	H	0.556449	0.312723	0.312530
H121	H	0.694809	0.312597	0.550617
C122	C	0.651791	0.355526	0.694904
C123	C	0.674410	0.396592	0.657373
C124	C	0.637597	0.433381	0.627336
C125	C	0.578164	0.429106	0.634831
C126	C	0.555541	0.388039	0.672365
C127	C	0.592354	0.351249	0.702401
H128	H	0.718409	0.399758	0.651823
H129	H	0.654344	0.463782	0.599551
H130	H	0.550912	0.456340	0.612596
H131	H	0.511542	0.384872	0.677915
H132	H	0.575607	0.320849	0.730186
H133	H	0.694798	0.312619	0.451550
H134	H	0.206227	0.346229	0.345967
C135	C	0.449596	0.322298	0.322091
C136	C	0.457076	0.381728	0.317709
C137	C	0.427054	0.418574	0.354428
C138	C	0.389551	0.395990	0.395530
C139	C	0.382069	0.336558	0.399914
C140	C	0.412092	0.299712	0.363194
H141	H	0.484839	0.398448	0.287281
H142	H	0.432592	0.462569	0.351183
H143	H	0.367327	0.423266	0.422712
H144	H	0.354306	0.319837	0.430341
H145	H	0.406553	0.255716	0.366439
C146	C	0.859268	0.148250	0.694981
C147	C	0.900300	0.170909	0.657450
C148	C	0.937101	0.134130	0.627438
C149	C	0.932871	0.074692	0.634958
C150	C	0.891837	0.052030	0.672491
C151	C	0.855036	0.088809	0.702503
H152	H	0.903433	0.214912	0.651882
H153	H	0.967477	0.150907	0.599654
H154	H	0.960113	0.047466	0.612741
H155	H	0.888704	0.008027	0.678059
H156	H	0.824660	0.072032	0.730287
C157	C	0.859271	0.808981	0.148491
C158	C	0.855037	0.801491	0.089050
C159	C	0.891856	0.831491	0.052301
C160	C	0.932908	0.868980	0.074993
C161	C	0.937144	0.876471	0.134437
C162	C	0.900325	0.846472	0.171186
H163	H	0.824645	0.773738	0.072249
H164	H	0.888720	0.825945	0.008296
H165	H	0.960164	0.891187	0.047789
H166	H	0.967536	0.904224	0.151238
H167	H	0.903461	0.852018	0.215190
H168	H	0.849723	0.157777	0.801828
C169	C	0.825846	0.181621	0.946141
C170	C	0.821624	0.122182	0.953660
C171	C	0.858431	0.085409	0.923648
C172	C	0.899459	0.108074	0.886116
C173	C	0.903682	0.167516	0.878595
C174	C	0.866876	0.204290	0.908608
H175	H	0.791251	0.105401	0.981445
H176	H	0.855304	0.041406	0.929215
H177	H	0.926705	0.080852	0.863899
H178	H	0.934055	0.184297	0.850811
H179	H	0.870003	0.248293	0.903040
C180	C	0.651820	0.809079	0.355599
C181	C	0.610790	0.846662	0.332915
C182	C	0.573991	0.876697	0.369670
C183	C	0.578220	0.869149	0.429109
C184	C	0.619252	0.831564	0.451797
C185	C	0.656052	0.801530	0.415042
H186	H	0.607658	0.852252	0.288912
H187	H	0.543616	0.904520	0.352875
H188	H	0.550979	0.891383	0.456318
H189	H	0.622384	0.825975	0.495800
H190	H	0.686426	0.773707	0.431837
H191	H	0.816159	0.550030	0.191408
H192	H	0.661350	0.702225	0.346042
H193	H	0.305283	0.157721	0.158103
H194	H	0.816111	0.450979	0.191392
H195	H	0.305272	0.346225	0.345950
C196	C	0.859229	0.694329	0.148480
C197	C	0.900251	0.656743	0.171173
C198	C	0.937051	0.626699	0.134426
C199	C	0.932830	0.634242	0.074985
C200	C	0.891807	0.671830	0.052289
C201	C	0.855006	0.701873	0.089036
H202	H	0.903377	0.651158	0.215178
H203	H	0.967420	0.598874	0.151228
H204	H	0.960072	0.612002	0.047783
H205	H	0.888680	0.677415	0.008284
H206	H	0.824638	0.729698	0.072234
C207	C	0.825899	1.060185	0.181921
C208	C	0.825918	1.120247	0.181934
C209	C	0.862736	1.150267	0.145200
C210	C	0.899535	1.120225	0.108455
C211	C	0.899518	1.060160	0.108441
C212	C	0.862700	1.030140	0.145174
H213	H	0.798676	1.142489	0.209136
H214	H	0.862749	1.194731	0.145211
H215	H	0.926790	1.142447	0.081263
H216	H	0.926760	1.037918	0.081238
H217	H	0.862687	0.985676	0.145163
H218	H	0.816229	0.191272	0.550645
C219	C	0.685355	1.060249	0.322205
C220	C	0.625918	1.052795	0.317873
C221	C	0.589119	1.082838	0.354622
C222	C	0.611756	1.120334	0.395703
C223	C	0.671196	1.127790	0.400037
C224	C	0.707995	1.097747	0.363288
H225	H	0.609158	1.025037	0.287461
H226	H	0.545118	1.077318	0.351414
H227	H	0.584515	1.142573	0.422907
H228	H	0.687956	1.155548	0.430449
H229	H	0.751996	1.103267	0.366496
C230	C	0.061906	0.322326	0.322146
C231	C	0.054364	0.381757	0.317773
C232	C	0.084388	0.418592	0.354489
C233	C	0.121955	0.395996	0.395578
C234	C	0.129499	0.336561	0.399953
C235	C	0.099475	0.299726	0.363237
H236	H	0.026553	0.398487	0.287355
H237	H	0.078803	0.462590	0.351250
H238	H	0.144181	0.423263	0.422758
H239	H	0.157310	0.319831	0.430371
H240	H	0.105060	0.255729	0.366476
C241	C	0.685315	0.322016	1.060755
C242	C	0.648503	0.358792	1.030706
C243	C	0.611689	0.395558	1.060718
C244	C	0.611686	0.395547	1.120779
C245	C	0.648499	0.358769	1.150832
C246	C	0.685314	0.322004	1.120820
H247	H	0.648504	0.358802	0.986241
H248	H	0.584437	0.422783	1.038470
H249	H	0.584434	0.422763	1.142996
H250	H	0.648498	0.358760	1.195296
H251	H	0.712565	0.294778	1.143067
H252	H	0.694883	0.953392	0.312656
C253	C	0.685178	0.557917	0.322152
C254	C	0.625740	0.550474	0.317823
C255	C	0.588948	0.580526	0.354572
C256	C	0.611594	0.618020	0.395651
C257	C	0.671035	0.625464	0.399982
C258	C	0.707827	0.595412	0.363232
H259	H	0.608973	0.522717	0.287413
H260	H	0.544945	0.575015	0.351366
H261	H	0.584358	0.640266	0.422855
H262	H	0.687802	0.653221	0.430392
H263	H	0.751830	0.600923	0.366439
H264	H	0.816221	0.191310	0.451595
C265	C	0.061901	0.181676	0.181953
C266	C	0.054420	0.122246	0.186323
C267	C	0.084443	0.085408	0.149596
C268	C	0.121946	0.107999	0.108500
C269	C	0.129429	0.167432	0.104129
C270	C	0.099406	0.204271	0.140855
H271	H	0.026656	0.105520	0.216746
H272	H	0.078903	0.041411	0.152832
H273	H	0.144171	0.080729	0.081312
H274	H	0.157193	0.184159	0.073705
H275	H	0.104946	0.248267	0.137620
C276	C	0.685298	0.322046	0.946100
C277	C	0.625865	0.317772	0.953602
C278	C	0.589049	0.354561	0.923568
C279	C	0.611666	0.395625	0.886033
C280	C	0.671101	0.399901	0.878529
C281	C	0.707917	0.363111	0.908563
H282	H	0.609120	0.287373	0.981389
H283	H	0.545051	0.351396	0.929122
H284	H	0.584412	0.422859	0.863800
H285	H	0.687846	0.430300	0.850742
H286	H	0.751915	0.366277	0.903009
C287	C	0.685138	0.443241	0.322140
C288	C	0.644096	0.405747	0.299437
C289	C	0.607287	0.375725	0.336176
C290	C	0.611520	0.383197	0.395620
C291	C	0.652563	0.420693	0.418326
C292	C	0.689373	0.450715	0.381586
H293	H	0.640961	0.400214	0.255430
H294	H	0.576903	0.347968	0.319367
H295	H	0.584271	0.360973	0.422817
H296	H	0.655698	0.426226	0.462332
H297	H	0.719756	0.478472	0.398395
C298	C	0.449578	0.181643	0.181907
C299	C	0.457125	0.122213	0.186291
C300	C	0.427089	0.085368	0.149593
C301	C	0.389507	0.107954	0.108512
C302	C	0.381958	0.167387	0.104127
C303	C	0.411994	0.204232	0.140824
H304	H	0.484947	0.105491	0.216703
H305	H	0.432677	0.041372	0.152839
H306	H	0.367273	0.080680	0.081346
H307	H	0.354136	0.184109	0.073714
H308	H	0.406405	0.248228	0.137578
H309	H	-0.044951	0.191258	0.191502
H310	H	0.816300	0.953325	0.191448
H311	H	0.556454	0.191211	0.191422
C312	C	-0.052762	0.322333	0.322160
C313	C	-0.112824	0.322332	0.322165
C314	C	-0.142862	0.359166	0.358883
C315	C	-0.112839	0.396001	0.395596
C316	C	-0.052774	0.396003	0.395593
C317	C	-0.022736	0.359169	0.358874
H318	H	-0.135051	0.295063	0.294987
H319	H	-0.187326	0.359164	0.358886
H320	H	-0.135076	0.423267	0.422778
H321	H	-0.030546	0.423272	0.422771
H322	H	0.021728	0.359171	0.358871
H323	H	0.206233	0.157734	0.158106
H324	H	0.816298	0.191153	1.053007
H325	H	0.661364	0.345949	0.801759
