data_functionalizedCrystal
_audit_creation_method	'MofGen! by Chris Wilmer'
_symmetry_space_group_name_H-M	'P1'
_symmetry_Int_Tables_number	1
_symmetry_cell_setting	triclinic
loop_
_symmetry_equiv_pos_as_xyz
  x,y,z
_cell_length_a	14.044220
_cell_length_b	16.053934
_cell_length_c	14.044190
_cell_angle_alpha	92.813762
_cell_angle_beta	93.190328
_cell_angle_gamma	87.194912
loop_
_atom_site_label
_atom_site_type_symbol
_atom_site_fract_x
_atom_site_fract_y
_atom_site_fract_z
O1	O	1.273499	0.069357	0.233843
O2	O	0.996826	0.069377	0.225538
O3	O	1.131007	0.069351	0.091353
O4	O	1.139318	0.069383	0.368027
O5	O	1.138351	-0.069507	0.083991
O6	O	1.004170	-0.069480	0.218176
O7	O	1.280843	-0.069501	0.226481
Zn8	Zn	1.143673	-0.091537	0.221160
Zn9	Zn	1.133997	0.091414	0.230859
O10	O	1.146662	-0.069474	0.360666
C11	C	0.964876	-0.000049	0.218222
C12	C	0.858733	-0.000042	0.207377
N13	N	1.150284	-0.216396	0.214540
C14	C	1.131043	-0.000080	0.052050
C15	C	1.120196	-0.000086	-0.054093
C16	C	0.664396	-0.000061	0.187550
C17	C	0.613267	-0.000055	0.264465
C18	C	0.505132	-0.000066	0.253433
C19	C	0.772541	-0.000050	0.198581
C20	C	1.312793	-0.000072	0.233797
C21	C	1.418936	-0.000074	0.244642
C22	C	1.093175	-0.260100	0.271612
C23	C	1.097827	-0.347506	0.266980
C24	C	1.159583	-0.391207	0.205270
C25	C	1.216697	-0.347497	0.148196
C26	C	1.212050	-0.260093	0.152834
C27	C	1.179860	-0.652613	0.185036
C28	C	1.184501	-0.740024	0.180400
C29	C	1.065632	-0.740026	0.299185
C30	C	1.060985	-0.652620	0.303814
C31	C	1.118103	-0.608918	0.246743
N32	N	1.164337	-0.480550	0.200532
N33	N	1.113354	-0.519577	0.251487
N34	N	1.127393	0.216273	0.237472
C35	C	1.177295	-0.000058	-0.299550
C36	C	1.100379	-0.000058	-0.248425
C37	C	1.111408	-0.000074	-0.140289
C38	C	1.166267	-0.000042	-0.407696
C39	C	1.146627	-0.000042	0.399969
C40	C	1.157473	-0.000030	0.506112
H41	H	0.626958	-0.000074	0.113422
H42	H	0.650708	-0.000043	0.338599
H43	H	1.042883	-0.224524	0.321858
C44	C	1.000227	-0.000059	-0.299000
C45	C	0.989189	-0.000055	-0.408708
C46	C	0.889042	-0.000064	-0.459289
C47	C	0.799934	-0.000076	-0.400161
C48	C	0.810970	-0.000080	-0.290447
C49	C	0.911117	-0.000071	-0.239867
H50	H	1.055154	-0.000046	-0.452483
H51	H	0.880873	-0.000061	-0.540507
H52	H	0.725800	-0.000083	-0.437604
H53	H	0.745005	-0.000089	-0.246672
H54	H	0.919285	-0.000074	-0.158649
C55	C	1.277440	-0.000086	-0.248976
C56	C	1.366555	-0.000094	-0.308096
C57	C	1.466700	-0.000127	-0.257509
C58	C	1.477730	-0.000152	-0.147802
C59	C	1.388612	-0.000144	-0.088675
C60	C	1.288467	-0.000110	-0.139263
H61	H	1.358393	-0.000076	-0.389314
H62	H	1.532670	-0.000134	-0.301279
H63	H	1.551863	-0.000177	-0.110354
H64	H	1.396774	-0.000162	-0.007458
H65	H	1.222497	-0.000104	-0.095493
C66	C	1.035005	-0.395584	0.329754
C67	C	0.925515	-0.383589	0.319523
C68	C	0.862692	-0.431669	0.382300
C69	C	0.909359	-0.491743	0.455308
C70	C	1.018854	-0.503740	0.465541
C71	C	1.081678	-0.455660	0.402765
H72	H	0.890965	-0.339116	0.265476
H73	H	0.781636	-0.422787	0.374724
H74	H	0.862853	-0.527334	0.501779
H75	H	1.053405	-0.548213	0.519589
H76	H	1.162734	-0.464542	0.410341
C77	C	1.002812	-0.788098	0.361968
C78	C	1.007986	-0.884239	0.356944
C79	C	0.945166	-0.932310	0.419733
C80	C	0.877172	-0.884240	0.487546
C81	C	0.871995	-0.788093	0.492572
C82	C	0.934815	-0.740022	0.429783
H83	H	1.058322	-0.919829	0.306742
H84	H	0.948998	-1.003485	0.416012
H85	H	0.830669	-0.919825	0.534026
H86	H	0.821659	-0.752503	0.542774
H87	H	0.930982	-0.668848	0.433505
C88	C	1.252442	-0.788093	0.112517
C89	C	1.315279	-0.740020	0.049756
C90	C	1.383214	-0.788088	-0.018126
C91	C	1.388312	-0.884229	-0.023246
C92	C	1.325472	-0.932308	0.039518
C93	C	1.257537	-0.884240	0.107399
H94	H	1.311507	-0.668845	0.053544
H95	H	1.429732	-0.752496	-0.064587
H96	H	1.438602	-0.919812	-0.073496
H97	H	1.329244	-1.003483	0.035730
H98	H	1.211019	-0.919832	0.153861
C99	C	1.242678	-0.604544	0.122254
C100	C	1.232523	-0.616569	0.012761
C101	C	1.295342	-0.568493	-0.050024
C102	C	1.368316	-0.508392	-0.003317
C103	C	1.378474	-0.496365	0.106182
C104	C	1.315655	-0.544441	0.168967
H105	H	1.178501	-0.661061	-0.021820
H106	H	1.287822	-0.577397	-0.131083
H107	H	1.414818	-0.472804	-0.049794
H108	H	1.432497	-0.451873	0.140763
H109	H	1.323175	-0.535537	0.250026
H110	H	1.010699	-0.617040	0.354062
C111	C	1.274868	-0.212017	0.090052
C112	C	1.264720	-0.224041	-0.019442
C113	C	1.327544	-0.175966	-0.082222
C114	C	1.400517	-0.115867	-0.035510
C115	C	1.410669	-0.103840	0.073990
C116	C	1.347844	-0.151915	0.136770
H117	H	1.210698	-0.268532	-0.054026
H118	H	1.320029	-0.184869	-0.163281
H119	H	1.447023	-0.080279	-0.081984
H120	H	1.464691	-0.059349	0.108574
H121	H	1.355360	-0.143012	0.217829
H122	H	1.266985	-0.383084	0.097954
