data_functionalizedCrystal
_audit_creation_method	'MofGen! by Chris Wilmer'
_symmetry_space_group_name_H-M	'P1'
_symmetry_Int_Tables_number	1
_symmetry_cell_setting	triclinic
loop_
_symmetry_equiv_pos_as_xyz
  x,y,z
_cell_length_a	19.805407
_cell_length_b	25.639239
_cell_length_c	19.805398
_cell_angle_alpha	89.970248
_cell_angle_beta	89.986879
_cell_angle_gamma	90.038686
loop_
_atom_site_label
_atom_site_type_symbol
_atom_site_fract_x
_atom_site_fract_y
_atom_site_fract_z
Zn1	Zn	1.034635	-0.208158	-0.382714
Zn2	Zn	1.034538	-0.295593	-0.269524
Zn3	Zn	0.921462	-0.208174	-0.269539
Zn4	Zn	0.921389	-0.295564	-0.382670
O5	O	0.978006	-0.251872	-0.326112
O6	O	1.129339	-0.219762	-0.367711
O7	O	1.019529	-0.284016	-0.174809
O8	O	0.936546	-0.135006	-0.284576
O9	O	1.129268	-0.284000	-0.284551
O10	O	1.019693	-0.134995	-0.367726
O11	O	0.936452	-0.219789	-0.174820
O12	O	0.826736	-0.219761	-0.284534
O13	O	0.936421	-0.283950	-0.477393
O14	O	0.826682	-0.283966	-0.367651
O15	O	1.019622	-0.219733	-0.477425
O16	O	1.019457	-0.368755	-0.284508
O17	O	0.936327	-0.368733	-0.367637
C18	C	0.802150	-0.251862	-0.326090
C19	C	0.726918	-0.251870	-0.326097
C20	C	0.691563	-0.285352	-0.369306
C21	C	0.620875	-0.285353	-0.369315
C22	C	0.585542	-0.251874	-0.326112
C23	C	0.620902	-0.218389	-0.282901
C24	C	0.691589	-0.218386	-0.282895
C25	C	0.335829	-0.218400	-0.282923
C26	C	0.265137	-0.218407	-0.282931
C27	C	0.265115	-0.285368	-0.369343
C28	C	0.335802	-0.285365	-0.369338
C29	C	0.371155	-0.251877	-0.326129
C30	C	0.447803	-0.251876	-0.326121
C31	C	0.508895	-0.251878	-0.326117
C32	C	0.977892	-0.387715	-0.326081
C33	C	0.977905	-0.445829	-0.326090
C34	C	1.021405	-0.806190	-0.282901
C35	C	1.021431	-0.860795	-0.282910
O36	O	1.058298	-0.889030	-0.246154
N37	N	0.978125	-0.888111	-0.326157
C38	C	0.934795	-0.860820	-0.369402
O39	O	0.897962	-0.889069	-0.406189
C40	C	0.934772	-0.806217	-0.369396
C41	C	0.978076	-0.778903	-0.326141
C42	C	1.064706	-0.778877	-0.239650
C43	C	1.064679	-0.724276	-0.239640
C44	C	1.021350	-0.696989	-0.282881
C45	C	0.978049	-0.724303	-0.326132
C46	C	0.891446	-0.778927	-0.412645
C47	C	0.891428	-0.724320	-0.412635
C48	C	0.934732	-0.697007	-0.369381
C49	C	0.934693	-0.642416	-0.369363
N50	N	0.978000	-0.615099	-0.326116
C51	C	1.021328	-0.642386	-0.282875
C52	C	0.934846	-0.975491	-0.369413
C53	C	0.934864	-1.030093	-0.369416
C54	C	1.021502	-1.030064	-0.282924
C55	C	1.021479	-0.975461	-0.282918
C56	C	0.978152	-0.948175	-0.326166
C57	C	1.021267	-0.527721	-0.282857
C58	C	1.021234	-0.473116	-0.282849
C59	C	0.934599	-0.473150	-0.369343
C60	C	0.934629	-0.527750	-0.369349
C61	C	0.977969	-0.555035	-0.326104
O62	O	0.897847	-0.614145	-0.406101
O63	O	1.058161	-0.614131	-0.246101
C64	C	1.154549	-0.251883	-0.326134
C65	C	1.229781	-0.251887	-0.326144
C66	C	0.978024	-0.251837	-0.502655
C67	C	0.978032	-0.251822	-0.577887
C68	C	0.978139	-0.115499	-0.326158
C69	C	0.978195	-0.057385	-0.326177
C70	C	1.021396	-0.285181	-1.039670
C71	C	1.021378	-0.285196	-0.968981
C72	C	0.978116	-0.251763	-0.933649
C73	C	0.934865	-0.218317	-0.969008
C74	C	0.934881	-0.218306	-1.039695
C75	C	0.934800	-0.218362	-0.683935
C76	C	0.934789	-0.218375	-0.613242
C77	C	1.021297	-0.285252	-0.613221
C78	C	1.021312	-0.285240	-0.683908
C79	C	0.978059	-0.251797	-0.719261
C80	C	0.978079	-0.251783	-0.795910
C81	C	0.978099	-0.251774	-0.857001
C82	C	0.978027	-0.251870	-0.150256
C83	C	0.978150	-0.251737	-0.075024
H84	H	0.592129	-0.191127	-0.247727
H85	H	0.856180	-0.801157	-0.447864
H86	H	0.720326	-0.312617	-0.404485
H87	H	0.236321	-0.312633	-0.404528
O88	O	1.068021	-0.321265	-0.930843
H89	H	1.102463	-0.297867	-0.898642
H90	H	1.056560	-0.549929	-0.247644
H91	H	0.899579	-0.191131	-0.712711
O92	O	0.844686	-0.694889	-0.459273
H93	H	0.814576	-0.723059	-0.489343
O94	O	1.111395	-0.694819	-0.192997
H95	H	1.141531	-0.722974	-0.162941
H96	H	1.099993	-0.801088	-0.204438
H97	H	1.056784	-1.052291	-0.247717
O98	O	1.067944	-0.321330	-0.575091
H99	H	1.060662	-0.315728	-0.520002
H100	H	0.899370	-0.549990	-0.404573
H101	H	0.899666	-0.191072	-1.068480
O102	O	1.067952	-0.443659	-0.236200
H103	H	1.060656	-0.401105	-0.243453
H104	H	0.720374	-0.191118	-0.247713
H105	H	0.236371	-0.191141	-0.247749
O106	O	0.888094	-0.946061	-0.416044
H107	H	0.857981	-0.974234	-0.446107
O108	O	0.888153	-1.059552	-0.416064
H109	H	0.858026	-1.031398	-0.446131
O110	O	1.068192	-0.946001	-0.236273
H111	H	1.098325	-0.974155	-0.206212
H112	H	0.899319	-0.450924	-0.404548
H113	H	0.899557	-0.191148	-0.584477
O114	O	0.582740	-0.321566	-0.415789
H115	H	0.619184	-0.344886	-0.445776
H116	H	1.056629	-0.312404	-1.068432
O117	O	0.888205	-0.182253	-0.930904
H118	H	0.895465	-0.187874	-0.875811
H119	H	1.056543	-0.312463	-0.712672
H120	H	0.364566	-0.312629	-0.404516
H121	H	0.364605	-0.191137	-0.247735
