data_functionalizedCrystal
_audit_creation_method	'MofGen! by Chris Wilmer'
_symmetry_space_group_name_H-M	'P1'
_symmetry_Int_Tables_number	1
_symmetry_cell_setting	triclinic
loop_
_symmetry_equiv_pos_as_xyz
  x,y,z
_cell_length_a	15.538191
_cell_length_b	19.288865
_cell_length_c	18.366186
_cell_angle_alpha	90.011479
_cell_angle_beta	90.010656
_cell_angle_gamma	65.204171
loop_
_atom_site_label
_atom_site_type_symbol
_atom_site_fract_x
_atom_site_fract_y
_atom_site_fract_z
O1	O	-1.250876	0.225834	-0.060536
O2	O	-0.976277	0.145548	-0.060543
O3	O	-1.121511	0.288804	-0.060525
O4	O	-1.105642	0.082579	-0.060554
O5	O	-1.121487	0.288803	0.060574
O6	O	-0.976252	0.145547	0.060556
O7	O	-1.250852	0.225834	0.060564
Zn8	Zn	-1.113548	0.185690	0.079787
Zn9	Zn	-1.113580	0.185691	-0.079767
O10	O	-1.105617	0.082578	0.060545
C11	C	-1.120988	0.314552	0.000027
C12	C	-1.119455	0.391273	0.000033
C13	C	-0.941133	0.137147	0.000006
C14	C	-0.836453	0.112126	0.000003
C15	C	-1.285995	0.234234	0.000013
C16	C	-1.390675	0.259255	0.000010
C17	C	-0.549718	0.360705	0.000027
C18	C	-0.451352	0.337176	0.000024
C19	C	-0.428348	0.204832	0.000005
C20	C	-0.526713	0.228350	0.000012
C21	C	-0.587391	0.306287	0.000023
C22	C	-0.564386	0.173932	0.000008
C23	C	-0.662744	0.197448	0.000011
C24	C	-0.723427	0.275382	0.000020
C25	C	-0.685748	0.329803	0.000026
C26	C	-0.503707	0.095996	-0.000008
C27	C	-0.541380	0.041578	-0.000012
C28	C	-0.639739	0.065094	-0.000004
C29	C	-0.700423	0.143027	0.000005
C30	C	-0.677418	0.010673	-0.000011
C31	C	-0.775776	0.034189	-0.000007
C32	C	-0.798780	0.166543	0.000008
C33	C	-1.106140	0.056829	-0.000008
C34	C	-1.107673	-0.019891	-0.000019
N35	N	-1.113533	0.185691	0.188678
C36	C	-1.204672	0.457257	0.000039
C37	C	-1.203232	0.529344	0.000028
C38	C	-1.116570	0.535443	0.000025
C39	C	-1.031342	0.469446	0.000015
C40	C	-1.032785	0.397361	0.000019
C41	C	-1.048436	0.626711	0.042441
C42	C	-1.046997	0.698796	0.042442
C43	C	-1.112118	0.757776	0.000008
C44	C	-1.178694	0.744668	-0.042416
C45	C	-1.180137	0.672583	-0.042412
C46	C	-1.114997	0.613604	0.000020
C47	C	-1.195779	0.901928	0.000001
C48	C	-1.194336	0.974015	-0.000015
C49	C	-1.022443	0.914114	-0.000021
C50	C	-1.023889	0.842029	-0.000012
C51	C	-1.110560	0.835941	0.000002
N52	N	-1.113603	0.185697	-0.188658
C53	C	-1.177864	0.249107	0.226787
C54	C	-1.177870	0.249112	0.303014
C55	C	-1.113554	0.185691	0.341131
C56	C	-1.049211	0.122268	0.303013
C57	C	-1.049200	0.122269	0.226787
C58	C	-1.100930	0.119249	0.461882
C59	C	-1.100947	0.119250	0.538107
C60	C	-1.113580	0.185689	0.576238
C61	C	-1.126217	0.252135	0.538136
C62	C	-1.126207	0.252135	0.461909
C63	C	-1.113557	0.185684	0.423786
C64	C	-1.177921	0.249114	0.697002
C65	C	-1.177921	0.249118	0.773231
C66	C	-1.049267	0.122270	0.773228
C67	C	-1.049263	0.122271	0.697000
C68	C	-1.113595	0.185694	0.658892
H69	H	-0.848188	0.230008	0.000021
H70	H	-0.491964	-0.021879	-0.000024
H71	H	-0.992782	0.709461	0.076982
H72	H	-1.272628	0.583079	0.000029
C73	C	-0.918111	0.588609	0.126324
C74	C	-0.976843	0.561881	0.089085
H75	H	-0.873917	0.548586	0.155119
H76	H	-0.884961	0.605361	0.092208
H77	H	-0.955627	0.630001	0.156912
H78	H	-0.939328	0.520492	0.058493
H79	H	-1.009996	0.545118	0.123205
C80	C	-0.886731	0.324101	-0.062237
C81	C	-0.939106	0.324825	0.000018
H82	H	-0.828895	0.279322	-0.062233
H83	H	-0.922288	0.324580	-0.104456
H84	H	-0.873476	0.367908	-0.062236
H85	H	-0.952367	0.281020	0.000014
H86	H	-0.903541	0.324340	0.042248
H87	H	-0.803516	0.294527	0.000013
C88	C	-1.310160	0.725153	-0.126300
C89	C	-1.253303	0.658168	-0.089050
H90	H	-1.355324	0.716250	-0.155097
H91	H	-1.342197	0.764633	-0.092190
H92	H	-1.271519	0.739996	-0.156886
H93	H	-1.291944	0.643329	-0.058460
H94	H	-1.221264	0.618675	-0.123164
H95	H	-1.136493	0.306237	0.430889
H96	H	-0.996813	0.070627	0.195758
H97	H	-1.090664	0.065147	0.569124
H98	H	-0.735156	0.393267	0.000039
C99	C	-1.198339	0.348999	0.141380
C100	C	-1.248412	0.319008	0.185030
H101	H	-1.241847	0.392206	0.115637
H102	H	-1.159034	0.363856	0.171225
H103	H	-1.160187	0.311277	0.107667
H104	H	-1.286559	0.356729	0.218747
H105	H	-1.287733	0.304153	0.155183
H106	H	-1.136504	0.306236	0.569181
H107	H	-0.378931	0.141376	-0.000007
H108	H	-0.996896	0.070633	0.804262
C109	C	-1.305107	0.374490	0.765572
C110	C	-1.248643	0.318829	0.815123
H111	H	-1.348773	0.417524	0.791437
H112	H	-1.265967	0.389630	0.735857
H113	H	-1.338888	0.354067	0.735827
H114	H	-1.214857	0.339250	0.844866
H115	H	-1.287788	0.303689	0.844852
C116	C	-1.305043	0.374493	0.295368
C117	C	-1.248584	0.318824	0.344915
H118	H	-1.348700	0.417528	0.321236
H119	H	-1.265899	0.389627	0.265652
H120	H	-1.338834	0.354079	0.265623
H121	H	-1.214788	0.339237	0.374657
H122	H	-1.287733	0.303690	0.374644
H123	H	-0.996882	0.070630	0.665970
C124	C	-0.562590	0.489179	0.000041
C125	C	-0.616425	0.446376	0.000036
H126	H	-0.603774	0.542065	0.000040
H127	H	-0.523746	0.477260	0.042269
H128	H	-0.523752	0.477249	-0.042192
H129	H	-0.655258	0.458302	0.042272
H130	H	-0.655285	0.458300	-0.042196
C131	C	-1.306377	0.296460	0.611328
C132	C	-1.248693	0.318822	0.655137
H133	H	-1.350091	0.339494	0.585497
H134	H	-1.268071	0.258722	0.577699
H135	H	-1.340102	0.276010	0.641081
H136	H	-1.214962	0.339267	0.625383
H137	H	-1.287004	0.356573	0.688770
C138	C	-0.354105	0.387517	-0.062224
C139	C	-0.409940	0.396997	0.000031
H140	H	-0.328543	0.424450	-0.062221
H141	H	-0.303895	0.337743	-0.062224
H142	H	-0.392017	0.393942	-0.104448
H143	H	-0.372026	0.390567	0.042255
H144	H	-0.460156	0.446783	0.000038
H145	H	-0.960782	0.474415	0.000011
C146	C	-1.075991	-0.012098	0.469510
C147	C	-1.087059	0.046217	0.419972
H148	H	-1.067437	-0.057180	0.443635
H149	H	-1.022128	-0.021809	0.499246
H150	H	-1.130910	0.003145	0.499237
H151	H	-1.032137	0.030976	0.390248
H152	H	-1.140927	0.055928	0.390224
C153	C	-0.885800	0.040358	0.326510
C154	C	-0.978512	0.052557	0.344910
H155	H	-0.842151	-0.002676	0.352379
H156	H	-0.876591	0.031280	0.275665
H157	H	-0.875779	0.084196	0.339020
H158	H	-0.988535	0.008721	0.332395
H159	H	-0.987725	0.061631	0.395767
H160	H	-1.263733	1.027743	-0.000015
H161	H	-0.954496	0.788301	-0.000013
H162	H	-0.423619	0.076851	-0.000013
C163	C	-0.516427	-0.084142	-0.000030
C164	C	-0.610714	-0.074993	-0.000024
H165	H	-0.475250	-0.137029	-0.000034
H166	H	-0.505054	-0.060807	-0.042256
H167	H	-0.505031	-0.060802	0.042205
H168	H	-0.622112	-0.098328	-0.042262
H169	H	-0.622092	-0.098338	0.042206
C170	C	-0.873032	-0.016138	0.062248
C171	C	-0.817193	-0.025626	-0.000006
H172	H	-0.898605	-0.053065	0.062244
H173	H	-0.835128	-0.022563	0.104468
H174	H	-0.923243	0.033644	0.062244
H175	H	-0.766978	-0.075407	0.000001
H176	H	-0.855099	-0.019208	-0.042237
C177	C	-1.351642	0.486115	-0.062206
C178	C	-1.299940	0.450566	0.000046
H179	H	-1.410453	0.481979	-0.062203
H180	H	-1.362973	0.538483	-0.062201
H181	H	-1.316567	0.461981	-0.104432
H182	H	-1.335012	0.474704	0.042272
H183	H	-1.288612	0.398189	0.000048
H184	H	-1.266352	0.896971	0.000009
C185	C	-1.201387	0.834165	-0.139360
C186	C	-1.250281	0.809487	-0.089069
H187	H	-1.245583	0.874179	-0.168162
H188	H	-1.161547	0.852292	-0.114095
H189	H	-1.163883	0.792760	-0.169937
H190	H	-1.287780	0.850891	-0.058488
H191	H	-1.290137	0.791361	-0.114335
H192	H	-0.951881	0.919078	-0.000027
