data_functionalizedCrystal
_audit_creation_method	'MofGen! by Chris Wilmer'
_symmetry_space_group_name_H-M	'P1'
_symmetry_Int_Tables_number	1
_symmetry_cell_setting	triclinic
loop_
_symmetry_equiv_pos_as_xyz
  x,y,z
_cell_length_a	27.732048
_cell_length_b	10.654545
_cell_length_c	9.130313
_cell_angle_alpha	90.001349
_cell_angle_beta	89.986623
_cell_angle_gamma	83.562867
loop_
_atom_site_label
_atom_site_type_symbol
_atom_site_fract_x
_atom_site_fract_y
_atom_site_fract_z
O1	O	0.067879	1.664980	-0.121803
O2	O	0.074349	1.299229	-0.121810
O3	O	0.000788	1.493464	-0.121778
O4	O	0.141440	1.470745	-0.121835
O5	O	0.000779	1.493469	0.121821
O6	O	0.074340	1.299234	0.121789
O7	O	0.067870	1.664985	0.121796
Cu8	Cu	0.071104	1.482110	0.144035
Cu9	Cu	0.071114	1.482104	-0.144049
O10	O	0.141431	1.470750	0.121764
C11	C	0.073870	1.252454	-0.000011
C12	C	0.072450	1.113070	-0.000013
C13	C	0.071777	1.047596	0.132774
C14	C	0.070435	0.916633	0.132774
C15	C	0.070441	0.916628	-0.132811
C16	C	0.071779	1.047590	-0.132810
C17	C	-0.017227	1.492990	0.000025
C18	C	-0.070890	1.491554	0.000037
C19	C	-0.409048	1.597293	-0.000036
C20	C	-0.610740	1.591965	-0.000056
O21	O	-0.641394	1.688657	-0.000118
N22	N	-0.630581	1.476792	-0.000057
C23	C	-0.599994	1.362943	-0.000063
O24	O	-0.621498	1.264858	-0.000079
C25	C	-0.398302	1.368272	-0.000053
C26	C	-0.378465	1.483453	-0.000037
C27	C	-0.389210	1.712465	-0.000021
C28	C	-0.338790	1.713796	-0.000008
C29	C	-0.308207	1.599955	-0.000010
C30	C	-0.328045	1.484784	-0.000024
C31	C	-0.367717	1.254424	-0.000069
C32	C	-0.317291	1.255766	-0.000070
C33	C	-0.297454	1.370947	-0.000054
C34	C	-0.247042	1.372274	-0.000012
N35	N	-0.227202	1.487447	-0.000011
C36	C	-0.257784	1.601288	-0.000010
C37	C	-0.705886	1.360153	-0.000065
C38	C	-0.756308	1.358820	-0.000065
C39	C	-0.767051	1.587843	-0.000061
C40	C	-0.716627	1.589175	-0.000051
C41	C	-0.686045	1.475326	-0.000064
C42	C	-0.151898	1.604074	0.000019
C43	C	-0.101473	1.605394	0.000038
C44	C	-0.090735	1.376372	0.000027
C45	C	-0.141155	1.375050	0.000015
C46	C	-0.171736	1.488912	0.000007
O47	O	-0.216360	1.275634	0.000034
O48	O	-0.236272	1.699358	-0.000026
C49	C	-0.459468	1.595963	-0.000049
C50	C	-0.479306	1.480791	-0.000063
C51	C	-0.448723	1.366951	-0.000064
C52	C	-0.529728	1.479459	-0.000063
C53	C	-0.560311	1.593299	-0.000062
C54	C	-0.540470	1.708473	-0.000061
C55	C	-0.490050	1.709803	-0.000048
C56	C	-0.468563	1.251777	-0.000065
C57	C	-0.518984	1.250456	-0.000077
C58	C	-0.549567	1.364296	-0.000076
C59	C	0.159445	1.471225	-0.000042
C60	C	0.213109	1.472661	-0.000064
C61	C	0.068349	1.711761	-0.000006
C62	C	0.069769	1.851145	-0.000014
N63	N	0.071118	1.482101	-0.346672
C64	C	0.041466	1.406682	-0.423303
C65	C	0.041454	1.406696	-0.576640
C66	C	0.100750	1.557551	-0.576701
C67	C	0.100759	1.557543	-0.423367
N68	N	0.071097	1.482123	0.346658
H69	H	0.072323	1.100905	0.240905
Br70	Br	0.069520	0.827780	0.312993
Br71	Br	-0.311876	1.870121	-0.000028
Br72	Br	0.001238	1.304302	-0.319221
Br73	Br	0.001213	1.304333	-0.680634
Br74	Br	-0.689711	1.745496	-0.000026
Br75	Br	-0.664388	1.205628	-0.000086
Br76	Br	-0.074554	1.761722	0.000062
Br77	Br	0.140976	1.659927	-0.680796
Br78	Br	0.141000	1.659915	-0.319357
H79	H	0.069895	0.863299	-0.240929
H80	H	-0.443668	1.159072	-0.000070
Br81	Br	0.072687	1.136458	-0.313034
H82	H	-0.176791	1.696791	0.000006
Br83	Br	-0.394626	1.098097	-0.000096
H84	H	-0.535130	1.156655	-0.000077
Br85	Br	-0.808565	1.742341	-0.000063
Br86	Br	-0.430706	1.866985	-0.000021
H87	H	-0.772455	1.265028	-0.000053
H88	H	-0.292393	1.163055	-0.000083
Br89	Br	-0.049221	1.221881	0.000026
Br90	Br	-0.168079	1.218733	0.000027
H91	H	-0.473904	1.803595	-0.000035
Br92	Br	-0.581985	1.862969	-0.000048
