data_functionalizedCrystal
_audit_creation_method	'MofGen! by Chris Wilmer'
_symmetry_space_group_name_H-M	'P1'
_symmetry_Int_Tables_number	1
_symmetry_cell_setting	triclinic
loop_
_symmetry_equiv_pos_as_xyz
  x,y,z
_cell_length_a	33.510554
_cell_length_b	33.509711
_cell_length_c	33.506470
_cell_angle_alpha	60.004186
_cell_angle_beta	60.008358
_cell_angle_gamma	59.994760
loop_
_atom_site_label
_atom_site_type_symbol
_atom_site_fract_x
_atom_site_fract_y
_atom_site_fract_z
O1	O	0.055430	-0.583081	0.487524
O2	O	0.020931	-0.453975	0.392819
O3	O	0.102693	-0.535652	0.392731
O4	O	-0.026332	-0.501404	0.487613
O5	O	0.129823	-0.508526	0.419767
O6	O	0.048062	-0.426850	0.419856
O7	O	0.082561	-0.555956	0.514561
Cu8	Cu	0.067789	-0.488926	0.469677
Cu9	Cu	0.035703	-0.521005	0.437703
O10	O	0.000799	-0.474279	0.514649
N11	N	0.090357	-0.466366	0.492168
N12	N	0.013139	-0.543569	0.415212
C13	C	0.143028	-0.279707	0.544737
C14	C	0.143165	-0.413746	0.678712
C15	C	0.143043	-0.413725	0.544739
C16	C	0.277090	-0.413694	0.544637
C17	C	0.157791	-0.323929	0.559462
C18	C	0.157869	-0.398994	0.634489
C19	C	0.232865	-0.398963	0.559407
C20	C	0.157801	-0.398982	0.559463
C21	C	0.124237	-0.223419	0.525994
C22	C	0.124262	-0.432490	0.525997
C23	C	0.176583	-0.380217	0.578205
C24	C	0.358938	-0.399566	0.501510
C25	C	0.410104	-0.416609	0.484423
C26	C	0.410135	-0.499402	0.515995
C27	C	0.358969	-0.482358	0.533084
C28	C	0.136554	-0.197822	0.475693
C29	C	0.119469	-0.146653	0.458657
C30	C	0.077755	-0.146680	0.542223
C31	C	0.094840	-0.197850	0.559260
C32	C	0.073954	-0.420144	0.538396
C33	C	0.056884	-0.437203	0.521352
C34	C	0.140427	-0.478952	0.479524
C35	C	0.157498	-0.461894	0.496561
C36	C	0.074158	-0.420182	0.760618
C37	C	0.057149	-0.437256	0.811786
C38	C	0.140732	-0.479014	0.811717
C39	C	0.157740	-0.461942	0.760547
C40	C	0.124452	-0.432525	0.734999
C41	C	0.333372	-0.432439	0.525839
C42	C	-0.020612	-0.577650	0.170305
C43	C	-0.020943	-0.788098	0.380897
C44	C	-0.020912	-0.577638	0.380991
C45	C	-0.231336	-0.577418	0.380585
C46	C	-0.129735	-0.611383	0.346870
C47	C	-0.054722	-0.611464	0.347017
C48	C	-0.073450	-0.630202	0.328195
C49	C	-0.087616	-0.712029	0.371239
C50	C	-0.070599	-0.763199	0.388315
C51	C	0.012191	-0.763282	0.356872
C52	C	-0.004828	-0.712113	0.339795
C53	C	-0.155381	-0.623711	0.397158
C54	C	-0.206547	-0.606601	0.414133
C55	C	-0.206417	-0.564839	0.330529
C56	C	-0.155251	-0.581949	0.313554
C57	C	-0.067051	-0.561160	0.334643
C58	C	-0.050026	-0.544131	0.351759
C59	C	-0.008343	-0.627704	0.393612
C60	C	-0.025368	-0.644736	0.376502
C61	C	-0.066922	-0.561168	0.246303
C62	C	-0.049794	-0.544141	0.195134
C63	C	-0.008048	-0.627719	0.195183
C64	C	-0.025175	-0.644745	0.246352
C65	C	-0.054614	-0.611468	0.271911
C66	C	-0.054732	-0.686488	0.346980
C67	C	-0.002117	-0.558258	0.114025
C68	C	-0.002879	-0.844379	0.399940
C69	C	-0.002504	-0.558243	0.399473
C70	C	-0.287615	-0.558285	0.398601
N71	N	0.434975	-0.466279	0.491900
O72	O	0.591199	-0.470749	0.375150
O73	O	0.591395	-0.565767	0.504116
O74	O	0.591311	-0.565550	0.422329
O75	O	0.591283	-0.470966	0.456937
O76	O	0.510024	-0.538522	0.449509
O77	O	0.510108	-0.538739	0.531297
O78	O	0.509913	-0.443721	0.402330
Cu79	Cu	0.502588	-0.488762	0.469295
Cu80	Cu	0.598719	-0.520726	0.437151
O81	O	0.509997	-0.443938	0.484117
N82	N	0.666332	-0.543209	0.414541
N83	N	0.090323	-0.121809	0.492157
O84	O	-0.026342	0.034503	0.487582
O85	O	0.102626	0.034543	0.392540
O86	O	0.020797	0.034507	0.392812
O87	O	0.055487	0.034539	0.487310
O88	O	0.047933	-0.046785	0.419900
O89	O	0.129763	-0.046749	0.419628
O90	O	0.000794	-0.046789	0.514670
Cu91	Cu	0.067756	-0.054192	0.469623
Cu92	Cu	0.035664	0.041946	0.437588
O93	O	0.082623	-0.046753	0.514399
N94	N	0.013091	0.109564	0.415054
N95	N	0.090671	-0.466416	0.836606
O96	O	0.086120	-0.583065	0.992910
O97	O	-0.008880	-0.454051	0.992954
O98	O	-0.008658	-0.535864	0.992931
O99	O	0.085897	-0.501252	0.992933
O100	O	0.018407	-0.508749	0.911642
O101	O	0.018185	-0.426936	0.911665
O102	O	0.113185	-0.555949	0.911621
Cu103	Cu	0.068156	-0.488967	0.904221
Cu104	Cu	0.036148	-0.521034	1.000355
O105	O	0.112963	-0.474136	0.911644
N106	N	0.013633	-0.543590	1.067970
C107	C	0.031262	-0.424144	0.393290
C108	C	0.132513	-0.525291	0.393180
C109	C	0.072229	-0.585787	0.514090
C110	C	-0.029022	-0.484640	0.514200
C111	C	0.550775	-0.565338	0.533954
C112	C	0.550672	-0.565070	0.432670
C113	C	0.550530	-0.444149	0.372492
C114	C	0.550635	-0.444418	0.473776
C115	C	0.132408	-0.005998	0.392963
C116	C	0.031106	-0.006142	0.393333
C117	C	-0.029021	-0.006147	0.514213
C118	C	0.072314	-0.006104	0.513878
C119	C	-0.008430	-0.424240	0.952316
C120	C	-0.008150	-0.525550	0.952271
C121	C	0.112735	-0.585760	0.952260
C122	C	0.112461	-0.484444	0.952286
H123	H	0.016194	-0.427197	0.832639
O124	O	-0.073208	-0.006091	0.549828
C125	C	-0.094838	0.036020	0.562934
H126	H	-0.065197	0.050069	0.553001
H127	H	-0.121532	0.065492	0.542435
C128	C	-0.158854	0.005976	0.630556
C129	C	-0.122447	0.023228	0.618361
H130	H	-0.175886	-0.001913	0.664746
H131	H	-0.144282	-0.022395	0.621726
H132	H	-0.181093	0.030539	0.613470
H133	H	-0.100205	-0.001337	0.635442
H134	H	-0.137016	0.051595	0.627196
O135	O	0.550712	-0.408984	0.482554
C136	C	0.592768	-0.395783	0.449009
H137	H	0.622199	-0.427080	0.434653
H138	H	0.583193	-0.361743	0.417213
C139	C	0.575736	-0.346630	0.492341
C140	C	0.611886	-0.385071	0.474712
H141	H	0.587528	-0.340020	0.508194
H142	H	0.547401	-0.355522	0.514940
H143	H	0.567761	-0.318268	0.465841
H144	H	0.619856	-0.413434	0.501212
H145	H	0.640223	-0.376184	0.452117
O146	O	-0.073249	-0.475850	0.549700
C147	C	-0.103635	-0.427830	0.532037
H148	H	-0.080106	-0.404613	0.500640
H149	H	-0.128327	-0.428578	0.518477
C150	C	-0.164154	-0.434241	0.612035
C151	C	-0.135255	-0.405725	0.573475
H152	H	-0.183661	-0.420606	0.637595
H153	H	-0.143684	-0.466594	0.623935
H154	H	-0.184726	-0.434862	0.600728
H155	H	-0.114680	-0.405109	0.584780
H156	H	-0.155723	-0.373371	0.561577
O157	O	0.147890	-0.475663	0.952365
C158	C	0.161073	-0.509181	0.994448
H159	H	0.129771	-0.523513	1.023879
H160	H	0.195109	-0.540997	0.984915
C161	C	0.210227	-0.465851	0.977391
C162	C	0.171780	-0.483450	1.013540
H163	H	0.216834	-0.449980	0.989167
H164	H	0.201347	-0.443270	0.949038
H165	H	0.238586	-0.492368	0.969450
H166	H	0.143420	-0.456932	1.021476
H167	H	0.180656	-0.506026	1.041896
H168	H	0.550826	-0.595166	0.570996
H169	H	0.079744	-0.006095	0.543566
H170	H	-0.227194	-0.540877	0.303400
H171	H	0.142562	-0.622811	0.952240
O172	O	-0.043967	-0.380018	0.952353
C173	C	-0.026370	-0.349596	0.952346
H174	H	0.005014	-0.373098	0.967727
H175	H	-0.012813	-0.324907	0.913351
C176	C	-0.106403	-0.289103	0.965348
C177	C	-0.067859	-0.317969	0.984243
H178	H	-0.131995	-0.269592	0.985021
H179	H	-0.118258	-0.309598	0.965350
H180	H	-0.095099	-0.268533	0.932852
H181	H	-0.079161	-0.338542	1.016736
H182	H	-0.056006	-0.297476	0.984247
H183	H	-0.037843	-0.532946	0.952238
O184	O	0.041754	-0.391626	0.735878
C185	C	-0.006284	-0.384383	0.769464
H186	H	-0.006156	-0.415240	0.805927
H187	H	-0.020944	-0.347935	0.774917
C188	C	-0.039289	-0.346122	0.704744
C189	C	-0.039131	-0.384024	0.749527
H190	H	-0.059551	-0.345898	0.692446
H191	H	-0.006925	-0.351000	0.682116
H192	H	-0.051504	-0.315753	0.709294
H193	H	-0.026910	-0.414392	0.744976
H194	H	-0.071494	-0.379150	0.772154
O195	O	0.173085	-0.507655	0.836515
C196	C	0.202676	-0.550556	0.823981
H197	H	0.182904	-0.557671	0.809930
H198	H	0.238608	-0.545894	0.794262
C199	C	0.237455	-0.585367	0.886672
C200	C	0.213169	-0.594107	0.869418
H201	H	0.243930	-0.612231	0.914699
H202	H	0.217521	-0.556463	0.895116
H203	H	0.267396	-0.581481	0.861902
H204	H	0.183227	-0.597987	0.894185
H205	H	0.233099	-0.623013	0.860980
O206	O	0.206594	-0.473990	0.735642
C207	C	0.218938	-0.499733	0.706033
H208	H	0.190101	-0.517057	0.721472
H209	H	0.220602	-0.473414	0.667263
C210	C	0.304548	-0.518723	0.686248
C211	C	0.269131	-0.540005	0.705212
H212	H	0.335510	-0.543564	0.685739
H213	H	0.296232	-0.501379	0.706194
H214	H	0.305929	-0.496791	0.653941
H215	H	0.267747	-0.561932	0.737520
H216	H	0.277448	-0.557355	0.685271
O217	O	0.176544	-0.005780	0.357339
C218	C	0.213582	-0.047785	0.373836
H219	H	0.200284	-0.061983	0.415496
H220	H	0.222840	-0.077221	0.359848
C221	C	0.275830	-0.017290	0.303308
C222	C	0.259499	-0.034725	0.354476
H223	H	0.304155	-0.009235	0.291365
H224	H	0.250877	0.011009	0.292193
H225	H	0.283542	-0.041823	0.291658
H226	H	0.251782	-0.010191	0.366126
H227	H	0.284452	-0.063020	0.365593
O228	O	0.049150	-0.121784	0.574488
C229	C	0.003630	-0.092205	0.567175
H230	H	0.007708	-0.084533	0.528357
H231	H	-0.024154	-0.111938	0.594387
C232	C	-0.019078	-0.053025	0.622542
C233	C	-0.014068	-0.043599	0.574864
H234	H	-0.029997	-0.023043	0.627287
H235	H	0.011589	-0.072954	0.627470
H236	H	-0.042230	-0.069470	0.645213
H237	H	0.009088	-0.027160	0.552194
H238	H	-0.044731	-0.023666	0.569932
O239	O	0.022320	-0.006130	0.357850
C240	C	0.064274	-0.006133	0.315662
H241	H	0.087619	0.009270	0.316056
H242	H	0.086341	-0.045132	0.315073
C243	C	0.020085	0.006821	0.269355
C244	C	0.048756	0.025743	0.269838
H245	H	0.010514	0.026481	0.241089
H246	H	-0.008179	0.006820	0.297779
H247	H	0.038479	-0.025678	0.268867
H248	H	0.030360	0.058238	0.270332
H249	H	0.077017	0.025749	0.241413
O250	O	-0.095638	-0.528818	0.306079
C251	C	-0.138559	-0.499192	0.331865
H252	H	-0.145732	-0.518938	0.372811
H253	H	-0.133892	-0.463261	0.320991
C254	C	-0.173249	-0.464442	0.269118
C255	C	-0.182061	-0.488697	0.319409
H256	H	-0.200083	-0.457966	0.261434
H257	H	-0.144332	-0.484400	0.251745
H258	H	-0.169359	-0.434502	0.260063
H259	H	-0.185945	-0.518639	0.328462
H260	H	-0.210980	-0.468743	0.336784
H261	H	0.046887	-0.396202	0.562361
O262	O	0.550620	-0.600536	0.423919
C263	C	0.508552	-0.613720	0.457447
H264	H	0.494543	-0.603990	0.491327
H265	H	0.479037	-0.593106	0.439765
C266	C	0.538597	-0.681063	0.430580
C267	C	0.521394	-0.669116	0.472193
H268	H	0.546517	-0.715233	0.439675
H269	H	0.566938	-0.672179	0.407990
H270	H	0.513999	-0.663880	0.415849
H271	H	0.545994	-0.686293	0.486920
H272	H	0.493057	-0.678003	0.494786
O273	O	0.172739	-0.507444	0.450861
C274	C	0.202295	-0.481593	0.407944
H275	H	0.182519	-0.440658	0.400848
H276	H	0.238255	-0.492479	0.412567
C277	C	0.237006	-0.544224	0.373121
C278	C	0.212715	-0.493947	0.364403
H279	H	0.243436	-0.551846	0.346263
H280	H	0.217095	-0.561642	0.402036
H281	H	0.266970	-0.553289	0.376975
H282	H	0.182749	-0.484883	0.360556
H283	H	0.232622	-0.476528	0.335487
O284	O	0.206363	-0.473797	0.484463
C285	C	0.218694	-0.430791	0.458716
H286	H	0.189820	-0.400057	0.441430
H287	H	0.220412	-0.420027	0.485021
C288	C	0.304311	-0.477621	0.439639
C289	C	0.268849	-0.439874	0.418404
H290	H	0.335250	-0.483223	0.414775
H291	H	0.296003	-0.506595	0.456987
H292	H	0.305736	-0.468646	0.461560
H293	H	0.267419	-0.448852	0.396489
H294	H	0.277157	-0.410901	0.401052
H295	H	0.015920	-0.427139	0.531437
H296	H	0.084809	-0.218687	0.600218
H297	H	0.338156	-0.509129	0.552896
H298	H	0.430973	-0.540048	0.521891
H299	H	-0.134607	-0.647683	0.424287
O300	O	0.550392	-0.408573	0.328311
C301	C	0.508263	-0.397247	0.319594
H302	H	0.494273	-0.429578	0.342402
H303	H	0.478768	-0.363752	0.330150
C304	C	0.538168	-0.346737	0.236989
C305	C	0.520987	-0.386449	0.264999
H306	H	0.546015	-0.340074	0.203312
H307	H	0.566550	-0.354366	0.242861
H308	H	0.513586	-0.318829	0.245791
H309	H	0.545571	-0.414357	0.256201
H310	H	0.492609	-0.378824	0.259123
O311	O	0.434866	-0.384607	0.460778
C312	C	0.401303	-0.336893	0.458057
H313	H	0.364821	-0.334907	0.461439
H314	H	0.395891	-0.327341	0.489050
C315	C	0.466043	-0.302796	0.404498
C316	C	0.421235	-0.300356	0.408647
H317	H	0.478338	-0.280258	0.374021
H318	H	0.488655	-0.334942	0.406332
H319	H	0.461526	-0.294838	0.430328
H320	H	0.425754	-0.308320	0.382821
H321	H	0.398624	-0.268210	0.406808
H322	H	0.338097	-0.358917	0.495611
O323	O	0.027173	-0.687355	0.316181
C324	C	0.061942	-0.699882	0.274015
H325	H	0.064341	-0.737026	0.278627
H326	H	0.050432	-0.671083	0.240836
C327	C	0.109285	-0.656675	0.260883
C328	C	0.112234	-0.702298	0.266548
H329	H	0.140307	-0.658163	0.256275
H330	H	0.085859	-0.648233	0.289289
H331	H	0.099691	-0.632681	0.233234
H332	H	0.121822	-0.726290	0.294200
H333	H	0.135663	-0.710744	0.238146
O334	O	0.165035	-0.222637	0.443359
C335	C	0.139168	-0.210127	0.413799
H336	H	0.098238	-0.196077	0.433584
H337	H	0.150027	-0.180414	0.377849
C338	C	0.201802	-0.272836	0.379043
C339	C	0.151531	-0.255583	0.403346
H340	H	0.209430	-0.300874	0.372593
H341	H	0.219231	-0.281263	0.398957
H342	H	0.210845	-0.248071	0.349088
H343	H	0.142490	-0.280346	0.433303
H344	H	0.134101	-0.247161	0.383437
O345	O	-0.061845	-0.495270	0.170286
C346	C	-0.113088	-0.473980	0.182722
H347	H	-0.129591	-0.503091	0.196754
H348	H	-0.128278	-0.457817	0.212424
C349	C	-0.105981	-0.397476	0.119992
C350	C	-0.126250	-0.433230	0.137223
H351	H	-0.114101	-0.372338	0.091927
H352	H	-0.071458	-0.411819	0.111615
H353	H	-0.118641	-0.384013	0.144748
H354	H	-0.113585	-0.446697	0.112468
H355	H	-0.160772	-0.418889	0.145594
O356	O	0.020553	-0.660111	0.170434
C357	C	0.027729	-0.708158	0.204012
H358	H	0.021963	-0.708057	0.240502
H359	H	0.000494	-0.722780	0.209400
C360	C	0.087229	-0.741152	0.139301
C361	C	0.080151	-0.741028	0.184118
H362	H	0.119564	-0.761428	0.127029
H363	H	0.082393	-0.708782	0.116679
H364	H	0.064530	-0.753336	0.143797
H365	H	0.102845	-0.728838	0.179620
H366	H	0.084992	-0.773397	0.206739
O367	O	-0.061930	-0.495263	0.339652
C368	C	-0.044359	-0.474050	0.288404
H369	H	-0.012804	-0.503219	0.271954
H370	H	-0.075014	-0.457858	0.273178
C371	C	-0.065135	-0.397523	0.295415
C372	C	-0.026377	-0.433348	0.275211
H373	H	-0.054045	-0.372414	0.287276
H374	H	-0.076975	-0.411813	0.329941
H375	H	-0.090678	-0.384036	0.282724
H376	H	-0.000837	-0.446839	0.287906
H377	H	-0.014532	-0.419059	0.240686
O378	O	0.131452	-0.121731	0.409804
C379	C	0.157210	-0.092129	0.397419
H380	H	0.148006	-0.084470	0.431134
H381	H	0.198162	-0.111834	0.383347
C382	C	0.153768	-0.052926	0.315943
C383	C	0.142459	-0.043516	0.357353
H384	H	0.144670	-0.022940	0.291227
H385	H	0.136415	-0.072871	0.324287
H386	H	0.187894	-0.069349	0.304223
H387	H	0.108332	-0.027100	0.369076
H388	H	0.159805	-0.023567	0.349010
O389	O	0.020150	-0.660092	0.422262
C390	C	0.027391	-0.708141	0.429497
H391	H	-0.003435	-0.708016	0.423714
H392	H	0.063862	-0.722835	0.402305
C393	C	0.065533	-0.741102	0.489048
C394	C	0.027670	-0.740949	0.481948
H395	H	0.065708	-0.761340	0.521401
H396	H	0.060657	-0.708731	0.484172
H397	H	0.095922	-0.753346	0.466384
H398	H	-0.002718	-0.728700	0.504607
H399	H	0.032541	-0.773319	0.486829
O400	O	0.060650	-0.788253	0.349956
C401	C	0.068621	-0.838893	0.370220
H402	H	0.033383	-0.845842	0.399503
H403	H	0.080446	-0.853422	0.340262
C404	C	0.152233	-0.856662	0.357302
C405	C	0.108954	-0.865197	0.393271
H406	H	0.177115	-0.872889	0.371518
H407	H	0.146865	-0.822545	0.343648
H408	H	0.162082	-0.868770	0.332339
H409	H	0.099104	-0.853084	0.418229
H410	H	0.114323	-0.899313	0.406929
O411	O	-0.102619	-0.787935	0.411946
C412	C	-0.150319	-0.754345	0.414647
H413	H	-0.152275	-0.717863	0.411239
H414	H	-0.159878	-0.748936	0.383661
C415	C	-0.184465	-0.819048	0.468245
C416	C	-0.186869	-0.774242	0.464063
H417	H	-0.207012	-0.831321	0.498726
H418	H	-0.152329	-0.841679	0.466424
H419	H	-0.192431	-0.814534	0.442420
H420	H	-0.178898	-0.778757	0.489884
H421	H	-0.219005	-0.751612	0.465889
H422	H	-0.134369	-0.571905	0.272603
O423	O	-0.231444	-0.618660	0.462990
C424	C	-0.218977	-0.669908	0.484254
H425	H	-0.204872	-0.686410	0.455114
H426	H	-0.189320	-0.685090	0.500475
C427	C	-0.281797	-0.662822	0.560727
C428	C	-0.264477	-0.683089	0.524936
H429	H	-0.309862	-0.670954	0.585823
H430	H	-0.290195	-0.628296	0.546401
H431	H	-0.257078	-0.675476	0.574238
H432	H	-0.289192	-0.670431	0.511422
H433	H	-0.256084	-0.717614	0.539260
O434	O	0.022419	-0.379922	0.357788
C435	C	-0.017169	-0.371202	0.346565
H436	H	-0.021052	-0.407511	0.357351
H437	H	-0.052204	-0.347670	0.367607
C438	C	-0.003074	-0.299824	0.278064
C439	C	-0.007840	-0.344419	0.291307
H440	H	0.002679	-0.283300	0.243979
H441	H	0.023596	-0.305697	0.285626
H442	H	-0.032271	-0.280219	0.295603
H443	H	0.021358	-0.364025	0.273773
H444	H	-0.034506	-0.338549	0.283741
O445	O	0.176718	-0.534073	0.357649
C446	C	0.185451	-0.573621	0.346356
H447	H	0.162617	-0.597110	0.378683
H448	H	0.174939	-0.559099	0.312839
C449	C	0.268079	-0.575860	0.295924
C450	C	0.240037	-0.604711	0.335630
H451	H	0.301750	-0.595037	0.289305
H452	H	0.262195	-0.549214	0.303530
H453	H	0.259314	-0.563760	0.267998
H454	H	0.248798	-0.616805	0.363556
H455	H	0.245923	-0.631360	0.328028
H456	H	-0.090896	-0.534066	0.267110
H457	H	-0.015331	-0.685697	0.386578
O458	O	0.081013	-0.630068	0.549533
C459	C	0.092502	-0.666879	0.532753
H460	H	0.076744	-0.650206	0.502393
H461	H	0.133891	-0.684060	0.518044
C462	C	0.089786	-0.726881	0.612595
C463	C	0.070427	-0.706404	0.575309
H464	H	0.076171	-0.751264	0.638845
H465	H	0.082048	-0.702082	0.623900
H466	H	0.124276	-0.741195	0.600331
H467	H	0.035939	-0.692085	0.587571
H468	H	0.078160	-0.731202	0.564007
H469	H	-0.128252	-0.691169	0.377093
H470	H	-0.015148	-0.685706	0.267200
