data_functionalizedCrystal
_audit_creation_method	'MofGen! by Chris Wilmer'
_symmetry_space_group_name_H-M	'P1'
_symmetry_Int_Tables_number	1
_symmetry_cell_setting	triclinic
loop_
_symmetry_equiv_pos_as_xyz
  x,y,z
_cell_length_a	19.077236
_cell_length_b	19.077068
_cell_length_c	19.076919
_cell_angle_alpha	85.529249
_cell_angle_beta	90.112677
_cell_angle_gamma	94.708605
loop_
_atom_site_label
_atom_site_type_symbol
_atom_site_fract_x
_atom_site_fract_y
_atom_site_fract_z
Zn1	Zn	1.047584	-0.256314	0.450390
Zn2	Zn	1.047497	-0.369471	0.337231
Zn3	Zn	0.934815	-0.255944	0.328156
Zn4	Zn	0.924923	-0.378891	0.450332
O5	O	0.988705	-0.315155	0.391527
O6	O	1.146064	-0.267537	0.439202
O7	O	1.036653	-0.350314	0.237539
O8	O	0.953950	-0.157183	0.340597
O9	O	1.146000	-0.350673	0.356065
O10	O	1.036801	-0.157455	0.430402
O11	O	0.953866	-0.266906	0.230872
O12	O	0.835011	-0.276041	0.340540
O13	O	0.937090	-0.366728	0.548828
O14	O	0.827743	-0.366369	0.430302
O15	O	1.027209	-0.276672	0.548871
O16	O	1.027061	-0.469531	0.356008
O17	O	0.937006	-0.476452	0.439102
C18	C	0.805839	-0.322188	0.384430
C19	C	0.727607	-0.325214	0.381412
C20	C	0.690881	-0.283426	0.423350
C21	C	0.617374	-0.286266	0.420507
C22	C	0.580594	-0.330898	0.375730
C23	C	0.617325	-0.372687	0.333787
C24	C	0.690831	-0.369843	0.336626
C25	C	0.360752	-0.344033	0.362585
C26	C	0.287240	-0.346876	0.359750
C27	C	0.287295	-0.260453	0.446471
C28	C	0.360802	-0.257616	0.449309
C29	C	0.397527	-0.299403	0.407363
N30	N	0.505458	-0.333803	0.372825
N31	N	0.472662	-0.296493	0.410265
C32	C	0.980969	-0.498612	0.398550
C33	C	0.977723	-0.577094	0.401580
C34	C	1.023118	-0.610338	0.359779
C35	C	1.020069	-0.684080	0.362634
C36	C	0.971621	-0.724577	0.407285
C37	C	0.926224	-0.691328	0.449090
C38	C	0.929277	-0.617587	0.446239
C39	C	0.957462	-0.945508	0.420451
C40	C	0.954411	-1.019254	0.423297
C41	C	1.048258	-1.012002	0.336841
C42	C	1.051303	-0.938260	0.333991
C43	C	1.005909	-0.905017	0.375798
N44	N	0.968502	-0.799954	0.410202
N45	N	1.009032	-0.829642	0.372885
C46	C	1.172284	-0.308096	0.398652
C47	C	1.250515	-0.305088	0.401689
C48	C	0.981056	-0.322792	0.575100
C49	C	0.977797	-0.326047	0.653328
C50	C	0.996489	-0.130982	0.384494
C51	C	0.999806	-0.052499	0.381497
C52	C	0.996366	-0.307495	0.208668
C53	C	0.999770	-0.304037	0.130439
C54	C	1.023183	-0.280690	0.690103
C55	C	1.020112	-0.283745	0.763606
C56	C	0.971657	-0.332161	0.800332
C57	C	0.926266	-0.377520	0.763552
C58	C	0.929334	-0.374461	0.690050
C59	C	0.957447	-0.346336	1.020156
C60	C	0.954384	-0.349393	1.093664
C61	C	1.048229	-0.255618	1.093712
C62	C	1.051296	-0.252565	1.020209
C63	C	1.005902	-0.297921	0.983435
N64	N	0.968519	-0.335287	0.875464
N65	N	1.009038	-0.294792	0.908304
H66	H	0.720732	-0.403871	0.302475
C67	C	0.879407	-0.424358	0.649598
N68	N	0.841799	-0.461941	0.619130
C69	C	0.246893	-0.214478	0.492595
N70	N	0.216463	-0.179842	0.527333
H71	H	0.886811	-0.416939	0.793461
H72	H	0.257296	-0.383224	0.323286
C73	C	0.401139	-0.390004	0.316446
N74	N	0.431561	-0.424632	0.281693
H75	H	0.587372	-0.409024	0.297324
H76	H	0.720822	-0.247083	0.459815
H77	H	0.920499	-0.918448	0.454491
H78	H	1.085216	-1.039077	0.302805
H79	H	0.587475	-0.252239	0.454660
C80	C	0.901117	-1.063799	0.472424
N81	N	0.860978	-1.097351	0.509425
C82	C	1.070042	-0.233850	0.804055
N83	N	1.107652	-0.196267	0.834521
H84	H	0.390744	-0.221274	0.485775
C85	C	1.076414	-0.565798	0.310657
N86	N	1.116559	-0.532253	0.273658
C87	C	0.901076	-0.402655	1.134061
N88	N	0.860926	-0.442770	1.164489
C89	C	0.879339	-0.581018	0.492223
N90	N	0.841726	-0.553476	0.526862
C91	C	1.070003	-0.720646	0.316645
N92	N	1.107615	-0.748186	0.282003
C93	C	0.872928	-0.735877	0.498205
N94	N	0.832782	-0.769430	0.535196
C95	C	1.104583	-0.893719	0.284852
N96	N	1.144705	-0.860170	0.247831
C97	C	1.076486	-0.227427	0.649710
N98	N	1.116634	-0.187306	0.619288
C99	C	1.104592	-0.199297	0.979815
N100	N	1.144736	-0.159174	0.949390
C101	C	0.907510	-0.396227	0.979714
N102	N	0.869894	-0.433807	0.949251
H103	H	1.085185	-0.218691	1.123662
