data_functionalizedCrystal
_audit_creation_method	'MofGen! by Chris Wilmer'
_symmetry_space_group_name_H-M	'P1'
_symmetry_Int_Tables_number	1
_symmetry_cell_setting	triclinic
loop_
_symmetry_equiv_pos_as_xyz
  x,y,z
_cell_length_a	13.262402
_cell_length_b	11.804365
_cell_length_c	11.026607
_cell_angle_alpha	75.515365
_cell_angle_beta	96.047973
_cell_angle_gamma	86.416340
loop_
_atom_site_label
_atom_site_type_symbol
_atom_site_fract_x
_atom_site_fract_y
_atom_site_fract_z
O1	O	1.366023	-0.343440	0.248330
O2	O	1.079362	-0.250586	0.243216
O3	O	1.198933	-0.289321	0.067096
O4	O	1.246451	-0.304704	0.424450
O5	O	1.167446	-0.477177	0.113411
O6	O	1.047874	-0.438442	0.289531
O7	O	1.334535	-0.531295	0.294645
Cu8	Cu	1.188330	-0.502021	0.296317
Cu9	Cu	1.225567	-0.279860	0.241544
O10	O	1.214964	-0.492560	0.470765
C11	C	1.026349	-0.332442	0.262399
C12	C	0.915295	-0.296470	0.250541
C13	C	0.880286	-0.177167	0.219721
C14	C	0.775946	-0.143372	0.208592
C15	C	0.706605	-0.228877	0.228272
C16	C	0.741614	-0.348182	0.259084
C17	C	0.845965	-0.381980	0.270224
C18	C	0.672284	-0.433690	0.278775
C19	C	0.707293	-0.552995	0.309587
C20	C	0.811634	-0.586788	0.320724
C21	C	0.880974	-0.501283	0.301044
C22	C	0.567934	-0.399891	0.267635
C23	C	0.533613	-0.604704	0.318138
C24	C	0.637952	-0.638499	0.329267
N25	N	1.162146	-0.658280	0.334842
C26	C	1.314630	-1.081625	0.110475
C27	C	1.334436	-0.963380	0.081326
C28	C	1.291365	-0.887099	0.144702
C29	C	1.228485	-0.929075	0.237233
C30	C	1.208683	-1.047334	0.266392
C31	C	1.185418	-0.852808	0.300619
C32	C	1.122538	-0.894784	0.393150
C33	C	1.102739	-1.013032	0.422303
C34	C	1.145811	-1.089313	0.358927
C35	C	1.205220	-0.734549	0.271460
C36	C	1.099273	-0.700258	0.427377
C37	C	1.079467	-0.818504	0.456526
C38	C	1.387549	-0.449437	0.275462
C39	C	1.498603	-0.485401	0.287318
C40	C	1.174424	-0.380408	0.044295
C41	C	1.148293	-0.371940	-0.092647
N42	N	1.251757	-0.123604	0.203010
C43	C	1.220447	-0.395310	-0.160304
C44	C	1.193441	-0.386558	-0.301840
C45	C	1.239473	-0.401470	0.493565
C46	C	1.265606	-0.409931	0.630505
H47	H	0.965937	-0.528793	0.310095
H48	H	0.840134	-0.683934	0.345825
H49	H	1.256417	-0.700383	0.196122
H50	H	1.064203	-0.638150	0.478986
H51	H	1.385633	-0.929208	0.005990
C52	C	1.082969	-0.350776	-0.365134
N53	N	0.999763	-0.323829	-0.412808
C54	C	1.376078	-0.445716	-0.306203
N55	N	1.459284	-0.472671	-0.258531
C56	C	1.330912	-0.431100	-0.097002
N57	N	1.414116	-0.458062	-0.049325
H58	H	1.051548	-1.047211	0.497657
C59	C	0.529436	-0.268658	0.233731
N60	N	0.500441	-0.169805	0.208188
C61	C	0.956565	-0.083128	0.198078
N62	N	1.014021	-0.012290	0.181774
C63	C	0.737443	-0.012141	0.174683
N64	N	0.708442	0.086710	0.149134
C65	C	0.676480	-0.769734	0.363208
N66	N	0.705501	-0.868580	0.388788
H67	H	0.621649	-0.201353	0.219209
H68	H	0.477155	-0.674329	0.334167
C69	C	1.037826	-0.336160	-0.155945
N70	N	0.954620	-0.309213	-0.203619
C71	C	1.313146	-0.757023	0.112625
N72	N	1.329549	-0.659044	0.088454
C73	C	1.362003	-1.165540	0.040775
N74	N	1.397686	-1.228748	-0.011729
H75	H	1.129682	-1.185598	0.382656
H76	H	1.028269	-0.852696	0.531867
