data_functionalizedCrystal
_audit_creation_method	'MofGen! by Chris Wilmer'
_symmetry_space_group_name_H-M	'P1'
_symmetry_Int_Tables_number	1
_symmetry_cell_setting	triclinic
loop_
_symmetry_equiv_pos_as_xyz
  x,y,z
_cell_length_a	16.959455
_cell_length_b	16.959454
_cell_length_c	21.395356
_cell_angle_alpha	90.021211
_cell_angle_beta	89.971488
_cell_angle_gamma	89.980044
loop_
_atom_site_label
_atom_site_type_symbol
_atom_site_fract_x
_atom_site_fract_y
_atom_site_fract_z
Zn1	Zn	1.208432	0.314764	-0.354372
Zn2	Zn	1.708432	0.814764	0.145628
Zn3	Zn	1.208329	0.446946	-0.249606
Zn4	Zn	1.708329	0.946946	0.250394
Zn5	Zn	1.076241	0.314779	-0.249600
Zn6	Zn	1.576241	0.814779	0.250400
Zn7	Zn	1.076218	0.446898	-0.354337
Zn8	Zn	1.576218	0.946898	0.145663
O9	O	1.142305	0.380847	-0.301979
O10	O	1.642305	0.880847	0.198021
O11	O	1.319029	0.332313	-0.340492
O12	O	1.819029	0.832313	0.159508
O13	O	1.190774	0.429440	-0.161927
O14	O	1.690774	0.929440	0.338073
O15	O	1.093829	0.204166	-0.263509
O16	O	1.593829	0.704166	0.236491
O17	O	1.318953	0.429426	-0.263521
O18	O	1.818953	0.929426	0.236479
O19	O	1.190949	0.204155	-0.340485
O20	O	1.690949	0.704155	0.159515
O21	O	1.093730	0.332337	-0.161923
O22	O	1.593730	0.832337	0.338077
O23	O	0.965627	0.332290	-0.263476
O24	O	1.465627	0.832290	0.236524
O25	O	1.093790	0.429344	-0.442020
O26	O	1.593790	0.929344	0.057980
O27	O	0.965610	0.429358	-0.340427
O28	O	1.465610	0.929358	0.159573
O29	O	1.190927	0.332266	-0.442045
O30	O	1.690927	0.832266	0.057955
O31	O	1.190751	0.557551	-0.263487
O32	O	1.690751	1.057551	0.236513
O33	O	1.093690	0.557515	-0.340433
O34	O	1.593690	1.057515	0.159567
C35	C	0.936939	0.380821	-0.301947
C36	C	1.436939	0.880821	0.198053
C37	C	0.849082	0.380829	-0.301949
C38	C	1.349082	0.880829	0.198051
C39	C	0.477556	0.431364	-0.261880
C40	C	0.977556	0.931364	0.238120
C41	C	0.477657	0.330396	-0.342154
C42	C	0.977657	0.830396	0.157846
C43	C	0.560202	0.330383	-0.342139
C44	C	1.060202	0.830383	0.157861
C45	C	0.601429	0.380862	-0.301994
C46	C	1.101429	0.880862	0.198006
C47	C	0.560110	0.431354	-0.261864
C48	C	1.060110	0.931354	0.238136
C49	C	0.601528	0.279897	-0.382272
C50	C	1.101528	0.779897	0.117728
C51	C	0.684079	0.279883	-0.382259
C52	C	1.184079	0.779883	0.117741
C53	C	0.725307	0.330358	-0.342111
C54	C	1.225307	0.830358	0.157889
C55	C	0.683983	0.380852	-0.301979
C56	C	1.183983	0.880852	0.198021
C57	C	0.725209	0.431331	-0.261834
C58	C	1.225209	0.931331	0.238166
C59	C	0.683887	0.481821	-0.221699
C60	C	1.183887	0.981821	0.278301
C61	C	0.601338	0.481830	-0.221716
C62	C	1.101338	0.981830	0.278284
C63	C	0.807855	0.330350	-0.342093
C64	C	1.307855	0.830350	0.157907
C65	C	0.807763	0.431321	-0.261819
C66	C	1.307763	0.931321	0.238181
C67	C	1.142228	0.586213	-0.301971
C68	C	1.642228	1.086213	0.198029
C69	C	1.142268	0.674070	-0.301988
C70	C	1.642268	1.174070	0.198012
C71	C	1.091805	1.045557	-0.342049
C72	C	1.591805	1.545557	0.157951
C73	C	1.192958	1.045534	-0.261990
C74	C	1.692958	1.545534	0.238010
C75	C	1.192935	0.962988	-0.261983
C76	C	1.692935	1.462988	0.238017
C77	C	1.142345	0.921723	-0.302009
C78	C	1.642345	1.421723	0.197991
C79	C	1.091779	0.963003	-0.342042
C80	C	1.591779	1.463003	0.157958
C81	C	1.243495	0.921701	-0.221947
C82	C	1.743495	1.421701	0.278053
C83	C	1.243472	0.839150	-0.221938
C84	C	1.743472	1.339150	0.278062
C85	C	1.192886	0.797883	-0.261967
C86	C	1.692886	1.297883	0.238033
C87	C	1.142318	0.839169	-0.302002
C88	C	1.642318	1.339169	0.197998
C89	C	1.091728	0.797904	-0.342028
C90	C	1.591728	1.297904	0.157972
C91	C	1.041164	0.839188	-0.382067
C92	C	1.541164	1.339188	0.117933
C93	C	1.041192	0.921736	-0.382071
C94	C	1.541192	1.421736	0.117929
C95	C	1.192858	0.715335	-0.261962
C96	C	1.692858	1.215335	0.238038
C97	C	1.091702	0.715350	-0.342021
C98	C	1.591702	1.215350	0.157979
C99	C	1.348473	0.380873	-0.302011
C100	C	1.848473	0.880873	0.197989
C101	C	1.436330	0.380885	-0.302024
C102	C	1.936330	0.880885	0.197976
C103	C	1.142367	0.380798	-0.465402
C104	C	1.642367	0.880798	0.034598
C105	C	1.142394	0.380777	-0.535043
C106	C	1.642394	0.880777	-0.035043
C107	C	1.142391	1.174679	-0.302004
C108	C	1.642391	1.674679	0.197996
C109	C	1.142395	1.086822	-0.302023
C110	C	1.642395	1.586822	0.197977
C111	C	1.091876	0.330210	-0.567744
C112	C	1.591876	0.830210	-0.067744
C113	C	1.091874	0.330195	-0.633180
C114	C	1.591874	0.830195	-0.133180
C115	C	1.142402	0.380739	-0.665912
C116	C	1.642402	0.880739	-0.165912
C117	C	1.192923	0.431316	-0.633203
C118	C	1.692923	0.931316	-0.133203
C119	C	1.192919	0.431335	-0.567769
C120	C	1.692919	0.931335	-0.067769
C121	C	1.213621	0.386957	-0.769603
C122	C	1.713621	0.886957	-0.269603
C123	C	1.213626	0.386933	-0.835036
C124	C	1.713626	0.886933	-0.335036
C125	C	1.142415	0.380686	-0.867733
C126	C	1.642415	0.880686	-0.367733
C127	C	1.071196	0.374447	-0.834988
C128	C	1.571196	0.874447	-0.334988
C129	C	1.071192	0.374465	-0.769554
C130	C	1.571192	0.874465	-0.269554
C131	C	1.142412	0.380725	-0.736864
C132	C	1.642412	0.880725	-0.236864
C133	C	1.091891	0.330100	-0.971386
C134	C	1.591891	0.830100	-0.471386
C135	C	1.091887	0.330091	-1.036823
C136	C	1.591887	0.830091	-0.536823
C137	C	1.192944	0.431208	-1.036845
C138	C	1.692944	0.931208	-0.536845
C139	C	1.192940	0.431221	-0.971410
C140	C	1.692940	0.931221	-0.471410
C141	C	1.142415	0.380663	-0.938684
C142	C	1.642415	0.880663	-0.438684
C143	C	1.142288	0.380839	-0.139191
C144	C	1.642288	0.880839	0.360809
C145	C	1.142415	0.380637	-0.069550
C146	C	1.642415	0.880637	0.430450
H147	H	1.050508	0.681757	-0.374618
H148	H	1.550508	1.181757	0.125382
C149	C	1.291963	0.393794	-0.871050
C150	C	1.791963	0.893794	-0.371050
H151	H	1.334371	0.397531	-0.842207
H152	H	1.834371	0.897531	-0.342207
H153	H	1.298939	0.348488	-0.896582
H154	H	1.798939	0.848488	-0.396582
H155	H	1.290911	0.439609	-0.896571
H156	H	1.790911	0.939609	-0.396571
C157	C	1.248468	0.669922	-0.217926
C158	C	1.748468	1.169922	0.282074
H159	H	1.241205	0.614849	-0.223652
H160	H	1.741205	1.114849	0.276348
H161	H	1.301576	0.683411	-0.227134
H162	H	1.801576	1.183411	0.272866
H163	H	1.236921	0.683482	-0.175819
H164	H	1.736921	1.183482	0.324181
H165	H	0.841324	0.472425	-0.229126
H166	H	1.341324	0.972425	0.270874
H167	H	0.567955	0.238805	-0.414960
H168	H	1.067955	0.738805	0.085040
H169	H	0.443908	0.472469	-0.229201
H170	H	0.943908	0.972469	0.270799
H171	H	1.013203	0.369387	-0.742895
H172	H	1.513203	0.869387	-0.242895
C173	C	1.248523	0.486811	-1.072839
C174	C	1.748523	0.986811	-0.572839
H175	H	1.278607	0.516933	-1.043989
H176	H	1.778607	1.016933	-0.543989
H177	H	1.282979	0.456576	-1.098384
H178	H	1.782979	0.956576	-0.598384
H179	H	1.218263	0.521243	-1.098347
H180	H	1.718263	1.021243	-0.598347
H181	H	1.000025	0.955357	-0.414668
H182	H	1.500025	1.455357	0.085332
H183	H	1.271614	0.392038	-0.742988
H184	H	1.771614	0.892038	-0.242988
C185	C	1.299136	0.967089	-0.177919
C186	C	1.799136	1.467089	0.322081
H187	H	1.329239	0.930681	-0.154069
H188	H	1.829239	1.430681	0.345931
H189	H	1.333572	0.999253	-0.201916
H190	H	1.833572	1.499253	0.298084
H191	H	1.268919	0.999328	-0.150599
H192	H	1.768919	1.499328	0.349401
H193	H	0.717717	0.238770	-0.414940
H194	H	1.217717	0.738770	0.085060
H195	H	0.841497	0.289243	-0.374772
H196	H	1.341497	0.789243	0.125228
H197	H	0.567686	0.522936	-0.189040
H198	H	1.067686	1.022936	0.310960
C199	C	0.729241	0.537345	-0.177542
C200	C	1.229241	1.037345	0.322458
H201	H	0.784322	0.530102	-0.183283
H202	H	1.284322	1.030102	0.316717
H203	H	0.715710	0.590471	-0.186638
H204	H	1.215710	1.090471	0.313362
H205	H	0.715684	0.525701	-0.135459
H206	H	1.215684	1.025701	0.364541
C207	C	0.432310	0.274872	-0.386309
C208	C	0.932310	0.774872	0.113691
H209	H	0.377228	0.282107	-0.380568
H210	H	0.877228	0.782107	0.119432
H211	H	0.445874	0.286503	-0.428389
H212	H	0.945874	0.786503	0.071611
H213	H	0.445840	0.221744	-0.377200
H214	H	0.945840	0.721744	0.122800
H215	H	1.284645	0.805542	-0.189337
H216	H	1.784645	1.305542	0.310663
H217	H	1.050639	1.079174	-0.374649
H218	H	1.550639	1.579174	0.125351
C219	C	0.992858	0.367575	-0.870941
C220	C	1.492858	0.867575	-0.370941
H221	H	0.950446	0.363856	-0.842069
H222	H	1.450446	0.863856	-0.342069
H223	H	0.985887	0.412867	-0.896458
H224	H	1.485887	0.912867	-0.396458
H225	H	0.993909	0.321745	-0.896474
H226	H	1.493909	0.821745	-0.396474
H227	H	0.999970	0.805580	-0.414653
H228	H	1.499970	1.305580	0.085347
C229	C	1.248514	0.486839	-0.935434
C230	C	1.748514	0.986839	-0.435434
H231	H	1.241270	0.479616	-0.891776
H232	H	1.741270	0.979616	-0.391776
H233	H	1.301629	0.475278	-0.946177
H234	H	1.801629	0.975278	-0.446177
H235	H	1.236914	0.539946	-0.946148
H236	H	1.736914	1.039946	-0.446148
C237	C	1.248606	1.090923	-0.217969
C238	C	1.748606	1.590923	0.282031
H239	H	1.241384	1.145999	-0.223710
H240	H	1.741384	1.645999	0.276290
H241	H	1.237070	1.077429	-0.175859
H242	H	1.737070	1.577429	0.324141
H243	H	1.301706	1.077354	-0.227190
H244	H	1.801706	1.577354	0.272810
H245	H	1.050732	0.289044	-0.541103
H246	H	1.550732	0.789044	-0.041103
H247	H	1.050738	0.289013	-0.659810
H248	H	1.550738	0.789013	-0.159810
H249	H	1.050750	0.288933	-0.944739
H250	H	1.550750	0.788933	-0.444739
C251	C	1.036316	0.274464	-1.072794
C252	C	1.536316	0.774464	-0.572794
H253	H	1.006232	0.244353	-1.043929
H254	H	1.506232	0.744353	-0.543929
H255	H	1.001858	0.304684	-1.098303
H256	H	1.501858	0.804684	-0.598303
H257	H	1.066579	0.240022	-1.098334
H258	H	1.566579	0.740022	-0.598334
C259	C	1.248506	0.486911	-0.669206
C260	C	1.748506	0.986911	-0.169206
H261	H	1.241280	0.479651	-0.712860
H262	H	1.741280	0.979651	-0.212860
H263	H	1.236914	0.540022	-0.658474
H264	H	1.736914	1.040022	-0.158474
H265	H	1.301622	0.475347	-0.658500
H266	H	1.801622	0.975347	-0.158500
H267	H	1.234060	0.472512	-0.541144
H268	H	1.734060	0.972512	-0.041144
