data_functionalizedCrystal
_audit_creation_method	'MofGen! by Chris Wilmer'
_symmetry_space_group_name_H-M	'P1'
_symmetry_Int_Tables_number	1
_symmetry_cell_setting	triclinic
loop_
_symmetry_equiv_pos_as_xyz
  x,y,z
_cell_length_a	13.897447
_cell_length_b	13.897449
_cell_length_c	18.215399
_cell_angle_alpha	90.023868
_cell_angle_beta	89.974944
_cell_angle_gamma	89.980542
loop_
_atom_site_label
_atom_site_type_symbol
_atom_site_fract_x
_atom_site_fract_y
_atom_site_fract_z
Zn1	Zn	-0.384027	-1.474669	-0.416210
Zn2	Zn	-0.545336	-1.474564	-0.293150
Zn3	Zn	-0.384057	-1.313365	-0.293149
Zn4	Zn	-0.545281	-1.313335	-0.416166
O5	O	-0.464675	-1.393983	-0.354669
O6	O	-0.405435	-1.609637	-0.399905
O7	O	-0.523978	-1.453149	-0.190165
O8	O	-0.249071	-1.334818	-0.309491
O9	O	-0.523949	-1.609560	-0.309493
O10	O	-0.249049	-1.453328	-0.399903
O11	O	-0.405486	-1.334717	-0.190164
O12	O	-0.405433	-1.178379	-0.309448
O13	O	-0.523855	-1.334768	-0.519156
O14	O	-0.523884	-1.178357	-0.399829
O15	O	-0.405382	-1.453300	-0.519188
O16	O	-0.680311	-1.453121	-0.309450
O17	O	-0.680270	-1.334666	-0.399830
C18	C	-0.464656	-1.143369	-0.354634
C19	C	-0.464672	-1.036155	-0.354637
C20	C	-0.715290	-1.393905	-0.354652
C21	C	-0.822503	-1.393960	-0.354669
C22	C	-0.464673	-0.949085	-0.354646
C23	C	-0.464679	-0.839853	-0.354664
C24	C	-0.909573	-1.394006	-0.354686
C25	C	-1.018806	-1.394074	-0.354705
C26	C	-0.213082	-1.394088	-0.354702
C27	C	-0.105868	-1.394133	-0.354716
C28	C	-0.464609	-1.394042	-0.546622
C29	C	-0.464580	-1.394067	-0.628421
C30	C	-0.464691	-0.645576	-0.354695
C31	C	-0.464687	-0.752790	-0.354683
C32	C	-0.402834	-1.455809	-0.816633
C33	C	-0.402806	-1.455820	-0.893491
C34	C	-0.526178	-1.332394	-0.893447
C35	C	-0.526200	-1.332378	-0.816589
C36	C	-0.464530	-1.394091	-0.778184
C37	C	-0.464479	-1.394118	-0.931900
C38	C	-0.464449	-1.394130	-1.015234
C39	C	-0.464558	-1.394078	-0.694845
C40	C	-0.464672	-1.393980	-0.163462
C41	C	-0.464428	-1.394142	-0.081664
H42	H	-0.352565	-1.506075	-0.924793
H43	H	-0.576440	-1.282113	-0.785284
H44	H	-0.352615	-1.506057	-0.785365
C45	C	-0.594020	-1.264520	-0.935694
C46	C	-0.594004	-1.264537	-1.020234
C47	C	-0.661850	-1.196664	-1.062480
C48	C	-0.729714	-1.128773	-1.020185
C49	C	-0.729733	-1.128753	-0.935640
C50	C	-0.661886	-1.196626	-0.893395
H51	H	-0.543765	-1.314796	-1.051547
H52	H	-0.661836	-1.196679	-1.125065
H53	H	-0.779938	-1.078529	-1.051458
H54	H	-0.779972	-1.078494	-0.904327
H55	H	-0.661901	-1.196611	-0.830809
