data_functionalizedCrystal
_audit_creation_method	'MofGen! by Chris Wilmer'
_symmetry_space_group_name_H-M	'P1'
_symmetry_Int_Tables_number	1
_symmetry_cell_setting	triclinic
loop_
_symmetry_equiv_pos_as_xyz
  x,y,z
_cell_length_a	12.759400
_cell_length_b	12.759401
_cell_length_c	12.827885
_cell_angle_alpha	90.019318
_cell_angle_beta	89.969316
_cell_angle_gamma	89.987166
loop_
_atom_site_label
_atom_site_type_symbol
_atom_site_fract_x
_atom_site_fract_y
_atom_site_fract_z
Zn1	Zn	-0.418265	-1.606253	-0.590839
Zn2	Zn	-0.593981	-1.606148	-0.416098
Zn3	Zn	-0.418311	-1.430556	-0.416114
Zn4	Zn	-0.593897	-1.430544	-0.590798
O5	O	-0.506114	-1.518375	-0.503462
O6	O	-0.441590	-1.753260	-0.567670
O7	O	-0.570733	-1.582817	-0.269864
O8	O	-0.271284	-1.453911	-0.439315
O9	O	-0.570688	-1.753183	-0.439288
O10	O	-0.271250	-1.582995	-0.567686
O11	O	-0.441669	-1.453810	-0.269875
O12	O	-0.441587	-1.283533	-0.439275
O13	O	-0.570545	-1.453891	-0.737040
O14	O	-0.570589	-1.283524	-0.567615
O15	O	-0.441509	-1.582984	-0.737070
O16	O	-0.740991	-1.582805	-0.439248
O17	O	-0.740929	-1.453789	-0.567600
C18	C	-0.506085	-1.245408	-0.503443
C19	C	-0.506098	-1.128631	-0.503460
C20	C	-0.573375	-1.073792	-0.570175
C21	C	-0.573384	-0.964068	-0.570184
C22	C	-0.438837	-0.964032	-0.436754
C23	C	-0.438823	-1.073754	-0.436751
C24	C	-0.651058	-1.073812	-0.647206
C25	C	-0.651068	-0.964088	-0.647215
C26	C	-0.779081	-1.518313	-0.503440
C27	C	-0.895858	-1.518382	-0.503466
C28	C	-0.950717	-1.585635	-0.436707
C29	C	-1.060441	-1.585700	-0.436739
C30	C	-1.060437	-1.451249	-0.570292
C31	C	-0.950715	-1.451191	-0.570264
C32	C	-0.950721	-1.663256	-0.359598
C33	C	-1.060445	-1.663321	-0.359630
C34	C	-0.232081	-1.518466	-0.503507
C35	C	-0.115304	-1.518505	-0.503526
C36	C	-0.506012	-1.518448	-0.776032
C37	C	-0.505969	-1.518478	-0.892186
C38	C	-0.506135	-0.792408	-0.503477
C39	C	-0.506121	-0.909185	-0.503472
C40	C	-0.442062	-1.582395	-1.064030
C41	C	-0.442105	-1.582365	-0.943980
C42	C	-0.506139	-1.518363	-0.231952
C43	C	-0.505887	-1.518536	-0.115800
H44	H	-0.384063	-0.919337	-0.382443
C45	C	-1.100065	-1.634260	-0.251648
C46	C	-1.014607	-1.616421	-0.185566
C47	C	-1.051065	-1.589634	-0.086095
H48	H	-1.141379	-1.689931	-0.224676
H49	H	-1.141441	-1.572502	-0.255972
H50	H	-0.973249	-1.678172	-0.181239
H51	H	-0.973285	-1.560746	-0.212504
H52	H	-1.092440	-1.527875	-0.090418
H53	H	-1.092379	-1.645308	-0.059133
H54	H	-0.993088	-1.577517	-0.041248
C55	C	-1.120133	-1.378468	-0.642870
C56	C	-1.183042	-1.437956	-0.709900
C57	C	-1.238056	-1.370944	-0.776764
H58	H	-1.071864	-1.338381	-0.682724
H59	H	-1.163066	-1.332753	-0.602897
H60	H	-1.140112	-1.483653	-0.749869
H61	H	-1.231330	-1.478041	-0.670074
H62	H	-1.280990	-1.325229	-0.736791
H63	H	-1.189780	-1.330860	-0.816611
H64	H	-1.280753	-1.411296	-0.822245
C65	C	-0.891289	-1.378236	-0.642921
C66	C	-0.917902	-1.401063	-0.746339
C67	C	-0.863192	-1.333866	-0.813301
H68	H	-0.818069	-1.387753	-0.633485
H69	H	-0.909363	-1.307645	-0.627638
H70	H	-0.899821	-1.471637	-0.761617
H71	H	-0.991113	-1.391540	-0.755808
H72	H	-0.881266	-1.263275	-0.798017
H73	H	-0.789975	-1.343388	-0.803856
H74	H	-0.881248	-1.349338	-0.883477
C75	C	-0.365727	-1.133105	-0.364214
C76	C	-0.306835	-1.061558	-0.305780
C77	C	-0.239492	-1.116194	-0.238939
H78	H	-0.319905	-1.175928	-0.404160
H79	H	-0.405823	-1.175867	-0.318549
H80	H	-0.266742	-1.018814	-0.351440
H81	H	-0.352629	-1.018733	-0.265813
H82	H	-0.279589	-1.158956	-0.193274
H83	H	-0.193678	-1.159015	-0.278893
H84	H	-0.199533	-1.067658	-0.199277
H85	H	-0.920866	-1.744599	-0.381335
C86	C	-0.622053	-1.113363	-0.755224
C87	C	-0.604325	-1.027862	-0.821303
C88	C	-0.577590	-1.064256	-0.920809
H89	H	-0.677716	-1.154703	-0.782153
H90	H	-0.560262	-1.154697	-0.750971
H91	H	-0.666109	-0.986545	-0.825559
H92	H	-0.548658	-0.986513	-0.794407
H93	H	-0.515799	-1.105590	-0.916556
H94	H	-0.633257	-1.105597	-0.947727
H95	H	-0.565549	-1.006250	-0.965653
H96	H	-0.560607	-1.463797	-0.936700
C97	C	-0.759586	-0.924554	-0.618053
C98	C	-0.825955	-1.010065	-0.600205
C99	C	-0.925920	-0.973687	-0.573326
H100	H	-0.786829	-0.883239	-0.673348
H101	H	-0.755133	-0.883197	-0.556614
H102	H	-0.830411	-1.051404	-0.661636
H103	H	-0.798745	-1.051388	-0.544905
H104	H	-0.921467	-0.932330	-0.511887
H105	H	-0.953154	-0.932372	-0.628625
H106	H	-0.970961	-1.031700	-0.561204
C107	C	-1.105520	-1.766488	-0.398352
C108	C	-1.023537	-1.834767	-0.423982
C109	C	-1.065022	-1.929815	-0.459643
H110	H	-1.147370	-1.754146	-0.458325
H111	H	-1.147413	-1.797001	-0.345169
H112	H	-0.981662	-1.804261	-0.477161
H113	H	-0.981680	-1.847140	-0.364025
H114	H	-1.106914	-1.960328	-0.406460
H115	H	-1.106871	-1.917462	-0.519614
H116	H	-1.009403	-1.976157	-0.477029
C117	C	-0.369196	-1.655216	-1.123616
C118	C	-0.383615	-1.640745	-1.230842
C119	C	-0.316498	-1.707802	-1.285762
H120	H	-0.384503	-1.725856	-1.105907
H121	H	-0.298570	-1.639865	-1.105853
H122	H	-0.454225	-1.656103	-1.248598
H123	H	-0.368301	-1.570119	-1.248582
H124	H	-0.245873	-1.692451	-1.267999
H125	H	-0.331811	-1.778437	-1.268045
H126	H	-0.326266	-1.697986	-1.358520
C127	C	-0.369171	-1.655094	-0.884497
C128	C	-0.301922	-1.595551	-0.821828
C129	C	-0.234725	-1.662513	-0.767007
H130	H	-0.328999	-1.695199	-0.932448
H131	H	-0.409384	-1.700794	-0.841850
H132	H	-0.261713	-1.549869	-0.864471
H133	H	-0.342065	-1.555448	-0.773857
H134	H	-0.274937	-1.708214	-0.724360
H135	H	-0.194560	-1.702616	-0.814967
H136	H	-0.189095	-1.622124	-0.724473
C137	C	-0.578856	-1.445776	-1.056265
C138	C	-0.646147	-1.505287	-0.993578
C139	C	-0.713373	-1.438296	-0.938711
H140	H	-0.618996	-1.405689	-1.104188
H141	H	-0.538666	-1.400060	-1.013626
H142	H	-0.686333	-1.550985	-1.036213
H143	H	-0.606036	-1.545372	-0.945635
H144	H	-0.673183	-1.392579	-0.896072
H145	H	-0.753506	-1.398212	-0.986642
H146	H	-0.759031	-1.478663	-0.896165
H147	H	-0.728311	-1.107826	-0.618079
H148	H	-0.622023	-0.930090	-0.724154
H149	H	-0.916771	-1.634131	-0.282685
