data_functionalizedCrystal
_audit_creation_method	'MofGen! by Chris Wilmer'
_symmetry_space_group_name_H-M	'P1'
_symmetry_Int_Tables_number	1
_symmetry_cell_setting	triclinic
loop_
_symmetry_equiv_pos_as_xyz
  x,y,z
_cell_length_a	16.625548
_cell_length_b	21.295417
_cell_length_c	16.625539
_cell_angle_alpha	89.966627
_cell_angle_beta	89.979432
_cell_angle_gamma	90.031575
loop_
_atom_site_label
_atom_site_type_symbol
_atom_site_fract_x
_atom_site_fract_y
_atom_site_fract_z
Zn1	Zn	1.232635	-0.250590	-0.455881
Zn2	Zn	1.732635	0.249410	0.044119
Zn3	Zn	1.232520	-0.355864	-0.321036
Zn4	Zn	1.732520	0.144136	0.178964
Zn5	Zn	1.097797	-0.250614	-0.321061
Zn6	Zn	1.597797	0.249386	0.178939
Zn7	Zn	1.097749	-0.355827	-0.455826
Zn8	Zn	1.597749	0.144173	0.044174
O9	O	1.165175	-0.303224	-0.388451
O10	O	1.665175	0.196776	0.111549
O11	O	1.345452	-0.264560	-0.438006
O12	O	1.845452	0.235440	0.061994
O13	O	1.214620	-0.341927	-0.208207
O14	O	1.714620	0.158073	0.291793
O15	O	1.115753	-0.162522	-0.338979
O16	O	1.615753	0.337478	0.161021
O17	O	1.345367	-0.341904	-0.338936
O18	O	1.845367	0.158096	0.161064
O19	O	1.214818	-0.162504	-0.438030
O20	O	1.714818	0.337496	0.061970
O21	O	1.115640	-0.264601	-0.208226
O22	O	1.615640	0.235399	0.291774
O23	O	0.984958	-0.264566	-0.338926
O24	O	1.484958	0.235434	0.161074
O25	O	1.115670	-0.341842	-0.568666
O26	O	1.615670	0.158158	-0.068666
O27	O	0.984923	-0.341866	-0.437937
O28	O	1.484923	0.158134	0.062063
O29	O	1.214771	-0.264525	-0.568706
O30	O	1.714771	0.235475	-0.068706
O31	O	1.214573	-0.443948	-0.338883
O32	O	1.714573	0.056052	0.161117
O33	O	1.115558	-0.443922	-0.437912
O34	O	1.615558	0.056078	0.062088
C35	C	0.955684	-0.303215	-0.388429
C36	C	1.455684	0.196785	0.111571
C37	C	0.866063	-0.303226	-0.388438
C38	C	1.366063	0.196774	0.111562
C39	C	0.537888	-0.303230	-0.388473
C40	C	1.037888	0.196770	0.111527
C41	C	0.629196	-0.303227	-0.388460
C42	C	1.129196	0.196773	0.111540
C43	C	0.701973	-0.303229	-0.388455
C44	C	1.201973	0.196771	0.111545
C45	C	0.793287	-0.303225	-0.388444
C46	C	1.293287	0.196775	0.111556
C47	C	1.165070	-0.466775	-0.388407
C48	C	1.665070	0.033225	0.111593
C49	C	1.165098	-0.536744	-0.388414
C50	C	1.665098	-0.036744	0.111586
C51	C	1.216701	-0.569603	-0.336903
C52	C	1.716701	-0.069603	0.163097
C53	C	1.216739	-0.635346	-0.336921
C54	C	1.716739	-0.135346	0.163079
C55	C	1.165159	-0.668226	-0.388442
C56	C	1.665159	-0.168226	0.111558
C57	C	1.113552	-0.635359	-0.439964
C58	C	1.613552	-0.135359	0.060036
C59	C	1.113522	-0.569617	-0.439950
C60	C	1.613522	-0.069617	0.060050
N61	N	1.094624	-0.771493	-0.394581
N62	N	1.594624	-0.271493	0.105419
N63	N	1.094656	-0.833944	-0.394590
N64	N	1.594656	-0.333944	0.105410
C65	C	1.165250	-0.866301	-0.388488
C66	C	1.665250	-0.366301	0.111512
N67	N	1.235813	-0.833847	-0.382362
N68	N	1.735813	-0.333847	0.117638
N69	N	1.235780	-0.771389	-0.382350
N70	N	1.735780	-0.271389	0.117650
C71	C	1.165187	-0.739511	-0.388463
C72	C	1.665187	-0.239511	0.111537
C73	C	1.216898	-0.970446	-0.336994
C74	C	1.716898	-0.470446	0.163006
C75	C	1.216937	-1.036189	-0.337017
C76	C	1.716937	-0.536189	0.162983
C77	C	1.113743	-1.036201	-0.440056
C78	C	1.613743	-0.536201	0.059944
C79	C	1.113711	-0.970459	-0.440037
C80	C	1.613711	-0.470459	0.059963
C81	C	1.165288	-0.937585	-0.388501
C82	C	1.665288	-0.437585	0.111499
C83	C	1.375484	-0.303233	-0.388474
C84	C	1.875484	0.196767	0.111526
C85	C	1.465105	-0.303237	-0.388484
C86	C	1.965105	0.196763	0.111516
C87	C	1.165228	-0.303177	-0.598760
C88	C	1.665228	0.196823	-0.098760
C89	C	1.165250	-0.303157	-0.688381
C90	C	1.665250	0.196843	-0.188381
C91	C	1.165303	-0.139033	-0.388514
C92	C	1.665303	0.360967	0.111486
C93	C	1.165358	-0.069065	-0.388540
C94	C	1.665358	0.430935	0.111460
C95	C	1.165287	-0.303086	-1.016557
C96	C	1.665287	0.196914	-0.516557
C97	C	1.165275	-0.303108	-0.925249
C98	C	1.665275	0.196892	-0.425249
C99	C	1.165269	-0.303122	-0.852472
C100	C	1.665269	0.196878	-0.352472
C101	C	1.165256	-0.303143	-0.761158
C102	C	1.665256	0.196857	-0.261158
C103	C	1.165169	-0.303225	-0.178960
C104	C	1.665169	0.196775	0.321040
C105	C	1.165303	-0.303068	-0.089340
C106	C	1.665303	0.196932	0.410660
H107	H	1.258700	-0.542839	-0.294941
H108	H	1.758700	-0.042839	0.205059
C109	C	1.273498	-0.671501	-0.280246
C110	C	1.773498	-0.171501	0.219754
C111	C	1.330225	-0.635342	-0.223558
C112	C	1.830225	-0.135342	0.276442
C113	C	1.386981	-0.671496	-0.166881
C114	C	1.886981	-0.171496	0.333119
C115	C	1.387008	-0.743809	-0.166893
C116	C	1.887008	-0.243809	0.333107
C117	C	1.330278	-0.779972	-0.223584
C118	C	1.830278	-0.279972	0.276416
C119	C	1.273523	-0.743818	-0.280261
C120	C	1.773523	-0.243818	0.219739
H121	H	1.330207	-0.581808	-0.223547
H122	H	1.830207	-0.081808	0.276453
H123	H	1.428976	-0.644725	-0.124914
H124	H	1.928976	-0.144725	0.375086
H125	H	1.429021	-0.770572	-0.124937
H126	H	1.929021	-0.270572	0.375063
H127	H	1.330296	-0.833506	-0.223594
H128	H	1.830296	-0.333506	0.276406
H129	H	1.231528	-0.770589	-0.322227
H130	H	1.731528	-0.270589	0.177773
C131	C	1.273639	-0.934277	-0.280319
C132	C	1.773639	-0.434277	0.219681
C133	C	1.238719	-0.889145	-0.216970
C134	C	1.738719	-0.389145	0.283030
C135	C	1.295461	-0.852978	-0.160297
C136	C	1.795461	-0.352978	0.339703
C137	C	1.387124	-0.861943	-0.166973
C138	C	1.887124	-0.361943	0.333027
C139	C	1.422049	-0.907077	-0.230325
C140	C	1.922049	-0.407077	0.269675
C141	C	1.365306	-0.943244	-0.286997
C142	C	1.865306	-0.443244	0.213003
H143	H	1.170860	-0.882507	-0.212025
H144	H	1.670860	-0.382507	0.287975
H145	H	1.269607	-0.819567	-0.113400
H146	H	1.769607	-0.319567	0.386600
H147	H	1.429128	-0.835170	-0.125021
H148	H	1.929128	-0.335170	0.374979
H149	H	1.489907	-0.913715	-0.235269
H150	H	1.989907	-0.413715	0.264731
H151	H	1.391161	-0.976656	-0.333894
H152	H	1.891161	-0.476656	0.166106
H153	H	1.071750	-1.062972	-0.482010
H154	H	1.571750	-0.562972	0.017990
H155	H	1.071557	-0.662134	-0.481915
H156	H	1.571557	-0.162134	0.018085
C157	C	1.056940	-0.934310	-0.496697
C158	C	1.556940	-0.434310	0.003303
C159	C	0.965285	-0.943418	-0.490035
C160	C	1.465285	-0.443418	0.009965
C161	C	0.908513	-0.907271	-0.546702
C162	C	1.408513	-0.407271	-0.046702
C163	C	0.943396	-0.862016	-0.610030
C164	C	1.443396	-0.362016	-0.110030
C165	C	1.035055	-0.852906	-0.616694
C166	C	1.535055	-0.352906	-0.116694
C167	C	1.091827	-0.889053	-0.560028
C168	C	1.591827	-0.389053	-0.060028
H169	H	0.939459	-0.976921	-0.443154
H170	H	1.439459	-0.476921	0.056846
H171	H	0.840661	-0.914015	-0.541768
H172	H	1.340661	-0.414015	-0.041768
H173	H	0.901369	-0.835257	-0.651978
H174	H	1.401369	-0.335257	-0.151978
H175	H	1.060881	-0.819403	-0.663576
H176	H	1.560881	-0.319403	-0.163576
H177	H	1.159679	-0.882309	-0.564961
H178	H	1.659679	-0.382309	-0.064961
H179	H	1.071500	-0.542862	-0.481898
H180	H	1.571500	-0.042862	0.018102
C181	C	1.273710	-1.072338	-0.280355
C182	C	1.773710	-0.572338	0.219645
C183	C	1.330439	-1.036174	-0.223672
C184	C	1.830439	-0.536174	0.276328
C185	C	1.387214	-1.072324	-0.167011
C186	C	1.887214	-0.572324	0.332989
C187	C	1.387259	-1.144637	-0.167031
C188	C	1.887259	-0.644637	0.332969
C189	C	1.330527	-1.180804	-0.223715
C190	C	1.830527	-0.680804	0.276285
C191	C	1.273752	-1.144655	-0.280377
C192	C	1.773752	-0.644655	0.219623
H193	H	1.330408	-0.982641	-0.223655
H194	H	1.830408	-0.482641	0.276345
H195	H	1.429211	-1.045550	-0.125049
H196	H	1.929211	-0.545550	0.374951
H197	H	1.429287	-1.171396	-0.125087
H198	H	1.929287	-0.671396	0.374913
H199	H	1.330558	-1.234338	-0.223732
H200	H	1.830558	-0.734338	0.276268
H201	H	1.231755	-1.171429	-0.322339
H202	H	1.731755	-0.671429	0.177661
