data_functionalizedCrystal
_audit_creation_method	'MofGen! by Chris Wilmer'
_symmetry_space_group_name_H-M	'P1'
_symmetry_Int_Tables_number	1
_symmetry_cell_setting	triclinic
loop_
_symmetry_equiv_pos_as_xyz
  x,y,z
_cell_length_a	13.635800
_cell_length_b	15.693664
_cell_length_c	13.212938
_cell_angle_alpha	78.063774
_cell_angle_beta	73.701188
_cell_angle_gamma	53.883903
loop_
_atom_site_label
_atom_site_type_symbol
_atom_site_fract_x
_atom_site_fract_y
_atom_site_fract_z
V1	V	2.081919	-0.315036	0.143204
O2	O	2.157992	-0.323209	-0.008223
O3	O	1.976785	-0.299254	0.285239
O4	O	2.124302	-0.458652	0.140412
O5	O	2.009454	-0.162707	0.137607
V6	V	2.325592	-0.298472	0.125161
O7	O	2.208354	-0.351371	0.182782
O8	O	2.424256	-0.262137	0.085583
O9	O	2.319123	-0.314254	-0.016875
O10	O	2.308218	-0.290299	0.276588
O11	O	2.456756	-0.450801	0.130758
O12	O	2.171606	-0.154856	0.127952
V13	V	2.581919	-0.315036	0.143204
O14	O	2.657992	-0.323209	-0.008223
O15	O	2.476785	-0.299254	0.285239
O16	O	2.624302	-0.458652	0.140412
O17	O	2.509454	-0.162707	0.137607
V18	V	2.825592	-0.298472	0.125161
O19	O	2.708354	-0.351371	0.182782
O20	O	2.924256	-0.262137	0.085583
O21	O	2.819123	-0.314254	-0.016875
O22	O	2.808218	-0.290299	0.276588
O23	O	2.956756	-0.450801	0.130758
O24	O	2.671606	-0.154856	0.127952
C25	C	1.877442	-0.290767	0.319883
C26	C	1.832570	-0.278821	0.435995
C27	C	2.065614	-0.494094	0.135141
C28	C	2.140373	-0.611411	0.133798
C29	C	2.250132	-0.322737	-0.051513
C30	C	2.284626	-0.334691	-0.167624
C31	C	1.901970	-0.277972	0.495827
C32	C	1.859831	-0.266763	0.604930
C33	C	1.748287	-0.256395	0.654198
C34	C	1.678886	-0.257247	0.594358
C35	C	1.721029	-0.268464	0.485258
C36	C	2.462022	-0.841610	0.141640
C37	C	2.532269	-0.951840	0.140379
C38	C	2.351119	-0.942102	0.130008
C39	C	2.280872	-0.831873	0.131269
C40	C	2.336329	-0.781631	0.137087
C41	C	2.266077	-0.671399	0.138355
C42	C	2.084931	-0.661663	0.127976
C43	C	2.155178	-0.771893	0.126715
C44	C	2.561960	-0.119408	0.133228
C45	C	2.476823	-0.002091	0.134565
C46	C	2.218491	-0.166827	-0.414888
C47	C	2.250897	-0.178053	-0.523985
C48	C	2.381837	-0.368369	-0.494918
C49	C	2.349431	-0.357143	-0.385821
C50	C	2.267758	-0.256368	-0.345810
C51	C	2.235359	-0.245142	-0.236711
C52	C	2.366292	-0.435458	-0.207645
C53	C	2.398698	-0.446684	-0.316743
C54	C	2.377442	-0.290767	0.319883
C55	C	2.332570	-0.278821	0.435995
C56	C	2.061960	-0.119408	0.133228
C57	C	1.976823	-0.002091	0.134565
C58	C	2.565614	-0.494094	0.135141
C59	C	2.640373	-0.611411	0.133798
C60	C	2.750132	-0.322737	-0.051513
C61	C	2.784626	-0.334691	-0.167624
C62	C	1.643255	0.208624	0.147436
C63	C	1.563256	0.318853	0.148694
C64	C	1.736827	0.328602	0.138330
C65	C	1.816825	0.218372	0.137072
C66	C	1.770033	0.158386	0.141627
C67	C	1.850032	0.048154	0.140377
C68	C	2.023602	0.057904	0.130006
C69	C	1.943603	0.168134	0.131263
C70	C	2.887721	-0.335542	-0.227455
C71	C	2.920134	-0.346757	-0.336557
C72	C	2.849455	-0.357127	-0.385825
C73	C	2.746348	-0.356272	-0.325986
C74	C	2.713932	-0.345050	-0.216887
H75	H	1.992793	-0.286406	0.455728
H76	H	2.629988	-0.344367	-0.168178
H77	H	2.210773	-0.105139	-0.580225
H78	H	1.774909	0.377462	0.134599
H79	H	1.605152	0.159782	0.151153
H80	H	1.916355	-0.266068	0.653637
H81	H	2.151997	-0.084772	-0.382311
H82	H	1.713985	-0.247262	0.743034
H83	H	1.588064	-0.248804	0.634488
H84	H	2.507175	-0.800703	0.146388
H85	H	1.981687	0.216990	0.127550
H86	H	1.664505	-0.269148	0.436550
H87	H	2.945286	-0.327101	-0.187357
H88	H	2.311235	-0.630494	0.143097
H89	H	2.634615	-1.000672	0.144088
H90	H	2.305986	-0.983028	0.125264
H91	H	2.448326	-0.450415	-0.527514
H92	H	2.126839	0.016990	0.125282
H93	H	2.465194	-0.528732	-0.349335
H94	H	3.004092	-0.347452	-0.385264
H95	H	2.875863	-0.366263	-0.474661
H96	H	1.460030	0.359753	0.153416
H97	H	1.811928	-0.000685	0.144089
H98	H	2.110040	-0.812815	0.121975
H99	H	1.982576	-0.612816	0.124273
H100	H	2.168860	-0.163087	-0.204136
H101	H	2.688809	-0.364716	-0.366116
H102	H	2.406404	-0.508369	-0.151389
