data_functionalizedCrystal
_audit_creation_method	'MofGen! by Chris Wilmer'
_symmetry_space_group_name_H-M	'P1'
_symmetry_Int_Tables_number	1
_symmetry_cell_setting	triclinic
loop_
_symmetry_equiv_pos_as_xyz
  x,y,z
_cell_length_a	14.446369
_cell_length_b	14.560438
_cell_length_c	14.560438
_cell_angle_alpha	90.000844
_cell_angle_beta	60.001796
_cell_angle_gamma	59.998584
loop_
_atom_site_label
_atom_site_type_symbol
_atom_site_fract_x
_atom_site_fract_y
_atom_site_fract_z
Zr1	Zr	1.013255	-0.120577	0.884761
O2	O	1.206369	-0.267231	0.738116
O3	O	0.820137	-0.075613	0.929715
O4	O	1.013253	-0.267223	0.929715
O5	O	1.013256	0.075518	0.738116
O6	O	1.013256	-0.267224	1.080853
O7	O	1.013253	-0.075621	0.738115
O8	O	0.667806	0.075531	1.080852
O9	O	1.358705	-0.267237	0.738117
O10	O	0.899572	-0.056445	1.061681
O11	O	0.899572	0.056348	0.948889
O12	O	1.126941	-0.169247	0.948889
O13	O	1.126941	-0.056454	0.836097
Zr14	Zr	1.013263	0.120470	1.125810
Zr15	Zr	1.013259	-0.120578	1.125809
Zr16	Zr	1.013259	0.120471	0.884762
Zr17	Zr	1.256213	-0.120588	0.884763
Zr18	Zr	0.770305	0.120481	1.125808
O19	O	1.206380	0.075506	1.080857
O20	O	1.206375	-0.267233	1.080855
O21	O	1.206375	0.075509	0.738118
O22	O	0.820149	0.267123	1.272456
O23	O	0.820143	-0.075616	1.272454
O24	O	0.820143	0.267126	0.929716
O25	O	1.013262	-0.075625	1.272456
O26	O	1.013265	0.267116	1.080856
O27	O	1.013262	0.267117	0.929718
O28	O	1.013265	0.075514	1.272456
O29	O	1.358708	-0.267239	0.929718
O30	O	0.667810	0.267132	1.080853
O31	O	0.667813	0.267130	1.272454
O32	O	0.667810	0.075529	1.272453
O33	O	1.358708	-0.075636	0.738118
O34	O	1.358711	-0.075638	0.929719
O35	O	0.899576	0.169140	1.061682
O36	O	0.899576	0.056347	1.174474
O37	O	1.126945	-0.056456	1.061683
O38	O	1.126945	0.056338	0.948891
C39	C	0.709355	-0.000040	1.005283
C40	C	0.606213	-0.000035	1.005282
C41	C	1.013254	-0.000051	0.703771
C42	C	1.013252	-0.000051	0.601440
C43	C	1.013264	0.301461	1.005287
C44	C	1.013266	0.403792	1.005288
C45	C	0.459204	0.071430	0.934485
C46	C	0.566824	0.071141	0.934100
C47	C	0.655207	-0.122604	0.953387
C48	C	0.547974	-0.122233	0.952855
C49	C	0.372758	0.050015	1.128025
C50	C	0.478909	0.052516	1.127845
C51	C	1.317162	-0.000067	1.005288
C52	C	1.420304	-0.000072	1.005289
C53	C	1.013254	-0.301568	1.005284
C54	C	1.013252	-0.403899	1.005284
C55	C	1.131948	0.392989	0.946414
C56	C	1.131942	0.489144	0.946408
C57	C	0.894561	0.606902	1.064160
C58	C	0.894568	0.510748	1.064158
C59	C	0.894570	0.058827	0.612238
C60	C	0.894576	0.058828	0.516083
C61	C	1.131957	-0.058936	0.398336
C62	C	1.131949	-0.058929	0.494490
C63	C	1.013264	-0.000056	1.306800
C64	C	1.013266	-0.000057	1.409131
C65	C	0.709361	-0.000042	1.306797
C66	C	0.606220	-0.000038	1.409128
C67	C	0.709361	0.301475	1.005285
C68	C	0.606220	0.403811	1.005284
C69	C	0.709366	0.301472	1.306799
C70	C	0.606227	0.403808	1.409130
C71	C	1.317152	-0.301580	0.703772
C72	C	1.420290	-0.403915	0.601442
C73	C	1.317157	-0.000065	0.703774
C74	C	1.420297	-0.000069	0.601444
C75	C	1.317157	-0.301582	1.005287
C76	C	1.420297	-0.403918	1.005287
C77	C	0.557760	-0.058910	1.398329
C78	C	0.460857	-0.058910	1.494483
C79	C	0.460878	0.058842	1.612232
C80	C	0.557787	0.058835	1.516079
C81	C	0.557765	0.510764	1.064160
C82	C	0.460863	0.606916	1.064147
C83	C	0.460876	0.489146	0.946381
C84	C	0.557783	0.392997	0.946388
C85	C	0.557770	0.393011	1.516081
C86	C	0.460869	0.489169	1.612228
C87	C	0.460887	0.606918	1.494458
C88	C	0.557793	0.510761	1.398314
H89	H	0.530116	0.161396	0.968910
H90	H	1.228585	0.480338	0.898465
H91	H	0.597204	0.519576	1.112113
H92	H	0.797921	0.693995	1.112092
H93	H	0.421416	0.694000	1.112088
Cl94	Cl	0.745368	0.132854	0.529664
Cl95	Cl	0.399973	0.475563	0.872348
H96	H	0.797919	0.106782	0.699318
H97	H	0.797917	0.519553	1.112100
H98	H	0.597204	-0.106860	1.311248
H99	H	1.228601	-0.106872	0.485690
H100	H	0.421407	-0.106851	1.485680
Cl101	Cl	0.322010	0.211137	0.987962
H102	H	0.597250	0.519561	1.311223
H103	H	1.228596	-0.106874	0.311248
Cl104	Cl	0.512101	-0.019527	1.216160
Cl105	Cl	0.618718	0.132846	1.529656
H106	H	0.421420	0.480371	1.699311
H107	H	0.421430	0.106777	1.699321
H108	H	0.494964	0.036997	0.844486
Cl109	Cl	0.703935	0.017518	0.794324
Cl110	Cl	0.618711	0.258530	0.872359
H111	H	0.597205	0.305928	1.524894
H112	H	0.588670	-0.162330	0.862538
Cl113	Cl	0.399987	0.741376	1.480872
H114	H	0.526005	-0.178401	1.001095
H115	H	0.683992	-0.178182	1.002480
H116	H	0.279014	0.138881	1.171383
Cl117	Cl	0.797717	-0.184937	0.815277
H118	H	0.346784	-0.001817	1.181027
Cl119	Cl	0.417767	0.191929	1.187707
Cl120	Cl	1.281167	0.258533	0.872401
