data_functionalizedCrystal
_audit_creation_method	'MofGen! by Chris Wilmer'
_symmetry_space_group_name_H-M	'P1'
_symmetry_Int_Tables_number	1
_symmetry_cell_setting	triclinic
loop_
_symmetry_equiv_pos_as_xyz
  x,y,z
_cell_length_a	12.837943
_cell_length_b	13.262508
_cell_length_c	11.892095
_cell_angle_alpha	109.778227
_cell_angle_beta	85.689438
_cell_angle_gamma	89.431992
loop_
_atom_site_label
_atom_site_type_symbol
_atom_site_fract_x
_atom_site_fract_y
_atom_site_fract_z
O1	O	1.377347	0.272309	-0.010255
O2	O	1.877347	0.772309	0.489745
O3	O	1.075781	0.258552	-0.014492
O4	O	1.575781	0.758552	0.485508
O5	O	1.237510	0.110334	-0.060054
O6	O	1.737510	0.610334	0.439946
O7	O	1.215618	0.420527	0.035307
O8	O	1.715618	0.920527	0.535307
O9	O	1.224025	0.122671	0.131746
O10	O	1.724025	0.622671	0.631746
O11	O	1.062297	0.270889	0.177308
O12	O	1.562297	0.770889	0.677308
O13	O	1.363863	0.284646	0.181545
O14	O	1.863863	0.784646	0.681545
Zn15	Zn	1.210939	0.279726	0.209879
Zn16	Zn	1.710939	0.779726	0.709879
Zn17	Zn	1.228705	0.263471	-0.042826
Zn18	Zn	1.728705	0.763471	0.457174
O19	O	1.202134	0.432864	0.227107
O20	O	1.702134	0.932864	0.727107
C21	C	1.030499	0.260073	0.079979
C22	C	1.530499	0.760073	0.579979
C23	C	0.915663	0.246213	0.075715
C24	C	1.415663	0.746213	0.575715
C25	C	0.671808	0.412835	0.126955
C26	C	1.171808	0.912835	0.626955
C27	C	0.563908	0.399818	0.122951
C28	C	1.063908	0.899818	0.622951
C29	C	0.591962	0.207161	0.063711
C30	C	1.091962	0.707161	0.563711
C31	C	0.699861	0.220179	0.067715
C32	C	1.199861	0.720179	0.567715
C33	C	0.739780	0.323019	0.099336
C34	C	1.239780	0.823019	0.599336
C35	C	0.847682	0.336036	0.103332
C36	C	1.347682	0.836036	0.603332
C37	C	0.875733	0.143380	0.044100
C38	C	1.375733	0.643380	0.544100
C39	C	0.767834	0.130363	0.040096
C40	C	1.267834	0.630363	0.540096
C41	C	1.230780	0.076523	0.023553
C42	C	1.730780	0.576523	0.523553
C43	C	1.230806	-0.042604	-0.013078
C44	C	1.730806	0.457396	0.486922
C45	C	1.201472	-0.351515	0.301882
C46	C	1.701472	0.148485	0.801882
C47	C	1.201439	-0.239589	0.336299
C48	C	1.701439	0.260411	0.836299
C49	C	1.208781	-0.190337	0.248958
C50	C	1.708781	0.309663	0.748958
C51	C	1.216155	-0.253022	0.127194
C52	C	1.716155	0.246978	0.627194
C53	C	1.216180	-0.364959	0.092773
C54	C	1.716180	0.135041	0.592773
C55	C	1.223489	-0.203781	0.039849
C56	C	1.723489	0.296219	0.539849
C57	C	1.230863	-0.266466	-0.081915
C58	C	1.730863	0.233534	0.418085
C59	C	1.230888	-0.378391	-0.116329
C60	C	1.730888	0.121609	0.383671
C61	C	1.223546	-0.427643	-0.028988
C62	C	1.723546	0.072357	0.471012
C63	C	1.223465	-0.091845	0.074270
C64	C	1.723465	0.408155	0.574270
C65	C	1.238172	-0.105288	-0.134839
C66	C	1.738172	0.394712	0.365161
C67	C	1.238205	-0.217214	-0.169256
C68	C	1.738205	0.282786	0.330744
C69	C	1.409145	0.283124	0.087072
C70	C	1.909145	0.783124	0.587072
C71	C	1.523981	0.296984	0.091328
C72	C	2.023981	0.796984	0.591328
C73	C	1.208864	0.466674	0.143498
C74	C	1.708864	0.966674	0.643498
C75	C	1.208838	0.585800	0.180120
C76	C	1.708838	1.085800	0.680120
N77	N	1.198821	0.290819	0.382343
N78	N	1.698821	0.790819	0.882343
N79	N	1.240830	0.252370	-0.215292
N80	N	1.740830	0.752370	0.284708
C81	C	1.325149	0.175116	0.583423
C82	C	1.825149	0.675116	1.083423
C83	C	1.316687	0.182879	0.704152
C84	C	1.816687	0.682879	1.204152
C85	C	1.173430	0.314102	0.744528
C86	C	1.673430	0.814102	1.244528
C87	C	1.181892	0.306339	0.623800
C88	C	1.681892	0.806339	1.123800
C89	C	1.257756	0.236845	0.543251
C90	C	1.757756	0.736845	1.043251
C91	C	1.266222	0.229088	0.422523
C92	C	1.766222	0.729088	0.922523
C93	C	1.122961	0.360305	0.462899
C94	C	1.622961	0.860305	0.962899
C95	C	1.114498	0.368068	0.583627
C96	C	1.614498	0.868068	1.083627
H97	H	1.217451	-0.040817	0.173411
H98	H	1.717451	0.459183	0.673411
H99	H	1.327996	0.172506	0.356941
H100	H	1.827996	0.672506	0.856941
H101	H	0.735316	0.046634	0.014365
H102	H	1.235316	0.546634	0.514365
H103	H	1.208753	-0.099202	0.276988
H104	H	1.708753	0.400798	0.776988
H105	H	1.052729	0.424646	0.649222
H106	H	1.552729	0.924646	1.149222
F107	F	1.405897	0.101166	0.497701
F108	F	1.905897	0.601166	0.997701
H109	H	1.068087	0.410572	0.430180
H110	H	1.568087	0.910572	0.930180
H111	H	1.111657	0.370674	0.810123
H112	H	1.611657	0.870674	1.310123
H113	H	0.880182	0.419773	0.129081
H114	H	1.380182	0.919773	0.629081
F115	F	0.491570	0.495413	0.152350
F116	F	0.991570	0.995413	0.652350
F117	F	1.193642	-0.403939	0.394822
F118	F	1.693642	0.096061	0.894822
F119	F	0.714296	0.522283	0.160594
F120	F	1.214296	1.022283	0.660594
H121	H	1.244208	-0.268268	-0.268398
H122	H	1.744208	0.231732	0.231602
F123	F	1.223581	-0.546769	-0.065612
F124	F	1.723581	-0.046769	0.434388
H125	H	0.559434	0.123439	0.038062
H126	H	1.059434	0.623439	0.538062
F127	F	0.948084	0.047784	0.014690
F128	F	1.448084	0.547784	0.514690
H129	H	1.236883	-0.429426	-0.215477
H130	H	1.736883	0.070574	0.284523
H131	H	1.195446	-0.188559	0.435439
H132	H	1.695446	0.311441	0.935439
H133	H	1.244143	-0.065188	-0.205960
H134	H	1.744143	0.434812	0.294040
H135	H	1.371564	0.132611	0.736854
H136	H	1.871564	0.632611	1.236854
