data_functionalizedCrystal
_audit_creation_method	'MofGen! by Chris Wilmer'
_symmetry_space_group_name_H-M	'P1'
_symmetry_Int_Tables_number	1
_symmetry_cell_setting	triclinic
loop_
_symmetry_equiv_pos_as_xyz
  x,y,z
_cell_length_a	16.625547
_cell_length_b	16.625546
_cell_length_c	12.827885
_cell_angle_alpha	89.964876
_cell_angle_beta	89.974319
_cell_angle_gamma	90.022405
loop_
_atom_site_label
_atom_site_type_symbol
_atom_site_fract_x
_atom_site_fract_y
_atom_site_fract_z
Zn1	Zn	1.232687	-0.320964	-0.590983
Zn2	Zn	1.732687	0.179036	-0.090983
Zn3	Zn	1.232589	-0.455818	-0.416227
Zn4	Zn	1.732589	0.044182	0.083773
Zn5	Zn	1.097847	-0.321003	-0.416238
Zn6	Zn	1.597847	0.178997	0.083762
Zn7	Zn	1.097820	-0.455758	-0.590908
Zn8	Zn	1.597820	0.044242	-0.090908
O9	O	1.165236	-0.388386	-0.503589
O10	O	1.665236	0.111614	-0.003589
O11	O	1.345507	-0.338861	-0.567828
O12	O	1.845507	0.161139	-0.067828
O13	O	1.214685	-0.437976	-0.269993
O14	O	1.714685	0.062024	0.230007
O15	O	1.115787	-0.208165	-0.439454
O16	O	1.615787	0.291835	0.060546
O17	O	1.345434	-0.437938	-0.439436
O18	O	1.845434	0.062062	0.060564
O19	O	1.214853	-0.208137	-0.567839
O20	O	1.714853	0.291863	-0.067839
O21	O	1.115691	-0.338928	-0.270000
O22	O	1.615691	0.161072	0.230000
O23	O	0.985011	-0.338870	-0.439381
O24	O	1.485011	0.161130	0.060619
O25	O	1.115740	-0.437836	-0.737154
O26	O	1.615740	0.062164	-0.237154
O27	O	0.984991	-0.437874	-0.567711
O28	O	1.484991	0.062126	-0.067711
O29	O	1.214827	-0.338803	-0.737209
O30	O	1.714827	0.161197	-0.237209
O31	O	1.214658	-0.568643	-0.439363
O32	O	1.714658	-0.068643	0.060637
O33	O	1.115644	-0.568598	-0.567701
O34	O	1.615644	-0.068598	-0.067701
C35	C	0.955745	-0.388370	-0.503540
C36	C	1.455745	0.111630	-0.003540
C37	C	0.866124	-0.388383	-0.503544
C38	C	1.366124	0.111617	-0.003544
C39	C	1.165159	-0.597877	-0.503545
C40	C	1.665159	-0.097877	-0.003545
C41	C	1.165200	-0.687498	-0.503562
C42	C	1.665200	-0.187498	-0.003562
C43	C	0.793341	-0.388384	-0.503556
C44	C	1.293341	0.111616	-0.003556
C45	C	0.702033	-0.388389	-0.503583
C46	C	1.202033	0.111611	-0.003583
C47	C	0.629256	-0.388396	-0.503609
C48	C	1.129256	0.111604	-0.003609
C49	C	0.537942	-0.388402	-0.503634
C50	C	1.037942	0.111598	-0.003634
C51	C	1.165341	-1.015673	-0.503671
C52	C	1.665341	-0.515673	-0.003671
C53	C	1.165299	-0.924365	-0.503643
C54	C	1.665299	-0.424365	-0.003643
C55	C	1.165270	-0.851588	-0.503616
C56	C	1.665270	-0.351588	-0.003616
C57	C	1.165230	-0.760274	-0.503589
C58	C	1.665230	-0.260274	-0.003589
C59	C	1.375545	-0.388402	-0.503639
C60	C	1.875545	0.111598	-0.003639
C61	C	1.465166	-0.388409	-0.503661
C62	C	1.965166	0.111591	-0.003661
C63	C	1.165291	-0.388308	-0.776160
C64	C	1.665291	0.111692	-0.276160
C65	C	1.165315	-0.388275	-0.892313
C66	C	1.665315	0.111725	-0.392313
C67	C	1.165334	-0.178077	-0.503656
C68	C	1.665334	0.321923	-0.003656
C69	C	1.165376	-0.088456	-0.503684
C70	C	1.665376	0.411544	-0.003684
C71	C	1.116345	-0.339254	-0.944101
C72	C	1.616345	0.160746	-0.444101
C73	C	1.116369	-0.339218	-1.064152
C74	C	1.616369	0.160782	-0.564152
C75	C	1.165227	-0.388405	-0.232079
C76	C	1.665227	0.111595	0.267921
C77	C	1.165359	-0.388211	-0.115927
C78	C	1.665359	0.111789	0.384073
H79	H	1.074400	-0.297314	-0.899563
H80	H	1.574400	0.202686	-0.399563
H81	H	1.074447	-0.297246	-1.108689
H82	H	1.574447	0.202754	-0.608689
H83	H	1.207289	-0.430179	-1.071396
H84	H	1.707289	0.069821	-0.571396
H85	H	1.207256	-0.430219	-0.936851
H86	H	1.707256	0.069781	-0.436851
