data_functionalizedCrystal
_audit_creation_method	'MofGen! by Chris Wilmer'
_symmetry_space_group_name_H-M	'P1'
_symmetry_Int_Tables_number	1
_symmetry_cell_setting	triclinic
loop_
_symmetry_equiv_pos_as_xyz
  x,y,z
_cell_length_a	15.944545
_cell_length_b	14.421503
_cell_length_c	15.944551
_cell_angle_alpha	90.000609
_cell_angle_beta	96.502545
_cell_angle_gamma	89.990135
loop_
_atom_site_label
_atom_site_type_symbol
_atom_site_fract_x
_atom_site_fract_y
_atom_site_fract_z
O1	O	1.114514	0.077054	-0.108301
O2	O	0.869964	0.077069	-0.121663
O3	O	0.998917	0.077053	0.007293
O4	O	0.985561	0.077070	-0.237257
O5	O	0.998933	-0.077171	0.007285
O6	O	0.869979	-0.077154	-0.121671
O7	O	1.114530	-0.077170	-0.108309
Cu8	Cu	0.992256	-0.091244	-0.114991
Cu9	Cu	0.992237	0.091143	-0.114981
O10	O	0.985576	-0.077153	-0.237265
C11	C	0.838677	-0.000041	-0.121113
C12	C	0.745431	-0.000035	-0.119453
N13	N	0.992275	-0.219525	-0.114997
C14	C	0.474798	-0.000051	-0.034559
C15	C	0.525388	-0.076091	-0.075492
C16	C	0.409787	-0.000052	-0.113532
C17	C	0.525353	0.075961	-0.075505
C18	C	0.574701	-0.000042	-0.116437
C19	C	0.459148	-0.076154	-0.154444
C20	C	0.459110	0.075967	-0.154445
C21	C	0.509667	-0.000092	-0.195436
C22	C	0.314785	-0.000058	-0.111856
C23	C	0.669700	-0.000042	-0.118119
C24	C	1.051916	-0.469162	-0.055355
C25	C	0.976016	-0.530955	-0.039039
C26	C	0.992256	-0.408687	-0.114987
C27	C	1.068138	-0.530987	-0.131253
C28	C	0.992245	-0.591408	-0.114975
C29	C	0.916318	-0.469119	-0.098634
C30	C	1.008490	-0.469146	-0.190881
C31	C	0.932536	-0.530911	-0.174598
C32	C	0.992264	-0.303426	-0.114992
C33	C	0.992229	-0.696667	-0.114971
C34	C	1.145816	-0.000058	-0.108859
C35	C	1.239062	-0.000057	-0.110519
C36	C	0.998370	-0.000059	0.038583
C37	C	0.996708	-0.000060	0.131829
N38	N	0.992225	0.219424	-0.114968
C39	C	0.986123	-0.000039	-0.268555
C40	C	0.987785	-0.000033	-0.361801
C41	C	0.912803	-0.000042	0.346684
C42	C	0.951774	-0.076086	0.407698
C43	C	0.993701	-0.000052	0.302555
C44	C	0.951777	0.075967	0.407690
C45	C	0.990790	-0.000041	0.467468
C46	C	1.032693	-0.076159	0.362341
C47	C	1.032686	0.075961	0.362326
C48	C	1.071715	-0.000101	0.423322
C49	C	0.995375	-0.000060	0.207553
C50	C	0.989122	-0.000041	0.562469
H51	H	0.459145	-0.000130	0.033453
N52	N	1.026717	-0.433140	-0.275874
H53	H	1.035550	-0.487084	-0.314308
H54	H	1.079315	-0.393603	-0.268588
H55	H	1.132315	-0.558163	-0.145017
H56	H	0.554325	-0.140381	-0.042143
H57	H	0.430346	-0.140508	-0.187775
H58	H	0.845655	-0.000113	0.313375
N59	N	0.906471	-0.161247	0.434323
H60	H	0.846453	-0.161191	0.406159
H61	H	0.906227	-0.160882	0.497636
H62	H	1.066887	-0.140519	0.342348
N63	N	0.530190	-0.000151	-0.285594
H64	H	0.593457	0.000391	-0.286226
H65	H	0.504949	0.056728	-0.315600
H66	H	0.430157	0.140259	-0.187765
N67	N	0.831294	-0.433275	-0.080295
H68	H	0.818895	-0.456308	-0.023161
H69	H	0.786244	-0.456268	-0.125095
H70	H	1.138922	-0.000148	0.456483
H71	H	1.066866	0.140250	0.342200
N72	N	0.906432	0.161119	0.434310
H73	H	0.846416	0.161051	0.406143
H74	H	0.936438	0.218505	0.417001
H75	H	1.102315	-0.442048	-0.004898
N76	N	0.563654	0.161109	-0.031311
H77	H	0.551259	0.161033	0.029421
H78	H	0.538594	0.218498	-0.060574
H79	H	0.962274	-0.558106	0.025147
N80	N	0.865635	-0.566607	-0.241397
H81	H	0.808369	-0.543978	-0.228994
H82	H	0.866395	-0.636633	-0.241326
