data_functionalizedCrystal
_audit_creation_method	'MofGen! by Chris Wilmer'
_symmetry_space_group_name_H-M	'P1'
_symmetry_Int_Tables_number	1
_symmetry_cell_setting	triclinic
loop_
_symmetry_equiv_pos_as_xyz
  x,y,z
_cell_length_a	25.639242
_cell_length_b	25.639239
_cell_length_c	25.639233
_cell_angle_alpha	90.018747
_cell_angle_beta	89.977834
_cell_angle_gamma	89.965787
loop_
_atom_site_label
_atom_site_type_symbol
_atom_site_fract_x
_atom_site_fract_y
_atom_site_fract_z
Zn1	Zn	0.799225	0.208277	-0.295742
Zn2	Zn	1.132558	0.541610	0.037591
Zn3	Zn	1.465892	0.874943	0.370924
Zn4	Zn	0.799149	0.295696	-0.208307
Zn5	Zn	1.132482	0.629029	0.125027
Zn6	Zn	1.465815	0.962362	0.458360
Zn7	Zn	0.711801	0.208269	-0.208306
Zn8	Zn	1.045135	0.541602	0.125027
Zn9	Zn	1.378468	0.874936	0.458360
Zn10	Zn	0.711746	0.295676	-0.295696
Zn11	Zn	1.045080	0.629010	0.037637
Zn12	Zn	1.378413	0.962343	0.370970
O13	O	0.755480	0.251979	-0.252013
O14	O	1.088814	0.585313	0.081320
O15	O	1.422147	0.918646	0.414654
O16	O	0.872380	0.219884	-0.284163
O17	O	1.205713	0.553218	0.049170
O18	O	1.539047	0.886551	0.382504
O19	O	0.787553	0.284103	-0.135141
O20	O	1.120886	0.617437	0.198192
O21	O	1.454219	0.950770	0.531525
O22	O	0.723453	0.135105	-0.219924
O23	O	1.056787	0.468438	0.113409
O24	O	1.390120	0.801772	0.446743
O25	O	0.872324	0.284111	-0.219924
O26	O	1.205657	0.617444	0.113409
O27	O	1.538991	0.950777	0.446742
O28	O	0.787683	0.135111	-0.284163
O29	O	1.121016	0.468444	0.049171
O30	O	1.454350	0.801777	0.382504
O31	O	0.723379	0.219871	-0.135141
O32	O	1.056712	0.553205	0.198192
O33	O	1.390046	0.886538	0.531526
O34	O	0.638629	0.219853	-0.219880
O35	O	0.971962	0.553186	0.113454
O36	O	1.305296	0.886519	0.446787
O37	O	0.723360	0.284078	-0.368868
O38	O	1.056693	0.617411	-0.035534
O39	O	1.390026	0.950744	0.297799
O40	O	0.638589	0.284070	-0.284085
O41	O	0.971922	0.617403	0.049249
O42	O	1.305255	0.950737	0.382582
O43	O	0.787630	0.219866	-0.368901
O44	O	1.120963	0.553199	-0.035568
O45	O	1.454297	0.886532	0.297765
O46	O	0.787499	0.368858	-0.219880
O47	O	1.120833	0.702192	0.113453
O48	O	1.454166	1.035525	0.446787
O49	O	0.723286	0.368844	-0.284085
O50	O	1.056619	0.702177	0.049248
O51	O	1.389952	1.035511	0.382582
C52	C	0.619638	0.251959	-0.251977
C53	C	0.952971	0.585292	0.081356
C54	C	1.286304	0.918625	0.414689
C55	C	0.561524	0.251963	-0.251975
C56	C	0.894857	0.585296	0.081359
C57	C	1.228190	0.918629	0.414692
C58	C	0.755392	0.387822	-0.251989
C59	C	1.088726	0.721155	0.081344
C60	C	1.422059	1.054489	0.414678
C61	C	0.755403	0.445936	-0.251996
C62	C	1.088736	0.779269	0.081337
C63	C	1.422069	1.112603	0.414670
C64	C	0.755497	0.251970	-0.388386
C65	C	1.088831	0.585304	-0.055053
C66	C	1.422164	0.918637	0.278281
C67	C	0.755504	0.251966	-0.446500
C68	C	1.088838	0.585300	-0.113167
C69	C	1.422171	0.918633	0.220167
C70	C	0.201149	0.285473	-0.285413
C71	C	0.534482	0.618807	0.047920
C72	C	0.867815	0.952140	0.381254
C73	C	0.146544	0.285477	-0.285421
C74	C	0.479878	0.618810	0.047912
C75	C	0.813211	0.952143	0.381246
O76	O	0.118297	0.313943	-0.313821
O77	O	0.451631	0.647276	0.019512
O78	O	0.784964	0.980610	0.352845
N79	N	0.119241	0.251994	-0.252047
N80	N	0.452575	0.585327	0.081286
N81	N	0.785908	0.918660	0.414620
C82	C	0.146545	0.218502	-0.218666
C83	C	0.479879	0.551835	0.114667
C84	C	0.813212	0.885169	0.448000
O85	O	0.118308	0.190022	-0.190280
O86	O	0.451641	0.523356	0.143053
O87	O	0.784975	0.856689	0.476387
C88	C	0.201149	0.218496	-0.218661
C89	C	0.534482	0.551830	0.114672
C90	C	0.867815	0.885163	0.448006
C91	C	0.228449	0.251985	-0.252034
C92	C	0.561782	0.585319	0.081300
C93	C	0.895116	0.918652	0.414633
C94	C	0.228449	0.318959	-0.318783
C95	C	0.561782	0.652292	0.014550
C96	C	0.895115	0.985626	0.347884
C97	C	0.283049	0.318956	-0.318774
C98	C	0.616383	0.652290	0.014559
C99	C	0.949716	0.985623	0.347893
C100	C	0.310350	0.285468	-0.285395
C101	C	0.643683	0.618801	0.047939
C102	C	0.977016	0.952135	0.381272
C103	C	0.283049	0.251983	-0.252024
C104	C	0.616383	0.585316	0.081309
C105	C	0.949716	0.918649	0.414642
C106	C	0.228452	0.185002	-0.185283
C107	C	0.561785	0.518336	0.148050
C108	C	0.895119	0.851669	0.481383
C109	C	0.283059	0.185000	-0.185281
C110	C	0.616392	0.518333	0.148052
C111	C	0.949726	0.851666	0.481385
C112	C	0.310359	0.218488	-0.218654
C113	C	0.643692	0.551822	0.114680
C114	C	0.977026	0.885155	0.448013
C115	C	0.364950	0.218492	-0.218636
C116	C	0.698284	0.551825	0.114697
C117	C	1.031617	0.885158	0.448031
N118	N	0.392253	0.251974	-0.252010
N119	N	0.725587	0.585308	0.081323
N120	N	1.058920	0.918641	0.414656
C121	C	0.364953	0.285463	-0.285389
C122	C	0.698286	0.618796	0.047944
C123	C	1.031620	0.952129	0.381277
C124	C	0.031875	0.218515	-0.218680
C125	C	0.365208	0.551849	0.114653
C126	C	0.698541	0.885182	0.447986
C127	C	-0.022728	0.218523	-0.218683
C128	C	0.310606	0.551856	0.114651
C129	C	0.643939	0.885190	0.447984
C130	C	-0.022725	0.285497	-0.285438
C131	C	0.310608	0.618830	0.047895
C132	C	0.643942	0.952164	0.381228
C133	C	0.031878	0.285492	-0.285433
C134	C	0.365212	0.618825	0.047900
C135	C	0.698545	0.952158	0.381234
C136	C	0.059178	0.251998	-0.252054
C137	C	0.392511	0.585331	0.081279
C138	C	0.725844	0.918665	0.414612
C139	C	0.479618	0.285455	-0.285368
C140	C	0.812951	0.618788	0.047966
C141	C	1.146285	0.952122	0.381299
C142	C	0.534223	0.285451	-0.285354
C143	C	0.867557	0.618784	0.047979
C144	C	1.200890	0.952117	0.381313
C145	C	0.534216	0.218475	-0.218601
C146	C	0.867549	0.551808	0.114733
C147	C	1.200883	0.885142	0.448066
C148	C	0.479615	0.218481	-0.218612
C149	C	0.812949	0.551814	0.114721
C150	C	1.146282	0.885147	0.448055
C151	C	0.452318	0.251972	-0.252000
C152	C	0.785651	0.585306	0.081334
C153	C	1.118984	0.918639	0.414667
O154	O	0.393232	0.190038	-0.190252
O155	O	0.726565	0.523372	0.143082
O156	O	1.059899	0.856705	0.476415
O157	O	0.393197	0.313933	-0.313776
O158	O	0.726530	0.647266	0.019558
O159	O	1.059864	0.980599	0.352891
C160	C	0.891853	0.252000	-0.252049
C161	C	1.225187	0.585334	0.081285
C162	C	1.558520	0.918667	0.414618
C163	C	0.949967	0.252009	-0.252064
C164	C	1.283301	0.585343	0.081269
C165	C	1.616634	0.918676	0.414603
C166	C	0.755583	0.115606	-0.252048
C167	C	1.088916	0.448940	0.081285
C168	C	1.422250	0.782273	0.414618
C169	C	0.755627	0.057492	-0.252064
C170	C	1.088960	0.390826	0.081270
C171	C	1.422293	0.724159	0.414603
C172	C	0.789004	0.806294	-0.218638
C173	C	1.122337	1.139627	0.114695
C174	C	1.455670	1.472961	0.448028
C175	C	0.789024	0.860898	-0.218645
C176	C	1.122357	1.194232	0.114688
C177	C	1.455691	1.527565	0.448021
O178	O	0.817502	0.889131	-0.190257
O179	O	1.150835	1.222464	0.143076
O180	O	1.484168	1.555797	0.476410
N181	N	0.755572	0.888218	-0.252048
N182	N	1.088906	1.221552	0.081286
N183	N	1.422239	1.554885	0.414619
C184	C	0.722102	0.860932	-0.285449
C185	C	1.055435	1.194265	0.047885
C186	C	1.388768	1.527598	0.381218
O187	O	0.693651	0.889184	-0.313861
O188	O	1.026984	1.222517	0.019472
O189	O	1.360317	1.555850	0.352806
C190	C	0.722085	0.806328	-0.285444
C191	C	1.055418	1.139662	0.047889
C192	C	1.388751	1.472995	0.381223
C193	C	0.755535	0.779011	-0.252036
C194	C	1.088868	1.112344	0.081298
C195	C	1.422201	1.445678	0.414631
C196	C	0.822452	0.778976	-0.185233
C197	C	1.155785	1.112310	0.148100
C198	C	1.489118	1.445643	0.481433
C199	C	0.822431	0.724376	-0.185226
C200	C	1.155764	1.057709	0.148108
C201	C	1.489097	1.391043	0.481441
C202	C	0.788962	0.697093	-0.218623
C203	C	1.122295	1.030426	0.114710
C204	C	1.455628	1.363760	0.448043
C205	C	0.755514	0.724410	-0.252028
C206	C	1.088847	1.057744	0.081305
C207	C	1.422180	1.391077	0.414638
C208	C	0.688617	0.779042	-0.318847
C209	C	1.021950	1.112376	0.014486
C210	C	1.355284	1.445709	0.347819
C211	C	0.688603	0.724435	-0.318840
C212	C	1.021936	1.057769	0.014493
C213	C	1.355270	1.391102	0.347827
C214	C	0.722053	0.697118	-0.285432
C215	C	1.055387	1.030451	0.047901
C216	C	1.388720	1.363785	0.381235
C217	C	0.722024	0.642527	-0.285418
C218	C	1.055357	0.975860	0.047915
C219	C	1.388690	1.309193	0.381249
N220	N	0.755475	0.615206	-0.252016
N221	N	1.088809	0.948540	0.081317
N222	N	1.422142	1.281873	0.414651
C223	C	0.788944	0.642490	-0.218618
C224	C	1.122278	0.975823	0.114715
C225	C	1.455611	1.309156	0.448048
C226	C	0.722141	0.975602	-0.285457
C227	C	1.055474	1.308936	0.047877
C228	C	1.388808	1.642269	0.381210
C229	C	0.722155	1.030204	-0.285459
C230	C	1.055489	1.363538	0.047874
C231	C	1.388822	1.696871	0.381207
C232	C	0.789078	1.030167	-0.218656
C233	C	1.122412	1.363501	0.114677
C234	C	1.455745	1.696834	0.448010
C235	C	0.789061	0.975564	-0.218652
C236	C	1.122395	1.308897	0.114682
C237	C	1.455728	1.642231	0.448015
C238	C	0.755593	0.948282	-0.252055
C239	C	1.088926	1.281615	0.081279
C240	C	1.422260	1.614949	0.414612
C241	C	0.788897	0.527824	-0.218605
C242	C	1.122231	0.861158	0.114728
C243	C	1.455564	1.194491	0.448062
C244	C	0.788872	0.473219	-0.218599
C245	C	1.122205	0.806552	0.114735
C246	C	1.455538	1.139886	0.448068
C247	C	0.721951	0.473261	-0.285403
C248	C	1.055284	0.806594	0.047930
C249	C	1.388617	1.139928	0.381263
C250	C	0.721974	0.527862	-0.285408
C251	C	1.055307	0.861195	0.047926
C252	C	1.388641	1.194528	0.381259
C253	C	0.755452	0.555142	-0.252007
C254	C	1.088785	0.888475	0.081327
C255	C	1.422118	1.221809	0.414660
O256	O	0.693562	0.614260	-0.313793
O257	O	1.026895	0.947593	0.019540
O258	O	1.360229	1.280926	0.352873
O259	O	0.817396	0.614231	-0.190216
O260	O	1.150729	0.947564	0.143117
O261	O	1.484062	1.280898	0.476451
C262	C	0.789012	0.218432	-0.806886
C263	C	1.122346	0.551765	-0.473553
C264	C	1.455679	0.885098	-0.140220
C265	C	0.789019	0.218417	-0.861491
C266	C	1.122352	0.551751	-0.528157
C267	C	1.455685	0.885084	-0.194824
O268	O	0.817466	0.189967	-0.889747
O269	O	1.150799	0.523300	-0.556414
O270	O	1.484133	0.856633	-0.223080
N271	N	0.755562	0.251844	-0.888783
N272	N	1.088895	0.585177	-0.555449
N273	N	1.422229	0.918510	-0.222116
C274	C	0.722093	0.285283	-0.861468
C275	C	1.055426	0.618616	-0.528134
C276	C	1.388760	0.951950	-0.194801
O277	O	0.693636	0.313713	-0.889695
O278	O	1.026969	0.647046	-0.556362
O279	O	1.360302	0.980380	-0.223029
C280	C	0.722084	0.285294	-0.806864
C281	C	1.055418	0.618628	-0.473531
C282	C	1.388751	0.951961	-0.140198
C283	C	0.755547	0.251870	-0.779575
C284	C	1.088880	0.585203	-0.446242
C285	C	1.422214	0.918536	-0.112908
C286	C	0.822472	0.185009	-0.779597
C287	C	1.155805	0.518343	-0.446264
C288	C	1.489138	0.851676	-0.112930
C289	C	0.822466	0.185025	-0.724997
C290	C	1.155799	0.518358	-0.391663
C291	C	1.489133	0.851691	-0.058330
C292	C	0.789000	0.218462	-0.697685
C293	C	1.122334	0.551796	-0.364352
C294	C	1.455667	0.885129	-0.031019
C295	C	0.755541	0.251885	-0.724974
C296	C	1.088874	0.585218	-0.391641
C297	C	1.422208	0.918552	-0.058308
C298	C	0.688613	0.318731	-0.779550
C299	C	1.021946	0.652064	-0.446217
C300	C	1.355280	0.985397	-0.112883
C301	C	0.688607	0.318739	-0.724943
C302	C	1.021940	0.652072	-0.391610
C303	C	1.355273	0.985406	-0.058276
C304	C	0.722069	0.285314	-0.697654
C305	C	1.055403	0.618648	-0.364320
C306	C	1.388736	0.951981	-0.030987
C307	C	0.722070	0.285338	-0.643063
C308	C	1.055403	0.618671	-0.309729
C309	C	1.388736	0.952005	0.023604
N310	N	0.755526	0.251912	-0.615771
N311	N	1.088860	0.585245	-0.282437
N312	N	1.422193	0.918578	0.050896
C313	C	0.788992	0.218474	-0.643082
C314	C	1.122325	0.551807	-0.309749
C315	C	1.455658	0.885140	0.023585
C316	C	0.722113	0.285256	-0.976138
C317	C	1.055446	0.618589	-0.642805
C318	C	1.388780	0.951923	-0.309472
C319	C	0.722124	0.285247	-1.030741
C320	C	1.055457	0.618581	-0.697407
C321	C	1.388791	0.951914	-0.364074
C322	C	0.789049	0.218381	-1.030760
C323	C	1.122383	0.551714	-0.697427
C324	C	1.455716	0.885048	-0.364093
C325	C	0.789041	0.218392	-0.976157
C326	C	1.122374	0.551726	-0.642823
C327	C	1.455707	0.885059	-0.309490
C328	C	0.755570	0.251829	-0.948846
C329	C	1.088903	0.585163	-0.615513
C330	C	1.422237	0.918496	-0.282180
C331	C	0.788977	0.218509	-0.528417
C332	C	1.122311	0.551842	-0.195083
C333	C	1.455644	0.885175	0.138250
C334	C	0.788970	0.218529	-0.473811
C335	C	1.122303	0.551862	-0.140478
C336	C	1.455636	0.885195	0.192855
C337	C	0.722043	0.285393	-0.473797
C338	C	1.055376	0.618726	-0.140463
C339	C	1.388710	0.952060	0.192870
C340	C	0.722052	0.285375	-0.528397
C341	C	1.055385	0.618709	-0.195064
C342	C	1.388719	0.952042	0.138269
C343	C	0.755521	0.251929	-0.555706
C344	C	1.088854	0.585262	-0.222373
C345	C	1.422187	0.918596	0.110961
O346	O	0.693635	0.313773	-0.614771
O347	O	1.026969	0.647106	-0.281438
O348	O	1.360302	0.980439	0.051895
O349	O	0.817439	0.190044	-0.614847
O350	O	1.150773	0.523377	-0.281514
O351	O	1.484106	0.856710	0.051819
C352	C	0.755494	0.251951	-0.116170
C353	C	1.088827	0.585284	0.217163
C354	C	1.422160	0.918617	0.550496
C355	C	0.755588	0.251807	-0.058057
C356	C	1.088921	0.585141	0.275277
C357	C	1.422254	0.918474	0.608610
H358	H	0.457399	0.312726	-0.312556
H359	H	0.790732	0.646059	0.020777
H360	H	1.124065	0.979392	0.354110
H361	H	0.816298	0.191153	-1.053007
H362	H	1.149631	0.524486	-0.719673
H363	H	1.482964	0.857819	-0.386340
C364	C	0.685249	0.322189	-0.443750
C365	C	1.018583	0.655522	-0.110416
C366	C	1.351916	0.988856	0.222917
H367	H	0.665328	0.342103	-0.467820
H368	H	0.998661	0.675436	-0.134486
H369	H	1.331994	1.008769	0.198847
H370	H	0.662479	0.302203	-0.422435
H371	H	0.995812	0.635536	-0.089102
H372	H	1.329145	0.968869	0.244231
H373	H	0.705249	0.344974	-0.422462
H374	H	1.038582	0.678307	-0.089128
H375	H	1.371916	1.011641	0.244205
H376	H	0.054099	0.191241	-0.191496
H377	H	0.387432	0.524575	0.141838
H378	H	0.720765	0.857908	0.475171
H379	H	0.305272	0.346225	-0.345950
H380	H	0.638606	0.679559	-0.012617
H381	H	0.971939	1.012892	0.320716
C382	C	0.651799	0.355494	-0.809556
C383	C	0.985132	0.688827	-0.476223
C384	C	1.318465	1.022161	-0.142890
H385	H	0.631865	0.375401	-0.785463
H386	H	0.965198	0.708734	-0.452130
H387	H	1.298531	1.042068	-0.118796
H388	H	0.671775	0.378279	-0.830863
H389	H	1.005108	0.711612	-0.497529
H390	H	1.338442	1.044945	-0.164196
H391	H	0.629033	0.335479	-0.830849
H392	H	0.962366	0.668812	-0.497516
H393	H	1.295700	1.002145	-0.164182
H394	H	0.816300	0.953325	-0.191448
H395	H	1.149633	1.286659	0.141885
H396	H	1.482966	1.619992	0.475218
H397	H	0.206233	0.157734	-0.158106
H398	H	0.539567	0.491067	0.175227
H399	H	0.872900	0.824400	0.508560
C400	C	0.198427	0.355800	-0.355503
C401	C	0.531760	0.689133	-0.022169
C402	C	0.865093	1.022467	0.311164
H403	H	0.222513	0.375741	-0.375371
H404	H	0.555847	0.709074	-0.042037
H405	H	0.889180	1.042407	0.291296
H406	H	0.177146	0.335842	-0.378326
H407	H	0.510479	0.669175	-0.044992
H408	H	0.843812	1.002508	0.288341
H409	H	0.177107	0.378558	-0.335461
H410	H	0.510441	0.711892	-0.002128
H411	H	0.843774	1.045225	0.331205
C412	C	0.564251	0.322287	-0.322068
C413	C	0.897584	0.655621	0.011266
C414	C	1.230917	0.988954	0.344599
H415	H	0.540168	0.342227	-0.341952
H416	H	0.873501	0.675560	-0.008618
H417	H	1.206835	1.008894	0.324715
H418	H	0.585529	0.345039	-0.302026
H419	H	0.918862	0.678372	0.031308
H420	H	1.252196	1.011706	0.364641
H421	H	0.585573	0.302316	-0.344884
H422	H	0.918906	0.635649	-0.011551
H423	H	1.252240	0.968983	0.321783
C424	C	0.825778	0.181759	-0.443794
C425	C	1.159111	0.515093	-0.110460
C426	C	1.492444	0.848426	0.222873
H427	H	0.820987	0.186558	-0.407362
H428	H	1.154320	0.519891	-0.074028
H429	H	1.487653	0.853225	0.259305
H430	H	0.818153	0.146627	-0.452743
H431	H	1.151487	0.479960	-0.119410
H432	H	1.484820	0.813293	0.213923
H433	H	0.860904	0.189418	-0.452753
H434	H	1.194237	0.522751	-0.119420
H435	H	1.527571	0.856084	0.213913
H436	H	0.849670	0.702137	-0.158024
H437	H	1.183003	1.035471	0.175310
H438	H	1.516337	1.368804	0.508643
C439	C	0.313085	0.148155	-0.148564
C440	C	0.646419	0.481489	0.184769
C441	C	0.979752	0.814822	0.518103
H442	H	0.289003	0.128216	-0.128690
H443	H	0.622336	0.461549	0.204643
H444	H	0.955669	0.794883	0.537977
H445	H	0.334409	0.125404	-0.168603
H446	H	0.667742	0.458737	0.164730
H447	H	1.001075	0.792070	0.498063
H448	H	0.334362	0.168120	-0.125739
H449	H	0.667696	0.501454	0.207594
H450	H	1.001029	0.834787	0.540928
H451	H	0.556454	0.191211	-0.191422
H452	H	0.889787	0.524545	0.141911
H453	H	1.223121	0.857878	0.475244
H454	H	0.054103	0.312760	-0.312609
H455	H	0.387436	0.646094	0.020725
H456	H	0.720769	0.979427	0.354058
H457	H	0.694809	0.312597	-0.550617
H458	H	1.028142	0.645931	-0.217284
H459	H	1.361475	0.979264	0.116049
H460	H	-0.044963	0.312763	-0.312619
H461	H	0.288371	0.646097	0.020714
H462	H	0.621704	0.979430	0.354047
C463	C	0.859268	0.808980	-0.148490
C464	C	1.192601	1.142313	0.184844
C465	C	1.525934	1.475646	0.518177
H466	H	0.879179	0.784883	-0.128595
H467	H	1.212513	1.118216	0.204738
H468	H	1.545846	1.451549	0.538072
H469	H	0.882046	0.830254	-0.168508
H470	H	1.215380	1.163587	0.164825
H471	H	1.548713	1.496920	0.498158
H472	H	0.839286	0.830304	-0.125685
H473	H	1.172619	1.163638	0.207648
H474	H	1.505952	1.496971	0.540982
H475	H	0.816111	0.450979	-0.191392
H476	H	1.149444	0.784312	0.141941
H477	H	1.482777	1.117646	0.475275
C478	C	-0.052752	0.181689	-0.181970
C479	C	0.280581	0.515022	0.151364
C480	C	0.613915	0.848355	0.484697
H481	H	-0.028668	0.161743	-0.162093
H482	H	0.304666	0.495077	0.171240
H483	H	0.637999	0.828410	0.504573
H484	H	-0.074077	0.201653	-0.159154
H485	H	0.259256	0.534986	0.174179
H486	H	0.592590	0.868320	0.507513
H487	H	-0.074027	0.158935	-0.202017
H488	H	0.259306	0.492268	0.131316
H489	H	0.592639	0.825601	0.464650
C490	C	0.651790	0.355521	-0.694902
C491	C	0.985123	0.688854	-0.361569
C492	C	1.318456	1.022187	-0.028235
H493	H	0.656573	0.350742	-0.658473
H494	H	0.989906	0.684075	-0.325140
H495	H	1.323239	1.017408	0.008193
H496	H	0.659413	0.390649	-0.703852
H497	H	0.992747	0.723982	-0.370519
H498	H	1.326080	1.057316	-0.037185
H499	H	0.616666	0.347854	-0.703843
H500	H	0.949999	0.681188	-0.370510
H501	H	1.283333	1.014521	-0.037177
H502	H	0.816159	0.550030	-0.191408
H503	H	1.149492	0.883363	0.141926
H504	H	1.482826	1.216696	0.475259
H505	H	0.816333	1.052391	-0.191464
H506	H	1.149666	1.385724	0.141869
H507	H	1.482999	1.719058	0.475203
H508	H	0.694857	0.312487	-0.953905
H509	H	1.028190	0.645820	-0.620572
H510	H	1.361523	0.979154	-0.287239
H511	H	0.816229	0.191272	-0.550645
H512	H	1.149562	0.524605	-0.217312
H513	H	1.482896	0.857939	0.116022
H514	H	0.457387	0.191213	-0.191436
H515	H	0.790720	0.524546	0.141897
H516	H	1.124053	0.857879	0.475230
C517	C	0.685357	1.060248	-0.322205
C518	C	1.018690	1.393581	0.011128
C519	C	1.352024	1.726914	0.344462
H520	H	0.665426	1.036174	-0.342095
H521	H	0.998759	1.369507	-0.008762
H522	H	1.332092	1.702841	0.324572
H523	H	0.662596	1.081581	-0.302186
H524	H	0.995929	1.414914	0.031147
H525	H	1.329263	1.748248	0.364480
H526	H	0.705352	1.081517	-0.345014
H527	H	1.038686	1.414850	-0.011681
H528	H	1.372019	1.748183	0.321653
C529	C	0.685317	0.945596	-0.322196
C530	C	1.018651	1.278930	0.011137
C531	C	1.351984	1.612263	0.344471
H532	H	0.665396	0.969691	-0.342084
H533	H	0.998730	1.303025	-0.008751
H534	H	1.332063	1.636358	0.324582
H535	H	0.705290	0.924267	-0.344999
H536	H	1.038624	1.257600	-0.011666
H537	H	1.371957	1.590933	0.321667
H538	H	0.662540	0.924327	-0.302166
H539	H	0.995873	1.257661	0.031167
H540	H	1.329207	1.590994	0.364501
H541	H	0.694738	0.550105	-0.312613
H542	H	1.028071	0.883438	0.020720
H543	H	1.361405	1.216771	0.354054
C544	C	0.651787	0.694426	-0.355583
C545	C	0.985121	1.027759	-0.022249
C546	C	1.318454	1.361092	0.311084
H547	H	0.656566	0.657993	-0.350799
H548	H	0.989900	0.991326	-0.017466
H549	H	1.323233	1.324659	0.315867
H550	H	0.616666	0.703413	-0.347897
H551	H	0.950000	1.036746	-0.014564
H552	H	1.283333	1.370080	0.318770
H553	H	0.659425	0.703353	-0.390722
H554	H	0.992758	1.036686	-0.057389
H555	H	1.326092	1.370019	0.275944
C556	C	0.651825	0.809080	-0.355601
C557	C	0.985158	1.142413	-0.022267
C558	C	1.318492	1.475746	0.311066
H559	H	0.631898	0.785003	-0.375492
H560	H	0.965231	1.118336	-0.042159
H561	H	1.298565	1.451670	0.291175
H562	H	0.629060	0.830413	-0.335587
H563	H	0.962393	1.163746	-0.002254
H564	H	1.295726	1.497080	0.331080
H565	H	0.671822	0.830348	-0.378409
H566	H	1.005155	1.163681	-0.045075
H567	H	1.338489	1.497015	0.288258
H568	H	0.694699	0.451039	-0.312594
H569	H	1.028032	0.784372	0.020740
H570	H	1.361366	1.117705	0.354073
H571	H	0.849714	0.157806	-0.702783
H572	H	1.183047	0.491139	-0.369449
H573	H	1.516380	0.824472	-0.036116
C574	C	0.859290	0.148228	-0.809631
C575	C	1.192623	0.481561	-0.476298
C576	C	1.525957	0.814894	-0.142965
H577	H	0.879216	0.128330	-0.785551
H578	H	1.212549	0.461663	-0.452218
H579	H	1.545882	0.794997	-0.118885
H580	H	0.839319	0.125434	-0.830933
H581	H	1.172652	0.458768	-0.497599
H582	H	1.505985	0.792101	-0.164266
H583	H	0.882063	0.168231	-0.830931
H584	H	1.215397	0.501564	-0.497598
H585	H	1.548730	0.834898	-0.164265
H586	H	0.816288	0.191174	-0.953941
H587	H	1.149621	0.524507	-0.620608
H588	H	1.482955	0.857841	-0.287275
C589	C	0.685319	0.322018	-1.060753
C590	C	1.018652	0.655352	-0.727419
C591	C	1.351986	0.988685	-0.394086
H592	H	0.665387	0.341930	-1.036662
H593	H	0.998720	0.675264	-0.703329
H594	H	1.332053	1.008597	-0.369995
H595	H	0.705301	0.344798	-1.082059
H596	H	1.038634	0.678131	-0.748725
H597	H	1.371968	1.011465	-0.415392
H598	H	0.662551	0.302006	-1.082047
H599	H	0.995885	0.635340	-0.748713
H600	H	1.329218	0.968673	-0.415380
