data_functionalizedCrystal
_audit_creation_method	'MofGen! by Chris Wilmer'
_symmetry_space_group_name_H-M	'P1'
_symmetry_Int_Tables_number	1
_symmetry_cell_setting	triclinic
loop_
_symmetry_equiv_pos_as_xyz
  x,y,z
_cell_length_a	16.120530
_cell_length_b	16.120444
_cell_length_c	12.759393
_cell_angle_alpha	87.135249
_cell_angle_beta	92.920001
_cell_angle_gamma	90.168401
loop_
_atom_site_label
_atom_site_type_symbol
_atom_site_fract_x
_atom_site_fract_y
_atom_site_fract_z
Zn1	Zn	1.254497	-0.395559	0.699373
Zn2	Zn	1.587831	-0.062226	1.032707
Zn3	Zn	1.921164	0.271108	1.366040
Zn4	Zn	1.247331	-0.534631	0.532107
Zn5	Zn	1.580664	-0.201298	0.865441
Zn6	Zn	1.913997	0.132036	1.198774
Zn7	Zn	1.115429	-0.388539	0.514379
Zn8	Zn	1.448762	-0.055206	0.847712
Zn9	Zn	1.782096	0.278128	1.181046
Zn10	Zn	1.108347	-0.527513	0.698414
Zn11	Zn	1.441681	-0.194179	1.031747
Zn12	Zn	1.775014	0.139154	1.365081
O13	O	1.181401	-0.461561	0.611068
O14	O	1.514734	-0.128227	0.944402
O15	O	1.848068	0.205106	1.277735
O16	O	1.369912	-0.419924	0.685006
O17	O	1.703246	-0.086591	1.018339
O18	O	2.036579	0.246742	1.351673
O19	O	1.229798	-0.515293	0.382735
O20	O	1.563131	-0.181959	0.716068
O21	O	1.896465	0.151374	1.049401
O22	O	1.139840	-0.273107	0.531901
O23	O	1.473173	0.060226	0.865234
O24	O	1.806506	0.393559	1.198568
O25	O	1.364647	-0.522100	0.562116
O26	O	1.697980	-0.188766	0.895450
O27	O	2.031314	0.144567	1.228783
O28	O	1.242013	-0.278265	0.667815
O29	O	1.575346	0.055068	1.001149
O30	O	1.908679	0.388402	1.334482
O31	O	1.132890	-0.407960	0.369710
O32	O	1.466224	-0.074626	0.703043
O33	O	1.799557	0.258707	1.036376
O34	O	0.998124	-0.401057	0.530971
O35	O	1.331457	-0.067724	0.864304
O36	O	1.664790	0.265609	1.197637
O37	O	1.127770	-0.509968	0.845562
O38	O	1.461103	-0.176634	1.178895
O39	O	1.794437	0.156699	1.512229
O40	O	0.992921	-0.503161	0.666181
O41	O	1.326254	-0.169827	0.999514
O42	O	1.659588	0.163506	1.332847
O43	O	1.235146	-0.413022	0.846267
O44	O	1.568479	-0.079689	1.179600
O45	O	1.901813	0.253645	1.512933
O46	O	1.222931	-0.650050	0.561186
O47	O	1.556265	-0.316717	0.894519
O48	O	1.889598	0.016617	1.227853
O49	O	1.120821	-0.644820	0.683371
O50	O	1.454154	-0.311487	1.016704
O51	O	1.787487	0.021847	1.350038
C52	C	0.965350	-0.450575	0.596548
C53	C	1.298683	-0.117242	0.929882
C54	C	1.632017	0.216091	1.263215
C55	C	0.872921	-0.445896	0.590363
C56	C	1.206255	-0.112563	0.923696
C57	C	1.539588	0.220771	1.257029
C58	C	1.170352	-0.677608	0.624123
C59	C	1.503686	-0.344274	0.957456
C60	C	1.837019	-0.010941	1.290789
C61	C	1.165702	-0.770037	0.629748
C62	C	1.499035	-0.436704	0.963081
C63	C	1.832368	-0.103371	1.296414
C64	C	0.703694	-0.437333	0.579077
C65	C	1.037027	-0.104000	0.912411
C66	C	1.370360	0.229334	1.245744
C67	C	0.659946	-0.485849	0.643140
C68	C	0.993279	-0.152516	0.976473
C69	C	1.326612	0.180817	1.309806
C70	C	0.565782	-0.481085	0.636860
C71	C	0.899115	-0.147751	0.970194
C72	C	1.232448	0.185582	1.303527
C73	C	0.797866	-0.442096	0.585355
C74	C	1.131200	-0.108763	0.918689
C75	C	1.464533	0.224570	1.252022
C76	C	1.205730	-0.983014	0.582129
C77	C	1.539063	-0.649681	0.915462
C78	C	1.872397	-0.316348	1.248795
C79	C	1.157226	-0.939263	0.640029
C80	C	1.490560	-0.605930	0.973363
C81	C	1.823893	-0.272597	1.306696
C82	C	1.161943	-0.845097	0.634307
C83	C	1.495277	-0.511764	0.967640
C84	C	1.828610	-0.178431	1.300974
C85	C	1.201014	-1.077189	0.587850
C86	C	1.534347	-0.743855	0.921183
C87	C	1.867681	-0.410522	1.254516
C88	C	1.398296	-0.472589	0.625646
C89	C	1.731629	-0.139256	0.958979
C90	C	2.064962	0.194078	1.292312
C91	C	1.490723	-0.477289	0.631858
C92	C	1.824057	-0.143956	0.965191
C93	C	2.157390	0.189378	1.298524
C94	C	1.181467	-0.461484	0.885101
C95	C	1.514801	-0.128151	1.218435
C96	C	1.848134	0.205183	1.551768
C97	C	1.181496	-0.461451	1.001878
C98	C	1.514829	-0.128118	1.335211
C99	C	1.848162	0.205215	1.668544
C100	C	1.192516	-0.244671	0.597988
C101	C	1.525849	0.088662	0.931321
C102	C	1.859182	0.421996	1.264654
C103	C	1.197252	-0.152245	0.592413
C104	C	1.530585	0.181088	0.925747
C105	C	1.863919	0.514421	1.259080
C106	C	1.181386	-0.461579	0.338101
C107	C	1.514719	-0.128246	0.671435
C108	C	1.848053	0.205087	1.004768
C109	C	1.181531	-0.461386	0.221322
C110	C	1.514864	-0.128053	0.554655
C111	C	1.848197	0.205281	0.887989
C112	C	1.237411	-0.410963	1.057108
C113	C	1.570744	-0.077630	1.390441
C114	C	1.904077	0.255703	1.723775
C115	C	1.237427	-0.410928	1.166831
C116	C	1.570760	-0.077595	1.500164
C117	C	1.904093	0.255739	1.833498
C118	C	1.125610	-0.511876	1.166084
C119	C	1.458943	-0.178543	1.499417
C120	C	1.792276	0.154791	1.832750
C121	C	1.125590	-0.511906	1.056362
C122	C	1.458924	-0.178573	1.389696
C123	C	1.792257	0.154761	1.723029
H124	H	0.693211	-0.530962	0.702702
H125	H	1.026545	-0.197629	1.036036
H126	H	1.359878	0.135704	1.369369
Br127	Br	0.648252	-0.362144	0.479810
Br128	Br	0.981585	-0.028810	0.813143
Br129	Br	1.314919	0.304523	1.146477
Br130	Br	1.280842	-0.927574	0.492348
Br131	Br	1.614175	-0.594240	0.825682
Br132	Br	1.947509	-0.260907	1.159015
H133	H	1.282930	-0.369877	1.012750
H134	H	1.616263	-0.036544	1.346083
H135	H	1.949597	0.296789	1.679416
Br136	Br	1.313320	-0.342412	1.241784
Br137	Br	1.646654	-0.009079	1.575117
Br138	Br	1.979987	0.324255	1.908450
H139	H	1.112158	-0.972528	0.693897
H140	H	1.445491	-0.639195	1.027231
H141	H	1.778825	-0.305862	1.360564
Br142	Br	1.049693	-0.580423	0.981399
Br143	Br	1.383026	-0.247089	1.314732
Br144	Br	1.716360	0.086244	1.648065
H145	H	1.080095	-0.552956	1.210459
H146	H	1.413429	-0.219623	1.543792
H147	H	1.746762	0.113710	1.877125
