data_functionalizedCrystal
_audit_creation_method	'MofGen! by Chris Wilmer'
_symmetry_space_group_name_H-M	'P1'
_symmetry_Int_Tables_number	1
_symmetry_cell_setting	triclinic
loop_
_symmetry_equiv_pos_as_xyz
  x,y,z
_cell_length_a	19.077105
_cell_length_b	17.637651
_cell_length_c	19.076919
_cell_angle_alpha	99.433464
_cell_angle_beta	89.923776
_cell_angle_gamma	98.499620
loop_
_atom_site_label
_atom_site_type_symbol
_atom_site_fract_x
_atom_site_fract_y
_atom_site_fract_z
Zn1	Zn	0.993412	-0.376382	0.369993
Zn2	Zn	1.493412	0.123618	0.869993
Zn3	Zn	0.976496	-0.501474	0.229080
Zn4	Zn	1.476496	-0.001474	0.729080
Zn5	Zn	0.882426	-0.365960	0.249736
Zn6	Zn	1.382426	0.134040	0.749736
Zn7	Zn	0.854398	-0.501005	0.341921
Zn8	Zn	1.354398	-0.001005	0.841921
O9	O	0.926683	-0.436205	0.297682
O10	O	1.426683	0.063795	0.797682
O11	O	1.088714	-0.397534	0.354404
O12	O	1.588714	0.102466	0.854404
O13	O	0.968667	-0.479332	0.134268
O14	O	1.468667	0.020668	0.634268
O15	O	0.915957	-0.258475	0.286082
O16	O	1.415957	0.241525	0.786082
O17	O	1.076286	-0.489438	0.250876
O18	O	1.576286	0.010562	0.750876
O19	O	0.997498	-0.266132	0.374434
O20	O	1.497498	0.233868	0.874434
O21	O	0.899554	-0.379771	0.149444
O22	O	1.399554	0.120229	0.649444
O23	O	0.781161	-0.379316	0.258861
O24	O	1.281161	0.120684	0.758861
O25	O	0.868189	-0.488639	0.443196
O26	O	1.368189	0.011361	0.943196
O27	O	0.760570	-0.478533	0.326588
O28	O	1.260570	0.021467	0.826588
O29	O	0.970321	-0.397079	0.463821
O30	O	1.470321	0.102921	0.963821
O31	O	0.941491	-0.610280	0.223656
O32	O	1.441491	-0.110280	0.723656
O33	O	0.851786	-0.609935	0.306559
O34	O	1.351786	-0.109935	0.806559
C35	C	0.745573	-0.427743	0.291920
C36	C	1.245573	0.072257	0.791920
C37	C	0.668089	-0.424142	0.289468
C38	C	1.168089	0.075858	0.789468
C39	C	0.620975	-0.474180	0.323494
C40	C	1.120975	0.025820	0.823494
C41	C	0.548173	-0.470786	0.321195
C42	C	1.048173	0.029214	0.821195
C43	C	0.522485	-0.417359	0.284866
C44	C	1.022485	0.082641	0.784866
C45	C	0.569605	-0.367316	0.250840
C46	C	1.069605	0.132684	0.750840
C47	C	0.642407	-0.370706	0.253143
C48	C	1.142407	0.129294	0.753143
C49	C	0.305902	-0.401669	0.274209
C50	C	0.805902	0.098331	0.774209
C51	C	0.233094	-0.398284	0.271907
C52	C	0.733094	0.101716	0.771907
C53	C	0.211666	-0.501754	0.342264
C54	C	0.711666	-0.001754	0.842264
C55	C	0.284470	-0.505142	0.344561
C56	C	0.784470	-0.005142	0.844561
C57	C	0.331584	-0.455097	0.310537
C58	C	0.831584	0.044903	0.810537
N59	N	0.448069	-0.413891	0.282514
N60	N	0.948069	0.086109	0.782514
N61	N	0.405999	-0.458562	0.312894
N62	N	0.905999	0.041438	0.812894
C63	C	0.891780	-0.638337	0.259835
C64	C	1.391780	-0.138337	0.759835
C65	C	0.876910	-0.724814	0.243670
C66	C	1.376910	-0.224814	0.743670
C67	C	1.040085	-1.028866	0.420726
C68	C	1.540085	-0.528866	0.920726
C69	C	1.026091	-1.110122	0.405523
C70	C	1.526091	-0.610122	0.905523
C71	C	0.941246	-1.102255	0.313438
C72	C	1.441246	-0.602255	0.813438
C73	C	0.955235	-1.020996	0.328631
C74	C	1.455235	-0.520996	0.828631
C75	C	1.004654	-0.984308	0.382276
C76	C	1.504654	-0.484308	0.882276
C77	C	0.919805	-0.976439	0.290181
C78	C	1.419805	-0.476439	0.790181
C79	C	0.933790	-0.895187	0.305376
C80	C	1.433790	-0.395187	0.805376
C81	C	0.983205	-0.858493	0.359020
C82	C	1.483205	-0.358493	0.859020
C83	C	1.018640	-0.903056	0.397471
C84	C	1.518640	-0.403056	0.897471
C85	C	0.870382	-1.013129	0.236540
C86	C	1.370382	-0.513129	0.736540
C87	C	0.834951	-0.968571	0.198090
C88	C	1.334951	-0.468571	0.698090
C89	C	0.848940	-0.887318	0.213281
C90	C	1.348940	-0.387318	0.713281
C91	C	0.898356	-0.850623	0.266925
C92	C	1.398356	-0.350623	0.766925
C93	C	0.813506	-0.842754	0.174830
C94	C	1.313506	-0.342754	0.674830
C95	C	0.827491	-0.761502	0.190024
C96	C	1.327491	-0.261502	0.690024
C97	C	0.912341	-0.769372	0.282119
C98	C	1.412341	-0.269372	0.782119
C99	C	1.108500	-0.444701	0.303467
C100	C	1.608500	0.055299	0.803467
C101	C	1.185980	-0.448321	0.305933
C102	C	1.685980	0.051679	0.805933
C103	C	0.918016	-0.443969	0.479510
C104	C	1.418016	0.056031	0.979510
C105	C	0.914322	-0.447278	0.556994
C106	C	1.414322	0.052722	1.056994
C107	C	0.961741	-0.233286	0.335693
C108	C	1.461741	0.266714	0.835693
C109	C	0.976681	-0.146813	0.351891
C110	C	1.476681	0.353187	0.851891
C111	C	0.935366	-0.428417	0.116574
C112	C	1.435366	0.071583	0.616574
C113	C	0.939233	-0.424896	0.039136
C114	C	1.439233	0.075104	0.539136
C115	C	0.965759	-0.401164	0.604135
C116	C	1.465759	0.098836	1.104135
C117	C	0.962281	-0.404269	0.676940
C118	C	1.462281	0.095731	1.176940
C119	C	0.907368	-0.453493	0.702601
C120	C	1.407368	0.046507	1.202601
C121	C	0.855926	-0.499608	0.655455
C122	C	1.355926	0.000392	1.155455
C123	C	0.859402	-0.496498	0.582652
C124	C	1.359402	0.003502	1.082652
C125	C	0.891267	-0.467902	0.919187
C126	C	1.391267	0.032098	1.419187
C127	C	0.887796	-0.471010	0.991995
C128	C	1.387796	0.028990	1.491995
C129	C	0.994151	-0.375669	1.013475
C130	C	1.494151	0.124331	1.513475
C131	C	0.997624	-0.372567	0.940669
C132	C	1.497624	0.127433	1.440669
C133	C	0.946180	-0.418679	0.893530
C134	C	1.446180	0.081321	1.393530
N135	N	0.903812	-0.456670	0.777019
N136	N	1.403812	0.043330	1.277019
N137	N	0.949733	-0.415498	0.819114
N138	N	1.449733	0.084502	1.319114
H139	H	0.509814	-0.511533	0.348902
H140	H	1.009814	-0.011533	0.848902
C141	C	1.099624	-0.281118	1.027393
C142	C	1.599624	0.218882	1.527393
C143	C	1.050692	-0.324979	1.065292
C144	C	1.550692	0.175021	1.565292
H145	H	1.134533	-0.249825	1.059384
H146	H	1.634533	0.250175	1.559384
H147	H	1.075749	-0.248731	1.003604
H148	H	1.575749	0.251269	1.503604
H149	H	1.121785	-0.315056	0.993495
H150	H	1.621785	0.184944	1.493495
H151	H	1.028528	-0.291041	1.099187
H152	H	1.528528	0.208959	1.599187
H153	H	1.074571	-0.357369	1.089092
H154	H	1.574571	0.142631	1.589092
C155	C	0.997430	-0.293472	0.542176
C156	C	1.497430	0.206528	1.042176
C157	C	1.026120	-0.347053	0.575931
C158	C	1.526120	0.152947	1.075931
H159	H	1.034695	-0.260067	0.524763
H160	H	1.534695	0.239933	1.024763
H161	H	0.970848	-0.263513	0.575184
H162	H	1.470848	0.236487	1.075184
H163	H	0.967298	-0.320501	0.503679
H164	H	1.467298	0.179499	1.003679
H165	H	1.056249	-0.320024	0.614432
H166	H	1.556249	0.179976	1.114432
H167	H	1.052714	-0.377014	0.542921
H168	H	1.552714	0.122986	1.042921
H169	H	0.849385	-0.505462	0.880812
H170	H	1.349385	-0.005462	1.380812
C171	C	0.255975	-0.607072	0.413880
C172	C	0.755975	-0.107072	0.913880
C173	C	0.312703	-0.563870	0.384497
C174	C	0.812703	-0.063870	0.884497
H175	H	0.273407	-0.643327	0.438536
H176	H	0.773407	-0.143327	0.938536
H177	H	0.223895	-0.634155	0.377004
H178	H	0.723895	-0.134155	0.877004
H179	H	0.232156	-0.573034	0.446037
H180	H	0.732156	-0.073034	0.946037
H181	H	0.336519	-0.597908	0.352336
H182	H	0.836519	-0.097908	0.852336
H183	H	0.344795	-0.536785	0.421378
H184	H	0.844795	-0.036785	0.921378
H185	H	0.680768	-0.329957	0.225440
H186	H	1.180768	0.170043	0.725440
C187	C	0.882136	-1.223315	0.249249
C188	C	1.382136	-0.723315	0.749249
C189	C	0.886930	-1.142588	0.254469
C190	C	1.386930	-0.642588	0.754469
H191	H	0.848608	-1.248212	0.212839
H192	H	1.348608	-0.748212	0.712839
H193	H	0.867367	-1.238139	0.293258
H194	H	1.367367	-0.738139	0.793258
H195	H	0.927184	-1.238344	0.238098
H196	H	1.427184	-0.738344	0.738098
H197	H	0.841883	-1.127559	0.265625
H198	H	1.341883	-0.627559	0.765625
H199	H	0.901696	-1.127758	0.210450
H200	H	1.401696	-0.627758	0.710450
H201	H	0.344253	-0.360924	0.246499
H202	H	0.844253	0.139076	0.746499
H203	H	1.004168	-0.366720	0.715319
H204	H	1.504168	0.133280	1.215319
C205	C	0.090553	-0.542497	0.369981
C206	C	0.590553	-0.042497	0.869981
C207	C	0.159878	-0.556754	0.379669
C208	C	0.659878	-0.056754	0.879669
H209	H	0.058583	-0.576449	0.393080
H210	H	0.558583	-0.076449	0.893080
H211	H	0.078895	-0.551250	0.320637
H212	H	0.578895	-0.051250	0.820637
H213	H	0.087164	-0.490123	0.389666
H214	H	0.587164	0.009877	0.889666
H215	H	0.163269	-0.609126	0.359979
H216	H	0.663269	-0.109126	0.859979
H217	H	0.171540	-0.548006	0.429023
H218	H	0.671540	-0.048006	0.929023
C219	C	1.029260	-0.264844	0.878746
C220	C	1.529260	0.235156	1.378746
C221	C	1.057972	-0.318423	0.912485
C222	C	1.557972	0.181577	1.412485
H223	H	1.066516	-0.231412	0.861350
H224	H	1.566516	0.268588	1.361350
H225	H	1.002661	-0.234913	0.911759
H226	H	1.502661	0.265087	1.411759
H227	H	0.999141	-0.291872	0.840239
H228	H	1.499141	0.208128	1.340239
H229	H	1.088088	-0.291394	0.950995
H230	H	1.588088	0.208606	1.450995
H231	H	1.084583	-0.348357	0.879470
H232	H	1.584583	0.151643	1.379470
H233	H	1.058888	-0.873184	0.441150
H234	H	1.558888	-0.373184	0.941150
C235	C	1.103678	-1.206211	0.401220
C236	C	1.603678	-0.706211	0.901220
C237	C	1.065043	-1.159094	0.447798
C238	C	1.565043	-0.659094	0.947798
H239	H	1.127719	-1.236444	0.427323
H240	H	1.627719	-0.736444	0.927323
H241	H	1.137270	-1.174457	0.377654
H242	H	1.637270	-0.674457	0.877654
H243	H	1.072243	-1.239696	0.367102
H244	H	1.572243	-0.739696	0.867102
H245	H	1.096478	-1.125605	0.481913
H246	H	1.596478	-0.625605	0.981913
H247	H	1.031447	-1.190852	0.471376
H248	H	1.531447	-0.690852	0.971376
C249	C	0.783005	-0.564933	0.963454
C250	C	1.283005	-0.064933	1.463454
C251	C	0.827428	-0.525117	1.020204
C252	C	1.327428	-0.025117	1.520204
H253	H	0.745738	-0.598331	0.980872
H254	H	1.245738	-0.098331	1.480872
H255	H	0.809586	-0.594899	0.930451
H256	H	1.309586	-0.094899	1.430451
H257	H	0.763556	-0.528568	0.940561
H258	H	1.263556	-0.028568	1.440561
H259	H	0.846882	-0.561482	1.043094
H260	H	1.346882	-0.061482	1.543094
H261	H	0.800844	-0.495149	1.053219
H262	H	1.300844	0.004851	1.553219
H263	H	0.212184	-0.354768	0.242329
H264	H	0.712184	0.145232	0.742329
H265	H	0.811212	-0.539684	0.676355
H266	H	1.311212	-0.039684	1.176355
C267	C	0.467521	-0.316176	0.216069
C268	C	0.967521	0.183824	0.716069
C269	C	0.541372	-0.308584	0.210909
C270	C	1.041372	0.191416	0.710909
H271	H	0.450094	-0.279919	0.191413
H272	H	0.950094	0.220081	0.691413
H273	H	0.455323	-0.306319	0.264659
H274	H	0.955323	0.193681	0.764659
H275	H	0.447064	-0.367437	0.195624
H276	H	0.947064	0.132563	0.695624
H277	H	0.561830	-0.257324	0.231359
H278	H	1.061830	0.242676	0.731359
H279	H	0.553577	-0.318436	0.162309
H280	H	1.053577	0.181564	0.662309
H281	H	0.952589	-0.739499	0.325798
H282	H	1.452589	-0.239499	0.825798
C283	C	0.753942	-0.591072	0.568725
C284	C	1.253942	-0.091072	1.068725
C285	C	0.802870	-0.547202	0.530830
C286	C	1.302870	-0.047202	1.030830
H287	H	0.719045	-0.622380	0.536730
H288	H	1.219045	-0.122380	1.036730
H289	H	0.731771	-0.557147	0.602613
H290	H	1.231771	-0.057147	1.102613
H291	H	0.777828	-0.623453	0.592522
H292	H	1.277828	-0.123453	1.092522
H293	H	0.778985	-0.514817	0.507036
H294	H	1.278985	-0.014817	1.007036
H295	H	0.825043	-0.581132	0.496929
H296	H	1.325043	-0.081132	0.996929
H297	H	0.798639	-0.725223	0.158715
H298	H	1.298639	-0.225223	0.658715
H299	H	0.641883	-0.517689	0.353075
H300	H	1.141883	-0.017689	0.853075
H301	H	0.994592	-0.792332	0.371390
H302	H	1.494592	-0.292332	0.871390
H303	H	1.080333	-0.998993	0.464405
H304	H	1.580333	-0.498993	0.964405
C305	C	0.775841	-1.089631	0.133901
C306	C	1.275841	-0.589631	0.633901
C307	C	0.780635	-1.008904	0.139120
C308	C	1.280635	-0.508904	0.639120
H309	H	0.742313	-1.114528	0.097490
H310	H	1.242313	-0.614528	0.597490
H311	H	0.761072	-1.104455	0.177910
H312	H	1.261072	-0.604455	0.677910
H313	H	0.820889	-1.104660	0.122750
H314	H	1.320889	-0.604660	0.622750
H315	H	0.735589	-0.993874	0.150276
H316	H	1.235589	-0.493874	0.650276
H317	H	0.795401	-0.994074	0.095101
H318	H	1.295401	-0.494074	0.595101
H319	H	0.858990	-1.079289	0.224176
H320	H	1.358990	-0.579289	0.724176
H321	H	0.773264	-0.872638	0.131156
H322	H	1.273264	-0.372638	0.631156
