data_functionalizedCrystal
_audit_creation_method	'MofGen! by Chris Wilmer'
_symmetry_space_group_name_H-M	'P1'
_symmetry_Int_Tables_number	1
_symmetry_cell_setting	triclinic
loop_
_symmetry_equiv_pos_as_xyz
  x,y,z
_cell_length_a	19.188925
_cell_length_b	16.956984
_cell_length_c	16.053810
_cell_angle_alpha	92.385492
_cell_angle_beta	87.439781
_cell_angle_gamma	79.597984
loop_
_atom_site_label
_atom_site_type_symbol
_atom_site_fract_x
_atom_site_fract_y
_atom_site_fract_z
O1	O	0.923797	0.096169	-0.069447
O2	O	1.257130	0.429503	0.263886
O3	O	1.590464	0.762836	0.597219
O4	O	0.719747	0.109578	-0.069445
O5	O	1.053080	0.442911	0.263888
O6	O	1.386414	0.776245	0.597221
O7	O	0.834031	-0.013248	-0.069441
O8	O	1.167364	0.320085	0.263893
O9	O	1.500697	0.653419	0.597226
O10	O	0.809513	0.218995	-0.069452
O11	O	1.142846	0.552329	0.263881
O12	O	1.476180	0.885662	0.597215
O13	O	0.827764	-0.006490	0.069418
O14	O	1.161098	0.326844	0.402751
O15	O	1.494431	0.660177	0.736085
O16	O	0.713481	0.116336	0.069413
O17	O	1.046814	0.449670	0.402747
O18	O	1.380147	0.783003	0.736080
O19	O	0.917531	0.102928	0.069411
O20	O	1.250864	0.436261	0.402744
O21	O	1.584197	0.769594	0.736078
Zn22	Zn	0.814511	0.110705	0.091459
Zn23	Zn	1.147844	0.444038	0.424792
Zn24	Zn	1.481177	0.777372	0.758126
Zn25	Zn	0.822767	0.101801	-0.091493
Zn26	Zn	1.156100	0.435134	0.241840
Zn27	Zn	1.489433	0.768467	0.575174
O28	O	0.803247	0.225754	0.069406
O29	O	1.136580	0.559087	0.402740
O30	O	1.469914	0.892420	0.736073
C31	C	0.690627	0.112524	-0.000016
C32	C	1.023960	0.445857	0.333318
C33	C	1.357293	0.779190	0.666651
C34	C	0.613193	0.111223	-0.000015
C35	C	0.946527	0.444556	0.333319
C36	C	1.279860	0.777889	0.666652
C37	C	0.047936	0.174579	-0.000020
C38	C	0.381269	0.507912	0.333314
C39	C	0.714603	0.841246	0.666647
C40	C	0.120692	0.175809	-0.000024
C41	C	0.454025	0.509142	0.333309
C42	C	0.787358	0.842475	0.666642
C43	C	0.169593	0.103738	-0.000019
C44	C	0.502926	0.437072	0.333314
C45	C	0.836260	0.770405	0.666647
C46	C	0.145735	0.030432	-0.000031
C47	C	0.479068	0.363765	0.333302
C48	C	0.812401	0.697099	0.666636
C49	C	0.072980	0.029204	-0.000035
C50	C	0.406314	0.362538	0.333298
C51	C	0.739647	0.695871	0.666632
N52	N	0.291009	0.053863	0.047252
N53	N	0.624342	0.387196	0.380585
N54	N	0.957676	0.720530	0.713918
N55	N	0.360122	0.055034	0.047257
N56	N	0.693455	0.388368	0.380590
N57	N	1.026788	0.721701	0.713924
C58	C	0.388798	0.107433	-0.000010
C59	C	0.722132	0.440766	0.333324
C60	C	1.055465	0.774100	0.666657
N61	N	0.345749	0.158629	-0.047271
N62	N	0.679082	0.491962	0.286062
N63	N	1.012416	0.825296	0.619395
N64	N	0.276630	0.157460	-0.047273
N65	N	0.609963	0.490793	0.286060
N66	N	0.943296	0.824127	0.619394
C67	C	0.248484	0.105062	-0.000016
C68	C	0.581818	0.438395	0.333318
C69	C	0.915151	0.771728	0.666651
C70	C	0.491539	0.182067	-0.000009
C71	C	0.824872	0.515401	0.333325
C72	C	1.158206	0.848734	0.666658
C73	C	0.564297	0.183294	-0.000018
C74	C	0.897630	0.516627	0.333315
C75	C	1.230964	0.849960	0.666648
C76	C	0.589338	0.037915	-0.000017
C77	C	0.922672	0.371249	0.333317
C78	C	1.256005	0.704582	0.666650
C79	C	0.516582	0.036691	-0.000015
C80	C	0.849915	0.370024	0.333318
C81	C	1.183249	0.703358	0.666651
C82	C	0.467686	0.108769	-0.000007
C83	C	0.801019	0.442103	0.333326
C84	C	1.134353	0.775436	0.666659
C85	C	0.832153	-0.039581	-0.000012
C86	C	1.165486	0.293752	0.333322
C87	C	1.498820	0.627085	0.666655
C88	C	0.835886	-0.128115	-0.000013
C89	C	1.169219	0.205218	0.333321
C90	C	1.502552	0.538552	0.666654
C91	C	0.946651	0.099982	-0.000020
C92	C	1.279984	0.433315	0.333313
C93	C	1.613318	0.766649	0.666646
C94	C	1.024084	0.101283	-0.000027
C95	C	1.357418	0.434616	0.333306
C96	C	1.690751	0.767949	0.666640
C97	C	0.773476	-0.159980	-0.000015
C98	C	1.106810	0.173353	0.333318
C99	C	1.440143	0.506686	0.666651
C100	C	0.776988	-0.243168	-0.000013
C101	C	1.110321	0.090165	0.333320
C102	C	1.443654	0.423499	0.666653
C103	C	0.842909	-0.294489	-0.000014
C104	C	1.176243	0.038845	0.333319
C105	C	1.509576	0.372178	0.666653
C106	C	0.905323	-0.262618	-0.000009
C107	C	1.238657	0.070715	0.333325
C108	C	1.571990	0.404048	0.666658
C109	C	0.901811	-0.179432	-0.000005
C110	C	1.235144	0.153901	0.333329
C111	C	1.568478	0.487235	0.666662
C112	C	0.860294	-0.544323	-0.000020
C113	C	1.193627	-0.210989	0.333314
C114	C	1.526961	0.122344	0.666647
C115	C	0.863802	-0.627514	-0.000026
C116	C	1.197135	-0.294181	0.333307
C117	C	1.530468	0.039152	0.666641
C118	C	0.735465	-0.608058	-0.000029
C119	C	1.068799	-0.274725	0.333304
C120	C	1.402132	0.058609	0.666637
C121	C	0.731959	-0.524871	-0.000030
C122	C	1.065293	-0.191538	0.333303
C123	C	1.398626	0.141795	0.666636
C124	C	0.794373	-0.493008	-0.000021
C125	C	1.127706	-0.159674	0.333313
C126	C	1.461039	0.173659	0.666646
N127	N	0.846500	-0.379520	-0.000014
N128	N	1.179833	-0.046187	0.333319
N129	N	1.513167	0.287147	0.666652
N130	N	0.790781	-0.407977	-0.000014
N131	N	1.124114	-0.074644	0.333319
N132	N	1.457448	0.258689	0.666652
C133	C	0.805125	0.252087	-0.000024
C134	C	1.138458	0.585420	0.333309
C135	C	1.471791	0.918754	0.666642
C136	C	0.801392	0.340620	-0.000029
C137	C	1.134725	0.673954	0.333304
C138	C	1.468059	1.007287	0.666638
N139	N	0.808881	0.116782	0.216319
N140	N	1.142215	0.450115	0.549652
N141	N	1.475548	0.783448	0.882986
N142	N	0.828402	0.095718	-0.216353
N143	N	1.161735	0.429051	0.116980
N144	N	1.495069	0.762384	0.450314
C145	C	0.779764	0.147968	0.739950
C146	C	1.113097	0.481301	1.073283
C147	C	1.446431	0.814634	1.406616
C148	C	0.783716	0.143732	0.652543
C149	C	1.117049	0.477065	0.985877
C150	C	1.450383	0.810399	1.319210
C151	C	0.836310	0.087250	0.608836
C152	C	1.169643	0.420583	0.942169
C153	C	1.502977	0.753916	1.275502
C154	C	0.884951	0.034994	0.652539
C155	C	1.218284	0.368327	0.985872
C156	C	1.551617	0.701661	1.319205
C157	C	0.880995	0.039226	0.739944
C158	C	1.214328	0.372560	1.073277
C159	C	1.547661	0.705893	1.406610
C160	C	0.853566	0.068758	0.347427
C161	C	1.186899	0.402092	0.680760
C162	C	1.520233	0.735425	1.014094
C163	C	0.857519	0.064532	0.260016
C164	C	1.190853	0.397865	0.593349
C165	C	1.524186	0.731198	0.926683
C166	C	0.756284	0.173269	0.260027
C167	C	1.089617	0.506602	0.593360
C168	C	1.422950	0.839936	0.926693
C169	C	0.752335	0.177500	0.347433
C170	C	1.085668	0.510833	0.680766
C171	C	1.419002	0.844166	1.014100
C172	C	0.800973	0.125241	0.391129
C173	C	1.134307	0.458575	0.724462
C174	C	1.467640	0.791908	1.057795
N175	N	0.840353	0.082921	0.519492
N176	N	1.173686	0.416254	0.852825
N177	N	1.507019	0.749587	1.186159
N178	N	0.796927	0.129567	0.480471
N179	N	1.130260	0.462901	0.813804
N180	N	1.463594	0.796234	1.147137
H181	H	0.583714	0.242982	-0.000019
H182	H	0.917047	0.576316	0.333314
H183	H	1.250381	0.909649	0.666647
H184	H	0.958998	-0.304410	-0.000004
H185	H	1.292331	0.028923	0.333330
H186	H	1.625664	0.362256	0.666663
H187	H	0.684652	-0.634011	-0.000036
H188	H	1.017985	-0.300677	0.333298
H189	H	1.351318	0.032656	0.666631
C190	C	0.700962	-0.103534	-0.000014
C191	C	1.034295	0.229799	0.333319
C192	C	1.367628	0.563132	0.666652
H193	H	0.664296	-0.134429	-0.000008
H194	H	0.997630	0.198904	0.333325
H195	H	1.330963	0.532237	0.666659
H196	H	0.699107	-0.073030	-0.048435
H197	H	1.032440	0.260303	0.284898
H198	H	1.365773	0.593636	0.618232
H199	H	0.694740	-0.068328	0.048417
H200	H	1.028073	0.265005	0.381750
H201	H	1.361406	0.598339	0.715084
C202	C	0.046739	-0.051423	-0.000041
C203	C	0.380072	0.281911	0.333292
C204	C	0.713405	0.615244	0.666625
H205	H	-0.003594	-0.041831	-0.000048
H206	H	0.329739	0.291502	0.333285
H207	H	0.663073	0.624835	0.666618
H208	H	0.061621	-0.078737	0.048379
H209	H	0.394954	0.254596	0.381713
H210	H	0.728288	0.587929	0.715046
H211	H	0.065992	-0.083437	-0.048473
H212	H	0.399325	0.249896	0.284860
H213	H	0.732658	0.583229	0.618194
H214	H	0.709509	0.223492	0.383018
H215	H	1.042842	0.556826	0.716352
H216	H	1.376176	0.890159	1.049685
C217	C	0.437753	0.261347	-0.000018
C218	C	0.771086	0.594681	0.333316
C219	C	1.104419	0.928014	0.666649
H220	H	0.462381	0.305177	-0.000029
H221	H	0.795715	0.638510	0.333304
H222	H	1.129048	0.971844	0.666638
H223	H	0.406662	0.266252	0.048403
H224	H	0.739995	0.599585	0.381736
H225	H	1.073328	0.932919	0.715069
H226	H	0.411041	0.261528	-0.048449
H227	H	0.744374	0.594861	0.284884
H228	H	1.077707	0.928195	0.618217
C229	C	0.942803	-0.027137	0.604467
C230	C	1.276137	0.306196	0.937800
C231	C	1.609470	0.639529	1.271133
H232	H	0.971200	-0.057654	0.643012
H233	H	1.304533	0.275679	0.976345
H234	H	1.637867	0.609012	1.309678
H235	H	0.971755	-0.000178	0.570384
H236	H	1.305088	0.333155	0.903717
H237	H	1.638421	0.666488	1.237050
H238	H	0.921144	-0.061923	0.570357
H239	H	1.254477	0.271410	0.903690
H240	H	1.587811	0.604744	1.237023
C241	C	0.936318	-0.683966	-0.000024
C242	C	1.269652	-0.350633	0.333309
C243	C	1.602985	-0.017300	0.666642
H244	H	0.972987	-0.653076	-0.000011
H245	H	1.306320	-0.319743	0.333322
H246	H	1.639653	0.013591	0.666656
H247	H	0.942541	-0.719173	-0.048450
H248	H	1.275875	-0.385839	0.284883
H249	H	1.609208	-0.052506	0.618216
H250	H	0.938165	-0.714470	0.048402
H251	H	1.271499	-0.381137	0.381735
H252	H	1.604832	-0.047803	0.715069
H253	H	0.900351	0.018534	0.224433
H254	H	1.233684	0.351868	0.557766
H255	H	1.567018	0.685201	0.891100
C256	C	0.721912	0.210099	0.788025
C257	C	1.055246	0.543432	1.121358
C258	C	1.388579	0.876765	1.454691
H259	H	0.726525	0.205143	0.846339
H260	H	1.059858	0.538476	1.179672
H261	H	1.393191	0.871809	1.513006
H262	H	0.676460	0.200873	0.773688
H263	H	1.009793	0.534206	1.107021
H264	H	1.343126	0.867539	1.440354
H265	H	0.727070	0.262617	0.773714
H266	H	1.060404	0.595950	1.107047
H267	H	1.393737	0.929284	1.440380
H268	H	0.629154	-0.020766	-0.000019
H269	H	0.962487	0.312568	0.333314
H270	H	1.295820	0.645901	0.666648
H271	H	0.497163	-0.022995	-0.000016
H272	H	0.830496	0.310339	0.333317
H273	H	1.163829	0.643672	0.666651
H274	H	0.726168	-0.269108	-0.000022
H275	H	1.059501	0.064225	0.333311
H276	H	1.392834	0.397558	0.666645
H277	H	0.678279	-0.483090	-0.000032
H278	H	1.011612	-0.149757	0.333301
H279	H	1.344945	0.183576	0.666634
C280	C	0.928944	-0.509279	-0.000009
C281	C	1.262277	-0.175945	0.333324
C282	C	1.595611	0.157388	0.666658
H283	H	0.917415	-0.452385	0.000005
H284	H	1.250749	-0.119052	0.333338
H285	H	1.584082	0.214281	0.666671
H286	H	0.958073	-0.529259	-0.048431
H287	H	1.291407	-0.195925	0.284903
H288	H	1.624740	0.137408	0.618236
H289	H	0.953693	-0.524560	0.048422
H290	H	1.287026	-0.191227	0.381755
H291	H	1.620360	0.142106	0.715088
H292	H	0.920600	-0.003322	0.775521
H293	H	1.253934	0.330011	1.108854
H294	H	1.587267	0.663345	1.442188
C295	C	0.907066	0.011280	0.395485
C296	C	1.240399	0.344614	0.728819
C297	C	1.573733	0.677947	1.062152
H298	H	0.897176	0.021880	0.453801
H299	H	1.230509	0.355213	0.787134
H300	H	1.563843	0.688546	1.120467
H301	H	0.953816	0.019118	0.381175
H302	H	1.287149	0.352451	0.714508
H303	H	1.620482	0.685785	1.047841
H304	H	0.903202	-0.042624	0.381140
H305	H	1.236536	0.290709	0.714474
H306	H	1.569869	0.624043	1.047807
H307	H	0.952631	-0.153489	-0.000001
H308	H	1.285965	0.179844	0.333332
H309	H	1.619298	0.513178	0.666666
H310	H	0.716684	0.215815	0.224442
H311	H	1.050017	0.549148	0.557775
H312	H	1.383351	0.882481	0.891108
H313	H	0.744111	0.186278	0.616965
H314	H	1.077444	0.519611	0.950299
H315	H	1.410777	0.852944	1.283632
C316	C	-0.005847	0.253859	-0.000025
C317	C	0.327486	0.587192	0.333309
C318	C	0.660819	0.920526	0.666642
H319	H	-0.052595	0.242633	-0.000024
H320	H	0.280739	0.575966	0.333310
H321	H	0.614072	0.909300	0.666643
H322	H	0.003122	0.281570	-0.048447
H323	H	0.336455	0.614903	0.284887
H324	H	0.669789	0.948237	0.618220
H325	H	-0.001258	0.286280	0.048405
H326	H	0.332076	0.619614	0.381739
H327	H	0.665409	0.952947	0.715072
H328	H	0.185555	-0.028248	-0.000029
H329	H	0.518888	0.305085	0.333304
H330	H	0.852221	0.638419	0.666637
C331	C	0.146936	0.256438	-0.000013
C332	C	0.480270	0.589771	0.333321
C333	C	0.813603	0.923104	0.666654
H334	H	0.107395	0.299188	-0.000004
H335	H	0.440729	0.632521	0.333329
H336	H	0.774062	0.965855	0.666662
H337	H	0.176986	0.257587	-0.048432
H338	H	0.510319	0.590920	0.284901
H339	H	0.843652	0.924254	0.618234
H340	H	0.172609	0.262285	0.048420
H341	H	0.505942	0.595619	0.381753
H342	H	0.839275	0.928952	0.715087
