data_functionalizedCrystal
_audit_creation_method	'MofGen! by Chris Wilmer'
_symmetry_space_group_name_H-M	'P1'
_symmetry_Int_Tables_number	1
_symmetry_cell_setting	triclinic
loop_
_symmetry_equiv_pos_as_xyz
  x,y,z
_cell_length_a	15.995350
_cell_length_b	17.699083
_cell_length_c	16.176319
_cell_angle_alpha	89.998504
_cell_angle_beta	89.996236
_cell_angle_gamma	83.387695
loop_
_atom_site_label
_atom_site_type_symbol
_atom_site_fract_x
_atom_site_fract_y
_atom_site_fract_z
O1	O	-1.110791	-0.097553	0.068678
O2	O	-0.777458	0.235780	0.402011
O3	O	-0.444125	0.569114	0.735345
O4	O	-0.866991	-0.109600	0.068695
O5	O	-0.533658	0.223733	0.402029
O6	O	-0.200325	0.557067	0.735362
O7	O	-0.995779	0.006601	0.068679
O8	O	-0.662446	0.339935	0.402012
O9	O	-0.329113	0.673268	0.735346
O10	O	-0.982003	-0.213754	0.068695
O11	O	-0.648670	0.119579	0.402028
O12	O	-0.315337	0.452912	0.735361
O13	O	-0.995760	0.006595	-0.068814
O14	O	-0.662426	0.339928	0.264519
O15	O	-0.329093	0.673262	0.597852
O16	O	-0.866972	-0.109606	-0.068798
O17	O	-0.533639	0.223727	0.264536
O18	O	-0.200305	0.557060	0.597869
O19	O	-1.110772	-0.097559	-0.068815
O20	O	-0.777438	0.235774	0.264518
O21	O	-0.444105	0.569107	0.597852
Cu22	Cu	-0.988870	-0.103583	-0.081361
Cu23	Cu	-0.655537	0.229750	0.251973
Cu24	Cu	-0.322203	0.563083	0.585306
Cu25	Cu	-0.988893	-0.103576	0.081241
Cu26	Cu	-0.655560	0.229757	0.414574
Cu27	Cu	-0.322226	0.563091	0.747908
O28	O	-0.981984	-0.213761	-0.068799
O29	O	-0.648651	0.119573	0.264535
O30	O	-0.315317	0.452906	0.597868
C31	C	-0.995276	0.034796	-0.000068
C32	C	-0.661943	0.368129	0.333266
C33	C	-0.328609	0.701463	0.666599
C34	C	-0.993795	0.118816	-0.000068
C35	C	-0.660462	0.452150	0.333265
C36	C	-0.327128	0.785483	0.666599
C37	C	-0.835788	-0.109105	-0.000049
C38	C	-0.502455	0.224228	0.333284
C39	C	-0.169121	0.557561	0.666618
C40	C	-0.742841	-0.107612	-0.000043
C41	C	-0.409507	0.225721	0.333291
C42	C	-0.076174	0.559055	0.666624
C43	C	-1.141975	-0.098054	-0.000069
C44	C	-0.808642	0.235279	0.333265
C45	C	-0.475309	0.568612	0.666598
C46	C	-1.234923	-0.099547	-0.000070
C47	C	-0.901589	0.233786	0.333264
C48	C	-0.568256	0.567119	0.666597
C49	C	-0.405104	-0.102250	-0.000060
C50	C	-0.071771	0.231084	0.333273
C51	C	0.261563	0.564417	0.666606
C52	C	-0.452706	-0.019493	-0.000373
C53	C	-0.119373	0.313840	0.332960
C54	C	0.213960	0.647173	0.666294
C55	C	-0.549394	-0.020987	-0.000057
C56	C	-0.216060	0.312346	0.333276
C57	C	0.117273	0.645680	0.666610
C58	C	-0.572659	-0.104910	-0.000052
C59	C	-0.239326	0.228424	0.333281
C60	C	0.094007	0.561757	0.666615
C61	C	-0.531500	-0.145724	0.078463
C62	C	-0.198167	0.187609	0.411796
C63	C	0.135167	0.520942	0.745130
C64	C	-0.434869	-0.143645	0.078523
C65	C	-0.101535	0.189688	0.411856
C66	C	0.231798	0.523021	0.745189
C67	C	-0.434504	-0.145362	-0.077833
C68	C	-0.101171	0.187971	0.255501
C69	C	0.232163	0.521304	0.588834
C70	C	-0.531449	-0.145343	-0.078865
C71	C	-0.198116	0.187990	0.254469
C72	C	0.135217	0.521324	0.587802
C73	C	-0.667354	-0.106417	-0.000045
C74	C	-0.334020	0.226916	0.333289
C75	C	-0.000687	0.560249	0.666622
C76	C	-0.310409	-0.100745	-0.000062
C77	C	0.022924	0.232589	0.333271
C78	C	0.356257	0.565922	0.666604
C79	C	-0.982487	-0.241955	-0.000050
C80	C	-0.649154	0.091378	0.333283
C81	C	-0.315821	0.424711	0.666617
C82	C	-0.983968	-0.325976	-0.000044
C83	C	-0.650635	0.007358	0.333289
C84	C	-0.317301	0.340691	0.666622
N85	N	-0.988860	-0.103588	-0.195726
N86	N	-0.655527	0.229745	0.137607
N87	N	-0.322193	0.563078	0.470941
C88	C	-1.069391	0.167312	-0.000074
C89	C	-0.736057	0.500645	0.333259
C90	C	-0.402724	0.833978	0.666592
C91	C	-1.067994	0.246257	-0.000067
C92	C	-0.734661	0.579591	0.333266
C93	C	-0.401328	0.912924	0.666600
C94	C	-0.991001	0.276706	-0.000059
C95	C	-0.657668	0.610039	0.333274
C96	C	-0.324335	0.943373	0.666608
C97	C	-0.915400	0.228205	-0.000050
C98	C	-0.582066	0.561538	0.333283
C99	C	-0.248733	0.894871	0.666617
C100	C	-0.916797	0.149261	-0.000051
C101	C	-0.583464	0.482594	0.333282
C102	C	-0.250130	0.815927	0.666615
C103	C	-0.909763	0.546577	-0.000043
C104	C	-0.576430	0.879910	0.333290
C105	C	-0.243096	1.213244	0.666624
C106	C	-0.908372	0.625527	-0.000044
C107	C	-0.575038	0.958861	0.333289
C108	C	-0.241705	1.292194	0.666623
C109	C	-1.060960	0.643574	-0.000058
C110	C	-0.727627	0.976907	0.333275
C111	C	-0.394294	1.310240	0.666608
C112	C	-1.062358	0.564630	-0.000060
C113	C	-0.729024	0.897963	0.333273
C114	C	-0.395691	1.231296	0.666607
C115	C	-0.986757	0.516135	-0.000047
C116	C	-0.653423	0.849469	0.333287
C117	C	-0.320090	1.182802	0.666620
C118	C	-0.988272	0.430533	-0.000053
C119	C	-0.654938	0.763867	0.333280
C120	C	-0.321605	1.097200	0.666614
C121	C	-0.989485	0.362306	-0.000058
C122	C	-0.656152	0.695640	0.333275
C123	C	-0.322819	1.028973	0.666608
C124	C	-1.045944	-0.052130	-0.761116
C125	C	-0.712611	0.281204	-0.427782
C126	C	-0.379277	0.614537	-0.094449
C127	C	-1.045940	-0.052135	-0.674569
C128	C	-0.712607	0.281198	-0.341235
C129	C	-0.379274	0.614532	-0.007902
C130	C	-0.988898	-0.103573	-0.631301
C131	C	-0.655564	0.229761	-0.297968
C132	C	-0.322231	0.563094	0.035365
C133	C	-0.931861	-0.155013	-0.674585
C134	C	-0.598527	0.178320	-0.341252
C135	C	-0.265194	0.511653	-0.007919
C136	C	-0.931869	-0.155011	-0.761131
C137	C	-0.598536	0.178322	-0.427798
C138	C	-0.265202	0.511655	-0.094464
C139	C	-0.931827	-0.155024	-0.325557
C140	C	-0.598493	0.178309	0.007776
C141	C	-0.265160	0.511643	0.341110
C142	C	-0.931821	-0.155021	-0.239006
C143	C	-0.598488	0.178313	0.094328
C144	C	-0.265154	0.511646	0.427661
C145	C	-1.045898	-0.052148	-0.238995
C146	C	-0.712565	0.281186	0.094339
C147	C	-0.379231	0.614519	0.427672
C148	C	-1.045906	-0.052146	-0.325540
C149	C	-0.712573	0.281188	0.007793
C150	C	-0.379240	0.614521	0.341126
C151	C	-0.988873	-0.103589	-0.368817
C152	C	-0.655539	0.229745	-0.035484
C153	C	-0.322206	0.563078	0.297850
C154	C	-0.988878	-0.103583	-0.462661
C155	C	-0.655545	0.229750	-0.129328
C156	C	-0.322212	0.563083	0.204006
C157	C	-0.988887	-0.103575	-0.537459
C158	C	-0.655554	0.229759	-0.204125
C159	C	-0.322221	0.563092	0.129208
N160	N	-0.988910	-0.103565	0.195606
N161	N	-0.655576	0.229768	0.528940
N162	N	-0.322243	0.563102	0.862273
H163	H	-0.577880	0.011096	-0.056340
H164	H	-0.244547	0.344429	0.276993
H165	H	0.088787	0.677763	0.610326
Cl166	Cl	-0.384886	-0.237448	0.084032
Cl167	Cl	-0.051552	0.095885	0.417365
Cl168	Cl	0.281781	0.429218	0.750698
Cl169	Cl	-0.553139	-0.240909	0.082997
Cl170	Cl	-0.219806	0.092425	0.416331
Cl171	Cl	0.113528	0.425758	0.749664
H172	H	-0.852711	0.253002	-0.000038
H173	H	-0.519377	0.586336	0.333295
H174	H	-0.186044	0.919669	0.666628
H175	H	-0.885418	-0.196899	-0.639352
H176	H	-0.552085	0.136435	-0.306019
H177	H	-0.218752	0.469768	0.027315
H178	H	-1.122518	0.683068	-0.000065
H179	H	-0.789185	1.016401	0.333268
H180	H	-0.455852	1.349735	0.666602
H181	H	-1.125053	0.539843	-0.000070
H182	H	-0.791720	0.873176	0.333263
H183	H	-0.458386	1.206510	0.666596
H184	H	-1.132087	0.142527	-0.000086
H185	H	-0.798754	0.475860	0.333247
H186	H	-0.465421	0.809194	0.666581
Cl187	Cl	-1.117617	0.012523	-0.379930
Cl188	Cl	-0.784283	0.345856	-0.046597
Cl189	Cl	-0.450950	0.679190	0.286736
H190	H	-1.092341	-0.010262	-0.203750
H191	H	-0.759007	0.323071	0.129584
H192	H	-0.425674	0.656405	0.462917
H193	H	-0.855239	0.109776	-0.000046
H194	H	-0.521906	0.443109	0.333287
H195	H	-0.188572	0.776442	0.666621
Cl196	Cl	-0.402878	-0.103593	-0.169716
Cl197	Cl	-0.069544	0.229741	0.163617
Cl198	Cl	0.263789	0.563074	0.496951
H199	H	-0.885368	-0.196910	-0.203779
H200	H	-0.552035	0.136423	0.129555
H201	H	-0.218702	0.469757	0.462888
Cl202	Cl	-0.811573	0.663804	-0.000032
Cl203	Cl	-0.478239	0.997137	0.333301
Cl204	Cl	-0.144906	1.330471	0.666635
Cl205	Cl	-1.117643	0.012527	-0.620160
Cl206	Cl	-0.784310	0.345860	-0.286827
Cl207	Cl	-0.450976	0.679194	0.046506
H208	H	-1.092391	-0.010240	-0.796338
H209	H	-0.759058	0.323093	-0.463005
H210	H	-0.425725	0.656426	-0.129672
Cl211	Cl	-1.163034	0.307220	-0.000078
Cl212	Cl	-0.829700	0.640553	0.333256
Cl213	Cl	-0.496367	0.973887	0.666589
Cl214	Cl	-0.814721	0.485623	-0.000024
Cl215	Cl	-0.481388	0.818956	0.333309
Cl216	Cl	-0.148054	1.152289	0.666643
Cl217	Cl	-0.860126	-0.219690	-0.379956
Cl218	Cl	-0.526793	0.113643	-0.046623
Cl219	Cl	-0.193459	0.446976	0.286710
H220	H	-0.416629	-0.113876	0.137211
H221	H	-0.083296	0.219457	0.470544
H222	H	0.250038	0.552791	0.803878
H223	H	-0.558818	-0.115548	-0.136950
H224	H	-0.225485	0.217785	0.196384
H225	H	0.107848	0.551118	0.529717
Cl226	Cl	-0.385276	-0.239565	-0.078648
Cl227	Cl	-0.051943	0.093768	0.254685
Cl228	Cl	0.281390	0.427101	0.588019
Cl229	Cl	-0.554970	-0.239834	-0.086180
Cl230	Cl	-0.221637	0.093499	0.247154
Cl231	Cl	0.111697	0.426832	0.580487
Cl232	Cl	-0.424196	0.031577	-0.087306
Cl233	Cl	-0.090863	0.364910	0.246027
Cl234	Cl	0.242470	0.698244	0.579361
Cl235	Cl	-0.422568	0.031354	0.086068
Cl236	Cl	-0.089235	0.364688	0.419401
Cl237	Cl	0.244099	0.698021	0.752734
Cl238	Cl	-0.592492	0.028671	0.087133
Cl239	Cl	-0.259158	0.362004	0.420467
Cl240	Cl	0.074175	0.695337	0.753800
Cl241	Cl	-0.860168	-0.219679	-0.815537
Cl242	Cl	-0.526835	0.113655	-0.482204
Cl243	Cl	-0.193501	0.446988	-0.148870
Cl244	Cl	-0.575405	-0.101950	0.168675
Cl245	Cl	-0.242071	0.231383	0.502009
Cl246	Cl	0.091262	0.564717	0.835342
