data_functionalizedCrystal
_audit_creation_method	'MofGen! by Chris Wilmer'
_symmetry_space_group_name_H-M	'P1'
_symmetry_Int_Tables_number	1
_symmetry_cell_setting	triclinic
loop_
_symmetry_equiv_pos_as_xyz
  x,y,z
_cell_length_a	6.817900
_cell_length_b	11.102244
_cell_length_c	10.943881
_cell_angle_alpha	91.859180
_cell_angle_beta	108.843448
_cell_angle_gamma	108.604870
loop_
_atom_site_label
_atom_site_type_symbol
_atom_site_fract_x
_atom_site_fract_y
_atom_site_fract_z
V1	V	-4.114330	-0.175802	-0.402549
O2	O	-4.073316	0.008485	-0.394890
O3	O	-4.091081	-0.348622	-0.399793
O4	O	-4.092335	-0.173082	-0.578116
O5	O	-4.072054	-0.168270	-0.215332
V6	V	-4.591277	-0.153761	-0.380157
O7	O	-4.390012	-0.224151	-0.451668
O8	O	-4.765792	-0.105413	-0.331037
O9	O	-4.391319	0.019059	-0.382913
O10	O	-4.749688	-0.338049	-0.387816
O11	O	-4.750950	-0.161293	-0.567374
O12	O	-4.390066	-0.156482	-0.204590
C13	C	-3.941347	-0.390752	-0.393441
C14	C	-4.003801	-0.532035	-0.392358
C15	C	-3.972147	-0.580280	-0.273620
C16	C	-4.030844	-0.713033	-0.272617
C17	C	-4.152842	-0.749284	-0.509100
C18	C	-4.094160	-0.616534	-0.510102
C19	C	-3.901704	-0.559352	-0.137089
C20	C	-3.960401	-0.692104	-0.136086
C21	C	-3.942944	-0.166832	-0.620909
C22	C	-4.006410	-0.165751	-0.764436
C23	C	-4.235812	-0.171736	-0.855319
C24	C	-4.123114	-0.062491	-0.921058
C25	C	-4.232133	-0.272993	-0.954424
C26	C	-3.892831	-0.056434	-0.828270
C27	C	-4.001923	-0.267031	-0.861645
C28	C	-3.889054	-0.157755	-0.927336
C29	C	-4.204396	0.061182	-0.389261
C30	C	-4.121182	0.202463	-0.390353
C31	C	-4.202798	-0.162736	-0.161790
C32	C	-4.118569	-0.163810	-0.018262
H33	H	-4.226417	-0.818098	-0.604962
H34	H	-4.000034	-0.520261	-0.089879
N35	N	-4.429012	-0.179425	-0.813081
H36	H	-4.559398	-0.181342	-0.891415
H37	H	-4.386541	-0.101874	-0.746500
N38	N	-4.128316	-0.564490	-0.638165
H39	H	-4.290368	-0.599921	-0.694055
H40	H	-4.039910	-0.591124	-0.685204
H41	H	-3.742862	-0.151803	-0.958935
N42	N	-3.933355	-0.381603	-0.826443
H43	H	-3.774994	-0.351036	-0.764332
H44	H	-3.946889	-0.433337	-0.908284
N45	N	-3.702089	0.064892	-0.755964
H46	H	-3.660170	0.063410	-0.658819
H47	H	-3.747231	0.142024	-0.778052
N48	N	-4.422979	-0.394201	-1.026940
H49	H	-4.378641	-0.471515	-1.004414
H50	H	-4.463711	-0.392828	-1.124055
H51	H	-4.174943	0.023999	-0.947592
N52	N	-4.148682	-0.744847	-0.086314
H53	H	-4.196480	-0.672690	-0.062999
H54	H	-4.098332	-0.785569	-0.006274
N55	N	-3.655530	-0.489403	-0.074653
H56	H	-3.579748	-0.553245	-0.043744
H57	H	-3.624909	-0.424624	0.002217
H58	H	-3.807979	-0.715128	-0.078456
