data_functionalizedCrystal
_audit_creation_method	'MofGen! by Chris Wilmer'
_symmetry_space_group_name_H-M	'P1'
_symmetry_Int_Tables_number	1
_symmetry_cell_setting	triclinic
loop_
_symmetry_equiv_pos_as_xyz
  x,y,z
_cell_length_a	27.440280
_cell_length_b	18.760492
_cell_length_c	27.440280
_cell_angle_alpha	60.005042
_cell_angle_beta	90.008003
_cell_angle_gamma	59.997169
loop_
_atom_site_label
_atom_site_type_symbol
_atom_site_fract_x
_atom_site_fract_y
_atom_site_fract_z
Zr1	Zr	0.469481	0.780161	-0.063911
Zr2	Zr	0.969481	1.280161	0.436089
O3	O	0.391658	0.928874	-0.141734
O4	O	0.891658	1.428874	0.358266
O5	O	0.493341	0.631449	-0.040051
O6	O	0.993341	1.131449	0.459949
O7	O	0.493336	0.780144	-0.141717
O8	O	0.993336	1.280144	0.358283
O9	O	0.391664	0.780193	0.040126
O10	O	0.891664	1.280193	0.540126
O11	O	0.573539	0.780130	-0.141707
O12	O	1.073539	1.280130	0.358293
O13	O	0.391663	0.780179	-0.040067
O14	O	0.891663	1.280179	0.459933
O15	O	0.573548	0.514142	0.040156
O16	O	1.073548	1.014142	0.540156
O17	O	0.391655	1.046181	-0.141737
O18	O	0.891655	1.546181	0.358263
O19	O	0.563368	0.692606	-0.029871
O20	O	1.063368	1.192606	0.470129
O21	O	0.503515	0.692627	0.029969
O22	O	1.003515	1.192627	0.529969
O23	O	0.503509	0.867696	-0.089730
O24	O	1.003509	1.367696	0.410270
O25	O	0.443655	0.867717	-0.029890
O26	O	0.943655	1.367717	0.470110
Zr27	Zr	0.597397	0.780161	0.064005
Zr28	Zr	1.097397	1.280161	0.564005
Zr29	Zr	0.597396	0.780139	-0.063895
Zr30	Zr	1.097396	1.280139	0.436105
Zr31	Zr	0.469483	0.780183	0.063989
Zr32	Zr	0.969483	1.280183	0.563989
Zr33	Zr	0.469477	0.967253	-0.063915
Zr34	Zr	0.969477	1.467253	0.436085
Zr35	Zr	0.597402	0.593070	0.064009
Zr36	Zr	1.097402	1.093070	0.564009
O37	O	0.573538	0.928874	0.040145
O38	O	1.073538	1.428874	0.540145
O39	O	0.573535	0.928843	-0.141711
O40	O	1.073535	1.428843	0.358289
O41	O	0.391660	0.928905	0.040122
O42	O	0.891660	1.428905	0.540122
O43	O	0.675221	0.631449	0.141828
O44	O	1.175221	1.131449	0.641828
O45	O	0.675219	0.631418	-0.040028
O46	O	1.175219	1.131418	0.459972
O47	O	0.493344	0.631480	0.141805
O48	O	0.993344	1.131480	0.641805
O49	O	0.675215	0.780130	-0.040032
O50	O	1.175215	1.280130	0.459968
O51	O	0.573543	0.780179	0.141812
O52	O	1.073543	1.280179	0.641812
O53	O	0.493340	0.780193	0.141802
O54	O	0.993340	1.280193	0.641802
O55	O	0.675216	0.780144	0.040161
O56	O	1.175216	1.280144	0.540161
O57	O	0.493329	1.046164	-0.141724
O58	O	0.993329	1.546164	0.358276
O59	O	0.573549	0.514159	0.141818
O60	O	1.073549	1.014159	0.641818
O61	O	0.675224	0.514142	0.141831
O62	O	1.175224	1.014142	0.641831
O63	O	0.675223	0.514124	0.040168
O64	O	1.175223	1.014124	0.540168
O65	O	0.391656	1.046198	-0.040074
O66	O	0.891656	1.546198	0.459926
O67	O	0.493331	1.046181	-0.040061
O68	O	0.993331	1.546181	0.459939
O69	O	0.563370	0.692627	0.089824
O70	O	1.063370	1.192627	0.589824
O71	O	0.623224	0.692606	0.029984
O72	O	1.123224	1.192606	0.529984
O73	O	0.563364	0.867696	-0.029875
O74	O	1.063364	1.367696	0.470125
O75	O	0.503511	0.867717	0.029965
O76	O	1.003511	1.367717	0.529965
C77	C	0.533445	0.546139	0.000053
C78	C	1.033445	1.046139	0.500053
C79	C	0.533447	0.466714	0.000055
C80	C	1.033447	0.966714	0.500055
C81	C	0.373438	0.780189	0.000027
C82	C	0.873438	1.280189	0.500027
C83	C	0.319135	0.780198	0.000020
C84	C	0.819135	1.280198	0.500020
C85	C	0.502189	0.130930	0.031278
C86	C	1.002189	0.630930	0.531278
C87	C	0.564677	0.130913	-0.031196
C88	C	1.064677	0.630913	0.468804
C89	C	0.564681	0.205528	-0.031193
C90	C	1.064681	0.705528	0.468807
C91	C	0.533438	0.242849	0.000046
C92	C	1.033438	0.742849	0.500046
C93	C	0.502191	0.205554	0.031281
C94	C	1.002191	0.705554	0.531281
C95	C	0.595923	0.242836	-0.062432
C96	C	1.095923	0.742836	0.437568
C97	C	0.595929	0.317457	-0.062431
C98	C	1.095929	0.817457	0.437569
C99	C	0.564689	0.354774	-0.031188
C100	C	1.064689	0.854774	0.468812
C101	C	0.533440	0.317474	0.000049
C102	C	1.033440	0.817474	0.500049
C103	C	0.502197	0.354794	0.031287
C104	C	1.002197	0.854794	0.531287
C105	C	0.470952	0.317490	0.062528
C106	C	0.970952	0.817490	0.562528
C107	C	0.470951	0.242871	0.062523
C108	C	0.970951	0.742871	0.562523
C109	C	0.564690	0.429393	-0.031184
C110	C	1.064690	0.929393	0.468816
C111	C	0.502200	0.429419	0.031290
C112	C	1.002200	0.929419	0.531290
C113	C	0.013684	0.688750	0.031309
C114	C	0.513684	1.188750	0.531309
C115	C	-0.037335	0.688744	0.031315
C116	C	0.462665	1.188744	0.531315
O117	O	-0.037149	0.611016	0.057906
O118	O	0.462851	1.111016	0.557906
N119	N	-0.094097	0.780138	0.000068
N120	N	0.405903	1.280138	0.500068
C121	C	-0.099841	0.871544	-0.031181
C122	C	0.400159	1.371544	0.468819
O123	O	-0.152807	0.949281	-0.057757
O124	O	0.347193	1.449281	0.442243
C125	C	-0.048823	0.871548	-0.031182
C126	C	0.451177	1.371548	0.468818
C127	C	0.007939	0.780148	0.000061
C128	C	0.507939	1.280148	0.500061
C129	C	0.070443	0.597357	0.062551
C130	C	0.570443	1.097357	0.562551
C131	C	0.121458	0.597363	0.062545
C132	C	0.621458	1.097363	0.562545
C133	C	0.115713	0.688762	0.031297
C134	C	0.615713	1.188762	0.531297
C135	C	0.058954	0.780154	0.000055
C136	C	0.558954	1.280154	0.500055
C137	C	-0.054568	0.962953	-0.062427
C138	C	0.445432	1.462953	0.437573
C139	C	-0.003543	0.962950	-0.062426
C140	C	0.496457	1.462950	0.437574
C141	C	0.053219	0.871549	-0.031182
C142	C	0.553219	1.371549	0.468818
C143	C	0.104224	0.871559	-0.031199
C144	C	0.604224	1.371559	0.468801
N145	N	0.160986	0.780165	0.000047
N146	N	0.660986	1.280165	0.500047
C147	C	0.166731	0.688766	0.031295
C148	C	0.666731	1.188766	0.531295
C149	C	-0.206980	0.871527	-0.031174
C150	C	0.293020	1.371527	0.468826
C151	C	-0.257997	0.871524	-0.031177
C152	C	0.242003	1.371524	0.468823
C153	C	-0.195487	0.688724	0.031320
C154	C	0.304513	1.188724	0.531320
C155	C	-0.144469	0.688728	0.031318
C156	C	0.355531	1.188728	0.531318
C157	C	-0.150217	0.780133	0.000072
C158	C	0.349783	1.280133	0.500072
C159	C	0.273864	0.688785	0.031279
C160	C	0.773864	1.188785	0.531279
C161	C	0.324880	0.688800	0.031268
C162	C	0.824880	1.188800	0.531268
C163	C	0.262366	0.871599	-0.031226
C164	C	0.762366	1.371599	0.468774
C165	C	0.211354	0.871586	-0.031217
C166	C	0.711354	1.371586	0.468783
C167	C	0.217107	0.780171	0.000040
C168	C	0.717107	1.280171	0.500040
O169	O	0.104084	0.949247	-0.057775
O170	O	0.604084	1.449247	0.442225
O171	O	0.219699	0.611042	0.057874
O172	O	0.719699	1.111042	0.557874
C173	C	0.693441	0.780134	0.000067
C174	C	1.193441	1.280134	0.500067
C175	C	0.747743	0.780125	0.000074
C176	C	1.247743	1.280125	0.500074
C177	C	0.533437	0.780134	-0.159935
C178	C	1.033437	1.280134	0.340065
C179	C	0.533436	0.780125	-0.214232
C180	C	1.033436	1.280125	0.285768
C181	C	0.533434	1.014184	0.000041
C182	C	1.033434	1.514184	0.500041
C183	C	0.533432	1.093609	0.000039
C184	C	1.033432	1.593609	0.500039
C185	C	0.502199	0.871573	-0.582212
C186	C	1.002199	1.371573	-0.082212
C187	C	0.502200	0.871579	-0.633234
C188	C	1.002200	1.371579	-0.133234
O189	O	0.475645	0.949307	-0.686196
O190	O	0.975645	1.449307	-0.186196
N191	N	0.533445	0.780185	-0.627506
N192	N	1.033445	1.280185	-0.127506
C193	C	0.564696	0.688779	-0.570750
C194	C	1.064696	1.188779	-0.070750
O195	O	0.591272	0.611042	-0.570563
O196	O	1.091272	1.111042	-0.070563
C197	C	0.564697	0.688774	-0.519729
C198	C	1.064697	1.188774	-0.019729
C199	C	0.533445	0.780175	-0.525463
C200	C	1.033445	1.280175	-0.025463
C201	C	0.470950	0.962966	-0.587943
C202	C	0.970950	1.462966	-0.087943
C203	C	0.470947	0.962960	-0.536924
C204	C	0.970947	1.462960	-0.036924
C205	C	0.502194	0.871561	-0.480174
C206	C	1.002194	1.371561	0.019826
C207	C	0.533442	0.780169	-0.474444
C208	C	1.033442	1.280169	0.025556
C209	C	0.595950	0.597370	-0.462975
C210	C	1.095950	1.097370	0.037025
C211	C	0.595949	0.597373	-0.411953
C212	C	1.095949	1.097373	0.088047
C213	C	0.564697	0.688773	-0.417686
C214	C	1.064697	1.188773	0.082314
C215	C	0.564686	0.688764	-0.366675
C216	C	1.064686	1.188764	0.133325
N217	N	0.533441	0.780158	-0.372404
N218	N	1.033441	1.280158	0.127596
C219	C	0.502195	0.871557	-0.429153
C220	C	1.002195	1.371557	0.070847
C221	C	0.564691	0.688795	-0.677900
C222	C	1.064691	1.188795	-0.177900
C223	C	0.564687	0.688799	-0.728920
C224	C	1.064687	1.188799	-0.228920
C225	C	0.502192	0.871599	-0.791401
C226	C	1.002192	1.371599	-0.291401
C227	C	0.502194	0.871594	-0.740380
C228	C	1.002194	1.371594	-0.240380
C229	C	0.533446	0.780189	-0.683629
C230	C	1.033446	1.280189	-0.183629
C231	C	0.502192	0.871537	-0.322008
C232	C	1.002192	1.371537	0.177992
C233	C	0.502190	0.871523	-0.270981
C234	C	1.002190	1.371523	0.229019
C235	C	0.564687	0.688724	-0.208505
C236	C	1.064687	1.188724	0.291495
C237	C	0.564686	0.688737	-0.259527
C238	C	1.064686	1.188737	0.240473
C239	C	0.533437	0.780152	-0.316280
C240	C	1.033437	1.280152	0.183720
O241	O	0.591230	0.611076	-0.313695
O242	O	1.091230	1.111076	0.186305
O243	O	0.475629	0.949281	-0.429330
O244	O	0.975629	1.449281	0.070670
C245	C	0.533442	0.780189	0.160029
C246	C	1.033442	1.280189	0.660029
C247	C	0.533443	0.780198	0.214326
C248	C	1.033443	1.280198	0.714326
C249	C	0.693446	0.546111	0.000073
C250	C	1.193446	1.046111	0.500073
C251	C	0.747751	0.466677	0.000082
C252	C	1.247751	0.966677	0.500082
C253	C	0.533447	0.546166	0.160035
C254	C	1.033447	1.046166	0.660035
C255	C	0.533450	0.466750	0.214334
C256	C	1.033450	0.966750	0.714334
C257	C	0.693449	0.546139	0.160055
C258	C	1.193449	1.046139	0.660055
C259	C	0.747754	0.466714	0.214361
C260	C	1.247754	0.966714	0.714361
C261	C	0.373430	1.014184	-0.159961
C262	C	0.873430	1.514184	0.340039
C263	C	0.319125	1.093609	-0.214267
C264	C	0.819125	1.593609	0.285733
C265	C	0.373433	1.014211	0.000021
C266	C	0.873433	1.514211	0.500021
C267	C	0.319128	1.093646	0.000012
C268	C	0.819128	1.593646	0.500012
C269	C	0.533431	1.014156	-0.159941
C270	C	1.033431	1.514156	0.340059
C271	C	0.533429	1.093572	-0.214240
C272	C	1.033429	1.593572	0.285760
C273	C	0.742009	0.429374	-0.031163
C274	C	1.242009	0.929374	0.468837
C275	C	0.793030	0.354747	-0.031167
C276	C	1.293030	0.854747	0.468833
C277	C	0.849791	0.317420	0.000078
C278	C	1.349791	0.817420	0.500078
C279	C	0.855532	0.354730	0.031324
C280	C	1.355532	0.854730	0.531324
C281	C	0.804512	0.429361	0.031324
C282	C	1.304512	0.929361	0.531324
C283	C	0.564695	0.429456	0.271082
C284	C	1.064695	0.929456	0.771082
C285	C	0.564696	0.354847	0.322106
C286	C	1.064696	0.854847	0.822106
C287	C	0.533454	0.317528	0.316381
C288	C	1.033454	0.817528	0.816381
C289	C	0.502205	0.354830	0.259627
C290	C	1.002205	0.854830	0.759627
C291	C	0.502202	0.429443	0.208604
C292	C	1.002202	0.929443	0.708604
C293	C	0.804505	0.429404	0.208627
C294	C	1.304505	0.929404	0.708627
C295	C	0.855536	0.354786	0.259648
C296	C	1.355536	0.854786	0.759648
C297	C	0.849815	0.317474	0.316402
C298	C	1.349815	0.817474	0.816402
C299	C	0.793058	0.354791	0.322134
C300	C	1.293058	0.854791	0.822134
C301	C	0.742028	0.429413	0.271114
C302	C	1.242028	0.929413	0.771114
C303	C	0.262374	1.130928	-0.208533
C304	C	0.762374	1.630928	0.291467
C305	C	0.211343	1.205569	-0.259554
C306	C	0.711343	1.705569	0.240446
C307	C	0.217064	1.242885	-0.316308
C308	C	0.717064	1.742885	0.183692
C309	C	0.273821	1.205563	-0.322040
C310	C	0.773821	1.705563	0.177960
C311	C	0.324851	1.130928	-0.271020
C312	C	0.824851	1.630928	0.228980
C313	C	0.324869	1.130957	0.031252
C314	C	0.824869	1.630957	0.531252
C315	C	0.273849	1.205604	0.031241
C316	C	0.773849	1.705604	0.531241
C317	C	0.217088	1.242934	-0.000005
C318	C	0.717088	1.742934	0.499995
C319	C	0.211347	1.205620	-0.031249
C320	C	0.711347	1.705620	0.468751
C321	C	0.262367	1.130979	-0.031242
C322	C	0.762367	1.630979	0.468758
C323	C	0.564676	1.130867	-0.208495
C324	C	1.064676	1.630867	0.291505
C325	C	0.564686	1.205477	-0.259510
C326	C	1.064686	1.705477	0.240490
C327	C	0.533443	1.242795	-0.316268
C328	C	1.033443	1.742795	0.183732
C329	C	0.502194	1.205493	-0.322011
C330	C	1.002194	1.705493	0.177989
C331	C	0.502189	1.130880	-0.270998
C332	C	1.002189	1.630880	0.229002
H333	H	0.476758	0.459799	0.056730
H334	H	0.976758	0.959799	0.556730
Br335	Br	0.638314	0.192196	-0.104833
Br336	Br	1.138314	0.692196	0.395167
Br337	Br	0.785225	0.304125	-0.073573
Br338	Br	1.285225	0.804125	0.426427
H339	H	0.621370	0.347824	-0.087868
H340	H	1.121370	0.847824	0.412132
Br341	Br	0.254564	1.080347	-0.073639
Br342	Br	0.754564	1.580347	0.426361
Br343	Br	0.401896	1.080315	0.073661
Br344	Br	0.901896	1.580315	0.573661
H345	H	0.278472	1.235955	-0.368255
H346	H	0.778472	1.735955	0.131745
Br347	Br	0.428519	1.087010	-0.544715
Br348	Br	0.928519	1.587010	-0.044715
Br349	Br	0.607085	0.480025	-0.073583
Br350	Br	1.107085	0.980025	0.426417
H351	H	0.476760	0.459798	0.162399
H352	H	0.976760	0.959798	0.662399
Br353	Br	0.919027	0.216134	0.000072
Br354	Br	1.419027	0.716134	0.500072
Br355	Br	0.428546	0.368158	0.104915
Br356	Br	0.928546	0.868158	0.604915
H357	H	0.901754	0.324328	0.056763
H358	H	1.401754	0.824328	0.556763
Br359	Br	0.932555	0.304155	0.251855
Br360	Br	1.432555	0.804155	0.751855
H361	H	0.175508	1.303657	-0.357847
H362	H	0.675508	1.803657	0.142153
Br363	Br	0.812315	0.479972	0.073736
Br364	Br	1.312315	0.979972	0.573736
Br365	Br	0.533455	1.344059	-0.385496
Br366	Br	1.033455	1.844059	0.114504
Br367	Br	0.134309	1.256290	-0.073651
Br368	Br	0.634309	1.756290	0.426349
Br369	Br	0.281654	1.256226	0.073648
Br370	Br	0.781654	1.756226	0.573648
H371	H	0.371099	0.614367	0.056712
H372	H	0.871099	1.114367	0.556712
H373	H	0.371058	1.100544	-0.275695
H374	H	0.871058	1.600544	0.224305
H375	H	0.809175	0.459773	0.162420
H376	H	1.309175	0.959773	0.662420
Br377	Br	0.147852	1.344234	-0.000009
Br378	Br	0.647852	1.844234	0.499991
H379	H	0.590118	1.100494	-0.162285
H380	H	1.090118	1.600494	0.337715
H381	H	0.891371	0.256712	0.357941
H382	H	1.391371	0.756712	0.857941
H383	H	0.590131	1.235840	-0.254822
H384	H	1.090131	1.735840	0.245178
Br385	Br	0.459781	0.995641	-0.748167
Br386	Br	0.959781	1.495641	-0.248167
H387	H	0.278557	0.614347	0.056732
H388	H	0.778557	1.114347	0.556732
Br389	Br	-0.214790	0.995589	-0.073589
Br390	Br	0.285210	1.495589	0.426411
H391	H	0.788408	0.324400	0.368350
H392	H	1.288408	0.824400	0.868350
Br393	Br	0.254593	1.080298	-0.131517
Br394	Br	0.754593	1.580298	0.368483
Br395	Br	0.428539	1.087024	-0.664956
Br396	Br	0.928539	1.587024	-0.164956
H397	H	0.476757	1.235890	-0.368231
H398	H	0.976757	1.735890	0.131769
H399	H	0.695821	0.459781	0.275790
H400	H	1.195821	0.959781	0.775790
Br401	Br	0.134324	1.256202	-0.251760
Br402	Br	0.634324	1.756202	0.248240
Br403	Br	0.459772	1.080283	-0.278805
Br404	Br	0.959772	1.580283	0.221195
H405	H	0.590136	0.459832	0.275755
H406	H	1.090136	0.959832	0.775755
Br407	Br	0.607109	0.304237	0.399122
Br408	Br	1.107109	0.804237	0.899122
Br409	Br	0.459808	0.304172	0.251867
Br410	Br	0.959808	0.804172	0.751867
H411	H	0.476749	0.946021	-0.837617
H412	H	0.976749	1.446021	-0.337617
Br413	Br	0.428559	0.192228	0.104926
Br414	Br	0.928559	0.692228	0.604926
Br415	Br	0.607089	0.564751	-0.721131
Br416	Br	1.107089	1.064751	-0.221131
H417	H	0.533462	0.256774	0.357932
H418	H	1.033462	0.756774	0.857932
Br419	Br	0.607069	0.080274	-0.073597
Br420	Br	1.107069	0.580274	0.426403
Br421	Br	0.459796	0.080292	0.073684
Br422	Br	0.959796	0.580292	0.573684
Br423	Br	0.078256	0.473299	0.104968
Br424	Br	0.578256	0.973299	0.604968
Br425	Br	-0.067439	0.564681	0.073722
Br426	Br	0.432561	1.064681	0.573722
Br427	Br	0.198487	0.473313	0.104953
Br428	Br	0.698487	0.973313	0.604953
H429	H	-0.190817	0.614302	0.056762
H430	H	0.309183	1.114302	0.556762
H431	H	-0.304212	0.945951	-0.056626
H432	H	0.195788	1.445951	0.443374
Br433	Br	-0.131592	1.087004	-0.104827
Br434	Br	0.368408	1.587004	0.395173
H435	H	0.590138	0.614358	-0.631691
H436	H	1.090138	1.114358	-0.131691
H437	H	-0.008230	1.037384	-0.087863
H438	H	0.491770	1.537384	0.412137
H439	H	0.590125	0.614309	-0.162291
H440	H	1.090125	1.114309	0.337709
H441	H	0.165134	0.946011	-0.056666
H442	H	0.665134	1.446011	0.443334
H443	H	0.257698	0.946013	-0.056669
H444	H	0.757698	1.446013	0.443331
H445	H	0.476738	0.945955	-0.275657
H446	H	0.976738	1.445955	0.224343
H447	H	0.476747	0.945976	-0.368213
H448	H	0.976747	1.445976	0.131787
H449	H	0.621400	0.522938	-0.365745
H450	H	1.121400	1.022938	0.134255
Br451	Br	0.638365	0.473319	-0.455178
Br452	Br	1.138365	0.973319	0.044822
Br453	Br	0.664982	0.480018	-0.073574
Br454	Br	1.164982	0.980018	0.426426
Br455	Br	0.607092	0.564694	-0.251747
Br456	Br	1.107092	1.064694	0.248253
