data_functionalizedCrystal
_audit_creation_method	'MofGen! by Chris Wilmer'
_symmetry_space_group_name_H-M	'P1'
_symmetry_Int_Tables_number	1
_symmetry_cell_setting	triclinic
loop_
_symmetry_equiv_pos_as_xyz
  x,y,z
_cell_length_a	6.817900
_cell_length_b	12.908942
_cell_length_c	10.992410
_cell_angle_alpha	94.375677
_cell_angle_beta	108.764651
_cell_angle_gamma	100.860556
loop_
_atom_site_label
_atom_site_type_symbol
_atom_site_fract_x
_atom_site_fract_y
_atom_site_fract_z
V1	V	-4.073725	-0.145852	-0.399878
O2	O	-4.074323	0.007009	-0.393002
O3	O	-4.011476	-0.289201	-0.396436
O4	O	-4.051940	-0.143609	-0.574602
O5	O	-4.033579	-0.139591	-0.213603
V6	V	-4.555698	-0.127568	-0.377684
O7	O	-4.338382	-0.185960	-0.448563
O8	O	-4.741239	-0.087461	-0.329000
O9	O	-4.394741	0.015780	-0.381126
O10	O	-4.672497	-0.280430	-0.384561
O11	O	-4.713241	-0.133830	-0.563960
O12	O	-4.354276	-0.129812	-0.202961
C13	C	-3.852247	-0.324146	-0.389945
C14	C	-3.882815	-0.441335	-0.388295
C15	C	-4.305471	-0.672288	-0.397991
C16	C	-4.334203	-0.782398	-0.396441
C17	C	-3.969016	-0.771668	-0.383655
C18	C	-3.940285	-0.661558	-0.385205
C19	C	-4.108519	-0.611872	-0.392371
C20	C	-4.079781	-0.501759	-0.393912
C21	C	-3.714601	-0.491032	-0.381135
C22	C	-3.743333	-0.601142	-0.379585
C23	C	-3.903862	-0.138428	-0.617212
C24	C	-3.967242	-0.137542	-0.760044
C25	C	-3.836608	-0.129471	-0.955207
C26	C	-3.770680	-0.130829	-0.806717
C27	C	-4.136379	-0.241483	-0.836639
C28	C	-4.200948	-0.240564	-0.985210
C29	C	-4.134634	-0.039296	-0.948165
C30	C	-4.064062	-0.038804	-0.799154
C31	C	-4.217311	0.050720	-0.387614
C32	C	-4.165982	0.167908	-0.389272
C33	C	-4.165696	-0.134997	-0.160344
C34	C	-4.081554	-0.135877	-0.017510
H35	H	-3.606370	-0.641613	-0.373756
H36	H	-4.442446	-0.631831	-0.403807
O37	O	-4.313098	-0.251975	-0.802414
C38	C	-4.461491	-0.346050	-0.872914
H39	H	-4.428964	-0.369404	-0.965505
H40	H	-4.629199	-0.331786	-0.899248
H41	H	-4.446310	-0.413029	-0.811001
H42	H	-3.554224	-0.441829	-0.376557
H43	H	-4.165068	-0.313693	-1.031122
H44	H	-4.070250	-0.314791	-0.810675
O45	O	-3.618549	-0.041560	-0.743661
C46	C	-3.699812	0.049459	-0.774547
H47	H	-3.837554	0.028327	-0.871022
H48	H	-3.569130	0.115146	-0.782746
H49	H	-3.758460	0.078504	-0.694850
H50	H	-3.740312	-0.054219	-0.974405
H51	H	-4.494578	-0.831586	-0.401020
H52	H	-4.380439	-0.249602	-1.027797
O53	O	-4.243017	-0.453411	-0.400644
C54	C	-4.183519	-0.375720	-0.290218
H55	H	-4.050970	-0.395863	-0.208035
H56	H	-4.326633	-0.374415	-0.258395
H57	H	-4.124847	-0.294062	-0.314931
H58	H	-3.792390	-0.198865	-1.002860
H59	H	-4.053650	0.039634	-0.968910
H60	H	-3.693952	-0.201187	-0.781558
O61	O	-3.805576	-0.819968	-0.376475
C62	C	-3.757527	-0.869071	-0.263502
H63	H	-3.814864	-0.828932	-0.189502
H64	H	-3.578310	-0.860792	-0.220336
H65	H	-3.840549	-0.957192	-0.289313
H66	H	-3.942171	0.038087	-0.747173
O67	O	-4.233827	-0.037438	-0.760167
C68	C	-4.268905	-0.126136	-0.696334
H69	H	-4.197116	-0.191287	-0.729162
H70	H	-4.447113	-0.157794	-0.721364
H71	H	-4.190855	-0.101051	-0.586864
O72	O	-4.346864	-0.043656	-0.996686
C73	C	-4.392649	0.043327	-0.933840
H74	H	-4.262117	0.073236	-0.835379
H75	H	-4.551803	0.016834	-0.919334
H76	H	-4.401052	0.110244	-0.995987
