data_functionalizedCrystal
_audit_creation_method	'MofGen! by Chris Wilmer'
_symmetry_space_group_name_H-M	'P1'
_symmetry_Int_Tables_number	1
_symmetry_cell_setting	triclinic
loop_
_symmetry_equiv_pos_as_xyz
  x,y,z
_cell_length_a	10.967926
_cell_length_b	19.188924
_cell_length_c	10.065875
_cell_angle_alpha	98.757069
_cell_angle_beta	93.120479
_cell_angle_gamma	83.944562
loop_
_atom_site_label
_atom_site_type_symbol
_atom_site_fract_x
_atom_site_fract_y
_atom_site_fract_z
O1	O	1.612246	0.121736	0.265688
O2	O	1.262191	0.123729	0.183355
O3	O	1.447322	0.021359	0.226914
O4	O	1.427115	0.224106	0.222129
O5	O	1.412020	0.040961	0.445596
O6	O	1.226889	0.143332	0.402037
O7	O	1.576944	0.141338	0.484371
Zn8	Zn	1.396311	0.145447	0.477924
Zn9	Zn	1.442824	0.119620	0.189801
O10	O	1.391813	0.243708	0.440811
C11	C	1.199755	0.131904	0.282163
C12	C	1.066311	0.127050	0.250777
C13	C	0.988529	0.135041	0.350068
C14	C	0.850607	0.130024	0.317632
C15	C	1.429018	0.005131	0.336103
C16	C	1.427057	-0.072428	0.335645
C17	C	1.445385	-0.119538	0.216226
C18	C	1.443527	-0.192413	0.215778
C19	C	1.423364	-0.218176	0.334763
C20	C	1.405027	-0.171056	0.454196
C21	C	1.406873	-0.098182	0.454638
N22	N	1.474551	-0.328064	0.438889
N23	N	1.472802	-0.397292	0.438463
C24	C	1.417798	-0.437742	0.333441
N25	N	1.364629	-0.406350	0.228845
N26	N	1.366385	-0.337116	0.229269
C27	C	1.421359	-0.297195	0.334298
C28	C	1.434111	-0.563872	0.213528
C29	C	1.432245	-0.636748	0.213083
C30	C	1.393757	-0.615390	0.451508
C31	C	1.395611	-0.542515	0.451946
C32	C	1.415795	-0.516761	0.332953
C33	C	1.639380	0.133163	0.385560
C34	C	1.772826	0.138016	0.416937
C35	C	1.410118	0.259936	0.331620
C36	C	1.412080	0.337494	0.332069
N37	N	1.364577	0.163073	0.674563
N38	N	1.474568	0.101988	-0.006836
C39	C	1.431775	0.125748	0.758153
C40	C	1.407360	0.139319	0.909576
H41	H	0.815097	0.119467	0.208604
H42	H	1.331745	0.181322	0.950105
F43	F	0.819234	0.151805	0.559447
F44	F	1.573598	0.047205	0.940242
H45	H	1.288966	0.205074	0.715099
H46	H	1.024046	0.145592	0.459088
H47	H	1.507377	0.083742	0.717617
H48	H	1.030795	0.116493	0.141757
H49	H	1.447165	-0.675105	0.115833
H50	H	1.461816	-0.098574	0.119332
F51	F	1.376103	-0.492375	0.579050
F52	F	1.463034	-0.242560	0.088671
H53	H	1.377330	-0.636365	0.548385
H54	H	1.388606	-0.192037	0.551074
H55	H	1.450539	-0.542902	0.116635
F56	F	1.387362	-0.048042	0.581745
