data_functionalizedCrystal
_audit_creation_method	'MofGen! by Chris Wilmer'
_symmetry_space_group_name_H-M	'P1'
_symmetry_Int_Tables_number	1
_symmetry_cell_setting	triclinic
loop_
_symmetry_equiv_pos_as_xyz
  x,y,z
_cell_length_a	12.759401
_cell_length_b	18.215405
_cell_length_c	12.759393
_cell_angle_alpha	89.962381
_cell_angle_beta	89.980163
_cell_angle_gamma	90.026410
loop_
_atom_site_label
_atom_site_type_symbol
_atom_site_fract_x
_atom_site_fract_y
_atom_site_fract_z
Zn1	Zn	1.606181	-0.292911	-0.593976
Zn2	Zn	2.106181	0.207089	-0.093976
Zn3	Zn	1.606044	-0.415997	-0.418278
Zn4	Zn	2.106044	0.084003	0.081722
Zn5	Zn	1.430483	-0.292952	-0.418311
Zn6	Zn	1.930483	0.207048	0.081689
Zn7	Zn	1.430440	-0.415943	-0.593915
Zn8	Zn	1.930440	0.084057	-0.093915
O9	O	1.518287	-0.354451	-0.506120
O10	O	2.018287	0.145549	-0.006120
O11	O	1.753183	-0.309243	-0.570681
O12	O	2.253183	0.190757	-0.070681
O13	O	1.582716	-0.399715	-0.271261
O14	O	2.082716	0.100285	0.228739
O15	O	1.453865	-0.189962	-0.441653
O16	O	1.953865	0.310038	0.058347
O17	O	1.753083	-0.399674	-0.441596
O18	O	2.253083	0.100326	0.058404
O19	O	1.582949	-0.189932	-0.570714
O20	O	2.082949	0.310068	-0.070714
O21	O	1.453732	-0.309314	-0.271286
O22	O	1.953732	0.190686	0.228714
O23	O	1.283456	-0.309262	-0.441594
O24	O	1.783456	0.190738	0.058406
O25	O	1.453792	-0.399583	-0.740944
O26	O	1.953792	0.100417	-0.240944
O27	O	1.283425	-0.399623	-0.570609
O28	O	1.783425	0.100377	-0.070609
O29	O	1.582908	-0.309191	-0.740989
O30	O	2.082908	0.190809	-0.240989
O31	O	1.582674	-0.518974	-0.441537
O32	O	2.082674	-0.018974	0.058463
O33	O	1.453659	-0.518935	-0.570577
O34	O	1.953659	-0.018935	-0.070577
C35	C	1.245319	-0.354442	-0.506099
C36	C	1.745319	0.145558	-0.006099
C37	C	1.128543	-0.354456	-0.506115
C38	C	1.628543	0.145544	-0.006115
C39	C	1.073692	-0.401578	-0.573188
C40	C	1.573692	0.098422	-0.073188
C41	C	0.963968	-0.401581	-0.573209
C42	C	1.463968	0.098419	-0.073209
C43	C	0.963955	-0.307337	-0.439076
C44	C	1.463955	0.192663	0.060924
C45	C	1.073677	-0.307331	-0.439061
C46	C	1.573677	0.192669	0.060939
C47	C	1.518176	-0.545657	-0.506070
C48	C	2.018176	-0.045657	-0.006070
C49	C	1.518224	-0.627456	-0.506083
C50	C	2.018224	-0.127456	-0.006083
C51	C	1.585561	-0.815646	-0.439016
C52	C	2.085561	-0.315646	0.060984
C53	C	1.585608	-0.892505	-0.439041
C54	C	2.085608	-0.392505	0.060959
C55	C	1.451147	-0.892503	-0.573300
C56	C	1.951147	-0.392503	-0.073300
C57	C	1.451107	-0.815646	-0.573279
C58	C	1.951107	-0.315646	-0.073279
C59	C	1.518312	-0.777219	-0.506131
C60	C	2.018312	-0.277219	-0.006131
C61	C	1.518399	-0.930935	-0.506178
C62	C	2.018399	-0.430935	-0.006178
C63	C	1.518450	-1.014269	-0.506206
C64	C	2.018450	-0.514269	-0.006206
C65	C	1.518263	-0.693880	-0.506104
C66	C	2.018263	-0.193880	-0.006104
C67	C	1.792320	-0.354460	-0.506142
C68	C	2.292320	0.145540	-0.006142
C69	C	1.909097	-0.354464	-0.506151
C70	C	2.409097	0.145536	-0.006151
C71	C	1.518360	-0.354376	-0.780154
C72	C	2.018360	0.145624	-0.280154
C73	C	1.518391	-0.354345	-0.896930
C74	C	2.018391	0.145655	-0.396930
C75	C	1.518427	-0.162498	-0.506194
C76	C	2.018427	0.337502	-0.006194
C77	C	1.518486	-0.080699	-0.506225
C78	C	2.018486	0.419301	-0.006225
C79	C	1.451254	-0.307264	-0.951805
C80	C	1.951254	0.192736	-0.451805
C81	C	1.451278	-0.307242	-1.061529
C82	C	1.951278	0.192758	-0.561529
C83	C	1.585587	-0.401382	-1.061495
C84	C	2.085587	0.098618	-0.561495
C85	C	1.585557	-0.401407	-0.951773
C86	C	2.085557	0.098593	-0.451773
C87	C	1.518274	-0.354472	-0.233153
C88	C	2.018274	0.145528	0.266847
C89	C	1.518446	-0.354296	-0.116377
C90	C	2.018446	0.145704	0.383623
H91	H	0.919313	-0.439952	-0.627827
H92	H	1.419313	0.060048	-0.127827
C93	C	0.903593	-0.255506	-0.365314
C94	C	1.403593	0.244494	0.134686
N95	N	0.858129	-0.216468	-0.309752
N96	N	1.358129	0.283532	0.190248
C97	C	1.134017	-0.255490	-0.365272
C98	C	1.634017	0.244510	0.134728
N99	N	1.179464	-0.216444	-0.309697
N100	N	1.679464	0.283556	0.190303
H101	H	1.640272	-0.439698	-1.106161
H102	H	2.140272	0.060302	-0.606161
C103	C	1.659437	-0.453188	-0.891407
C104	C	2.159437	0.046812	-0.391407
N105	N	1.715086	-0.492184	-0.845940
N106	N	2.215086	0.007816	-0.345940
H107	H	1.118360	-0.439949	-0.627791
H108	H	1.618360	0.060051	-0.127791
C109	C	1.377361	-0.255500	-0.891482
C110	C	1.877361	0.244500	-0.391482
N111	N	1.321700	-0.216512	-0.846050
N112	N	1.821700	0.283488	-0.346050
H113	H	1.640370	-0.923788	-0.384391
H114	H	2.140370	-0.423788	0.115609
H115	H	1.640284	-0.784361	-0.384341
H116	H	2.140284	-0.284361	0.115659
H117	H	1.396430	-0.923800	-0.627968
H118	H	1.896430	-0.423800	-0.127968
H119	H	1.396344	-0.784357	-0.627938
H120	H	1.896344	-0.284357	-0.127938
H121	H	1.396607	-0.268905	-1.106203
H122	H	1.896607	0.231095	-0.606203
