data_functionalizedCrystal
_audit_creation_method	'MofGen! by Chris Wilmer'
_symmetry_space_group_name_H-M	'P1'
_symmetry_Int_Tables_number	1
_symmetry_cell_setting	triclinic
loop_
_symmetry_equiv_pos_as_xyz
  x,y,z
_cell_length_a	15.298149
_cell_length_b	15.296720
_cell_length_c	15.297327
_cell_angle_alpha	107.319222
_cell_angle_beta	91.646891
_cell_angle_gamma	91.602853
loop_
_atom_site_label
_atom_site_type_symbol
_atom_site_fract_x
_atom_site_fract_y
_atom_site_fract_z
Zn1	Zn	1.116298	-0.823291	-0.694715
Zn2	Zn	1.116203	-0.694665	-0.823317
Zn3	Zn	1.005074	-0.644548	-0.644579
Zn4	Zn	0.946167	-0.814549	-0.814594
O5	O	1.045935	-0.744263	-0.744301
O6	O	1.233994	-0.830862	-0.736407
O7	O	1.126074	-0.563041	-0.782275
O8	O	1.044521	-0.650943	-0.526258
O9	O	1.233924	-0.736361	-0.830890
O10	O	1.126237	-0.782265	-0.563093
O11	O	1.044428	-0.526219	-0.650957
O12	O	0.879551	-0.642466	-0.642499
O13	O	0.944122	-0.940685	-0.816023
O14	O	0.836272	-0.767365	-0.767408
O15	O	1.069117	-0.947108	-0.727949
O16	O	1.068954	-0.727884	-0.947132
O17	O	0.944029	-0.815962	-0.940723
C18	C	0.827391	-0.698529	-0.698567
C19	C	0.733888	-0.678988	-0.679026
C20	C	1.000059	-0.977208	-0.776605
C21	C	0.980510	-1.076475	-0.790372
C22	C	1.000108	-0.776437	-0.976338
C23	C	0.980574	-0.790247	-1.075625
C24	C	1.265333	-0.790177	-0.790215
C25	C	1.358827	-0.809743	-0.809780
C26	C	1.712499	-0.604765	-0.604800
C27	C	1.624656	-0.586380	-0.586419
C28	C	1.558195	-0.642219	-0.642257
C29	C	1.579584	-0.716447	-0.716481
C30	C	1.667435	-0.734830	-0.734868
C31	C	1.513131	-0.772284	-0.772325
C32	C	1.534520	-0.846511	-0.846549
C33	C	1.622363	-0.864892	-0.864933
C34	C	1.688824	-0.809052	-0.809094
C35	C	1.425280	-0.753900	-0.753938
C36	C	1.380217	-0.883965	-0.884006
C37	C	1.468059	-0.902351	-0.902387
C38	C	1.185721	-1.369671	-0.645762
C39	C	1.204094	-1.276406	-0.632831
C40	C	1.148200	-1.226418	-0.672215
C41	C	1.073929	-1.269705	-0.724533
C42	C	1.055558	-1.362981	-0.737471
C43	C	1.018037	-1.219729	-0.763924
C44	C	0.943766	-1.263016	-0.816242
C45	C	0.925398	-1.356282	-0.829177
C46	C	0.981293	-1.406269	-0.789793
C47	C	1.036407	-1.126453	-0.750985
C48	C	0.906244	-1.119763	-0.842694
C49	C	0.887872	-1.213028	-0.855625
C50	C	1.091694	-0.512226	-0.712068
C51	C	1.111456	-0.412959	-0.698085
C52	C	1.185834	-0.645938	-1.368781
C53	C	1.204188	-0.632959	-1.275495
C54	C	1.148286	-0.672280	-1.225523
C55	C	1.074027	-0.724583	-1.268846
C56	C	1.055668	-0.737558	-1.362139
C57	C	1.018120	-0.763899	-1.218881
C58	C	0.943862	-0.816202	-1.262204
C59	C	0.925506	-0.829175	-1.355488
C60	C	0.981408	-0.789854	-1.405460
C61	C	1.036480	-0.750924	-1.125588
C62	C	0.906314	-0.842543	-1.118946
C63	C	0.887960	-0.855523	-1.212232
C64	C	1.091960	-0.711988	-0.511365
C65	C	1.111574	-0.698235	-0.412102
H66	H	1.407875	-0.693465	-0.693503
H67	H	1.096879	-1.091218	-0.708386
H68	H	1.163163	-1.150478	-0.661683
H69	H	0.827498	-0.898108	-1.247519
H70	H	1.485487	-0.962788	-0.962821
Br71	Br	1.290026	-0.959750	-0.959793
H72	H	1.766617	-0.559305	-0.559349
H73	H	1.264567	-1.241169	-0.590236
Br74	Br	1.651390	-0.965617	-0.965677
H75	H	1.231227	-1.410380	-0.613708
H76	H	1.760355	-0.824019	-0.824055
Br77	Br	0.787079	-1.271785	-0.926625
H78	H	0.966338	-1.482214	-0.800320
Br79	Br	1.261688	-0.592575	-1.436600
H80	H	1.607248	-0.525940	-0.525990
Br81	Br	1.304968	-0.561989	-1.216708
Br82	Br	0.830436	-0.895901	-1.051133
H83	H	1.486671	-0.627245	-0.627286
H84	H	0.864928	-1.391526	-0.871787
H85	H	1.163234	-0.661707	-1.149566
Br86	Br	0.956204	-0.806988	-1.531932
H87	H	0.860731	-1.079064	-0.874765
Br88	Br	1.137255	-0.679942	-1.066804
H89	H	0.865032	-0.871751	-1.390755
