data_functionalizedCrystal
_audit_creation_method	'MofGen! by Chris Wilmer'
_symmetry_space_group_name_H-M	'P1'
_symmetry_Int_Tables_number	1
_symmetry_cell_setting	triclinic
loop_
_symmetry_equiv_pos_as_xyz
  x,y,z
_cell_length_a	21.606444
_cell_length_b	14.560438
_cell_length_c	14.560438
_cell_angle_alpha	60.000095
_cell_angle_beta	90.001828
_cell_angle_gamma	59.997742
loop_
_atom_site_label
_atom_site_type_symbol
_atom_site_fract_x
_atom_site_fract_y
_atom_site_fract_z
Zr1	Zr	0.596191	1.005326	-0.120531
O2	O	0.497356	1.196939	-0.267185
O3	O	0.626495	0.813715	-0.075571
O4	O	0.626484	1.005329	-0.267179
O5	O	0.497370	1.005323	0.075563
O6	O	0.728335	1.005328	-0.267177
O7	O	0.497367	1.005326	-0.075578
O8	O	0.728355	0.662567	0.075575
O9	O	0.497350	1.348085	-0.267188
O10	O	0.715423	0.892527	-0.056397
O11	O	0.639414	0.892525	0.056395
O12	O	0.639401	1.118125	-0.169198
O13	O	0.563392	1.118123	-0.056405
Zr14	Zr	0.758637	1.005322	0.120525
Zr15	Zr	0.758633	1.005326	-0.120527
Zr16	Zr	0.596195	1.005322	0.120521
Zr17	Zr	0.596181	1.246386	-0.120535
Zr18	Zr	0.758647	0.764262	0.120529
O19	O	0.728333	1.196933	0.075565
O20	O	0.728328	1.196939	-0.267180
O21	O	0.497362	1.196933	0.075560
O22	O	0.857472	0.813709	0.267179
O23	O	0.857466	0.813715	-0.075566
O24	O	0.626501	0.813709	0.267174
O25	O	0.857459	1.005325	-0.075569
O26	O	0.728345	1.005319	0.267173
O27	O	0.626493	1.005320	0.267170
O28	O	0.857461	1.005322	0.075571
O29	O	0.626469	1.348084	-0.267185
O30	O	0.728359	0.662564	0.267179
O31	O	0.857479	0.662563	0.267182
O32	O	0.857475	0.662567	0.075578
O33	O	0.497353	1.348081	-0.075584
O34	O	0.626473	1.348081	-0.075581
O35	O	0.715427	0.892523	0.169192
O36	O	0.791436	0.892525	0.056399
O37	O	0.715414	1.118123	-0.056402
O38	O	0.639405	1.118121	0.056391
C39	C	0.677426	0.703795	0.000003
C40	C	0.677431	0.601459	0.000004
C41	C	0.474224	1.005324	-0.000008
C42	C	0.405263	1.005324	-0.000009
C43	C	0.733523	0.373965	0.083263
C44	C	0.733541	0.470101	0.083269
C45	C	0.621302	0.636682	-0.083277
C46	C	0.621288	0.540548	-0.083287
C47	C	0.372863	1.005330	-0.083277
C48	C	0.308069	1.005323	-0.083273
C49	C	0.275673	1.005321	-0.000005
C50	C	0.308079	1.005312	0.083271
C51	C	0.372875	1.005309	0.083271
C52	C	0.046765	1.005321	0.083275
C53	C	-0.018037	1.005328	0.083267
C54	C	-0.018040	1.005335	-0.083269
C55	C	0.046755	1.005333	-0.083269
C56	C	0.079158	1.005317	0.000010
C57	C	0.149415	1.005321	0.000006
C58	C	0.205413	1.005325	-0.000004
C59	C	0.880604	1.005324	0.000002
C60	C	0.949565	1.005324	0.000003
C61	C	0.677409	1.005329	-0.301523
C62	C	0.677407	1.005331	-0.403855
C63	C	0.677402	1.306853	-0.000009
C64	C	0.677398	1.409189	-0.000011
C65	C	0.637725	1.123089	-0.510812
C66	C	0.637734	1.123083	-0.606961
C67	C	0.717108	0.887550	-0.489182
C68	C	0.717103	0.887558	-0.393036
C69	C	0.677419	1.005319	0.301516
C70	C	0.677421	1.005317	0.403849
C71	C	0.880617	0.703795	0.000007
C72	C	0.949582	0.601459	0.000011
C73	C	0.677432	0.703790	0.301522
C74	C	0.677438	0.601452	0.403857
C75	C	0.880622	0.703790	0.301527
C76	C	0.949589	0.601452	0.403863
C77	C	0.474206	1.306858	-0.301533
C78	C	0.405239	1.409196	-0.403869
C79	C	0.474211	1.306853	-0.000013
C80	C	0.405246	1.409190	-0.000017
C81	C	0.677397	1.306858	-0.301528
C82	C	0.677391	1.409196	-0.403863
C83	C	0.942291	0.553401	-0.058876
C84	C	1.007085	0.457259	-0.058896
C85	C	1.079169	0.409169	-0.000021
C86	C	1.086459	0.457235	0.058868
C87	C	1.021666	0.553383	0.058880
C88	C	1.021659	0.553394	0.393045
C89	C	1.086467	0.457250	0.489191
C90	C	1.079203	0.409159	0.596155
C91	C	1.007125	0.457226	0.606972
C92	C	0.942319	0.553375	0.510826
C93	C	0.333169	1.457266	-0.393051
C94	C	0.268361	1.553440	-0.489197
C95	C	0.275625	1.601536	-0.596162
C96	C	0.347703	1.553462	-0.606978
C97	C	0.412509	1.457296	-0.510832
C98	C	0.412537	1.457257	0.058860
C99	C	0.347744	1.553426	0.058853
C100	C	0.275659	1.601519	-0.000025
C101	C	0.268369	1.553448	-0.058910
C102	C	0.333163	1.457287	-0.058908
C103	C	0.717118	0.553371	0.510813
C104	C	0.717115	0.457222	0.606963
C105	C	0.637750	0.457242	0.489189
C106	C	0.637749	0.553395	0.393040
H107	H	0.779211	0.267011	0.151071
Cl108	Cl	0.194211	1.722406	-0.000013
H109	H	0.605422	1.218973	-0.694047
H110	H	0.749431	0.592501	0.519626
H111	H	1.145158	0.418066	0.106802
H112	H	1.027613	0.592499	0.106840
H113	H	0.471190	1.418159	-0.519654
H114	H	0.883638	0.592492	0.519650
H115	H	0.281690	1.005326	-0.151075
Cl116	Cl	1.160682	0.288282	0.717015
H117	H	0.749425	0.418080	0.694048
Cl118	Cl	0.087477	1.005341	-0.187955
H119	H	0.327240	1.418112	-0.305964
H120	H	-0.044427	1.005342	-0.151076
H121	H	0.605439	0.418100	0.480396
Cl122	Cl	0.804102	0.425811	0.187959
Cl123	Cl	0.267357	1.005300	0.187958
Cl124	Cl	0.767002	0.739501	-0.475592
H125	H	0.575619	0.743643	-0.151077
H126	H	0.749421	0.791659	-0.305941
H127	H	-0.044412	1.005324	0.151078
Cl128	Cl	0.851678	0.613843	-0.132906
H129	H	0.575583	0.569240	-0.151104
H130	H	0.399233	1.005340	-0.151087
Cl131	Cl	0.087492	1.005309	0.187962
Cl132	Cl	0.413607	1.005295	0.187959
Cl133	Cl	0.587829	1.271146	-0.524417
Cl134	Cl	0.997903	0.396847	-0.132927
Cl135	Cl	0.177758	1.613850	-0.475574
Cl136	Cl	0.503150	1.396823	0.132882
Cl137	Cl	0.998006	0.396754	0.741450
H138	H	0.353694	1.592549	0.106808
Cl139	Cl	1.030811	0.613839	0.258587
Cl140	Cl	1.160617	0.288293	-0.000044
H141	H	1.145150	0.418123	0.480364
Cl142	Cl	0.194146	1.722429	-0.717021
H143	H	0.209670	1.592621	-0.106847
H144	H	0.327215	1.418154	-0.106850
H145	H	0.353609	1.592634	-0.694079
H146	H	0.605433	0.592547	0.305946
