data_functionalizedCrystal
_audit_creation_method	'MofGen! by Chris Wilmer'
_symmetry_space_group_name_H-M	'P1'
_symmetry_Int_Tables_number	1
_symmetry_cell_setting	triclinic
loop_
_symmetry_equiv_pos_as_xyz
  x,y,z
_cell_length_a	8.597366
_cell_length_b	8.634740
_cell_length_c	8.140239
_cell_angle_alpha	90.001421
_cell_angle_beta	82.300763
_cell_angle_gamma	92.879812
loop_
_atom_site_label
_atom_site_type_symbol
_atom_site_fract_x
_atom_site_fract_y
_atom_site_fract_z
O1	O	2.117279	0.230667	-0.163085
O2	O	2.617279	0.730667	0.336915
O3	O	1.663030	0.248367	-0.098785
O4	O	2.163030	0.748367	0.401215
O5	O	1.868652	0.014717	-0.127895
O6	O	2.368652	0.514717	0.372105
O7	O	1.911657	0.464317	-0.133975
O8	O	2.411657	0.964317	0.366025
O9	O	1.868638	0.014714	-0.401120
O10	O	2.368638	0.514714	0.098880
O11	O	1.663016	0.248364	-0.372010
O12	O	2.163016	0.748364	0.127990
O13	O	2.117265	0.230664	-0.436310
O14	O	2.617265	0.730664	0.063690
Zn15	Zn	1.890138	0.239513	-0.447541
Zn16	Zn	2.390138	0.739513	0.052459
Zn17	Zn	1.890156	0.239517	-0.087555
Zn18	Zn	2.390156	0.739517	0.412445
O19	O	1.911643	0.464314	-0.407200
O20	O	2.411643	0.964314	0.092800
C21	C	1.604265	0.246465	-0.227080
C22	C	2.104265	0.746465	0.272920
C23	C	1.429182	0.240785	-0.202297
C24	C	1.929182	0.740785	0.297703
C25	C	1.858903	-0.042882	-0.263126
C26	C	2.358903	0.457118	0.236874
C27	C	1.829855	-0.214503	-0.259007
C28	C	2.329855	0.285497	0.240993
C29	C	2.176030	0.232565	-0.308011
C30	C	2.676030	0.732565	0.191989
C31	C	2.351113	0.238246	-0.332784
C32	C	2.851113	0.738246	0.167216
C33	C	1.921392	0.521912	-0.271965
C34	C	2.421392	1.021912	0.228035
C35	C	1.950440	0.693533	-0.276074
C36	C	2.450440	1.193533	0.223926
N37	N	1.890137	0.239510	-0.693223
N38	N	2.390137	0.739510	-0.193223
N39	N	1.890168	0.239508	0.158126
N40	N	2.390168	0.739508	0.658126
H41	H	1.362076	0.238600	-0.071612
H42	H	1.862076	0.738600	0.428388
H43	H	2.075901	-0.253906	-0.293776
H44	H	2.575901	0.246094	0.206224
H45	H	1.418226	0.240419	-0.463478
H46	H	1.918226	0.740419	0.036522
C47	C	1.660356	-0.285503	-0.235013
C48	C	2.160356	0.214497	0.264987
H49	H	1.662407	-0.395407	-0.235310
H50	H	2.162407	0.104593	0.264690
H51	H	1.607051	-0.252454	-0.132191
H52	H	2.107051	0.247546	0.367809
H53	H	1.607050	-0.252468	-0.322763
H54	H	2.107050	0.247532	0.177237
