data_functionalizedCrystal
_audit_creation_method	'MofGen! by Chris Wilmer'
_symmetry_space_group_name_H-M	'P1'
_symmetry_Int_Tables_number	1
_symmetry_cell_setting	triclinic
loop_
_symmetry_equiv_pos_as_xyz
  x,y,z
_cell_length_a	25.639239
_cell_length_b	17.639504
_cell_length_c	17.640968
_cell_angle_alpha	109.667320
_cell_angle_beta	78.768889
_cell_angle_gamma	78.779592
loop_
_atom_site_label
_atom_site_type_symbol
_atom_site_fract_x
_atom_site_fract_y
_atom_site_fract_z
Zn1	Zn	0.069125	-1.354422	-0.721276
Zn2	Zn	0.569125	-0.854422	-0.221276
Zn3	Zn	-0.040492	-1.326401	-0.583407
Zn4	Zn	0.459508	-0.826401	-0.083407
Zn5	Zn	0.024816	-1.188690	-0.555535
Zn6	Zn	0.524816	-0.688690	-0.055535
Zn7	Zn	-0.040438	-1.216490	-0.693289
Zn8	Zn	0.459562	-0.716490	-0.193289
O9	O	0.003253	-1.271501	-0.638377
O10	O	0.503253	-0.771501	-0.138377
O11	O	0.073105	-1.466063	-0.726364
O12	O	0.573105	-0.966063	-0.226364
O13	O	-0.050395	-1.284772	-0.464361
O14	O	0.449605	-0.784772	0.035639
O15	O	0.103877	-1.210768	-0.577568
O16	O	0.603877	-0.710768	-0.077568
O17	O	-0.007430	-1.445476	-0.625073
O18	O	0.492570	-0.945476	-0.125073
O19	O	0.136431	-1.332530	-0.699337
O20	O	0.636431	-0.832530	-0.199337
O21	O	-0.002414	-1.183596	-0.443883
O22	O	0.497586	-0.683596	0.056117
O23	O	-0.002361	-1.077020	-0.550430
O24	O	0.497639	-0.577020	-0.050430
O25	O	-0.007338	-1.258149	-0.812350
O26	O	0.492662	-0.758149	-0.312350
O27	O	-0.050303	-1.097445	-0.651638
O28	O	0.449697	-0.597445	-0.151638
O29	O	0.073157	-1.359487	-0.832912
O30	O	0.573157	-0.859487	-0.332912
O31	O	-0.113669	-1.311728	-0.597936
O32	O	0.386331	-0.811728	-0.097936
O33	O	-0.113629	-1.230977	-0.678665
O34	O	0.386371	-0.730977	-0.178665
C35	C	-0.031135	-1.057322	-0.594973
C36	C	0.468865	-0.557322	-0.094973
C37	C	-0.045855	-0.965699	-0.576425
C38	C	0.454145	-0.465699	-0.076425
C39	C	0.115162	-0.718003	-0.779478
C40	C	0.615162	-0.218003	-0.279478
C41	C	0.101314	-0.631906	-0.762032
C42	C	0.601314	-0.131906	-0.262032
C43	C	0.017539	-0.610459	-0.656406
C44	C	0.517539	-0.110459	-0.156406
C45	C	0.031379	-0.696557	-0.673846
C46	C	0.531379	-0.196557	-0.173846
C47	C	0.080191	-0.750322	-0.735382
C48	C	0.580191	-0.250322	-0.235382
C49	C	-0.003592	-0.728876	-0.629750
C50	C	0.496408	-0.228876	-0.129750
C51	C	0.010248	-0.814966	-0.647185
C52	C	0.510248	-0.314966	-0.147185
C53	C	0.059059	-0.868736	-0.708717
C54	C	0.559059	-0.368736	-0.208717
C55	C	0.094031	-0.836412	-0.752818
C56	C	0.594031	-0.336412	-0.252818
C57	C	-0.052402	-0.675109	-0.568210
C58	C	0.447598	-0.175109	-0.068210
C59	C	-0.087373	-0.707428	-0.524114
C60	C	0.412627	-0.207428	-0.024114
C61	C	-0.073535	-0.793520	-0.541553
C62	C	0.426465	-0.293520	-0.041553
C63	C	-0.024724	-0.847290	-0.603085
C64	C	0.475276	-0.347290	-0.103085
C65	C	-0.108507	-0.825844	-0.497453
C66	C	0.391493	-0.325844	0.002547
C67	C	-0.094667	-0.911933	-0.514888
C68	C	0.405333	-0.411933	-0.014888
C69	C	-0.010884	-0.933379	-0.620521
C70	C	0.489116	-0.433379	-0.120521
C71	C	-0.132618	-1.271355	-0.638311
C72	C	0.367382	-0.771355	-0.138311
C73	C	-0.190728	-1.271373	-0.638325
C74	C	0.309272	-0.771373	-0.138325
C75	C	-0.551039	-1.313704	-0.596458
C76	C	-0.051039	-0.813704	-0.096458
C77	C	-0.605636	-1.313738	-0.596476
C78	C	-0.105636	-0.813738	-0.096476
O79	O	-0.633858	-1.349577	-0.560809
O80	O	-0.133858	-0.849577	-0.060809
N81	N	-0.632954	-1.271657	-0.638461
N82	N	-0.132954	-0.771657	-0.138461
C83	C	-0.605671	-1.229546	-0.680437
C84	C	-0.105671	-0.729546	-0.180437
O85	O	-0.633920	-1.193757	-0.716151
O86	O	-0.133920	-0.693757	-0.216151
C87	C	-0.551073	-1.229517	-0.680424
C88	C	-0.051073	-0.729517	-0.180424
C89	C	-0.523759	-1.271594	-0.638430
C90	C	-0.023759	-0.771594	-0.138430
C91	C	-0.523725	-1.355778	-0.554468
C92	C	-0.023725	-0.855778	-0.054468
C93	C	-0.469132	-1.355742	-0.554450
C94	C	0.030868	-0.855742	-0.054450
C95	C	-0.441852	-1.313632	-0.596421
C96	C	0.058148	-0.813632	-0.096421
C97	C	-0.469166	-1.271558	-0.638411
C98	C	0.030834	-0.771558	-0.138411
C99	C	-0.523789	-1.187412	-0.722406
C100	C	-0.023789	-0.687412	-0.222406
C101	C	-0.469187	-1.187387	-0.722390
C102	C	0.030813	-0.687387	-0.222390
C103	C	-0.441874	-1.229464	-0.680395
C104	C	0.058126	-0.729464	-0.180395
C105	C	-0.387293	-1.229413	-0.680364
C106	C	0.112707	-0.729413	-0.180364
N107	N	-0.359975	-1.271494	-0.638380
N108	N	0.140025	-0.771494	-0.138380
C109	C	-0.387254	-1.313604	-0.596408
C110	C	0.112746	-0.813604	-0.096408
C111	C	-0.720329	-1.229611	-0.680463
C112	C	-0.220329	-0.729611	-0.180463
C113	C	-0.774927	-1.229634	-0.680471
C114	C	-0.274927	-0.729634	-0.180471
C115	C	-0.774889	-1.313827	-0.596511
C116	C	-0.274889	-0.813827	-0.096511
C117	C	-0.720291	-1.313798	-0.596498
C118	C	-0.220291	-0.813798	-0.096498
C119	C	-0.693011	-1.271692	-0.638478
C120	C	-0.193011	-0.771692	-0.138478
C121	C	-0.272605	-1.313525	-0.596372
C122	C	0.227395	-0.813525	-0.096372
C123	C	-0.218007	-1.313483	-0.596354
C124	C	0.281993	-0.813483	-0.096354
C125	C	-0.218050	-1.229293	-0.680318
C126	C	0.281950	-0.729293	-0.180318
C127	C	-0.272643	-1.229332	-0.680332
C128	C	0.227357	-0.729332	-0.180332
C129	C	-0.299919	-1.271454	-0.638358
C130	C	0.200081	-0.771454	-0.138358
O131	O	-0.359036	-1.193595	-0.716016
O132	O	0.140964	-0.693595	-0.216016
O133	O	-0.358996	-1.349396	-0.560710
O134	O	0.141004	-0.849396	-0.060710
C135	C	0.139661	-1.271674	-0.638465
C136	C	0.639661	-0.771674	-0.138465
C137	C	0.197789	-1.271747	-0.638503
C138	C	0.697789	-0.771747	-0.138503
C139	C	0.037858	-1.315044	-0.853376
C140	C	0.537858	-0.815044	-0.353376
C141	C	0.052605	-1.333600	-0.944996
C142	C	0.552605	-0.833600	-0.444996
C143	C	0.037781	-0.486516	-0.681947
C144	C	0.537781	0.013484	-0.181947
C145	C	0.052513	-0.578141	-0.700507
C146	C	0.552513	-0.078141	-0.200507
C147	C	-0.108442	-1.130852	-1.192802
C148	C	0.391558	-0.630852	-0.692802
C149	C	-0.094576	-1.148305	-1.278896
C150	C	0.405424	-0.648305	-0.778896
C151	C	-0.010763	-1.253820	-1.300295
C152	C	0.489237	-0.753820	-0.800295
C153	C	-0.024621	-1.236372	-1.214200
C154	C	0.475379	-0.736372	-0.714200
C155	C	-0.073462	-1.174888	-1.160460
C156	C	0.426538	-0.674888	-0.660460
C157	C	0.010359	-1.280409	-1.181858
C158	C	0.510359	-0.780409	-0.681858
C159	C	-0.003499	-1.262966	-1.095771
C160	C	0.496501	-0.762966	-0.595771
C161	C	-0.052338	-1.201486	-1.042027
C162	C	0.447662	-0.701486	-0.542027
C163	C	-0.087320	-1.157445	-1.074373
C164	C	0.412680	-0.657445	-0.574373
C165	C	0.059198	-1.341897	-1.235601
C166	C	0.559198	-0.841897	-0.735601
C167	C	0.094178	-1.385933	-1.203259
C168	C	0.594178	-0.885933	-0.703259
C169	C	0.080322	-1.368486	-1.117170
C170	C	0.580322	-0.868486	-0.617170
C171	C	0.031483	-1.307007	-1.063425
C172	C	0.531483	-0.807007	-0.563425
C173	C	0.115304	-1.412527	-1.084823
C174	C	0.615304	-0.912527	-0.584823
C175	C	0.101445	-1.395084	-0.998736
C176	C	0.601445	-0.895084	-0.498736
C177	C	0.017624	-1.289564	-0.977338
C178	C	0.517624	-0.789564	-0.477338
C179	C	-0.031173	-1.228174	-0.424223
C180	C	0.468827	-0.728174	0.075777
C181	C	-0.045747	-1.209778	-0.332636
C182	C	0.454253	-0.709778	0.167364
H183	H	-0.127115	-0.663641	-0.474008
H184	H	0.372885	-0.163641	0.025992
N185	N	-0.300458	-1.356539	-0.553478
N186	N	0.199542	-0.856539	-0.053478
N187	N	-0.307487	-1.335712	-0.476315
N188	N	0.192513	-0.835712	0.023685
H189	H	-0.327159	-1.366085	-0.446015
H190	H	0.172841	-0.866085	0.053985
N191	N	-0.190103	-1.356473	-0.553466
N192	N	0.309897	-0.856473	-0.053466
N193	N	-0.146487	-1.414842	-0.593135
N194	N	0.353513	-0.914842	-0.093135
H195	H	-0.126780	-1.445202	-0.562846
H196	H	0.373220	-0.945202	-0.062846
N197	N	-0.551688	-1.144430	-0.765296
N198	N	-0.051688	-0.644430	-0.265296
N199	N	-0.595300	-1.086052	-0.725631
N200	N	-0.095300	-0.586052	-0.225631
H201	H	-0.615003	-1.055694	-0.755924
H202	H	-0.115003	-0.555694	-0.255924
N203	N	-0.441243	-1.398728	-0.511550
N204	N	0.058757	-0.898728	-0.011550
N205	N	-0.465615	-1.436322	-0.474084
N206	N	0.034385	-0.936322	0.025916
H207	H	-0.445922	-1.466686	-0.443786
H208	H	0.054078	-0.966686	0.056214
H209	H	0.028862	-0.977159	-0.670633
H210	H	0.528862	-0.477159	-0.170633
H211	H	0.133943	-1.435996	-1.247026
H212	H	0.633943	-0.935996	-0.747026
N213	N	-0.300542	-1.186362	-0.723238
N214	N	0.199458	-0.686362	-0.223238
N215	N	-0.317857	-1.225992	-0.781675
N216	N	0.182143	-0.725992	-0.281675
H217	H	-0.337555	-1.195650	-0.811986
H218	H	0.162445	-0.695650	-0.311986
N219	N	-0.692475	-1.186589	-0.723349
N220	N	-0.192475	-0.686589	-0.223349
N221	N	-0.716877	-1.149023	-0.760829
N222	N	-0.216877	-0.649023	-0.260829
H223	H	-0.697207	-1.118640	-0.791119
H224	H	-0.197207	-0.618640	-0.291119
H225	H	-0.545929	-1.390073	-0.520291
H226	H	-0.045929	-0.890073	-0.020291
N227	N	-0.692402	-1.356780	-0.553596
N228	N	-0.192402	-0.856780	-0.053596
N229	N	-0.716773	-1.394368	-0.516122
N230	N	-0.216773	-0.894368	-0.016122
H231	H	-0.697079	-1.424727	-0.485820
H232	H	-0.197079	-0.924727	0.014180
H233	H	-0.123065	-1.112441	-1.305224
H234	H	0.376935	-0.612441	-0.805224
N235	N	0.143896	-0.891339	-0.815666
N236	N	0.643896	-0.391339	-0.315666
N237	N	0.180312	-0.933538	-0.796486
N238	N	0.680312	-0.433538	-0.296486
H239	H	0.215528	-0.972332	-0.840868
H240	H	0.715528	-0.472332	-0.340868
N241	N	-0.032325	-0.555540	-0.593564
N242	N	0.467675	-0.055540	-0.093564
N243	N	-0.078175	-0.566206	-0.600844
N244	N	0.421825	-0.066206	-0.100844
H245	H	-0.113394	-0.527421	-0.556462
H246	H	0.386606	-0.027421	-0.056462
H247	H	-0.797109	-1.348119	-0.562339
H248	H	-0.297109	-0.848119	-0.062339
N249	N	-0.066536	-0.587166	-0.550379
N250	N	0.433464	-0.087166	-0.050379
N251	N	-0.034662	-0.545301	-0.525487
N252	N	0.465338	-0.045301	-0.025487
H253	H	-0.044644	-0.483190	-0.512891
H254	H	0.455356	0.016810	-0.012891
N255	N	0.039119	-1.316624	-1.355204
N256	N	0.539119	-0.816624	-0.855204
N257	N	0.051487	-1.332195	-1.432066
N258	N	0.551487	-0.832195	-0.932066
H259	H	0.086717	-1.376551	-1.470846
H260	H	0.586717	-0.876551	-0.970846
H261	H	0.155067	-1.462593	-1.128592
H262	H	0.655067	-0.962593	-0.628592
H263	H	0.070328	-0.938834	-0.722909
H264	H	0.570328	-0.438834	-0.222909
N265	N	-0.441317	-1.144369	-0.765259
N266	N	0.058683	-0.644369	-0.265259
N267	N	-0.392571	-1.144338	-0.765240
N268	N	0.107429	-0.644338	-0.265240
H269	H	-0.372888	-1.113955	-0.795514
H270	H	0.127112	-0.613955	-0.295514
N271	N	-0.066491	-1.183651	-0.954087
N272	N	0.433509	-0.683651	-0.454087
N273	N	-0.072068	-1.111573	-0.902651
N274	N	0.427932	-0.611573	-0.402651
H275	H	-0.082063	-1.098974	-0.840543
H276	H	0.417937	-0.598974	-0.340543
N277	N	-0.130390	-0.944937	-0.469833
N278	N	0.369610	-0.444937	0.030167
N279	N	-0.173969	-0.896925	-0.414891
N280	N	0.326031	-0.396925	0.085109
H281	H	-0.199198	-0.920232	-0.383065
H282	H	0.300802	-0.420232	0.116935
H283	H	-0.195831	-1.195005	-0.714487
H284	H	0.304169	-0.695005	-0.214487
H285	H	-0.148247	-0.782055	-0.447344
H286	H	0.351753	-0.282055	0.052656
N287	N	-0.032266	-1.226768	-0.922426
N288	N	0.467734	-0.726768	-0.422426
N289	N	-0.044633	-1.211209	-0.845567
N290	N	0.455367	-0.711209	-0.345567
H291	H	-0.079868	-1.166864	-0.806784
H292	H	0.420132	-0.666864	-0.306784
N293	N	-0.802820	-1.186633	-0.723356
N294	N	-0.302820	-0.686633	-0.223356
N295	N	-0.778452	-1.149037	-0.760821
N296	N	-0.278452	-0.649037	-0.260821
H297	H	-0.798148	-1.118668	-0.791113
H298	H	-0.298148	-0.618668	-0.291113
N299	N	-0.158338	-1.068057	-1.137905
N300	N	0.341662	-0.568057	-0.637905
N301	N	-0.194740	-1.087290	-1.095728
N302	N	0.305260	-0.587290	-0.595728
H303	H	-0.229978	-1.042945	-1.056958
H304	H	0.270022	-0.542945	-0.556958
H305	H	0.070479	-1.356099	-1.305698
H306	H	0.570479	-0.856099	-0.805698
H307	H	0.129931	-1.430942	-0.972403
H308	H	0.629931	-0.930942	-0.472403
H309	H	-0.127082	-1.107359	-1.030611
H310	H	0.372918	-0.607359	-0.530611
H311	H	0.154908	-0.761783	-0.829590
H312	H	0.654908	-0.261783	-0.329590
H313	H	0.129797	-0.605596	-0.797941
H314	H	0.629797	-0.105596	-0.297941
