data_functionalizedCrystal
_audit_creation_method	'MofGen! by Chris Wilmer'
_symmetry_space_group_name_H-M	'P1'
_symmetry_Int_Tables_number	1
_symmetry_cell_setting	triclinic
loop_
_symmetry_equiv_pos_as_xyz
  x,y,z
_cell_length_a	13.635800
_cell_length_b	23.752963
_cell_length_c	9.514088
_cell_angle_alpha	86.881632
_cell_angle_beta	118.843545
_cell_angle_gamma	79.933268
loop_
_atom_site_label
_atom_site_type_symbol
_atom_site_fract_x
_atom_site_fract_y
_atom_site_fract_z
V1	V	2.100432	-0.080179	0.501698
O2	O	2.100972	0.002809	0.491177
O3	O	2.067478	-0.157977	0.499199
O4	O	2.117902	-0.079403	0.720080
O5	O	2.050199	-0.076308	0.268768
V6	V	2.337981	-0.070198	0.473724
O7	O	2.240302	-0.102071	0.563060
O8	O	2.423210	-0.048305	0.412362
O9	O	2.259332	0.007600	0.476222
O10	O	2.396140	-0.153186	0.484244
O11	O	2.446913	-0.074068	0.706654
O12	O	2.208909	-0.070973	0.255342
V13	V	2.600432	-0.080179	0.501698
O14	O	2.600972	0.002809	0.491177
O15	O	2.567478	-0.157977	0.499199
O16	O	2.617902	-0.079403	0.720080
O17	O	2.550199	-0.076308	0.268768
V18	V	2.837981	-0.070198	0.473724
O19	O	2.740302	-0.102071	0.563060
O20	O	2.923210	-0.048305	0.412362
O21	O	2.759332	0.007600	0.476222
O22	O	2.896140	-0.153186	0.484244
O23	O	2.946913	-0.074068	0.706654
O24	O	2.708909	-0.070973	0.255342
C25	C	1.986501	-0.176928	0.491525
C26	C	2.000478	-0.240532	0.490938
C27	C	2.039944	-0.626467	0.339948
C28	C	2.053084	-0.686229	0.339374
O29	O	2.019729	-0.709937	0.213917
N30	N	2.106905	-0.724587	0.486265
C31	C	2.147599	-0.703180	0.633740
O32	O	2.194586	-0.741294	0.758630
C33	C	2.134465	-0.643420	0.634313
C34	C	2.080631	-0.605065	0.487412
C35	C	1.986115	-0.588113	0.193059
C36	C	1.972974	-0.528355	0.193633
C37	C	2.013661	-0.506952	0.341097
C38	C	2.067490	-0.545307	0.487986
C39	C	2.175166	-0.622015	0.781787
C40	C	2.162028	-0.562250	0.782348
C41	C	2.108194	-0.523894	0.635446
C42	C	2.095036	-0.464146	0.636024
N43	N	2.041215	-0.425789	0.489133
C44	C	2.000528	-0.447192	0.341670
C45	C	2.175178	-0.828681	0.632526
C46	C	2.188305	-0.888440	0.631954
C47	C	2.093791	-0.871485	0.337587
C48	C	2.080658	-0.811724	0.338160
C49	C	2.121357	-0.790323	0.485635
C50	C	1.972933	-0.321697	0.342887
C51	C	1.959790	-0.261935	0.343474
C52	C	2.054310	-0.278895	0.637840
C53	C	2.067446	-0.338652	0.637254
C54	C	2.026757	-0.360051	0.489764
O55	O	2.128367	-0.440397	0.761417
O56	O	1.953559	-0.409072	0.216802
C57	C	2.050820	-0.076699	0.773278
C58	C	2.105687	-0.076580	0.951813
C59	C	2.171980	0.026548	0.483892
C60	C	2.147624	0.090151	0.484490
C61	C	2.107660	-0.073680	0.202135
C62	C	2.042412	-0.073796	0.023599
C63	C	2.486501	-0.176928	0.491525
C64	C	2.500478	-0.240532	0.490938
C65	C	2.550820	-0.076699	0.773278
C66	C	2.605687	-0.076580	0.951813
C67	C	2.671980	0.026548	0.483892
C68	C	2.647624	0.090151	0.484490
C69	C	2.607660	-0.073680	0.202135
C70	C	2.542412	-0.073796	0.023599
C71	C	2.599332	-0.273334	0.498721
C72	C	2.612487	-0.333099	0.498194
C73	C	2.526783	-0.360059	0.489872
C74	C	2.427922	-0.327252	0.482093
C75	C	2.414772	-0.267489	0.482632
C76	C	2.721264	0.122954	0.476711
C77	C	2.698382	0.182718	0.477245
C78	C	2.601864	0.209678	0.485571
C79	C	2.528217	0.176871	0.493346
C80	C	2.551095	0.117109	0.492799
H81	H	1.915948	-0.230707	0.223844
O82	O	2.579617	0.267714	0.486339
C83	C	2.554360	0.343822	0.631485
C84	C	2.579529	0.278084	0.630801
H85	H	2.554305	0.352227	0.748286
H86	H	2.466667	0.365286	0.522294
H87	H	2.623564	0.362622	0.624419
H88	H	2.510397	0.259234	0.637921
H89	H	2.667256	0.256663	0.739977
H90	H	1.952981	-0.605531	0.072970
O91	O	2.434420	0.203141	0.501226
C92	C	2.255665	0.275259	0.371309
C93	C	2.361836	0.245564	0.362181
H94	H	2.196940	0.309556	0.258889
H95	H	2.284414	0.296631	0.484893
H96	H	2.207001	0.241539	0.376859
H97	H	2.410547	0.279248	0.356568
H98	H	2.333012	0.224181	0.248615
H99	H	2.446267	-0.071509	0.948475
O100	O	2.814902	0.096721	0.468402
C101	C	2.885320	0.040733	0.318480
C102	C	2.779181	0.070399	0.327723
H103	H	2.856476	0.019454	0.204733
H104	H	2.944047	0.006365	0.430731
H105	H	2.934018	0.074457	0.313085
H106	H	2.730391	0.036717	0.333067
H107	H	2.720537	0.104777	0.215474
O108	O	2.220381	-0.079240	1.041224
C109	C	2.375924	-0.034258	1.084556
C110	C	2.246021	-0.031179	0.983148
H111	H	2.396692	0.004600	1.037662
H112	H	2.426026	-0.075937	1.073762
H113	H	2.401213	-0.033699	1.217411
H114	H	2.220626	-0.031715	0.850255
H115	H	2.195993	0.010495	0.994080
H116	H	2.087430	-0.261458	0.757901
O117	O	2.720414	-0.079388	1.041641
C118	C	2.903790	-0.132453	1.263101
C119	C	2.773882	-0.129335	1.161523
H120	H	2.947062	-0.172838	1.360026
H121	H	2.917925	-0.092305	1.324082
H122	H	2.942571	-0.134539	1.180303
H123	H	2.735016	-0.127267	1.244210
H124	H	2.759828	-0.169482	1.100525
O125	O	2.214724	-0.807990	0.775933
C126	C	2.309910	-0.831128	1.067844
C127	C	2.265153	-0.854634	0.905556
H128	H	2.350714	-0.868829	1.172689
H129	H	2.235301	-0.801351	1.069408
H130	H	2.376925	-0.805799	1.081580
H131	H	2.198157	-0.879989	0.891715
H132	H	2.339823	-0.884381	0.904065
H133	H	2.669125	-0.251391	0.505488
O134	O	1.933489	-0.342413	0.199526
C135	C	1.944458	-0.348998	-0.044568
C136	C	1.989216	-0.325492	0.117720
H137	H	1.989510	-0.335337	-0.110739
H138	H	1.847735	-0.330803	-0.123309
H139	H	1.963049	-0.398297	-0.019741
H140	H	1.970706	-0.276195	0.093044
H141	H	2.085927	-0.343731	0.196410
O142	O	1.920703	-0.491182	0.050790
C143	C	1.828287	-0.480693	-0.241244
C144	C	1.887486	-0.522851	-0.079582
H145	H	1.801393	-0.506279	-0.346693
H146	H	1.890599	-0.454545	-0.242279
H147	H	1.748965	-0.450036	-0.254438
H148	H	1.966802	-0.553544	-0.066283
H149	H	1.825097	-0.548957	-0.078618
O150	O	2.708395	-0.365005	0.505502
C151	C	2.785434	-0.427782	0.374264
C152	C	2.676728	-0.391687	0.365811
H153	H	2.759871	-0.449354	0.261323
H154	H	2.832508	-0.462443	0.487329
H155	H	2.844416	-0.398233	0.380355
H156	H	2.617660	-0.421190	0.359658
H157	H	2.629744	-0.357021	0.252763
O158	O	2.028396	-0.774550	0.195321
C159	C	1.935990	-0.764055	-0.096713
C160	C	1.995173	-0.806216	0.064943
H161	H	1.909092	-0.789639	-0.202167
H162	H	1.998314	-0.737913	-0.097735
H163	H	1.856673	-0.733393	-0.109910
H164	H	2.074485	-0.836914	0.078245
H165	H	1.932772	-0.832316	0.065893
H166	H	2.491128	0.090405	0.499148
O167	O	2.054403	-0.892380	0.194486
C168	C	2.032753	-0.976940	0.063176
C169	C	2.077422	-0.953352	0.225341
H170	H	2.051326	-1.026237	0.088064
H171	H	2.077748	-0.963296	-0.003104
H172	H	1.936029	-0.958739	-0.015504
H173	H	2.174136	-0.971541	0.304148
H174	H	2.032341	-0.966990	0.291494
H175	H	2.232124	-0.919665	0.751575
O176	O	2.344612	-0.353455	0.473712
C177	C	2.207511	-0.409527	0.323895
C178	C	2.301822	-0.379864	0.333183
H179	H	2.172905	-0.430897	0.210304
H180	H	2.134517	-0.375841	0.318310
H181	H	2.245355	-0.443841	0.436278
H182	H	2.264083	-0.345554	0.220827
H183	H	2.374801	-0.413585	0.338847
O184	O	2.539604	-0.418127	0.489626
C185	C	2.552700	-0.510334	0.624243
C186	C	2.538191	-0.444584	0.624742
H187	H	2.551539	-0.531742	0.733453
H188	H	2.638101	-0.529180	0.631334
H189	H	2.479113	-0.518750	0.507482
H190	H	2.611713	-0.436117	0.741479
H191	H	2.452748	-0.425771	0.617563
H192	H	2.334270	-0.240785	0.476285
H193	H	2.195184	-0.544830	0.902443
O194	O	2.227654	-0.659245	0.924551
C195	C	2.400150	-0.694748	1.183655
C196	C	2.340848	-0.652568	1.022018
H197	H	2.491670	-0.689356	1.262517
H198	H	2.402662	-0.741157	1.158055
H199	H	2.349979	-0.684931	1.250104
H200	H	2.390970	-0.662333	0.955487
H201	H	2.338322	-0.606173	1.047728
O202	O	2.119923	-0.375898	0.780004
C203	C	2.292416	-0.411420	1.039102
C204	C	2.233118	-0.369225	0.877492
H205	H	2.383935	-0.406031	1.117981
H206	H	2.294926	-0.457824	1.013464
H207	H	2.242242	-0.401614	1.105553
H208	H	2.283243	-0.378978	0.810960
H209	H	2.230593	-0.322834	0.903240
O210	O	1.927751	-0.071155	0.933873
C211	C	1.780602	-0.117844	0.757299
C212	C	1.910487	-0.120894	0.858816
H213	H	1.766602	-0.158059	0.696615
H214	H	1.737225	-0.077525	0.660138
H215	H	1.741820	-0.115706	0.840096
H216	H	1.949369	-0.123055	0.776149
H217	H	1.953781	-0.161208	0.955991
H218	H	2.758362	0.209421	0.470916
