data_functionalizedCrystal
_audit_creation_method	'MofGen! by Chris Wilmer'
_symmetry_space_group_name_H-M	'P1'
_symmetry_Int_Tables_number	1
_symmetry_cell_setting	triclinic
loop_
_symmetry_equiv_pos_as_xyz
  x,y,z
_cell_length_a	12.759401
_cell_length_b	10.685194
_cell_length_c	12.759393
_cell_angle_alpha	94.402269
_cell_angle_beta	90.020938
_cell_angle_gamma	94.378655
loop_
_atom_site_label
_atom_site_type_symbol
_atom_site_fract_x
_atom_site_fract_y
_atom_site_fract_z
Zn1	Zn	1.574258	-0.502302	0.561943
Zn2	Zn	1.560699	-0.713368	0.372784
Zn3	Zn	1.398552	-0.502369	0.386274
Zn4	Zn	1.385104	-0.713280	0.548427
O5	O	1.479653	-0.607830	0.467357
O6	O	1.719480	-0.530309	0.536862
O7	O	1.539143	-0.685443	0.227548
O8	O	1.433162	-0.325761	0.420878
O9	O	1.709518	-0.685378	0.397887
O10	O	1.562253	-0.325711	0.549942
O11	O	1.420015	-0.530423	0.237459
O12	O	1.249748	-0.530338	0.407773
O13	O	1.410242	-0.685228	0.697245
O14	O	1.239867	-0.685293	0.526906
O15	O	1.549212	-0.530223	0.707175
O16	O	1.526103	-0.889955	0.384782
O17	O	1.397095	-0.889891	0.513826
C18	C	1.206687	-0.607814	0.467337
C19	C	1.089909	-0.607838	0.467352
C20	C	1.458697	-0.935713	0.446396
C21	C	1.449828	-1.075983	0.437464
C22	C	1.029922	-0.688646	0.529271
C23	C	0.920197	-0.688651	0.529291
C24	C	0.930457	-0.527036	0.405465
C25	C	1.040180	-0.527026	0.405451
C26	C	1.753685	-0.607846	0.467377
C27	C	1.870462	-0.607853	0.467386
C28	C	1.479740	-0.607708	0.741398
C29	C	1.479776	-0.607657	0.858178
C30	C	1.500720	-0.278666	0.488423
C31	C	1.509698	-0.138396	0.497399
C32	C	1.479633	-0.607859	0.194388
C33	C	1.479823	-0.607555	0.077631
C34	C	1.552144	-0.526933	0.918213
C35	C	1.552165	-0.526878	1.027941
C36	C	1.407447	-0.688283	1.017588
C37	C	1.407422	-0.688330	0.907863
H38	H	1.070408	-0.754445	0.579677
C39	C	1.371401	-1.148763	0.358903
C40	C	1.253080	-1.130868	0.368495
C41	C	1.174655	-1.203648	0.289936
C42	C	1.214551	-1.294322	0.201783
C43	C	1.332879	-1.312220	0.192187
C44	C	1.411304	-1.239441	0.270747
H45	H	1.223540	-1.063742	0.433754
H46	H	1.087061	-1.190397	0.297040
H47	H	1.156497	-1.348197	0.143628
H48	H	1.362418	-1.379346	0.126928
H49	H	1.498898	-1.252691	0.263642
H50	H	0.871360	-0.754451	0.579714
C51	C	1.631723	-0.438185	0.863559
C52	C	1.632331	-0.294714	0.887826
C53	C	1.711910	-0.205961	0.833175
C54	C	1.790880	-0.260678	0.754257
C55	C	1.790275	-0.404157	0.729986
C56	C	1.710697	-0.492911	0.784637
H57	H	1.573870	-0.254202	0.946249
H58	H	1.712357	-0.099748	0.851142
H59	H	1.849789	-0.194978	0.713801
H60	H	1.848737	-0.444669	0.671563
H61	H	1.710249	-0.599123	0.766670
C62	C	1.327809	-0.777133	0.841820
C63	C	1.209038	-0.766813	0.857553
C64	C	1.129424	-0.855607	0.791512
C65	C	1.168581	-0.954721	0.709739
C66	C	1.287358	-0.965045	0.694002
C67	C	1.366972	-0.876251	0.760043
H68	H	1.180046	-0.693440	0.918090
H69	H	1.041497	-0.847965	0.803162
H70	H	1.109646	-1.020452	0.660852
H71	H	1.316350	-1.038418	0.633466
H72	H	1.454899	-0.883894	0.748393
H73	H	1.611093	-0.461143	1.076817
C74	C	0.875756	-0.438146	0.337372
C75	C	0.890142	-0.448259	0.217273
C76	C	0.835447	-0.359366	0.149178
C77	C	0.766366	-0.260360	0.201182
C78	C	0.751977	-0.250243	0.321287
C79	C	0.806672	-0.339137	0.389382
H80	H	0.941283	-0.521552	0.178771
H81	H	0.846099	-0.366855	0.060268
H82	H	0.725877	-0.194556	0.150774
H83	H	0.700837	-0.176950	0.359789
H84	H	0.796020	-0.331647	0.478292
C85	C	1.588120	-1.065621	0.575957
C86	C	1.597189	-0.920651	0.585085
C87	C	1.675613	-0.847867	0.663644
C88	C	1.744968	-0.920054	0.733074
C89	C	1.735901	-1.065033	0.723948
C90	C	1.657477	-1.137816	0.645389
H91	H	1.545847	-0.867207	0.533687
H92	H	1.682325	-0.740544	0.670399
H93	H	1.803022	-0.866175	0.791228
H94	H	1.787243	-1.118477	0.775347
H95	H	1.650765	-1.245139	0.638634
H96	H	1.348541	-0.753967	1.058055
H97	H	1.089023	-0.461214	0.355029
