data_functionalizedCrystal
_audit_creation_method	'MofGen! by Chris Wilmer'
_symmetry_space_group_name_H-M	'P1'
_symmetry_Int_Tables_number	1
_symmetry_cell_setting	triclinic
loop_
_symmetry_equiv_pos_as_xyz
  x,y,z
_cell_length_a	17.699083
_cell_length_b	14.044220
_cell_length_c	16.176319
_cell_angle_alpha	89.992517
_cell_angle_beta	89.998611
_cell_angle_gamma	88.235946
loop_
_atom_site_label
_atom_site_type_symbol
_atom_site_fract_x
_atom_site_fract_y
_atom_site_fract_z
O1	O	1.012346	0.119850	-0.068632
O2	O	0.793044	0.135443	-0.068659
O3	O	0.899403	-0.010330	-0.068638
O4	O	0.905987	0.265624	-0.068653
O5	O	0.899387	-0.010340	0.068855
O6	O	0.793027	0.135434	0.068834
O7	O	1.012330	0.119841	0.068861
Cu8	Cu	0.902677	0.127637	0.081402
Cu9	Cu	0.902696	0.127648	-0.081200
O10	O	0.905970	0.265614	0.068840
C11	C	0.764800	0.134880	0.000084
C12	C	0.680666	0.133204	0.000074
C13	C	0.637948	0.218769	0.000069
C14	C	0.558895	0.217189	0.000080
C15	C	0.522563	0.130041	0.000089
C16	C	0.565287	0.044469	0.000096
C17	C	0.644338	0.046050	0.000092
C18	C	0.246484	0.038089	0.000117
C19	C	0.167427	0.036514	0.000120
C20	C	0.161041	0.209227	0.000106
C21	C	0.240092	0.210809	0.000101
C22	C	0.282809	0.125237	0.000112
C23	C	0.368527	0.126952	0.000102
C24	C	0.436847	0.128325	0.000094
C25	C	0.896513	-0.045643	0.000109
C26	C	0.887917	-0.150849	0.000109
C27	C	0.872202	-0.343474	0.000095
C28	C	0.933168	-0.401248	0.000100
C29	C	0.924424	-0.508431	0.000092
C30	C	0.880945	-0.236281	0.000102
C31	C	1.040574	0.120404	0.000116
C32	C	1.124707	0.122081	0.000121
C33	C	0.908860	0.300927	0.000091
C34	C	0.917456	0.406133	0.000086
N35	N	0.902668	0.127628	0.195767
N36	N	0.902710	0.127648	-0.195565
C37	C	0.949782	0.063106	0.239041
C38	C	0.949786	0.063105	0.325588
C39	C	0.902679	0.127632	0.368860
C40	C	0.855561	0.192157	0.325580
C41	C	0.855554	0.192153	0.239034
C42	C	0.855588	0.192175	0.674608
C43	C	0.855600	0.192176	0.761160
C44	C	0.949820	0.063127	0.761161
C45	C	0.949813	0.063123	0.674616
C46	C	0.902692	0.127644	0.631344
C47	C	0.902687	0.127643	0.537500
C48	C	0.902687	0.127638	0.462702
H49	H	0.535699	-0.026488	0.000116
C50	C	0.279574	0.305402	-0.000089
C51	C	0.324749	0.311367	-0.070843
C52	C	0.361119	0.398500	-0.071052
H53	H	0.310341	0.309709	0.047797
H54	H	0.242828	0.356161	-0.000136
H55	H	0.361489	0.260622	-0.070788
H56	H	0.294000	0.307077	-0.118740
H57	H	0.324374	0.449260	-0.071099
H58	H	0.391882	0.402799	-0.023163
H59	H	0.391769	0.402563	-0.119061
H60	H	0.817188	0.244692	0.203802
C61	C	0.793918	-0.385032	0.000131
C62	C	0.800701	-0.484623	0.000150
C63	C	0.728603	-0.522951	0.000199
H64	H	0.767138	-0.364276	-0.047801
H65	H	0.767192	-0.364243	0.048099
H66	H	0.827415	-0.505404	-0.047812
H67	H	0.827467	-0.505405	0.048079
H68	H	0.701877	-0.502161	0.048166
H69	H	0.701829	-0.502188	-0.047735
H70	H	0.733196	-0.590526	0.000219
H71	H	0.524117	0.286865	0.000075
C72	C	0.804563	0.262287	0.627534
C73	C	0.848786	0.320223	0.577822
C74	C	0.801809	0.384821	0.534436
H75	H	0.776503	0.300809	0.665611
H76	H	0.770765	0.228280	0.593732
H77	H	0.882571	0.354228	0.611620
H78	H	0.876846	0.281727	0.539728
H79	H	0.768010	0.350814	0.500634
H80	H	0.773750	0.423337	0.572519
H81	H	0.831806	0.424132	0.500695
H82	H	0.126251	0.278904	0.000101
H83	H	0.667523	0.289735	0.000061
C84	C	0.690816	-0.046778	-0.000036
C85	C	0.736400	-0.050901	-0.070763
C86	C	0.779232	-0.136396	-0.070899
H87	H	0.657948	-0.098986	-0.000073
H88	H	0.721831	-0.049759	0.047886
H89	H	0.705388	-0.047929	-0.118672
H90	H	0.769282	0.001288	-0.070740
H91	H	0.810247	-0.139377	-0.022977
H92	H	0.746359	-0.188597	-0.070934
H93	H	0.810171	-0.139200	-0.118882
H94	H	0.991930	-0.370212	0.000052
C95	C	1.000924	-0.007089	0.808041
C96	C	0.982379	-0.100201	0.786983
C97	C	1.029445	-0.164906	0.830142
H98	H	0.994226	0.002016	0.865794
H99	H	1.052135	0.003066	0.793835
H100	H	0.931181	-0.110353	0.801195
H101	H	0.989082	-0.109337	0.729238
H102	H	1.080656	-0.154750	0.815936
H103	H	1.022743	-0.155791	0.887893
H104	H	1.016874	-0.228089	0.815855
H105	H	0.988144	0.010565	0.203814
C106	C	1.001031	-0.006978	0.372421
C107	C	1.042305	-0.063463	0.316002
C108	C	1.089532	-0.128024	0.359114
H109	H	0.971243	-0.046486	0.406199
H110	H	1.034870	0.027055	0.406152
H111	H	1.008469	-0.097494	0.282285
H112	H	1.072108	-0.023981	0.282223
H113	H	1.123371	-0.093991	0.392845
H114	H	1.059738	-0.167525	0.392890
H115	H	1.117547	-0.166351	0.320840
C116	C	0.804365	0.262273	0.807993
C117	C	0.763080	0.318759	0.751575
C118	C	0.715870	0.383329	0.794688
H119	H	0.834167	0.301778	0.841748
H120	H	0.770533	0.228246	0.841747
H121	H	0.796908	0.352784	0.717835
H122	H	0.733263	0.279280	0.717819
H123	H	0.682038	0.349302	0.828442
H124	H	0.745678	0.422828	0.828441
H125	H	0.687847	0.421657	0.756415
C126	C	0.128119	-0.058206	0.000178
C127	C	0.182447	-0.132809	0.000210
C128	C	0.146265	-0.220073	0.000274
H129	H	0.097416	-0.062548	-0.047755
H130	H	0.097431	-0.062459	0.048145
H131	H	0.213122	-0.128559	-0.047752
H132	H	0.213153	-0.128499	0.048139
H133	H	0.115577	-0.224325	0.048241
H134	H	0.115563	-0.224405	-0.047660
H135	H	0.183121	-0.270701	0.000303
H136	H	0.281255	-0.031590	0.000127
C137	C	1.000754	-0.007146	0.627611
C138	C	0.956422	-0.065067	0.578022
C139	C	1.003286	-0.129879	0.534739
H140	H	1.028760	-0.045658	0.665750
H141	H	1.034604	0.026697	0.593735
H142	H	0.922585	-0.098908	0.611895
H143	H	0.928417	-0.026582	0.539867
H144	H	1.037137	-0.096036	0.500863
H145	H	1.031290	-0.168384	0.572884
H146	H	0.973214	-0.169181	0.501082
H147	H	0.817202	0.244692	0.360817
