data_functionalizedCrystal
_audit_creation_method	'MofGen! by Chris Wilmer'
_symmetry_space_group_name_H-M	'P1'
_symmetry_Int_Tables_number	1
_symmetry_cell_setting	triclinic
loop_
_symmetry_equiv_pos_as_xyz
  x,y,z
_cell_length_a	29.999520
_cell_length_b	29.998686
_cell_length_c	29.995014
_cell_angle_alpha	60.005185
_cell_angle_beta	60.010401
_cell_angle_gamma	59.993433
loop_
_atom_site_label
_atom_site_type_symbol
_atom_site_fract_x
_atom_site_fract_y
_atom_site_fract_z
O1	O	0.061772	-0.651300	0.544623
O2	O	0.561772	-0.151300	1.044623
O3	O	0.023267	-0.507084	0.438819
O4	O	0.523267	-0.007084	0.938819
O5	O	0.114589	-0.598332	0.438743
O6	O	0.614589	-0.098332	0.938743
O7	O	-0.029550	-0.560051	0.544699
O8	O	0.470450	-0.060051	1.044699
O9	O	0.144886	-0.568039	0.468961
O10	O	0.644886	-0.068039	0.968961
O11	O	0.053564	-0.476791	0.469038
O12	O	0.553564	0.023209	0.969038
O13	O	0.092069	-0.621007	0.574841
O14	O	0.592069	-0.121007	1.074841
Zn15	Zn	0.077627	-0.544089	0.526737
Zn16	Zn	0.577627	-0.044089	1.026737
Zn17	Zn	0.037709	-0.584002	0.486923
Zn18	Zn	0.537709	-0.084002	0.986923
O19	O	0.000748	-0.529758	0.574918
O20	O	0.500748	-0.029758	1.074918
N21	N	0.104871	-0.516854	0.553912
N22	N	0.604871	-0.016854	1.053912
N23	N	0.010470	-0.611242	0.459748
N24	N	0.510470	-0.111242	0.959748
C25	C	0.143162	-0.478782	0.827124
C26	C	0.643162	0.021218	1.327124
C27	C	0.378203	-0.478734	0.591892
C28	C	0.878203	0.021266	1.091892
C29	C	0.143005	-0.478752	0.591997
C30	C	0.643005	0.021248	1.091997
C31	C	0.142986	-0.243586	0.592008
C32	C	0.642986	0.256414	1.092008
C33	C	0.180857	-0.357087	0.629814
C34	C	0.680857	0.142913	1.129814
C35	C	0.180866	-0.440920	0.629807
C36	C	0.680866	0.059080	1.129807
C37	C	0.201840	-0.419964	0.650755
C38	C	0.701840	0.080036	1.150755
C39	C	0.293272	-0.404201	0.602606
C40	C	0.793272	0.095799	1.102606
C41	C	0.350426	-0.423248	0.583534
C42	C	0.850426	0.076752	1.083534
C43	C	0.350451	-0.515727	0.618798
C44	C	0.850451	-0.015727	1.118798
C45	C	0.293297	-0.496678	0.637872
C46	C	0.793297	0.003322	1.137872
C47	C	0.194628	-0.328499	0.573626
C48	C	0.694628	0.171501	1.073626
C49	C	0.175551	-0.271340	0.554591
C50	C	0.675551	0.228660	1.054591
C51	C	0.128936	-0.271362	0.647935
C52	C	0.628936	0.228638	1.147935
C53	C	0.148014	-0.328521	0.666970
C54	C	0.648014	0.171479	1.166970
C55	C	0.124672	-0.427119	0.643641
C56	C	0.624672	0.072881	1.143641
C57	C	0.105611	-0.446170	0.624592
C58	C	0.605611	0.053830	1.124592
C59	C	0.198934	-0.492820	0.577889
C60	C	0.698934	0.007180	1.077889
C61	C	0.217998	-0.473770	0.596931
C62	C	0.717998	0.026230	1.096931
C63	C	0.124740	-0.427136	0.742229
C64	C	0.624740	0.072864	1.242229
C65	C	0.105728	-0.446202	0.799386
C66	C	0.605728	0.053798	1.299386
C67	C	0.199085	-0.492863	0.799337
C68	C	0.699085	0.007137	1.299337
C69	C	0.218096	-0.473798	0.742178
C70	C	0.718096	0.026202	1.242178
C71	C	0.180923	-0.440933	0.713626
C72	C	0.680923	0.059067	1.213626
C73	C	0.264710	-0.440915	0.629773
C74	C	0.764710	0.059085	1.129773
C75	C	0.121509	-0.499370	0.889991
C76	C	0.621509	0.000630	1.389991
C77	C	0.441068	-0.498953	0.570621
C78	C	0.941068	0.001047	1.070621
C79	C	0.121297	-0.499349	0.571429
C80	C	0.621297	0.000651	1.071429
C81	C	0.121653	-0.180715	0.571802
C82	C	0.621653	0.319285	1.071802
C83	C	-0.111071	-0.648912	0.421584
C84	C	0.388929	-0.148912	0.921584
C85	C	-0.027286	-0.649018	0.421777
C86	C	0.472714	-0.149018	0.921777
C87	C	-0.048200	-0.669944	0.400740
C88	C	0.451800	-0.169944	0.900740
C89	C	-0.064036	-0.761340	0.448814
C90	C	0.435964	-0.261340	0.948814
C91	C	-0.045033	-0.818500	0.467893
C92	C	0.454967	-0.318500	0.967893
C93	C	0.047447	-0.818609	0.432797
C94	C	0.547447	-0.318609	0.932797
C95	C	0.028444	-0.761451	0.413717
C96	C	0.528444	-0.261451	0.913717
C97	C	-0.139731	-0.662677	0.477755
C98	C	0.360269	-0.162677	0.977755
C99	C	-0.196885	-0.643554	0.496701
C100	C	0.303115	-0.143554	0.996701
C101	C	-0.196717	-0.596907	0.403303
C102	C	0.303283	-0.096907	0.903303
C103	C	-0.139562	-0.616030	0.384357
C104	C	0.360438	-0.116030	0.884357
C105	C	-0.041053	-0.592827	0.407952
C106	C	0.458947	-0.092827	0.907952
C107	C	-0.022041	-0.573809	0.427083
C108	C	0.477959	-0.073809	0.927083
C109	C	0.024504	-0.667167	0.473848
C110	C	0.524504	-0.167167	0.973848
C111	C	0.005492	-0.686188	0.454725
C112	C	0.505492	-0.186188	0.954725
C113	C	-0.040886	-0.592836	0.309259
C114	C	0.459114	-0.092836	0.809259
C115	C	-0.021740	-0.573821	0.252102
C116	C	0.478260	-0.073821	0.752102
C117	C	0.024886	-0.667185	0.252163
C118	C	0.524886	-0.167185	0.752163
C119	C	0.005743	-0.686199	0.309322
C120	C	0.505743	-0.186199	0.809322
C121	C	-0.027145	-0.649023	0.337868
C122	C	0.472855	-0.149023	0.837868
C123	C	-0.027299	-0.732818	0.421728
C124	C	0.472701	-0.232818	0.921728
N125	N	0.492511	-0.516826	0.553742
N126	N	0.992511	-0.016826	1.053742
O127	O	0.679283	-0.525926	0.419277
O128	O	1.179283	-0.025926	0.919277
O129	O	0.679465	-0.632059	0.563349
O130	O	1.179465	-0.132059	1.063349
O131	O	0.679393	-0.631817	0.471975
O132	O	1.179393	-0.131817	0.971975
O133	O	0.679355	-0.526168	0.510650
O134	O	1.179355	-0.026168	1.010650
O135	O	0.588593	-0.601610	0.502313
O136	O	1.088593	-0.101610	1.002313
O137	O	0.588665	-0.601852	0.593686
O138	O	1.088665	-0.101852	1.093686
O139	O	0.588483	-0.495720	0.449614
O140	O	1.088483	0.004280	0.949614
Zn141	Zn	0.574158	-0.543990	0.526467
Zn142	Zn	1.074158	-0.043990	1.026467
Zn143	Zn	0.693790	-0.583788	0.486496
Zn144	Zn	1.193790	-0.083788	0.986496
O145	O	0.588555	-0.495962	0.540987
O146	O	1.088555	0.004038	1.040987
N147	N	0.775436	-0.610952	0.459215
N148	N	1.275436	-0.110952	0.959215
N149	N	0.104844	-0.129269	0.553931
N150	N	0.604844	0.370731	1.053931
O151	O	-0.029548	0.057600	0.544709
O152	O	0.470452	0.557600	1.044709
O153	O	0.114530	0.057617	0.438578
O154	O	0.614530	0.557617	0.938578
O155	O	0.023130	0.057594	0.438850
O156	O	0.523130	0.557594	0.938850
O157	O	0.061852	0.057623	0.544437
O158	O	0.561852	0.557623	1.044437
O159	O	0.053431	-0.033213	0.469115
O160	O	0.553431	0.466787	0.969115
O161	O	0.144831	-0.033190	0.468843
O162	O	0.644831	0.466810	0.968843
O163	O	0.000753	-0.033207	0.574974
O164	O	0.500753	0.466793	1.074974
Zn165	Zn	0.077603	-0.047616	0.526714
Zn166	Zn	0.577603	0.452384	1.026714
Zn167	Zn	0.037680	0.072026	0.486838
Zn168	Zn	0.537680	0.572026	0.986838
O169	O	0.092153	-0.033184	0.574702
O170	O	0.592153	0.466816	1.074702
N171	N	0.010432	0.153679	0.459622
N172	N	0.510432	0.653679	0.959622
N173	N	0.105130	-0.516904	0.941437
N174	N	0.605130	-0.016904	1.441437
O175	O	0.095923	-0.651280	1.128292
O176	O	0.595923	-0.151280	1.628292
O177	O	-0.010184	-0.507155	1.128318
O178	O	0.489816	-0.007155	1.628318
O179	O	-0.009938	-0.598539	1.128284
O180	O	0.490062	-0.098539	1.628284
O181	O	0.095677	-0.559897	1.128326
O182	O	0.595677	-0.059897	1.628326
O183	O	0.020315	-0.568257	1.037481
O184	O	0.520315	-0.068257	1.537481
O185	O	0.020068	-0.476874	1.037515
O186	O	0.520068	0.023126	1.537515
O187	O	0.126176	-0.620999	1.037489
O188	O	0.626176	-0.120999	1.537489
Zn189	Zn	0.077925	-0.544128	1.023085
Zn190	Zn	0.577925	-0.044128	1.523085
Zn191	Zn	0.038066	-0.584026	1.142722
Zn192	Zn	0.538066	-0.084026	1.642722
O193	O	0.125929	-0.529616	1.037523
O194	O	0.625929	-0.029616	1.537523
N195	N	0.010860	-0.611256	1.224371
N196	N	0.510860	-0.111256	1.724371
C197	C	0.034807	-0.473765	0.439352
C198	C	0.534807	0.026235	0.939352
C199	C	0.147897	-0.586765	0.439257
C200	C	0.647897	-0.086765	0.939257
C201	C	0.080529	-0.654326	0.574308
C202	C	0.580529	-0.154326	1.074308
C203	C	-0.032561	-0.541326	0.574403
C204	C	0.467439	-0.041326	1.074403
C205	C	0.634087	-0.631571	0.596668
C206	C	1.134087	-0.131571	1.096668
C207	C	0.633999	-0.631272	0.483513
C208	C	1.133999	-0.131272	0.983513
C209	C	0.633858	-0.496206	0.416295
C210	C	1.133858	0.003794	0.916295
C211	C	0.633949	-0.496507	0.529449
C212	C	1.133949	0.003493	1.029449
C213	C	0.147793	0.012327	0.439058
C214	C	0.647793	0.512327	0.939058
C215	C	0.034644	0.012187	0.439432
C216	C	0.534644	0.512187	0.939432
C217	C	-0.032548	0.012195	0.574457
C218	C	0.467452	0.512195	1.074457
C219	C	0.080639	0.012222	0.574120
C220	C	0.580639	0.512222	1.074120
C221	C	-0.009670	-0.473857	1.082920
C222	C	0.490330	0.026143	1.582920
C223	C	-0.009359	-0.587018	1.082860
C224	C	0.490641	-0.087018	1.582860
C225	C	0.125662	-0.654297	1.082887
C226	C	0.625662	-0.154297	1.582887
C227	C	0.125358	-0.541129	1.082927
C228	C	0.625358	-0.041129	1.582927
H229	H	0.094465	-0.400370	0.718985
H230	H	0.594465	0.099630	1.218985
O231	O	0.197080	0.012532	0.399225
O232	O	0.697080	0.512532	0.899225
C233	C	0.221425	-0.034393	0.384351
C234	C	0.721425	0.465607	0.884351
H235	H	0.203594	-0.067440	0.419355
H236	H	0.703594	0.432560	0.919355
H237	H	0.212993	-0.023713	0.346474
H238	H	0.712993	0.476287	0.846474
C239	C	0.305397	-0.014848	0.328990
C240	C	0.805397	0.485152	0.828990
C241	C	0.283500	-0.055438	0.371985
C242	C	0.783500	0.444562	0.871985
H243	H	0.343688	-0.027829	0.321360
H244	H	0.843688	0.472171	0.821360
H245	H	0.288995	0.016767	0.339010
H246	H	0.788995	0.516767	0.839010
H247	H	0.298365	-0.005952	0.297431
H248	H	0.798365	0.494048	0.797431
H249	H	0.290526	-0.064329	0.403545
H250	H	0.790526	0.435671	0.903545
H251	H	0.299905	-0.087056	0.361971
H252	H	0.799905	0.412944	0.861971
O253	O	0.197286	-0.596407	0.399541
O254	O	0.697286	-0.096407	0.899541
C255	C	0.221501	-0.558923	0.384851
C256	C	0.721501	-0.058923	0.884851
H257	H	0.188418	-0.521147	0.395847
H258	H	0.688418	-0.021147	0.895847
H259	H	0.251274	-0.578700	0.407796
H260	H	0.751274	-0.078700	0.907796
C261	C	0.293057	-0.588689	0.309449
C262	C	0.793057	-0.088689	0.809449
C263	C	0.252423	-0.542289	0.322950
C264	C	0.752423	-0.042289	0.822950
H265	H	0.312133	-0.578430	0.271266
H266	H	0.812133	-0.078430	0.771266
H267	H	0.276744	-0.613944	0.319346
H268	H	0.776744	-0.113944	0.819346
H269	H	0.317862	-0.605165	0.328574
H270	H	0.817862	-0.105165	0.828574
H271	H	0.227615	-0.525818	0.303830
H272	H	0.727615	-0.025818	0.803830
H273	H	0.268733	-0.517031	0.313048
H274	H	0.768733	-0.017031	0.813048
O275	O	0.165012	-0.531310	1.082861
O276	O	0.665012	-0.031310	1.582861
C277	C	0.211036	-0.537362	1.035823
C278	C	0.711036	-0.037362	1.535823
H279	H	0.210605	-0.564745	1.020134
H280	H	0.710605	-0.064745	1.520134
H281	H	0.209929	-0.495608	1.002900
H282	H	0.709929	0.004392	1.502900
C283	C	0.263916	-0.529757	1.069375
C284	C	0.763916	-0.029757	1.569375
C285	C	0.263389	-0.563392	1.050109
C286	C	0.763389	-0.063392	1.550109
H287	H	0.296210	-0.545811	1.078186
H288	H	0.796210	-0.045811	1.578186
H289	H	0.232908	-0.525677	1.101065
H290	H	0.732908	-0.025677	1.601065
H291	H	0.262992	-0.494963	1.041936
H292	H	0.762992	0.005037	1.541936
H293	H	0.264306	-0.598182	1.077550
H294	H	0.764306	-0.098182	1.577550
H295	H	0.294398	-0.567479	1.018424
H296	H	0.794398	-0.067479	1.518424
O297	O	-0.081927	-0.531696	0.614151
O298	O	0.418073	-0.031696	1.114151
C299	C	-0.081965	-0.578647	0.661198
C300	C	0.418035	-0.078647	1.161198
H301	H	-0.049656	-0.616119	0.649163
H302	H	0.450344	-0.116119	1.149163
H303	H	-0.072434	-0.574261	0.690861
H304	H	0.427566	-0.074261	1.190861
C305	C	-0.178207	-0.539217	0.703560
C306	C	0.321793	-0.039217	1.203560
C307	C	-0.138528	-0.585241	0.688777
C308	C	0.361472	-0.085241	1.188777
H309	H	-0.213099	-0.543284	0.720574
H310	H	0.286901	-0.043284	1.220574
H311	H	-0.178182	-0.507584	0.671865
H312	H	0.321818	-0.007584	1.171865
H313	H	-0.170258	-0.535567	0.728277
H314	H	0.329742	-0.035567	1.228277
H315	H	-0.146474	-0.588886	0.664056
H316	H	0.353526	-0.088886	1.164056
H317	H	-0.138557	-0.616875	0.720469
H318	H	0.361443	-0.116875	1.220469
O319	O	0.633961	-0.456859	0.539219
O320	O	1.133961	0.043141	1.039219
C321	C	0.633881	-0.409727	0.492354
C322	C	1.133881	0.090273	0.992354
H323	H	0.651045	-0.421639	0.454811
H324	H	1.151045	0.078361	0.954811
H325	H	0.590303	-0.380055	0.496796
H326	H	1.090303	0.119945	0.996796
C327	C	0.648393	-0.367601	0.531984
C328	C	1.148393	0.132399	1.031984
C329	C	0.669479	-0.382232	0.485873
C330	C	1.169479	0.117768	0.985873
H331	H	0.670349	-0.350639	0.527987
H332	H	1.170349	0.149361	1.027987
H333	H	0.648445	-0.399354	0.563559
H334	H	1.148445	0.100646	1.063559
H335	H	0.612078	-0.342877	0.535681
H336	H	1.112078	0.157123	1.035681
H337	H	0.705790	-0.406961	0.482181
H338	H	1.205790	0.093039	0.982181
H339	H	0.669434	-0.350483	0.454297
H340	H	1.169434	0.149517	0.954297
O341	O	0.090419	-0.703786	0.613885
O342	O	0.590419	-0.203786	1.113885
C343	C	0.144079	-0.737647	0.594081
C344	C	0.644079	-0.237647	1.094081
H345	H	0.158480	-0.722769	0.547576
H346	H	0.658480	-0.222769	1.047576
H347	H	0.172326	-0.736143	0.607894
H348	H	0.672326	-0.236143	1.107894
C349	C	0.127398	-0.815040	0.673726
C350	C	0.627398	-0.315040	1.173726
C351	C	0.145083	-0.796768	0.616608
C352	C	0.645083	-0.296768	1.116608
H353	H	0.128018	-0.851509	0.687623
H354	H	0.628018	-0.351509	1.187623
H355	H	0.091247	-0.792227	0.687070
H356	H	0.591247	-0.292227	1.187070
H357	H	0.150939	-0.813782	0.685230
H358	H	0.650939	-0.313782	1.185230
H359	H	0.121538	-0.798020	0.605105
H360	H	0.621538	-0.298020	1.105105
H361	H	0.181230	-0.819583	0.603262
H362	H	0.681230	-0.319583	1.103262
O363	O	0.633694	-0.456401	0.366978
O364	O	1.133694	0.043599	0.866978
C365	C	0.586648	-0.410415	0.374218
C366	C	1.086648	0.089585	0.874218
H367	H	0.553819	-0.423603	0.414210
H368	H	1.053819	0.076397	0.914210
H369	H	0.597262	-0.379584	0.375475
H370	H	1.097262	0.120416	0.875475
C371	C	0.605585	-0.367820	0.277286
C372	C	1.105585	0.132180	0.777286
C373	C	0.565263	-0.384018	0.326403
C374	C	1.065263	0.115982	0.826403
H375	H	0.592395	-0.351535	0.247791
H376	H	1.092395	0.148465	0.747791
H377	H	0.637282	-0.398800	0.272407
H378	H	1.137282	0.101200	0.772407
H379	H	0.614426	-0.342129	0.278341
H380	H	1.114426	0.157871	0.778341
H381	H	0.556428	-0.409713	0.325350
H382	H	1.056428	0.090287	0.825350
H383	H	0.533564	-0.353041	0.331280
H384	H	1.033564	0.146959	0.831280
H385	H	-0.073925	0.012190	0.607776
H386	H	0.426075	0.512190	1.107776
H387	H	0.059977	-0.434960	0.822668
H388	H	0.559977	0.065040	1.322668
H389	H	0.634133	-0.664888	0.638048
H390	H	1.134133	-0.164888	1.138048
O391	O	0.633991	-0.670800	0.473562
O392	O	1.133991	-0.170800	0.973562
C393	C	0.633950	-0.650914	0.419899
C394	C	1.133950	-0.150914	0.919899
H395	H	0.616719	-0.604408	0.405552
H396	H	1.116719	-0.104408	0.905552
H397	H	0.677500	-0.664696	0.391626
H398	H	1.177500	-0.164696	0.891626
C399	C	0.619515	-0.730517	0.436475
C400	C	1.119515	-0.230517	0.936475
C401	C	0.598347	-0.673397	0.418855
C402	C	1.098347	-0.173397	0.918855
H403	H	0.597556	-0.744387	0.435829
H404	H	1.097556	-0.244387	0.935829
H405	H	0.619544	-0.743916	0.472628
H406	H	1.119544	-0.243916	0.972628
H407	H	0.655806	-0.741994	0.412911
H408	H	1.155806	-0.241994	0.912911
H409	H	0.562060	-0.661920	0.442422
H410	H	1.062060	-0.161920	0.942422
H411	H	0.598311	-0.659996	0.382706
H412	H	1.098311	-0.159996	0.882706
H413	H	0.026351	0.012184	0.406260
H414	H	0.526351	0.512184	0.906260
H415	H	0.026581	-0.432337	0.406123
H416	H	0.526581	0.067663	0.906123
H417	H	0.088930	0.012231	0.607291
H418	H	0.588930	0.512231	1.107291
O419	O	-0.049363	-0.424455	1.082952
O420	O	0.450637	0.075545	1.582952
C421	C	-0.029707	-0.390477	1.082955
C422	C	0.470293	0.109523	1.582955
H423	H	0.005343	-0.416735	1.100148
H424	H	0.505343	0.083265	1.600148
H425	H	-0.014554	-0.362903	1.039397
H426	H	0.485446	0.137097	1.539397
C427	C	-0.119102	-0.322892	1.097456
C428	C	0.380898	0.177108	1.597456
C429	C	-0.076055	-0.355142	1.118577
C430	C	0.423945	0.144858	1.618577
H431	H	-0.147692	-0.301093	1.119427
H432	H	0.352308	0.198907	1.619427
H433	H	-0.132344	-0.345782	1.097452
H434	H	0.367656	0.154218	1.597452
H435	H	-0.106467	-0.299918	1.061158
H436	H	0.393533	0.200082	1.561158
H437	H	-0.088689	-0.378120	1.154872
H438	H	0.411311	0.121880	1.654872
H439	H	-0.062816	-0.332255	1.118588
H440	H	0.437184	0.167745	1.618588
H441	H	-0.042525	-0.595273	1.082811
H442	H	0.457475	-0.095273	1.582811
O443	O	0.165425	-0.703679	1.082951
O444	O	0.665425	-0.203679	1.582951
C445	C	0.180077	-0.727860	1.129990
C446	C	0.680077	-0.227860	1.629990
H447	H	0.169011	-0.694753	1.145683
H448	H	0.669011	-0.194753	1.645683
H449	H	0.157165	-0.757650	1.162909
H450	H	0.657165	-0.257650	1.662909
C451	C	0.255573	-0.799414	1.096430
C452	C	0.755573	-0.299414	1.596430
C453	C	0.241986	-0.758752	1.115702
C454	C	0.741986	-0.258752	1.615702
H455	H	0.293760	-0.818472	1.087619
H456	H	0.793760	-0.318472	1.587619
H457	H	0.245700	-0.783125	1.064740
H458	H	0.745700	-0.283125	1.564740
H459	H	0.236475	-0.824234	1.123866
H460	H	0.736475	-0.324234	1.623866
H461	H	0.261078	-0.733929	1.088264
H462	H	0.761078	-0.233929	1.588264
H463	H	0.251863	-0.775038	1.147388
H464	H	0.751863	-0.275038	1.647388
H465	H	0.263847	-0.485039	0.718893
H466	H	0.763847	0.014961	1.218893
O467	O	0.235219	-0.524856	0.827044
O468	O	0.735219	-0.024856	1.327044
C469	C	0.268279	-0.572781	0.813047
C470	C	0.768279	-0.072781	1.313047
H471	H	0.246198	-0.580735	0.797351
H472	H	0.746198	-0.080735	1.297351
H473	H	0.308416	-0.567574	0.779852
H474	H	0.808416	-0.067574	1.279852
C475	C	0.307124	-0.611654	0.883080
C476	C	0.807124	-0.111654	1.383080
C477	C	0.280001	-0.621425	0.863806
C478	C	0.780001	-0.121425	1.363806
H479	H	0.314357	-0.641659	0.914389
H480	H	0.814357	-0.141659	1.414389
H481	H	0.284852	-0.579365	0.892508
H482	H	0.784852	-0.079365	1.392508
H483	H	0.340568	-0.607314	0.855412
H484	H	0.840568	-0.107314	1.355412
H485	H	0.246554	-0.625758	0.891470
H486	H	0.746554	-0.125758	1.391470
H487	H	0.302267	-0.653716	0.854383
H488	H	0.802267	-0.153716	1.354383
O489	O	0.088529	-0.395193	0.675549
O490	O	0.588529	0.104807	1.175549
C491	C	0.034843	-0.387107	0.683680
C492	C	0.534843	0.112893	1.183680
H493	H	0.034923	-0.393485	0.649223
H494	H	0.534923	0.106515	1.149223
H495	H	0.018494	-0.417537	0.724395
H496	H	0.518494	0.082463	1.224395
C497	C	-0.001922	-0.320720	0.726428
C498	C	0.498078	0.179280	1.226428
C499	C	-0.001824	-0.328549	0.684104
C500	C	0.498176	0.171451	1.184104
H501	H	-0.024541	-0.284600	0.726692
H502	H	0.475459	0.215400	1.226692
H503	H	0.034247	-0.326169	0.720952
H504	H	0.534247	0.173831	1.220952
H505	H	-0.015545	-0.346082	0.760353
H506	H	0.484455	0.153918	1.260353
H507	H	0.011805	-0.303192	0.650180
H508	H	0.511805	0.196808	1.150180
H509	H	-0.037992	-0.323095	0.689575
H510	H	0.462008	0.176905	1.189575
H511	H	-0.032937	-0.528066	0.228816
H512	H	0.467063	-0.028066	0.728816
O513	O	0.051036	-0.432865	0.638049
O514	O	0.551036	0.067135	1.138049
C515	C	0.037251	-0.480898	0.666827
C516	C	0.537251	0.019102	1.166827
H517	H	0.074922	-0.516805	0.656496
H518	H	0.574922	-0.016805	1.156496
H519	H	0.021588	-0.488940	0.712574
H520	H	0.521588	0.011060	1.212574
C521	C	-0.053808	-0.429896	0.663110
C522	C	0.446192	0.070104	1.163110
C523	C	-0.007540	-0.473997	0.650418
C524	C	0.492460	0.026003	1.150418
H525	H	-0.081439	-0.425639	0.652990
H526	H	0.418561	0.074361	1.152990
H527	H	-0.044521	-0.397535	0.643723
H528	H	0.455479	0.102465	1.143723
H529	H	-0.066853	-0.436603	0.701232
H530	H	0.433147	0.063397	1.201232
H531	H	0.005508	-0.467286	0.612295
H532	H	0.505508	0.032714	1.112295
H533	H	-0.016826	-0.506356	0.669797
H534	H	0.483174	-0.006356	1.169797
H535	H	0.263756	-0.485001	0.585661
H536	H	0.763756	0.014999	1.085661
O537	O	0.235079	-0.524709	0.545943
O538	O	0.735079	-0.024709	1.045943
C539	C	0.288763	-0.532815	0.537836
C540	C	0.788763	-0.032815	1.037836
H541	H	0.288660	-0.498356	0.544225
H542	H	0.788660	0.001644	1.044225
H543	H	0.305163	-0.573536	0.568245
H544	H	0.805163	-0.073536	1.068245
C545	C	0.325517	-0.575531	0.471425
C546	C	0.825517	-0.075531	0.971425
C547	C	0.325391	-0.533206	0.479268
C548	C	0.825391	-0.033206	0.979268
H549	H	0.348112	-0.575775	0.435299
H550	H	0.848112	-0.075775	0.935299
H551	H	0.289349	-0.570072	0.476888
H552	H	0.789349	-0.070072	0.976888
H553	H	0.339182	-0.609461	0.496769
H554	H	0.839182	-0.109461	0.996769
H555	H	0.311720	-0.499277	0.453929
H556	H	0.811720	0.000723	0.953929
H557	H	0.361558	-0.538659	0.473799
H558	H	0.861558	-0.038659	0.973799
H559	H	0.270043	-0.526578	0.659994
H560	H	0.770043	-0.026578	1.159994
H561	H	0.373680	-0.393351	0.561411
H562	H	0.873680	0.106649	1.061411
O563	O	0.378166	-0.569899	0.626626
O564	O	0.878166	-0.069899	1.126626
C565	C	0.364194	-0.587350	0.600954
C566	C	0.864194	-0.087350	1.100954
H567	H	0.322681	-0.558367	0.596109
H568	H	0.822681	-0.058367	1.096109
H569	H	0.396339	-0.587439	0.559033
H570	H	0.896339	-0.087439	1.059033
C571	C	0.412569	-0.681038	0.642039
C572	C	0.912569	-0.181038	1.142039
C573	C	0.361581	-0.645444	0.636092
C574	C	0.861581	-0.145444	1.136092
H575	H	0.410960	-0.716874	0.663712
H576	H	0.910960	-0.216874	1.163712
H577	H	0.421985	-0.669282	0.659334
H578	H	0.921985	-0.169282	1.159334
H579	H	0.439351	-0.681107	0.607102
H580	H	0.939351	-0.181107	1.107102
H581	H	0.334801	-0.645371	0.671028
H582	H	0.834801	-0.145371	1.171028
H583	H	0.352160	-0.657202	0.618804
H584	H	0.852160	-0.157202	1.118804
O585	O	0.265564	-0.350011	0.594644
O586	O	0.765564	0.149989	1.094644
C587	C	0.279486	-0.320519	0.538211
C588	C	0.779486	0.179481	1.038211
H589	H	0.320978	-0.345492	0.515693
H590	H	0.820978	0.154508	1.015693
H591	H	0.247302	-0.311992	0.522649
H592	H	0.747302	0.188008	1.022649
C593	C	0.231160	-0.235416	0.555664
C594	C	0.731160	0.264584	1.055664
C595	C	0.282123	-0.266086	0.528007
C596	C	0.782123	0.233914	1.028007
H597	H	0.232784	-0.201838	0.549369
H598	H	0.732784	0.298162	1.049369
H599	H	0.221778	-0.255285	0.593684
H600	H	0.721778	0.244715	1.093684
H601	H	0.204345	-0.228316	0.542692
H602	H	0.704345	0.271684	1.042692
H603	H	0.308936	-0.273191	0.540984
H604	H	0.808936	0.226809	1.040984
H605	H	0.291510	-0.246217	0.489989
H606	H	0.791510	0.253783	0.989989
O607	O	0.226503	-0.356166	0.537461
O608	O	0.726503	0.143834	1.037461
C609	C	0.234571	-0.318674	0.483784
C610	C	0.734571	0.181326	0.983784
H611	H	0.200103	-0.277934	0.483905
H612	H	0.700103	0.222066	0.983905
H613	H	0.275283	-0.312588	0.467388
H614	H	0.775283	0.187412	0.967388
C615	C	0.277282	-0.391013	0.446986
C616	C	0.777282	0.108987	0.946986
C617	C	0.234946	-0.340976	0.447134
C618	C	0.734946	0.159024	0.947134
H619	H	0.277516	-0.404770	0.424378
H620	H	0.777516	0.095230	0.924378
H621	H	0.271849	-0.416272	0.483149
H622	H	0.771849	0.083728	0.983149
H623	H	0.311205	-0.385934	0.433324
H624	H	0.811205	0.114066	0.933324
H625	H	0.201024	-0.346057	0.460803
H626	H	0.701024	0.153943	0.960803
H627	H	0.240374	-0.315718	0.410973
H628	H	0.740374	0.184282	0.910973
H629	H	0.186762	-0.248063	0.508836
H630	H	0.686762	0.251937	1.008836
H631	H	0.136793	-0.351798	0.712725
H632	H	0.636793	0.148202	1.212725
O633	O	0.097024	-0.243692	0.684101
O634	O	0.597024	0.256308	1.184101
C635	C	0.088982	-0.281182	0.737778
C636	C	0.588982	0.218818	1.237778
H637	H	0.095372	-0.321928	0.737676
H638	H	0.595372	0.178072	1.237676
H639	H	0.119423	-0.287256	0.754129
H640	H	0.619423	0.212744	1.254129
C641	C	0.022593	-0.208845	0.774588
C642	C	0.522593	0.291155	1.274588
C643	C	0.030437	-0.258888	0.774463
C644	C	0.530437	0.241112	1.274463
H645	H	-0.013519	-0.195093	0.797218
H646	H	0.486481	0.304907	1.297218
H647	H	0.028012	-0.183587	0.738425
H648	H	0.528012	0.316413	1.238425
H649	H	0.047965	-0.213914	0.788212
H650	H	0.547965	0.286086	1.288212
H651	H	0.005071	-0.253818	0.760833
H652	H	0.505071	0.246182	1.260833
H653	H	0.025012	-0.284145	0.810625
H654	H	0.525012	0.215855	1.310625
H655	H	0.051655	-0.697459	0.228927
H656	H	0.551655	-0.197459	0.728927
O657	O	-0.072798	-0.556647	0.336904
O658	O	0.427202	-0.056647	0.836904
C659	C	-0.080830	-0.502976	0.299397
C660	C	0.419170	-0.002976	0.799397
H661	H	-0.046327	-0.503127	0.258692
H662	H	0.453673	-0.003127	0.758692
H663	H	-0.121517	-0.486550	0.293235
H664	H	0.378483	0.013450	0.793235
C665	C	-0.123626	-0.466150	0.371729
C666	C	0.376374	0.033850	0.871729
C667	C	-0.081247	-0.466335	0.321736
C668	C	0.418753	0.033665	0.821736
H669	H	-0.123886	-0.443547	0.385509
H670	H	0.376114	0.056453	0.885509
H671	H	-0.118217	-0.502309	0.396999
H672	H	0.381783	-0.002309	0.896999
H673	H	-0.157528	-0.452463	0.366588
H674	H	0.342472	0.047537	0.866588
H675	H	-0.047346	-0.480028	0.326879
H676	H	0.452654	0.019972	0.826879
H677	H	-0.086650	-0.430177	0.296467
H678	H	0.413350	0.069823	0.796467
H679	H	0.016937	-0.731954	0.332612
H680	H	0.516937	-0.231954	0.832612
O681	O	-0.035475	-0.519230	0.413744
O682	O	0.464525	-0.019230	0.913744
C683	C	-0.064304	-0.505374	0.461748
C684	C	0.435696	-0.005374	0.961748
H685	H	-0.083701	-0.537556	0.496059
H686	H	0.416299	-0.037556	0.996059
H687	H	-0.034952	-0.503507	0.473855
H688	H	0.465048	-0.003507	0.973855
C689	C	-0.085420	-0.409763	0.409339
C690	C	0.414580	0.090237	0.909339
C691	C	-0.109247	-0.449287	0.451479
C692	C	0.390753	0.050713	0.951479
H693	H	-0.113142	-0.375165	0.403005
H694	H	0.386858	0.124835	0.903005
H695	H	-0.065996	-0.419098	0.376998
H696	H	0.434004	0.080902	0.876998
H697	H	-0.060961	-0.408214	0.419434
H698	H	0.439039	0.091786	0.919434
H699	H	-0.133700	-0.450840	0.441381
H700	H	0.366300	0.049160	0.941381
H701	H	-0.128677	-0.439951	0.483819
H702	H	0.371323	0.060049	0.983819
H703	H	-0.067739	-0.562558	0.381123
H704	H	0.432261	-0.062558	0.881123
O705	O	0.056403	-0.703329	0.505786
O706	O	0.556403	-0.203329	1.005786
C707	C	0.104363	-0.736414	0.476985
C708	C	0.604363	-0.236414	0.976985
H709	H	0.096757	-0.736964	0.443663
H710	H	0.596757	-0.236964	0.943663
H711	H	0.138756	-0.719274	0.457658
H712	H	0.638756	-0.219274	0.957658
C713	C	0.129909	-0.794288	0.557568
C714	C	0.629909	-0.294288	1.057568
C715	C	0.120566	-0.794968	0.516645
C716	C	0.620566	-0.294968	1.016645
H717	H	0.139906	-0.830407	0.582032
H718	H	0.639906	-0.330407	1.082032
H719	H	0.097599	-0.771998	0.576972
H720	H	0.597599	-0.271998	1.076972
H721	H	0.158569	-0.780002	0.541456
H722	H	0.658569	-0.280002	1.041456
H723	H	0.091902	-0.809247	0.532756
H724	H	0.591902	-0.309247	1.032756
H725	H	0.152872	-0.817262	0.497244
H726	H	0.652872	-0.317262	0.997244
H727	H	0.058362	-0.738230	0.391661
H728	H	0.558362	-0.238230	0.891661
O729	O	0.101617	-0.846342	0.424951
O730	O	0.601617	-0.346342	0.924951
C731	C	0.129968	-0.808911	0.396963
C732	C	0.629968	-0.308911	0.896963
H733	H	0.105088	-0.768152	0.373493
H734	H	0.605088	-0.268152	0.873493
H735	H	0.136535	-0.802843	0.427587
H736	H	0.636535	-0.302843	0.927587
C737	C	0.216230	-0.881340	0.385553
C738	C	0.716230	-0.381340	0.885553
C739	C	0.185675	-0.831280	0.356723
C740	C	0.685675	-0.331280	0.856723
H741	H	0.250594	-0.895138	0.360733
H742	H	0.750594	-0.395138	0.860733
H743	H	0.197130	-0.906559	0.404411
H744	H	0.697130	-0.406559	0.904411
H745	H	0.221697	-0.876277	0.411072
H746	H	0.721697	-0.376277	0.911072
H747	H	0.180202	-0.836345	0.331210
H748	H	0.680202	-0.336345	0.831210
H749	H	0.204775	-0.806062	0.337860
H750	H	0.704775	-0.306062	0.837860
O751	O	-0.080805	-0.846122	0.494279
O752	O	0.419195	-0.346122	0.994279
C753	C	-0.134083	-0.808593	0.497282
C754	C	0.365917	-0.308593	0.997282
H755	H	-0.136266	-0.767844	0.493477
H756	H	0.363734	-0.267844	0.993477
H757	H	-0.144752	-0.802549	0.462661
H758	H	0.355248	-0.302549	0.962661
C759	C	-0.172239	-0.880858	0.557142
C760	C	0.327761	-0.380858	1.057142
C761	C	-0.174921	-0.830810	0.552473
C762	C	0.325079	-0.330810	1.052473
H763	H	-0.197431	-0.894562	0.591185
H764	H	0.302569	-0.394562	1.091185
H765	H	-0.136344	-0.906142	0.555117
H766	H	0.363656	-0.406142	1.055117
H767	H	-0.181129	-0.875814	0.528288
H768	H	0.318871	-0.375814	1.028288
H769	H	-0.166025	-0.835855	0.581323
H770	H	0.333975	-0.335855	1.081323
H771	H	-0.210816	-0.805526	0.554504
H772	H	0.289184	-0.305526	1.054504
H773	H	-0.109425	-0.738032	0.455342
H774	H	0.390575	-0.238032	0.955342
O775	O	-0.112112	-0.694672	0.513966
O776	O	0.387888	-0.194672	1.013966
C777	C	-0.126127	-0.742578	0.546980
C778	C	0.373873	-0.242578	1.046980
H779	H	-0.167605	-0.734861	0.547455
H780	H	0.332395	-0.234861	1.047455
H781	H	-0.093955	-0.776985	0.529829
H782	H	0.406045	-0.276985	1.029829
C783	C	-0.077924	-0.768329	0.604986
C784	C	0.422076	-0.268329	1.104986
C785	C	-0.128870	-0.758850	0.605573
C786	C	0.371130	-0.258850	1.105573
H787	H	-0.079613	-0.778369	0.641128
H788	H	0.420387	-0.278369	1.141128
H789	H	-0.068480	-0.736055	0.582743
H790	H	0.431520	-0.236055	1.082743
H791	H	-0.051119	-0.797000	0.590691
H792	H	0.448881	-0.297000	1.090691
H793	H	-0.155672	-0.730175	0.619861
H794	H	0.344328	-0.230175	1.119861
H795	H	-0.138318	-0.791120	0.627820
H796	H	0.361682	-0.291120	1.127820
O797	O	-0.224751	-0.656832	0.551264
O798	O	0.275249	-0.156832	1.051264
C799	C	-0.257821	-0.608787	0.565043
C800	C	0.242179	-0.108787	1.065043
H801	H	-0.240547	-0.574483	0.532850
H802	H	0.259453	-0.074483	1.032850
H803	H	-0.301116	-0.596710	0.566853
H804	H	0.198884	-0.096710	1.066853
C805	C	-0.280013	-0.661089	0.660677
C806	C	0.219987	-0.161089	1.160677
C807	C	-0.258793	-0.618958	0.621140
C808	C	0.241207	-0.118958	1.121140
H809	H	-0.280615	-0.667363	0.695281
H810	H	0.219385	-0.167363	1.195281
H811	H	-0.257734	-0.693459	0.651395
H812	H	0.242266	-0.193459	1.151395
H813	H	-0.316090	-0.651020	0.662178
H814	H	0.183910	-0.151020	1.162178
H815	H	-0.222715	-0.629031	0.619634
H816	H	0.277285	-0.129031	1.119634
H817	H	-0.281066	-0.586590	0.630423
H818	H	0.218934	-0.086590	1.130423
H819	H	0.016700	-0.731943	0.465981
H820	H	0.516700	-0.231943	0.965981
O821	O	-0.224339	-0.565033	0.367093
O822	O	0.275661	-0.065033	0.867093
C823	C	-0.210349	-0.593911	0.334049
C824	C	0.289651	-0.093911	0.834049
H825	H	-0.168877	-0.627222	0.333560
H826	H	0.331123	-0.127222	0.833560
H827	H	-0.242536	-0.613260	0.351181
H828	H	0.257464	-0.113260	0.851181
C829	C	-0.258543	-0.513404	0.276070
C830	C	0.241457	-0.013404	0.776070
C831	C	-0.207605	-0.554315	0.275467
C832	C	0.292395	-0.054315	0.775467
H833	H	-0.256853	-0.488980	0.239934
H834	H	0.243147	0.011020	0.739934
H835	H	-0.267971	-0.493949	0.298333
H836	H	0.232029	0.006051	0.798333
H837	H	-0.285360	-0.529535	0.290350
H838	H	0.214640	-0.029535	0.790350
H839	H	-0.180791	-0.538184	0.261194
H840	H	0.319209	-0.038184	0.761194
H841	H	-0.198173	-0.573766	0.253199
H842	H	0.301827	-0.073766	0.753199
H843	H	-0.116227	-0.604815	0.338615
H844	H	0.383773	-0.104815	0.838615
