data_functionalizedCrystal
_audit_creation_method	'MofGen! by Chris Wilmer'
_symmetry_space_group_name_H-M	'P1'
_symmetry_Int_Tables_number	1
_symmetry_cell_setting	triclinic
loop_
_symmetry_equiv_pos_as_xyz
  x,y,z
_cell_length_a	13.930277
_cell_length_b	14.853567
_cell_length_c	14.853567
_cell_angle_alpha	83.634930
_cell_angle_beta	90.000757
_cell_angle_gamma	90.004245
loop_
_atom_site_label
_atom_site_type_symbol
_atom_site_fract_x
_atom_site_fract_y
_atom_site_fract_z
O1	O	-0.079756	-1.196368	-0.117704
O2	O	0.420244	-0.696368	0.382296
O3	O	-0.079772	-0.933909	-0.131725
O4	O	0.420228	-0.433909	0.368275
O5	O	-0.079767	-1.072149	0.006516
O6	O	0.420233	-0.572149	0.506516
O7	O	-0.079762	-1.058128	-0.255944
O8	O	0.420238	-0.558128	0.244056
O9	O	0.079895	-1.072130	0.006519
O10	O	0.579895	-0.572130	0.506519
O11	O	0.079890	-0.933890	-0.131722
O12	O	0.579890	-0.433890	0.368278
O13	O	0.079905	-1.196349	-0.117701
O14	O	0.579905	-0.696349	0.382299
Zn15	Zn	0.105247	-1.065116	-0.124711
Zn16	Zn	0.605247	-0.565116	0.375289
Zn17	Zn	-0.105114	-1.065142	-0.124715
Zn18	Zn	0.394886	-0.565142	0.375285
O19	O	0.079900	-1.058109	-0.255941
O20	O	0.579900	-0.558109	0.244059
C21	C	0.000057	-0.900311	-0.131088
C22	C	0.500057	-0.400311	0.368912
C23	C	0.000051	-0.800227	-0.129184
C24	C	0.500051	-0.300227	0.370816
N25	N	0.248814	-1.065106	-0.124708
N26	N	0.748814	-0.565106	0.375292
N27	N	-0.248680	-1.065160	-0.124711
N28	N	0.251320	-0.565160	0.375289
C29	C	0.701081	-1.003926	-0.185904
C30	C	1.201081	-0.503926	0.314096
C31	C	0.701055	-1.126382	-0.063519
C32	C	1.201055	-0.626382	0.436481
C33	C	0.600559	-1.126371	-0.063516
C34	C	1.100559	-0.626371	0.436484
C35	C	0.550319	-1.065138	-0.124709
C36	C	1.050319	-0.565138	0.375291
C37	C	0.600576	-1.003916	-0.185904
C38	C	1.100576	-0.503916	0.314096
C39	C	0.550295	-1.187598	-0.002328
C40	C	1.050295	-0.687598	0.497672
C41	C	0.449793	-1.187591	-0.002323
C42	C	0.949793	-0.687591	0.497677
C43	C	0.399552	-1.126353	-0.063512
C44	C	0.899552	-0.626353	0.436488
C45	C	0.449814	-1.065127	-0.124710
C46	C	0.949814	-0.565127	0.375290
C47	C	0.399575	-1.003894	-0.185902
C48	C	0.899575	-0.503894	0.314098
C49	C	0.449835	-0.942664	-0.247096
C50	C	0.949835	-0.442664	0.252904
C51	C	0.550334	-0.942677	-0.247094
C52	C	1.050334	-0.442677	0.252906
C53	C	0.299053	-1.126339	-0.063515
C54	C	0.799053	-0.626339	0.436485
C55	C	0.299070	-1.003883	-0.185903
C56	C	0.799070	-0.503883	0.314097
C57	C	0.000061	-1.071504	0.040106
C58	C	0.500061	-0.571504	0.540106
C59	C	0.000053	-1.069601	0.140189
C60	C	0.500053	-0.569601	0.640189
C61	C	0.000075	-1.229947	-0.118337
C62	C	0.500075	-0.729947	0.381663
C63	C	0.000075	-1.330031	-0.120241
C64	C	0.500075	-0.830031	0.379759
C65	C	0.000070	-0.387693	-0.039019
C66	C	0.500070	0.112307	0.460981
C67	C	0.000073	-0.366412	-0.203251
C68	C	0.500073	0.133588	0.296749
C69	C	0.000070	-0.460446	-0.205042
C70	C	0.500070	0.039554	0.294958
C71	C	0.000066	-0.518108	-0.123819
C72	C	0.500066	-0.018108	0.376181
C73	C	0.000065	-0.481736	-0.040806
C74	C	0.500065	0.018264	0.459194
C75	C	0.000061	-0.496825	-0.288053
C76	C	0.500061	0.003175	0.211947
C77	C	0.000057	-0.590864	-0.289846
C78	C	0.500057	-0.090864	0.210154
C79	C	0.000060	-0.648528	-0.208623
C80	C	0.500060	-0.148528	0.291377
C81	C	0.000060	-0.612150	-0.125607
C82	C	0.500060	-0.112150	0.374393
C83	C	0.000056	-0.669812	-0.044384
C84	C	0.500056	-0.169812	0.455616
C85	C	0.000063	-0.633437	0.038633
C86	C	0.500063	-0.133437	0.538633
C87	C	0.000067	-0.539399	0.040417
C88	C	0.500067	-0.039399	0.540417
C89	C	0.000055	-0.742565	-0.210407
C90	C	0.500055	-0.242565	0.289593
C91	C	0.000050	-0.763855	-0.046172
C92	C	0.500050	-0.263855	0.453828
C93	C	0.000070	-1.058754	-0.289531
C94	C	0.500070	-0.558754	0.210469
C95	C	0.000072	-1.060657	-0.389615
C96	C	0.500072	-0.560657	0.110385
C97	C	0.000066	-0.979435	0.552723
C98	C	0.500066	-0.479435	1.052723
C99	C	0.000076	-1.143668	0.574004
C100	C	0.500076	-0.643668	1.074004
C101	C	0.000070	-1.145458	0.479971
C102	C	0.500070	-0.645458	0.979971
C103	C	0.000064	-1.064235	0.422309
C104	C	0.500064	-0.564235	0.922309
C105	C	0.000063	-0.981223	0.458680
C106	C	0.500063	-0.481223	0.958680
C107	C	0.000080	-1.228469	0.443591
C108	C	0.500080	-0.728469	0.943591
C109	C	0.000076	-1.230262	0.349552
C110	C	0.500076	-0.730262	0.849552
C111	C	0.000063	-1.149039	0.291889
C112	C	0.500063	-0.649039	0.791889
C113	C	0.000061	-1.066023	0.328266
C114	C	0.500061	-0.566023	0.828266
C115	C	0.000055	-0.984800	0.270604
C116	C	0.500055	-0.484800	0.770604
C117	C	0.000047	-0.901783	0.306979
C118	C	0.500047	-0.401783	0.806979
C119	C	0.000050	-0.899999	0.401017
C120	C	0.500050	-0.399999	0.901017
C121	C	0.000059	-1.150823	0.197851
C122	C	0.500059	-0.650823	0.697851
C123	C	0.000052	-0.986588	0.176561
C124	C	0.500052	-0.486588	0.676561
H125	H	0.258171	-0.954016	-0.235731
H126	H	0.758171	-0.454016	0.264269
H127	H	0.000054	-0.449870	-0.354180
H128	H	0.500054	0.050130	0.145820
H129	H	0.591203	-1.237457	0.047489
H130	H	1.091203	-0.737457	0.547489
H131	H	0.408877	-1.237447	0.047505
H132	H	0.908877	-0.737447	0.547505
H133	H	0.408919	-0.892811	-0.296924
H134	H	0.908919	-0.392811	0.203076
H135	H	0.591263	-0.892827	-0.296916
H136	H	1.091263	-0.392827	0.203084
H137	H	0.000053	-0.680397	0.104764
H138	H	0.500053	-0.180397	0.604764
C139	C	0.000041	-0.897244	0.113136
C140	C	0.500041	-0.397244	0.613136
H141	H	0.000035	-0.910195	0.051920
H142	H	0.500035	-0.410195	0.551920
H143	H	0.055713	-0.863198	0.124174
H144	H	0.555713	-0.363198	0.624174
H145	H	-0.055649	-0.863224	0.124176
H146	H	0.444351	-0.363224	0.624176
C147	C	0.243771	-1.193683	0.003789
C148	C	0.743771	-0.693683	0.503789
H149	H	0.288085	-1.230151	0.040235
H150	H	0.788085	-0.730151	0.540235
H151	H	0.204553	-1.231240	-0.028712
H152	H	0.704553	-0.731240	0.471288
H153	H	0.204578	-1.161200	0.041385
H154	H	0.704578	-0.661200	0.541385
C155	C	0.000085	-1.233005	0.637428
C156	C	0.500085	-0.733005	1.137428
H157	H	0.000082	-1.220051	0.698643
H158	H	0.500082	-0.720051	1.198643
H159	H	0.055761	-1.267034	0.626387
H160	H	0.555761	-0.767034	1.126387
H161	H	-0.055601	-1.267041	0.626395
H162	H	0.444399	-0.767041	1.126395
H163	H	0.000080	-0.358072	0.028572
H164	H	0.500080	0.141928	0.528572
H165	H	0.000096	-0.509774	0.108005
H166	H	0.500096	-0.009774	0.608005
C167	C	0.000038	-0.812444	0.243546
C168	C	0.500038	-0.312444	0.743546
H169	H	0.000035	-0.825404	0.182333
H170	H	0.500035	-0.325404	0.682333
H171	H	0.055710	-0.778398	0.254581
H172	H	0.555710	-0.278398	0.754581
H173	H	-0.055652	-0.778421	0.254579
H174	H	0.444348	-0.278421	0.754579
H175	H	0.000094	-1.294596	0.490546
H176	H	0.500094	-0.794596	0.990546
C177	C	0.000055	-0.808691	0.441032
C178	C	0.500055	-0.308691	0.941032
H179	H	0.000070	-0.819262	0.505295
H180	H	0.500070	-0.319262	1.005295
H181	H	-0.055623	-0.775244	0.421256
H182	H	0.444377	-0.275244	0.921256
H183	H	0.055739	-0.775244	0.421244
H184	H	0.555739	-0.275244	0.921244
C185	C	0.000067	-0.302992	-0.292591
C186	C	0.500067	0.197008	0.207409
H187	H	0.000059	-0.338124	-0.342285
H188	H	0.500059	0.161876	0.157715
H189	H	0.055742	-0.265857	-0.295309
H190	H	0.555742	0.234143	0.204691
H191	H	-0.055621	-0.265874	-0.295302
H192	H	0.444379	0.234126	0.204698
H193	H	0.000050	-0.810798	0.019971
H194	H	0.500050	-0.310798	0.519971
H195	H	0.000082	-1.297860	0.319944
H196	H	0.500082	-0.797860	0.819944
H197	H	0.000051	-0.620472	-0.357443
H198	H	0.500051	-0.120472	0.142557
C199	C	0.000044	-0.782576	-0.301713
C200	C	0.500044	-0.282576	0.198287
H201	H	0.000048	-0.734766	-0.349830
H202	H	0.500048	-0.234766	0.150170
H203	H	-0.055635	-0.818821	-0.305820
H204	H	0.444365	-0.318821	0.194180
H205	H	0.055728	-0.818813	-0.305828
H206	H	0.555728	-0.318813	0.194172
C207	C	0.000061	-0.888123	0.592731
C208	C	0.500061	-0.388123	1.092731
H209	H	0.000068	-0.898687	0.656995
H210	H	0.500068	-0.398687	1.156995
H211	H	-0.055617	-0.854681	0.572944
H212	H	0.444383	-0.354681	1.072944
H213	H	0.055745	-0.854674	0.572946
H214	H	0.555745	-0.354674	1.072946
C215	C	0.000071	-1.242129	0.157841
C216	C	0.500071	-0.742129	0.657841
H217	H	0.000074	-1.290246	0.205650
H218	H	0.500074	-0.790246	0.705650
H219	H	0.055746	-1.246230	0.121594
H220	H	0.555746	-0.746230	0.621594
H221	H	-0.055616	-1.246251	0.121605
H222	H	0.444384	-0.746251	0.621605
H223	H	0.741963	-1.176240	-0.013702
H224	H	1.241963	-0.676240	0.486298
C225	C	0.756361	-0.936581	-0.253214
C226	C	1.256361	-0.436581	0.246786
H227	H	0.823410	-0.945356	-0.244456
H228	H	1.323410	-0.445356	0.255544
H229	H	0.739898	-0.876403	-0.243315
H230	H	1.239898	-0.376403	0.256685
H231	H	0.739887	-0.946450	-0.313404
H232	H	1.239887	-0.446450	0.186596
