data_functionalizedCrystal
_audit_creation_method	'MofGen! by Chris Wilmer'
_symmetry_space_group_name_H-M	'P1'
_symmetry_Int_Tables_number	1
_symmetry_cell_setting	triclinic
loop_
_symmetry_equiv_pos_as_xyz
  x,y,z
_cell_length_a	19.288866
_cell_length_b	19.288865
_cell_length_c	17.766277
_cell_angle_alpha	89.988397
_cell_angle_beta	90.007831
_cell_angle_gamma	96.863554
loop_
_atom_site_label
_atom_site_type_symbol
_atom_site_fract_x
_atom_site_fract_y
_atom_site_fract_z
O1	O	-0.921353	0.086652	-0.062576
O2	O	-0.719092	0.098340	-0.062584
O3	O	-0.826067	-0.008634	-0.062565
O4	O	-0.814378	0.193626	-0.062595
O5	O	-0.826048	-0.008640	0.062624
O6	O	-0.719073	0.098335	0.062604
O7	O	-0.921334	0.086647	0.062613
Cu8	Cu	-0.820202	0.092490	0.074039
Cu9	Cu	-0.820224	0.092496	-0.074011
O10	O	-0.814359	0.193621	0.062593
C11	C	-0.693206	0.097961	0.000009
C12	C	-0.616103	0.096832	0.000006
C13	C	-0.060547	0.088701	-0.068224
C14	C	-0.132995	0.089757	-0.068227
C15	C	-0.169213	0.090286	0.000013
C16	C	-0.132980	0.089740	0.068261
C17	C	-0.060535	0.088676	0.068262
C18	C	-0.278533	0.132651	0.052287
C19	C	-0.350976	0.133719	0.052283
C20	C	-0.392659	0.093565	0.000013
C21	C	-0.361888	0.052350	-0.052267
C22	C	-0.289443	0.051286	-0.052266
C23	C	-0.247768	0.091439	0.000019
C24	C	-0.507440	0.095252	-0.068234
C25	C	-0.579889	0.096304	-0.068234
C26	C	-0.579872	0.096294	0.068256
C27	C	-0.507425	0.095234	0.068254
C28	C	-0.471213	0.094717	0.000007
C29	C	-0.825681	-0.034513	0.000032
C30	C	-0.824552	-0.111617	0.000038
C31	C	-0.887320	-0.156313	0.000045
C32	C	-0.886259	-0.228760	0.000033
C33	C	-0.822427	-0.256508	0.000029
C34	C	-0.759651	-0.211802	0.000019
C35	C	-0.760714	-0.139357	0.000023
C36	C	-0.772241	-0.364797	0.043878
C37	C	-0.771181	-0.437242	0.043878
C38	C	-0.819148	-0.479954	0.000012
C39	C	-0.868186	-0.450213	-0.043844
C40	C	-0.869248	-0.377768	-0.043840
C41	C	-0.821268	-0.335062	0.000024
C42	C	-0.880770	-0.603206	0.000005
C43	C	-0.879706	-0.675654	-0.000012
C44	C	-0.753096	-0.658694	-0.000018
C45	C	-0.754161	-0.586247	-0.000009
C46	C	-0.818000	-0.558508	0.000006
C47	C	0.052780	0.087026	0.000018
C48	C	-0.024323	0.088158	0.000015
C49	C	-0.814745	0.219500	-0.000005
C50	C	-0.815874	0.296604	-0.000016
N51	N	-0.820191	0.092485	0.178170
N52	N	-0.820240	0.092496	-0.178141
C53	C	-0.867575	0.045140	0.217565
C54	C	-0.867579	0.045137	0.296367
C55	C	-0.820206	0.092491	0.335770
C56	C	-0.772813	0.139839	0.296365
C57	C	-0.772806	0.139837	0.217565
C58	C	-0.810907	0.155778	0.460598
C59	C	-0.810919	0.155782	0.539397
C60	C	-0.820225	0.092499	0.578816
C61	C	-0.829532	0.029210	0.539427
C62	C	-0.829525	0.029207	0.460627
C63	C	-0.820208	0.092499	0.421216
C64	C	-0.867615	0.045146	0.703658
C65	C	-0.867614	0.045142	0.782461
C66	C	-0.772852	0.139851	0.782458
C67	C	-0.772850	0.139849	0.703656
C68	C	-0.820235	0.092498	0.664261
H69	H	-0.609361	0.096722	0.123818
H70	H	-0.906198	0.006585	0.814538
O71	O	-0.839573	-0.039058	0.581921
H72	H	-0.793197	-0.043409	0.617827
H73	H	-0.477954	0.094828	-0.123805
H74	H	-0.731249	-0.461450	0.079584
H75	H	-0.734220	0.178391	0.185488
O76	O	-0.947412	-0.723864	0.000002
H77	H	-0.977988	-0.714008	-0.051011
H78	H	-0.932751	-0.580619	0.000014
O79	O	-0.918696	-0.005926	0.338866
H80	H	-0.889577	-0.039618	0.374783
H81	H	-0.609383	0.096740	-0.123805
H82	H	-0.701123	-0.681285	-0.000024
H83	H	-0.907244	-0.484988	-0.079564
H84	H	-0.906157	0.006582	0.185492
O85	O	-0.021506	0.088109	-0.141839
H86	H	-0.029077	0.135637	-0.174584
H87	H	-0.734241	0.178394	0.328451
H88	H	-0.803345	0.207316	0.571462
H89	H	-0.264393	0.017727	-0.094833
H90	H	-0.162494	0.090203	-0.123797
H91	H	-0.477931	0.094795	0.123822
H92	H	-0.909175	-0.353557	-0.079550
O93	O	-0.839551	-0.039048	0.418139
H94	H	-0.846017	-0.083056	0.458782
O95	O	-0.406838	0.009035	-0.108648
H96	H	-0.400393	-0.046938	-0.100915
H97	H	-0.376021	0.167295	0.094837
O98	O	-0.918711	-0.005930	0.661158
H99	H	-0.951653	-0.038863	0.701795
O100	O	-0.800875	0.224037	0.418083
H101	H	-0.794418	0.268045	0.458709
H102	H	-0.734277	0.178405	0.814539
O103	O	-0.233575	0.175967	0.108665
H104	H	-0.267139	0.204814	0.145007
H105	H	-0.162474	0.090169	0.123822
H106	H	-0.031041	0.088237	0.123832
O107	O	-0.956171	-0.126392	0.000040
H108	H	-0.999640	-0.169648	0.000031
H109	H	-0.707679	-0.234399	0.000015
O110	O	-0.721741	0.190918	0.661163
H111	H	-0.729689	0.182956	0.599749
H112	H	-0.937374	-0.265159	0.000035
H113	H	-0.703049	-0.549855	-0.000010
H114	H	-0.733179	-0.330027	0.079603
H115	H	-0.709599	-0.102964	0.000018
