data_functionalizedCrystal
_audit_creation_method	'MofGen! by Chris Wilmer'
_symmetry_space_group_name_H-M	'P1'
_symmetry_Int_Tables_number	1
_symmetry_cell_setting	triclinic
loop_
_symmetry_equiv_pos_as_xyz
  x,y,z
_cell_length_a	18.215407
_cell_length_b	13.897448
_cell_length_c	18.215399
_cell_angle_alpha	89.971263
_cell_angle_beta	89.983176
_cell_angle_gamma	90.018140
loop_
_atom_site_label
_atom_site_type_symbol
_atom_site_fract_x
_atom_site_fract_y
_atom_site_fract_z
Zn1	Zn	1.125087	-0.383990	-0.416124
Zn2	Zn	1.375087	-0.133990	-0.166124
Zn3	Zn	1.625087	0.116010	0.083876
Zn4	Zn	1.875087	0.366010	0.333876
Zn5	Zn	1.125017	-0.545307	-0.293061
Zn6	Zn	1.375017	-0.295307	-0.043061
Zn7	Zn	1.625017	-0.045307	0.206939
Zn8	Zn	1.875017	0.204693	0.456939
Zn9	Zn	1.002026	-0.384029	-0.293072
Zn10	Zn	1.252026	-0.134029	-0.043072
Zn11	Zn	1.502026	0.115971	0.206928
Zn12	Zn	1.752026	0.365971	0.456928
Zn13	Zn	1.002001	-0.545246	-0.416086
Zn14	Zn	1.252001	-0.295246	-0.166086
Zn15	Zn	1.502001	-0.045246	0.083914
Zn16	Zn	1.752001	0.204754	0.333914
O17	O	1.063533	-0.464643	-0.354586
O18	O	1.313533	-0.214643	-0.104586
O19	O	1.563533	0.035357	0.145414
O20	O	1.813533	0.285357	0.395414
O21	O	1.228062	-0.405399	-0.399811
O22	O	1.478062	-0.155399	-0.149811
O23	O	1.728062	0.094601	0.100189
O24	O	1.978062	0.344601	0.350189
O25	O	1.108684	-0.523954	-0.190078
O26	O	1.358684	-0.273954	0.059922
O27	O	1.608684	-0.023954	0.309922
O28	O	1.858684	0.226046	0.559922
O29	O	1.018390	-0.249042	-0.309415
O30	O	1.268390	0.000958	-0.059415
O31	O	1.518390	0.250958	0.190585
O32	O	1.768390	0.500958	0.440585
O33	O	1.228011	-0.523917	-0.309398
O34	O	1.478011	-0.273917	-0.059398
O35	O	1.728011	-0.023917	0.190602
O36	O	1.978011	0.226083	0.440602
O37	O	1.108802	-0.249014	-0.399821
O38	O	1.358802	0.000986	-0.149821
O39	O	1.608802	0.250986	0.100179
O40	O	1.858802	0.500986	0.350179
O41	O	1.018322	-0.405464	-0.190086
O42	O	1.268322	-0.155464	0.059914
O43	O	1.518322	0.094536	0.309914
O44	O	1.768322	0.344536	0.559914
O45	O	0.899038	-0.405405	-0.309378
O46	O	1.149038	-0.155405	-0.059378
O47	O	1.399038	0.094595	0.190622
O48	O	1.649038	0.344595	0.440622
O49	O	1.018347	-0.523814	-0.519076
O50	O	1.268347	-0.273814	-0.269076
O51	O	1.518347	-0.023814	-0.019076
O52	O	1.768347	0.226186	0.230924
O53	O	0.899020	-0.523851	-0.399757
O54	O	1.149020	-0.273851	-0.149757
O55	O	1.399020	-0.023851	0.100243
O56	O	1.649020	0.226149	0.350243
O57	O	1.108778	-0.405340	-0.519103
O58	O	1.358778	-0.155340	-0.269103
O59	O	1.608778	0.094660	-0.019103
O60	O	1.858778	0.344660	0.230897
O61	O	1.108659	-0.680280	-0.309361
O62	O	1.358659	-0.430280	-0.059361
O63	O	1.608659	-0.180280	0.190639
O64	O	1.858659	0.069720	0.440639
O65	O	1.018279	-0.680236	-0.399747
O66	O	1.268279	-0.430236	-0.149747
O67	O	1.518279	-0.180236	0.100253
O68	O	1.768279	0.069764	0.350253
C69	C	0.872326	-0.464627	-0.354565
C70	C	1.122326	-0.214627	-0.104565
C71	C	1.372326	0.035373	0.145435
C72	C	1.622326	0.285373	0.395435
C73	C	0.790528	-0.464643	-0.354573
C74	C	1.040528	-0.214643	-0.104573
C75	C	1.290528	0.035357	0.145427
C76	C	1.540528	0.285357	0.395427
C77	C	1.063479	-0.715257	-0.354565
C78	C	1.313479	-0.465257	-0.104565
C79	C	1.563479	-0.215257	0.145435
C80	C	1.813479	0.034743	0.395435
C81	C	1.063523	-0.822471	-0.354580
C82	C	1.313523	-0.572471	-0.104580
C83	C	1.563523	-0.322471	0.145420
C84	C	1.813523	-0.072471	0.395420
C85	C	0.602343	-0.526414	-0.401574
C86	C	0.852343	-0.276414	-0.151574
C87	C	1.102343	-0.026414	0.098426
C88	C	1.352343	0.223586	0.348426
C89	C	0.525485	-0.526417	-0.401583
C90	C	0.775485	-0.276417	-0.151583
C91	C	1.025485	-0.026417	0.098417
C92	C	1.275485	0.223583	0.348417
C93	C	0.525474	-0.402889	-0.307614
C94	C	0.775474	-0.152889	-0.057614
C95	C	1.025474	0.097111	0.192386
C96	C	1.275474	0.347111	0.442386
C97	C	0.602331	-0.402882	-0.307609
C98	C	0.852331	-0.152882	-0.057609
C99	C	1.102331	0.097118	0.192391
C100	C	1.352331	0.347118	0.442391
C101	C	0.640764	-0.464650	-0.354588
C102	C	0.890764	-0.214650	-0.104588
C103	C	1.140764	0.035350	0.145412
C104	C	1.390764	0.285350	0.395412
C105	C	0.487048	-0.464660	-0.354602
C106	C	0.737048	-0.214660	-0.104602
C107	C	0.987048	0.035340	0.145398
C108	C	1.237048	0.285340	0.395398
C109	C	0.403714	-0.464663	-0.354612
C110	C	0.653714	-0.214663	-0.104612
C111	C	0.903714	0.035337	0.145388
C112	C	1.153714	0.285337	0.395388
C113	C	0.724103	-0.464646	-0.354579
C114	C	0.974103	-0.214646	-0.104579
C115	C	1.224103	0.035354	0.145421
C116	C	1.474103	0.285354	0.395421
C117	C	1.063601	-1.018766	-0.354626
C118	C	1.313601	-0.768766	-0.104626
C119	C	1.563601	-0.518766	0.145374
C120	C	1.813601	-0.268766	0.395374
C121	C	1.063556	-0.909534	-0.354603
C122	C	1.313556	-0.659534	-0.104603
C123	C	1.563556	-0.409534	0.145397
C124	C	1.813556	-0.159534	0.395397
C125	C	1.255486	-0.464660	-0.354607
C126	C	1.505486	-0.214660	-0.104607
C127	C	1.755486	0.035340	0.145393
C128	C	2.005486	0.285340	0.395393
C129	C	1.337284	-0.464668	-0.354617
C130	C	1.587284	-0.214668	-0.104617
C131	C	1.837284	0.035332	0.145383
C132	C	2.087284	0.285332	0.395383
C133	C	1.063567	-0.464566	-0.546539
C134	C	1.313567	-0.214566	-0.296539
C135	C	1.563567	0.035434	-0.046539
C136	C	1.813567	0.285434	0.203461
C137	C	1.063582	-0.464533	-0.628338
C138	C	1.313582	-0.214533	-0.378338
C139	C	1.563582	0.035467	-0.128338
C140	C	1.813582	0.285467	0.121662
C141	C	1.063607	-0.213050	-0.354623
C142	C	1.313607	0.036950	-0.104623
C143	C	1.563607	0.286950	0.145377
C144	C	1.813607	0.536950	0.395377
C145	C	1.063638	-0.105836	-0.354639
C146	C	1.313638	0.144164	-0.104639
C147	C	1.563638	0.394164	0.145361
C148	C	1.813638	0.644164	0.395361
C149	C	1.016571	-0.402794	-0.816537
C150	C	1.266571	-0.152794	-0.566537
C151	C	1.516571	0.097206	-0.316537
C152	C	1.766571	0.347206	-0.066537
C153	C	1.016584	-0.402774	-0.893395
C154	C	1.266584	-0.152774	-0.643395
C155	C	1.516584	0.097226	-0.393395
C156	C	1.766584	0.347226	-0.143395
C157	C	1.110682	-0.526158	-0.893377
C158	C	1.360682	-0.276158	-0.643377
C159	C	1.610682	-0.026158	-0.393377
C160	C	1.860682	0.223842	-0.143377
C161	C	1.110665	-0.526181	-0.816520
C162	C	1.360665	-0.276181	-0.566520
C163	C	1.610665	-0.026181	-0.316520
C164	C	1.860665	0.223819	-0.066520
C165	C	1.063610	-0.464494	-0.778101
C166	C	1.313610	-0.214494	-0.528101
C167	C	1.563610	0.035506	-0.278101
C168	C	1.813610	0.285506	-0.028101
C169	C	1.063640	-0.464451	-0.931818
C170	C	1.313640	-0.214451	-0.681818
C171	C	1.563640	0.035549	-0.431818
C172	C	1.813640	0.285549	-0.181818
C173	C	1.063654	-0.464430	-1.015151
C174	C	1.313654	-0.214430	-0.765151
C175	C	1.563654	0.035570	-0.515151
C176	C	1.813654	0.285570	-0.265151
C177	C	1.063595	-0.464515	-0.694762
C178	C	1.313595	-0.214515	-0.444762
C179	C	1.563595	0.035485	-0.194762
C180	C	1.813595	0.285485	0.055238
C181	C	1.063540	-0.464650	-0.163380
C182	C	1.313540	-0.214650	0.086620
C183	C	1.563540	0.035350	0.336620
C184	C	1.813540	0.285350	0.586620
C185	C	1.063668	-0.464411	-0.081581
C186	C	1.313668	-0.214411	0.168419
C187	C	1.563668	0.035589	0.418419
C188	C	1.813668	0.285589	0.668419
H189	H	0.633633	-0.576708	-0.439829
H190	H	0.883633	-0.326708	-0.189829
H191	H	1.133633	-0.076708	0.060171
H192	H	1.383633	0.173292	0.310171
H193	H	1.148971	-0.576429	-0.785225
H194	H	1.398971	-0.326429	-0.535225
H195	H	1.648971	-0.076429	-0.285225
H196	H	1.898971	0.173571	-0.035225
H197	H	0.494206	-0.576711	-0.439845
H198	H	0.744206	-0.326711	-0.189845
H199	H	0.994206	-0.076711	0.060155
H200	H	1.244206	0.173289	0.310155
H201	H	0.494173	-0.352601	-0.269364
H202	H	0.744173	-0.102601	-0.019364
H203	H	0.994173	0.147399	0.230636
H204	H	1.244173	0.397399	0.480636
H205	H	0.633615	-0.352580	-0.269347
H206	H	0.883615	-0.102580	-0.019347
H207	H	1.133615	0.147420	0.230653
H208	H	1.383615	0.397420	0.480653
H209	H	0.978279	-0.352533	-0.924686
H210	H	1.228279	-0.102533	-0.674686
H211	H	1.478279	0.147467	-0.424686
H212	H	1.728279	0.397467	-0.174686
H213	H	0.978256	-0.352564	-0.785259
H214	H	1.228256	-0.102564	-0.535259
H215	H	1.478256	0.147436	-0.285259
H216	H	1.728256	0.397436	-0.035259
H217	H	1.148992	-0.576381	-0.924666
H218	H	1.398992	-0.326381	-0.674666
H219	H	1.648992	-0.076381	-0.424666
H220	H	1.898992	0.173619	-0.174666
