data_functionalizedCrystal
_audit_creation_method	'MofGen! by Chris Wilmer'
_symmetry_space_group_name_H-M	'P1'
_symmetry_Int_Tables_number	1
_symmetry_cell_setting	triclinic
loop_
_symmetry_equiv_pos_as_xyz
  x,y,z
_cell_length_a	12.759401
_cell_length_b	12.759400
_cell_length_c	12.759401
_cell_angle_alpha	89.990181
_cell_angle_beta	89.996200
_cell_angle_gamma	90.017891
loop_
_atom_site_label
_atom_site_type_symbol
_atom_site_fract_x
_atom_site_fract_y
_atom_site_fract_z
Zn1	Zn	-1.606033	0.418536	0.594031
Zn2	Zn	-1.605956	0.594190	0.418353
Zn3	Zn	-1.430385	0.418513	0.418366
Zn4	Zn	-1.430302	0.594161	0.593990
O5	O	-1.518169	0.506350	0.506185
O6	O	-1.753044	0.441858	0.570739
O7	O	-1.582668	0.570889	0.271334
O8	O	-1.453753	0.271495	0.441691
O9	O	-1.752987	0.570911	0.441670
O10	O	-1.582801	0.271512	0.570751
O11	O	-1.453678	0.441820	0.271343
O12	O	-1.283353	0.441792	0.441650
O13	O	-1.453611	0.570861	0.741016
O14	O	-1.283292	0.570839	0.570681
O15	O	-1.582720	0.441830	0.741047
O16	O	-1.582587	0.741207	0.441630
O17	O	-1.453535	0.741186	0.570669
C18	C	-1.245202	0.506311	0.506163
C19	C	-1.128425	0.506319	0.506179
C20	C	-1.073586	0.439246	0.573488
C21	C	-0.963862	0.439260	0.573491
C22	C	-0.963826	0.573430	0.438874
C23	C	-1.073548	0.573410	0.438866
C24	C	-1.073606	0.361786	0.651212
C25	C	-0.963882	0.361801	0.651215
C26	C	-1.518072	0.779317	0.506166
C27	C	-1.518127	0.896094	0.506193
C28	C	-0.792202	0.506377	0.506201
C29	C	-0.908979	0.506354	0.506190
C30	C	-1.450908	0.950983	0.573329
C31	C	-1.450949	1.060707	0.573335
C32	C	-1.585437	1.060643	0.439067
C33	C	-1.585390	0.950921	0.439056
C34	C	-1.373265	0.951021	0.650851
C35	C	-1.373306	1.060745	0.650857
C36	C	-1.518165	0.506345	0.780218
C37	C	-1.518163	0.506343	0.896995
C38	C	-1.518261	1.232317	0.506218
C39	C	-1.518215	1.115540	0.506210
C40	C	-1.585383	0.439170	0.951874
C41	C	-1.585377	0.439172	1.061599
C42	C	-1.450926	0.573529	1.061554
C43	C	-1.450928	0.573521	0.951832
C44	C	-1.663011	0.361603	0.951901
C45	C	-1.663005	0.361606	1.061625
C46	C	-1.518162	0.506372	1.233218
C47	C	-1.518155	0.506354	1.116441
H48	H	-1.107645	0.391049	0.728451
H49	H	-1.640200	1.105297	0.384406
N50	N	-1.626411	0.264697	1.104413
N51	N	-1.684822	0.211523	1.162388
H52	H	-1.658937	0.143109	1.192634
N53	N	-1.400599	1.098050	0.752958
N54	N	-1.487145	1.074311	0.792270
H55	H	-1.506423	1.100656	0.864376
N56	N	-1.654021	0.894837	0.370460
N57	N	-1.653955	0.796872	0.370442
H58	H	-1.702418	0.757260	0.321984
H59	H	-1.291899	0.921311	0.628987
N60	N	-0.921206	0.264783	0.614816
N61	N	-0.981000	0.192116	0.587558
H62	H	-0.950860	0.123600	0.561847
N63	N	-0.926541	0.389306	0.753249
N64	N	-0.990213	0.408682	0.825131
H65	H	-0.963843	0.428109	0.897190
N66	N	-1.765052	0.388984	1.099013
N67	N	-1.782319	0.393619	1.195333
H68	H	-1.854385	0.412957	1.221740
H69	H	-1.402336	0.916946	0.728166
H70	H	-1.740289	0.390765	0.917868
H71	H	-1.118194	0.628018	0.384046
H72	H	-0.919132	0.628054	0.384070
H73	H	-1.296047	1.094839	0.621647
N74	N	-1.110981	0.259660	0.624068
N75	N	-1.087328	0.182480	0.679576
H76	H	-1.113725	0.110354	0.660408
N77	N	-1.382242	0.642127	0.895789
N78	N	-1.322219	0.702097	0.944767
H79	H	-1.273704	0.750553	0.905188
N80	N	-1.382254	0.642136	1.117587
N81	N	-1.382254	0.642129	1.215552
H82	H	-1.333753	0.690584	1.255125
N83	N	-1.635705	0.259522	0.914578
N84	N	-1.616458	0.187607	0.978261
H85	H	-1.597164	0.115515	0.951903
