data_functionalizedCrystal
_audit_creation_method	'MofGen! by Chris Wilmer'
_symmetry_space_group_name_H-M	'P1'
_symmetry_Int_Tables_number	1
_symmetry_cell_setting	triclinic
loop_
_symmetry_equiv_pos_as_xyz
  x,y,z
_cell_length_a	6.817900
_cell_length_b	17.982783
_cell_length_c	11.102228
_cell_angle_alpha	94.234556
_cell_angle_beta	108.604565
_cell_angle_gamma	102.448572
loop_
_atom_site_label
_atom_site_type_symbol
_atom_site_fract_x
_atom_site_fract_y
_atom_site_fract_z
V1	V	-4.080367	-0.105414	-0.396784
O2	O	-4.072046	0.005064	-0.388688
O3	O	-4.026530	-0.209016	-0.394592
O4	O	-4.057621	-0.103793	-0.569597
O5	O	-4.040739	-0.100887	-0.212472
V6	V	-4.561375	-0.092199	-0.374675
O7	O	-4.347142	-0.134401	-0.445281
O8	O	-4.744798	-0.063212	-0.326178
O9	O	-4.392006	0.011403	-0.376867
O10	O	-4.687094	-0.202677	-0.382771
O11	O	-4.718400	-0.096725	-0.558987
O12	O	-4.360915	-0.093820	-0.201862
C13	C	-3.869378	-0.234272	-0.388468
C14	C	-3.906818	-0.318968	-0.387828
C15	C	-3.867455	-0.347877	-0.271088
C16	C	-3.902654	-0.427459	-0.270491
C17	C	-3.977201	-0.478130	-0.386635
C18	C	-4.016572	-0.449216	-0.503384
C19	C	-3.981388	-0.369636	-0.503980
C20	C	-4.158471	-0.770154	-0.500982
C21	C	-4.193648	-0.849738	-0.500377
C22	C	-4.079737	-0.827977	-0.267494
C23	C	-4.044553	-0.748397	-0.268090
C24	C	-4.083937	-0.719490	-0.384838
C25	C	-4.045773	-0.633198	-0.385484
C26	C	-4.015350	-0.564420	-0.385990
C27	C	-3.909037	-0.100048	-0.611702
C28	C	-3.971687	-0.099409	-0.752981
C29	C	-4.040668	-0.168879	-0.837853
C30	C	-4.099546	-0.168276	-0.970599
C31	C	-4.020447	-0.028727	-0.933588
C32	C	-3.961584	-0.029331	-0.800845
C33	C	-4.345057	-0.253721	-1.178416
C34	C	-4.414007	-0.323194	-1.263292
C35	C	-4.312252	-0.382547	-1.232375
C36	C	-4.141501	-0.372430	-1.116583
C37	C	-4.072536	-0.302955	-1.031712
C38	C	-4.174338	-0.243605	-1.062630
C39	C	-3.716058	0.056109	-0.593026
C40	C	-3.647077	0.125585	-0.508153
C41	C	-3.748814	0.184945	-0.539065
C42	C	-3.919533	0.174836	-0.654859
C43	C	-3.988514	0.105360	-0.739732
C44	C	-3.886777	0.045999	-0.708811
C45	C	-4.212499	0.036655	-0.382988
C46	C	-4.154299	0.121350	-0.383636
C47	C	-4.172840	-0.097567	-0.159751
C48	C	-4.089429	-0.098202	-0.018471
H49	H	-4.077286	-0.490478	-0.597951
H50	H	-3.806736	-0.306625	-0.176509
F51	F	-3.675372	0.258891	-0.448736
F52	F	-4.023294	-0.338869	-0.628231
H53	H	-4.047680	-0.851523	-0.172431
F54	F	-4.385640	-0.456485	-1.322711
H55	H	-3.870603	-0.450993	-0.175430
F56	F	-3.965202	-0.694473	-0.144473
F57	F	-4.051428	-0.243462	-0.786917
F58	F	-3.890821	-0.292185	-0.908486
H59	H	-4.254355	-0.890994	-0.594961
H60	H	-4.127528	0.097133	-0.834018
H61	H	-4.058637	-0.420761	-1.091428
F62	F	-4.200376	-0.739399	-0.625236
F63	F	-4.027811	0.238015	-0.687765
H64	H	-4.012225	0.028328	-0.972575
H65	H	-3.508042	0.133816	-0.413876
F66	F	-4.595718	-0.333956	-1.386529
F67	F	-4.453385	-0.190555	-1.211324
F68	F	-3.607772	-0.007070	-0.560116
