data_functionalizedCrystal
_audit_creation_method	'MofGen! by Chris Wilmer'
_symmetry_space_group_name_H-M	'P1'
_symmetry_Int_Tables_number	1
_symmetry_cell_setting	triclinic
loop_
_symmetry_equiv_pos_as_xyz
  x,y,z
_cell_length_a	16.959455
_cell_length_b	25.639239
_cell_length_c	16.959447
_cell_angle_alpha	89.966924
_cell_angle_beta	89.979626
_cell_angle_gamma	90.035706
loop_
_atom_site_label
_atom_site_type_symbol
_atom_site_fract_x
_atom_site_fract_y
_atom_site_fract_z
Zn1	Zn	1.208282	-0.208182	-0.447021
Zn2	Zn	1.208161	-0.295623	-0.314836
Zn3	Zn	1.076110	-0.208199	-0.314845
Zn4	Zn	1.076032	-0.295584	-0.446961
O5	O	1.142146	-0.251897	-0.380916
O6	O	1.318876	-0.219791	-0.429508
O7	O	1.190627	-0.284049	-0.204226
O8	O	1.093726	-0.135031	-0.332407
O9	O	1.318788	-0.284033	-0.332393
O10	O	1.190832	-0.135019	-0.429516
O11	O	1.093609	-0.219819	-0.204233
O12	O	0.965489	-0.219781	-0.332348
O13	O	1.093593	-0.283966	-0.557580
O14	O	0.965431	-0.283982	-0.429414
O15	O	1.190756	-0.219753	-0.557624
O16	O	1.190551	-0.368783	-0.332334
O17	O	1.093476	-0.368754	-0.429405
C18	C	0.936780	-0.251880	-0.380876
C19	C	0.848923	-0.251885	-0.380878
C20	C	1.142013	-0.387739	-0.380880
C21	C	1.142029	-0.445853	-0.380890
C22	C	0.477391	-0.285315	-0.330322
C23	C	0.477504	-0.218522	-0.431606
C24	C	0.560050	-0.218514	-0.431587
C25	C	0.601270	-0.251907	-0.380935
C26	C	0.559945	-0.285308	-0.330303
C27	C	0.601382	-0.185117	-0.482224
C28	C	0.683933	-0.185107	-0.482207
C29	C	0.725155	-0.218498	-0.431551
C30	C	0.683824	-0.251900	-0.380916
C31	C	0.725044	-0.285293	-0.330264
C32	C	0.683714	-0.318693	-0.279625
C33	C	0.601166	-0.318699	-0.279646
C34	C	0.807703	-0.218492	-0.431529
C35	C	0.807597	-0.285286	-0.330245
C36	C	1.192825	-0.806219	-0.330457
C37	C	1.192856	-0.860823	-0.330467
O38	O	1.235906	-0.889062	-0.287547
N39	N	1.142285	-0.888136	-0.380968
C40	C	1.091686	-0.860841	-0.431467
O41	O	1.048676	-0.889087	-0.474424
C42	C	1.091660	-0.806238	-0.431460
C43	C	1.142228	-0.778928	-0.380950
C44	C	1.243390	-0.778909	-0.279952
C45	C	1.243358	-0.724308	-0.279940
C46	C	1.192761	-0.697018	-0.330434
C47	C	1.142197	-0.724328	-0.380939
C48	C	1.041066	-0.778945	-0.481963
C49	C	1.041045	-0.724338	-0.481952
C50	C	1.091613	-0.697028	-0.431442
C51	C	1.091568	-0.642437	-0.431421
N52	N	1.142139	-0.615124	-0.380920
C53	C	1.192735	-0.642414	-0.330427
C54	C	1.091746	-0.975512	-0.431479
C55	C	1.091767	-1.030114	-0.431483
C56	C	1.192938	-1.030092	-0.330484
C57	C	1.192912	-0.975489	-0.330477
C58	C	1.142316	-0.948199	-0.380979
C59	C	1.192664	-0.527749	-0.330406
C60	C	1.192625	-0.473144	-0.330397
C61	C	1.091458	-0.473171	-0.431399
C62	C	1.091493	-0.527771	-0.431405
C63	C	1.142103	-0.555059	-0.380906
O64	O	1.048541	-0.614163	-0.474322
O65	O	1.235746	-0.614162	-0.287485
C66	C	1.348314	-0.251914	-0.380956
C67	C	1.436171	-0.251922	-0.380973
C68	C	1.142179	-0.251853	-0.587084
C69	C	1.142193	-0.251835	-0.674941
C70	C	1.142301	-0.115524	-0.380969
C71	C	1.142367	-0.057410	-0.380992
C72	C	1.091699	-0.285213	-1.046396
C73	C	1.192876	-0.218347	-1.046437
C74	C	1.192855	-0.218358	-0.963891
C75	C	1.142256	-0.251798	-0.922594
C76	C	1.091678	-0.285226	-0.963842
C77	C	1.243438	-0.184934	-0.922636
C78	C	1.243419	-0.184944	-0.840085
C79	C	1.192816	-0.218381	-0.798787
C80	C	1.142235	-0.251811	-0.840040
C81	C	1.091636	-0.285250	-0.798743
C82	C	1.041051	-0.318678	-0.839995
C83	C	1.041074	-0.318664	-0.922543
C84	C	1.192792	-0.218395	-0.716238
C85	C	1.091615	-0.285264	-0.716189
C86	C	1.142159	-0.251902	-0.175549
C87	C	1.142298	-0.251773	-0.087693
H88	H	0.841153	-0.312478	-0.288995
H89	H	0.443938	-0.191338	-0.472848
N90	N	0.989423	-0.806840	-0.533560
N91	N	0.989446	-0.855592	-0.533576
H92	H	0.952971	-0.875294	-0.570020
N93	N	1.244558	-0.947596	-0.278874
N94	N	1.239360	-0.953733	-0.205934
H95	H	1.275837	-0.934036	-0.169487
N96	N	1.244616	-1.057983	-0.278908
N97	N	1.244628	-1.106735	-0.278929
H98	H	1.281122	-1.126435	-0.242504
H99	H	1.050582	-1.052345	-0.472606
N100	N	1.244455	-0.184247	-0.674112
N101	N	1.239273	-0.136001	-0.683361
H102	H	1.275762	-0.111880	-0.653610
H103	H	0.717577	-0.157910	-0.523441
H104	H	1.233804	-0.450910	-0.289263
H105	H	1.050538	-0.953295	-0.472602
N106	N	1.244548	-0.184192	-1.088633
N107	N	1.216782	-0.150870	-1.134715
H108	H	1.253275	-0.126746	-1.164522
N109	N	0.559267	-0.151017	-0.533962
N110	N	0.485563	-0.151028	-0.533967
H111	H	0.455814	-0.126944	-0.570509
N112	N	0.558950	-0.352824	-0.227939
N113	N	0.568138	-0.401072	-0.233052
H114	H	0.538321	-0.425175	-0.196536
H115	H	0.443737	-0.312507	-0.289090
H116	H	0.999845	-0.702121	-0.523079
H117	H	0.841350	-0.191299	-0.472761
H118	H	1.050512	-0.312427	-1.079987
H119	H	1.050319	-0.550008	-0.472537
N120	N	0.989367	-0.352842	-0.797820
N121	N	0.994553	-0.401086	-0.807016
H122	H	0.958052	-0.425215	-0.777228
N123	N	1.295063	-0.806788	-0.228365
N124	N	1.295087	-0.855540	-0.228360
H125	H	1.331580	-0.875228	-0.191919
N126	N	1.039775	-0.445280	-0.482962
N127	N	1.039761	-0.396528	-0.482939
H128	H	1.003262	-0.376828	-0.519358
N129	N	1.244363	-0.555610	-0.278817
N130	N	1.289500	-0.531211	-0.233729
H131	H	1.326008	-0.550886	-0.197289
H132	H	1.050404	-0.312490	-0.682571
N133	N	1.295019	-0.696424	-0.228342
N134	N	1.340188	-0.720806	-0.183267
H135	H	1.376678	-0.701117	-0.146824
N136	N	0.989391	-0.352796	-0.964679
N137	N	0.916457	-0.349310	-0.955458
H138	H	0.879952	-0.373412	-0.985222
H139	H	1.284638	-0.157712	-0.956267
N140	N	1.295083	-0.150790	-0.797966
N141	N	1.289895	-0.102544	-0.807219
H142	H	1.326381	-0.078420	-0.777472
N143	N	0.725836	-0.352804	-0.227899
N144	N	0.799540	-0.352793	-0.227901
H145	H	0.829292	-0.376884	-0.191372
