data_functionalizedCrystal
_audit_creation_method	'MofGen! by Chris Wilmer'
_symmetry_space_group_name_H-M	'P1'
_symmetry_Int_Tables_number	1
_symmetry_cell_setting	triclinic
loop_
_symmetry_equiv_pos_as_xyz
  x,y,z
_cell_length_a	19.288864
_cell_length_b	15.944545
_cell_length_c	18.366186
_cell_angle_alpha	89.991659
_cell_angle_beta	89.977106
_cell_angle_gamma	83.316209
loop_
_atom_site_label
_atom_site_type_symbol
_atom_site_fract_x
_atom_site_fract_y
_atom_site_fract_z
O1	O	0.921627	0.104784	-0.060787
O2	O	0.719403	0.118919	-0.060737
O3	O	0.826040	-0.010445	-0.060755
O4	O	0.814990	0.234148	-0.060769
O5	O	0.826021	-0.010451	0.060345
O6	O	0.719385	0.118913	0.060362
O7	O	0.921609	0.104778	0.060313
Zn8	Zn	0.820494	0.111844	0.079565
Zn9	Zn	0.820518	0.111852	-0.079989
O10	O	0.814972	0.234142	0.060330
C11	C	0.693516	0.118461	-0.000181
C12	C	0.616409	0.117096	-0.000162
C13	C	0.825573	-0.041740	-0.000204
C14	C	0.824200	-0.134982	-0.000202
C15	C	0.571911	0.193001	-0.000178
C16	C	0.499461	0.191718	-0.000186
C17	C	0.471512	0.114526	-0.000193
C18	C	0.516019	0.038611	-0.000172
C19	C	0.588468	0.039896	-0.000157
C20	C	0.363097	0.053847	-0.042640
C21	C	0.290649	0.052565	-0.042660
C22	C	0.248056	0.110560	-0.000236
C23	C	0.277917	0.169851	0.042197
C24	C	0.350366	0.171136	0.042213
C25	C	0.392954	0.113124	-0.000209
C26	C	0.124998	0.185079	-0.000260
C27	C	0.052547	0.183793	-0.000263
C28	C	0.069107	0.030684	-0.000257
C29	C	0.141556	0.031972	-0.000246
C30	C	0.169498	0.109172	-0.000251
C31	C	0.753999	-0.405344	-0.000199
C32	C	0.787853	-0.354886	-0.059916
C33	C	0.819304	-0.470606	-0.000221
C34	C	0.787853	-0.354919	0.059478
C35	C	0.821706	-0.305702	-0.000210
C36	C	0.853140	-0.421376	-0.059987
C37	C	0.853130	-0.421413	0.059461
C38	C	0.887032	-0.370988	-0.000271
C39	C	0.817918	-0.565603	-0.000228
C40	C	0.823096	-0.210708	-0.000209
C41	C	0.947495	0.105236	-0.000245
C42	C	1.024603	0.106601	-0.000269
C43	C	0.815439	0.265437	-0.000222
C44	C	0.816812	0.358678	-0.000229
N45	N	0.820483	0.111838	0.188456
N46	N	0.820535	0.111852	-0.188880
C47	C	0.867717	0.054584	0.226548
C48	C	0.867721	0.054580	0.302776
C49	C	0.820498	0.111845	0.340909
C50	C	0.773255	0.169104	0.302807
C51	C	0.773247	0.169100	0.226580
C52	C	0.811400	0.188379	0.461666
C53	C	0.811413	0.188383	0.537891
C54	C	0.820518	0.111855	0.576016
C55	C	0.829625	0.035320	0.537907
C56	C	0.829618	0.035316	0.461681
C57	C	0.820501	0.111855	0.423563
C58	C	0.867759	0.054592	0.696764
C59	C	0.867759	0.054587	0.772993
C60	C	0.773296	0.169118	0.773022
C61	C	0.773293	0.169116	0.696794
C62	C	0.820529	0.111854	0.658669
H63	H	0.594656	0.255863	-0.000183
H64	H	0.266342	0.004290	-0.077215
C65	C	0.750621	-0.315679	-0.128117
H66	H	0.782543	-0.288069	-0.156243
H67	H	0.712550	-0.275897	-0.113785
H68	H	0.733810	-0.358906	-0.156412
H69	H	0.374676	0.219410	0.076766
H70	H	0.177788	-0.029838	-0.000237
C71	C	0.231077	0.233649	0.088868
H72	H	0.259237	0.269145	0.114136
H73	H	0.205938	0.204107	0.122980
H74	H	0.199163	0.267068	0.058271
C75	C	0.750577	-0.315718	0.127680
H76	H	0.782478	-0.288097	0.155792
H77	H	0.733736	-0.358931	0.155985
H78	H	0.712521	-0.275927	0.113332
C79	C	0.409943	-0.009945	-0.089315
H80	H	0.381783	-0.045429	-0.114598
H81	H	0.441860	-0.043365	-0.058728
H82	H	0.435079	0.019611	-0.123427
C83	C	0.839636	-0.048866	0.579834
H84	H	0.838327	-0.037906	0.630690
H85	H	0.883439	-0.078958	0.567328
H86	H	0.803305	-0.081663	0.567362
C87	C	0.919708	-0.008401	0.654824
H88	H	0.947833	-0.042510	0.688431
H89	H	0.948618	0.021723	0.625068
H90	H	0.894715	-0.043292	0.625107
H91	H	0.804001	0.250703	0.568913
H92	H	0.906186	0.007955	0.333797
H93	H	0.016317	0.245607	-0.000272
C94	C	0.919689	-0.008380	0.184612
H95	H	0.912931	-0.000172	0.133758
H96	H	0.912174	-0.064427	0.197107
H97	H	0.966037	0.000637	0.197091
H98	H	0.697758	-0.420780	-0.000244
C99	C	0.155741	0.269991	-0.000256
H100	H	0.205262	0.259886	-0.000255
H101	H	0.140445	0.301232	0.041971
H102	H	0.140487	0.301236	-0.042495
C103	C	0.839624	-0.048864	0.419761
H104	H	0.845144	-0.094442	0.453377
H105	H	0.880005	-0.050639	0.389922
H106	H	0.799884	-0.053449	0.390130
H107	H	0.734783	0.215724	0.195564
C108	C	0.890375	-0.460423	-0.128268
H109	H	0.889257	-0.519832	-0.127869
H110	H	0.937484	-0.448466	-0.128454
H111	H	0.867342	-0.437068	-0.170610
C112	C	0.038371	-0.054225	-0.000269
H113	H	-0.011150	-0.044121	-0.000285
H114	H	0.053622	-0.085476	0.041963
H115	H	0.053670	-0.085460	-0.042503
C116	C	0.801389	0.272565	0.419735
H117	H	0.795978	0.318145	0.453346
H118	H	0.760945	0.274394	0.390017
H119	H	0.841079	0.277096	0.389980
C120	C	0.485278	-0.046298	-0.000184
H121	H	0.435756	-0.036192	-0.000204
H122	H	0.500526	-0.077546	0.042050
H123	H	0.500579	-0.077535	-0.042416
H124	H	0.943317	-0.355714	-0.000318
C125	C	0.637418	-0.043603	-0.000148
H126	H	0.610399	-0.089762	-0.000157
H127	H	0.666005	-0.046288	0.042084
H128	H	0.666043	-0.046278	-0.042381
C129	C	0.890342	-0.460679	0.127645
H130	H	0.867056	-0.437809	0.170037
H131	H	0.937342	-0.448320	0.128064
H132	H	0.889568	-0.520138	0.126909
C133	C	0.919720	-0.008394	0.814895
H134	H	0.947853	-0.042490	0.781269
H135	H	0.894744	-0.043288	0.844650
H136	H	0.948633	0.021745	0.844610
C137	C	0.721351	0.232109	0.814958
H138	H	0.728122	0.223915	0.865812
H139	H	0.674996	0.223130	0.802491
H140	H	0.728897	0.288148	0.802453
C141	C	0.721313	0.232096	0.344749
H142	H	0.728087	0.223904	0.395603
H143	H	0.674958	0.223116	0.332285
H144	H	0.728859	0.288134	0.332240
C145	C	0.721343	0.232106	0.654890
H146	H	0.693222	0.266216	0.688515
H147	H	0.692428	0.201980	0.625172
H148	H	0.746331	0.266996	0.625137
H149	H	0.463224	0.253531	-0.000197
