data_functionalizedCrystal
_audit_creation_method	'MofGen! by Chris Wilmer'
_symmetry_space_group_name_H-M	'P1'
_symmetry_Int_Tables_number	1
_symmetry_cell_setting	triclinic
loop_
_symmetry_equiv_pos_as_xyz
  x,y,z
_cell_length_a	21.395364
_cell_length_b	12.645330
_cell_length_c	21.395355
_cell_angle_alpha	90.011431
_cell_angle_beta	89.975273
_cell_angle_gamma	89.975480
loop_
_atom_site_label
_atom_site_type_symbol
_atom_site_fract_x
_atom_site_fract_y
_atom_site_fract_z
Zn1	Zn	0.957879	0.422209	-0.354295
Zn2	Zn	0.957789	0.599458	-0.249531
Zn3	Zn	0.853094	0.422204	-0.249532
Zn4	Zn	0.853071	0.599426	-0.354271
O5	O	0.905458	0.510825	-0.301907
O6	O	1.045545	0.445737	-0.340408
O7	O	0.943873	0.575957	-0.161853
O8	O	0.867040	0.273858	-0.263439
O9	O	1.045479	0.575962	-0.263438
O10	O	0.944026	0.273861	-0.340409
O11	O	0.866954	0.445729	-0.161854
O12	O	0.765413	0.445698	-0.263415
O13	O	0.867002	0.575906	-0.441952
O14	O	0.765396	0.575902	-0.340367
O15	O	0.944004	0.445706	-0.441970
O16	O	0.943852	0.747801	-0.263414
O17	O	0.866915	0.747778	-0.340366
C18	C	0.742671	0.510796	-0.301889
C19	C	0.673029	0.510810	-0.301896
C20	C	0.171241	0.578746	-0.341937
C21	C	0.236676	0.578746	-0.341930
C22	C	0.269391	0.510848	-0.301927
C23	C	0.236665	0.442963	-0.261916
C24	C	0.171231	0.442972	-0.261919
C25	C	0.373075	0.415311	-0.297069
C26	C	0.438508	0.415300	-0.297070
C27	C	0.471212	0.510820	-0.301913
C28	C	0.438474	0.606354	-0.306769
C29	C	0.373040	0.606363	-0.306772
C30	C	0.340343	0.510831	-0.301919
C31	C	0.574883	0.578706	-0.341911
C32	C	0.640319	0.578708	-0.341901
C33	C	0.640307	0.442915	-0.261889
C34	C	0.574871	0.442923	-0.261897
C35	C	0.542163	0.510816	-0.301911
C36	C	0.905388	0.786254	-0.301901
C37	C	0.905416	0.904084	-0.301919
C38	C	0.857200	1.071678	-0.350480
C39	C	0.856964	0.949118	-0.350323
C40	C	0.887534	0.948653	-0.235888
C41	C	0.887229	1.071252	-0.236184
C42	C	0.971775	1.071183	-0.318857
C43	C	0.971379	0.948577	-0.320299
C44	C	1.068882	0.510854	-0.301926
C45	C	1.138523	0.510866	-0.301933
C46	C	0.905510	0.510803	-0.465330
C47	C	0.905532	0.510794	-0.534972
C48	C	0.905523	1.234319	-0.301929
C49	C	0.905495	1.116489	-0.301945
C50	C	0.945625	0.442996	-0.567695
C51	C	0.945625	0.442950	-0.633131
C52	C	0.905537	0.510722	-0.665840
C53	C	0.865437	0.578525	-0.633109
C54	C	0.865434	0.578561	-0.567674
C55	C	0.900566	0.606174	-0.769512
C56	C	0.900573	0.606139	-0.834945
C57	C	0.905541	0.510610	-0.867661
C58	C	0.910516	0.415111	-0.834935
C59	C	0.910514	0.415147	-0.769501
C60	C	0.905535	0.510690	-0.736792
C61	C	0.945635	0.442756	-0.971337
C62	C	0.945630	0.442709	-1.036774
C63	C	0.865445	0.578293	-1.036750
C64	C	0.865447	0.578331	-0.971315
C65	C	0.905546	0.510564	-0.938612
C66	C	0.905443	0.510769	-0.139119
C67	C	0.905542	0.510480	-0.069478
H68	H	0.144592	0.387694	-0.229343
Br69	Br	0.530489	0.670847	-0.396213
Br70	Br	0.806475	1.119066	-0.212305
H71	H	0.920878	1.100897	-0.198788
H72	H	0.808370	1.102572	-0.339419
H73	H	0.978282	0.387571	-0.944709
H74	H	0.896526	0.683900	-0.861586
H75	H	0.868153	0.918983	-0.399284
H76	H	0.896352	0.683946	-0.742881
Br77	Br	0.807628	0.897628	-0.211575
Br78	Br	0.328699	0.285666	-0.290485
H79	H	0.978278	0.387493	-1.063416
Br80	Br	0.811032	0.670257	-1.081134
H81	H	0.988081	1.102045	-0.366188
Br82	Br	0.281061	0.350822	-0.207621
Br83	Br	0.993858	0.900027	-0.401296
H84	H	1.009262	0.917916	-0.287522
H85	H	0.978272	0.387735	-0.659779
Br86	Br	1.031750	1.119500	-0.259948
H87	H	0.807833	0.919877	-0.339118
Br88	Br	1.000042	0.351023	-0.523316
Br89	Br	0.944311	0.900041	-0.173963
Br90	Br	0.811027	0.670494	-0.677498
Br91	Br	0.917262	0.285550	-0.725089
H92	H	0.868281	1.101108	-0.399603
H93	H	0.914563	0.337322	-0.861571
H94	H	0.832783	0.633769	-0.541031
Br95	Br	0.126854	0.670891	-0.396239
H96	H	0.465100	0.684135	-0.310717
H97	H	0.263321	0.634022	-0.374508
H98	H	0.346388	0.684150	-0.310724
Br99	Br	0.684724	0.670849	-0.396190
Br100	Br	0.530464	0.350788	-0.207608
Br101	Br	0.684698	0.350779	-0.207590
H102	H	0.832803	0.633546	-0.944671
Br103	Br	0.482931	0.285648	-0.290492
