data_functionalizedCrystal
_audit_creation_method	'MofGen! by Chris Wilmer'
_symmetry_space_group_name_H-M	'P1'
_symmetry_Int_Tables_number	1
_symmetry_cell_setting	triclinic
loop_
_symmetry_equiv_pos_as_xyz
  x,y,z
_cell_length_a	10.685980
_cell_length_b	16.625546
_cell_length_c	10.685880
_cell_angle_alpha	94.335175
_cell_angle_beta	80.918858
_cell_angle_gamma	94.388851
loop_
_atom_site_label
_atom_site_type_symbol
_atom_site_fract_x
_atom_site_fract_y
_atom_site_fract_z
Zn1	Zn	1.995681	-0.265671	-0.866636
Zn2	Zn	2.329014	0.067662	-0.533303
Zn3	Zn	2.662347	0.400995	-0.199969
Zn4	Zn	1.979243	-0.390938	-0.654362
Zn5	Zn	2.312577	-0.057605	-0.321029
Zn6	Zn	2.645910	0.275729	0.012305
Zn7	Zn	1.767121	-0.265714	-0.638108
Zn8	Zn	2.100454	0.067619	-0.304775
Zn9	Zn	2.433788	0.400953	0.028558
Zn10	Zn	1.783352	-0.410061	-0.850263
Zn11	Zn	2.116685	-0.076728	-0.516930
Zn12	Zn	2.450018	0.256606	-0.183596
O13	O	1.881349	-0.333096	-0.752342
O14	O	2.214682	0.000237	-0.419009
O15	O	2.548016	0.333570	-0.085676
O16	O	2.171135	-0.274267	-0.852132
O17	O	2.504468	0.059066	-0.518798
O18	O	2.837801	0.392399	-0.185465
O19	O	1.937433	-0.366342	-0.474581
O20	O	2.270766	-0.033008	-0.141248
O21	O	2.604100	0.300325	0.192085
O22	O	1.797526	-0.152874	-0.668473
O23	O	2.130860	0.180459	-0.335140
O24	O	2.464193	0.513792	-0.001806
O25	O	2.159058	-0.366300	-0.696175
O26	O	2.492392	-0.032967	-0.362842
O27	O	2.825725	0.300366	-0.029508
O28	O	1.965448	-0.152843	-0.836371
O29	O	2.298782	0.180490	-0.503038
O30	O	2.632115	0.513824	-0.169704
O31	O	1.781588	-0.274340	-0.462640
O32	O	2.114921	0.058993	-0.129306
O33	O	2.448254	0.392326	0.204027
O34	O	1.591639	-0.292883	-0.652597
O35	O	1.924973	0.040450	-0.319263
O36	O	2.258306	0.373784	0.014070
O37	O	1.825189	-0.398893	-1.030059
O38	O	2.158523	-0.065559	-0.696726
O39	O	2.491856	0.267774	-0.363393
O40	O	1.603564	-0.398934	-0.808466
O41	O	1.936897	-0.065601	-0.475132
O42	O	2.270231	0.267733	-0.141799
O43	O	1.981187	-0.292810	-1.042089
O44	O	2.314520	0.040523	-0.708755
O45	O	2.647853	0.373857	-0.375422
O46	O	1.953171	-0.506309	-0.680299
O47	O	2.286505	-0.172976	-0.346966
O48	O	2.619838	0.160358	-0.013632
O49	O	1.809250	-0.520359	-0.824226
O50	O	2.142584	-0.187025	-0.490893
O51	O	2.475917	0.146308	-0.157560
C52	C	1.551543	-0.347989	-0.726991
C53	C	1.884877	-0.014655	-0.393658
C54	C	2.218210	0.318678	-0.060325
C55	C	1.410453	-0.354381	-0.716176
C56	C	1.743786	-0.021047	-0.382843
C57	C	2.077120	0.312286	-0.049510
C58	C	1.881225	-0.542590	-0.752280
C59	C	2.214558	-0.209257	-0.418947
C60	C	2.547892	0.124077	-0.085613
C61	C	1.881291	-0.632209	-0.752305
C62	C	2.214624	-0.298876	-0.418971
C63	C	2.547958	0.034458	-0.085638
C64	C	1.881523	-0.960381	-0.752454
C65	C	2.214856	-0.627047	-0.419120
C66	C	2.548189	-0.293714	-0.085787
C67	C	1.881455	-0.869074	-0.752416
C68	C	2.214788	-0.535740	-0.419082
C69	C	2.548121	-0.202407	-0.085749
C70	C	1.881406	-0.796298	-0.752378
C71	C	2.214739	-0.462964	-0.419045
C72	C	2.548073	-0.129631	-0.085712
C73	C	1.881340	-0.704985	-0.752342
C74	C	2.214673	-0.371652	-0.419008
C75	C	2.548006	-0.038318	-0.085675
C76	C	2.212443	-0.318146	-0.777793
C77	C	2.545776	0.015187	-0.444460
C78	C	2.879110	0.348521	-0.111126
C79	C	2.353535	-0.311775	-0.788638
C80	C	2.686869	0.021558	-0.455305
C81	C	3.020202	0.354891	-0.121972
C82	C	1.906832	-0.347980	-1.083418
C83	C	2.240165	-0.014646	-0.750085
C84	C	2.573499	0.318687	-0.416751
C85	C	1.917691	-0.354322	-1.224503
C86	C	2.251025	-0.020989	-0.891169
C87	C	2.584358	0.312345	-0.557836
C88	C	1.881511	-0.122784	-0.752435
C89	C	2.214844	0.210549	-0.419102
C90	C	2.548177	0.543883	-0.085769
C91	C	1.881579	-0.033161	-0.752475
C92	C	2.214913	0.300172	-0.419142
C93	C	2.548246	0.633505	-0.085808
C94	C	1.856038	-0.318209	-0.422560
C95	C	2.189372	0.015124	-0.089227
C96	C	2.522705	0.348458	0.244106
C97	C	1.845425	-0.311628	-0.281495
C98	C	2.178759	0.021705	0.051838
C99	C	2.512092	0.355038	0.385171
H100	H	1.351237	-0.395749	-0.645854
H101	H	1.684571	-0.062416	-0.312521
H102	H	2.017904	0.270918	0.020813
H103	H	1.775237	-0.270227	-1.222354
H104	H	2.108571	0.063107	-0.889021
H105	H	2.441904	0.396440	-0.555687
H106	H	1.987878	-0.395730	-1.283650
H107	H	2.321212	-0.062397	-0.950317
H108	H	2.654545	0.270936	-0.616983
H109	H	1.412744	-0.270404	-0.858948
H110	H	1.746077	0.062929	-0.525615
H111	H	2.079410	0.396263	-0.192281
