data_functionalizedCrystal
_audit_creation_method	'MofGen! by Chris Wilmer'
_symmetry_space_group_name_H-M	'P1'
_symmetry_Int_Tables_number	1
_symmetry_cell_setting	triclinic
loop_
_symmetry_equiv_pos_as_xyz
  x,y,z
_cell_length_a	16.109301
_cell_length_b	15.944551
_cell_length_c	14.586319
_cell_angle_alpha	89.995256
_cell_angle_beta	89.999213
_cell_angle_gamma	83.480109
loop_
_atom_site_label
_atom_site_type_symbol
_atom_site_fract_x
_atom_site_fract_y
_atom_site_fract_z
O1	O	1.103166	0.107966	-0.076184
O2	O	1.603166	0.607966	0.423816
O3	O	0.861108	0.121403	-0.076199
O4	O	1.361108	0.621403	0.423801
O5	O	0.988747	-0.007593	-0.076183
O6	O	1.488747	0.492407	0.423817
O7	O	0.975527	0.236961	-0.076200
O8	O	1.475527	0.736961	0.423800
O9	O	0.988738	-0.007595	0.076298
O10	O	1.488738	0.492405	0.576298
O11	O	0.861099	0.121401	0.076282
O12	O	1.361099	0.621401	0.576282
O13	O	1.103157	0.107964	0.076296
O14	O	1.603157	0.607964	0.576296
Cu15	Cu	0.982127	0.114682	0.090212
Cu16	Cu	1.482127	0.614682	0.590212
Cu17	Cu	0.982138	0.114685	-0.090114
Cu18	Cu	1.482138	0.614685	0.409886
O19	O	0.975518	0.236960	0.076280
O20	O	1.475518	0.736960	0.576280
C21	C	0.830129	0.120857	0.000039
C22	C	1.330129	0.620857	0.500039
C23	C	0.737833	0.119226	0.000034
C24	C	1.237833	0.619226	0.500034
C25	C	0.515584	0.191975	0.000040
C26	C	1.015584	0.691975	0.500040
C27	C	0.428863	0.190435	0.000046
C28	C	0.928863	0.690435	0.500046
C29	C	0.448688	0.037387	0.000053
C30	C	0.948688	0.537387	0.500053
C31	C	0.535407	0.038927	0.000053
C32	C	1.035407	0.538927	0.500053
C33	C	0.568853	0.116224	0.000042
C34	C	1.068853	0.616224	0.500042
C35	C	0.395412	0.113143	0.000047
C36	C	0.895412	0.613143	0.500047
C37	C	0.301386	0.111473	0.000054
C38	C	0.801386	0.611473	0.500054
C39	C	0.662885	0.117894	0.000037
C40	C	1.162885	0.617894	0.500037
C41	C	0.988194	-0.038887	0.000057
C42	C	1.488194	0.461113	0.500057
C43	C	0.986548	-0.132133	0.000058
C44	C	1.486548	0.367867	0.500058
C45	C	0.903499	-0.346962	0.000040
C46	C	1.403499	0.153038	0.500040
C47	C	0.942060	-0.407993	0.075225
C48	C	1.442060	0.092007	0.575225
C49	C	0.983572	-0.302858	0.000051
C50	C	1.483572	0.197142	0.500051
C51	C	0.942088	-0.407975	-0.075109
C52	C	1.442088	0.092025	0.424891
C53	C	0.980691	-0.467769	0.000040
C54	C	1.480691	0.032231	0.500040
C55	C	1.022155	-0.362660	0.075297
C56	C	1.522155	0.137340	0.575297
C57	C	1.022171	-0.362636	-0.075104
C58	C	1.522171	0.137364	0.424896
C59	C	1.060790	-0.423649	0.000099
C60	C	1.560790	0.076351	0.500099
C61	C	0.985229	-0.207856	0.000058
C62	C	1.485229	0.292144	0.500058
C63	C	0.979039	-0.562770	0.000039
C64	C	1.479039	-0.062770	0.500039
C65	C	1.134136	0.108510	0.000056
C66	C	1.634136	0.608510	0.500056
C67	C	1.226432	0.110141	0.000055
C68	C	1.726432	0.610141	0.500055
C69	C	0.976071	0.268254	0.000038
C70	C	1.476071	0.768254	0.500038
C71	C	0.977717	0.361500	0.000031
C72	C	1.477717	0.861500	0.500031
N73	N	0.982126	0.114680	0.217044
N74	N	1.482126	0.614680	0.717044
N75	N	0.982146	0.114680	-0.216946
N76	N	1.482146	0.614680	0.283054
C77	C	1.038663	0.057580	0.452057
C78	C	1.538663	0.557580	0.952057
C79	C	1.038666	0.057578	0.548038
C80	C	1.538666	0.557578	1.048038
C81	C	0.925602	0.171783	0.548034
C82	C	1.425602	0.671783	1.048034
C83	C	0.925597	0.171780	0.452054
C84	C	1.425597	0.671780	0.952054
C85	C	0.982132	0.114680	0.404068
C86	C	1.482132	0.614680	0.904068
C87	C	0.982140	0.114680	0.596029
C88	C	1.482140	0.614680	1.096029
C89	C	0.982142	0.114679	0.700096
C90	C	1.482142	0.614679	1.200096
C91	C	0.982129	0.114680	0.299995
C92	C	1.482129	0.614680	0.799995
H93	H	0.385495	0.252119	0.000045
H94	H	0.885495	0.752119	0.500045
C95	C	0.863417	0.234597	0.399258
C96	C	1.363417	0.734597	0.899258
H97	H	0.871507	0.226411	0.335224
H98	H	1.371507	0.726411	0.835224
H99	H	0.872451	0.290659	0.414979
H100	H	1.372451	0.790659	0.914979
H101	H	0.807927	0.225458	0.414990
H102	H	1.307927	0.725458	0.914990
H103	H	0.542812	0.254914	0.000037
H104	H	1.042812	0.754914	0.500037
H105	H	0.421446	-0.025546	0.000067
H106	H	0.921446	0.474454	0.500067
C107	C	1.150650	-0.468483	0.000160
C108	C	1.650650	0.031517	0.500160
H109	H	1.178953	-0.452981	0.053616
H110	H	1.678953	0.047019	0.553616
H111	H	1.179308	-0.452268	-0.052737
H112	H	1.679308	0.047732	0.447263
H113	H	1.149123	-0.527868	-0.000339
H114	H	1.649123	-0.027868	0.499661
H115	H	0.578781	-0.022762	0.000058
H116	H	1.078781	0.477238	0.500058
H117	H	0.837035	-0.313632	0.000111
H118	H	1.337035	0.186368	0.500111
H119	H	0.908189	-0.428091	0.138783
H120	H	1.408189	0.071909	0.638783
H121	H	1.084697	0.011082	0.587108
H122	H	1.584697	0.511082	1.087108
H123	H	0.879574	0.218274	0.587113
H124	H	1.379574	0.718274	1.087113
C125	C	1.067856	-0.335677	0.161264
C126	C	1.567856	0.164323	0.661264
H127	H	1.068593	-0.276184	0.160760
H128	H	1.568593	0.223816	0.660760
H129	H	1.123563	-0.362625	0.161489
H130	H	1.623563	0.137375	0.661489
H131	H	1.039591	-0.351563	0.214583
H132	H	1.539591	0.148437	0.714583
H133	H	1.056013	-0.342516	-0.138666
H134	H	1.556013	0.157484	0.361334
H135	H	1.084696	0.011085	0.412989
H136	H	1.584696	0.511085	0.912989
C137	C	0.896328	-0.435091	-0.160976
C138	C	1.396328	0.064909	0.339024
H139	H	0.840459	-0.408556	-0.160881
H140	H	1.340459	0.091444	0.339119
H141	H	0.896053	-0.494635	-0.160663
H142	H	1.396053	0.005365	0.339337
H143	H	0.924234	-0.418791	-0.214362
H144	H	1.424234	0.081209	0.285638
