data_functionalizedCrystal
_audit_creation_method	'MofGen! by Chris Wilmer'
_symmetry_space_group_name_H-M	'P1'
_symmetry_Int_Tables_number	1
_symmetry_cell_setting	triclinic
loop_
_symmetry_equiv_pos_as_xyz
  x,y,z
_cell_length_a	14.395555
_cell_length_b	21.606444
_cell_length_c	14.395555
_cell_angle_alpha	60.003780
_cell_angle_beta	90.002623
_cell_angle_gamma	59.998460
loop_
_atom_site_label
_atom_site_type_symbol
_atom_site_fract_x
_atom_site_fract_y
_atom_site_fract_z
Zr1	Zr	0.894904	0.677417	-0.121822
O2	O	0.746573	0.806535	-0.270147
O3	O	0.940377	0.548299	-0.076357
O4	O	0.940377	0.677411	-0.270143
O5	O	0.746573	0.677427	0.076506
O6	O	1.093251	0.677407	-0.270135
O7	O	0.746574	0.677423	-0.076361
O8	O	1.093252	0.446448	0.076513
O9	O	0.746571	0.908386	-0.270143
O10	O	1.073858	0.601403	-0.056955
O11	O	0.959768	0.601410	0.057122
O12	O	0.959768	0.753424	-0.171037
O13	O	0.845679	0.753431	-0.056960
Zr14	Zr	1.138719	0.677417	0.121996
Zr15	Zr	1.138721	0.677410	-0.121809
Zr16	Zr	0.894903	0.677424	0.121983
Zr17	Zr	0.894902	0.839857	-0.121814
Zr18	Zr	1.138722	0.514977	0.121988
O19	O	1.093246	0.806535	0.076531
O20	O	1.093249	0.806525	-0.270129
O21	O	0.746570	0.806546	0.076513
O22	O	1.287050	0.548299	0.270322
O23	O	1.287053	0.548288	-0.076338
O24	O	0.940375	0.548309	0.270303
O25	O	1.287051	0.677407	-0.076332
O26	O	1.093247	0.677423	0.270318
O27	O	0.940373	0.677427	0.270309
O28	O	1.287050	0.677411	0.076535
O29	O	0.940373	0.908380	-0.270132
O30	O	1.093250	0.446454	0.270306
O31	O	1.287052	0.446448	0.270317
O32	O	1.287054	0.446442	0.076524
O33	O	0.746570	0.908392	-0.076350
O34	O	0.940372	0.908386	-0.076339
O35	O	1.073856	0.601410	0.171211
O36	O	1.187945	0.601403	0.057134
O37	O	1.073855	0.753424	-0.056948
O38	O	0.959766	0.753431	0.057129
C39	C	1.016815	0.474229	0.000077
C40	C	1.016816	0.405269	0.000074
C41	C	1.076367	0.372868	-0.059475
C42	C	1.076371	0.308068	-0.059467
C43	C	1.016817	0.275674	0.000083
C44	C	0.957264	0.308078	0.059639
C45	C	0.957268	0.372873	0.059638
C46	C	0.957251	0.046769	0.059649
C47	C	0.957249	-0.018028	0.059643
C48	C	1.076354	-0.018036	-0.059456
C49	C	1.076357	0.046758	-0.059458
C50	C	1.016810	0.079153	0.000103
C51	C	1.016808	0.149416	0.000096
C52	C	1.016811	0.205418	0.000085
C53	C	0.711834	0.677426	0.000071
C54	C	0.608328	0.677429	0.000065
C55	C	0.485532	0.760317	-0.062127
C56	C	0.454698	0.718879	-0.107204
C57	C	0.454739	0.718864	0.045134
C58	C	0.578857	0.635991	-0.045074
C59	C	0.578895	0.635988	0.107323
C60	C	0.548134	0.594489	0.062273
C61	C	1.321789	0.677408	0.000103
C62	C	1.425296	0.677405	0.000109
C63	C	1.016814	0.677408	-0.304876
C64	C	1.016815	0.677405	-0.408378
C65	C	1.016809	0.880605	0.000097
C66	C	1.016807	0.949565	0.000100
C67	C	1.079027	0.594517	-0.406765
C68	C	0.971750	0.635955	-0.499790
C69	C	1.124065	0.635970	-0.499781
C70	C	0.909475	0.718843	-0.500041
C71	C	1.061867	0.718846	-0.500018
C72	C	0.954526	0.760345	-0.593060
C73	C	1.016810	0.677426	0.305051
C74	C	1.016809	0.677429	0.408552
C75	C	1.321792	0.474220	0.000093
C76	C	1.425300	0.405257	0.000096
C77	C	1.016813	0.474238	0.305041
C78	C	1.016813	0.405281	0.408539
C79	C	1.321790	0.474229	0.305057
C80	C	1.425297	0.405269	0.408561
C81	C	0.711833	0.880605	-0.304883
C82	C	0.608327	0.949565	-0.408387
C83	C	0.711831	0.880614	0.000081
C84	C	0.608324	0.949577	0.000079
C85	C	1.016811	0.880596	-0.304867
C86	C	1.016810	0.949553	-0.408365
C87	C	1.414356	0.372871	-0.059467
C88	C	1.511603	0.308081	-0.059488
C89	C	1.619793	0.275675	0.000061
C90	C	1.630735	0.308067	0.059626
C91	C	1.533489	0.372859	0.059639
C92	C	1.076366	0.372898	0.516707
C93	C	1.076362	0.308115	0.613964
C94	C	1.016811	0.275711	0.603051
C95	C	0.957251	0.308100	0.494872
C96	C	0.957249	0.372887	0.397617
C97	C	1.533468	0.372881	0.397620
C98	C	1.630733	0.308094	0.494864
C99	C	1.619824	0.275693	0.603047
C100	C	1.511642	0.308087	0.613985
C101	C	1.414379	0.372877	0.516743
C102	C	0.500155	0.981961	-0.397446
C103	C	0.402890	1.046767	-0.494690
C104	C	0.413799	1.079173	-0.602873
C105	C	0.521982	1.046774	-0.613811
C106	C	0.619245	0.981973	-0.516569
C107	C	0.619268	0.981970	0.059631
C108	C	0.522021	1.046777	0.059625
C109	C	0.413831	1.079186	0.000072
C110	C	0.402889	1.046791	-0.059487
C111	C	0.500135	0.981989	-0.059487
C112	C	1.076373	0.981936	-0.397416
C113	C	1.076395	1.046720	-0.494654
C114	C	1.016847	1.079124	-0.602841
C115	C	0.957283	1.046734	-0.613788
C116	C	0.957268	0.981947	-0.516551
H117	H	1.124857	0.399242	-0.107973
H118	H	0.401180	0.753909	-0.197893
N119	N	1.545308	0.407782	0.123889
H120	H	1.507622	0.472823	0.069281
H121	H	1.628627	0.377352	0.161599
N122	N	0.582103	0.501577	0.131944
H123	H	0.551220	0.491268	0.197222
H124	H	0.667807	0.459642	0.162803
H125	H	1.016868	1.131878	-0.682009
N126	N	0.533850	1.081710	0.123860
H127	H	0.496179	1.146748	0.069238
H128	H	0.617170	1.051272	0.161578
N129	N	0.286218	1.081702	-0.482878
H130	H	0.294075	1.051330	-0.399587
H131	H	0.243264	1.070433	-0.520641
N132	N	0.308889	1.149064	-0.707751
H133	H	0.238711	1.164663	-0.684394
H134	H	0.308936	1.126466	-0.754519
H135	H	1.542372	0.399253	0.309541
N136	N	1.499878	0.273134	0.730669
H137	H	1.537579	0.284408	0.773675
H138	H	1.537573	0.208102	0.773565
N139	N	0.488310	0.947058	-0.123722
H140	H	0.445338	0.920188	-0.092480
H141	H	0.566360	0.901121	-0.114677
N142	N	1.148613	0.501678	-0.301118
H143	H	1.114431	0.470477	-0.300252
H144	H	1.148701	0.502393	-0.231504
N145	N	0.533739	1.081728	-0.730497
H146	H	0.455704	1.127691	-0.790430
H147	H	0.576732	1.032246	-0.739515
H148	H	0.334656	1.131952	0.000082
H149	H	0.314787	1.073188	-0.107973
H150	H	0.632409	0.600988	0.197992
H151	H	1.124863	0.955563	-0.309333
N152	N	0.735914	0.947031	-0.528377
H153	H	0.728055	0.977395	-0.611668
H154	H	0.778854	0.881990	-0.490637
H155	H	1.718812	0.281725	0.485938
H156	H	1.124859	0.399274	0.525614
H157	H	0.707353	0.955588	0.108133
H158	H	1.124897	1.073085	-0.485719
N159	N	1.724737	0.205796	0.707923
H160	H	1.701421	0.190175	0.778122
H161	H	1.771508	0.228392	0.707864
N162	N	0.893034	0.407794	0.280954
H163	H	0.902064	0.453752	0.220990
H164	H	0.809750	0.434628	0.271943
N165	N	1.499782	0.273143	-0.123718
H166	H	1.577797	0.227181	-0.114702
H167	H	1.456758	0.322631	-0.206994
H168	H	0.908801	1.073128	-0.701887
N169	N	1.297710	0.407803	0.528551
H170	H	1.305569	0.377439	0.611843
H171	H	1.254769	0.396517	0.490805
H172	H	0.908761	0.955588	-0.525482
N173	N	0.488373	0.947015	-0.280771
H174	H	0.405081	0.977381	-0.288613
H175	H	0.526136	0.958285	-0.237820
H176	H	1.124862	0.281686	-0.107955
H177	H	1.124847	0.073134	-0.107954
H178	H	1.124845	-0.044422	-0.107949
H179	H	0.632217	0.600982	-0.083276
N180	N	0.789268	0.765203	-0.498965
H181	H	0.742136	0.827647	-0.568851
H182	H	0.790107	0.764819	-0.428523
N183	N	1.140611	0.273179	0.730636
H184	H	1.109385	0.322619	0.739738
H185	H	1.223907	0.246279	0.739664
N186	N	0.893020	-0.052973	0.123881
H187	H	0.855301	-0.022623	0.161618
H188	H	0.947711	-0.118017	0.183743
N189	N	0.893024	0.081697	0.123891
H190	H	0.809712	0.108581	0.092650
H191	H	0.902147	0.127622	0.114851
N192	N	0.893040	0.273134	0.123874
H193	H	0.833106	0.284411	0.069256
H194	H	0.855389	0.303505	0.161600
N195	N	0.893045	0.407818	0.123872
H196	H	0.855316	0.377467	0.161597
H197	H	0.833175	0.472863	0.069195
H198	H	0.460088	0.830407	-0.114802
N199	N	0.921258	0.589562	-0.501042
H200	H	0.968307	0.526944	-0.431560
H201	H	0.920949	0.590480	-0.571880
N202	N	0.383867	0.765283	0.095607
H203	H	0.359375	0.827898	0.048544
H204	H	0.430457	0.734551	0.176157
H205	H	1.326271	0.399255	-0.107973
H206	H	0.901839	0.830492	-0.672688
H207	H	1.016822	0.222958	0.682251
H208	H	1.698968	0.222916	0.000042
N209	N	1.112377	0.765213	-0.498722
H210	H	1.193439	0.733838	-0.497665
H211	H	1.111229	0.765348	-0.428673
H212	H	1.214772	0.600923	-0.500677
H213	H	0.908766	0.281708	0.486003
N214	N	1.747428	0.273111	0.123850
H215	H	1.807363	0.227149	0.114800
H216	H	1.756446	0.246268	0.207132
