data_functionalizedCrystal
_audit_creation_method	'MofGen! by Chris Wilmer'
_symmetry_space_group_name_H-M	'P1'
_symmetry_Int_Tables_number	1
_symmetry_cell_setting	triclinic
loop_
_symmetry_equiv_pos_as_xyz
  x,y,z
_cell_length_a	12.759401
_cell_length_b	16.959454
_cell_length_c	12.759393
_cell_angle_alpha	89.969082
_cell_angle_beta	89.982620
_cell_angle_gamma	90.020236
loop_
_atom_site_label
_atom_site_type_symbol
_atom_site_fract_x
_atom_site_fract_y
_atom_site_fract_z
Zn1	Zn	1.606205	-0.314630	-0.593988
Zn2	Zn	1.606086	-0.446832	-0.418310
Zn3	Zn	1.430510	-0.314672	-0.418327
Zn4	Zn	1.430479	-0.446771	-0.593952
O5	O	1.518320	-0.380726	-0.506144
O6	O	1.753210	-0.332175	-0.570692
O7	O	1.582759	-0.429344	-0.271291
O8	O	1.453879	-0.204055	-0.441651
O9	O	1.753123	-0.429303	-0.441622
O10	O	1.582961	-0.204025	-0.570708
O11	O	1.453764	-0.332246	-0.271304
O12	O	1.283485	-0.332187	-0.441616
O13	O	1.453826	-0.429199	-0.740978
O14	O	1.283462	-0.429239	-0.570647
O15	O	1.582931	-0.332116	-0.741004
O16	O	1.582728	-0.557435	-0.441588
O17	O	1.453711	-0.557390	-0.570631
C18	C	1.245352	-0.380712	-0.506130
C19	C	1.128576	-0.380724	-0.506149
C20	C	1.073729	-0.431341	-0.573224
C21	C	0.964005	-0.431351	-0.573235
C22	C	0.963984	-0.330126	-0.439087
C23	C	1.073706	-0.330113	-0.439082
C24	C	1.073741	-0.489784	-0.650670
C25	C	0.964017	-0.489794	-0.650681
C26	C	1.518232	-0.586092	-0.506126
C27	C	1.518290	-0.673949	-0.506154
C28	C	1.451238	-1.045431	-0.573330
C29	C	1.585695	-1.045418	-0.439066
C30	C	1.585658	-0.962872	-0.439056
C31	C	1.518409	-0.921602	-0.506183
C32	C	1.451197	-0.962878	-0.573320
C33	C	1.652861	-0.921590	-0.371913
C34	C	1.652826	-0.839039	-0.371900
C35	C	1.585582	-0.797768	-0.439033
C36	C	1.518368	-0.839048	-0.506173
C37	C	1.451119	-0.797778	-0.573300
C38	C	1.383909	-0.839057	-0.640447
C39	C	1.383952	-0.921606	-0.640453
C40	C	1.585539	-0.715219	-0.439027
C41	C	1.451078	-0.715225	-0.573291
C42	C	1.792353	-0.380741	-0.506159
C43	C	1.909130	-0.380748	-0.506165
C44	C	1.518388	-0.380646	-0.780178
C45	C	1.518417	-0.380611	-0.896954
C46	C	1.518437	-0.174558	-0.506185
C47	C	1.518487	-0.086701	-0.506203
C48	C	1.451278	-0.330043	-0.951829
C49	C	1.451310	-0.330020	-1.061553
C50	C	1.585629	-0.431135	-1.061518
C51	C	1.585591	-0.431161	-0.951796
C52	C	1.373733	-0.271663	-0.951850
C53	C	1.373765	-0.271639	-1.061574
C54	C	1.518312	-0.380749	-0.233177
C55	C	1.518487	-0.380561	-0.116401
H56	H	0.930020	-0.467943	-0.728033
H57	H	1.402904	-0.213523	-0.917832
H58	H	1.396520	-1.079044	-0.628001
H59	H	1.640255	-0.681613	-0.384352
F60	F	1.657115	-0.484931	-1.119894
H61	H	1.640247	-0.472350	-0.907122
H62	H	1.707604	-0.955199	-0.317254
F63	F	1.657261	-1.089343	-0.367628
H64	H	1.292342	-0.288056	-0.922072
F65	F	1.379506	-0.671308	-0.644743
H66	H	1.329150	-0.805446	-0.695097
H67	H	1.103549	-0.473459	-0.732076
H68	H	1.707553	-0.805435	-0.317227
H69	H	1.329233	-0.955223	-0.695119
F70	F	1.272737	-0.300292	-1.106054
F71	F	1.402173	-0.191589	-1.100524
F72	F	0.925057	-0.569783	-0.621989
H73	H	1.118358	-0.288891	-0.384470
F74	F	1.118196	-0.565773	-0.612474
F75	F	0.905578	-0.276264	-0.367715
