data_functionalizedCrystal
_audit_creation_method	'MofGen! by Chris Wilmer'
_symmetry_space_group_name_H-M	'P1'
_symmetry_Int_Tables_number	1
_symmetry_cell_setting	triclinic
loop_
_symmetry_equiv_pos_as_xyz
  x,y,z
_cell_length_a	17.038272
_cell_length_b	27.732048
_cell_length_c	16.098538
_cell_angle_alpha	92.695138
_cell_angle_beta	87.069734
_cell_angle_gamma	86.877106
loop_
_atom_site_label
_atom_site_type_symbol
_atom_site_fract_x
_atom_site_fract_y
_atom_site_fract_z
O1	O	1.039664	0.102899	-0.069167
O2	O	0.812054	0.101233	-0.069192
O3	O	0.932928	0.031993	-0.069163
O4	O	0.918791	0.172139	-0.069196
O5	O	0.925867	0.036021	0.069348
O6	O	0.804994	0.105261	0.069320
O7	O	1.032604	0.106927	0.069344
Zn8	Zn	0.917678	0.106733	0.091323
Zn9	Zn	0.926980	0.101427	-0.091171
O10	O	0.911730	0.176167	0.069315
C11	C	0.779414	0.101731	0.000061
C12	C	0.692674	0.097211	0.000053
C13	C	0.642076	0.138713	0.000043
C14	C	0.560575	0.134463	0.000056
C15	C	0.529672	0.088710	0.000072
C16	C	0.580276	0.047205	0.000083
C17	C	0.661776	0.051455	0.000077
C18	C	0.284088	0.073694	0.000098
C19	C	0.202582	0.069446	0.000102
C20	C	0.182886	0.156706	0.000076
C21	C	0.264389	0.160952	0.000064
C22	C	0.314985	0.119446	0.000080
C23	C	0.446365	0.084365	0.000082
C24	C	0.398290	0.123792	0.000076
C25	C	0.929100	0.015987	0.000095
C26	C	0.928206	-0.037709	0.000102
C27	C	0.994011	-0.373515	0.000066
C28	C	0.990696	-0.575327	0.000054
O29	O	1.050870	-0.603831	0.000024
N30	N	0.919023	-0.597729	0.000047
C31	C	0.848173	-0.569676	0.000038
O32	O	0.787135	-0.593361	0.000023
C33	C	0.851490	-0.367865	0.000044
C34	C	0.923167	-0.345465	0.000059
C35	C	1.065683	-0.351115	0.000080
C36	C	1.066511	-0.300665	0.000088
C37	C	0.995667	-0.272615	0.000081
C38	C	0.923995	-0.295015	0.000067
C39	C	0.780641	-0.339813	0.000029
C40	C	0.781477	-0.289357	0.000028
C41	C	0.853155	-0.266957	0.000043
C42	C	0.853979	-0.216515	0.000067
N43	N	0.925652	-0.194113	0.000074
C44	C	0.996496	-0.222163	0.000081
C45	C	0.846437	-0.675629	0.000036
C46	C	0.845608	-0.726081	0.000036
C47	C	0.988131	-0.731729	0.000051
C48	C	0.988959	-0.681276	0.000057
C49	C	0.918111	-0.653227	0.000043
C50	C	0.998229	-0.116214	0.000098
C51	C	0.999051	-0.065759	0.000109
C52	C	0.856528	-0.060116	0.000090
C53	C	0.855706	-0.110566	0.000083
C54	C	0.926563	-0.138614	0.000084
O55	O	0.793838	-0.187981	0.000088
O56	O	1.057527	-0.198469	0.000077
C57	C	0.993184	-0.423965	0.000059
C58	C	0.921512	-0.446365	0.000044
C59	C	0.850668	-0.418315	0.000037
C60	C	0.920682	-0.496818	0.000044
C61	C	0.991526	-0.524868	0.000051
C62	C	1.063200	-0.502465	0.000058
C63	C	1.064028	-0.452015	0.000065
C64	C	0.778994	-0.440718	0.000030
C65	C	0.778172	-0.491168	0.000024
C66	C	0.849016	-0.519218	0.000031
C67	C	1.065245	0.106428	0.000089
C68	C	1.151985	0.110949	0.000092
C69	C	0.915558	0.192173	0.000055
C70	C	0.916452	0.245869	0.000043
N71	N	0.911335	0.110355	0.215871
N72	N	0.933330	0.097802	-0.215719
C73	C	0.962657	0.080979	0.259468
C74	C	0.958226	0.083517	0.346656
C75	C	0.902478	0.115434	0.390245
C76	C	0.851150	0.144812	0.346642
C77	C	0.855577	0.142270	0.259456
C78	C	0.886429	0.124638	0.653492
C79	C	0.882008	0.127178	0.740684
C80	C	0.989084	0.065882	0.740692
C81	C	0.993509	0.063346	0.653504
C82	C	0.942179	0.092721	0.609908
C83	C	0.897950	0.118031	0.479365
C84	C	0.946704	0.090122	0.520790
H85	H	0.555109	0.009952	0.000108
H86	H	0.836608	0.153170	0.776170
H87	H	0.844636	0.148557	0.618003
H88	H	1.008056	0.054990	0.223984
H89	H	1.120883	-0.525312	0.000067
H90	H	0.852559	0.144019	0.514863
H91	H	0.141682	0.190497	0.000064
H92	H	0.667230	0.175970	0.000030
C93	C	1.013828	0.051564	0.394029
C94	C	0.970031	0.021707	0.444084
C95	C	1.021228	-0.007741	0.487724
H96	H	1.044435	0.071230	0.428097
H97	H	1.047652	0.032168	0.355604
H98	H	0.936220	0.041101	0.482504
H99	H	0.939425	0.002031	0.410036
H100	H	1.055052	-0.027137	0.449299
H101	H	1.051832	0.011929	0.521787
H102	H	0.991519	-0.028005	0.521685
H103	H	1.047326	-0.663041	0.000069
H104	H	1.038904	0.037356	0.618016
C105	C	0.412962	0.034649	0.000129
C106	C	0.474713	-0.000792	0.000148
C107	C	0.443969	-0.046595	0.000203
H108	H	0.384044	0.029709	-0.048157
H109	H	0.379145	0.032556	0.048453
H110	H	0.508516	0.001299	-0.048171
H111	H	0.503637	0.004131	0.048431
H112	H	0.410153	-0.048688	0.048527
H113	H	0.415051	-0.051529	-0.048084
H114	H	0.485862	-0.070647	0.000224
C115	C	0.790497	0.179401	0.393923
C116	C	0.714881	0.167752	0.372748
C117	C	0.658987	0.199602	0.416294
H118	H	0.799205	0.211599	0.379656
H119	H	0.795159	0.176703	0.452100
H120	H	0.710221	0.170455	0.314584
H121	H	0.706148	0.135560	0.387017
H122	H	0.663650	0.196904	0.474471
H123	H	0.667703	0.231798	0.402024
H124	H	0.607675	0.191700	0.401939
C125	C	0.716587	0.006336	0.000040
C126	C	0.672084	-0.034644	0.000031
C127	C	0.722548	-0.076217	-0.000012
H128	H	0.746354	0.007516	0.048326
H129	H	0.751234	0.004748	-0.048284
H130	H	0.637451	-0.033056	0.048349
H131	H	0.642319	-0.035840	-0.048252
H132	H	0.757195	-0.077805	-0.048336
H133	H	0.752313	-0.075032	0.048275
H134	H	0.692361	-0.104027	-0.000026
C135	C	1.076959	-0.041531	0.000079
C136	C	1.138823	-0.076900	0.000058
C137	C	1.210601	-0.054602	0.000017
H138	H	1.077899	-0.020572	0.048370
H139	H	1.082751	-0.023379	-0.048240
H140	H	1.133033	-0.095044	0.048372
H141	H	1.137909	-0.097862	-0.048230
H142	H	1.216393	-0.036450	-0.048302
H143	H	1.211532	-0.033643	0.048309
H144	H	1.252584	-0.078596	-0.000005
C145	C	1.044768	0.033903	0.787922
C146	C	1.033755	-0.014714	0.766717
C147	C	1.085043	-0.044190	0.810201
H148	H	1.034202	0.039921	0.846102
H149	H	1.097601	0.040864	0.773609
H150	H	0.980934	-0.021672	0.781036
H151	H	1.044327	-0.020747	0.708545
H152	H	1.137876	-0.037229	0.795888
H153	H	1.074473	-0.038168	0.868379
H154	H	1.077583	-0.077180	0.795814
C155	C	1.141934	-0.427791	0.000033
C156	C	1.203791	-0.463164	0.000015
C157	C	1.275574	-0.440871	-0.000029
H158	H	1.142877	-0.406830	0.048322
H159	H	1.147729	-0.409641	-0.048288
H160	H	1.197998	-0.481306	0.048330
H161	H	1.202873	-0.484127	-0.048271
H162	H	1.281369	-0.422721	-0.048349
H163	H	1.276509	-0.419911	0.048262
H164	H	1.317553	-0.464868	-0.000049
C165	C	0.700266	-0.515395	-0.000035
C166	C	0.638408	-0.480026	-0.000063
C167	C	0.566633	-0.502325	-0.000137
H168	H	0.694397	-0.533560	0.048248
H169	H	0.699403	-0.536344	-0.048362
H170	H	0.639269	-0.459085	0.048259
H171	H	0.644250	-0.461859	-0.048342
H172	H	0.565770	-0.523274	-0.048464
H173	H	0.560773	-0.520489	0.048147
H174	H	0.524655	-0.478331	-0.000164
C175	C	0.702104	-0.410249	-0.000145
C176	C	0.702026	-0.383191	-0.071411
C177	C	0.631198	-0.355125	-0.071602
H178	H	0.696926	-0.389012	0.048104
H179	H	0.659286	-0.430807	-0.000195
H180	H	0.744833	-0.362635	-0.071353
H181	H	0.707191	-0.404416	-0.119671
H182	H	0.588380	-0.375683	-0.071652
H183	H	0.626026	-0.333891	-0.023350
H184	H	0.631133	-0.336766	-0.119959
H185	H	1.045815	-0.754576	0.000057
C186	C	0.767707	-0.750309	-0.000013
C187	C	0.705849	-0.714940	-0.000043
C188	C	0.634074	-0.737238	-0.000105
H189	H	0.761842	-0.768470	0.048274
H190	H	0.766840	-0.771261	-0.048336
H191	H	0.706715	-0.693996	0.048275
H192	H	0.711688	-0.696776	-0.048326
H193	H	0.633207	-0.758190	-0.048428
H194	H	0.628217	-0.755399	0.048183
H195	H	0.592095	-0.713244	-0.000133
H196	H	0.519381	0.168259	0.000048
C197	C	1.075143	-0.146690	-0.000067
C198	C	1.082487	-0.177876	-0.071341
C199	C	1.153333	-0.205953	-0.071521
H200	H	1.075401	-0.165134	0.048177
H201	H	1.117966	-0.126135	-0.000101
H202	H	1.039675	-0.198429	-0.071299
H203	H	1.082243	-0.159446	-0.119596
H204	H	1.196157	-0.185398	-0.071555
H205	H	1.153585	-0.224394	-0.023273
H206	H	1.158329	-0.227113	-0.119882
C207	C	0.704500	-0.258967	-0.000115
C208	C	0.664935	-0.271610	-0.071374
C209	C	0.594018	-0.243631	-0.071527
H210	H	0.715144	-0.225700	-0.000153
H211	H	0.672579	-0.264686	0.048156
H212	H	0.696850	-0.265887	-0.119633
H213	H	0.654271	-0.304873	-0.071351
H214	H	0.562097	-0.249350	-0.023256
H215	H	0.604671	-0.210365	-0.071563
H216	H	0.567162	-0.252208	-0.119871
C217	C	0.799944	0.174249	0.212162
C218	C	0.810976	0.222868	0.233328
C219	C	0.759745	0.252340	0.189771
H220	H	0.747097	0.167318	0.226425
H221	H	0.810567	0.168196	0.153986
H222	H	0.800348	0.228918	0.291491
H223	H	0.863812	0.229814	0.219063
H224	H	0.770368	0.246287	0.131595
H225	H	0.706901	0.245405	0.204037
H226	H	0.767228	0.285331	0.204120
H227	H	0.289543	0.198208	0.000042
C228	C	1.144417	-0.276441	0.000054
C229	C	1.206275	-0.311814	0.000035
C230	C	1.278057	-0.289521	-0.000010
H231	H	1.145362	-0.255480	0.048343
H232	H	1.150212	-0.258291	-0.048267
H233	H	1.200482	-0.329956	0.048351
H234	H	1.205356	-0.332777	-0.048250
H235	H	1.283852	-0.271371	-0.048331
H236	H	1.278994	-0.268561	0.048280
H237	H	1.320036	-0.313518	-0.000030
C238	C	0.431891	0.173449	-0.000117
C239	C	0.481711	0.176362	-0.071394
C240	C	0.512676	0.222100	-0.071610
H241	H	0.460876	0.178376	0.048125
H242	H	0.390109	0.197574	-0.000170
H243	H	0.523486	0.152244	-0.071333
H244	H	0.452744	0.171444	-0.119647
H245	H	0.470895	0.246225	-0.071663
H246	H	0.541658	0.227023	-0.023366
H247	H	0.546477	0.224084	-0.119974
H248	H	0.177426	0.032187	0.000113
C249	C	0.769541	-0.645161	-0.000144
C250	C	0.769464	-0.618107	-0.071415
C251	C	0.698636	-0.590042	-0.071612
H252	H	0.764362	-0.623920	0.048101
H253	H	0.726723	-0.665719	-0.000191
H254	H	0.812270	-0.597551	-0.071361
H255	H	0.774630	-0.639335	-0.119672
H256	H	0.655818	-0.610600	-0.071659
H257	H	0.693463	-0.568805	-0.023364
H258	H	0.698571	-0.571686	-0.119972
H259	H	0.992092	0.064133	0.485297
H260	H	0.325275	0.039897	0.000111
H261	H	1.123376	-0.373948	0.000083
H262	H	0.797339	-0.128804	0.000094
H263	H	0.722274	-0.358042	0.000011
H264	H	0.798849	-0.037268	0.000087
