data_functionalizedCrystal
_audit_creation_method	'MofGen! by Chris Wilmer'
_symmetry_space_group_name_H-M	'P1'
_symmetry_Int_Tables_number	1
_symmetry_cell_setting	triclinic
loop_
_symmetry_equiv_pos_as_xyz
  x,y,z
_cell_length_a	17.640280
_cell_length_b	10.686220
_cell_length_c	10.685910
_cell_angle_alpha	90.323968
_cell_angle_beta	106.337777
_cell_angle_gamma	96.018024
loop_
_atom_site_label
_atom_site_type_symbol
_atom_site_fract_x
_atom_site_fract_y
_atom_site_fract_z
Zn1	Zn	-0.193307	-2.029409	0.495679
Zn2	Zn	-0.336621	-2.055726	0.236451
Zn3	Zn	-0.213510	-1.809577	0.295019
Zn4	Zn	-0.335087	-1.861630	0.462763
O5	O	-0.269631	-1.939086	0.372478
O6	O	-0.204505	-2.206130	0.450557
O7	O	-0.329387	-2.012303	0.065531
O8	O	-0.099972	-1.805940	0.359924
O9	O	-0.309797	-2.225465	0.260103
O10	O	-0.085129	-1.967449	0.507348
O11	O	-0.238937	-1.831458	0.108561
O12	O	-0.237450	-1.643252	0.328006
O13	O	-0.307183	-1.894657	0.645819
O14	O	-0.326773	-1.681495	0.451247
O15	O	-0.203017	-2.017923	0.670002
O16	O	-0.447275	-2.062777	0.228186
O17	O	-0.446148	-1.920176	0.394456
C18	C	-0.284138	-1.617457	0.392411
C19	C	-0.290362	-1.479870	0.400962
C20	C	-0.475453	-2.000016	0.301419
C21	C	-0.563497	-2.026198	0.271056
C22	C	-0.252676	-1.959161	0.705538
C23	C	-0.245450	-1.967716	0.847469
C24	C	-0.850307	-1.740718	0.603580
C25	C	-0.933040	-1.765320	0.575008
C26	C	-0.934135	-1.913919	0.402030
C27	C	-0.851400	-1.889334	0.430592
C28	C	-0.809493	-1.802732	0.531367
C29	C	-0.810586	-1.951347	0.358378
C30	C	-0.727859	-1.926759	0.386934
C31	C	-0.685946	-1.840158	0.487702
C32	C	-0.726766	-1.778143	0.559923
C33	C	-0.852496	-2.037943	0.257597
C34	C	-0.811681	-2.099956	0.185384
C35	C	-0.728952	-2.075375	0.213945
C36	C	-0.687039	-1.988773	0.314713
C37	C	-0.688132	-2.137389	0.141725
C38	C	-0.605405	-2.112801	0.170280
C39	C	-0.604312	-1.964185	0.343269
C40	C	-0.063002	-1.877952	0.443841
C41	C	0.025050	-1.851901	0.474251
C42	C	-0.255068	-2.261970	0.352468
C43	C	-0.248862	-2.399564	0.343941
C44	C	-0.286540	-1.919087	1.040708
C45	C	-0.293770	-1.910540	0.898775
H46	H	-0.618585	-1.820130	0.510942
H47	H	-0.198554	-2.023222	0.912129
H48	H	-0.692642	-1.707632	0.641994
C49	C	-0.561225	-2.180298	0.091771
C50	C	-0.615629	-2.261427	-0.002573
C51	C	-0.574960	-2.323632	-0.074916
H52	H	-0.533952	-2.120174	0.050036
H53	H	-0.524011	-2.227609	0.148435
H54	H	-0.652829	-2.214120	-0.059229
H55	H	-0.642904	-2.321575	0.039126
H56	H	-0.537746	-2.370943	-0.018252
H57	H	-0.547688	-2.263499	-0.116643
H58	H	-0.611866	-2.378693	-0.138929
C59	C	-0.804944	-1.646622	0.713022
C60	C	-0.858393	-1.597560	0.770150
C61	C	-0.816634	-1.510875	0.870960
H62	H	-0.767673	-1.687574	0.777026
H63	H	-0.777641	-1.580129	0.678639
H64	H	-0.885683	-1.664042	0.804535
H65	H	-0.895665	-1.556586	0.706181
H66	H	-0.789331	-1.444382	0.836576
H67	H	-0.779364	-1.551836	0.934955
H68	H	-0.852893	-1.477567	0.909726
C69	C	-0.977444	-1.698226	0.653446
C70	C	-1.017580	-1.787292	0.714606
C71	C	-1.058503	-1.725532	0.786852
H72	H	-0.940723	-1.643132	0.717643
H73	H	-1.014714	-1.651020	0.596755
H74	H	-0.980314	-1.834476	0.771292
H75	H	-1.054314	-1.842388	0.650439
H76	H	-1.095773	-1.678327	0.730162
H77	H	-1.021776	-1.670441	0.851043
H78	H	-1.085746	-1.785954	0.828348
C79	C	-0.344164	-1.431454	0.474791
C80	C	-0.381212	-1.533112	0.525657
C81	C	-0.430786	-1.488560	0.593662
H82	H	-0.313414	-1.375441	0.544129
H83	H	-0.383423	-1.388301	0.417066
H84	H	-0.341958	-1.576244	0.583379
H85	H	-0.411976	-1.589133	0.456347
H86	H	-0.470045	-1.445408	0.535936
H87	H	-0.400030	-1.432547	0.662993
H88	H	-0.455934	-1.557528	0.628172
H89	H	-0.340668	-1.855047	0.834119
H90	H	-0.570188	-1.893674	0.425340
C91	C	-0.195122	-1.447988	0.270007
C92	C	-0.158101	-1.346338	0.219088
C93	C	-0.108600	-1.390906	0.150956
H94	H	-0.155842	-1.491160	0.327626
H95	H	-0.225943	-1.503990	0.200689
H96	H	-0.127282	-1.290357	0.288398
H97	H	-0.197362	-1.303155	0.161451
H98	H	-0.139420	-1.446908	0.081637
H99	H	-0.069325	-1.434079	0.208583
H100	H	-0.083481	-1.321946	0.116389
C101	C	-0.979778	-2.007927	0.292696
C102	C	-1.060962	-2.016202	0.283152
C103	C	-1.103030	-2.102795	0.182453
H104	H	-0.971509	-1.980773	0.212595
H105	H	-0.961519	-2.088222	0.310977
H106	H	-1.079215	-1.935923	0.264862
H107	H	-1.069255	-2.043371	0.363226
H108	H	-1.084771	-2.183091	0.200734
H109	H	-1.094755	-2.075633	0.102360
H110	H	-1.158117	-2.108430	0.175972
H111	H	-0.845814	-2.170464	0.103329
C112	C	-0.733666	-2.231573	0.032492
C113	C	-0.773845	-2.329337	0.083558
C114	C	-0.815791	-2.416124	-0.017030
H115	H	-0.770991	-2.190652	-0.031453
H116	H	-0.697534	-2.265069	-0.006425
H117	H	-0.809974	-2.295843	0.122454
H118	H	-0.736538	-2.370291	0.147491
H119	H	-0.779659	-2.449620	-0.055947
H120	H	-0.853112	-2.375192	-0.080969
H121	H	-0.843052	-2.482473	0.017606
H122	H	-0.919857	-2.057963	0.234354
