data_functionalizedCrystal
_audit_creation_method	'MofGen! by Chris Wilmer'
_symmetry_space_group_name_H-M	'P1'
_symmetry_Int_Tables_number	1
_symmetry_cell_setting	triclinic
loop_
_symmetry_equiv_pos_as_xyz
  x,y,z
_cell_length_a	17.077404
_cell_length_b	13.032721
_cell_length_c	17.077395
_cell_angle_alpha	97.154458
_cell_angle_beta	89.984359
_cell_angle_gamma	97.204757
loop_
_atom_site_label
_atom_site_type_symbol
_atom_site_fract_x
_atom_site_fract_y
_atom_site_fract_z
Zn1	Zn	1.160341	-0.416050	-0.483525
Zn2	Zn	1.660341	0.083950	0.016475
Zn3	Zn	1.143587	-0.590812	-0.368927
Zn4	Zn	1.643587	-0.090812	0.131073
Zn5	Zn	1.029078	-0.416082	-0.352276
Zn6	Zn	1.529078	0.083918	0.147724
Zn7	Zn	1.012377	-0.590754	-0.500145
Zn8	Zn	1.512377	-0.090754	-0.000145
O9	O	1.086346	-0.503425	-0.426218
O10	O	1.586346	-0.003425	0.073782
O11	O	1.267964	-0.439243	-0.468336
O12	O	1.767964	0.060757	0.031664
O13	O	1.128376	-0.567672	-0.256875
O14	O	1.628376	-0.067672	0.243125
O15	O	1.060492	-0.269839	-0.355762
O16	O	1.560492	0.230161	0.144238
O17	O	1.255656	-0.567640	-0.384142
O18	O	1.755656	-0.067640	0.115858
O19	O	1.156930	-0.269814	-0.452190
O20	O	1.656930	0.230186	0.047810
O21	O	1.044247	-0.439299	-0.244641
O22	O	1.544247	0.060701	0.255359
O23	O	0.917017	-0.439242	-0.371878
O24	O	1.417017	0.060758	0.128122
O25	O	1.032026	-0.567541	-0.607784
O26	O	1.532026	-0.067541	-0.107784
O27	O	0.904746	-0.567573	-0.480517
O28	O	1.404746	-0.067573	0.019483
O29	O	1.140735	-0.439186	-0.595573
O30	O	1.640735	0.060814	-0.095573
O31	O	1.112181	-0.737044	-0.400258
O32	O	1.612181	-0.237044	0.099742
O33	O	1.015781	-0.737001	-0.496663
O34	O	1.515781	-0.237001	0.003337
C35	C	0.882400	-0.503406	-0.426195
C36	C	1.382400	-0.003406	0.073805
C37	C	0.795148	-0.503423	-0.426206
C38	C	1.295148	-0.003423	0.073794
C39	C	0.747780	-0.570345	-0.482703
C40	C	1.247780	-0.070345	0.017297
C41	C	0.665799	-0.570347	-0.482716
C42	C	1.165799	-0.070347	0.017284
C43	C	0.631188	-0.503432	-0.426227
C44	C	1.131188	-0.003432	0.073773
C45	C	0.678563	-0.436502	-0.369727
C46	C	1.178563	0.063498	0.130273
C47	C	0.760543	-0.436495	-0.369718
C48	C	1.260543	0.063505	0.130282
C49	C	0.507691	-0.436522	-0.369748
C50	C	1.007691	0.063478	0.130252
C51	C	0.425706	-0.436530	-0.369755
C52	C	0.925706	0.063470	0.130245
C53	C	0.412948	-0.570375	-0.482745
C54	C	0.912948	-0.070375	0.017255
C55	C	0.494927	-0.570368	-0.482737
C56	C	0.994927	-0.070368	0.017263
C57	C	0.542296	-0.503439	-0.426235
C58	C	1.042296	-0.003439	0.073765
C59	C	1.060372	-0.774941	-0.452088
C60	C	1.560372	-0.274941	0.047912
C61	C	1.049332	-0.891097	-0.463182
C62	C	1.549332	-0.391097	0.036818
C63	C	1.092149	-0.942869	-0.420464
C64	C	1.592149	-0.442869	0.079536
C65	C	1.080740	-1.062922	-0.431928
C66	C	1.580740	-0.562922	0.068072
C67	C	1.291088	-0.503444	-0.426242
C68	C	1.791088	-0.003444	0.073758
C69	C	1.378337	-0.503453	-0.426252
C70	C	1.878337	-0.003453	0.073748
C71	C	1.086386	-0.503354	-0.630956
C72	C	1.586386	-0.003354	-0.130956
C73	C	1.086404	-0.503323	-0.718203
C74	C	1.586404	-0.003323	-0.218203
C75	C	1.112442	-0.230848	-0.400264
C76	C	1.612442	0.269152	0.099736
C77	C	1.123563	-0.114692	-0.389204
C78	C	1.623563	0.385308	0.110796
C79	C	1.143109	-0.436347	-1.087647
C80	C	1.643109	0.063653	-0.587647
C81	C	1.143089	-0.436384	-1.005670
C82	C	1.643089	0.063616	-0.505670
C83	C	1.086478	-0.503224	-0.971042
C84	C	1.586478	-0.003224	-0.471042
C85	C	1.029887	-0.570040	-1.018397
C86	C	1.529887	-0.070040	-0.518397
C87	C	1.029911	-0.570008	-1.100373
C88	C	1.529911	-0.070008	-0.600373
C89	C	1.029841	-0.570101	-0.847533
C90	C	1.529841	-0.070101	-0.347533
C91	C	1.029816	-0.570132	-0.765551
C92	C	1.529816	-0.070132	-0.265551
C93	C	1.143019	-0.436476	-0.752829
C94	C	1.643019	0.063524	-0.252829
C95	C	1.143043	-0.436444	-0.834805
C96	C	1.643043	0.063556	-0.334805
C97	C	1.086451	-0.503259	-0.882155
C98	C	1.586451	-0.003259	-0.382155
C99	C	1.086358	-0.503420	-0.222270
C100	C	1.586358	-0.003420	0.277730
C101	C	1.086521	-0.503156	-0.134995
C102	C	1.586521	-0.003156	0.365005
H103	H	0.775953	-0.624839	-0.528701
H104	H	1.275953	-0.124839	-0.028701
C105	C	0.387636	-0.362916	-0.307617
C106	C	0.887636	0.137084	0.192383
N107	N	0.358962	-0.307467	-0.260814
N108	N	0.858962	0.192533	0.239186
H109	H	0.983796	-0.624468	-0.990198
H110	H	1.483796	-0.124468	-0.490198
C111	C	1.153084	-0.882683	-0.359587
C112	C	1.653084	-0.382683	0.140413
N113	N	1.198979	-0.837352	-0.313732
N114	N	1.698979	-0.337352	0.186268
H115	H	1.035636	-1.107473	-0.476995
H116	H	1.535636	-0.607473	0.023005
H117	H	0.799110	-0.381994	-0.323716
H118	H	1.299110	0.118006	0.176284
C119	C	0.640488	-0.362891	-0.307590
C120	C	1.140488	0.137109	0.192410
N121	N	0.611811	-0.307448	-0.260786
N122	N	1.111811	0.192552	0.239214
C123	C	0.988396	-0.951283	-0.524056
C124	C	1.488396	-0.451283	-0.024056
N125	N	0.942496	-0.996614	-0.569907
N126	N	1.442496	-0.496614	-0.069907
C127	C	1.205275	-0.362986	-0.700744
C128	C	1.705275	0.137014	-0.200744
N129	N	1.252164	-0.307633	-0.661510
N130	N	1.752164	0.192367	-0.161510
C131	C	0.532997	-0.643984	-0.544874
C132	C	1.032997	-0.143984	-0.044874
N133	N	0.561671	-0.699432	-0.591677
N134	N	1.061671	-0.199432	-0.091677
C135	C	0.360840	-0.643992	-0.544901
C136	C	0.860840	-0.143992	-0.044901
N137	N	0.321590	-0.699440	-0.591714
N138	N	0.821590	-0.199440	-0.091714
C139	C	1.184502	-1.054512	-0.328325
C140	C	1.684502	-0.554512	0.171675
N141	N	1.230399	-1.009184	-0.282470
N142	N	1.730399	-0.509184	0.217530
H143	H	1.189204	-0.381911	-1.115833
H144	H	1.689204	0.118089	-0.615833
C145	C	1.205334	-0.362880	-0.953589
C146	C	1.705334	0.137120	-0.453589
N147	N	1.252218	-0.307511	-0.914361
N148	N	1.752218	0.192489	-0.414361
H149	H	1.189138	-0.382012	-0.862996
H150	H	1.689138	0.117988	-0.362996
H151	H	0.983702	-0.624535	-0.737358
H152	H	1.483702	-0.124535	-0.237358
H153	H	0.546258	-0.382013	-0.323744
H154	H	1.046258	0.117987	0.176256
C155	C	0.967585	-0.643599	-0.899615
C156	C	1.467585	-0.143599	-0.399615
N157	N	0.920691	-0.698952	-0.938843
N158	N	1.420691	-0.198952	-0.438843
H159	H	0.983831	-0.624412	-1.138924
H160	H	1.483831	-0.124412	-0.638924
H161	H	0.627235	-0.624843	-0.528721
H162	H	1.127235	-0.124843	-0.028721
