data_functionalizedCrystal
_audit_creation_method	'MofGen! by Chris Wilmer'
_symmetry_space_group_name_H-M	'P1'
_symmetry_Int_Tables_number	1
_symmetry_cell_setting	triclinic
loop_
_symmetry_equiv_pos_as_xyz
  x,y,z
_cell_length_a	16.120484
_cell_length_b	12.759401
_cell_length_c	12.759393
_cell_angle_alpha	90.018567
_cell_angle_beta	87.137118
_cell_angle_gamma	92.924448
loop_
_atom_site_label
_atom_site_type_symbol
_atom_site_fract_x
_atom_site_fract_y
_atom_site_fract_z
Zn1	Zn	-0.331878	1.584970	0.615149
Zn2	Zn	0.168122	2.084970	1.115149
Zn3	Zn	-0.471315	1.575922	0.448362
Zn4	Zn	0.028685	2.075922	0.948362
Zn5	Zn	-0.331918	1.409270	0.439491
Zn6	Zn	0.168082	1.909270	0.939491
Zn7	Zn	-0.471248	1.400322	0.623999
Zn8	Zn	0.028752	1.900322	1.123999
O9	O	-0.401590	1.492621	0.531750
O10	O	0.098410	1.992621	1.031750
O11	O	-0.350385	1.730790	0.593033
O12	O	0.149615	2.230790	1.093033
O13	O	-0.452869	1.553773	0.300167
O14	O	0.047131	2.053773	0.800167
O15	O	-0.215248	1.440108	0.455376
O16	O	0.284752	1.940108	0.955376
O17	O	-0.452829	1.724142	0.470496
O18	O	0.047171	2.224142	0.970496
O19	O	-0.215218	1.569195	0.584431
O20	O	0.284782	2.069195	1.084431
O21	O	-0.350455	1.431334	0.293650
O22	O	0.149545	1.931334	0.793650
O23	O	-0.350390	1.261062	0.463958
O24	O	0.149610	1.761062	0.963958
O25	O	-0.452715	1.424859	0.769843
O26	O	0.047285	1.924859	1.269843
O27	O	-0.452755	1.254489	0.599515
O28	O	0.047245	1.754489	1.099515
O29	O	-0.350320	1.560519	0.763341
O30	O	0.149680	2.060519	1.263341
O31	O	-0.587971	1.545097	0.479077
O32	O	-0.087971	2.045097	0.979077
O33	O	-0.587922	1.416085	0.608117
O34	O	-0.087922	1.916085	1.108117
C35	C	-0.401570	1.219655	0.531735
C36	C	0.098430	1.719655	1.031735
C37	C	-0.401582	1.102877	0.531754
C38	C	0.098418	1.602877	1.031754
C39	C	-0.348340	1.051464	0.595670
C40	C	0.151660	1.551464	1.095670
C41	C	-0.348356	0.941738	0.595678
C42	C	0.151644	1.441738	1.095678
C43	C	-0.454863	0.934850	0.467851
C44	C	0.045137	1.434850	0.967851
C45	C	-0.454842	1.044574	0.467838
C46	C	0.045158	1.544574	0.967838
C47	C	-0.286851	1.055439	0.669473
C48	C	0.213149	1.555439	1.169473
C49	C	-0.286867	0.945714	0.669481
C50	C	0.213133	1.445714	1.169481
C51	C	-0.618197	1.478666	0.545543
C52	C	-0.118197	1.978666	1.045543
C53	C	-0.710862	1.472793	0.551478
C54	C	-0.210862	1.972793	1.051478
C55	C	-0.880523	1.462075	0.562337
C56	C	-0.380523	1.962075	1.062337
C57	C	-0.921816	1.523355	0.501181
C58	C	-0.421816	2.023355	1.001181
C59	C	-1.016221	1.517392	0.507223
C60	C	-0.516221	2.017392	1.007223
C61	C	-0.786109	1.468037	0.556297
C62	C	-0.286109	1.968037	1.056297
C63	C	-0.184137	1.506659	0.517927
C64	C	0.315863	2.006659	1.017927
C65	C	-0.091472	1.512641	0.512036
C66	C	0.408528	2.012641	1.012036
C67	C	-0.401506	1.492700	0.805778
C68	C	0.098494	1.992700	1.305778
C69	C	-0.401470	1.492734	0.922553
C70	C	0.098530	1.992734	1.422553
C71	C	-0.401610	1.766653	0.531767
C72	C	0.098390	2.266653	1.031767
C73	C	-0.401619	1.883429	0.531774
C74	C	0.098381	2.383429	1.031774
C75	C	-0.401613	1.492607	0.258784
C76	C	0.098387	1.992607	0.758784
C77	C	-0.401414	1.492792	0.141996
C78	C	0.098586	1.992792	0.641996
C79	C	-0.348148	1.563381	0.974031
C80	C	0.151852	2.063381	1.474031
C81	C	-0.348118	1.563408	1.083753
C82	C	0.151882	2.063408	1.583753
C83	C	-0.454739	1.422136	1.090510
C84	C	0.045261	1.922136	1.590510
C85	C	-0.454764	1.422105	0.980790
C86	C	0.045236	1.922105	1.480790
C87	C	-0.286593	1.644947	0.970130
C88	C	0.213407	2.144947	1.470130
C89	C	-0.286563	1.644974	1.079853
C90	C	0.213437	2.144974	1.579853
H91	H	-0.498189	1.086431	0.415781
H92	H	0.001811	1.586431	0.915781
C93	C	-0.513449	0.870706	0.397551
C94	C	-0.013449	1.370706	0.897551
N95	N	-0.557579	0.822393	0.344602
N96	N	-0.057579	1.322393	0.844602
H97	H	-0.886269	1.580297	0.444286
H98	H	-0.386269	2.080297	0.944286
H99	H	-0.310048	1.088017	0.748190
H100	H	0.189952	1.588017	1.248190
H101	H	-0.304242	0.914855	0.751925
H102	H	0.195758	1.414855	1.251925
H103	H	-0.225506	0.915608	0.636568
H104	H	0.274494	1.415608	1.136568
C105	C	-0.928544	1.385142	0.639183
C106	C	-0.428544	1.885142	1.139183
N107	N	-0.964723	1.327192	0.697058
N108	N	-0.464723	1.827192	1.197058
C109	C	-0.309935	1.753397	1.121577
C110	C	0.190065	2.253397	1.621577
N111	N	-0.327540	1.835057	1.153004
N112	N	0.172460	2.335057	1.653004
H113	H	-0.498181	1.364573	0.938881
H114	H	0.001819	1.864573	1.438881
C115	C	-0.513358	1.344448	1.154581
C116	C	-0.013358	1.844448	1.654581
N117	N	-0.557512	1.285931	1.202838
N118	N	-0.057512	1.785931	1.702838
C119	C	-0.199372	1.621124	0.924364
C120	C	0.300628	2.121124	1.424364
N121	N	-0.133680	1.603178	0.889893
N122	N	0.366320	2.103178	1.389893
C123	C	-0.317840	1.747343	0.926137
C124	C	0.182160	2.247343	1.426137
N125	N	-0.341371	1.824472	0.893001
N126	N	0.158629	2.324472	1.393001
H127	H	-0.225216	1.619795	1.109988
H128	H	0.274784	2.119795	1.609988
C129	C	-0.199588	1.101255	0.634651
C130	C	0.300412	1.601255	1.134651
N131	N	-0.133864	1.135762	0.608420
N132	N	0.366136	1.635762	1.108420
