data_functionalizedCrystal
_audit_creation_method	'MofGen! by Chris Wilmer'
_symmetry_space_group_name_H-M	'P1'
_symmetry_Int_Tables_number	1
_symmetry_cell_setting	triclinic
loop_
_symmetry_equiv_pos_as_xyz
  x,y,z
_cell_length_a	18.215407
_cell_length_b	19.805405
_cell_length_c	18.215399
_cell_angle_alpha	90.033020
_cell_angle_beta	90.016824
_cell_angle_gamma	90.026858
loop_
_atom_site_label
_atom_site_type_symbol
_atom_site_fract_x
_atom_site_fract_y
_atom_site_fract_z
Zn1	Zn	1.125042	-0.269446	0.416102
Zn2	Zn	1.458376	0.063887	0.749436
Zn3	Zn	1.791709	0.397221	1.082769
Zn4	Zn	1.124954	-0.382642	0.293030
Zn5	Zn	1.458287	-0.049308	0.626364
Zn6	Zn	1.791621	0.284025	0.959697
Zn7	Zn	1.001981	-0.269473	0.293050
Zn8	Zn	1.335315	0.063860	0.626383
Zn9	Zn	1.668648	0.397194	0.959716
Zn10	Zn	1.001937	-0.382599	0.416055
Zn11	Zn	1.335271	-0.049266	0.749388
Zn12	Zn	1.668604	0.284067	1.082722
O13	O	1.063479	-0.326040	0.354559
O14	O	1.396812	0.007293	0.687893
O15	O	1.730145	0.340627	1.021226
O16	O	1.228015	-0.284468	0.399788
O17	O	1.561348	0.048865	0.733121
O18	O	1.894681	0.382199	1.066455
O19	O	1.108623	-0.367659	0.190049
O20	O	1.441956	-0.034325	0.523382
O21	O	1.775289	0.299008	0.856715
O22	O	1.018361	-0.174753	0.309401
O23	O	1.351694	0.158581	0.642734
O24	O	1.685028	0.491914	0.976067
O25	O	1.227950	-0.367633	0.309368
O26	O	1.561283	-0.034299	0.642701
O27	O	1.894617	0.299034	0.976034
O28	O	1.108773	-0.174733	0.399807
O29	O	1.442107	0.158600	0.733140
O30	O	1.775440	0.491934	1.066474
O31	O	1.018275	-0.284514	0.190063
O32	O	1.351609	0.048819	0.523396
O33	O	1.684942	0.382153	0.856729
O34	O	0.898991	-0.284473	0.309355
O35	O	1.232325	0.048861	0.642688
O36	O	1.565658	0.382194	0.976022
O37	O	1.018286	-0.367560	0.519046
O38	O	1.351620	-0.034227	0.852379
O39	O	1.684953	0.299106	1.185712
O40	O	0.898959	-0.367586	0.399727
O41	O	1.232292	-0.034253	0.733060
O42	O	1.565626	0.299080	1.066393
O43	O	1.108731	-0.284427	0.519080
O44	O	1.442064	0.048906	0.852414
O45	O	1.775398	0.382240	1.185747
O46	O	1.108580	-0.477353	0.309322
O47	O	1.441913	-0.144019	0.642655
O48	O	1.775247	0.189314	0.975989
O49	O	1.018201	-0.477321	0.399708
O50	O	1.351534	-0.143988	0.733041
O51	O	1.684867	0.189345	1.066374
C52	C	0.872272	-0.326028	0.354538
C53	C	1.205606	0.007305	0.687872
C54	C	1.538939	0.340638	1.021205
C55	C	0.790474	-0.326040	0.354547
C56	C	1.123807	0.007294	0.687880
C57	C	1.457140	0.340627	1.021213
C58	C	0.602282	-0.369385	0.401544
C59	C	0.935615	-0.036052	0.734877
C60	C	1.268949	0.297282	1.068211
C61	C	0.525423	-0.369387	0.401553
C62	C	0.858757	-0.036054	0.734887
C63	C	1.192090	0.297280	1.068220
C64	C	0.525427	-0.282707	0.307591
C65	C	0.858761	0.050626	0.640924
C66	C	1.192094	0.383959	0.974257
C67	C	0.602285	-0.282702	0.307586
C68	C	0.935618	0.050631	0.640919
C69	C	1.268951	0.383964	0.974252
C70	C	0.640710	-0.326045	0.354561
C71	C	0.974043	0.007288	0.687895
C72	C	1.307377	0.340622	1.021228
C73	C	0.486994	-0.326052	0.354575
C74	C	0.820327	0.007281	0.687909
C75	C	1.153661	0.340615	1.021242
C76	C	0.403660	-0.326054	0.354585
C77	C	0.736994	0.007279	0.687918
C78	C	1.070327	0.340613	1.021252
C79	C	0.724049	-0.326042	0.354553
C80	C	1.057382	0.007291	0.687886
C81	C	1.390716	0.340624	1.021220
C82	C	1.063396	-0.501896	0.354524
C83	C	1.396729	-0.168563	0.687857
C84	C	1.730063	0.164771	1.021190
C85	C	1.063428	-0.577128	0.354533
C86	C	1.396761	-0.243795	0.687866
C87	C	1.730095	0.089539	1.021200
C88	C	1.110534	-0.612466	0.307518
C89	C	1.443868	-0.279133	0.640852
C90	C	1.777201	0.054201	0.974185
C91	C	1.110565	-0.683154	0.307535
C92	C	1.443899	-0.349821	0.640868
C93	C	1.777232	-0.016488	0.974201
C94	C	1.063486	-0.718504	0.354562
C95	C	1.396819	-0.385170	0.687896
C96	C	1.730153	-0.051837	1.021229
C97	C	1.016378	-0.683161	0.401582
C98	C	1.349711	-0.349827	0.734916
C99	C	1.683044	-0.016494	1.068249
C100	C	1.016351	-0.612474	0.401569
C101	C	1.349684	-0.279140	0.734903
C102	C	1.683017	0.054193	1.068236
C103	C	1.016486	-0.968234	0.401637
C104	C	1.349820	-0.634901	0.734970
C105	C	1.683153	-0.301567	1.068304
C106	C	1.016515	-1.038926	0.401645
C107	C	1.349849	-0.705593	0.734978
C108	C	1.683182	-0.372259	1.068311
C109	C	1.110701	-1.038915	0.307602
C110	C	1.444034	-0.705581	0.640936
C111	C	1.777368	-0.372248	0.974269
C112	C	1.110674	-0.968228	0.307589
C113	C	1.444007	-0.634894	0.640923
C114	C	1.777341	-0.301561	0.974256
C115	C	1.063569	-0.932891	0.354611
C116	C	1.396902	-0.599557	0.687945
C117	C	1.730235	-0.266224	1.021278
C118	C	1.063536	-0.856242	0.354594
C119	C	1.396870	-0.522909	0.687928
C120	C	1.730203	-0.189576	1.021261
C121	C	1.063514	-0.795151	0.354577
C122	C	1.396848	-0.461817	0.687910
C123	C	1.730181	-0.128484	1.021243
C124	C	1.255432	-0.326052	0.354581
C125	C	1.588765	0.007281	0.687914
C126	C	1.922098	0.340615	1.021248
C127	C	1.337231	-0.326057	0.354590
C128	C	1.670564	0.007276	0.687923
C129	C	2.003897	0.340609	1.021257
C130	C	1.063514	-0.325986	0.546512
C131	C	1.396847	0.007347	0.879846
C132	C	1.730180	0.340681	1.213179
C133	C	1.063528	-0.325963	0.628311
C134	C	1.396862	0.007371	0.961645
C135	C	1.730195	0.340704	1.294978
C136	C	1.063582	-0.149497	0.354611
C137	C	1.396915	0.183836	0.687945
C138	C	1.730249	0.517169	1.021278
C139	C	1.063626	-0.074265	0.354633
C140	C	1.396959	0.259068	0.687967
C141	C	1.730293	0.592402	1.021300
C142	C	1.063486	-0.326045	0.163353
C143	C	1.396820	0.007288	0.496686
C144	C	1.730153	0.340622	0.830020
C145	C	1.063614	-0.325877	0.081555
C146	C	1.396948	0.007456	0.414888
C147	C	1.730281	0.340789	0.748221
C148	C	1.016524	-0.282640	0.816514
C149	C	1.349858	0.050693	1.149847
C150	C	1.683191	0.384026	1.483180
C151	C	1.016537	-0.282627	0.893372
C152	C	1.349870	0.050707	1.226706
C153	C	1.683204	0.384040	1.560039
C154	C	1.110620	-0.369205	0.893347
C155	C	1.443954	-0.035871	1.226680
C156	C	1.777287	0.297462	1.560014
C157	C	1.110603	-0.369221	0.816489
C158	C	1.443937	-0.035888	1.149823
C159	C	1.777270	0.297445	1.483156
C160	C	1.063556	-0.325935	0.778075
C161	C	1.396890	0.007398	1.111408
C162	C	1.730223	0.340732	1.444742
C163	C	1.063586	-0.325905	0.931791
C164	C	1.396920	0.007428	1.265124
C165	C	1.730253	0.340762	1.598458
C166	C	1.063600	-0.325891	1.015125
C167	C	1.396934	0.007443	1.348458
C168	C	1.730267	0.340776	1.681791
C169	C	1.063541	-0.325950	0.694736
C170	C	1.396874	0.007383	1.028069
C171	C	1.730208	0.340716	1.361403
H172	H	0.633574	-0.247405	0.269327
H173	H	0.966907	0.085928	0.602660
H174	H	1.300240	0.419261	0.935993
H175	H	0.494132	-0.247420	0.269344
H176	H	0.827465	0.085913	0.602677
H177	H	1.160799	0.419247	0.936010
H178	H	0.633566	-0.404676	0.439797
H179	H	0.966899	-0.071342	0.773130
H180	H	1.300233	0.261991	1.106463
H181	H	0.494139	-0.404678	0.439812
H182	H	0.827472	-0.071345	0.773146
H183	H	1.160805	0.261989	1.106479
F184	F	1.160639	-0.574851	0.257460
F185	F	1.493972	-0.241517	0.590793
F186	F	1.827306	0.091816	0.924126
H187	H	0.978238	-0.247372	0.924666
H188	H	1.311571	0.085961	1.257999
H189	H	1.644905	0.419295	1.591333
H190	H	0.978215	-0.247394	0.785239
H191	H	1.311549	0.085939	1.118572
H192	H	1.644882	0.419273	1.451905
F193	F	0.966216	-0.574865	0.451611
F194	F	1.299549	-0.241531	0.784944
F195	F	1.632882	0.091802	1.118277
F196	F	1.160690	-0.415269	0.934237
F197	F	1.494023	-0.081936	1.267570
F198	F	1.827356	0.251397	1.600904
F199	F	1.160662	-0.415307	0.775578
F200	F	1.493995	-0.081973	1.108911
F201	F	1.827328	0.251360	1.442244
H202	H	1.148924	-0.711923	0.269250
H203	H	1.482257	-0.378590	0.602583
H204	H	1.815590	-0.045257	0.935917
F205	F	1.160839	-1.076528	0.257560
F206	F	1.494172	-0.743195	0.590893
F207	F	1.827505	-0.409861	0.924227
F208	F	1.160782	-0.930610	0.257535
F209	F	1.494115	-0.597277	0.590869
F210	F	1.827448	-0.263943	0.924202
H211	H	0.978178	-1.067705	0.439946
H212	H	1.311512	-0.734372	0.773279
H213	H	1.644845	-0.401039	1.106613
H214	H	0.978048	-0.711948	0.439876
H215	H	1.311381	-0.378614	0.773210
H216	H	1.644715	-0.045281	1.106543
F217	F	0.966352	-0.930635	0.451681
F218	F	1.299685	-0.597302	0.785015
F219	F	1.633018	-0.263968	1.118348
