data_functionalizedCrystal
_audit_creation_method	'MofGen! by Chris Wilmer'
_symmetry_space_group_name_H-M	'P1'
_symmetry_Int_Tables_number	1
_symmetry_cell_setting	triclinic
loop_
_symmetry_equiv_pos_as_xyz
  x,y,z
_cell_length_a	17.077404
_cell_length_b	18.101397
_cell_length_c	17.077396
_cell_angle_alpha	90.031673
_cell_angle_beta	90.019501
_cell_angle_gamma	90.020691
loop_
_atom_site_label
_atom_site_type_symbol
_atom_site_fract_x
_atom_site_fract_y
_atom_site_fract_z
Zn1	Zn	1.200068	-0.294825	0.443825
Zn2	Zn	1.199980	-0.418674	0.312552
Zn3	Zn	1.068800	-0.294851	0.312573
Zn4	Zn	1.068773	-0.418630	0.443776
O5	O	1.134405	-0.356745	0.378182
O6	O	1.309903	-0.311261	0.426424
O7	O	1.182554	-0.402278	0.202708
O8	O	1.086260	-0.191215	0.330014
O9	O	1.309839	-0.402253	0.329978
O10	O	1.182702	-0.191196	0.426444
O11	O	1.086176	-0.311306	0.202723
O12	O	0.958949	-0.311263	0.329966
O13	O	1.086215	-0.402178	0.553629
O14	O	0.958930	-0.402203	0.426359
O15	O	1.182677	-0.311219	0.553666
O16	O	1.182528	-0.522301	0.329929
O17	O	1.086130	-0.522269	0.426339
C18	C	0.930457	-0.356732	0.378160
C19	C	0.843208	-0.356744	0.378169
C20	C	0.802228	-0.404167	0.428281
C21	C	0.720247	-0.404169	0.428294
C22	C	0.679248	-0.356750	0.378190
C23	C	0.720234	-0.309321	0.328076
C24	C	0.802213	-0.309316	0.328068
C25	C	0.549364	-0.309336	0.328095
C26	C	0.467379	-0.309341	0.328101
C27	C	0.467398	-0.404188	0.428320
C28	C	0.549377	-0.404184	0.428312
C29	C	0.590357	-0.356755	0.378197
C30	C	1.134338	-0.549156	0.378143
C31	C	1.134381	-0.631470	0.378153
C32	C	1.134481	-0.930561	0.378225
C33	C	1.194963	-0.899225	0.317404
C34	C	1.195172	-0.813606	0.317562
C35	C	1.134432	-0.782178	0.378189
C36	C	1.156857	-0.813184	0.460930
C37	C	1.157325	-0.898829	0.460599
C38	C	1.051413	-0.899070	0.357021
C39	C	1.051823	-0.813421	0.355174
C40	C	1.134402	-0.698319	0.378173
C41	C	1.134513	-1.014420	0.378246
C42	C	1.339150	-0.356759	0.378204
C43	C	1.426399	-0.356765	0.378213
C44	C	1.134453	-0.356690	0.582926
C45	C	1.134473	-0.356667	0.670176
C46	C	1.134494	-0.163583	0.378237
C47	C	1.134532	-0.081269	0.378261
C48	C	1.134403	-0.356746	0.174234
C49	C	1.134535	-0.356561	0.086984
C50	C	1.184702	-0.309301	0.711186
C51	C	1.184712	-0.309276	0.793167
C52	C	1.134495	-0.356622	0.834135
C53	C	1.084260	-0.403990	0.793119
C54	C	1.084248	-0.404011	0.711140
C55	C	1.084292	-0.403946	0.963989
C56	C	1.084306	-0.403927	1.045974
C57	C	1.184756	-0.309211	1.046016
C58	C	1.184743	-0.309232	0.964037
C59	C	1.134509	-0.356601	0.923026
H60	H	0.686846	-0.270709	0.287284
H61	H	0.835577	-0.270695	0.287266
H62	H	1.181142	-0.792646	0.256211
O63	O	1.236559	-0.784875	0.484789
H64	H	1.276649	-0.832346	0.493932
O65	O	1.030104	-0.455031	0.919755
H66	H	1.043543	-0.513152	0.935467
O67	O	1.030062	-0.455096	0.666911
H68	H	1.065161	-0.492787	0.629546
H69	H	1.181102	-0.919869	0.255869
H70	H	0.582757	-0.442800	0.469107
O71	O	1.238872	-0.258239	0.667002
H72	H	1.203753	-0.220572	0.629650
O73	O	0.593567	-0.258182	0.274044
H74	H	0.630893	-0.291281	0.234046
O75	O	0.988912	-0.785095	0.409548
H76	H	1.015662	-0.748146	0.454028
H77	H	1.034914	-0.793163	0.294283
O78	O	1.276031	-0.927644	0.335775
H79	H	1.273434	-0.963989	0.388036
O80	O	1.276676	-0.786382	0.336146
H81	H	1.316093	-0.834390	0.345064
O82	O	1.237751	-0.925225	0.484386
H83	H	1.281802	-0.904024	0.442229
H84	H	1.115203	-0.919555	0.507477
H85	H	1.225616	-0.270708	0.826554
H86	H	1.114152	-0.792824	0.507465
H87	H	0.835604	-0.442784	0.469079
O88	O	1.024388	-0.927748	0.278480
H89	H	1.069867	-0.964770	0.253680
O90	O	0.991680	-0.926061	0.415579
H91	H	1.020966	-0.961712	0.459589
O92	O	1.238907	-0.258172	0.919844
H93	H	1.273837	-0.225225	0.962132
H94	H	1.225657	-0.270640	1.079411
H95	H	1.043413	-0.442478	1.079328
O96	O	1.030090	-0.455051	0.837303
H97	H	1.065208	-0.492729	0.874644
O98	O	0.423141	-0.258221	0.274049
H99	H	0.385797	-0.220598	0.309250
H100	H	0.686885	-0.442787	0.469099
H101	H	0.434029	-0.442804	0.469128
