data_functionalizedCrystal
_audit_creation_method	'MofGen! by Chris Wilmer'
_symmetry_space_group_name_H-M	'P1'
_symmetry_Int_Tables_number	1
_symmetry_cell_setting	triclinic
loop_
_symmetry_equiv_pos_as_xyz
  x,y,z
_cell_length_a	14.908571
_cell_length_b	14.908520
_cell_length_c	14.908308
_cell_angle_alpha	83.639235
_cell_angle_beta	89.824947
_cell_angle_gamma	90.205961
loop_
_atom_site_label
_atom_site_type_symbol
_atom_site_fract_x
_atom_site_fract_y
_atom_site_fract_z
Zn1	Zn	-1.316651	0.470613	-0.613065
Zn2	Zn	-0.816651	0.970613	-0.113065
Zn3	Zn	-1.316549	0.613252	-0.470429
Zn4	Zn	-0.816549	1.113252	0.029571
Zn5	Zn	-1.176020	0.453291	-0.453125
Zn6	Zn	-0.676020	0.953291	0.046875
Zn7	Zn	-1.157642	0.612180	-0.612023
Zn8	Zn	-0.657642	1.112180	-0.112023
O9	O	-1.241715	0.537334	-0.537161
O10	O	-0.741715	1.037334	-0.037161
O11	O	-1.441995	0.497231	-0.601822
O12	O	-0.941995	0.997231	-0.101822
O13	O	-1.305556	0.585232	-0.341941
O14	O	-0.805556	1.085232	0.158059
O15	O	-1.202409	0.329399	-0.467536
O16	O	-0.702409	0.829399	0.032464
O17	O	-1.441920	0.602028	-0.497029
O18	O	-0.941920	1.102028	0.002971
O19	O	-1.305730	0.342124	-0.585043
O20	O	-0.805730	0.842124	-0.085043
O21	O	-1.202310	0.467710	-0.329228
O22	O	-0.702310	0.967710	0.170772
O23	O	-1.048225	0.466671	-0.466525
O24	O	-0.548225	0.966671	0.033475
O25	O	-1.171086	0.600202	-0.738354
O26	O	-0.671086	1.100202	-0.238354
O27	O	-1.034722	0.583406	-0.583267
O28	O	-0.534722	1.083406	-0.083267
O29	O	-1.287909	0.496192	-0.739120
O30	O	-0.787909	0.996192	-0.239120
O31	O	-1.287736	0.739300	-0.496018
O32	O	-0.787736	1.239300	0.003982
O33	O	-1.170987	0.738513	-0.600046
O34	O	-0.670987	1.238513	-0.100046
C35	C	-1.008970	0.523043	-0.522906
C36	C	-0.508970	1.023043	-0.022906
C37	C	-0.909397	0.516953	-0.516830
C38	C	-0.409397	1.016953	-0.016830
C39	C	-1.227379	0.771629	-0.549818
C40	C	-0.727379	1.271629	-0.049818
C41	C	-1.221326	0.871868	-0.555268
C42	C	-0.721326	1.371868	-0.055268
C43	C	-1.227459	0.550010	-0.772372
C44	C	-0.727459	1.050010	-0.272372
C45	C	-1.221383	0.555411	-0.872606
C46	C	-0.721383	1.055411	-0.372606
C47	C	-1.475370	0.551681	-0.551472
C48	C	-0.975370	1.051681	-0.051472
C49	C	-1.574939	0.557795	-0.557571
C50	C	-1.074939	1.057795	-0.057571
C51	C	-0.708277	0.627234	-0.626831
C52	C	-0.208277	1.127234	-0.126831
C53	C	-0.614720	0.621514	-0.621125
C54	C	-0.114720	1.121514	-0.121125
C55	C	-0.628723	0.499789	-0.499719
C56	C	-0.128723	0.999789	0.000281
C57	C	-0.722281	0.505509	-0.505424
C58	C	-0.222281	1.005509	-0.005424
C59	C	-0.762054	0.569235	-0.568981
C60	C	-0.262054	1.069235	-0.068981
C61	C	-0.855613	0.574958	-0.574682
C62	C	-0.355613	1.074958	-0.074682
C63	C	-0.869615	0.453230	-0.453280
C64	C	-0.369615	0.953230	0.046720
C65	C	-0.776058	0.447510	-0.447575
C66	C	-0.276058	0.947510	0.052425
C67	C	-1.256131	0.302127	-0.524476
C68	C	-0.756131	0.802127	-0.024476
C69	C	-1.262274	0.201896	-0.519070
C70	C	-0.762274	0.701896	-0.019070
C71	C	-1.331634	1.060998	-0.457284
C72	C	-0.831634	1.560998	0.042716
C73	C	-1.325950	1.155181	-0.462402
C74	C	-0.825950	1.655181	0.037598
C75	C	-1.204279	1.154420	-0.570626
C76	C	-0.704279	1.654420	-0.070626
C77	C	-1.209963	1.060237	-0.565508
C78	C	-0.709963	1.560237	-0.065508
C79	C	-1.273642	1.013529	-0.508834
C80	C	-0.773642	1.513529	-0.008834
C81	C	-1.279321	0.919343	-0.503712
C82	C	-0.779321	1.419343	-0.003712
C83	C	-1.157655	0.918584	-0.611940
C84	C	-0.657655	1.418584	-0.111940
C85	C	-1.151970	1.012768	-0.617058
C86	C	-0.651970	1.512768	-0.117058
C87	C	-1.331614	0.457236	-1.061752
C88	C	-0.831614	0.957236	-0.561752
C89	C	-1.325908	0.462308	-1.155930
C90	C	-0.825908	0.962308	-0.655930
C91	C	-1.204264	0.570623	-1.155141
C92	C	-0.704264	1.070623	-0.655141
C93	C	-1.209969	0.565551	-1.060963
C94	C	-0.709969	1.065551	-0.560963
C95	C	-1.273647	0.508856	-1.014272
C96	C	-0.773647	1.008856	-0.514272
C97	C	-1.279356	0.503789	-0.920093
C98	C	-0.779356	1.003789	-0.420093
C99	C	-1.157708	0.612099	-0.919305
C100	C	-0.657708	1.112099	-0.419305
C101	C	-1.152002	0.617171	-1.013483
C102	C	-0.652002	1.117171	-0.513483
C103	C	-1.255972	0.524646	-0.302864
C104	C	-0.755972	1.024646	0.197136
C105	C	-1.262236	0.519001	-0.202628
C106	C	-0.762236	1.019001	0.297372
H107	H	-0.887995	0.626848	-0.626432
H108	H	-0.387995	1.126848	-0.126432
C109	C	-0.928778	0.389429	-0.389639
C110	C	-0.428778	0.889429	0.110361
N111	N	-0.973340	0.341378	-0.341703
N112	N	-0.473340	0.841378	0.158297
C113	C	-0.752030	0.697335	-0.696740
C114	C	-0.252030	1.197335	-0.196740
N115	N	-0.784983	0.750135	-0.749398
N116	N	-0.284983	1.250135	-0.249398
C117	C	-0.584956	0.429689	-0.429820
C118	C	-0.084956	0.929689	0.070180
N119	N	-0.551989	0.376887	-0.377173
N120	N	-0.051989	0.876887	0.122827
H121	H	-1.110431	0.879924	-0.653913
H122	H	-0.610431	1.379924	-0.153913
C123	C	-0.555568	0.685324	-0.684759
C124	C	-0.055568	1.185324	-0.184759
N125	N	-0.511015	0.733390	-0.732689
N126	N	-0.011015	1.233390	-0.232689
C127	C	-1.134203	0.632958	-1.206515
C128	C	-0.634203	1.132958	-0.706515
N129	N	-1.081427	0.679903	-1.245210
N130	N	-0.581427	1.179903	-0.745210
C131	C	-1.349400	0.441421	-0.868734
C132	C	-0.849400	0.941421	-0.368734
N133	N	-1.402156	0.394441	-0.830053
N134	N	-0.902156	0.894441	-0.330053
H135	H	-0.743661	0.395624	-0.395831
H136	H	-0.243661	0.895624	0.104169
C137	C	-1.134236	1.205815	-0.632960
C138	C	-0.634236	1.705815	-0.132960
N139	N	-1.081477	1.244526	-0.679908
N140	N	-0.581477	1.744526	-0.179908
H141	H	-1.331169	0.881314	-0.457563
H142	H	-0.831169	1.381314	0.042437
C143	C	-1.081923	1.064156	-0.679390
C144	C	-0.581923	1.564156	-0.179390
N145	N	-1.029158	1.102861	-0.726336
N146	N	-0.529158	1.602861	-0.226336
H147	H	-1.383478	1.022967	-0.411132
H148	H	-0.883478	1.522967	0.088868
H149	H	-1.383467	0.411077	-1.023736
H150	H	-0.883467	0.911077	-0.523736
C151	C	-1.389679	0.405524	-1.208156
C152	C	-0.889679	0.905524	-0.708156
N153	N	-1.437713	0.362752	-1.247492
N154	N	-0.937713	0.862752	-0.747492
H155	H	-1.100156	0.663328	-1.051511
H156	H	-0.600156	1.163328	-0.551511
C157	C	-1.093941	0.668886	-0.867069
C158	C	-0.593941	1.168886	-0.367069
N159	N	-1.045914	0.711658	-0.827724
N160	N	-0.545914	1.211658	-0.327724
C161	C	-1.389743	1.207394	-0.405689
C162	C	-0.889743	1.707394	0.094311
N163	N	-1.437795	1.246720	-0.362970
N164	N	-0.937795	1.746720	0.137030
