data_functionalizedCrystal
_audit_creation_method	'MofGen! by Chris Wilmer'
_symmetry_space_group_name_H-M	'P1'
_symmetry_Int_Tables_number	1
_symmetry_cell_setting	triclinic
loop_
_symmetry_equiv_pos_as_xyz
  x,y,z
_cell_length_a	19.805407
_cell_length_b	19.805405
_cell_length_c	12.759393
_cell_angle_alpha	89.966133
_cell_angle_beta	89.971683
_cell_angle_gamma	90.025972
loop_
_atom_site_label
_atom_site_type_symbol
_atom_site_fract_x
_atom_site_fract_y
_atom_site_fract_z
Zn1	Zn	1.034762	-0.269444	-0.594202
Zn2	Zn	1.534762	0.230556	-0.094202
Zn3	Zn	1.034668	-0.382647	-0.418512
Zn4	Zn	1.534668	0.117353	0.081488
Zn5	Zn	0.921568	-0.269475	-0.418515
Zn6	Zn	1.421568	0.230525	0.081485
Zn7	Zn	0.921539	-0.382595	-0.594127
Zn8	Zn	1.421539	0.117405	-0.094127
O9	O	0.978134	-0.326040	-0.506339
O10	O	1.478134	0.173960	-0.006339
O11	O	1.129466	-0.284469	-0.570927
O12	O	1.629466	0.215531	-0.070927
O13	O	1.019638	-0.367669	-0.271491
O14	O	1.519638	0.132331	0.228509
O15	O	0.936635	-0.174755	-0.441853
O16	O	1.436635	0.325245	0.058147
O17	O	1.129397	-0.367639	-0.441848
O18	O	1.629397	0.132361	0.058152
O19	O	1.019798	-0.174732	-0.570930
O20	O	1.519798	0.325268	-0.070930
O21	O	0.936544	-0.284523	-0.271493
O22	O	1.436544	0.215477	0.228507
O23	O	0.826848	-0.284473	-0.441780
O24	O	1.326848	0.215527	0.058220
O25	O	0.936586	-0.367550	-0.741158
O26	O	1.436586	0.132450	-0.241158
O27	O	0.826827	-0.367581	-0.570801
O28	O	1.326827	0.132419	-0.070801
O29	O	1.019770	-0.284419	-0.741213
O30	O	1.519770	0.215581	-0.241213
O31	O	1.019610	-0.477356	-0.441775
O32	O	1.519610	0.022644	0.058225
O33	O	0.936495	-0.477318	-0.570798
O34	O	1.436495	0.022682	-0.070798
C35	C	0.802278	-0.326025	-0.506283
C36	C	1.302278	0.173975	-0.006283
C37	C	0.727046	-0.326035	-0.506284
C38	C	1.227046	0.173965	-0.006284
C39	C	0.265262	-0.369396	-0.573482
C40	C	0.765262	0.130604	-0.073482
C41	C	0.335950	-0.369395	-0.573460
C42	C	0.835950	0.130605	-0.073460
C43	C	0.371285	-0.326057	-0.506380
C44	C	0.871285	0.173943	-0.006380
C45	C	0.335927	-0.282721	-0.439311
C46	C	0.835927	0.217279	0.060689
C47	C	0.265240	-0.282726	-0.439328
C48	C	0.765240	0.217274	0.060672
C49	C	0.621000	-0.282701	-0.439237
C50	C	1.121000	0.217299	0.060763
C51	C	0.691692	-0.282697	-0.439226
C52	C	1.191692	0.217303	0.060774
C53	C	0.691711	-0.369369	-0.573368
C54	C	1.191711	0.130631	-0.073368
C55	C	0.621024	-0.369374	-0.573386
C56	C	1.121024	0.130626	-0.073386
C57	C	0.585672	-0.326042	-0.506313
C58	C	1.085672	0.173958	-0.006313
C59	C	0.509023	-0.326045	-0.506337
C60	C	1.009023	0.173955	-0.006337
C61	C	0.447932	-0.326050	-0.506361
C62	C	0.947932	0.173950	-0.006361
C63	C	0.978057	-0.501896	-0.506301
C64	C	1.478057	-0.001896	-0.006301
C65	C	0.978086	-0.577128	-0.506320
C66	C	1.478086	-0.077128	-0.006320
C67	C	1.021363	-0.612402	-0.573583
C68	C	1.521363	-0.112402	-0.073583
C69	C	1.021388	-0.683091	-0.573602
C70	C	1.521388	-0.183091	-0.073602
C71	C	0.978138	-0.718504	-0.506353
C72	C	1.478138	-0.218504	-0.006353
C73	C	0.934856	-0.683225	-0.439087
C74	C	1.434856	-0.183225	0.060913
C75	C	0.934828	-0.612538	-0.439073
C76	C	1.434828	-0.112538	0.060927
C77	C	0.934965	-0.968298	-0.439141
C78	C	1.434965	-0.468298	0.060859
C79	C	0.934997	-1.038990	-0.439157
C80	C	1.434997	-0.538990	0.060843
C81	C	1.021524	-1.038851	-0.573670
C82	C	1.521524	-0.538851	-0.073670
C83	C	1.021496	-0.968164	-0.573656
C84	C	1.521496	-0.468164	-0.073656
C85	C	0.978212	-0.932891	-0.506395
C86	C	1.478212	-0.432891	-0.006395
C87	C	0.978185	-0.856243	-0.506376
C88	C	1.478185	-0.356243	-0.006376
C89	C	0.978168	-0.795151	-0.506366
C90	C	1.478168	-0.295151	-0.006366
C91	C	1.154677	-0.326056	-0.506396
C92	C	1.654677	0.173944	-0.006396
C93	C	1.229909	-0.326063	-0.506420
C94	C	1.729909	0.173937	-0.006420
C95	C	0.978185	-0.325975	-0.780372
C96	C	1.478185	0.174025	-0.280372
C97	C	0.978207	-0.325948	-0.897149
C98	C	1.478207	0.174052	-0.397149
C99	C	0.978230	-0.149497	-0.506400
C100	C	1.478230	0.350503	-0.006400
C101	C	0.978271	-0.074265	-0.506426
C102	C	1.478271	0.425735	-0.006426
C103	C	1.021524	-0.282654	-0.952042
C104	C	1.521524	0.217346	-0.452042
C105	C	1.021535	-0.282625	-1.061766
C106	C	1.521535	0.217375	-0.561766
C107	C	0.934910	-0.369189	-1.061695
C108	C	1.434910	0.130811	-0.561695
C109	C	0.934896	-0.369214	-0.951973
C110	C	1.434896	0.130786	-0.451973
C111	C	0.978123	-0.326056	-0.233372
C112	C	1.478123	0.173944	0.266628
C113	C	0.978232	-0.325893	-0.116596
C114	C	1.478232	0.174107	0.383404
H115	H	0.720503	-0.404654	-0.627980
H116	H	1.220503	0.095346	-0.127980
H117	H	0.236498	-0.404684	-0.628112
H118	H	0.736498	0.095316	-0.128112
H119	H	1.056788	-0.247422	-0.907407
H120	H	1.556788	0.252578	-0.407407
O121	O	1.068257	-0.235924	-1.120960
O122	O	1.568257	0.264076	-0.620960
H123	H	1.037986	-0.201465	-1.170932
H124	H	1.537986	0.298535	-0.670932
H125	H	0.899617	-0.404468	-0.907278
H126	H	1.399617	0.095532	-0.407278
O127	O	0.888199	-0.415854	-1.120825
O128	O	1.388199	0.084146	-0.620825
H129	H	0.895489	-0.408568	-1.206344
H130	H	1.395489	0.091432	-0.706344
O131	O	1.068199	-1.076898	-0.646236
O132	O	1.568199	-0.576898	-0.146236
H133	H	1.102659	-1.109104	-0.599279
H134	H	1.602659	-0.609104	-0.099279
H135	H	0.364732	-0.404683	-0.628066
H136	H	0.864732	0.095317	-0.128066
H137	H	0.592258	-0.404663	-0.628013
H138	H	1.092258	0.095337	-0.128013
H139	H	0.720459	-0.247403	-0.384600
H140	H	1.220459	0.252597	0.115400
H141	H	1.056634	-0.711807	-0.628366
H142	H	1.556634	-0.211807	-0.128366
O143	O	0.582874	-0.235959	-0.366908
O144	O	1.082874	0.264041	0.133092
H145	H	0.619322	-0.205818	-0.320273
H146	H	1.119322	0.294182	0.179727
H147	H	0.364701	-0.247437	-0.384688
H148	H	0.864701	0.252563	0.115312
H149	H	0.236456	-0.247438	-0.384722
H150	H	0.736456	0.252562	0.115278
H151	H	1.056585	-0.583573	-0.628340
H152	H	1.556585	-0.083573	-0.128340
H153	H	0.899638	-0.712064	-0.384335
H154	H	1.399638	-0.212064	0.115665
O155	O	1.068154	-0.929966	-0.646172
O156	O	1.568154	-0.429966	-0.146172
H157	H	1.098253	-0.966371	-0.692950
H158	H	1.598253	-0.466371	-0.192950
H159	H	0.899774	-1.067822	-0.384393
H160	H	1.399774	-0.567822	0.115607
H161	H	0.899587	-0.583819	-0.384302
H162	H	1.399587	-0.083819	0.115698
O163	O	0.888296	-0.930257	-0.366577
O164	O	1.388296	-0.430257	0.133423
H165	H	0.858237	-0.966760	-0.319805
H166	H	1.358237	-0.466760	0.180195
