data_functionalizedCrystal
_audit_creation_method	'MofGen! by Chris Wilmer'
_symmetry_space_group_name_H-M	'P1'
_symmetry_Int_Tables_number	1
_symmetry_cell_setting	triclinic
loop_
_symmetry_equiv_pos_as_xyz
  x,y,z
_cell_length_a	12.759401
_cell_length_b	19.076808
_cell_length_c	12.759393
_cell_angle_alpha	87.665862
_cell_angle_beta	89.979062
_cell_angle_gamma	92.325019
loop_
_atom_site_label
_atom_site_type_symbol
_atom_site_fract_x
_atom_site_fract_y
_atom_site_fract_z
Zn1	Zn	1.589386	-0.280155	-0.577177
Zn2	Zn	1.582184	-0.397876	-0.394420
Zn3	Zn	1.413683	-0.280193	-0.401510
Zn4	Zn	1.406587	-0.397827	-0.570060
O5	O	1.497960	-0.339013	-0.485792
O6	O	1.735451	-0.295776	-0.552945
O7	O	1.559788	-0.382302	-0.248337
O8	O	1.442974	-0.181691	-0.430759
O9	O	1.730160	-0.382265	-0.418675
O10	O	1.572062	-0.181663	-0.559820
O11	O	1.435990	-0.295840	-0.253546
O12	O	1.265721	-0.295792	-0.423858
O13	O	1.430880	-0.382182	-0.718028
O14	O	1.260507	-0.382218	-0.547691
O15	O	1.565182	-0.295729	-0.723257
O16	O	1.552907	-0.496367	-0.411773
O17	O	1.423896	-0.496331	-0.540816
C18	C	1.224993	-0.339004	-0.485772
C19	C	1.108216	-0.339018	-0.485787
C20	C	1.050662	-0.384088	-0.550157
C21	C	0.940938	-0.384091	-0.550178
C22	C	0.946330	-0.293951	-0.421449
C23	C	1.056052	-0.293945	-0.421435
C24	C	1.486879	-0.521888	-0.474776
C25	C	1.482234	-0.600123	-0.470098
C26	C	1.547211	-0.636803	-0.535150
C27	C	1.542843	-0.710312	-0.530757
C28	C	1.473502	-0.747141	-0.461305
C29	C	1.408518	-0.710456	-0.396250
C30	C	1.412881	-0.636947	-0.400650
C31	C	1.453245	-0.966996	-0.440941
C32	C	1.448889	-1.040509	-0.436545
C33	C	1.583213	-1.040361	-0.571053
C34	C	1.587575	-0.966851	-0.575442
C35	C	1.522587	-0.930172	-0.510391
N36	N	1.469038	-0.822280	-0.456811
N37	N	1.527047	-0.855035	-0.514892
C38	C	1.771992	-0.339022	-0.485813
C39	C	1.888769	-0.339026	-0.485822
C40	C	1.498042	-0.338945	-0.759830
C41	C	1.498078	-0.338917	-0.876608
C42	C	1.509113	-0.155424	-0.496874
C43	C	1.513866	-0.077189	-0.501597
C44	C	1.568014	-0.293893	-0.934195
C45	C	1.568034	-0.293863	-1.043921
C46	C	1.428177	-0.383885	-1.038463
C47	C	1.428153	-0.383912	-0.928739
C48	C	1.497941	-0.339030	-0.212824
C49	C	1.498121	-0.338860	-0.096058
H50	H	0.903845	-0.257256	-0.369055
C51	C	1.643966	-0.244961	-0.877788
C52	C	1.705197	-0.205511	-0.951712
C53	C	1.775165	-0.160418	-0.899793
H54	H	1.688198	-0.271818	-0.833367
H55	H	1.605655	-0.214264	-0.836855
H56	H	1.743505	-0.236205	-0.992627
H57	H	1.660994	-0.178640	-0.996136
H58	H	1.736854	-0.129721	-0.858861
H59	H	1.819389	-0.187281	-0.855374
H60	H	1.816711	-0.133642	-0.949943
H61	H	1.371195	-0.420574	-0.881851
H62	H	1.624981	-0.257200	-1.090803
H63	H	1.603681	-0.606822	-0.591701
C64	C	1.653693	-1.080098	-0.641866
C65	C	1.631829	-1.062164	-0.746863
C66	C	1.696739	-1.098750	-0.812133
H67	H	1.641225	-1.129162	-0.629444
H68	H	1.725032	-1.068006	-0.627351
H69	H	1.560507	-1.074261	-0.761373
H70	H	1.644303	-1.013107	-0.759318
H71	H	1.768078	-1.086658	-0.797618
H72	H	1.684266	-1.147812	-0.799702
H73	H	1.681920	-1.086582	-0.883380
H74	H	1.359969	-0.607083	-0.347679
C75	C	1.662694	-0.926782	-0.650921
C76	C	1.605682	-0.884570	-0.720718
C77	C	1.674851	-0.847644	-0.790253
H78	H	1.700793	-0.959079	-0.689138
H79	H	1.710183	-0.898059	-0.612521
H80	H	1.558212	-0.913291	-0.759114
H81	H	1.567586	-0.852261	-0.682530
H82	H	1.722340	-0.818920	-0.751853
H83	H	1.712946	-0.879946	-0.828463
H84	H	1.636179	-0.818994	-0.837612
C85	C	1.373486	-1.080370	-0.361108
C86	C	1.317484	-1.032516	-0.305101
C87	C	1.248010	-1.069209	-0.235614
H88	H	1.411880	-1.109045	-0.313555
H89	H	1.325938	-1.109040	-0.399525
H90	H	1.365026	-1.003858	-0.266687
H91	H	1.279070	-1.003839	-0.352627
H92	H	1.200462	-1.097879	-0.274030
H93	H	1.286412	-1.097883	-0.188068
H94	H	1.209998	-1.036746	-0.197612
C95	C	1.107107	-0.433043	-0.620145
C96	C	1.033215	-0.472499	-0.676544
C97	C	1.085170	-0.517596	-0.741043
H98	H	1.148035	-0.463741	-0.578146
H99	H	1.151537	-0.406166	-0.667657
H100	H	0.988803	-0.499374	-0.629038
H101	H	0.992283	-0.441819	-0.718563
H102	H	1.129599	-0.490719	-0.788555
H103	H	1.126096	-0.548289	-0.699036
H104	H	1.035042	-0.544367	-0.779324
H105	H	0.894083	-0.420790	-0.602596
H106	H	1.371249	-0.420520	-1.080922
C107	C	1.118487	-0.245097	-0.351361
C108	C	1.090847	-0.260351	-0.246454
C109	C	1.148350	-0.215373	-0.181878
H110	H	1.103424	-0.197792	-0.369566
H111	H	1.191313	-0.251554	-0.360501
H112	H	1.018037	-0.253888	-0.237319
H113	H	1.105913	-0.307648	-0.228217
H114	H	1.221176	-0.221831	-0.191019
H115	H	1.133282	-0.168071	-0.200093
H116	H	1.129611	-0.225722	-0.110692
H117	H	1.595763	-0.740174	-0.583722
H118	H	1.352055	-0.740447	-0.339705
H119	H	1.400331	-0.937138	-0.387972
