data_functionalizedCrystal
_audit_creation_method	'MofGen! by Chris Wilmer'
_symmetry_space_group_name_H-M	'P1'
_symmetry_Int_Tables_number	1
_symmetry_cell_setting	triclinic
loop_
_symmetry_equiv_pos_as_xyz
  x,y,z
_cell_length_a	18.215407
_cell_length_b	13.032721
_cell_length_c	18.215399
_cell_angle_alpha	97.154738
_cell_angle_beta	89.980167
_cell_angle_gamma	97.205008
loop_
_atom_site_label
_atom_site_type_symbol
_atom_site_fract_x
_atom_site_fract_y
_atom_site_fract_z
Zn1	Zn	1.087881	-0.416041	-0.453320
Zn2	Zn	1.421214	-0.082708	-0.119987
Zn3	Zn	1.754548	0.250626	0.213346
Zn4	Zn	1.072167	-0.590804	-0.345882
Zn5	Zn	1.405500	-0.257471	-0.012549
Zn6	Zn	1.738833	0.075862	0.320784
Zn7	Zn	0.964810	-0.416075	-0.330271
Zn8	Zn	1.298144	-0.082742	0.003063
Zn9	Zn	1.631477	0.250591	0.336396
Zn10	Zn	0.949162	-0.590746	-0.468902
Zn11	Zn	1.282495	-0.257413	-0.135569
Zn12	Zn	1.615829	0.075920	0.197765
O13	O	1.018505	-0.503417	-0.399594
O14	O	1.351838	-0.170083	-0.066260
O15	O	1.685172	0.163250	0.267073
O16	O	1.188780	-0.439234	-0.439081
O17	O	1.522113	-0.105900	-0.105748
O18	O	1.855446	0.227433	0.227586
O19	O	1.057898	-0.567665	-0.240831
O20	O	1.391231	-0.234332	0.092503
O21	O	1.724565	0.099002	0.425836
O22	O	0.994261	-0.269831	-0.333539
O23	O	1.327595	0.063502	-0.000206
O24	O	1.660928	0.396835	0.333128
O25	O	1.177235	-0.567632	-0.360147
O26	O	1.510568	-0.234298	-0.026813
O27	O	1.843901	0.099035	0.306520
O28	O	1.084681	-0.269806	-0.423943
O29	O	1.418014	0.063527	-0.090610
O30	O	1.751347	0.396861	0.242724
O31	O	0.979024	-0.439292	-0.229361
O32	O	1.312357	-0.105959	0.103973
O33	O	1.645691	0.227375	0.437306
O34	O	0.859751	-0.439236	-0.348648
O35	O	1.193085	-0.105902	-0.015315
O36	O	1.526418	0.227431	0.318019
O37	O	0.967591	-0.567533	-0.569816
O38	O	1.300924	-0.234199	-0.236483
O39	O	1.634257	0.099134	0.096851
O40	O	0.848254	-0.567566	-0.450500
O41	O	1.181588	-0.234232	-0.117166
O42	O	1.514921	0.099101	0.216167
O43	O	1.069507	-0.439177	-0.558368
O44	O	1.402840	-0.105844	-0.225035
O45	O	1.736174	0.227489	0.108299
O46	O	1.042724	-0.737036	-0.375256
O47	O	1.376058	-0.403703	-0.041922
O48	O	1.709391	-0.070369	0.291411
O49	O	0.952353	-0.736993	-0.465638
O50	O	1.285687	-0.403660	-0.132304
O51	O	1.619020	-0.070327	0.201029
C52	C	0.827300	-0.503399	-0.399571
C53	C	1.160634	-0.170066	-0.066238
C54	C	1.493967	0.163268	0.267096
C55	C	0.745500	-0.503416	-0.399581
C56	C	1.078833	-0.170083	-0.066248
C57	C	1.412166	0.163250	0.267086
C58	C	0.551329	-0.570343	-0.452566
C59	C	0.884663	-0.237010	-0.119232
C60	C	1.217996	0.096324	0.214101
C61	C	0.474470	-0.570346	-0.452575
C62	C	0.807804	-0.237013	-0.119242
C63	C	1.141137	0.096321	0.214092
C64	C	0.486431	-0.436510	-0.346640
C65	C	0.819764	-0.103176	-0.013306
C66	C	1.153098	0.230157	0.320027
C67	C	0.563289	-0.436502	-0.346634
C68	C	0.896622	-0.103168	-0.013301
C69	C	1.229956	0.230165	0.320032
C70	C	0.595736	-0.503424	-0.399597
C71	C	0.929069	-0.170091	-0.066263
C72	C	1.262402	0.163242	0.267070
C73	C	0.442019	-0.503435	-0.399612
C74	C	0.775352	-0.170102	-0.066278
C75	C	1.108685	0.163231	0.267055
C76	C	0.358685	-0.503438	-0.399621
C77	C	0.692018	-0.170105	-0.066288
C78	C	1.025351	0.163228	0.267045
C79	C	0.679075	-0.503420	-0.399588
C80	C	1.012408	-0.170087	-0.066254
C81	C	1.345742	0.163246	0.267079
C82	C	0.994156	-0.774933	-0.423847
C83	C	1.327489	-0.441600	-0.090514
C84	C	1.660822	-0.108266	0.242819
C85	C	0.983806	-0.891089	-0.434248
C86	C	1.317140	-0.557756	-0.100915
C87	C	1.650473	-0.224422	0.232419
C88	C	1.023945	-0.942861	-0.394199
C89	C	1.357279	-0.609528	-0.060866
C90	C	1.690612	-0.276195	0.272468
C91	C	1.013250	-1.062914	-0.404947
C92	C	1.346583	-0.729581	-0.071614
C93	C	1.679916	-0.396248	0.261719
C94	C	1.210456	-0.503435	-0.399617
C95	C	1.543789	-0.170102	-0.066284
C96	C	1.877123	0.163231	0.267050
C97	C	1.292254	-0.503443	-0.399627
C98	C	1.625588	-0.170110	-0.066294
C99	C	1.958921	0.163223	0.267040
C100	C	1.018556	-0.503345	-0.591540
C101	C	1.351890	-0.170011	-0.258207
C102	C	1.685223	0.163322	0.075126
C103	C	1.018578	-0.503314	-0.673337
C104	C	1.351911	-0.169981	-0.340003
C105	C	1.685245	0.163353	-0.006670
C106	C	1.042969	-0.230840	-0.375262
C107	C	1.376303	0.102493	-0.041928
C108	C	1.709636	0.435827	0.291405
C109	C	1.053395	-0.114684	-0.364893
C110	C	1.386728	0.218649	-0.031559
C111	C	1.720061	0.551982	0.301774
C112	C	1.071668	-0.436417	-0.855565
C113	C	1.405002	-0.103084	-0.522232
C114	C	1.738335	0.230250	-0.188899
C115	C	1.071680	-0.436386	-0.932421
C116	C	1.405013	-0.103053	-0.599088
C117	C	1.738347	0.230280	-0.265755
C118	C	0.965554	-0.570049	-0.944331
C119	C	1.298888	-0.236716	-0.610998
C120	C	1.632221	0.096617	-0.277665
C121	C	0.965540	-0.570074	-0.867476
C122	C	1.298873	-0.236740	-0.534143
C123	C	1.632207	0.096593	-0.200809
C124	C	1.018601	-0.503259	-0.823095
C125	C	1.351935	-0.169926	-0.489762
C126	C	1.685268	0.163408	-0.156429
C127	C	1.018627	-0.503204	-0.976807
C128	C	1.351960	-0.169871	-0.643473
C129	C	1.685294	0.163462	-0.310140
C130	C	1.018639	-0.503172	-1.060137
C131	C	1.351972	-0.169838	-0.726804
C132	C	1.685306	0.163495	-0.393471
C133	C	1.018589	-0.503290	-0.739759
C134	C	1.351922	-0.169957	-0.406426
C135	C	1.685255	0.163377	-0.073092
C136	C	1.018503	-0.503413	-0.208387
C137	C	1.351836	-0.170080	0.124946
C138	C	1.685170	0.163254	0.458279
C139	C	1.018650	-0.503149	-0.126565
C140	C	1.351983	-0.169816	0.206768
C141	C	1.685317	0.163517	0.540101
H142	H	0.460003	-0.382025	-0.303519
H143	H	0.793336	-0.048692	0.029815
H144	H	1.126670	0.284642	0.363148
H145	H	0.438318	-0.624836	-0.495709
H146	H	0.771651	-0.291503	-0.162375
H147	H	1.104984	0.041830	0.170958
F148	F	0.585859	-0.641565	-0.508935
F149	F	0.919193	-0.308232	-0.175601
F150	F	1.252526	0.025102	0.157732
H151	H	0.599447	-0.382002	-0.303500
H152	H	0.932780	-0.048669	0.029834
H153	H	1.266113	0.284664	0.363167
F154	F	0.957982	-1.121141	-0.460172
F155	F	1.291316	-0.787808	-0.126839
F156	F	1.624649	-0.454474	0.206494
H157	H	1.114891	-0.381955	-0.958854
H158	H	1.448225	-0.048622	-0.625521
H159	H	1.781558	0.284711	-0.292188
F160	F	0.909088	-0.641158	-0.991571
F161	F	1.242422	-0.307825	-0.658238
F162	F	1.575755	0.025509	-0.324904
F163	F	0.928542	-0.949319	-0.489470
F164	F	1.261875	-0.615986	-0.156137
F165	F	1.595208	-0.282653	0.177197
H166	H	1.114872	-0.382009	-0.819432
H167	H	1.448206	-0.048676	-0.486099
H168	H	1.781539	0.284657	-0.152765
H169	H	1.066232	-0.898309	-0.351957
H170	H	1.399565	-0.564976	-0.018623
H171	H	1.732898	-0.231643	0.314710
F172	F	1.108670	-1.056460	-0.309674
F173	F	1.442003	-0.723127	0.023659
F174	F	1.775336	-0.389793	0.356993
H175	H	0.922321	-0.624504	-0.841039
H176	H	1.255655	-0.291171	-0.507705
H177	H	1.588988	0.042163	-0.174372
