data_functionalizedCrystal
_audit_creation_method	'MofGen! by Chris Wilmer'
_symmetry_space_group_name_H-M	'P1'
_symmetry_Int_Tables_number	1
_symmetry_cell_setting	triclinic
loop_
_symmetry_equiv_pos_as_xyz
  x,y,z
_cell_length_a	16.109301
_cell_length_b	19.288864
_cell_length_c	17.766277
_cell_angle_alpha	89.976791
_cell_angle_beta	90.007786
_cell_angle_gamma	96.701137
loop_
_atom_site_label
_atom_site_type_symbol
_atom_site_fract_x
_atom_site_fract_y
_atom_site_fract_z
O1	O	0.103716	-0.921601	0.062838
O2	O	0.603716	-0.421601	0.562838
O3	O	0.117707	-0.719373	0.062787
O4	O	0.617707	-0.219373	0.562787
O5	O	-0.010338	-0.826042	0.062806
O6	O	0.489662	-0.326042	0.562806
O7	O	0.231761	-0.814932	0.062819
O8	O	0.731761	-0.314932	0.562819
O9	O	-0.010345	-0.826024	-0.062382
O10	O	0.489655	-0.326024	0.437618
O11	O	0.117701	-0.719355	-0.062402
O12	O	0.617701	-0.219355	0.437598
O13	O	0.103710	-0.921582	-0.062351
O14	O	0.603710	-0.421582	0.437649
Cu15	Cu	0.110704	-0.820467	-0.073807
Cu16	Cu	0.610704	-0.320467	0.426193
Cu17	Cu	0.110712	-0.820489	0.074243
Cu18	Cu	0.610712	-0.320489	0.574243
O19	O	0.231755	-0.814913	-0.062370
O20	O	0.731755	-0.314913	0.437630
C21	C	-0.041315	-0.825583	0.000211
C22	C	0.458685	-0.325583	0.500211
C23	C	-0.133606	-0.824234	0.000210
C24	C	0.366394	-0.324234	0.500210
C25	C	0.117254	-0.693487	0.000186
C26	C	0.617254	-0.193487	0.500186
C27	C	0.115902	-0.616380	0.000166
C28	C	0.615902	-0.116380	0.500166
C29	C	0.104163	-0.947469	0.000252
C30	C	0.604163	-0.447469	0.500252
C31	C	0.105514	-1.024576	0.000277
C32	C	0.605514	-0.524576	0.500277
C33	C	-0.356084	-0.884391	0.000237
C34	C	0.143916	-0.384391	0.500237
C35	C	-0.442800	-0.883118	0.000243
C36	C	0.057200	-0.383118	0.500243
C37	C	-0.422493	-0.756559	0.000208
C38	C	0.077507	-0.256559	0.500208
C39	C	-0.335778	-0.757833	0.000208
C40	C	0.164222	-0.257833	0.500208
C41	C	-0.302577	-0.821751	0.000218
C42	C	0.197423	-0.321751	0.500218
C43	C	-0.476007	-0.819204	0.000225
C44	C	0.023993	-0.319204	0.500225
C45	C	-0.570028	-0.817823	0.000231
C46	C	-0.070028	-0.317823	0.500231
C47	C	-0.208549	-0.823133	0.000213
C48	C	0.291451	-0.323133	0.500213
C49	C	0.262732	-0.815372	0.000227
C50	C	0.762732	-0.315372	0.500227
C51	C	0.355022	-0.816722	0.000233
C52	C	0.855022	-0.316722	0.500233
N53	N	0.110699	-0.820456	-0.177937
N54	N	0.610699	-0.320456	0.322063
C55	C	0.191034	-0.571863	0.000182
C56	C	0.691034	-0.071863	0.500182
C57	C	0.189764	-0.499413	0.000190
C58	C	0.689764	0.000587	0.500190
C59	C	0.113359	-0.471483	0.000198
C60	C	0.613359	0.028517	0.500198
C61	C	0.038218	-0.516009	0.000178
C62	C	0.538218	-0.016009	0.500178
C63	C	0.039489	-0.588458	0.000162
C64	C	0.539489	-0.088458	0.500162
C65	C	0.053298	-0.363084	0.044079
C66	C	0.553298	0.136916	0.544079
C67	C	0.052029	-0.290636	0.044100
C68	C	0.552029	0.209364	0.544100
C69	C	0.109433	-0.248028	0.000243
C70	C	0.609433	0.251972	0.500243
C71	C	0.168120	-0.277874	-0.043624
C72	C	0.668120	0.222126	0.456376
C73	C	0.169391	-0.350323	-0.043640
C74	C	0.669391	0.149677	0.456360
C75	C	0.111971	-0.392925	0.000214
C76	C	0.611971	0.107075	0.500214
C77	C	0.183193	-0.124952	0.000267
C78	C	0.683193	0.375048	0.500267
C79	C	0.181920	-0.052501	0.000270
C80	C	0.681920	0.447499	0.500270
C81	C	0.030372	-0.069099	0.000266
C82	C	0.530372	0.430901	0.500266
C83	C	0.031647	-0.141548	0.000254
C84	C	0.531647	0.358452	0.500254
C85	C	0.108060	-0.169470	0.000259
C86	C	0.608060	0.330530	0.500259
C87	C	0.054028	-0.867704	-0.217315
C88	C	0.554028	-0.367704	0.282685
C89	C	0.054024	-0.867708	-0.296117
C90	C	0.554024	-0.367708	0.203883
C91	C	0.110705	-0.820471	-0.335538
C92	C	0.610705	-0.320471	0.164462
C93	C	0.167380	-0.773214	-0.296150
C94	C	0.667380	-0.273214	0.203850
C95	C	0.167377	-0.773206	-0.217350
C96	C	0.667377	-0.273206	0.282650
C97	C	0.186459	-0.811353	-0.460373
C98	C	0.686459	-0.311353	0.039627
C99	C	0.186463	-0.811365	-0.539172
C100	C	0.686463	-0.311365	-0.039172
C101	C	0.110715	-0.820489	-0.578584
C102	C	0.610715	-0.320489	-0.078584
C103	C	0.034960	-0.829616	-0.539188
C104	C	0.534960	-0.329616	-0.039188
C105	C	0.034956	-0.829609	-0.460387
C106	C	0.534956	-0.329609	0.039613
C107	C	0.110715	-0.820473	-0.420983
C108	C	0.610715	-0.320473	0.079017
C109	C	0.054035	-0.867745	-0.703408
C110	C	0.554035	-0.367745	-0.203408
C111	C	0.054030	-0.867744	-0.782212
C112	C	0.554030	-0.367744	-0.282212
C113	C	0.167394	-0.773252	-0.782243
C114	C	0.667394	-0.273252	-0.282243
C115	C	0.167392	-0.773250	-0.703441
C116	C	0.667392	-0.273250	-0.203441
C117	C	0.110713	-0.820500	-0.664028
C118	C	0.610713	-0.320500	-0.164028
N119	N	0.110711	-0.820505	0.178373
N120	N	0.610711	-0.320505	0.678373
H121	H	-0.329054	-0.936438	0.000247
H122	H	0.170946	-0.436438	0.500247
H123	H	0.007878	-0.906217	-0.814274
H124	H	0.507878	-0.406217	-0.314274
H125	H	-0.029534	-0.177795	0.000246
H126	H	0.470466	0.322205	0.500246
C127	C	-0.048366	-0.839637	-0.417051
C128	C	0.451634	-0.339637	0.082949
H129	H	-0.093480	-0.845168	-0.451802
H130	H	0.406520	-0.345168	0.048198
H131	H	-0.050123	-0.880018	-0.386204
H132	H	0.449877	-0.380018	0.113796
H133	H	-0.052904	-0.799898	-0.386419
H134	H	0.447096	-0.299898	0.113581
C135	C	-0.501655	-0.952022	0.000259
C136	C	-0.001655	-0.452022	0.500259
H137	H	-0.469458	-0.990269	0.000260
H138	H	0.030542	-0.490269	0.500260
H139	H	-0.535898	-0.954165	0.043916
H140	H	-0.035898	-0.454165	0.543916
H141	H	-0.535910	-0.954148	-0.043402
H142	H	-0.035910	-0.454148	0.456598
C143	C	0.264569	-0.003531	0.000288
C144	C	0.764569	0.496469	0.500288
H145	H	0.310256	-0.030540	0.000295
H146	H	0.810256	0.469460	0.500295
H147	H	0.267227	0.025100	-0.043362
H148	H	0.767227	0.525100	0.456638
H149	H	0.267219	0.025052	0.043955
H150	H	0.767219	0.525052	0.543955
H151	H	0.250947	-0.463160	0.000201
H152	H	0.750947	0.036840	0.500201
C153	C	0.229744	-0.721290	-0.825592
C154	C	0.729744	-0.221290	-0.325592
H155	H	0.263495	-0.693147	-0.790850
H156	H	0.763495	-0.193147	-0.290850
H157	H	0.264278	-0.746267	-0.856314
H158	H	0.764278	-0.246267	-0.356314
H159	H	0.199920	-0.692385	-0.856350
H160	H	0.699920	-0.192385	-0.356350
C161	C	-0.043159	-0.637429	0.000154
C162	C	0.456841	-0.137429	0.500154
H163	H	-0.088847	-0.610421	0.000163
H164	H	0.411153	-0.110421	0.500163
H165	H	-0.045817	-0.666016	-0.043505
H166	H	0.454183	-0.166016	0.456495
H167	H	-0.045806	-0.666054	0.043812
H168	H	0.454194	-0.166054	0.543812
C169	C	-0.459018	-0.686255	0.000186
C170	C	0.040982	-0.186255	0.500186
H171	H	-0.518326	-0.694466	0.000180
H172	H	-0.018326	-0.194466	0.500180
H173	H	-0.440631	-0.660466	0.043833
H174	H	0.059369	-0.160466	0.543833
H175	H	-0.440639	-0.660463	-0.043485
H176	H	0.059361	-0.160463	0.456515
H177	H	0.253255	-0.594592	0.000187
H178	H	0.753255	-0.094592	0.500187
C179	C	0.229740	-0.721283	-0.660122
C180	C	0.729740	-0.221283	-0.160122
H181	H	0.263502	-0.693154	-0.694884
H182	H	0.763502	-0.193154	-0.194884
H183	H	0.199921	-0.692377	-0.629401
H184	H	0.699921	-0.192377	-0.129401
H185	H	0.264274	-0.746263	-0.629366
H186	H	0.764274	-0.246263	-0.129366
C187	C	0.269787	-0.801327	-0.582505
C188	C	0.769787	-0.301327	-0.082505
H189	H	0.258942	-0.802647	-0.635079
H190	H	0.758942	-0.302647	-0.135079
H191	H	0.299563	-0.757511	-0.569611
H192	H	0.799563	-0.257511	-0.069611
H193	H	0.302257	-0.837642	-0.569563
H194	H	0.802257	-0.337642	-0.069563
C195	C	0.231272	-0.231014	-0.091864
C196	C	0.731272	0.268986	0.408136
H197	H	0.222107	-0.183592	-0.085579
H198	H	0.722107	0.316408	0.414421
H199	H	0.286485	-0.236872	-0.076439
H200	H	0.786485	0.263128	0.423561
H201	H	0.224171	-0.243660	-0.143337
H202	H	0.724171	0.256340	0.356663
C203	C	0.269787	-0.801321	-0.417027
C204	C	0.769787	-0.301321	0.082973
H205	H	0.314902	-0.795898	-0.451774
H206	H	0.814902	-0.295898	0.048226
H207	H	0.271597	-0.760876	-0.386307
H208	H	0.771597	-0.260876	0.113693
H209	H	0.274272	-0.841010	-0.386268
H210	H	0.774272	-0.341010	0.113732
H211	H	0.213530	-0.734751	-0.328250
H212	H	0.713530	-0.234751	0.171750
C213	C	-0.276916	-0.688926	0.000185
C214	C	0.223084	-0.188926	0.500185
H215	H	-0.309108	-0.650676	0.000167
H216	H	0.190892	-0.150676	0.500167
H217	H	-0.242660	-0.686798	0.043839
H218	H	0.257340	-0.186798	0.543839
H219	H	-0.242675	-0.686790	-0.043478
H220	H	0.257325	-0.186790	0.456522
C221	C	0.233933	-0.383153	-0.091896
C222	C	0.733933	0.116847	0.408104
H223	H	0.267938	-0.347405	-0.118019
H224	H	0.767938	0.152595	0.381981
H225	H	0.268000	-0.407759	-0.060284
H226	H	0.768000	0.092241	0.439716
H227	H	0.205673	-0.414541	-0.127172
H228	H	0.705673	0.085459	0.372828
H229	H	0.245413	-0.147687	0.000259
H230	H	0.745413	0.352313	0.500259
H231	H	0.007882	-0.906216	-0.671317
H232	H	0.507882	-0.406216	-0.171317
C233	C	-0.053673	-0.038385	0.000278
C234	C	0.446327	0.461615	0.500278
H235	H	-0.043671	0.011139	0.000295
H236	H	0.456329	0.511139	0.500295
H237	H	-0.084605	-0.053643	-0.043379
H238	H	0.415395	0.446357	0.456621
H239	H	-0.084589	-0.053692	0.043939
H240	H	0.415411	0.446308	0.543939
C241	C	0.229723	-0.721236	-0.174032
C242	C	0.729723	-0.221236	0.325968
H243	H	0.263485	-0.693104	-0.208792
H244	H	0.763485	-0.193104	0.291208
H245	H	0.199905	-0.692331	-0.143308
H246	H	0.699905	-0.192331	0.356692
H247	H	0.264260	-0.746216	-0.143277
H248	H	0.764260	-0.246216	0.356723
H249	H	0.004247	-0.266341	0.079822
H250	H	0.504247	0.233659	0.579822
C251	C	-0.008325	-0.919670	-0.173966
C252	C	0.491675	-0.419670	0.326034
H253	H	-0.042082	-0.947806	-0.208709
H254	H	0.457918	-0.447806	0.291291
H255	H	0.021490	-0.948571	-0.143201
H256	H	0.521490	-0.448571	0.356799
H257	H	-0.042864	-0.894686	-0.143250
H258	H	0.457136	-0.394686	0.356750
C259	C	-0.009844	-0.409946	0.092331
C260	C	0.490156	0.090054	0.592331
H261	H	-0.044966	-0.381795	0.118468
H262	H	0.455034	0.118205	0.618468
H263	H	-0.042923	-0.441872	0.060712
H264	H	0.457077	0.058128	0.560712
H265	H	0.019411	-0.435074	0.127594
H266	H	0.519411	0.064926	0.627594
H267	H	-0.023992	-0.493264	0.000194
H268	H	0.476008	0.006736	0.500194
H269	H	0.007874	-0.906185	-0.328185
H270	H	0.507874	-0.406185	0.171815
H271	H	-0.026722	-0.837046	-0.571275
H272	H	0.473278	-0.337046	-0.071275
