data_functionalizedCrystal
_audit_creation_method	'MofGen! by Chris Wilmer'
_symmetry_space_group_name_H-M	'P1'
_symmetry_Int_Tables_number	1
_symmetry_cell_setting	triclinic
loop_
_symmetry_equiv_pos_as_xyz
  x,y,z
_cell_length_a	14.971482
_cell_length_b	27.732064
_cell_length_c	13.448316
_cell_angle_alpha	89.997477
_cell_angle_beta	89.993798
_cell_angle_gamma	83.131016
loop_
_atom_site_label
_atom_site_type_symbol
_atom_site_fract_x
_atom_site_fract_y
_atom_site_fract_z
O1	O	1.185961	0.062982	-0.082670
O2	O	1.685961	0.562982	0.417330
O3	O	0.925442	0.070527	-0.082673
O4	O	1.425442	0.570527	0.417327
O5	O	1.063785	-0.003604	-0.082675
O6	O	1.563785	0.496396	0.417325
O7	O	1.047618	0.137113	-0.082668
O8	O	1.547618	0.637113	0.417332
O9	O	1.063768	-0.003609	0.082709
O10	O	1.563768	0.496391	0.582709
O11	O	0.925425	0.070522	0.082710
O12	O	1.425425	0.570522	0.582710
O13	O	1.185944	0.062977	0.082714
O14	O	1.685944	0.562977	0.582714
Cu15	Cu	1.055683	0.066749	0.097813
Cu16	Cu	1.555683	0.566749	0.597813
Cu17	Cu	1.055703	0.066755	-0.097772
Cu18	Cu	1.555703	0.566755	0.402228
O19	O	1.047601	0.137109	0.082716
O20	O	1.547601	0.637109	0.582716
C21	C	0.892114	0.070188	0.000018
C22	C	1.392114	0.570188	0.500018
C23	C	0.792833	0.069177	0.000016
C24	C	1.292833	0.569177	0.500016
C25	C	0.746186	0.068699	0.090168
C26	C	1.246186	0.568699	0.590168
C27	C	0.652903	0.067742	0.090169
C28	C	1.152903	0.567742	0.590169
C29	C	0.606267	0.067267	0.000017
C30	C	1.106267	0.567267	0.500017
C31	C	0.652920	0.067744	-0.090142
C32	C	1.152920	0.567744	0.409858
C33	C	0.746203	0.068697	-0.090142
C34	C	1.246203	0.568697	0.409858
C35	C	0.458489	0.065758	-0.090135
C36	C	0.958489	0.565758	0.409865
C37	C	0.365200	0.064805	-0.090136
C38	C	0.865200	0.564805	0.409864
C39	C	0.365189	0.064803	0.090175
C40	C	0.865189	0.564803	0.590175
C41	C	0.458472	0.065756	0.090175
C42	C	0.958472	0.565756	0.590175
C43	C	0.505119	0.066234	0.000016
C44	C	1.005119	0.566234	0.500016
C45	C	1.063435	-0.021615	0.000014
C46	C	1.563435	0.478385	0.500014
C47	C	1.062406	-0.075274	0.000004
C48	C	1.562406	0.424726	0.500004
C49	C	0.973649	-0.452756	-0.000001
C50	C	1.473649	0.047244	0.499999
C51	C	0.977435	-0.251078	-0.000002
C52	C	1.477435	0.248922	0.499998
O53	O	0.908563	-0.220143	-0.000043
O54	O	1.408563	0.279857	0.499957
N55	N	1.059470	-0.231573	-0.000001
N56	N	1.559470	0.268427	0.499999
C57	C	1.140564	-0.262490	-0.000006
C58	C	1.640564	0.237510	0.499994
O59	O	1.210427	-0.241272	-0.000016
O60	O	1.710427	0.258728	0.499984
C61	C	1.136777	-0.464167	-0.000012
C62	C	1.636777	0.035833	0.499988
C63	C	1.054737	-0.483669	-0.000003
C64	C	1.554737	0.016331	0.499997
C65	C	0.891616	-0.472259	0.000007
C66	C	1.391616	0.027741	0.500007
C67	C	0.890670	-0.522675	0.000013
C68	C	1.390670	-0.022675	0.500013
C69	C	0.971758	-0.553589	0.000011
C70	C	1.471758	-0.053589	0.500011
C71	C	1.053791	-0.534086	0.000003
C72	C	1.553791	-0.034086	0.500003
C73	C	1.217870	-0.495083	-0.000024
C74	C	1.717870	0.004917	0.499976
C75	C	1.216916	-0.545505	-0.000028
C76	C	1.716916	-0.045505	0.499972
C77	C	1.134876	-0.565008	-0.000019
C78	C	1.634876	-0.065008	0.499981
C79	C	1.133933	-0.615416	0.000006
C80	C	1.633933	-0.115416	0.500006
N81	N	1.051898	-0.634921	0.000005
N82	N	1.551898	-0.134921	0.500005
C83	C	0.970811	-0.604008	0.000007
C84	C	1.470811	-0.104008	0.500007
C85	C	1.142547	-0.156607	-0.000001
C86	C	1.642547	0.343393	0.499999
C87	C	1.143494	-0.106188	0.000002
C88	C	1.643494	0.393812	0.500002
C89	C	0.980365	-0.094779	0.000004
C90	C	1.480365	0.405221	0.500004
C91	C	0.979419	-0.145199	0.000008
C92	C	1.479419	0.354801	0.500008
C93	C	1.060512	-0.176112	-0.000002
C94	C	1.560512	0.323888	0.499998
C95	C	0.968831	-0.709886	0.000020
C96	C	1.468831	-0.209886	0.500020
C97	C	0.967892	-0.760308	0.000030
C98	C	1.467892	-0.260308	0.500030
C99	C	1.131021	-0.771712	0.000023
C100	C	1.631021	-0.271712	0.500023
C101	C	1.131960	-0.721295	0.000018
C102	C	1.631960	-0.221295	0.500018
C103	C	1.050858	-0.690383	0.000013
C104	C	1.550858	-0.190383	0.500013
O105	O	1.202769	-0.646380	0.000036
O106	O	1.702769	-0.146380	0.500036
O107	O	0.900958	-0.625235	-0.000005
O108	O	1.400958	-0.125235	0.499995
C109	C	0.974595	-0.402340	-0.000007
C110	C	1.474595	0.097660	0.499993
C111	C	1.056628	-0.382837	-0.000015
C112	C	1.556628	0.117163	0.499985
C113	C	1.137716	-0.413750	-0.000017
C114	C	1.637716	0.086250	0.499983
C115	C	1.057575	-0.332418	-0.000011
C116	C	1.557575	0.167582	0.499989
C117	C	0.976488	-0.301504	-0.000009
C118	C	1.476488	0.198496	0.499991
C119	C	0.894453	-0.321010	-0.000010
C120	C	1.394453	0.178990	0.499990
C121	C	0.893507	-0.371426	-0.000004
C122	C	1.393507	0.128574	0.499996
C123	C	1.219751	-0.394245	-0.000016
C124	C	1.719751	0.105755	0.499984
C125	C	1.220690	-0.343828	-0.000020
C126	C	1.720690	0.156172	0.499980
C127	C	1.139602	-0.312914	-0.000018
C128	C	1.639602	0.187086	0.499982
C129	C	1.219272	0.063317	0.000021
C130	C	1.719272	0.563317	0.500021
C131	C	1.318553	0.064327	0.000016
C132	C	1.818553	0.564327	0.500016
C133	C	1.047951	0.155119	0.000025
C134	C	1.547951	0.655119	0.500025
C135	C	1.048980	0.208779	0.000028
C136	C	1.548980	0.708779	0.500028
N137	N	1.055675	0.066745	0.235377
N138	N	1.555675	0.566745	0.735377
N139	N	1.055718	0.066755	-0.235337
N140	N	1.555718	0.566755	0.264663
C141	C	1.116952	0.033933	0.287417
C142	C	1.616952	0.533933	0.787417
C143	C	1.116958	0.033933	0.391520
C144	C	1.616958	0.533933	0.891520
C145	C	1.055690	0.066747	0.443582
C146	C	1.555690	0.566747	0.943582
C147	C	0.994406	0.099561	0.391535
C148	C	1.494406	0.599561	0.891535
C149	C	0.994397	0.099558	0.287434
C150	C	1.494397	0.599558	0.787434
C151	C	0.994431	0.099564	0.608515
C152	C	1.494431	0.599564	1.108515
C153	C	0.994441	0.099567	0.712624
C154	C	1.494441	0.599567	1.212624
C155	C	1.116992	0.033939	0.712602
C156	C	1.616992	0.533939	1.212602
C157	C	1.116982	0.033936	0.608500
C158	C	1.616982	0.533936	1.108500
C159	C	1.055700	0.066751	0.556461
C160	C	1.555700	0.566751	1.056461
H161	H	0.496466	0.066147	-0.163553
H162	H	0.996466	0.566147	0.336447
H163	H	0.902789	-0.684723	0.000016
H164	H	1.402789	-0.184723	0.500016
H165	H	0.614942	0.067354	-0.163545
H166	H	1.114942	0.567354	0.336455
H167	H	0.823865	-0.538549	0.000011
H168	H	1.323865	-0.038549	0.500011
H169	H	0.327205	0.064414	0.163586
H170	H	0.827205	0.564414	0.663586
H171	H	0.944550	0.126287	0.755007
H172	H	1.444550	0.626287	1.255007
Br173	Br	0.856545	-0.786772	0.000047
Br174	Br	1.356545	-0.286772	0.500047
H175	H	0.944517	0.126277	0.433930
H176	H	1.444517	0.626277	0.933930
H177	H	1.208587	-0.181772	-0.000008
H178	H	1.708587	0.318228	0.499992
Br179	Br	0.870317	-0.052816	0.000009
Br180	Br	1.370317	0.447184	0.500009
H181	H	1.166853	0.007215	0.433890
H182	H	1.666853	0.507215	0.933890
H183	H	0.784181	0.069088	-0.163552
H184	H	1.284181	0.569088	0.336448
Br185	Br	1.200139	-0.010593	0.537841
Br186	Br	1.700139	0.489407	1.037841
Br187	Br	0.911256	0.144096	0.537893
Br188	Br	1.411256	0.644096	1.037893
Br189	Br	0.301908	0.064161	-0.212486
Br190	Br	0.801908	0.564161	0.287514
H191	H	0.825580	-0.447094	0.000005
H192	H	1.325580	0.052906	0.500005
Br193	Br	0.911226	0.144088	0.216809
Br194	Br	1.411226	0.644088	0.716809
H195	H	0.828428	-0.295831	-0.000002
H196	H	1.328428	0.204169	0.499998
Br197	Br	0.782161	-0.397885	0.000008
Br198	Br	1.282161	0.102115	0.500008
H199	H	1.287502	-0.327954	-0.000020
H200	H	1.787502	0.172046	0.499980
Br201	Br	0.809468	0.069349	0.212524
Br202	Br	1.309468	0.569349	0.712524
H203	H	0.912614	-0.161074	0.000020
H204	H	1.412614	0.338926	0.500020
H205	H	0.614929	0.067345	0.163579
H206	H	1.114929	0.567345	0.663579
H207	H	1.210299	-0.090314	0.000010
H208	H	1.710299	0.409686	0.500010
Br209	Br	1.329217	-0.468629	-0.000060
Br210	Br	1.829217	0.031371	0.499940
Br211	Br	1.326978	-0.587456	-0.000049
Br212	Br	1.826978	-0.087456	0.499951
Br213	Br	1.243301	-0.694826	0.000048
Br214	Br	1.743301	-0.194826	0.500048
Br215	Br	0.521762	0.066408	0.212525
Br216	Br	1.021762	0.566408	0.712525
H217	H	1.166889	0.007220	0.754978
H218	H	1.666889	0.507220	1.254978
H219	H	1.285784	-0.419410	-0.000019
H220	H	1.785784	0.080590	0.499981
Br221	Br	1.241063	-0.813675	0.000030
Br222	Br	1.741063	-0.313675	0.500030
H223	H	1.166847	0.007214	0.245035
H224	H	1.666847	0.507214	0.745035
