data_functionalizedCrystal
_audit_creation_method	'MofGen! by Chris Wilmer'
_symmetry_space_group_name_H-M	'P1'
_symmetry_Int_Tables_number	1
_symmetry_cell_setting	triclinic
loop_
_symmetry_equiv_pos_as_xyz
  x,y,z
_cell_length_a	8.634740
_cell_length_b	9.798715
_cell_length_c	8.597304
_cell_angle_alpha	97.703023
_cell_angle_beta	92.879752
_cell_angle_gamma	90.003487
loop_
_atom_site_label
_atom_site_type_symbol
_atom_site_fract_x
_atom_site_fract_y
_atom_site_fract_z
O1	O	2.053793	0.173789	0.512862
O2	O	1.604193	0.168735	0.469856
O3	O	1.837840	0.144552	0.264230
O4	O	1.820146	0.197972	0.718488
O5	O	1.837823	-0.082430	0.264227
O6	O	1.604175	-0.058248	0.469853
O7	O	2.053776	-0.053193	0.512859
Zn8	Zn	1.828973	-0.091759	0.491355
Zn9	Zn	1.828996	0.207300	0.491360
O10	O	1.820128	-0.029011	0.718485
C11	C	1.546587	0.054098	0.460112
C12	C	1.374966	0.050684	0.431064
N13	N	1.828968	-0.295859	0.491353
C14	C	1.927067	-0.373841	0.404574
C15	C	1.927092	-0.531004	0.404572
C16	C	2.111381	0.061446	0.522603
C17	C	2.283003	0.064870	0.551651
C18	C	1.835931	0.024154	0.205470
C19	C	1.830249	0.003573	0.030384
N20	N	1.829012	0.411399	0.491351
C21	C	1.822037	0.091390	0.777245
C22	C	1.827720	0.111980	0.952331
H23	H	1.335565	0.079611	0.677114
C24	C	1.830858	0.256814	0.041647
C25	C	1.962157	0.327132	0.004132
C26	C	1.965081	0.460559	0.086386
H27	H	1.834498	0.252051	0.151397
H28	H	1.740138	0.304398	0.013113
H29	H	2.052854	0.279560	0.032676
H30	H	1.958545	0.331933	-0.105603
H31	H	1.874361	0.508143	0.057852
H32	H	1.968717	0.455782	0.196132
H33	H	2.054158	0.508290	0.060933
H34	H	1.828048	-0.104999	-0.036745
H35	H	1.322396	0.035968	0.305593
C36	C	2.039320	-0.307932	0.305625
C37	C	2.191704	-0.336971	0.353745
C38	C	2.295171	-0.276314	0.262614
H39	H	2.024673	-0.211071	0.318690
H40	H	2.020799	-0.343972	0.198090
H41	H	2.210219	-0.300925	0.461253
H42	H	2.206400	-0.433820	0.340674
H43	H	2.276650	-0.312354	0.155080
H44	H	2.280510	-0.179455	0.275686
H45	H	2.398574	-0.296019	0.295241
C46	C	1.716948	-0.499479	0.590593
C47	C	1.626495	-0.583082	0.670679
C48	C	1.523261	-0.501019	0.762131
H49	H	1.651498	-0.451509	0.524526
H50	H	1.773738	-0.435080	0.664396
H51	H	1.569710	-0.647456	0.596885
H52	H	1.691903	-0.631051	0.736774
H53	H	1.580050	-0.436621	0.835934
H54	H	1.457822	-0.453053	0.696053
H55	H	1.461886	-0.557730	0.816492
H56	H	2.011085	-0.598026	0.330284
H57	H	1.744994	-0.345447	0.565640
