data_functionalizedCrystal
_audit_creation_method	'MofGen! by Chris Wilmer'
_symmetry_space_group_name_H-M	'P1'
_symmetry_Int_Tables_number	1
_symmetry_cell_setting	triclinic
loop_
_symmetry_equiv_pos_as_xyz
  x,y,z
_cell_length_a	27.731994
_cell_length_b	27.732048
_cell_length_c	22.010155
_cell_angle_alpha	89.999275
_cell_angle_beta	89.997700
_cell_angle_gamma	82.631595
loop_
_atom_site_label
_atom_site_type_symbol
_atom_site_fract_x
_atom_site_fract_y
_atom_site_fract_z
O1	O	0.640948	0.057385	-0.050445
O2	O	0.500151	0.066158	-0.050466
O3	O	0.574922	-0.008626	-0.050443
O4	O	0.566176	0.132170	-0.050468
O5	O	0.574909	-0.008614	0.050607
O6	O	0.500137	0.066170	0.050584
O7	O	0.640934	0.057397	0.050605
Cu8	Cu	0.570535	0.061784	0.059822
Cu9	Cu	0.570551	0.061771	-0.059682
O10	O	0.566163	0.132181	0.050583
C11	C	0.482137	0.065984	0.000057
C12	C	0.428480	0.065442	0.000049
C13	C	0.095754	0.062032	0.055156
C14	C	-0.105904	0.059970	0.055163
O15	O	-0.131983	0.059688	0.102008
N16	N	-0.131111	0.059708	0.000080
C17	C	-0.105901	0.059958	-0.055008
O18	O	-0.131968	0.059683	-0.101859
C19	C	0.095757	0.062016	-0.055014
C20	C	0.120961	0.062283	0.000072
C21	C	0.120959	0.062298	0.110237
C22	C	0.171370	0.062816	0.110235
C23	C	0.196577	0.063068	0.055151
C24	C	0.171372	0.062802	0.000069
C25	C	0.120967	0.062263	-0.110102
C26	C	0.171385	0.062776	-0.110099
C27	C	0.196589	0.063043	-0.055013
C28	C	0.246990	0.063571	-0.055017
N29	N	0.272198	0.063833	0.000065
C30	C	0.246991	0.063582	0.055149
C31	C	-0.211774	0.058879	-0.055000
C32	C	-0.262188	0.058365	-0.054999
C33	C	-0.262188	0.058376	0.055172
C34	C	-0.211773	0.058893	0.055170
C35	C	-0.186566	0.059141	0.000082
C36	C	0.352858	0.064670	0.055140
C37	C	0.403273	0.065190	0.055133
C38	C	0.403269	0.065176	-0.055038
C39	C	0.352858	0.064659	-0.055031
C40	C	0.327654	0.064404	0.000063
O41	O	0.273101	0.063848	-0.101838
O42	O	0.273068	0.063846	0.101993
C43	C	0.045343	0.061514	0.055158
C44	C	0.020139	0.061247	0.000076
C45	C	0.045346	0.061499	-0.055008
C46	C	-0.030275	0.060734	0.000078
C47	C	-0.055482	0.060482	0.055162
C48	C	-0.030275	0.060744	0.110244
C49	C	0.020136	0.061262	0.110242
C50	C	0.020138	0.061237	-0.110090
C51	C	-0.030273	0.060719	-0.110083
C52	C	-0.055480	0.060468	-0.054999
C53	C	0.574732	-0.026627	0.000084
C54	C	0.574179	-0.080282	0.000088
C55	C	0.614884	-0.419105	0.000063
C56	C	0.612833	-0.620764	0.000055
O57	O	0.650055	-0.652027	0.000034
N58	N	0.568496	-0.639879	0.000048
C59	C	0.524670	-0.608576	0.000041
O60	O	0.486912	-0.629462	0.000029
C61	C	0.526721	-0.406918	0.000045
C62	C	0.571061	-0.387805	0.000057
C63	C	0.659220	-0.399992	0.000075
C64	C	0.659732	-0.349580	0.000080
C65	C	0.615908	-0.318281	0.000074
C66	C	0.571573	-0.337394	0.000063
C67	C	0.482895	-0.375615	0.000033
C68	C	0.483412	-0.325198	0.000032
C69	C	0.527751	-0.306086	0.000045
C70	C	0.528262	-0.255683	0.000062
N71	N	0.572598	-0.236567	0.000068
C72	C	0.616421	-0.267867	0.000074
C73	C	0.523596	-0.714450	0.000039
C74	C	0.523083	-0.764864	0.000039
C75	C	0.611246	-0.777049	0.000052
C76	C	0.611759	-0.726633	0.000057
C77	C	0.567932	-0.695335	0.000046
C78	C	0.617494	-0.161998	0.000086
C79	C	0.618002	-0.111581	0.000094
C80	C	0.529839	-0.099401	0.000078
C81	C	0.529331	-0.149813	0.000074
C82	C	0.573162	-0.181111	0.000076
O83	O	0.491060	-0.224391	0.000076
O84	O	0.654174	-0.246971	0.000073
C85	C	0.614372	-0.469517	0.000058
C86	C	0.570036	-0.488629	0.000046
C87	C	0.526213	-0.457330	0.000040
C88	C	0.569523	-0.539043	0.000046
C89	C	0.613346	-0.570343	0.000052
C90	C	0.657683	-0.551228	0.000058
C91	C	0.658195	-0.500816	0.000064
C92	C	0.481876	-0.476445	0.000034
C93	C	0.481367	-0.526857	0.000029
C94	C	0.525191	-0.558157	0.000035
C95	C	0.658949	0.057571	0.000081
C96	C	0.712605	0.058114	0.000085
C97	C	0.566353	0.150182	0.000054
C98	C	0.566906	0.203837	0.000046
N99	N	0.570527	0.061793	0.143874
N100	N	0.570562	0.061758	-0.143735
C101	C	0.603661	0.028661	0.563663
C102	C	0.603664	0.028658	0.627271
O103	O	0.631816	0.000494	0.660171
N104	N	0.570550	0.061761	0.659081
C105	C	0.537429	0.094866	0.627280
O106	O	0.509264	0.123022	0.660178
C107	C	0.537425	0.094867	0.563674
C108	C	0.570544	0.061765	0.531867
C109	C	0.636777	-0.004438	0.531857
C110	C	0.636775	-0.004434	0.468253
C111	C	0.603658	0.028669	0.436457
C112	C	0.570542	0.061769	0.468264
C113	C	0.504303	0.127969	0.531874
C114	C	0.504301	0.127967	0.468263
C115	C	0.537420	0.094865	0.436457
C116	C	0.537423	0.094876	0.372864
N117	N	0.570536	0.061774	0.341054
C118	C	0.603654	0.028670	0.372851
C119	C	0.537440	0.094862	0.760858
C120	C	0.537446	0.094864	0.824463
C121	C	0.603680	0.028655	0.824450
C122	C	0.603676	0.028655	0.760843
C123	C	0.570553	0.061759	0.729048
C124	C	0.603648	0.028681	0.239279
C125	C	0.603644	0.028690	0.175670
C126	C	0.537409	0.094897	0.175690
C127	C	0.537414	0.094890	0.239293
C128	C	0.570535	0.061778	0.271086
O129	O	0.509283	0.123024	0.339924
O130	O	0.631810	0.000514	0.339945
H131	H	0.100455	0.062045	-0.154959
H132	H	-0.191255	0.059080	-0.099862
H133	H	-0.191255	0.059111	0.100026
H134	H	0.694908	-0.425472	0.000078
O135	O	0.635842	-0.003416	0.270223
C136	C	0.701967	-0.014182	0.341986
C137	C	0.665524	0.022218	0.306993
H138	H	0.725981	0.006528	0.371713
H139	H	0.681312	-0.038184	0.371807
H140	H	0.725610	-0.037844	0.308305
H141	H	0.641872	0.045911	0.340630
H142	H	0.686209	0.046186	0.277163
H143	H	0.693365	-0.576720	0.000066
H144	H	0.332334	0.064449	-0.099886
O145	O	0.505334	0.127046	0.729908
C146	C	0.494545	0.193168	0.658138
C147	C	0.530956	0.156739	0.693135
H148	H	0.515246	0.217191	0.628408
H149	H	0.470554	0.172502	0.628320
H150	H	0.470873	0.216803	0.691817
H151	H	0.554660	0.133094	0.659500
H152	H	0.554913	0.177435	0.722962
O153	O	0.668816	-0.036732	0.437379
C154	C	0.679379	-0.103048	0.365879
C155	C	0.643079	-0.066409	0.400734
H156	H	0.658585	-0.127059	0.336253
H157	H	0.703467	-0.082560	0.335971
H158	H	0.702964	-0.126674	0.399650
H159	H	0.619462	-0.042774	0.367007
H160	H	0.619025	-0.086927	0.430652
O161	O	0.654872	-0.708150	0.000035
C162	C	0.742263	-0.725571	0.000083
C163	C	0.693469	-0.746563	0.000096
H164	H	0.773482	-0.756617	0.000144
H165	H	0.744748	-0.702294	-0.042218
H166	H	0.744679	-0.702254	0.042361
H167	H	0.691021	-0.769902	-0.042154
H168	H	0.691005	-0.769813	0.042425
O169	O	0.328451	0.064447	0.108712
C170	C	0.333788	0.064491	0.217984
C171	C	0.361488	0.064751	0.157360
H172	H	0.360488	0.064726	0.257332
H173	H	0.305518	0.098099	0.220778
H174	H	0.314852	0.030416	0.220721
H175	H	0.380453	0.098804	0.154583
H176	H	0.389731	0.031120	0.154593
O177	O	0.427818	0.065383	0.108608
C178	C	0.490506	0.024063	0.172572
C179	C	0.462758	0.023792	0.111987
H180	H	0.518754	-0.009564	0.175329
H181	H	0.509463	0.058124	0.175332
H182	H	0.463814	0.023815	0.211930
H183	H	0.489417	0.024022	0.072594
H184	H	0.443793	-0.010266	0.109279
O185	O	0.195779	0.063049	0.163800
C186	C	0.190436	0.063030	0.273073
C187	C	0.162739	0.062757	0.212451
H188	H	0.163734	0.062805	0.312423
H189	H	0.218705	0.029421	0.275877
H190	H	0.209373	0.097105	0.275795
H191	H	0.143772	0.028705	0.209689
H192	H	0.134497	0.096389	0.209673
H193	H	0.630645	0.001699	0.850350
O194	O	0.479969	-0.783346	0.000007
C195	C	0.392578	-0.765926	0.000027
C196	C	0.441371	-0.744933	0.000054
H197	H	0.361359	-0.734879	0.000077
H198	H	0.390104	-0.789205	-0.042274
H199	H	0.390151	-0.789240	0.042305
H200	H	0.443831	-0.721597	-0.042196
H201	H	0.443824	-0.721682	0.042382
H202	H	0.447722	-0.299716	0.000022
O203	O	0.505311	0.127095	0.270218
C204	C	0.494515	0.193163	0.342064
C205	C	0.530929	0.156729	0.307076
H206	H	0.515213	0.217125	0.371881
H207	H	0.470854	0.216858	0.308434
H208	H	0.470514	0.172451	0.371811
H209	H	0.554962	0.177402	0.277327
H210	H	0.554556	0.133034	0.340739
H211	H	0.663745	-0.031397	0.557740
H212	H	0.445258	-0.542413	0.000025
H213	H	0.630615	0.001734	0.149775
O214	O	0.653804	-0.807477	-0.000054
C215	C	0.704370	-0.871492	-0.052395
C216	C	0.656164	-0.837050	-0.052350
H217	H	0.706289	-0.895417	-0.094666
H218	H	0.736169	-0.849199	-0.052434
H219	H	0.706325	-0.895379	-0.010089
H220	H	0.654161	-0.813155	-0.094650
H221	H	0.624387	-0.859371	-0.052280
H222	H	0.510483	0.121823	0.850356
O223	O	0.635863	-0.003549	0.730043
C224	C	0.701578	-0.069198	0.736760
C225	C	0.665144	-0.032758	0.771713
H226	H	0.725268	-0.092816	0.770435
H227	H	0.680915	-0.093235	0.707004
H228	H	0.725546	-0.048491	0.706959
H229	H	0.641167	-0.053425	0.801547
H230	H	0.685837	-0.008721	0.801431
H231	H	0.423801	0.065383	-0.099885
H232	H	0.191906	0.062978	-0.154959
O233	O	0.481032	-0.684030	-0.000075
C234	C	0.430450	-0.620026	-0.052412
C235	C	0.478666	-0.654453	-0.052368
H236	H	0.428527	-0.596097	-0.094680
H237	H	0.398660	-0.642331	-0.052454
H238	H	0.428484	-0.596141	-0.010103
H239	H	0.480680	-0.678345	-0.094670
H240	H	0.510434	-0.632119	-0.052295
H241	H	0.040653	0.061480	0.155099
H242	H	0.694301	-0.485260	0.000074
O243	O	0.472083	0.160142	0.562667
C244	C	0.406402	0.225824	0.555939
C245	C	0.442859	0.189405	0.520993
H246	H	0.382772	0.249500	0.522261
H247	H	0.382377	0.205150	0.585702
H248	H	0.427093	0.249809	0.585734
H249	H	0.422207	0.165412	0.491166
H250	H	0.466883	0.210110	0.491268
O251	O	0.439260	-0.446113	0.000059
C252	C	0.351760	-0.439361	0.000018
C253	C	0.399991	-0.473764	-0.000001
H254	H	0.320000	-0.461702	-0.000043
H255	H	0.349756	-0.415466	0.042321
H256	H	0.349822	-0.415439	-0.042258
H257	H	0.401963	-0.497716	0.042246
H258	H	0.401975	-0.497625	-0.042332
O259	O	0.096469	0.061967	0.163736
C260	C	0.045329	0.019519	0.227689
C261	C	0.073046	0.019823	0.167082
H262	H	0.026376	-0.014546	0.230409
H263	H	0.071996	0.019765	0.267073
H264	H	0.017068	0.053136	0.230436
H265	H	0.101307	-0.013788	0.164276
H266	H	0.046350	0.019602	0.127727
O267	O	-0.054837	0.060476	0.163699
C268	C	-0.132513	0.059707	0.212512
C269	C	-0.104753	0.060004	0.151936
H270	H	-0.172876	0.059336	0.203023
H271	H	-0.117957	0.025960	0.239689
H272	H	-0.127257	0.093644	0.239676
H273	H	-0.109997	0.026090	0.124724
H274	H	-0.119314	0.093773	0.124806
H275	H	0.477327	0.154923	0.442379
O276	O	-0.054676	0.060440	-0.163653
C277	C	-0.049344	0.060503	-0.272926
C278	C	-0.021650	0.060814	-0.212306
H279	H	-0.022656	0.060816	-0.312278
H280	H	-0.068248	0.026409	-0.275714
H281	H	-0.077642	0.094092	-0.275660
H282	H	0.006671	0.027248	-0.209531
H283	H	-0.002779	0.094930	-0.209543
H284	H	0.510447	0.121851	0.149791
O285	O	0.044663	0.061550	-0.163563
C286	C	0.095751	0.104043	-0.227536
C287	C	0.068011	0.103740	-0.166945
H288	H	0.114626	0.138156	-0.230296
H289	H	0.124065	0.070468	-0.230304
H290	H	0.069063	0.103743	-0.266888
H291	H	0.094661	0.104057	-0.127558
H292	H	0.039690	0.137312	-0.164230
H293	H	-0.282720	0.058173	0.100023
O294	O	0.661088	-0.093040	-0.000004
C295	C	0.736617	-0.088057	-0.052326
C296	C	0.687838	-0.109076	-0.052295
H297	H	0.758262	-0.101023	-0.094592
H298	H	0.729488	-0.046646	-0.052361
H299	H	0.758228	-0.100970	-0.010015
H300	H	0.666202	-0.096200	-0.094598
H301	H	0.695001	-0.150485	-0.052228
O302	O	-0.286592	0.058091	-0.108564
C303	C	-0.281261	0.058161	-0.217837
C304	C	-0.253566	0.058464	-0.157217
H305	H	-0.254573	0.058474	-0.257189
H306	H	-0.300170	0.024071	-0.220630
H307	H	-0.309555	0.091754	-0.220568
H308	H	-0.225249	0.024895	-0.154446
H309	H	-0.234691	0.092577	-0.154451
H310	H	0.493226	-0.165375	0.000081
H311	H	0.653186	-0.187475	0.000086
O312	O	0.702816	-0.331043	-0.000021
C313	C	0.778346	-0.326075	-0.052348
C314	C	0.729562	-0.347086	-0.052313
H315	H	0.799988	-0.339046	-0.094615
H316	H	0.771223	-0.284664	-0.052387
H317	H	0.799957	-0.338989	-0.010038
H318	H	0.707927	-0.334209	-0.094616
H319	H	0.736719	-0.388495	-0.052242
O320	O	0.487240	-0.069040	-0.000012
C321	C	0.412074	-0.043167	-0.052409
C322	C	0.460294	-0.077587	-0.052368
H323	H	0.390279	-0.050058	-0.094741
H324	H	0.390189	-0.050073	-0.010156
H325	H	0.420075	-0.003857	-0.052377
H326	H	0.452338	-0.116909	-0.052421
H327	H	0.482165	-0.070638	-0.094617
H328	H	0.446789	-0.391167	0.000019
