data_functionalizedCrystal
_audit_creation_method	'MofGen! by Chris Wilmer'
_symmetry_space_group_name_H-M	'P1'
_symmetry_Int_Tables_number	1
_symmetry_cell_setting	triclinic
loop_
_symmetry_equiv_pos_as_xyz
  x,y,z
_cell_length_a	17.699092
_cell_length_b	17.699097
_cell_length_c	16.176319
_cell_angle_alpha	89.988988
_cell_angle_beta	89.994879
_cell_angle_gamma	83.287399
loop_
_atom_site_label
_atom_site_type_symbol
_atom_site_fract_x
_atom_site_fract_y
_atom_site_fract_z
O1	O	0.095761	1.004075	-0.068812
O2	O	0.108202	0.783699	-0.068798
O3	O	-0.008207	0.900110	-0.068804
O4	O	0.212170	0.887664	-0.068807
O5	O	-0.008214	0.900094	0.068689
O6	O	0.108195	0.783683	0.068695
O7	O	0.095753	1.004059	0.068681
Cu8	Cu	0.101973	0.893870	0.081242
Cu9	Cu	0.101982	0.893888	-0.081359
O10	O	0.212163	0.887648	0.068686
C11	C	0.107751	0.755494	-0.000050
C12	C	0.106409	0.671476	-0.000045
C13	C	0.098183	0.155766	-0.075026
C14	C	0.099440	0.234711	-0.075022
C15	C	0.100065	0.274168	-0.000071
C16	C	0.099426	0.234678	0.074881
C17	C	0.098165	0.155736	0.074876
C18	C	0.104514	0.553042	0.074903
C19	C	0.105778	0.631989	0.074902
C20	C	0.105789	0.632017	-0.074995
C21	C	0.104527	0.553075	-0.075000
C22	C	0.103884	0.513592	-0.000049
C23	C	0.102521	0.427992	-0.000054
C24	C	0.101434	0.359766	-0.000064
C25	C	-0.036408	0.899655	-0.000058
C26	C	-0.120425	0.898314	-0.000062
C27	C	-0.159889	0.897694	-0.075011
C28	C	-0.238832	0.896429	-0.075011
C29	C	-0.278311	0.895789	-0.000063
C30	C	-0.238841	0.896407	0.074891
C31	C	-0.159899	0.897666	0.074891
C32	C	-0.557207	0.891326	0.074893
C33	C	-0.636155	0.890069	0.074887
C34	C	-0.636139	0.890089	-0.075010
C35	C	-0.557197	0.891349	-0.075010
C36	C	-0.517734	0.891962	-0.000056
C37	C	-0.432135	0.893332	-0.000056
C38	C	-0.363909	0.894425	-0.000062
C39	C	0.240363	0.888103	-0.000061
C40	C	0.324381	0.889444	-0.000062
C41	C	0.096204	1.032264	-0.000069
C42	C	0.097547	1.116282	-0.000080
N43	N	0.101967	0.893862	0.195607
N44	N	0.101983	0.893902	-0.195725
C45	C	0.050442	0.945424	0.238869
C46	C	0.050441	0.945428	0.325416
C47	C	0.101969	0.893872	0.368700
C48	C	0.153497	0.842305	0.325432
C49	C	0.153494	0.842298	0.238887
C50	C	0.153511	0.842330	0.674460
C51	C	0.153512	0.842343	0.761012
C52	C	0.050459	0.945461	0.760990
C53	C	0.050455	0.945454	0.674445
C54	C	0.101980	0.893884	0.631184
C55	C	0.101979	0.893879	0.537340
C56	C	0.101974	0.893880	0.462543
H57	H	0.104022	0.520952	-0.136033
O58	O	-0.121627	0.898160	0.147746
C59	C	-0.132219	0.832310	0.193328
H60	H	-0.186643	0.809562	0.172020
H61	H	-0.081710	0.787135	0.182928
C62	C	-0.071655	0.880071	0.312122
C63	C	-0.138504	0.852135	0.285956
H64	H	-0.075528	0.892298	0.369260
H65	H	-0.064516	0.924435	0.281413
H66	H	-0.029571	0.842420	0.303449
H67	H	-0.180585	0.889789	0.294621
H68	H	-0.145650	0.807778	0.316670
O69	O	-0.518805	0.892061	-0.147780
C70	C	-0.481777	0.958279	-0.152291
H71	H	-0.511648	1.003735	-0.109818
H72	H	-0.420001	0.944404	-0.132105
C73	C	-0.447741	0.932121	-0.294030
C74	C	-0.484434	0.987954	-0.241868
H75	H	-0.449376	0.950425	-0.349285
H76	H	-0.472685	0.887507	-0.290990
H77	H	-0.396264	0.920563	-0.277198
H78	H	-0.535912	0.999504	-0.258694
H79	H	-0.459499	1.032571	-0.244913
H80	H	0.008502	0.987450	0.796222
H81	H	-0.668296	0.889546	0.135923
H82	H	-0.525088	0.891841	0.135925
O83	O	-0.674495	0.889346	-0.147797
C84	C	-0.711481	0.823100	-0.152264
H85	H	-0.681615	0.777680	-0.109730
H86	H	-0.773274	0.836953	-0.132123
C87	C	-0.745435	0.849165	-0.294046
C88	C	-0.708749	0.793377	-0.241811
H89	H	-0.743753	0.830831	-0.349282
H90	H	-0.720520	0.893797	-0.291036
H91	H	-0.796926	0.860704	-0.277252
H92	H	-0.657257	0.781846	-0.258599
H93	H	-0.733655	0.748742	-0.244825
O94	O	0.000369	0.995597	0.367312
C95	C	-0.045117	1.041094	0.310551
H96	H	-0.014089	1.041875	0.248852
H97	H	-0.101321	1.016638	0.301366
C98	C	-0.098902	1.121813	0.420079
C99	C	-0.060791	1.122778	0.344301
H100	H	-0.108574	1.172199	0.440899
H101	H	-0.068260	1.091160	0.458321
H102	H	-0.145735	1.101430	0.412415
H103	H	-0.013955	1.143152	0.351968
H104	H	-0.091426	1.153437	0.306061
O105	O	-0.277310	0.895820	0.147623
C106	C	-0.355448	0.894561	0.131554
H107	H	-0.369400	0.918346	0.067138
H108	H	-0.369807	0.833509	0.135114
C109	C	-0.385422	0.914314	0.275324
C110	C	-0.402559	0.943533	0.196209
H111	H	-0.414484	0.944520	0.315208
H112	H	-0.332780	0.915160	0.286151
H113	H	-0.397388	0.863438	0.278279
H114	H	-0.390585	0.994405	0.193252
H115	H	-0.455202	0.942698	0.185383
H116	H	0.008484	0.987410	0.203633
O117	O	0.000327	0.995563	0.632528
C118	C	-0.045141	1.041087	0.689271
H119	H	-0.045955	1.010067	0.750975
H120	H	-0.020634	1.097265	0.698453
C121	C	-0.125809	1.094933	0.579716
C122	C	-0.126816	1.056830	0.655499
H123	H	-0.176190	1.104647	0.558883
H124	H	-0.095176	1.064264	0.541486
H125	H	-0.105384	1.141743	0.587377
H126	H	-0.147232	1.010017	0.647835
H127	H	-0.157455	1.087491	0.693728
H128	H	0.106309	0.664173	-0.136024
H129	H	0.195450	0.800323	0.360679
H130	H	0.195474	0.800357	0.796252
H131	H	0.195465	0.800342	0.639245
O132	O	0.203620	0.792183	0.196987
C133	C	0.249090	0.746668	0.253747
H134	H	0.249912	0.777700	0.315429
H135	H	0.224581	0.690494	0.262974
C136	C	0.329747	0.692797	0.144201
C137	C	0.330762	0.730915	0.219959
H138	H	0.380126	0.683076	0.123358
H139	H	0.299112	0.723459	0.105960
H140	H	0.309319	0.645990	0.151900
H141	H	0.351180	0.777725	0.212257
H142	H	0.361403	0.700260	0.258197
O143	O	0.103933	0.514807	0.147781
C144	C	0.104742	0.566566	0.213932
H145	H	0.129594	0.619665	0.191957
H146	H	0.044180	0.583008	0.236981
C147	C	0.123339	0.463948	0.311732
C148	C	0.153869	0.529162	0.284743
H149	H	0.153640	0.440875	0.355413
H150	H	0.122792	0.429076	0.267165
H151	H	0.072872	0.477659	0.330933
H152	H	0.204332	0.515449	0.265532
H153	H	0.154426	0.564031	0.329308
H154	H	0.099953	0.266856	-0.136050
O155	O	0.097547	0.117562	-0.147908
C156	C	0.098398	0.169342	-0.214056
H157	H	0.075341	0.228786	-0.192079
H158	H	0.159230	0.169696	-0.237099
C159	C	0.076616	0.072119	-0.311864
C160	C	0.048292	0.145127	-0.284873
H161	H	0.045712	0.057181	-0.355549
H162	H	0.076046	0.037232	-0.267300
H163	H	0.127309	0.072423	-0.331060
H164	H	-0.002396	0.144820	-0.265667
H165	H	0.048852	0.180014	-0.329436
H166	H	0.097654	0.123587	0.135905
O167	O	0.099897	0.272990	0.147710
C168	C	0.034071	0.262366	0.193313
H169	H	-0.012071	0.246749	0.149458
H170	H	0.048147	0.214570	0.240045
C171	C	0.062150	0.355606	0.293106
C172	C	0.005476	0.336431	0.239241
H173	H	0.044513	0.401291	0.321440
H174	H	0.106500	0.362762	0.262385
H175	H	0.073876	0.315770	0.332042
H176	H	-0.006241	0.376262	0.200300
H177	H	-0.038876	0.329284	0.269957
O178	O	0.106278	0.670417	0.147661
C179	C	0.041475	0.724758	0.152146
H180	H	0.019831	0.739490	0.087068
H181	H	-0.004900	0.700416	0.189127
C182	C	0.089156	0.779004	0.274926
C183	C	0.062576	0.797104	0.194996
H184	H	0.102170	0.823629	0.301362
H185	H	0.132814	0.742392	0.271907
H186	H	0.050505	0.758718	0.305734
H187	H	0.101230	0.817380	0.164188
H188	H	0.018925	0.833721	0.198011
O189	O	-0.121564	0.898177	-0.147842
C190	C	-0.132187	0.832357	-0.193433
H191	H	-0.147814	0.786213	-0.149568
H192	H	-0.179977	0.846444	-0.240161
C193	C	-0.038932	0.860440	-0.293244
C194	C	-0.058119	0.803762	-0.239367
H195	H	0.006755	0.842802	-0.321582
H196	H	-0.031776	0.904785	-0.262531
H197	H	-0.078763	0.872173	-0.332176
H198	H	-0.018293	0.792037	-0.200431
H199	H	-0.065266	0.759414	-0.270076
H200	H	-0.270960	0.895928	-0.136042
