data_functionalizedCrystal
_audit_creation_method	'MofGen! by Chris Wilmer'
_symmetry_space_group_name_H-M	'P1'
_symmetry_Int_Tables_number	1
_symmetry_cell_setting	triclinic
loop_
_symmetry_equiv_pos_as_xyz
  x,y,z
_cell_length_a	10.654544
_cell_length_b	19.188924
_cell_length_c	18.266242
_cell_angle_alpha	89.993436
_cell_angle_beta	89.993316
_cell_angle_gamma	83.813408
loop_
_atom_site_label
_atom_site_type_symbol
_atom_site_fract_x
_atom_site_fract_y
_atom_site_fract_z
O1	O	1.665765	0.098061	-0.060903
O2	O	2.165765	0.598061	0.439097
O3	O	1.300088	0.107404	-0.060901
O4	O	1.800088	0.607404	0.439099
O5	O	1.493484	0.001146	-0.060893
O6	O	1.993484	0.501146	0.439107
O7	O	1.472369	0.204320	-0.060911
O8	O	1.972369	0.704320	0.439089
O9	O	1.493463	0.001143	0.060869
O10	O	1.993463	0.501143	0.560869
O11	O	1.300067	0.107402	0.060861
O12	O	1.800067	0.607402	0.560861
O13	O	1.665744	0.098059	0.060859
O14	O	2.165744	0.598059	0.560859
Zn15	Zn	1.482902	0.102730	0.080192
Zn16	Zn	1.982902	0.602730	0.580192
Zn17	Zn	1.482930	0.102733	-0.080234
Zn18	Zn	1.982930	0.602733	0.419766
O19	O	1.472349	0.204317	0.060851
O20	O	1.972349	0.704317	0.560851
C21	C	1.253294	0.106717	-0.000019
C22	C	1.753294	0.606717	0.499981
C23	C	1.113894	0.104665	-0.000018
C24	C	1.613894	0.604665	0.499982
C25	C	1.113847	0.104670	0.132730
C26	C	1.613847	0.604670	0.632730
C27	C	1.048333	0.103710	0.199102
C28	C	1.548333	0.603710	0.699102
C29	C	0.917356	0.101781	0.199099
C30	C	1.417356	0.601781	0.699099
C31	C	0.851889	0.100809	0.132717
C32	C	1.351889	0.600809	0.632717
C33	C	0.917402	0.101768	0.066345
C34	C	1.417402	0.601768	0.566345
C35	C	1.048382	0.103700	0.066355
C36	C	1.548382	0.603700	0.566355
C37	C	0.917451	0.101758	-0.066402
C38	C	1.417451	0.601758	0.433598
C39	C	1.048428	0.103692	-0.066401
C40	C	1.548428	0.603692	0.433599
C41	C	0.851984	0.100786	-0.132784
C42	C	1.351984	0.600786	0.367216
C43	C	0.917497	0.101751	-0.199158
C44	C	1.417497	0.601751	0.300842
C45	C	1.048482	0.103681	-0.199152
C46	C	1.548482	0.603681	0.300848
C47	C	1.113941	0.104652	-0.132773
C48	C	1.613941	0.604652	0.367227
C49	C	1.492791	-0.024871	-0.000012
C50	C	1.992791	0.475129	0.499988
C51	C	1.490743	-0.102389	-0.000010
C52	C	1.990743	0.397611	0.499990
C53	C	1.489798	-0.138793	-0.066382
C54	C	1.989798	0.361207	0.433618
C55	C	1.487856	-0.211628	-0.066388
C56	C	1.987856	0.288372	0.433612
C57	C	1.486883	-0.248059	-0.000017
C58	C	1.986883	0.251941	0.499983
C59	C	1.487821	-0.211646	0.066364
C60	C	1.987821	0.288354	0.566364
C61	C	1.489751	-0.138811	0.066368
C62	C	1.989751	0.361189	0.566368
N63	N	1.555308	-0.367276	0.049381
N64	N	2.055308	0.132724	0.549381
N65	N	1.553477	-0.436466	0.049373
N66	N	2.053477	0.063534	0.549373
C67	C	1.481067	-0.467506	-0.000024
C68	C	1.981067	0.032494	0.499976
N69	N	1.410571	-0.426743	-0.049424
N70	N	1.910571	0.073257	0.450576
N71	N	1.412408	-0.357547	-0.049418
N72	N	1.912408	0.142453	0.450582
C73	C	1.484790	-0.327036	-0.000014
C74	C	1.984790	0.172964	0.499986
C75	C	1.478014	-0.582886	-0.066407
C76	C	1.978014	-0.082886	0.433593
C77	C	1.476064	-0.655722	-0.066410
C78	C	1.976064	-0.155722	0.433590
C79	C	1.476042	-0.655740	0.066344
C80	C	1.976042	-0.155740	0.566344
C81	C	1.477979	-0.582904	0.066345
C82	C	1.977979	-0.082904	0.566345
C83	C	1.478971	-0.546482	-0.000033
C84	C	1.978971	-0.046482	0.499967
C85	C	1.712538	0.098746	-0.000024
C86	C	2.212538	0.598746	0.499976
C87	C	1.851938	0.100798	-0.000030
C88	C	2.351938	0.600798	0.499970
C89	C	1.473041	0.230334	-0.000032
C90	C	1.973041	0.730334	0.499968
C91	C	1.475090	0.307852	-0.000039
C92	C	1.975090	0.807852	0.499961
N93	N	1.482893	0.102727	0.189679
N94	N	1.982893	0.602727	0.689679
N95	N	1.482950	0.102730	-0.189721
N96	N	1.982950	0.602730	0.310279
C97	C	1.568587	0.055692	0.771960
C98	C	2.068587	0.555692	1.271960
C99	C	1.568589	0.055694	0.695315
C100	C	2.068589	0.555694	1.195315
C101	C	1.482931	0.102727	0.656992
C102	C	1.982931	0.602727	1.156992
C103	C	1.397287	0.149774	0.695320
C104	C	1.897287	0.649774	1.195320
C105	C	1.397296	0.149776	0.771964
C106	C	1.897296	0.649776	1.271964
N107	N	1.371755	0.111048	0.536666
N108	N	1.871755	0.611048	1.036666
N109	N	1.371750	0.111042	0.463857
N110	N	1.871750	0.611042	0.963857
C111	C	1.482900	0.102725	0.426069
C112	C	1.982900	0.602725	0.926069
N113	N	1.594059	0.094401	0.463840
N114	N	2.094059	0.594401	0.963840
N115	N	1.594062	0.094403	0.536655
N116	N	2.094062	0.594403	1.036655
C117	C	1.482912	0.102730	0.573885
C118	C	1.982912	0.602730	1.073885
C119	C	1.568546	0.055686	0.304643
C120	C	2.068546	0.555686	0.804643
C121	C	1.568550	0.055693	0.227997
C122	C	2.068550	0.555693	0.727997
C123	C	1.397237	0.149769	0.228004
C124	C	1.897237	0.649769	0.728004
C125	C	1.397245	0.149766	0.304649
C126	C	1.897245	0.649766	0.804649
C127	C	1.482898	0.102721	0.342964
C128	C	1.982898	0.602721	0.842964
H129	H	1.220589	0.106228	-0.132761
H130	H	1.720589	0.606228	0.367239
N131	N	1.656058	0.007656	0.343798
N132	N	2.156058	0.507656	0.843798
N133	N	1.656063	0.007668	0.412229
N134	N	2.156063	0.507668	0.912229
H135	H	1.717874	-0.026250	0.439882
H136	H	2.217874	0.473750	0.939882
N137	N	1.115416	0.104666	-0.266945
N138	N	1.615416	0.604666	0.233055
N139	N	1.232359	0.106392	-0.266935
N140	N	1.732359	0.606392	0.233065
H141	H	1.279630	0.107087	-0.314815
H142	H	1.779630	0.607087	0.185185
N143	N	1.490815	-0.101581	-0.134178
N144	N	1.990815	0.398419	0.365822
N145	N	1.580395	-0.066946	-0.148984
N146	N	2.080395	0.433054	0.351016
H147	H	1.581113	-0.040663	-0.196865
H148	H	2.081113	0.459337	0.303135
N149	N	1.478995	-0.545664	-0.134200
N150	N	1.978995	-0.045664	0.365800
N151	N	1.480719	-0.480634	-0.134189
N152	N	1.980719	0.019366	0.365811
H153	H	1.481409	-0.454345	-0.182067
H154	H	1.981409	0.045655	0.317933
H155	H	0.864014	0.101005	0.253145
H156	H	1.364014	0.601005	0.753145
N157	N	1.309808	0.197813	0.811121
N158	N	1.809808	0.697813	1.311121
N159	N	1.309821	0.197802	0.879551
N160	N	1.809821	0.697802	1.379551
H161	H	1.248028	0.231727	0.907209
H162	H	1.748028	0.731727	1.407209
N163	N	1.475064	-0.692934	0.134148
N164	N	1.975064	-0.192934	0.634148
N165	N	1.475921	-0.660418	0.193407
N166	N	1.975921	-0.160418	0.693407
H167	H	1.475228	-0.686688	0.241296
H168	H	1.975228	-0.186688	0.741296
N169	N	0.718099	0.098838	0.132728
N170	N	1.218099	0.598838	0.632728
N171	N	0.647776	0.147101	0.162355
N172	N	1.147776	0.647101	0.662355
H173	H	0.553285	0.145710	0.162363
H174	H	1.053285	0.645710	0.662363
N175	N	1.309739	0.197811	0.343782
N176	N	1.809739	0.697811	0.843782
N177	N	1.193677	0.196256	0.335231
N178	N	1.693677	0.696256	0.835231
H179	H	1.131872	0.230191	0.362868
H180	H	1.631872	0.730191	0.862868
N181	N	1.475083	-0.692899	-0.134219
N182	N	1.975083	-0.192899	0.365781
N183	N	1.475965	-0.660367	-0.193475
N184	N	1.975965	-0.160367	0.306525
H185	H	1.475271	-0.686622	-0.241366
H186	H	1.975271	-0.186622	0.258634
H187	H	1.487079	-0.241274	-0.120438
H188	H	1.987079	0.258726	0.379562
H189	H	0.745337	0.099210	-0.132782
H190	H	1.245337	0.599210	0.367218
H191	H	1.638293	0.017391	0.196797
H192	H	2.138293	0.517391	0.696797
N193	N	1.486816	-0.248865	0.134154
N194	N	1.986816	0.251135	0.634154
N195	N	1.485093	-0.313896	0.134143
N196	N	1.985093	0.186104	0.634143
H197	H	1.484377	-0.340182	0.182021
H198	H	1.984377	0.159818	0.682021
N199	N	1.309761	0.197816	0.188856
N200	N	1.809761	0.697816	0.688856
N201	N	1.309770	0.197814	0.120425
N202	N	1.809770	0.697814	0.620425
H203	H	1.247993	0.231751	0.092773
H204	H	1.747993	0.731751	0.592773
N205	N	1.478972	-0.545705	0.134138
N206	N	1.978972	-0.045705	0.634138
N207	N	1.480698	-0.480675	0.134132
N208	N	1.980698	0.019325	0.634132
H209	H	1.481395	-0.454402	0.182013
H210	H	1.981395	0.045598	0.682013
N211	N	1.247624	0.106690	0.132841
N212	N	1.747624	0.606690	0.632841
N213	N	1.318149	0.058464	0.103294
N214	N	1.818149	0.558464	0.603294
H215	H	1.412626	0.059912	0.103413
H216	H	1.912626	0.559912	0.603413
H217	H	1.490515	-0.109171	0.120418
H218	H	1.990515	0.390829	0.620418
H219	H	1.638334	0.017387	0.803154
H220	H	2.138334	0.517387	1.303154
H221	H	1.101651	0.104500	0.253149
H222	H	1.601651	0.604500	0.753149
H223	H	1.638328	0.017388	0.664110
H224	H	2.138328	0.517388	1.164110
N225	N	0.850609	0.100749	-0.266952
N226	N	1.350609	0.600749	0.233048
N227	N	0.733668	0.099017	-0.266945
N228	N	1.233668	0.599017	0.233055
H229	H	0.686422	0.098309	-0.314825
H230	H	1.186422	0.598309	0.185175
H231	H	1.327545	0.188070	0.664114
H232	H	1.827545	0.688070	1.164114
