data_functionalizedCrystal
_audit_creation_method	'MofGen! by Chris Wilmer'
_symmetry_space_group_name_H-M	'P1'
_symmetry_Int_Tables_number	1
_symmetry_cell_setting	triclinic
loop_
_symmetry_equiv_pos_as_xyz
  x,y,z
_cell_length_a	14.908571
_cell_length_b	16.625546
_cell_length_c	16.625539
_cell_angle_alpha	89.971468
_cell_angle_beta	86.690369
_cell_angle_gamma	86.718495
loop_
_atom_site_label
_atom_site_type_symbol
_atom_site_fract_x
_atom_site_fract_y
_atom_site_fract_z
Zn1	Zn	1.379176	-0.392256	-0.526895
Zn2	Zn	1.712510	-0.058923	-0.193561
Zn3	Zn	2.045843	0.274410	0.139772
Zn4	Zn	1.379077	-0.527090	-0.392052
Zn5	Zn	1.712411	-0.193757	-0.058719
Zn6	Zn	2.045744	0.139577	0.274615
Zn7	Zn	1.228319	-0.384488	-0.384309
Zn8	Zn	1.561653	-0.051154	-0.050976
Zn9	Zn	1.894986	0.282179	0.282357
Zn10	Zn	1.228277	-0.519256	-0.519079
Zn11	Zn	1.561610	-0.185923	-0.185746
Zn12	Zn	1.894944	0.147411	0.147588
O13	O	1.303713	-0.455773	-0.455584
O14	O	1.637046	-0.122439	-0.122250
O15	O	1.970379	0.210894	0.211083
O16	O	1.505408	-0.416672	-0.515519
O17	O	1.838741	-0.083339	-0.182185
O18	O	2.172075	0.249994	0.151148
O19	O	1.359055	-0.508201	-0.278191
O20	O	1.692389	-0.174868	0.055142
O21	O	2.025722	0.158466	0.388475
O22	O	1.248390	-0.272689	-0.403254
O23	O	1.581723	0.060644	-0.069921
O24	O	1.915057	0.393978	0.263412
O25	O	1.505335	-0.515734	-0.416450
O26	O	1.838669	-0.182401	-0.083117
O27	O	2.172002	0.150933	0.250216
O28	O	1.359224	-0.278397	-0.508011
O29	O	1.692557	0.054937	-0.174678
O30	O	2.025891	0.388270	0.158655
O31	O	1.248294	-0.403432	-0.272503
O32	O	1.581627	-0.070098	0.060830
O33	O	1.914961	0.263235	0.394164
O34	O	1.102069	-0.395835	-0.395676
O35	O	1.435403	-0.062502	-0.062342
O36	O	1.768736	0.270831	0.270991
O37	O	1.248318	-0.502382	-0.632949
O38	O	1.581651	-0.169049	-0.299616
O39	O	1.914985	0.164285	0.033717
O40	O	1.102038	-0.494849	-0.494690
O41	O	1.435371	-0.161516	-0.161357
O42	O	1.768705	0.171818	0.171976
O43	O	1.359183	-0.409076	-0.638692
O44	O	1.692516	-0.075743	-0.305358
O45	O	2.025850	0.257591	0.027975
O46	O	1.359014	-0.638880	-0.408872
O47	O	1.692348	-0.305547	-0.075538
O48	O	2.025681	0.027786	0.257795
O49	O	1.248222	-0.633125	-0.502198
O50	O	1.581555	-0.299791	-0.168865
O51	O	1.914889	0.033542	0.164469
C52	C	1.069320	-0.443650	-0.443495
C53	C	1.402653	-0.110316	-0.110162
C54	C	1.735987	0.223017	0.223171
C55	C	0.969046	-0.438483	-0.438343
C56	C	1.302379	-0.105149	-0.105009
C57	C	1.635712	0.228184	0.228324
C58	C	0.780636	-0.532037	-0.531626
C59	C	1.113969	-0.198703	-0.198293
C60	C	1.447302	0.134630	0.135041
C61	C	0.686419	-0.527184	-0.526788
C62	C	1.019752	-0.193851	-0.193454
C63	C	1.353086	0.139482	0.139879
C64	C	0.686394	-0.423923	-0.423832
C65	C	1.019727	-0.090589	-0.090499
C66	C	1.353061	0.242744	0.242834
C67	C	0.780611	-0.428775	-0.428671
C68	C	1.113944	-0.095441	-0.095337
C69	C	1.447277	0.237892	0.237996
C70	C	0.827728	-0.482834	-0.482569
C71	C	1.161061	-0.149501	-0.149235
C72	C	1.494395	0.183832	0.184098
C73	C	0.921946	-0.487690	-0.487402
C74	C	1.255280	-0.154357	-0.154069
C75	C	1.588613	0.178976	0.179264
C76	C	0.921920	-0.384425	-0.384451
C77	C	1.255253	-0.051091	-0.051118
C78	C	1.588586	0.282242	0.282215
C79	C	0.827703	-0.379573	-0.379613
C80	C	1.161037	-0.046239	-0.046280
C81	C	1.494370	0.287094	0.287054
C82	C	1.303627	-0.665259	-0.455546
C83	C	1.636961	-0.331926	-0.122212
C84	C	1.970294	0.001408	0.211121
C85	C	1.303673	-0.754883	-0.455561
C86	C	1.637007	-0.421549	-0.122227
C87	C	1.970340	-0.088216	0.211106
C88	C	1.303831	-1.083066	-0.455653
C89	C	1.637164	-0.749733	-0.122319
C90	C	1.970497	-0.416400	0.211014
C91	C	1.303784	-0.991755	-0.455629
C92	C	1.637117	-0.658422	-0.122296
C93	C	1.970451	-0.325089	0.211038
C94	C	1.303751	-0.918977	-0.455606
C95	C	1.637085	-0.585644	-0.122273
C96	C	1.970418	-0.252311	0.211061
C97	C	1.303706	-0.827661	-0.455583
C98	C	1.637039	-0.494327	-0.122250
C99	C	1.970373	-0.160994	0.211083
C100	C	1.539021	-0.467944	-0.467720
C101	C	1.872354	-0.134610	-0.134387
C102	C	2.205687	0.198723	0.198947
C103	C	1.639295	-0.473130	-0.472892
C104	C	1.972628	-0.139797	-0.139558
C105	C	2.305962	0.193537	0.193775
C106	C	1.303757	-0.455722	-0.665895
C107	C	1.637090	-0.122388	-0.332562
C108	C	1.970423	0.210945	0.000772
C109	C	1.303776	-0.455700	-0.755517
C110	C	1.637109	-0.122367	-0.422184
C111	C	1.970442	0.210967	-0.088851
C112	C	1.303823	-0.245469	-0.455641
C113	C	1.637156	0.087864	-0.122308
C114	C	1.970490	0.421197	0.211026
C115	C	1.303870	-0.155851	-0.455665
C116	C	1.637203	0.177483	-0.122332
C117	C	1.970537	0.510816	0.211001
C118	C	1.303790	-0.455683	-0.828300
C119	C	1.637124	-0.122350	-0.494967
C120	C	1.970457	0.210984	-0.161634
C121	C	1.303811	-0.455654	-0.919610
C122	C	1.637145	-0.122321	-0.586277
C123	C	1.970478	0.211013	-0.252943
C124	C	1.303833	-0.455627	-0.992388
C125	C	1.637166	-0.122293	-0.659054
C126	C	1.970499	0.211040	-0.325721
C127	C	1.303855	-0.455599	-1.083703
C128	C	1.637189	-0.122265	-0.750370
C129	C	1.970522	0.211068	-0.417036
C130	C	1.303720	-0.455768	-0.246093
C131	C	1.637054	-0.122435	0.087240
C132	C	1.970387	0.210899	0.420573
C133	C	1.303876	-0.455571	-0.156481
C134	C	1.637210	-0.122238	0.176853
C135	C	1.970543	0.211095	0.510186
H136	H	0.648015	-0.379905	-0.379957
H137	H	0.981348	-0.046571	-0.046623
H138	H	1.314681	0.286762	0.286710
H139	H	0.960308	-0.531710	-0.531287
H140	H	1.293641	-0.198376	-0.197954
H141	H	1.626975	0.134957	0.135379
H142	H	0.648080	-0.567248	-0.566737
H143	H	0.981413	-0.233915	-0.233404
H144	H	1.314746	0.099418	0.099930
H145	H	0.789327	-0.335557	-0.335733
H146	H	1.122661	-0.002223	-0.002400
H147	H	1.455994	0.331110	0.330933
H148	H	0.960273	-0.344362	-0.344503
H149	H	1.293606	-0.011029	-0.011170
H150	H	1.626939	0.322304	0.322163
H151	H	0.818999	-0.576058	-0.575507
H152	H	1.152333	-0.242725	-0.242174
H153	H	1.485666	0.090608	0.091159
