data_functionalizedCrystal
_audit_creation_method	'MofGen! by Chris Wilmer'
_symmetry_space_group_name_H-M	'P1'
_symmetry_Int_Tables_number	1
_symmetry_cell_setting	triclinic
loop_
_symmetry_equiv_pos_as_xyz
  x,y,z
_cell_length_a	15.944551
_cell_length_b	13.339070
_cell_length_c	11.804365
_cell_angle_alpha	105.124870
_cell_angle_beta	101.830656
_cell_angle_gamma	80.435984
loop_
_atom_site_label
_atom_site_type_symbol
_atom_site_fract_x
_atom_site_fract_y
_atom_site_fract_z
O1	O	0.408901	-1.362759	-0.099080
O2	O	0.742234	-1.029425	0.234253
O3	O	1.075567	-0.696092	0.567586
O4	O	0.353629	-1.068226	-0.099072
O5	O	0.686963	-0.734893	0.234261
O6	O	1.020296	-0.401559	0.567595
O7	O	0.260866	-1.223533	-0.099066
O8	O	0.594199	-0.890200	0.234268
O9	O	0.927532	-0.556867	0.567601
O10	O	0.501664	-1.207452	-0.099087
O11	O	0.834998	-0.874118	0.234247
O12	O	1.168331	-0.540785	0.567580
O13	O	0.285253	-1.182647	0.098989
O14	O	0.618586	-0.849313	0.432322
O15	O	0.951919	-0.515980	0.765655
O16	O	0.378016	-1.027340	0.098982
O17	O	0.711350	-0.694006	0.432316
O18	O	1.044683	-0.360673	0.765649
O19	O	0.433288	-1.321872	0.098974
O20	O	0.766621	-0.988539	0.432307
O21	O	1.099954	-0.655206	0.765641
Cu22	Cu	0.407879	-1.170873	0.117062
Cu23	Cu	0.741212	-0.837539	0.450395
Cu24	Cu	1.074545	-0.504206	0.783729
Cu25	Cu	0.379038	-1.219226	-0.117160
Cu26	Cu	0.712372	-0.885892	0.216173
Cu27	Cu	1.045705	-0.552559	0.549507
O28	O	0.526051	-1.166565	0.098968
O29	O	0.859385	-0.833232	0.432301
O30	O	1.192718	-0.499898	0.765634
C31	C	0.356486	-1.010093	-0.000044
C32	C	0.689820	-0.676759	0.333290
C33	C	1.023153	-0.343426	0.666623
C34	C	0.328657	-0.897788	-0.000040
C35	C	0.661990	-0.564455	0.333293
C36	C	0.995323	-0.231122	0.666627
C37	C	0.241610	-1.202422	-0.000038
C38	C	0.574943	-0.869089	0.333295
C39	C	0.908276	-0.535755	0.666628
C40	C	0.147897	-1.200420	-0.000038
C41	C	0.481230	-0.867087	0.333296
C42	C	0.814564	-0.533753	0.666629
C43	C	0.430430	-1.380006	-0.000057
C44	C	0.763764	-1.046673	0.333276
C45	C	1.097097	-0.713339	0.666610
C46	C	0.458259	-1.492312	-0.000068
C47	C	0.791592	-1.158979	0.333265
C48	C	1.124926	-0.825645	0.666598
C49	C	-0.090508	-1.099370	-0.000051
C50	C	0.242826	-0.766037	0.333282
C51	C	0.576159	-0.432703	0.666616
C52	C	-0.128567	-1.126136	0.097600
C53	C	0.204767	-0.792803	0.430934
C54	C	0.538100	-0.459470	0.764267
C55	C	-0.023674	-1.196800	-0.000047
C56	C	0.309659	-0.863467	0.333287
C57	C	0.642993	-0.530133	0.666620
C58	C	-0.152588	-1.166470	-0.097666
C59	C	0.180745	-0.833137	0.235668
C60	C	0.514078	-0.499803	0.569001
C61	C	-0.189405	-1.193297	-0.000060
C62	C	0.143928	-0.859964	0.333273
C63	C	0.477262	-0.526630	0.666606
C64	C	-0.060489	-1.223576	0.097685
C65	C	0.272845	-0.890243	0.431019
C66	C	0.606178	-0.556910	0.764352
C67	C	-0.084518	-1.263915	-0.097668
C68	C	0.248815	-0.930581	0.235665
C69	C	0.582149	-0.597248	0.568998
C70	C	-0.122540	-1.290747	0.000007
C71	C	0.210793	-0.957414	0.333340
C72	C	0.544127	-0.624080	0.666674
C73	C	0.071799	-1.198815	-0.000038
C74	C	0.405133	-0.865481	0.333296
C75	C	0.738466	-0.532148	0.666629
C76	C	-0.284874	-1.191288	-0.000061
C77	C	0.048459	-0.857955	0.333272
C78	C	0.381792	-0.524621	0.666606
C79	C	0.545307	-1.187677	-0.000062
C80	C	0.878640	-0.854343	0.333271
C81	C	1.211974	-0.521010	0.666604
C82	C	0.639019	-1.189681	-0.000071
C83	C	0.972352	-0.856347	0.333262
C84	C	1.305685	-0.523014	0.666596
N85	N	0.428165	-1.136871	0.281801
N86	N	0.761498	-0.803538	0.615135
N87	N	1.094831	-0.470205	0.948468
C88	C	0.545045	-0.533018	-0.000078
C89	C	0.878378	-0.199685	0.333256
C90	C	1.211711	0.133649	0.666589
C91	C	0.571194	-0.638534	-0.000085
C92	C	0.904528	-0.305200	0.333248
C93	C	1.237861	0.028133	0.666582
C94	C	0.510562	-0.703352	-0.000073
C95	C	0.843895	-0.370019	0.333260
C96	C	1.177229	-0.036686	0.666593
C97	C	0.423776	-0.662645	-0.000055
C98	C	0.757109	-0.329312	0.333278
C99	C	1.090442	0.004022	0.666611
C100	C	0.397622	-0.557121	-0.000058
C101	C	0.730956	-0.223787	0.333276
C102	C	1.064289	0.109546	0.666609
C103	C	0.363140	-0.727455	-0.000053
C104	C	0.696473	-0.394122	0.333280
C105	C	1.029807	-0.060789	0.666614
C106	C	0.276354	-0.686748	-0.000035
C107	C	0.609687	-0.353415	0.333298
C108	C	0.943020	-0.020081	0.666631
C109	C	0.250205	-0.581234	-0.000037
C110	C	0.583538	-0.247900	0.333297
C111	C	0.916871	0.085433	0.666630
C112	C	0.310837	-0.516415	-0.000048
C113	C	0.644170	-0.183082	0.333285
C114	C	0.977504	0.150252	0.666618
C115	C	0.389293	-0.832980	-0.000051
C116	C	0.722627	-0.499646	0.333283
C117	C	1.055960	-0.166313	0.666616
C118	C	0.241871	-0.857083	-0.000031
C119	C	0.575204	-0.523749	0.333303
C120	C	0.908538	-0.190416	0.666636
C121	C	0.215721	-0.751567	-0.000024
C122	C	0.549055	-0.418233	0.333310
C123	C	0.882388	-0.084900	0.666643
N124	N	0.358748	-1.253235	-0.281899
N125	N	0.692081	-0.919902	0.051434
N126	N	1.025414	-0.586568	0.384767
C127	C	0.310017	-1.334885	0.655758
C128	C	0.643351	-1.001552	0.989091
C129	C	0.976684	-0.668218	1.322425
C130	C	0.294667	-1.360606	0.531097
C131	C	0.628001	-1.027273	0.864431
C132	C	0.961334	-0.693939	1.197764
C133	C	0.328040	-1.304674	0.468767
C134	C	0.661373	-0.971341	0.802101
C135	C	0.994707	-0.638007	1.135434
C136	C	0.376766	-1.223018	0.531110
C137	C	0.710099	-0.889684	0.864443
C138	C	1.043433	-0.556351	1.197777
C139	C	0.392123	-1.197300	0.655783
C140	C	0.725457	-0.863966	0.989116
C141	C	1.058790	-0.530633	1.322450
C142	C	0.410146	-1.167089	0.468792
C143	C	0.743479	-0.833755	0.802125
C144	C	1.076813	-0.500422	1.135459
C145	C	0.458872	-1.085432	0.531135
C146	C	0.792206	-0.752099	0.864468
C147	C	1.125539	-0.418766	1.197801
C148	C	0.474226	-1.059718	0.655795
C149	C	0.807560	-0.726384	0.989129
C150	C	1.140893	-0.393051	1.322462
C151	C	0.440854	-1.115650	0.718126
C152	C	0.774187	-0.782316	1.051459
C153	C	1.107520	-0.448983	1.384792
C154	C	0.394789	-1.192807	0.344119
C155	C	0.728122	-0.859473	0.677453
C156	C	1.061455	-0.526140	1.010786
C157	C	0.476895	-1.055221	0.344144
C158	C	0.810228	-0.721888	0.677477
C159	C	1.143562	-0.388555	1.010811
C160	C	0.492245	-1.029500	0.468805
C161	C	0.825578	-0.696167	0.802138
C162	C	1.158912	-0.362834	1.135471
H163	H	-0.076032	-1.018477	0.000049
H164	H	0.257302	-0.685144	0.333382
H165	H	0.590635	-0.351811	0.666715
H166	H	0.531858	-0.789268	-0.000082
H167	H	0.865191	-0.455935	0.333252
H168	H	1.198525	-0.122602	0.666585
H169	H	0.282855	-1.380423	0.706515
H170	H	0.616188	-1.047089	1.039849
H171	H	0.949522	-0.713756	1.373182
H172	H	-0.148112	-1.067883	0.180159
H173	H	0.185222	-0.734550	0.513492
H174	H	0.518555	-0.401217	0.846826
H175	H	-0.020727	-1.247689	0.180333
H176	H	0.312606	-0.914356	0.513666
H177	H	0.645939	-0.581023	0.846999
H178	H	0.315540	-1.325620	0.367263
H179	H	0.648873	-0.992287	0.700596
H180	H	0.982206	-0.658953	1.033930
H181	H	0.254996	-1.427091	0.480342
H182	H	0.588329	-1.093757	0.813676
H183	H	0.921663	-0.760424	1.147009
H184	H	0.145057	-0.718410	-0.000019
H185	H	0.478390	-0.385076	0.333314
H186	H	0.811724	-0.051743	0.666648
H187	H	0.453348	-1.094705	0.819635
H188	H	0.786682	-0.761372	1.152968
H189	H	1.120015	-0.428039	1.486301
H190	H	0.513910	-0.993236	0.706555
H191	H	0.847243	-0.659903	1.039888
H192	H	1.180577	-0.326570	1.373222
H193	H	-0.136831	-1.371679	0.000060
H194	H	0.196502	-1.038346	0.333393
H195	H	0.529835	-0.705012	0.666726
H196	H	0.641854	-0.671672	-0.000109
H197	H	0.975188	-0.338338	0.333225
H198	H	1.308521	-0.005005	0.666558
H199	H	0.289550	-0.430494	-0.000042
H200	H	0.622883	-0.097161	0.333291
H201	H	0.956217	0.236173	0.666625
H202	H	0.179536	-0.548096	-0.000035
H203	H	0.512870	-0.214763	0.333298
H204	H	0.846203	0.118570	0.666631
H205	H	0.192498	-0.909859	-0.000026
H206	H	0.525832	-0.576526	0.333307
H207	H	0.859165	-0.243193	0.666640
H208	H	0.355116	-1.259292	0.293371
H209	H	0.688450	-0.925958	0.626704
H210	H	1.021783	-0.592625	0.960037
H211	H	-0.064960	-1.322133	-0.180231
H212	H	0.268374	-0.988800	0.153102
H213	H	0.601707	-0.655466	0.486435
H214	H	0.531919	-0.963014	0.519580
H215	H	0.865253	-0.629681	0.852913
H216	H	1.198586	-0.296347	1.186246
H217	H	0.594401	-0.480236	-0.000097
H218	H	0.927734	-0.146903	0.333236
H219	H	1.261067	0.186430	0.666569
H220	H	0.504072	-1.009678	0.293396
H221	H	0.837406	-0.676345	0.626729
H222	H	1.170739	-0.343012	0.960062
H223	H	-0.192437	-1.142292	-0.180228
H224	H	0.140897	-0.808959	0.153105
H225	H	0.474230	-0.475626	0.486439
H226	H	0.459956	-0.866112	-0.000061
H227	H	0.793289	-0.532778	0.333273
H228	H	1.126622	-0.199445	0.666606
