data_functionalizedCrystal
_audit_creation_method	'MofGen! by Chris Wilmer'
_symmetry_space_group_name_H-M	'P1'
_symmetry_Int_Tables_number	1
_symmetry_cell_setting	triclinic
loop_
_symmetry_equiv_pos_as_xyz
  x,y,z
_cell_length_a	6.817900
_cell_length_b	10.773890
_cell_length_c	10.773894
_cell_angle_alpha	96.485539
_cell_angle_beta	96.645922
_cell_angle_gamma	96.645716
loop_
_atom_site_label
_atom_site_type_symbol
_atom_site_fract_x
_atom_site_fract_y
_atom_site_fract_z
V1	V	-3.915798	-0.168034	-0.386966
V2	V	-3.415798	0.331966	0.113034
O3	O	-3.940463	0.012792	-0.381691
O4	O	-3.440463	0.512792	0.118309
O5	O	-3.834375	-0.337720	-0.382308
O6	O	-3.334375	0.162280	0.117692
O7	O	-3.834377	-0.163379	-0.556653
O8	O	-3.334377	0.336621	-0.056653
O9	O	-3.940461	-0.162756	-0.206139
O10	O	-3.440461	0.337244	0.293861
V11	V	-4.407984	-0.146649	-0.365582
V12	V	-3.907984	0.353351	0.134418
O13	O	-4.158054	-0.214942	-0.433873
O14	O	-3.658054	0.285058	0.066127
O15	O	-4.615925	-0.099741	-0.318674
O16	O	-4.115925	0.400259	0.181326
O17	O	-4.266200	0.023037	-0.370240
O18	O	-3.766200	0.523037	0.129760
O19	O	-4.500717	-0.327476	-0.370857
O20	O	-4.000717	0.172524	0.129143
O21	O	-4.500718	-0.151928	-0.546408
O22	O	-4.000718	0.348072	-0.046408
O23	O	-4.266199	-0.151304	-0.195895
O24	O	-3.766199	0.348696	0.304105
C25	C	-3.672411	-0.379151	-0.375684
C26	C	-3.172411	0.120849	0.124316
C27	C	-3.686905	-0.517858	-0.373007
C28	C	-3.186905	-0.017858	0.126993
C29	C	-3.864075	-0.585666	-0.377659
C30	C	-3.364075	-0.085666	0.122341
C31	C	-3.879059	-0.729028	-0.374892
C32	C	-3.379059	-0.229028	0.125108
C33	C	-3.672413	-0.156760	-0.598077
C34	C	-3.172413	0.343240	-0.098077
C35	C	-3.686907	-0.154077	-0.736783
C36	C	-3.186907	0.345923	-0.236783
C37	C	-3.864077	-0.158727	-0.804591
C38	C	-3.364077	0.341273	-0.304591
C39	C	-3.879061	-0.155954	-0.947951
C40	C	-3.379061	0.344046	-0.447951
C41	C	-4.091506	0.064461	-0.376860
C42	C	-3.591506	0.564461	0.123140
C43	C	-4.056249	0.203167	-0.379545
C44	C	-3.556249	0.703167	0.120455
C45	C	-4.091506	-0.157928	-0.154464
C46	C	-3.591506	0.342072	0.345536
C47	C	-4.056251	-0.160604	-0.015757
C48	C	-3.556251	0.339396	0.484243
H49	H	-3.546318	-0.565941	-0.366982
H50	H	-3.046318	-0.065941	0.133018
H51	H	-4.004664	-0.537585	-0.383698
H52	H	-3.504664	-0.037585	0.116302
H53	H	-3.738458	-0.777105	-0.368867
H54	H	-3.238458	-0.277105	0.131133
H55	H	-4.196852	-0.748759	-0.385582
H56	H	-3.696852	-0.248759	0.114418
H57	H	-3.546318	-0.148034	-0.784864
H58	H	-3.046318	0.351966	-0.284864
H59	H	-4.004664	-0.164752	-0.756508
H60	H	-3.504664	0.335248	-0.256508
H61	H	-3.738459	-0.149911	-0.996027
H62	H	-3.238459	0.350089	-0.496027
H63	H	-4.196855	-0.166643	-0.967683
H64	H	-3.696855	0.333357	-0.467683
