data_functionalizedCrystal
_audit_creation_method	'MofGen! by Chris Wilmer'
_symmetry_space_group_name_H-M	'P1'
_symmetry_Int_Tables_number	1
_symmetry_cell_setting	triclinic
loop_
_symmetry_equiv_pos_as_xyz
  x,y,z
_cell_length_a	13.032831
_cell_length_b	12.645330
_cell_length_c	13.032268
_cell_angle_alpha	82.848794
_cell_angle_beta	89.113023
_cell_angle_gamma	82.817450
loop_
_atom_site_label
_atom_site_type_symbol
_atom_site_fract_x
_atom_site_fract_y
_atom_site_fract_z
Zn1	Zn	1.498543	-0.715938	0.780857
Zn2	Zn	1.520300	-0.873886	0.608882
Zn3	Zn	1.348398	-0.671652	0.587097
Zn4	Zn	1.326547	-0.868154	0.759007
O5	O	1.423447	-0.782407	0.683961
O6	O	1.645352	-0.757822	0.776306
O7	O	1.515746	-0.830924	0.462075
O8	O	1.368354	-0.529188	0.612827
O9	O	1.661336	-0.873866	0.649956
O10	O	1.478665	-0.561724	0.755181
O11	O	1.389450	-0.682344	0.446069
O12	O	1.201577	-0.676786	0.591639
O13	O	1.331113	-0.864097	0.905823
O14	O	1.185523	-0.821155	0.717941
O15	O	1.457478	-0.752265	0.921876
O16	O	1.494559	-1.021464	0.628769
O17	O	1.352210	-1.017253	0.739065
C18	C	1.156232	-0.743544	0.650056
C19	C	1.041914	-0.726946	0.635576
C20	C	0.983043	-0.791070	0.691518
C21	C	0.864889	-0.773917	0.676553
C22	C	1.423399	-1.057828	0.683936
C23	C	1.423468	-1.175671	0.683972
C24	C	1.513102	-1.223179	0.614665
C25	C	1.512955	-1.345681	0.614358
C26	C	1.318784	-1.324651	0.641109
C27	C	1.319269	-1.202045	0.640556
C28	C	1.437647	-1.237046	0.796295
C29	C	1.440160	-1.359944	0.796054
C30	C	1.691705	-0.821424	0.717998
C31	C	1.806020	-0.838050	0.732503
C32	C	1.389431	-0.812481	0.952209
C33	C	1.374936	-0.825297	1.066520
C34	C	1.423520	-0.505918	0.684011
C35	C	1.423552	-0.388095	0.684033
C36	C	1.457389	-0.752382	0.416764
C37	C	1.472084	-0.739297	0.302478
C38	C	1.430996	-0.775678	1.125426
C39	C	1.416016	-0.788923	1.243573
H40	H	1.591067	-1.389434	0.642776
H41	H	1.517192	-1.403029	0.828175
H42	H	0.827821	-0.706311	0.617580
H43	H	0.843086	-0.905648	0.791487
H44	H	1.490078	-0.723388	1.088390
H45	H	1.531168	-0.687001	1.265448
H46	H	1.591467	-1.207381	0.642895
C47	C	1.538095	-1.214479	0.845515
N48	N	1.613759	-1.197481	0.882577
H49	H	1.250802	-1.351241	0.689456
C50	C	0.991836	-0.635621	0.555904
N51	N	0.954119	-0.566833	0.495893
C52	C	1.336184	-0.859560	1.293597
N53	N	1.276055	-0.912762	1.331276
C54	C	1.502093	-1.165903	0.503260
N55	N	1.493797	-1.122762	0.419350
C56	C	1.295108	-0.895931	1.116548
N57	N	1.234979	-0.949133	1.154227
C58	C	1.501744	-1.369538	0.502322
N59	N	1.493294	-1.387504	0.417932
C60	C	1.300906	-1.146796	0.529095
N61	N	1.287073	-1.105188	0.445139
C62	C	1.226970	-1.158315	0.704815
N63	N	1.157452	-1.125383	0.753215
H64	H	1.378580	-1.389757	0.851565
C65	C	1.033121	-0.882396	0.771188
N66	N	1.070839	-0.951188	0.831195
H67	H	1.372201	-1.206250	0.848102
H68	H	1.304697	-1.343102	0.559441
