data_functionalizedCrystal
_audit_creation_method	'MofGen! by Chris Wilmer'
_symmetry_space_group_name_H-M	'P1'
_symmetry_Int_Tables_number	1
_symmetry_cell_setting	triclinic
loop_
_symmetry_equiv_pos_as_xyz
  x,y,z
_cell_length_a	8.497374
_cell_length_b	8.497374
_cell_length_c	15.297475
_cell_angle_alpha	99.693313
_cell_angle_beta	99.666323
_cell_angle_gamma	90.004389
loop_
_atom_site_label
_atom_site_type_symbol
_atom_site_fract_x
_atom_site_fract_y
_atom_site_fract_z
Zn1	Zn	1.308970	1.046468	1.379248
Zn2	Zn	1.045233	1.310216	1.379240
Zn3	Zn	0.999611	1.000719	1.228420
Zn4	Zn	1.263374	1.264467	1.228399
O5	O	1.154297	1.155467	1.303827
O6	O	1.312159	1.119747	1.505497
O7	O	0.818420	1.269160	1.359238
O8	O	1.040637	0.786029	1.248440
O9	O	1.118393	1.313521	1.505491
O10	O	1.267921	0.819641	1.359253
O11	O	0.784902	1.041773	1.248432
O12	O	0.996425	0.997413	1.102167
O13	O	1.490183	1.235549	1.248404
O14	O	1.190211	1.191188	1.102152
O15	O	1.523682	1.075387	1.359233
O16	O	1.074181	1.524906	1.359219
O17	O	1.234448	1.491294	1.248396
C18	C	1.083420	1.084373	1.069425
C19	C	1.053136	1.053996	0.969147
C20	C	1.744419	1.155494	1.303832
C21	C	1.565772	1.155484	1.303823
C22	C	1.154316	1.565344	1.303815
C23	C	1.154298	1.743995	1.303839
C24	C	1.370745	1.372585	0.686548
C25	C	1.399193	1.401137	0.780764
C26	C	1.312682	1.314354	0.827864
C27	C	1.197716	1.199015	0.780739
C28	C	1.169256	1.170468	0.686513
C29	C	1.111193	1.112237	0.827830
C30	C	0.996227	0.996898	0.780705
C31	C	0.967773	0.968356	0.686488
C32	C	1.054284	1.055139	0.639388
C33	C	1.139654	1.140783	0.922056
C34	C	0.938165	0.938667	0.922021
C35	C	0.909716	0.910115	0.827805
C36	C	1.225451	1.226841	1.539144
C37	C	1.255773	1.257256	1.639422
H38	H	1.335853	1.337608	0.904579
H39	H	0.867717	0.868003	0.960370
H40	H	1.031130	1.031895	0.562669
O41	O	1.251440	1.252618	0.967926
C42	C	1.369955	1.179469	1.022411
H43	H	1.318756	1.064102	1.036518
H44	H	1.475920	1.151318	0.986104
C45	C	1.488316	1.435129	1.094590
C46	C	1.425429	1.293440	1.111922
H47	H	1.522542	1.505432	1.149803
H48	H	1.408475	1.484412	1.057880
H49	H	1.576613	1.411648	1.064332
H50	H	1.337123	1.316919	1.142169
H51	H	1.505257	1.244163	1.148640
O52	O	1.510971	1.513174	0.826399
C53	C	1.581199	1.583677	0.764627
H54	H	1.566478	1.498718	0.697461
H55	H	1.520217	1.700361	0.754606
C56	C	1.778256	1.722183	0.883912
C57	C	1.760188	1.617829	0.801420
H58	H	1.888663	1.743257	0.906608
H59	H	1.730939	1.674689	0.925530
H60	H	1.727427	1.819408	0.875550
H61	H	1.810998	1.520600	0.809785
H62	H	1.807517	1.665307	0.759804
O63	O	0.855862	0.856572	0.640685
C64	C	0.737402	0.929760	0.586187
H65	H	0.736126	1.062605	0.614589
H66	H	0.764552	0.913611	0.514773
C67	C	0.574618	0.688910	0.549877
C68	C	0.573042	0.852069	0.584765
H69	H	0.473233	0.640983	0.548995
H70	H	0.654429	0.639598	0.586590
H71	H	0.597250	0.675474	0.490367
H72	H	0.550430	0.865502	0.644276
H73	H	0.493223	0.901382	0.548061
H74	H	1.441160	1.443241	0.648190
H75	H	0.816109	0.816204	0.789422
