data_functionalizedCrystal
_audit_creation_method	'MofGen! by Chris Wilmer'
_symmetry_space_group_name_H-M	'P1'
_symmetry_Int_Tables_number	1
_symmetry_cell_setting	triclinic
loop_
_symmetry_equiv_pos_as_xyz
  x,y,z
_cell_length_a	14.908782
_cell_length_b	14.908520
_cell_length_c	19.805399
_cell_angle_alpha	93.270609
_cell_angle_beta	93.283594
_cell_angle_gamma	89.837842
loop_
_atom_site_label
_atom_site_type_symbol
_atom_site_fract_x
_atom_site_fract_y
_atom_site_fract_z
Zn1	Zn	1.353893	-0.437247	-0.342898
Zn2	Zn	1.687226	-0.103913	-0.009565
Zn3	Zn	2.020560	0.229420	0.323769
Zn4	Zn	1.345114	-0.587606	-0.236600
Zn5	Zn	1.678447	-0.254273	0.096733
Zn6	Zn	2.011780	0.079061	0.430066
Zn7	Zn	1.203538	-0.428602	-0.235873
Zn8	Zn	1.536872	-0.095269	0.097460
Zn9	Zn	1.870205	0.238065	0.430794
Zn10	Zn	1.194828	-0.578893	-0.355891
Zn11	Zn	1.528161	-0.245559	-0.022558
Zn12	Zn	1.861494	0.087774	0.310775
O13	O	1.274343	-0.508087	-0.292816
O14	O	1.607677	-0.174753	0.040518
O15	O	1.941010	0.158580	0.373851
O16	O	1.478548	-0.464456	-0.323664
O17	O	1.811881	-0.131123	0.009669
O18	O	2.145215	0.202210	0.343003
O19	O	1.326305	-0.566543	-0.141790
O20	O	1.659638	-0.233209	0.191544
O21	O	1.992971	0.100124	0.524877
O22	O	1.230803	-0.303926	-0.244328
O23	O	1.564136	0.029408	0.089005
O24	O	1.897469	0.362741	0.422339
O25	O	1.472098	-0.574925	-0.245568
O26	O	1.805431	-0.241592	0.087766
O27	O	2.138764	0.091742	0.421099
O28	O	1.341268	-0.310277	-0.322959
O29	O	1.674601	0.023057	0.010374
O30	O	2.007935	0.356390	0.343708
O31	O	1.222290	-0.449723	-0.141255
O32	O	1.555623	-0.116390	0.192078
O33	O	1.888956	0.216944	0.525411
O34	O	1.076563	-0.441274	-0.256927
O35	O	1.409897	-0.107941	0.076406
O36	O	1.743230	0.225393	0.409740
O37	O	1.215957	-0.560074	-0.448882
O38	O	1.549290	-0.226741	-0.115548
O39	O	1.882623	0.106593	0.217785
O40	O	1.070164	-0.551692	-0.345104
O41	O	1.403497	-0.218359	-0.011771
O42	O	1.736830	0.114975	0.321563
O43	O	1.332822	-0.456007	-0.439336
O44	O	1.666155	-0.122674	-0.106002
O45	O	1.999488	0.210659	0.227331
O46	O	1.317858	-0.712273	-0.258167
O47	O	1.651192	-0.378940	0.075167
O48	O	1.984525	-0.045607	0.408500
O49	O	1.207444	-0.705872	-0.345809
O50	O	1.540777	-0.372538	-0.012476
O51	O	1.874110	-0.039205	0.320858
C52	C	1.040740	-0.494600	-0.302347
C53	C	1.374073	-0.161267	0.030986
C54	C	1.707407	0.172067	0.364320
C55	C	0.940802	-0.488852	-0.306441
C56	C	1.274136	-0.155519	0.026892
C57	C	1.607469	0.177815	0.360225
C58	C	0.746300	-0.592924	-0.232674
C59	C	1.079633	-0.259591	0.100659
C60	C	1.412966	0.073743	0.433992
C61	C	0.652399	-0.587526	-0.236519
C62	C	0.985732	-0.254193	0.096814
C63	C	1.319066	0.079141	0.430147
C64	C	0.659098	-0.472664	-0.317980
C65	C	0.992432	-0.139330	0.015353
C66	C	1.325765	0.194003	0.348686
C67	C	0.752999	-0.478061	-0.314135
C68	C	1.086332	-0.144728	0.019198
C69	C	1.419666	0.188605	0.352532
C70	C	0.796596	-0.538193	-0.271480
C71	C	1.129930	-0.204859	0.061853
C72	C	1.463263	0.128474	0.395187
C73	C	0.890499	-0.543585	-0.267631
C74	C	1.223832	-0.210252	0.065702
C75	C	1.557165	0.123081	0.399035
C76	C	0.897196	-0.428728	-0.349095
C77	C	1.230530	-0.095395	-0.015762
C78	C	1.563863	0.237939	0.317571
C79	C	0.803296	-0.423330	-0.352941
C80	C	1.136629	-0.089997	-0.019607
C81	C	1.469962	0.243337	0.313726
C82	C	1.260778	-0.741698	-0.303490
C83	C	1.594111	-0.408365	0.029843
C84	C	1.927444	-0.075032	0.363176
C85	C	1.255056	-0.841643	-0.308076
C86	C	1.588390	-0.508310	0.025257
C87	C	1.921723	-0.174977	0.358590
C88	C	1.359399	-1.036062	-0.225497
C89	C	1.692732	-0.702729	0.107837
C90	C	2.026065	-0.369395	0.441170
C91	C	1.354026	-1.129969	-0.229803
C92	C	1.687360	-0.796636	0.103530
C93	C	2.020693	-0.463302	0.436863
C94	C	1.238944	-1.123367	-0.320999
C95	C	1.572277	-0.790033	0.012334
C96	C	1.905611	-0.456700	0.345668
C97	C	1.244317	-1.029460	-0.316692
C98	C	1.577650	-0.696126	0.016641
C99	C	1.910983	-0.362793	0.349974
C100	C	1.304545	-0.985810	-0.268939
C101	C	1.637878	-0.652477	0.064394
C102	C	1.971212	-0.319144	0.397728
C103	C	1.309912	-0.891901	-0.264630
C104	C	1.643246	-0.558568	0.068704
C105	C	1.976579	-0.225235	0.402037
C106	C	1.194835	-0.885301	-0.355828
C107	C	1.528169	-0.551968	-0.022495
C108	C	1.861502	-0.218634	0.310839
C109	C	1.189463	-0.979208	-0.360135
C110	C	1.522796	-0.645875	-0.026801
C111	C	1.856130	-0.312542	0.306532
C112	C	1.508859	-0.521627	-0.283248
C113	C	1.842192	-0.188294	0.050086
C114	C	2.175525	0.145040	0.383419
C115	C	1.608795	-0.527397	-0.279170
C116	C	1.942128	-0.194064	0.054163
C117	C	2.275462	0.139270	0.387496
C118	C	1.274397	-0.508033	-0.469354
C119	C	1.607730	-0.174700	-0.136020
C120	C	1.941064	0.158634	0.197313
C121	C	1.274420	-0.508010	-0.544584
C122	C	1.607753	-0.174677	-0.211251
C123	C	1.941086	0.158656	0.122083
C124	C	1.287986	-0.273564	-0.282113
C125	C	1.621320	0.059769	0.051220
C126	C	1.954653	0.393102	0.384554
C127	C	1.293800	-0.173625	-0.277552
C128	C	1.627133	0.159708	0.055781
C129	C	1.960467	0.493042	0.389114
C130	C	1.335273	-0.453820	-0.574958
C131	C	1.668606	-0.120487	-0.241625
C132	C	2.001939	0.212847	0.091708
C133	C	1.335283	-0.453794	-0.645645
C134	C	1.668617	-0.120461	-0.312312
C135	C	2.001950	0.212872	0.021021
C136	C	1.274445	-0.507964	-0.685956
C137	C	1.607778	-0.174631	-0.352623
C138	C	1.941111	0.158702	-0.019290
C139	C	1.213585	-0.562157	-0.655577
C140	C	1.546919	-0.228824	-0.322244
C141	C	1.880252	0.104510	0.011089
C142	C	1.213571	-0.562177	-0.584892
C143	C	1.546904	-0.228844	-0.251558
C144	C	1.880238	0.104490	0.081775
C145	C	1.213641	-0.562076	-0.940645
C146	C	1.546974	-0.228743	-0.607312
C147	C	1.880308	0.104591	-0.273978
C148	C	1.213662	-0.562054	-1.011335
C149	C	1.546995	-0.228720	-0.678002
C150	C	1.880328	0.104613	-0.344669
C151	C	1.335353	-0.453693	-1.001398
C152	C	1.668687	-0.120360	-0.668065
C153	C	2.002020	0.212973	-0.334732
C154	C	1.335339	-0.453713	-0.930713
C155	C	1.668672	-0.120380	-0.597379
C156	C	2.002006	0.212953	-0.264046
C157	C	1.274477	-0.507902	-0.900340
C158	C	1.607810	-0.174569	-0.567006
C159	C	1.941144	0.158765	-0.233673
C160	C	1.274465	-0.507928	-0.823693
C161	C	1.607798	-0.174594	-0.490360
C162	C	1.941132	0.158739	-0.157026
C163	C	1.274460	-0.507944	-0.762602
C164	C	1.607794	-0.174611	-0.429269
C165	C	1.941127	0.158723	-0.095935
C166	C	1.274345	-0.508078	-0.116959
C167	C	1.607679	-0.174745	0.216374
C168	C	1.941012	0.158588	0.549707
C169	C	1.274511	-0.507858	-0.041711
C170	C	1.607844	-0.174525	0.291622
C171	C	1.941178	0.158809	0.624956
H172	H	0.925994	-0.592545	-0.232898
H173	H	1.259328	-0.259212	0.100436
H174	H	1.592661	0.074121	0.433769
H175	H	0.781797	-0.641880	-0.197938
H176	H	1.115131	-0.308546	0.135395
H177	H	1.448464	0.024787	0.468728
Br178	Br	1.428478	-1.198166	-0.170847
Br179	Br	1.761812	-0.864833	0.162487
Br180	Br	2.095145	-0.531499	0.495820
H181	H	0.623585	-0.423715	-0.352714
H182	H	0.956918	-0.090382	-0.019381
H183	H	1.290251	0.242951	0.313953
H184	H	1.150167	-0.844375	-0.391200
H185	H	1.483500	-0.511042	-0.057867
H186	H	1.816834	-0.177709	0.275467
Br187	Br	1.131012	-0.635669	-0.710285
Br188	Br	1.464345	-0.302336	-0.376951
Br189	Br	1.797679	0.030998	-0.043618
H190	H	1.189915	-1.158923	-0.359882
H191	H	1.523248	-0.825589	-0.026548
H192	H	1.856582	-0.492256	0.306785
H193	H	0.938158	-0.384158	-0.380691
H194	H	1.271492	-0.050824	-0.047357
H195	H	1.604825	0.282509	0.285976
Br196	Br	0.584141	-0.661811	-0.183856
Br197	Br	0.917474	-0.328478	0.149478
Br198	Br	1.250807	0.004856	0.482811
Br199	Br	1.107734	-1.038455	-0.424943
Br200	Br	1.441067	-0.705121	-0.091610
Br201	Br	1.774400	-0.371788	0.241723
Br202	Br	1.417851	-0.380306	-0.520257
Br203	Br	1.751184	-0.046973	-0.186923
Br204	Br	2.084517	0.286360	0.146410
Br205	Br	1.131091	-0.635577	-1.066044
Br206	Br	1.464424	-0.302244	-0.732711
Br207	Br	1.797757	0.031090	-0.399377
H208	H	0.767786	-0.374376	-0.387671
H209	H	1.101119	-0.041042	-0.054338
H210	H	1.434452	0.292291	0.278995
Br211	Br	1.391644	-0.832663	-0.199818
Br212	Br	1.724977	-0.499330	0.133515
Br213	Br	2.058310	-0.165996	0.466848
Br214	Br	1.441117	-0.976818	-0.160679
Br215	Br	1.774450	-0.643485	0.172655
Br216	Br	2.107784	-0.310152	0.505988
H217	H	1.384838	-0.409669	-0.670372
H218	H	1.718171	-0.076336	-0.337039
H219	H	2.051505	0.256997	-0.003706
H220	H	1.384883	-0.409606	-0.897894
H221	H	1.718216	-0.076272	-0.564561
H222	H	2.051550	0.257061	-0.231228
Br223	Br	1.417953	-0.380149	-1.042622
Br224	Br	1.751286	-0.046815	-0.709289
Br225	Br	2.084619	0.286518	-0.375956
H226	H	1.164096	-0.606214	-0.915924
H227	H	1.497429	-0.272880	-0.582591
H228	H	1.830762	0.060453	-0.249258
Br229	Br	1.130977	-0.635718	-0.543668
Br230	Br	1.464310	-0.302385	-0.210335
Br231	Br	1.797643	0.030948	0.122998
