data_functionalizedCrystal
_audit_creation_method	'MofGen! by Chris Wilmer'
_symmetry_space_group_name_H-M	'P1'
_symmetry_Int_Tables_number	1
_symmetry_cell_setting	triclinic
loop_
_symmetry_equiv_pos_as_xyz
  x,y,z
_cell_length_a	19.902436
_cell_length_b	18.760487
_cell_length_c	18.760492
_cell_angle_alpha	90.033958
_cell_angle_beta	59.993116
_cell_angle_gamma	60.022938
loop_
_atom_site_label
_atom_site_type_symbol
_atom_site_fract_x
_atom_site_fract_y
_atom_site_fract_z
Zr1	Zr	0.735487	0.686700	-0.093197
O2	O	0.875671	0.572887	-0.207099
O3	O	0.595306	0.721587	-0.058269
O4	O	0.735490	0.721592	-0.206993
O5	O	0.735483	0.572882	0.058929
O6	O	0.735490	0.838894	-0.206921
O7	O	0.735486	0.572883	-0.058375
O8	O	0.484726	0.838887	0.059119
O9	O	0.986247	0.572890	-0.207111
O10	O	0.652964	0.824011	-0.043332
O11	O	0.652961	0.736469	0.044158
O12	O	0.818010	0.736473	-0.130946
O13	O	0.818008	0.648931	-0.043456
Zr14	Zr	0.735482	0.873783	0.094006
Zr15	Zr	0.735487	0.873785	-0.093082
Zr16	Zr	0.735482	0.686699	0.093891
Zr17	Zr	0.911844	0.686704	-0.093215
Zr18	Zr	0.559125	0.873779	0.094024
O19	O	0.875663	0.838896	0.059078
O20	O	0.875670	0.838898	-0.206935
O21	O	0.875663	0.572886	0.058915
O22	O	0.595298	0.987596	0.207908
O23	O	0.595306	0.987598	-0.058106
O24	O	0.595298	0.721586	0.207744
O25	O	0.735486	0.987601	-0.058120
O26	O	0.735478	0.838892	0.207802
O27	O	0.735478	0.721589	0.207730
O28	O	0.735482	0.987600	0.059184
O29	O	0.986247	0.721597	-0.207019
O30	O	0.484722	0.838886	0.207828
O31	O	0.484722	0.987593	0.207920
O32	O	0.484726	0.987594	0.059210
O33	O	0.986243	0.572889	-0.058401
O34	O	0.986243	0.721596	-0.058310
O35	O	0.652958	0.824010	0.131755
O36	O	0.652961	0.911552	0.044265
O37	O	0.818007	0.824015	-0.043349
O38	O	0.818005	0.736472	0.044141
C39	C	0.735485	0.546227	0.000261
C40	C	0.735485	0.466805	0.000212
C41	C	0.514889	0.780237	0.000427
C42	C	0.440021	0.780235	0.000435
C43	C	0.735491	0.780243	-0.233613
C44	C	0.735493	0.780244	-0.313037
C45	C	0.168011	0.780244	0.000394
C46	C	0.196248	0.725288	0.055851
C47	C	0.274366	0.724990	0.055622
C48	C	0.302958	0.780240	0.000415
C49	C	0.338524	0.739966	-0.094743
C50	C	0.260687	0.739552	-0.094451
C51	C	0.133494	0.875501	0.039332
C52	C	0.210547	0.875362	0.041268
C53	C	0.379226	0.780238	0.000422
C54	C	0.091747	0.780242	0.000381
C55	C	0.956080	0.780247	0.000382
C56	C	1.030948	0.780248	0.000374
C57	C	0.821640	0.085294	-0.045177
C58	C	0.649329	0.176690	0.046293
C59	C	0.649327	0.251312	0.046218
C60	C	0.735484	0.242928	0.000444
C61	C	0.821642	0.159922	-0.045256
C62	C	0.563171	0.334322	0.091910
C63	C	0.563166	0.408951	0.091836
C64	C	0.649324	0.400568	0.046066
C65	C	0.735485	0.317555	0.000365
C66	C	0.821641	0.309172	-0.045409
C67	C	0.907804	0.226160	-0.091105
C68	C	0.907799	0.151539	-0.091026
C69	C	0.649328	0.475189	0.045986
C70	C	0.821643	0.383799	-0.045488
C71	C	0.735484	1.014256	0.000548
C72	C	0.735484	1.093678	0.000597
C73	C	0.735477	0.844867	-0.648807
C74	C	0.735477	0.715615	-0.648875
C75	C	0.735482	0.715613	-0.574256
C76	C	0.735483	0.780241	-0.536909
C77	C	0.735479	0.844869	-0.574180
C78	C	0.735476	0.650991	-0.536974
C79	C	0.735480	0.650988	-0.462351
C80	C	0.735489	0.715612	-0.425006
C81	C	0.735486	0.780243	-0.462282
C82	C	0.735487	0.844870	-0.424935
C83	C	0.735491	0.909498	-0.462213
C84	C	0.735487	0.909494	-0.536835
C85	C	0.735492	0.715616	-0.350384
C86	C	0.735489	0.844872	-0.350308
C87	C	0.735478	0.780240	0.234422
C88	C	0.735475	0.780240	0.313846
C89	C	0.514889	1.014251	0.000571
C90	C	0.440020	1.093672	0.000628
C91	C	0.514882	0.780235	0.234445
C92	C	0.440012	0.780233	0.313876
C93	C	0.514882	1.014249	0.234589
C94	C	0.440012	1.093670	0.314069
C95	C	0.956087	0.546234	-0.233780
C96	C	1.030957	0.466814	-0.313260
C97	C	0.956080	0.546232	0.000238
C98	C	1.030948	0.466812	0.000181
C99	C	0.956086	0.780248	-0.233636
C100	C	1.030957	0.780250	-0.313067
C101	C	0.404863	1.085273	-0.045078
C102	C	0.334526	1.159890	-0.045043
C103	C	0.299343	1.242905	0.000705
C104	C	0.334508	1.251302	0.046412
C105	C	0.404848	1.176686	0.046371
C106	C	0.404851	0.825928	0.396910
C107	C	0.334512	0.825922	0.471551
C108	C	0.299331	0.780227	0.463156
C109	C	0.334499	0.734527	0.380113
C110	C	0.404841	0.734527	0.305474
C111	C	0.404853	1.176670	0.305725
C112	C	0.334514	1.251301	0.380398
C113	C	0.299330	1.242929	0.463413
C114	C	0.334496	1.159920	0.471755
C115	C	0.404838	1.085291	0.397084
C116	C	1.066124	0.383813	-0.304916
C117	C	1.136485	0.309182	-0.379589
C118	C	1.171673	0.317554	-0.462604
C119	C	1.136502	0.400563	-0.470947
C120	C	1.066148	0.475192	-0.396275
C121	C	1.066113	0.475210	0.045879
C122	C	1.136469	0.400593	0.045823
C123	C	1.171655	0.317578	0.000073
C124	C	1.136487	0.309181	-0.045631
C125	C	1.066137	0.383797	-0.045579
C126	C	1.066115	0.825955	-0.304644
C127	C	1.136455	0.825974	-0.379271
C128	C	1.171639	0.780283	-0.462320
C129	C	1.136473	0.734577	-0.470741
C130	C	1.066130	0.734564	-0.396115
H131	H	0.247719	0.752004	0.125692
Cl132	Cl	0.449061	0.883383	0.407487
Cl133	Cl	0.290330	1.149313	-0.102503
Cl134	Cl	0.236054	0.797369	-0.161707
H135	H	0.305844	0.697323	0.373291
Cl136	Cl	0.449031	1.187260	0.103843
Cl137	Cl	1.260094	0.223783	0.000019
H138	H	0.891792	0.017704	-0.082379
H139	H	0.305889	1.318884	0.373590
H140	H	0.735469	0.663000	-0.679282
Cl141	Cl	0.234638	0.943910	-0.014603
Cl142	Cl	1.180726	0.204813	-0.103136
H143	H	0.433455	1.017711	0.403889
H144	H	1.037512	0.697342	-0.402985
H145	H	0.977952	0.219344	-0.128379
H146	H	0.065445	0.909150	0.108330
Cl147	Cl	0.449030	0.677082	0.201091
H148	H	1.165161	0.407369	-0.538547
Cl149	Cl	1.021931	0.373223	-0.103027
Cl150	Cl	0.735480	0.569742	-0.415494
Cl151	Cl	0.096658	0.766788	0.164316
Cl152	Cl	0.735466	0.569753	-0.583918
H153	H	1.037479	0.863161	-0.237028
Cl154	Cl	1.180654	0.883431	-0.368664
Cl155	Cl	1.180681	0.204839	-0.369081
H156	H	0.242067	1.303655	0.000732
H157	H	1.228917	0.780301	-0.523078
Cl158	Cl	0.290312	0.883382	0.575937
Cl159	Cl	0.541024	0.187225	0.103830
Cl160	Cl	1.021939	0.579533	-0.406779
H161	H	1.165131	0.697377	-0.538369
H162	H	0.242054	0.780233	0.523939
H163	H	0.222208	0.655437	0.029080
Cl164	Cl	0.449075	1.187218	0.201371
H165	H	0.242053	1.303704	0.524209
Cl166	Cl	0.104385	0.939016	-0.022733
H167	H	0.891803	0.376962	-0.082754
H168	H	1.165091	0.407448	0.083044
H169	H	1.037479	0.376980	-0.237327
Cl170	Cl	0.373897	0.616508	0.013927
Cl171	Cl	0.370838	0.798763	-0.161322
H172	H	0.977948	0.083947	-0.128228
Cl173	Cl	0.290253	1.149410	0.576125
Cl174	Cl	0.454850	0.513300	0.149285
Cl175	Cl	0.306294	0.631330	-0.142568
H176	H	0.433508	1.017685	-0.082342
Cl177	Cl	0.441974	0.632777	-0.143197
Cl178	Cl	0.735487	0.990736	-0.583698
Cl179	Cl	1.260118	0.223725	-0.556471
Cl180	Cl	1.021899	0.579563	0.103396
H181	H	0.493027	0.341141	0.129176
Cl182	Cl	0.541019	0.579538	0.103421
Cl183	Cl	0.735498	0.926119	-0.303367
Cl184	Cl	0.166161	0.921818	0.149505
H185	H	0.735483	0.897484	-0.679163
Cl186	Cl	0.735483	0.990745	-0.415250
Cl187	Cl	0.735479	0.634381	-0.303520
H188	H	0.305852	1.318903	0.083658
