data_functionalizedCrystal
_audit_creation_method	'MofGen! by Chris Wilmer'
_symmetry_space_group_name_H-M	'P1'
_symmetry_Int_Tables_number	1
_symmetry_cell_setting	triclinic
loop_
_symmetry_equiv_pos_as_xyz
  x,y,z
_cell_length_a	13.185407
_cell_length_b	10.723024
_cell_length_c	9.798715
_cell_angle_alpha	90.003391
_cell_angle_beta	89.997092
_cell_angle_gamma	111.779324
loop_
_atom_site_label
_atom_site_type_symbol
_atom_site_fract_x
_atom_site_fract_y
_atom_site_fract_z
O1	O	0.152566	-1.604455	-0.113479
O2	O	0.167169	-1.236255	-0.113483
O3	O	0.001591	-1.483438	-0.113475
O4	O	0.318144	-1.357271	-0.113487
O5	O	0.001590	-1.483424	0.113507
O6	O	0.167169	-1.236241	0.113499
O7	O	0.152565	-1.604440	0.113503
Zn8	Zn	0.159867	-1.420338	0.149540
Zn9	Zn	0.159868	-1.420357	-0.149519
O10	O	0.318144	-1.357257	0.113496
C11	C	0.166106	-1.190115	0.000007
C12	C	0.162927	-1.052660	0.000006
C13	C	-0.038942	-1.496222	0.000014
C14	C	-0.159718	-1.534319	0.000010
C15	C	0.153628	-1.650580	0.000010
C16	C	0.156808	-1.788035	0.000003
C17	C	-0.451693	-1.170732	-0.000007
C18	C	-0.338218	-1.134933	-0.000017
C19	C	-0.293587	-1.234776	-0.000010
C20	C	-0.362443	-1.370424	0.000006
C21	C	-0.475928	-1.406226	0.000005
C22	C	-0.317823	-1.470271	0.000002
C23	C	-0.386678	-1.605919	0.000018
C24	C	-0.500153	-1.641714	0.000017
C25	C	-0.544784	-1.541871	0.000010
C26	C	-0.204337	-1.434469	0.000004
C27	C	-0.228573	-1.669963	0.000015
C28	C	-0.342048	-1.705762	0.000025
C29	C	0.358677	-1.344474	0.000003
C30	C	0.479452	-1.306377	-0.000001
N31	N	0.159866	-1.420335	0.353639
C32	C	0.255576	-0.945654	0.000002
C33	C	0.252292	-0.803586	-0.000000
N34	N	0.159860	-1.420373	-0.353619
C35	C	0.090038	-1.524226	0.421419
C36	C	0.090034	-1.524248	0.578582
H37	H	-0.148285	-1.324024	-0.000008
Br38	Br	-0.139583	-1.186191	-0.000022
Br39	Br	-0.009880	-1.672234	0.324226
H40	H	0.077489	-0.879876	-0.000003
H41	H	-0.282163	-1.024489	-0.000033
H42	H	0.219650	-1.331426	0.588102
H43	H	0.030255	-1.613197	0.636870
H44	H	0.081175	-1.039094	-0.000026
H45	H	-0.488042	-1.089454	-0.000024
Br46	Br	-0.698791	-1.590450	0.000037
H47	H	0.219642	-1.331402	0.411961
H48	H	-0.556213	-1.752167	0.000017
H49	H	-0.398126	-1.816208	0.000036
Br50	Br	0.384497	-0.650506	-0.000022
Br51	Br	-0.168013	-1.805474	0.000012
H52	H	0.337327	-0.959220	0.000007
