data_functionalizedCrystal
_audit_creation_method	'MofGen! by Chris Wilmer'
_symmetry_space_group_name_H-M	'P1'
_symmetry_Int_Tables_number	1
_symmetry_cell_setting	triclinic
loop_
_symmetry_equiv_pos_as_xyz
  x,y,z
_cell_length_a	10.654546
_cell_length_b	10.540535
_cell_length_c	9.730223
_cell_angle_alpha	89.997287
_cell_angle_beta	90.007820
_cell_angle_gamma	95.496417
loop_
_atom_site_label
_atom_site_type_symbol
_atom_site_fract_x
_atom_site_fract_y
_atom_site_fract_z
O1	O	-1.667896	0.178275	-0.114537
O2	O	-1.302423	0.195267	-0.114487
O3	O	-1.493501	0.002061	-0.114500
O4	O	-1.476819	0.371481	-0.114525
O5	O	-1.493499	0.002066	0.114080
O6	O	-1.302421	0.195272	0.114092
O7	O	-1.667894	0.178280	0.114042
Zn8	Zn	-1.485157	0.186777	0.150359
Zn9	Zn	-1.485160	0.186770	-0.150804
O10	O	-1.476816	0.371486	0.114055
C11	C	-1.255623	0.194023	-0.000191
C12	C	-1.116179	0.190293	-0.000171
C13	C	-1.492250	-0.045239	-0.000209
C14	C	-1.488510	-0.186186	-0.000207
C15	C	-1.036731	0.304049	-0.000193
C16	C	-0.905709	0.300536	-0.000207
C17	C	-0.933595	0.069502	-0.000182
C18	C	-1.064614	0.073015	-0.000158
C19	C	-1.020630	0.437435	-0.000214
C20	C	-0.889608	0.433922	-0.000227
C21	C	-1.349000	-0.222805	-0.000197
C22	C	-1.345065	-0.369404	-0.000740
C23	C	-1.552196	-0.395538	-0.130523
C24	C	-1.555164	-0.248773	-0.130608
C25	C	-1.557191	-0.248907	0.129339
C26	C	-1.550739	-0.395251	0.131027
C27	C	-0.714693	0.179527	-0.000238
C28	C	-0.854137	0.183266	-0.000208
C29	C	-1.478067	0.418786	-0.000239
C30	C	-1.481807	0.559733	-0.000251
N31	N	-1.485164	0.186780	0.355896
N32	N	-1.485163	0.186756	-0.356341
C33	C	-1.569795	0.101258	0.427816
C34	C	-1.569792	0.101242	0.571699
C35	C	-1.400522	0.272283	0.571728
C36	C	-1.400521	0.272291	0.427848
C37	C	-1.667526	0.002513	0.427801
C38	C	-1.667522	0.002497	0.571684
H39	H	-1.129297	-0.019616	-0.000121
H40	H	-1.331607	0.341903	0.630328
C41	C	-0.876869	-0.059493	-0.000181
H42	H	-0.787459	-0.045295	-0.000206
H43	H	-0.904050	-0.106381	0.079534
H44	H	-0.904090	-0.106377	-0.079898
C45	C	-1.068827	0.494818	-0.133527
H46	H	-0.999626	0.517947	-0.192908
H47	H	-1.126427	0.433631	-0.177810
H48	H	-1.110148	0.568298	-0.112106
C49	C	-1.626284	-0.122067	0.631982
H50	H	-1.607926	-0.177531	0.559271
H51	H	-1.553151	-0.103424	0.686948
H52	H	-1.692354	-0.162105	0.686913
H53	H	-1.646050	-0.095061	0.388757
C54	C	-1.060285	0.507921	0.128998
H55	H	-0.987685	0.534513	0.182132
H56	H	-1.101094	0.580352	0.102416
H57	H	-1.116529	0.452370	0.182172
H58	H	-1.764041	0.024246	0.610719
C59	C	-1.790720	0.044265	0.367483
H60	H	-1.845585	0.062846	0.440186
H61	H	-1.772234	0.118186	0.312533
H62	H	-1.830359	-0.022498	0.312533
C63	C	-1.271081	-0.407823	-0.127630
H64	H	-1.268411	-0.497653	-0.128390
H65	H	-1.311569	-0.382311	-0.208674
H66	H	-1.187602	-0.367219	-0.124098
C67	C	-1.688202	-0.459564	-0.136616
H68	H	-1.729034	-0.431179	-0.216155
H69	H	-1.686678	-0.549452	-0.140543
H70	H	-1.732809	-0.437539	-0.056911
H71	H	-0.843949	0.474236	0.098458
H72	H	-0.847893	0.484179	-0.095895
H73	H	-1.659833	-0.226749	0.130595
H74	H	-1.290005	-0.398726	0.092618
H75	H	-1.295426	-0.180821	0.093215
H76	H	-1.499517	-0.423843	0.227405
H77	H	-1.296325	-0.179322	-0.093467
C78	C	-1.486958	-0.437233	-0.261990
H79	H	-1.416835	-0.481885	-0.237767
H80	H	-1.544986	-0.491381	-0.314596
H81	H	-1.458775	-0.364138	-0.314701
C82	C	-1.693316	-0.217696	-0.138129
H83	H	-1.696065	-0.127873	-0.138225
H84	H	-1.730903	-0.252627	-0.220009
H85	H	-1.738206	-0.253406	-0.060777
C86	C	-1.498363	-0.191564	0.262785
H87	H	-1.431358	-0.128828	0.240737
H88	H	-1.560714	-0.153438	0.313996
H89	H	-1.466686	-0.257059	0.315935
C90	C	-1.685595	-0.461474	0.142123
H91	H	-1.701697	-0.517694	0.066500
H92	H	-1.694008	-0.508476	0.225452
H93	H	-1.744295	-0.399083	0.141217
C94	C	-1.307420	0.366358	0.348740
H95	H	-1.257020	0.417288	0.412202
H96	H	-1.254741	0.320198	0.292618
H97	H	-1.353066	0.419642	0.292608
H98	H	-1.507630	-0.208578	-0.228349
