data_functionalizedCrystal
_audit_creation_method	'MofGen! by Chris Wilmer'
_symmetry_space_group_name_H-M	'P1'
_symmetry_Int_Tables_number	1
_symmetry_cell_setting	triclinic
loop_
_symmetry_equiv_pos_as_xyz
  x,y,z
_cell_length_a	11.026607
_cell_length_b	7.681481
_cell_length_c	10.967971
_cell_angle_alpha	83.741881
_cell_angle_beta	83.619627
_cell_angle_gamma	96.989644
loop_
_atom_site_label
_atom_site_type_symbol
_atom_site_fract_x
_atom_site_fract_y
_atom_site_fract_z
O1	O	1.615460	0.012189	-0.522722
O2	O	1.260277	-0.005562	-0.464234
O3	O	1.441866	-0.050215	-0.317050
O4	O	1.433870	0.056842	-0.669905
O5	O	1.464215	0.237131	-0.298882
O6	O	1.282626	0.281784	-0.446065
O7	O	1.637809	0.299535	-0.504554
Zn8	Zn	1.463766	0.336282	-0.472425
Zn9	Zn	1.434320	-0.042309	-0.496362
O10	O	1.456219	0.344188	-0.651737
C11	C	1.225894	0.134837	-0.444359
C12	C	1.090148	0.125075	-0.412194
N13	N	1.483871	0.594660	-0.456089
N14	N	1.414224	-0.300689	-0.512690
C15	C	1.019192	0.152021	-0.501009
C16	C	0.878891	0.141933	-0.467766
C17	C	1.672191	0.159132	-0.524428
C18	C	1.807936	0.168882	-0.556594
C19	C	1.450771	0.079536	-0.262091
C20	C	1.443991	0.038050	-0.125395
C21	C	1.447315	0.214434	-0.706696
C22	C	1.454094	0.255908	-0.843393
C23	C	1.452545	0.168407	-0.055034
C24	C	1.445538	0.125533	0.086248
H25	H	0.835773	0.111350	-0.367115
H26	H	1.554979	0.652341	-0.398325
O27	O	1.469121	0.358292	-0.113771
H28	H	1.472018	0.362168	-0.215522
H29	H	1.433032	-0.017820	0.130599
H30	H	1.431485	-0.105293	-0.081039
H31	H	1.466612	0.399262	0.112257
O32	O	0.865026	0.209331	-0.689928
H33	H	0.966263	0.210895	-0.695120
H34	H	1.062313	0.182568	-0.601656
O35	O	1.320046	0.622923	-0.589213
H36	H	1.271396	0.729857	-0.628767
O37	O	1.033050	0.084624	-0.278868
H38	H	0.931812	0.083038	-0.273681
