data_functionalizedCrystal
_audit_creation_method	'MofGen! by Chris Wilmer'
_symmetry_space_group_name_H-M	'P1'
_symmetry_Int_Tables_number	1
_symmetry_cell_setting	triclinic
loop_
_symmetry_equiv_pos_as_xyz
  x,y,z
_cell_length_a	14.446369
_cell_length_b	14.446369
_cell_length_c	14.446369
_cell_angle_alpha	59.998264
_cell_angle_beta	90.000855
_cell_angle_gamma	59.997400
loop_
_atom_site_label
_atom_site_type_symbol
_atom_site_fract_x
_atom_site_fract_y
_atom_site_fract_z
Zr1	Zr	0.891715	1.013222	-0.121449
O2	O	0.743895	1.206357	-0.269266
O3	O	0.937036	0.820097	-0.076134
O4	O	0.937023	1.013229	-0.269256
O5	O	0.743910	1.013217	0.076193
O6	O	1.089359	1.013223	-0.269250
O7	O	0.743908	1.013226	-0.076144
O8	O	1.089381	0.667746	0.076211
O9	O	0.743888	1.358694	-0.269267
O10	O	1.070044	0.899525	-0.056804
O11	O	0.956359	0.899523	0.056879
O12	O	0.956345	1.126910	-0.170498
O13	O	0.842660	1.126908	-0.056815
Zr14	Zr	1.134677	1.013200	0.121522
Zr15	Zr	1.134673	1.013213	-0.121438
Zr16	Zr	0.891719	1.013209	0.121511
Zr17	Zr	0.891704	1.256182	-0.121451
Zr18	Zr	1.134689	0.770240	0.121524
O19	O	1.089357	1.206325	0.076207
O20	O	1.089350	1.206344	-0.269251
O21	O	0.743902	1.206338	0.076192
O22	O	1.282497	0.820065	0.269339
O23	O	1.282491	0.820084	-0.076119
O24	O	0.937042	0.820079	0.269324
O25	O	1.282482	1.013205	-0.076120
O26	O	1.089369	1.013193	0.269329
O27	O	0.937033	1.013199	0.269323
O28	O	1.282485	1.013197	0.076217
O29	O	0.937008	1.358686	-0.269259
O30	O	1.089385	0.667736	0.269332
O31	O	1.282504	0.667728	0.269340
O32	O	1.282501	0.667739	0.076219
O33	O	0.743892	1.358683	-0.076146
O34	O	0.937011	1.358676	-0.076138
O35	O	1.070048	0.899512	0.170571
O36	O	1.183732	0.899514	0.056888
O37	O	1.070033	1.126899	-0.056806
O38	O	0.956349	1.126898	0.056877
C39	C	1.013210	0.709305	0.000039
C40	C	1.013215	0.606163	0.000039
C41	C	1.084918	0.566882	-0.071672
C42	C	1.084583	0.459962	-0.072058
C43	C	0.889612	0.546974	-0.051894
C44	C	0.890026	0.654350	-0.052433
C45	C	1.064074	0.479341	0.123718
C46	C	1.066548	0.370878	0.123528
C47	C	0.709293	1.013223	0.000023
C48	C	0.606151	1.013227	0.000019
C49	C	0.495147	1.156653	-0.071691
C50	C	0.387841	1.156704	-0.071357
C51	C	0.495031	0.941547	0.123618
C52	C	0.601868	0.942501	0.123205
C53	C	0.603016	0.940406	-0.050833
C54	C	0.494363	0.943070	-0.053308
C55	C	1.317100	1.013200	0.000050
C56	C	1.420242	1.013196	0.000054
C57	C	1.013191	1.013228	-0.303870
C58	C	1.013189	1.013233	-0.407013
C59	C	1.013182	1.317117	0.000034
C60	C	1.013178	1.420260	0.000033
C61	C	0.941133	1.156630	-0.625386
C62	C	0.941437	1.156727	-0.518154
C63	C	1.136725	0.941996	-0.410330
C64	C	1.136337	0.942907	-0.518099
C65	C	0.962732	0.939960	-0.516743
C66	C	0.960224	0.942663	-0.410774
C67	C	1.013202	1.013194	0.303943
C68	C	1.013204	1.013189	0.407085
C69	C	1.317114	0.709294	0.000052
C70	C	1.420260	0.606147	0.000057
C71	C	1.013216	0.709289	0.303945
C72	C	1.013222	0.606140	0.407088
C73	C	1.317119	0.709277	0.303958
C74	C	1.420268	0.606125	0.407106
C75	C	0.709273	1.317145	-0.303885
C76	C	0.606125	1.420298	-0.407033
C77	C	0.709279	1.317129	0.000021
C78	C	0.606132	1.420275	0.000016
C79	C	1.013177	1.317134	-0.303872
C80	C	1.013170	1.420282	-0.407016
C81	C	1.409378	0.557690	-0.059283
C82	C	1.506299	0.460781	-0.059282
C83	C	1.624982	0.460789	0.059409
C84	C	1.528062	0.557703	0.059400
C85	C	1.340858	0.557681	-0.127804
C86	C	1.437779	0.460771	-0.127803
C87	C	1.072571	0.557670	0.514892
C88	C	1.072568	0.460757	0.611802
C89	C	0.953866	0.460787	0.493092
C90	C	0.953863	0.557706	0.396184
C91	C	1.141107	0.557648	0.583429
C92	C	1.141104	0.460734	0.680340
C93	C	1.528069	0.557660	0.396227
C94	C	1.624984	0.460744	0.493150
C95	C	1.506283	0.460761	0.611827
C96	C	1.409370	0.557682	0.514905
C97	C	1.596602	0.557645	0.327711
C98	C	1.693517	0.460729	0.424633
H99	H	1.049950	0.656679	-0.162364
H100	H	1.228847	0.521225	0.574635
H101	H	0.606951	0.986645	-0.140480
F102	F	0.987190	1.230245	-0.521357
F103	F	1.760603	0.508322	0.436135
F104	F	0.493963	1.229492	-0.025992
H105	H	1.712764	0.421335	0.107724
H106	H	1.007262	0.837975	-0.331614
F107	F	0.527761	0.806253	0.007831
H108	H	1.095894	0.497151	0.731664
F109	F	1.189910	1.006661	-0.407539
H110	H	0.681256	0.834749	0.001147
F111	F	1.494696	0.409199	0.726559
H112	H	1.176742	0.993529	-0.568443
F113	F	1.437789	0.342165	-0.077972
H114	H	0.873143	0.985860	-0.566770
H115	H	1.288239	0.648413	-0.218550
H116	H	1.102988	0.648375	0.583445
F117	F	1.210344	0.805352	-0.483261
H118	H	0.443576	0.990690	0.164595
F119	F	0.841266	1.010549	-0.411453
F120	F	1.273784	0.510078	-0.068700
F121	F	0.426930	1.011357	-0.172297
H122	H	0.849930	1.212927	-0.679342
H123	H	1.231849	0.369990	0.732956
H124	H	0.905522	0.597179	0.308409
H125	H	0.905537	0.421341	0.484228
H126	H	1.014976	0.834290	-0.489292
F127	F	1.449271	0.508373	-0.242489
H128	H	1.321596	0.597151	0.523772
H129	H	1.596614	0.648374	0.275099
F130	F	0.317725	1.229799	-0.025208
F131	F	1.585099	0.510049	0.260631
F132	F	1.762295	0.342125	0.424638
F133	F	0.836043	0.597532	-0.169695
H134	H	1.176139	0.529766	-0.037064
H135	H	1.175561	0.370727	-0.037261
F136	F	0.816702	0.517603	0.013124
H137	H	1.049272	0.497563	-0.163293
H138	H	0.849337	0.745224	-0.143431
H139	H	1.536932	0.597165	0.107709
H140	H	0.492631	1.213270	-0.162913
H141	H	0.850468	1.212632	-0.519781
H142	H	1.153722	0.439861	0.167136
F143	F	0.816353	0.693220	0.011447
F144	F	1.005398	0.328620	0.199194
H145	H	1.157585	0.280493	0.162323
F146	F	0.996140	0.511437	0.193874
H147	H	0.333399	1.212895	-0.162335
H148	H	0.601799	0.992687	0.163997
H149	H	0.680481	0.837260	0.179682
H150	H	1.192751	0.836490	-0.332059
H151	H	0.522308	0.836016	0.179401
H152	H	0.975815	1.212649	-0.680365
