data_functionalizedCrystal
_audit_creation_method	'MofGen! by Chris Wilmer'
_symmetry_space_group_name_H-M	'P1'
_symmetry_Int_Tables_number	1
_symmetry_cell_setting	triclinic
loop_
_symmetry_equiv_pos_as_xyz
  x,y,z
_cell_length_a	14.971482
_cell_length_b	26.210047
_cell_length_c	14.971486
_cell_angle_alpha	90.004299
_cell_angle_beta	96.386632
_cell_angle_gamma	90.008491
loop_
_atom_site_label
_atom_site_type_symbol
_atom_site_fract_x
_atom_site_fract_y
_atom_site_fract_z
O1	O	1.186954	0.042423	-0.116534
O2	O	1.686954	0.542423	0.383466
O3	O	0.926553	0.042425	-0.130496
O4	O	1.426553	0.542425	0.369504
O5	O	1.063733	0.042420	0.006685
O6	O	1.563733	0.542420	0.506685
O7	O	1.049774	0.042428	-0.253715
O8	O	1.549774	0.542428	0.246285
O9	O	1.063707	-0.042438	0.006664
O10	O	1.563707	0.457562	0.506664
O11	O	0.926527	-0.042433	-0.130518
O12	O	1.426527	0.457567	0.369482
O13	O	1.186928	-0.042435	-0.116555
O14	O	1.686928	0.457565	0.383445
Cu15	Cu	1.056725	-0.050182	-0.123538
Cu16	Cu	1.556725	0.449818	0.376462
Cu17	Cu	1.056756	0.050172	-0.123513
Cu18	Cu	1.556756	0.550172	0.376487
O19	O	1.049748	-0.042430	-0.253737
O20	O	1.549748	0.457570	0.246263
C21	C	0.893215	-0.000004	-0.129883
C22	C	1.393215	0.499996	0.370117
C23	C	0.793918	-0.000003	-0.128014
C24	C	1.293918	0.499997	0.371986
N25	N	1.056709	-0.120766	-0.123556
N26	N	1.556709	0.379234	0.376444
C27	C	0.747259	-0.046259	-0.127145
C28	C	1.247259	0.453741	0.372855
C29	C	0.653961	-0.046260	-0.125374
C30	C	1.153961	0.453740	0.374626
C31	C	0.607322	-0.000003	-0.124479
C32	C	1.107322	0.499997	0.375521
C33	C	0.653988	0.046257	-0.125345
C34	C	1.153988	0.546257	0.374655
C35	C	0.747286	0.046257	-0.127109
C36	C	1.247286	0.546257	0.372891
C37	C	0.459526	0.046254	-0.121670
C38	C	0.959526	0.546254	0.378330
C39	C	0.366222	0.046254	-0.119907
C40	C	0.866222	0.546254	0.380093
C41	C	0.366201	-0.046263	-0.119934
C42	C	0.866201	0.453737	0.380066
C43	C	0.459499	-0.046263	-0.121699
C44	C	0.959499	0.453737	0.378301
C45	C	0.506158	-0.000003	-0.122567
C46	C	1.006158	0.499997	0.377433
C47	C	1.117493	-0.473283	-0.062783
C48	C	1.617493	0.026717	0.437217
C49	C	1.117513	-0.686941	-0.062771
C50	C	1.617513	-0.186941	0.437229
O51	O	1.169159	-0.714565	-0.011103
O52	O	1.669159	-0.214565	0.488897
N53	N	1.056761	-0.713660	-0.123494
N54	N	1.556761	-0.213660	0.376506
C55	C	0.995996	-0.686961	-0.184220
C56	C	1.495996	-0.186961	0.315780
O57	O	0.944317	-0.714590	-0.235862
O58	O	1.444317	-0.214590	0.264138
C59	C	0.995973	-0.473304	-0.184227
C60	C	1.495973	0.026696	0.315773
C61	C	1.056735	-0.446587	-0.123507
C62	C	1.556735	0.053413	0.376493
C63	C	1.178250	-0.446566	-0.002067
C64	C	1.678250	0.053434	0.497933
C65	C	1.178247	-0.393155	-0.002074
C66	C	1.678247	0.106845	0.497926
C67	C	1.117489	-0.366460	-0.062797
C68	C	1.617489	0.133540	0.437203
C69	C	1.056732	-0.393176	-0.123514
C70	C	1.556732	0.106824	0.376486
C71	C	0.935204	-0.446606	-0.244949
C72	C	1.435204	0.053394	0.255051
C73	C	0.935202	-0.393188	-0.244944
C74	C	1.435202	0.106812	0.255056
C75	C	0.995964	-0.366472	-0.184223
C76	C	1.495964	0.133528	0.315777
C77	C	0.995971	-0.313069	-0.184244
C78	C	1.495971	0.186931	0.315756
N79	N	1.056723	-0.286350	-0.123521
N80	N	1.556723	0.213650	0.376479
C81	C	1.117482	-0.313045	-0.062798
C82	C	1.617482	0.186955	0.437202
C83	C	0.996013	-0.799135	-0.184213
C84	C	1.496013	-0.299135	0.315787
C85	C	0.996020	-0.852549	-0.184212
C86	C	1.496020	-0.352549	0.315788
C87	C	1.117536	-0.852525	-0.062762
C88	C	1.617536	-0.352525	0.437238
C89	C	1.117533	-0.799110	-0.062767
C90	C	1.617533	-0.299110	0.437233
C91	C	1.056765	-0.772416	-0.123490
C92	C	1.556765	-0.272416	0.376510
C93	C	1.117473	-0.200878	-0.062817
C94	C	1.617473	0.299122	0.437183
C95	C	1.117468	-0.147461	-0.062832
C96	C	1.617468	0.352539	0.437168
C97	C	0.995949	-0.147490	-0.184279
C98	C	1.495949	0.352510	0.315721
C99	C	0.995957	-0.200901	-0.184268
C100	C	1.495957	0.299099	0.315732
C101	C	1.056722	-0.227594	-0.123530
C102	C	1.556722	0.272406	0.376470
O103	O	0.944346	-0.285413	-0.235877
O104	O	1.444346	0.214587	0.264123
O105	O	1.169140	-0.285408	-0.011150
O106	O	1.669140	0.214592	0.488850
C107	C	1.117495	-0.526694	-0.062776
C108	C	1.617495	-0.026694	0.437224
C109	C	1.056739	-0.553410	-0.123493
C110	C	1.556739	-0.053410	0.376507
C111	C	0.995980	-0.526715	-0.184216
C112	C	1.495980	-0.026715	0.315784
C113	C	1.056746	-0.606825	-0.123492
C114	C	1.556746	-0.106825	0.376508
C115	C	1.117504	-0.633520	-0.062769
C116	C	1.617504	-0.133520	0.437231
C117	C	1.178256	-0.606801	-0.002046
C118	C	1.678256	-0.106801	0.497954
C119	C	1.178254	-0.553389	-0.002053
C120	C	1.678254	-0.053389	0.497947
C121	C	0.935229	-0.553434	-0.244939
C122	C	1.435229	-0.053434	0.255061
C123	C	0.935236	-0.606846	-0.244928
C124	C	1.435236	-0.106846	0.255072
C125	C	0.995995	-0.633541	-0.184204
C126	C	1.495995	-0.133541	0.315796
C127	C	1.220266	-0.000006	-0.117168
C128	C	1.720266	0.499994	0.382832
C129	C	1.319563	-0.000003	-0.119038
C130	C	1.819563	0.499997	0.380962
C131	C	1.063096	-0.000009	0.039999
C132	C	1.563096	0.499991	0.539999
C133	C	1.061225	-0.000008	0.139296
C134	C	1.561225	0.499992	0.639296
N135	N	1.056779	0.120756	-0.123489
N136	N	1.556779	0.620756	0.376511
C137	C	1.050385	-0.000000	-0.287051
C138	C	1.550385	0.500000	0.212949
C139	C	1.052256	0.000002	-0.386348
C140	C	1.552256	0.500002	0.113652
C141	C	1.141814	-0.000009	0.196522
C142	C	1.641814	0.499991	0.696522
C143	C	1.140051	-0.000004	0.289822
C144	C	1.640051	0.499996	0.789822
C145	C	1.057698	-0.000002	0.325893
C146	C	1.557698	0.499998	0.825893
C147	C	0.977102	0.000001	0.268659
C148	C	1.477102	0.500001	0.768659
C149	C	0.978866	-0.000000	0.175362
C150	C	1.478866	0.500000	0.675362
C151	C	0.973431	0.000003	0.463122
C152	C	1.473431	0.500003	0.963122
C153	C	0.971667	0.000004	0.556426
C154	C	1.471667	0.500004	1.056426
C155	C	1.134616	-0.000001	0.577582
C156	C	1.634616	0.499999	1.077582
C157	C	1.136380	-0.000002	0.484284
C158	C	1.636380	0.499998	0.984284
C159	C	1.055784	-0.000001	0.427057
C160	C	1.555784	0.499999	0.927057
H161	H	0.785225	-0.083927	-0.127882
H162	H	1.285225	0.416073	0.372118
H163	H	0.907801	0.000006	0.416529
H164	H	1.407801	0.500006	0.916529
H165	H	0.497513	0.083924	-0.122376
H166	H	0.997513	0.583924	0.377624
H167	H	0.946488	-0.222654	-0.233721
H168	H	1.446488	0.277346	0.266279
C169	C	0.602637	-0.097146	-0.124439
C170	C	1.102637	0.402854	0.375561
N171	N	0.563980	-0.135476	-0.123742
N172	N	1.063980	0.364524	0.376258
C173	C	0.314922	0.097138	-0.118918
C174	C	0.814922	0.597138	0.381082
N175	N	0.276283	0.135465	-0.118172
N176	N	0.776283	0.635465	0.381828
C177	C	0.886512	-0.000000	0.308341
C178	C	1.386512	0.500000	0.808341
N179	N	0.818278	-0.000005	0.338228
N180	N	1.318278	0.499995	0.838228
H181	H	0.328207	-0.083930	-0.119228
H182	H	0.828207	0.416070	0.380772
H183	H	0.616008	0.083920	-0.124609
H184	H	1.116008	0.583920	0.375391
H185	H	0.913242	0.000001	0.128768
H186	H	1.413242	0.500001	0.628768
C187	C	0.868388	-0.636228	-0.311729
C188	C	1.368388	-0.136228	0.188271
N189	N	0.818032	-0.658356	-0.362037
N190	N	1.318032	-0.158356	0.137963
H191	H	0.904607	-0.000002	0.585792
H192	H	1.404607	0.499998	1.085792
C193	C	1.223273	0.000001	0.640534
C194	C	1.723273	0.500001	1.140534
N195	N	1.290046	0.000002	0.687953
N196	N	1.790046	0.500002	1.187953
H197	H	1.227732	-0.531640	0.047392
H198	H	1.727732	-0.031640	0.547392
H199	H	1.203439	-0.000008	0.454919
H200	H	1.703439	0.499992	0.954919
C201	C	0.798610	0.097143	-0.128067
C202	C	1.298610	0.597143	0.371933
N203	N	0.837266	0.135472	-0.128786
N204	N	1.337266	0.635472	0.371214
H205	H	0.497469	-0.083930	-0.122434
H206	H	0.997469	0.416070	0.377566
H207	H	1.166951	-0.125711	-0.013386
H208	H	1.666951	0.374289	0.486614
H209	H	0.885726	-0.468351	-0.294392
H210	H	1.385726	0.031649	0.205608
H211	H	1.166953	-0.222605	-0.013358
H212	H	1.666953	0.277395	0.486642
H213	H	1.227722	-0.371405	0.047373
H214	H	1.727722	0.128595	0.547373
C215	C	1.245088	-0.475922	0.064747
C216	C	1.745088	0.024078	0.564747
N217	N	1.295437	-0.498030	0.115074
N218	N	1.795437	0.001970	0.615074
C219	C	1.184369	-0.769727	0.004035
C220	C	1.684369	-0.269727	0.504035
N221	N	1.234711	-0.747598	0.054357
N222	N	1.734711	-0.247598	0.554357
H223	H	1.167010	-0.874269	-0.013319
H224	H	1.667010	-0.374269	0.486681
C225	C	0.929115	-0.118115	-0.251069
C226	C	1.429115	0.381885	0.248931
N227	N	0.878770	-0.095988	-0.301370
N228	N	1.378770	0.404012	0.198630
H229	H	0.946552	-0.874298	-0.233666
H230	H	1.446552	-0.374298	0.266334
C231	C	0.929227	-0.769778	-0.251085
C232	C	1.429227	-0.269778	0.248915
N233	N	0.878949	-0.747669	-0.301480
N234	N	1.378949	-0.247669	0.198520
C235	C	0.868360	-0.363828	-0.311755
C236	C	1.368360	0.136172	0.188245
N237	N	0.818019	-0.341715	-0.362082
N238	N	1.318019	0.158285	0.137918
C239	C	1.245089	-0.636175	0.064753
C240	C	1.745089	-0.136175	0.564753
N241	N	1.295420	-0.658303	0.115066
N242	N	1.795420	-0.158303	0.615066
H243	H	0.885750	-0.531703	-0.294386
H244	H	1.385750	-0.031703	0.205614
H245	H	1.208876	-0.000015	0.167161
H246	H	1.708876	0.499985	0.667161
H247	H	1.205675	-0.000006	0.336413
H248	H	1.705675	0.499994	0.836413
