data_functionalizedCrystal
_audit_creation_method	'MofGen! by Chris Wilmer'
_symmetry_space_group_name_H-M	'P1'
_symmetry_Int_Tables_number	1
_symmetry_cell_setting	triclinic
loop_
_symmetry_equiv_pos_as_xyz
  x,y,z
_cell_length_a	14.971486
_cell_length_b	14.048226
_cell_length_c	14.971486
_cell_angle_alpha	89.996181
_cell_angle_beta	96.385871
_cell_angle_gamma	89.999893
loop_
_atom_site_label
_atom_site_type_symbol
_atom_site_fract_x
_atom_site_fract_y
_atom_site_fract_z
O1	O	1.186945	0.079052	-0.116561
O2	O	1.686945	0.579052	0.383439
O3	O	0.926545	0.079078	-0.130520
O4	O	1.426545	0.579078	0.369480
O5	O	1.063725	0.079057	0.006660
O6	O	1.563725	0.579057	0.506660
O7	O	1.049766	0.079072	-0.253741
O8	O	1.549766	0.579072	0.246259
O9	O	1.063712	-0.079264	0.006661
O10	O	1.563712	0.420736	0.506661
O11	O	0.926532	-0.079244	-0.130519
O12	O	1.426532	0.420756	0.369481
O13	O	1.186932	-0.079270	-0.116560
O14	O	1.686932	0.420730	0.383440
Zn15	Zn	1.056730	-0.104394	-0.123539
Zn16	Zn	1.556730	0.395606	0.376461
Zn17	Zn	1.056747	0.104202	-0.123541
Zn18	Zn	1.556747	0.604202	0.376459
O19	O	1.049753	-0.079249	-0.253739
O20	O	1.549753	0.420751	0.246261
C21	C	0.893214	-0.000080	-0.129895
C22	C	1.393214	0.499920	0.370105
C23	C	0.793917	-0.000070	-0.128024
C24	C	1.293917	0.499930	0.371976
C25	C	0.736692	-0.000067	-0.208614
C26	C	1.236692	0.499933	0.291386
C27	C	0.643392	-0.000081	-0.206850
C28	C	1.143392	0.499919	0.293150
C29	C	0.607320	-0.000092	-0.124497
C30	C	1.107320	0.499908	0.375503
C31	C	0.664552	-0.000098	-0.043902
C32	C	1.164552	0.499902	0.456098
C33	C	0.757850	-0.000090	-0.045666
C34	C	1.257850	0.499910	0.454334
C35	C	0.470090	-0.000111	-0.040231
C36	C	0.970090	0.499889	0.459769
C37	C	0.376786	-0.000117	-0.038466
C38	C	0.876786	0.499883	0.461534
C39	C	0.355632	-0.000102	-0.201415
C40	C	0.855632	0.499898	0.298585
C41	C	0.448930	-0.000094	-0.203179
C42	C	0.948930	0.499906	0.296821
C43	C	0.506156	-0.000099	-0.122584
C44	C	1.006156	0.499901	0.377416
N45	N	1.056725	-0.246754	-0.123538
N46	N	1.556725	0.253246	0.376462
C47	C	1.111027	-0.296571	-0.177879
C48	C	1.611027	0.203429	0.322121
C49	C	1.111039	-0.396228	-0.177875
C50	C	1.611039	0.103772	0.322125
C51	C	1.056742	-0.446068	-0.123534
C52	C	1.556742	0.053932	0.376466
C53	C	1.002438	-0.396245	-0.069187
C54	C	1.502438	0.103755	0.430813
C55	C	1.002432	-0.296589	-0.069186
C56	C	1.502432	0.203411	0.430814
C57	C	1.002453	-0.603959	-0.069193
C58	C	1.502453	-0.103959	0.430807
C59	C	1.002457	-0.703621	-0.069194
C60	C	1.502457	-0.203621	0.430806
C61	C	1.111060	-0.703598	-0.177881
C62	C	1.611060	-0.203598	0.322119
C63	C	1.111054	-0.603943	-0.177881
C64	C	1.611054	-0.103943	0.322119
C65	C	1.056748	-0.554126	-0.123535
C66	C	1.556748	-0.054126	0.376465
C67	C	1.220263	-0.000110	-0.117185
C68	C	1.720263	0.499890	0.382815
C69	C	1.319561	-0.000114	-0.119056
C70	C	1.819561	0.499886	0.380944
C71	C	1.063094	-0.000103	0.039985
C72	C	1.563094	0.499897	0.539985
C73	C	1.061223	-0.000102	0.139282
C74	C	1.561223	0.499898	0.639282
N75	N	1.056760	0.246562	-0.123535
N76	N	1.556760	0.746562	0.376465
C77	C	1.050384	-0.000087	-0.287065
C78	C	1.550384	0.499913	0.212935
C79	C	1.052254	-0.000082	-0.386362
C80	C	1.552254	0.499918	0.113638
C81	C	1.141812	-0.000111	0.196507
C82	C	1.641812	0.499889	0.696507
C83	C	1.140049	-0.000101	0.289807
C84	C	1.640049	0.499899	0.789807
C85	C	1.057696	-0.000089	0.325879
C86	C	1.557696	0.499911	0.825879
C87	C	0.977101	-0.000078	0.268646
C88	C	1.477101	0.499922	0.768646
C89	C	0.978865	-0.000081	0.175349
C90	C	1.478865	0.499919	0.675349
C91	C	0.973430	-0.000074	0.463109
C92	C	1.473430	0.499926	0.963109
C93	C	0.971665	-0.000073	0.556413
C94	C	1.471665	0.499927	1.056413
C95	C	1.134614	-0.000094	0.577567
C96	C	1.634614	0.499906	1.077567
C97	C	1.136378	-0.000097	0.484269
C98	C	1.636378	0.499903	0.984269
C99	C	1.055782	-0.000088	0.427043
C100	C	1.555782	0.499912	0.927043
H101	H	0.596802	-0.000077	-0.272474
H102	H	1.096802	0.499923	0.227526
C103	C	1.170768	-0.451022	-0.237654
C104	C	1.670768	0.048978	0.262346
H105	H	1.203095	-0.407067	-0.270025
H106	H	1.703095	0.092933	0.229975
H107	H	1.211900	-0.489897	-0.201071
H108	H	1.711900	0.010103	0.298929
H109	H	1.134152	-0.489897	-0.278760
H110	H	1.634152	0.010103	0.221240
H111	H	0.516682	-0.000116	0.025399
H112	H	1.016682	0.499884	0.525399
C113	C	1.170795	-0.758392	-0.237662
C114	C	1.670795	-0.258392	0.262338
H115	H	1.163031	-0.824881	-0.229874
H116	H	1.663031	-0.324881	0.270126
H117	H	1.154231	-0.742055	-0.298833
H118	H	1.654231	-0.242055	0.201167
H119	H	1.231978	-0.742056	-0.221145
H120	H	1.731978	-0.242056	0.278855
H121	H	0.309033	-0.000103	-0.267039
H122	H	0.809033	0.499897	0.232961
C123	C	1.223270	-0.000103	0.640507
C124	C	1.723270	0.499897	1.140507
H125	H	1.272569	-0.000123	0.605662
H126	H	1.772569	0.499877	1.105662
H127	H	1.225981	0.055108	0.677339
H128	H	1.725981	0.555108	1.177339
H129	H	1.225959	-0.055320	0.677346
H130	H	1.725959	0.444680	1.177346
C131	C	0.942711	-0.758444	-0.009442
C132	C	1.442711	-0.258444	0.490558
H133	H	0.910369	-0.714504	0.022926
H134	H	1.410369	-0.214504	0.522926
H135	H	0.901593	-0.797305	-0.046050
H136	H	1.401593	-0.297305	0.453950
H137	H	0.979312	-0.797335	0.031667
H138	H	1.479312	-0.297335	0.531667
H139	H	0.958232	-0.563401	-0.024937
H140	H	1.458232	-0.063401	0.475063
H141	H	0.910047	-0.000062	0.298024
H142	H	1.410047	0.499938	0.798024
C143	C	1.226964	-0.000108	0.444591
C144	C	1.726964	0.499892	0.944591
H145	H	1.274712	-0.000104	0.492033
H146	H	1.774712	0.499896	0.992033
H147	H	1.231034	-0.055318	0.408636
H148	H	1.731034	0.444682	0.908636
H149	H	1.231038	0.055109	0.408633
H150	H	1.731038	0.555109	0.908633
H151	H	0.913240	-0.000074	0.128756
H152	H	1.413240	0.499926	0.628756
C153	C	0.337107	-0.000134	0.052120
C154	C	0.837107	0.499866	0.552120
H155	H	0.384550	-0.000149	0.099867
H156	H	0.884550	0.499851	0.599867
H157	H	0.301149	0.055073	0.056197
H158	H	0.801149	0.555073	0.556197
H159	H	0.301154	-0.055354	0.056186
H160	H	0.801154	0.444646	0.556186
C161	C	0.942697	-0.451061	-0.009425
C162	C	1.442697	0.048939	0.490575
H163	H	0.910358	-0.407116	0.022940
H164	H	1.410358	0.092884	0.522940
H165	H	0.901577	-0.489928	-0.046023
H166	H	1.401577	0.010072	0.453977
H167	H	0.979303	-0.489945	0.031687
H168	H	1.479303	0.010055	0.531687
H169	H	0.766054	-0.000057	-0.275675
H170	H	1.266054	0.499943	0.224325
C171	C	0.488608	-0.000085	-0.293765
C172	C	0.988608	0.499915	0.206235
H173	H	0.441166	-0.000093	-0.341513
H174	H	0.941166	0.499907	0.158487
H175	H	0.524563	0.055127	-0.297840
H176	H	1.024563	0.555127	0.202160
H177	H	0.524565	-0.055301	-0.297834
H178	H	1.024565	0.444699	0.202166
H179	H	0.635175	-0.000120	0.023152
H180	H	1.135175	0.499880	0.523152
C181	C	0.881079	-0.000038	0.596092
C182	C	1.381079	0.499962	1.096092
H183	H	0.833332	-0.000015	0.548649
H184	H	1.333332	0.499985	1.048649
H185	H	0.876986	-0.055242	0.632055
H186	H	1.376986	0.444758	1.132055
H187	H	0.877028	0.055185	0.632040
H188	H	1.377028	0.555185	1.132040
H189	H	0.804443	-0.000093	0.019958
H190	H	1.304443	0.499907	0.519958
C191	C	0.942695	-0.241791	-0.009415
C192	C	1.442695	0.258209	0.490585
H193	H	0.910352	-0.285744	0.022943
H194	H	1.410352	0.214256	0.522943
H195	H	0.979303	-0.202915	0.031690
H196	H	1.479303	0.297085	0.531690
H197	H	0.901563	-0.202916	-0.046007
H198	H	1.401563	0.297084	0.453993
C199	C	1.170759	-0.241756	-0.237650
C200	C	1.670759	0.258244	0.262350
H201	H	1.203108	-0.285702	-0.270005
H202	H	1.703108	0.214298	0.229995
H203	H	1.134153	-0.202876	-0.278757
H204	H	1.634153	0.297124	0.221243
H205	H	1.211885	-0.202885	-0.201053
H206	H	1.711885	0.297115	0.298947
C207	C	1.232402	-0.000124	0.156836
C208	C	1.732402	0.499876	0.656836
H209	H	1.280145	-0.000119	0.204283
H210	H	1.780145	0.499881	0.704283
H211	H	1.236476	-0.055334	0.120884
H212	H	1.736476	0.444666	0.620884
H213	H	1.236481	0.055093	0.120878
H214	H	1.736481	0.555093	0.620878
C215	C	0.884776	-0.000065	0.400162
C216	C	1.384776	0.499935	0.900162
H217	H	0.835476	-0.000067	0.435006
H218	H	1.335476	0.499933	0.935006
H219	H	0.882079	0.055143	0.363320
H220	H	1.382079	0.555143	0.863320
H221	H	0.882075	-0.055284	0.363334
H222	H	1.382075	0.444716	0.863334
H223	H	1.205673	-0.000110	0.336396
H224	H	1.705673	0.499890	0.836396
H225	H	1.155262	-0.563366	-0.222134
H226	H	1.655262	-0.063366	0.277866
