data_functionalizedCrystal
_audit_creation_method	'MofGen! by Chris Wilmer'
_symmetry_space_group_name_H-M	'P1'
_symmetry_Int_Tables_number	1
_symmetry_cell_setting	triclinic
loop_
_symmetry_equiv_pos_as_xyz
  x,y,z
_cell_length_a	14.519709
_cell_length_b	16.109302
_cell_length_c	14.586319
_cell_angle_alpha	89.994552
_cell_angle_beta	89.997598
_cell_angle_gamma	96.429037
loop_
_atom_site_label
_atom_site_type_symbol
_atom_site_fract_x
_atom_site_fract_y
_atom_site_fract_z
O1	O	-0.118543	1.103336	-0.076269
O2	O	0.214790	1.436669	0.257065
O3	O	0.548124	1.770002	0.590398
O4	O	-0.133295	0.861299	-0.076260
O5	O	0.200039	1.194633	0.257073
O6	O	0.533372	1.527966	0.590407
O7	O	0.008333	0.988735	-0.076273
O8	O	0.341667	1.322068	0.257060
O9	O	0.675000	1.655401	0.590394
O10	O	-0.260171	0.975900	-0.076256
O11	O	0.073162	1.309234	0.257078
O12	O	0.406496	1.642567	0.590411
O13	O	0.008335	0.988726	0.076208
O14	O	0.341669	1.322059	0.409541
O15	O	0.675002	1.655393	0.742875
O16	O	-0.133292	0.861290	0.076221
O17	O	0.200041	1.194624	0.409554
O18	O	0.533374	1.527957	0.742887
O19	O	-0.118541	1.103327	0.076212
O20	O	0.214792	1.436660	0.409545
O21	O	0.548126	1.769993	0.742879
Cu22	Cu	-0.125917	0.982308	0.090139
Cu23	Cu	0.207417	1.315641	0.423472
Cu24	Cu	0.540750	1.648974	0.756806
Cu25	Cu	-0.125919	0.982318	-0.090187
Cu26	Cu	0.207414	1.315652	0.243146
Cu27	Cu	0.540748	1.648985	0.576480
O28	O	-0.260169	0.975891	0.076225
O29	O	0.073165	1.309225	0.409558
O30	O	0.406498	1.642558	0.742892
C31	C	-0.132696	0.830319	-0.000019
C32	C	0.200637	1.163652	0.333315
C33	C	0.533971	1.496986	0.666648
C34	C	-0.130904	0.738021	-0.000016
C35	C	0.202429	1.071354	0.333317
C36	C	0.535763	1.404687	0.666651
C37	C	-0.126760	0.525668	0.083092
C38	C	0.206574	0.859001	0.416425
C39	C	0.539907	1.192334	0.749759
C40	C	-0.125066	0.438945	0.083089
C41	C	0.208267	0.772278	0.416422
C42	C	0.541600	1.105611	0.749755
C43	C	-0.125073	0.438965	-0.083154
C44	C	0.208260	0.772298	0.250179
C45	C	0.541593	1.105631	0.583512
C46	C	-0.126760	0.525687	-0.083150
C47	C	0.206573	0.859020	0.250183
C48	C	0.539907	1.192354	0.583517
C49	C	-0.127608	0.569036	-0.000024
C50	C	0.205725	0.902369	0.333309
C51	C	0.539059	1.235702	0.666642
C52	C	-0.124228	0.395590	-0.000032
C53	C	0.209106	0.728924	0.333302
C54	C	0.542439	1.062257	0.666635
C55	C	-0.122391	0.301562	-0.000036
C56	C	0.210942	0.634895	0.333297
C57	C	0.544275	0.968228	0.666631
C58	C	-0.129442	0.663071	-0.000020
C59	C	0.203891	0.996404	0.333314
C60	C	0.537224	1.329737	0.666647
C61	C	-0.294528	0.976494	-0.000013
C62	C	0.038805	1.309827	0.333320
C63	C	0.372138	1.643161	0.666653
C64	C	-0.396906	0.978286	-0.000007
C65	C	-0.063572	1.311620	0.333326
C66	C	0.269761	1.644953	0.666659
C67	C	-0.771788	0.984885	-0.000044
C68	C	-0.438454	1.318218	0.333289
C69	C	-0.105121	1.651552	0.666623
C70	C	-0.667484	0.983053	-0.000033
C71	C	-0.334150	1.316386	0.333300
C72	C	-0.000817	1.649719	0.666633
C73	C	-0.584350	0.981586	-0.000025
C74	C	-0.251017	1.314919	0.333309
C75	C	0.082317	1.648253	0.666642
C76	C	-0.480039	0.979753	-0.000016
C77	C	-0.146706	1.313086	0.333317
C78	C	0.186627	1.646420	0.666651
C79	C	0.042693	0.988132	-0.000037
C80	C	0.376026	1.321465	0.333297
C81	C	0.709359	1.654799	0.666630
C82	C	0.145070	0.986340	-0.000049
C83	C	0.478404	1.319673	0.333285
C84	C	0.811737	1.653006	0.666618
C85	C	-0.119140	1.134307	-0.000031
C86	C	0.214194	1.467640	0.333302
C87	C	0.547527	1.800974	0.666635
C88	C	-0.120932	1.226605	-0.000040
C89	C	0.212402	1.559939	0.333293
C90	C	0.545735	1.893272	0.666627
N91	N	-0.125914	0.982306	0.216971
N92	N	0.207419	1.315640	0.550304
N93	N	0.540752	1.648973	0.883638
N94	N	-0.125914	0.982326	-0.217019
N95	N	0.207419	1.315659	0.116315
N96	N	0.540753	1.648993	0.449648
C97	C	-0.063222	1.038754	0.451972
C98	C	0.270111	1.372087	0.785305
C99	C	0.603444	1.705420	1.118638
C100	C	-0.063220	1.038756	0.547953
C101	C	0.270113	1.372089	0.881286
C102	C	0.603446	1.705423	1.214619
C103	C	-0.188609	0.925873	0.547974
C104	C	0.144725	1.259206	0.881307
C105	C	0.478058	1.592540	1.214640
C106	C	-0.188606	0.925867	0.451994
C107	C	0.144727	1.259201	0.785328
C108	C	0.478061	1.592534	1.118661
C109	C	-0.125914	0.982312	0.403996
C110	C	0.207420	1.315646	0.737329
C111	C	0.540753	1.648979	1.070662
C112	C	-0.125914	0.982320	0.595956
C113	C	0.207419	1.315654	0.929290
C114	C	0.540752	1.648987	1.262623
C115	C	-0.125913	0.982323	0.700024
C116	C	0.207421	1.315656	1.033357
C117	C	0.540754	1.648989	1.366690
C118	C	-0.125914	0.982309	0.299922
C119	C	0.207419	1.315643	0.633255
C120	C	0.540752	1.648976	0.966589
H121	H	-0.124384	0.403660	-0.150832
H122	H	0.208949	0.736993	0.182501
H123	H	0.542283	1.070326	0.515834
H124	H	-0.012173	1.084713	0.412893
H125	H	0.321160	1.418047	0.746227
H126	H	0.654493	1.751380	1.079560
H127	H	-0.124376	0.403638	0.150770
H128	H	0.208958	0.736972	0.484103
H129	H	0.542291	1.070305	0.817437
C130	C	-0.126609	0.517002	-0.247482
C131	C	0.206725	0.850335	0.085851
C132	C	0.540058	1.183668	0.419185
C133	C	-0.127697	0.573363	-0.174519
C134	C	0.205637	0.906696	0.158815
C135	C	0.538970	1.240030	0.492148
H136	H	-0.127190	0.546437	-0.303885
H137	H	0.206143	0.879770	0.029449
H138	H	0.539476	1.213103	0.362782
H139	H	-0.072207	0.489439	-0.244035
H140	H	0.261127	0.822772	0.089298
H141	H	0.594460	1.156106	0.422632
H142	H	-0.179702	0.476913	-0.244015
H143	H	0.153632	0.810246	0.089318
H144	H	0.486965	1.143580	0.422651
H145	H	-0.074600	0.613448	-0.177981
H146	H	0.258734	0.946782	0.155352
H147	H	0.592067	1.280115	0.488685
H148	H	-0.182104	0.600939	-0.177968
H149	H	0.151229	0.934273	0.155366
H150	H	0.484562	1.267606	0.488699
C151	C	0.060710	1.150341	0.538285
C152	C	0.394044	1.483675	0.871618
C153	C	0.727377	1.817008	1.204952
C154	C	0.005688	1.100802	0.600688
C155	C	0.339022	1.434135	0.934021
C156	C	0.672355	1.767469	1.267355
H157	H	0.103250	1.188650	0.570843
H158	H	0.436583	1.521983	0.904177
H159	H	0.769916	1.855316	1.237510
H160	H	0.093895	1.115686	0.500856
H161	H	0.427229	1.449020	0.834190
H162	H	0.760562	1.782353	1.167523
H163	H	0.022299	1.180296	0.500844
H164	H	0.355633	1.513629	0.834178
H165	H	0.688966	1.846963	1.167511
H166	H	0.044099	1.070842	0.638124
H167	H	0.377433	1.404176	0.971458
H168	H	0.710766	1.737509	1.304791
H169	H	-0.027499	1.135461	0.638132
H170	H	0.305835	1.468795	0.971466
H171	H	0.639168	1.802128	1.304799
C172	C	-0.207883	0.613947	0.179558
C173	C	0.125450	0.947281	0.512891
C174	C	0.458784	1.280614	0.846225
C175	C	-0.127682	0.573317	0.174463
C176	C	0.205651	0.906650	0.507796
C177	C	0.538985	1.239984	0.841130
H178	H	-0.208450	0.643358	0.235972
H179	H	0.124883	0.976691	0.569305
H180	H	0.458216	1.310024	0.902638
H181	H	-0.208625	0.652188	0.130066
H182	H	0.124709	0.985521	0.463399
H183	H	0.458042	1.318854	0.796733
H184	H	-0.260966	0.573847	0.176107
H185	H	0.072368	0.907180	0.509441
H186	H	0.405701	1.240513	0.842774
H187	H	-0.074599	0.613418	0.177907
H188	H	0.258735	0.946752	0.511241
H189	H	0.592068	1.280085	0.844574
H190	H	-0.126931	0.535073	0.223969
H191	H	0.206402	0.868407	0.557302
H192	H	0.539735	1.201740	0.890635
C193	C	-0.244297	0.875766	0.695114
C194	C	0.089037	1.209099	1.028447
C195	C	0.422370	1.542432	1.361781
C196	C	-0.257527	0.863839	0.600737
C197	C	0.075807	1.197172	0.934071
C198	C	0.409140	1.530506	1.267404
H199	H	-0.286851	0.837472	0.727684
H200	H	0.046482	1.170805	1.061018
H201	H	0.379816	1.504138	1.394351
H202	H	-0.182753	0.866643	0.710842
H203	H	0.150580	1.199976	1.044175
H204	H	0.483913	1.533309	1.377509
H205	H	-0.254330	0.931270	0.710821
H206	H	0.079004	1.264603	1.044154
H207	H	0.412337	1.597937	1.377488
H208	H	-0.247487	0.808336	0.585029
H209	H	0.085846	1.141669	0.918362
H210	H	0.419180	1.475003	1.251696
H211	H	-0.319085	0.872955	0.585003
H212	H	0.014249	1.206289	0.918336
H213	H	0.347582	1.539622	1.251670
C214	C	-0.312560	0.814289	0.461648
C215	C	0.020774	1.147622	0.794981
C216	C	0.354107	1.480956	1.128315
C217	C	-0.257524	0.863824	0.399252
C218	C	0.075809	1.197158	0.732585
C219	C	0.409142	1.530491	1.065918
H220	H	-0.355106	0.775991	0.429085
H221	H	-0.021773	1.109325	0.762418
H222	H	0.311561	1.442658	1.095751
H223	H	-0.274165	0.784330	0.499087
H224	H	0.059168	1.117663	0.832420
H225	H	0.392502	1.450997	1.165754
H226	H	-0.345745	0.848954	0.499079
H227	H	-0.012412	1.182287	0.832412
H228	H	0.320922	1.515621	1.165746
H229	H	-0.224334	0.829160	0.361825
H230	H	0.109000	1.162493	0.695158
H231	H	0.442333	1.495826	1.028492
H232	H	-0.295924	0.893785	0.361797
H233	H	0.037409	1.227119	0.695130
H234	H	0.370743	1.560452	1.028464
