data_functionalizedCrystal
_audit_creation_method	'MofGen! by Chris Wilmer'
_symmetry_space_group_name_H-M	'P1'
_symmetry_Int_Tables_number	1
_symmetry_cell_setting	triclinic
loop_
_symmetry_equiv_pos_as_xyz
  x,y,z
_cell_length_a	23.532355
_cell_length_b	23.532407
_cell_length_c	9.565339
_cell_angle_alpha	90.012167
_cell_angle_beta	89.997186
_cell_angle_gamma	82.838088
loop_
_atom_site_label
_atom_site_type_symbol
_atom_site_fract_x
_atom_site_fract_y
_atom_site_fract_z
O1	O	0.755277	0.068997	0.116084
O2	O	0.589410	0.079031	0.116130
O3	O	0.677345	-0.008919	0.116080
O4	O	0.667342	0.156946	0.116134
O5	O	0.677341	-0.008927	-0.116440
O6	O	0.589405	0.079023	-0.116390
O7	O	0.755273	0.068989	-0.116436
Zn8	Zn	0.672338	0.074005	-0.153331
Zn9	Zn	0.672344	0.074015	0.153025
O10	O	0.667337	0.156939	-0.116386
C11	C	0.568191	0.078776	-0.000124
C12	C	0.504972	0.078022	-0.000107
C13	C	0.677088	-0.030139	-0.000183
C14	C	0.676322	-0.093356	-0.000194
C15	C	0.112956	0.073280	-0.126914
C16	C	0.053556	0.072562	-0.126920
O17	O	0.022836	0.072168	-0.234712
N18	N	0.023850	0.072211	-0.000174
C19	C	0.053548	0.072571	0.126586
O20	O	0.022826	0.072205	0.234393
C21	C	0.112947	0.073284	0.126590
C22	C	0.142649	0.073641	-0.000164
C23	C	0.142658	0.073636	-0.253658
C24	C	0.202053	0.074355	-0.253652
C25	C	0.231746	0.074717	-0.126902
C26	C	0.202044	0.074360	-0.000158
C27	C	0.142643	0.073640	0.253349
C28	C	0.202046	0.074353	0.253342
C29	C	0.231748	0.074710	0.126588
C30	C	0.291132	0.075440	0.126599
N31	N	0.320838	0.075792	-0.000147
C32	C	0.291145	0.075430	-0.126898
C33	C	-0.071194	0.071072	0.126568
C34	C	-0.130592	0.070362	0.126565
C35	C	-0.130579	0.070353	-0.126942
C36	C	-0.071180	0.071066	-0.126937
C37	C	-0.041488	0.071423	-0.000178
C38	C	0.415879	0.076939	-0.126875
C39	C	0.475279	0.077660	-0.126858
C40	C	0.475261	0.077667	0.126648
C41	C	0.415866	0.076949	0.126632
C42	C	0.386177	0.076583	-0.000141
O43	O	0.321891	0.075832	0.234336
O44	O	0.321875	0.075788	-0.234687
C45	C	0.723557	-0.492468	-0.000131
C46	C	0.722845	-0.551868	-0.000120
O47	O	0.766632	-0.588620	-0.000080
N48	N	0.670568	-0.574484	-0.000106
C49	C	0.618998	-0.537697	-0.000089
O50	O	0.574467	-0.562388	-0.000075
C51	C	0.619710	-0.478298	-0.000090
C52	C	0.671991	-0.455685	-0.000118
C53	C	0.775834	-0.469854	-0.000157
C54	C	0.776545	-0.410458	-0.000170
C55	C	0.724979	-0.373676	-0.000157
C56	C	0.672703	-0.396289	-0.000131
C57	C	0.568141	-0.441512	-0.000063
C58	C	0.568858	-0.382110	-0.000063
C59	C	0.621139	-0.359497	-0.000090
C60	C	0.621848	-0.300110	-0.000132
N61	N	0.674126	-0.277494	-0.000145
C62	C	0.725691	-0.314277	-0.000158
C63	C	0.617507	-0.662439	-0.000085
C64	C	0.616794	-0.721837	-0.000094
C65	C	0.720642	-0.736004	-0.000122
C66	C	0.721354	-0.676605	-0.000123
C67	C	0.669784	-0.639823	-0.000099
C68	C	0.727181	-0.189540	-0.000188
C69	C	0.727888	-0.130138	-0.000207
C70	C	0.624041	-0.115977	-0.000171
C71	C	0.623334	-0.175373	-0.000160
C72	C	0.674909	-0.212154	-0.000163
O73	O	0.578084	-0.263323	-0.000165
O74	O	0.770216	-0.289577	-0.000154
C75	C	0.776492	0.069244	-0.000179
C76	C	0.839710	0.069998	-0.000186
C77	C	0.667594	0.178158	-0.000119
C78	C	0.668360	0.241375	-0.000100
N79	N	0.672338	0.073998	-0.362410
C80	C	0.712697	0.033013	-0.546769
C81	C	0.723916	0.084250	-0.453518
C82	C	0.661144	0.022764	-0.453592
C83	C	0.683593	0.125280	-0.546696
C84	C	0.620800	0.063761	-0.546779
C85	C	0.631997	0.115036	-0.453570
N86	N	0.672348	0.074018	0.362104
H87	H	0.499460	0.077953	-0.230081
H88	H	0.391712	0.076647	-0.230106
F89	F	0.567691	-0.199441	-0.000155
F90	F	0.512496	-0.465565	-0.000027
F91	F	0.111066	0.073253	-0.388576
H92	H	0.746845	-0.001616	-0.587688
F93	F	0.562616	-0.623297	-0.000072
F94	F	0.563842	0.052407	-0.600366
H95	H	0.226232	0.074642	-0.356869
H96	H	0.526863	-0.352164	-0.000041
H97	H	-0.047001	0.071358	-0.230152
F98	F	0.783535	-0.106076	-0.000236
F99	F	0.832190	-0.386400	-0.000170
H100	H	0.817827	-0.499797	-0.000162
F101	F	0.587390	0.160396	-0.400412
H102	H	0.118470	0.073348	0.356566
H103	H	0.582057	-0.086018	-0.000166
F104	F	0.782073	-0.228677	-0.000191
H105	H	-0.154766	0.070057	-0.230149
H106	H	0.499448	0.077964	0.229845
F107	F	0.780887	0.095577	-0.399942
F108	F	0.384253	0.076578	0.261537
H109	H	0.651672	-0.020571	-0.412692
F110	F	-0.162199	0.069993	0.261474
H111	H	0.763925	-0.658198	-0.000144
F112	F	0.775523	-0.775161	-0.000129
F113	F	-0.039599	0.071457	0.261492
F114	F	0.696043	0.181935	-0.599924
H115	H	0.574222	-0.740243	-0.000096
F116	F	0.233644	0.074731	0.388261
