data_functionalizedCrystal
_audit_creation_method	'MofGen! by Chris Wilmer'
_symmetry_space_group_name_H-M	'P1'
_symmetry_Int_Tables_number	1
_symmetry_cell_setting	triclinic
loop_
_symmetry_equiv_pos_as_xyz
  x,y,z
_cell_length_a	6.817900
_cell_length_b	11.102188
_cell_length_c	16.418042
_cell_angle_alpha	93.889947
_cell_angle_beta	103.389568
_cell_angle_gamma	108.603875
loop_
_atom_site_label
_atom_site_type_symbol
_atom_site_fract_x
_atom_site_fract_y
_atom_site_fract_z
V1	V	-4.051811	-0.176872	-0.261154
O2	O	-4.011991	0.007436	-0.256182
O3	O	-4.028987	-0.349685	-0.259368
O4	O	-4.002551	-0.174618	-0.375052
O5	O	-4.038610	-0.168843	-0.139697
V6	V	-4.532237	-0.154771	-0.246627
O7	O	-4.319865	-0.225351	-0.293020
O8	O	-4.714381	-0.106292	-0.214760
O9	O	-4.331854	0.018042	-0.248413
O10	O	-4.689454	-0.339080	-0.251598
O11	O	-4.662835	-0.162800	-0.368083
O12	O	-4.358290	-0.157026	-0.132728
C13	C	-3.880238	-0.391798	-0.255248
C14	C	-3.942858	-0.533078	-0.254547
C15	C	-3.929645	-0.580999	-0.177514
C16	C	-3.988507	-0.713748	-0.176859
C17	C	-4.073783	-0.750644	-0.330276
C18	C	-4.014937	-0.617898	-0.330930
C19	C	-3.846515	-0.168481	-0.402814
C20	C	-3.887692	-0.167781	-0.495926
C21	C	-4.165414	-0.172509	-0.714412
C22	C	-4.204084	-0.171841	-0.801899
C23	C	-3.837989	-0.159127	-0.793357
C24	C	-3.799318	-0.159787	-0.705870
C25	C	-3.963041	-0.166484	-0.666400
C26	C	-4.040381	-0.165157	-0.841375
C27	C	-4.082307	-0.164432	-0.936232
C28	C	-3.921112	-0.167207	-0.571536
C29	C	-4.143947	0.060148	-0.252530
C30	C	-4.060565	0.201427	-0.253237
C31	C	-4.177670	-0.163166	-0.104962
C32	C	-4.115730	-0.163859	-0.011849
H33	H	-4.025711	-0.578883	-0.393664
C34	C	-3.850382	-0.487697	-0.093495
C35	C	-3.835865	-0.540416	-0.008761
C36	C	-3.756610	-0.447117	0.075260
C37	C	-3.691873	-0.301100	0.074547
C38	C	-3.706388	-0.248373	-0.010191
C39	C	-3.785643	-0.341672	-0.094212
H40	H	-3.883789	-0.648513	-0.008230
H41	H	-3.745866	-0.486150	0.137988
H42	H	-3.633204	-0.232035	0.136744
H43	H	-3.658464	-0.140276	-0.010721
H44	H	-3.796388	-0.302639	-0.156940
H45	H	-4.298730	-0.177960	-0.682279
H46	H	-3.977745	-0.752757	-0.114131
H47	H	-4.368873	-0.176745	-0.840986
C48	C	-4.153047	-0.843948	-0.414294
C49	C	-4.217765	-0.989965	-0.413578
C50	C	-4.297022	-1.083266	-0.497598
C51	C	-4.311559	-1.030550	-0.582334
C52	C	-4.246839	-0.884527	-0.583052
C53	C	-4.167583	-0.791226	-0.499032
H54	H	-4.207005	-1.028994	-0.350849
H55	H	-4.344932	-1.191362	-0.497065
H56	H	-4.370230	-1.099617	-0.644530
H57	H	-4.257599	-0.845497	-0.645782
H58	H	-4.119672	-0.683129	-0.499565
H59	H	-3.704698	-0.153678	-0.825504
H60	H	-3.634509	-0.154871	-0.666776
