data_functionalizedCrystal
_audit_creation_method	'MofGen! by Chris Wilmer'
_symmetry_space_group_name_H-M	'P1'
_symmetry_Int_Tables_number	1
_symmetry_cell_setting	triclinic
loop_
_symmetry_equiv_pos_as_xyz
  x,y,z
_cell_length_a	19.288864
_cell_length_b	16.176319
_cell_length_c	19.288865
_cell_angle_alpha	89.991322
_cell_angle_beta	96.863755
_cell_angle_gamma	90.019823
loop_
_atom_site_label
_atom_site_type_symbol
_atom_site_fract_x
_atom_site_fract_y
_atom_site_fract_z
O1	O	0.921350	0.069021	-0.086646
O2	O	0.719089	0.068966	-0.098335
O3	O	0.826064	0.068979	0.008640
O4	O	0.814375	0.069008	-0.193621
O5	O	0.826051	-0.068515	0.008640
O6	O	0.719077	-0.068527	-0.098335
O7	O	0.921337	-0.068472	-0.086646
Cu8	Cu	0.820206	-0.081054	-0.092490
Cu9	Cu	0.820221	0.081548	-0.092491
O10	O	0.814363	-0.068485	-0.193621
C11	C	0.693207	0.000212	-0.097959
C12	C	0.616103	0.000190	-0.096830
C13	C	0.571407	0.000212	-0.159598
C14	C	0.498960	0.000221	-0.158537
C15	C	0.471212	0.000225	-0.094705
C16	C	0.515918	0.000198	-0.031929
C17	C	0.588364	0.000181	-0.032991
C18	C	0.362955	0.048415	-0.044526
C19	C	0.290510	0.048437	-0.043466
C20	C	0.247767	0.000274	-0.091425
C21	C	0.277475	-0.047901	-0.140456
C22	C	0.349920	-0.047918	-0.141519
C23	C	0.392658	0.000243	-0.093546
C24	C	0.124514	0.000305	-0.153047
C25	C	0.052066	0.000309	-0.151984
C26	C	0.069026	0.000294	-0.025374
C27	C	0.141473	0.000281	-0.026439
C28	C	0.169212	0.000291	-0.090278
N29	N	0.820201	-0.195419	-0.092490
C30	C	0.862192	-0.238661	-0.134512
C31	C	0.862199	-0.325208	-0.134509
C32	C	0.820211	-0.368512	-0.092488
C33	C	0.778219	-0.325264	-0.050461
C34	C	0.778215	-0.238718	-0.050460
C35	C	0.778232	-0.674292	-0.050461
C36	C	0.778236	-0.760844	-0.050467
C37	C	0.862215	-0.760782	-0.134510
C38	C	0.862212	-0.674236	-0.134510
C39	C	0.820222	-0.630996	-0.092480
C40	C	0.820216	-0.537152	-0.092483
C41	C	0.820214	-0.462354	-0.092488
C42	C	0.947220	0.000284	-0.087022
C43	C	1.024324	0.000311	-0.088151
C44	C	0.825682	0.000229	0.034516
C45	C	0.824553	0.000222	0.111620
N46	N	0.820232	0.195913	-0.092486
C47	C	0.814745	0.000266	-0.219497
C48	C	0.815874	0.000279	-0.296601
C49	C	0.887321	0.000235	0.156316
C50	C	0.886260	0.000248	0.228763
C51	C	0.822428	0.000231	0.256511
C52	C	0.759652	0.000222	0.211805
C53	C	0.760714	0.000218	0.139359
C54	C	0.772244	-0.047944	0.364798
C55	C	0.771184	-0.047944	0.437243
C56	C	0.819148	0.000248	0.479956
C57	C	0.868184	0.048431	0.450218
C58	C	0.869246	0.048427	0.377773
C59	C	0.821269	0.000236	0.335065
C60	C	0.880770	0.000277	0.603209
C61	C	0.879707	0.000295	0.675657
C62	C	0.753097	0.000261	0.658697
C63	C	0.754162	0.000251	0.586250
C64	C	0.818001	0.000255	0.558511
H65	H	0.397751	0.087640	-0.005470
Cl66	Cl	0.725417	-0.619944	0.002348
H67	H	0.374106	-0.087146	-0.181439
Cl68	Cl	0.223748	-0.108453	-0.200753
Cl69	Cl	0.914990	-0.619802	-0.187348
Cl70	Cl	0.197666	0.000259	0.052474
Cl71	Cl	0.965174	0.000265	0.284963
H72	H	0.493322	0.000212	0.020044
Cl73	Cl	0.915005	-0.815147	-0.187346
H74	H	0.707679	0.000210	0.234401
Cl75	Cl	0.725435	-0.379703	0.002368
Cl76	Cl	0.442760	0.000247	-0.237451
Cl77	Cl	0.958623	0.000317	0.731848
Cl78	Cl	0.725449	-0.815282	0.002365
Cl79	Cl	0.961023	0.000277	0.568333
Cl80	Cl	0.672850	0.000244	0.693572
Cl81	Cl	0.914989	-0.379566	-0.187341
H82	H	0.624756	0.000163	0.018124
Cl83	Cl	0.034151	0.000288	0.054873
Cl84	Cl	0.928485	0.109022	0.503907
H85	H	0.703049	0.000236	0.549857
H86	H	0.733184	-0.087193	0.330026
H87	H	0.147101	0.000301	-0.205028
Cl88	Cl	0.253169	0.109008	0.018166
H89	H	0.731253	-0.087173	0.461449
H90	H	0.709599	0.000207	0.102967
Cl91	Cl	0.725432	-0.184357	0.002377
H92	H	0.593987	0.000222	-0.211580
H93	H	0.896379	-0.203409	-0.168735
Cl94	Cl	0.967575	0.000263	0.121448
H95	H	0.015674	0.000322	-0.203099
Cl96	Cl	0.930884	0.109002	0.340389
