data_functionalizedCrystal
_audit_creation_method	'MofGen! by Chris Wilmer'
_symmetry_space_group_name_H-M	'P1'
_symmetry_Int_Tables_number	1
_symmetry_cell_setting	triclinic
loop_
_symmetry_equiv_pos_as_xyz
  x,y,z
_cell_length_a	17.699083
_cell_length_b	27.732048
_cell_length_c	16.776229
_cell_angle_alpha	89.988391
_cell_angle_beta	89.998886
_cell_angle_gamma	82.962835
loop_
_atom_site_label
_atom_site_type_symbol
_atom_site_fract_x
_atom_site_fract_y
_atom_site_fract_z
O1	O	1.003540	0.061127	-0.066185
O2	O	1.503540	0.561127	0.433815
O3	O	0.783091	0.069080	-0.066212
O4	O	1.283091	0.569080	0.433788
O5	O	0.900162	-0.005269	-0.066183
O6	O	1.400162	0.494731	0.433817
O7	O	0.886469	0.135475	-0.066215
O8	O	1.386469	0.635475	0.433785
O9	O	0.900147	-0.005273	0.066394
O10	O	1.400147	0.494727	0.566394
O11	O	0.783076	0.069075	0.066364
O12	O	1.283076	0.569075	0.566364
O13	O	1.003524	0.061122	0.066391
O14	O	1.503524	0.561122	0.566391
Zn15	Zn	0.893298	0.065098	0.087427
Zn16	Zn	1.393298	0.565098	0.587427
Zn17	Zn	0.893318	0.065104	-0.087248
Zn18	Zn	1.393318	0.565104	0.412752
O19	O	0.886453	0.135471	0.066362
O20	O	1.386453	0.635471	0.566362
C21	C	0.754889	0.068792	0.000073
C22	C	1.254889	0.568792	0.500073
C23	C	0.670878	0.067938	0.000063
C24	C	1.170878	0.567938	0.500063
C25	C	0.621873	0.111579	0.000053
C26	C	1.121873	0.611579	0.500053
C27	C	0.542936	0.110772	0.000064
C28	C	1.042936	0.610772	0.500064
C29	C	0.513007	0.066325	0.000078
C30	C	1.013007	0.566325	0.500078
C31	C	0.562019	0.022680	0.000090
C32	C	1.062019	0.522680	0.500090
C33	C	0.640954	0.023487	0.000085
C34	C	1.140954	0.523487	0.500085
C35	C	0.243685	0.019426	0.000111
C36	C	0.743685	0.519426	0.500111
C37	C	0.164744	0.018623	0.000113
C38	C	0.664744	0.518623	0.500113
C39	C	0.145667	0.106712	0.000089
C40	C	0.645667	0.606712	0.500089
C41	C	0.224602	0.107518	0.000084
C42	C	0.724602	0.607518	0.500084
C43	C	0.273607	0.063874	0.000100
C44	C	0.773607	0.563874	0.500100
C45	C	0.359199	0.064749	0.000090
C46	C	0.859199	0.564749	0.500090
C47	C	0.427418	0.065450	0.000082
C48	C	0.927418	0.565450	0.500082
C49	C	0.899867	-0.023279	0.000108
C50	C	1.399867	0.476721	0.500108
C51	C	0.899001	-0.076937	0.000114
C52	C	1.399001	0.423063	0.500114
C53	C	0.962734	-0.415523	0.000081
C54	C	1.462734	0.084477	0.500081
C55	C	0.959522	-0.617194	0.000070
C56	C	1.459522	-0.117194	0.500070
O57	O	1.017801	-0.648240	0.000042
O58	O	1.517801	-0.148240	0.500042
N59	N	0.890104	-0.636567	0.000062
N60	N	1.390104	-0.136567	0.500062
C61	C	0.821484	-0.605520	0.000051
C62	C	1.321484	-0.105520	0.500051
O63	O	0.762366	-0.626625	0.000036
O64	O	1.262366	-0.126625	0.500036
C65	C	0.824696	-0.403849	0.000057
C66	C	1.324696	0.096151	0.500057
C67	C	0.894119	-0.384479	0.000073
C68	C	1.394119	0.115521	0.500073
C69	C	1.032151	-0.396152	0.000096
C70	C	1.532151	0.103848	0.500096
C71	C	1.032953	-0.345737	0.000103
C72	C	1.532953	0.154263	0.500103
C73	C	0.964338	-0.314693	0.000095
C74	C	1.464338	0.185307	0.500095
C75	C	0.894921	-0.334064	0.000080
C76	C	1.394921	0.165936	0.500080
C77	C	0.756076	-0.372802	0.000041
C78	C	1.256076	0.127198	0.500041
C79	C	0.756886	-0.322382	0.000041
C80	C	1.256886	0.177618	0.500041
C81	C	0.826308	-0.303012	0.000057
C82	C	1.326308	0.196988	0.500057
C83	C	0.827108	-0.252605	0.000080
C84	C	1.327108	0.247395	0.500080
N85	N	0.896526	-0.233232	0.000088
N86	N	1.396526	0.266768	0.500088
C87	C	0.965141	-0.264276	0.000095
C88	C	1.465141	0.235724	0.500095
C89	C	0.819802	-0.711400	0.000050
C90	C	1.319802	-0.211400	0.500050
C91	C	0.818999	-0.761817	0.000050
C92	C	1.318999	-0.261817	0.500050
C93	C	0.957038	-0.773488	0.000067
C94	C	1.457038	-0.273488	0.500067
C95	C	0.957840	-0.723070	0.000072
C96	C	1.457840	-0.223070	0.500072
C97	C	0.889220	-0.692026	0.000058
C98	C	1.389220	-0.192026	0.500058
C99	C	0.966820	-0.158401	0.000111
C100	C	1.466820	0.341599	0.500111
C101	C	0.967616	-0.107981	0.000122
C102	C	1.467616	0.392019	0.500122
C103	C	0.829578	-0.096314	0.000101
C104	C	1.329578	0.403686	0.500101
C105	C	0.828781	-0.146730	0.000095
C106	C	1.328781	0.353270	0.500095
C107	C	0.897409	-0.177772	0.000097
C108	C	1.397409	0.322228	0.500097
O109	O	0.768860	-0.221531	0.000099
O110	O	1.268860	0.278469	0.500099
O111	O	1.024251	-0.243161	0.000093
O112	O	1.524251	0.256839	0.500093
C113	C	0.961931	-0.465938	0.000074
C114	C	1.461931	0.034062	0.500074
C115	C	0.892514	-0.485309	0.000059
C116	C	1.392514	0.014691	0.500059
C117	C	0.823899	-0.454265	0.000051
C118	C	1.323899	0.045735	0.500051
C119	C	0.891711	-0.535726	0.000059
C120	C	1.391711	-0.035726	0.500059
C121	C	0.960326	-0.566770	0.000067
C122	C	1.460326	-0.066770	0.500067
C123	C	1.029744	-0.547397	0.000074
C124	C	1.529744	-0.047397	0.500074
C125	C	1.030546	-0.496982	0.000082
C126	C	1.530546	0.003018	0.500082
C127	C	0.754481	-0.473638	0.000043
C128	C	1.254481	0.026362	0.500043
C129	C	0.753685	-0.524053	0.000037
C130	C	1.253685	-0.024053	0.500037
C131	C	0.822300	-0.555097	0.000045
C132	C	1.322300	-0.055097	0.500045
C133	C	1.031726	0.061410	0.000105
C134	C	1.531726	0.561410	0.500105
C135	C	1.115737	0.062264	0.000109
C136	C	1.615737	0.562264	0.500109
C137	C	0.886748	0.153481	0.000069
C138	C	1.386748	0.653481	0.500069
C139	C	0.887614	0.207139	0.000058
C140	C	1.387614	0.707139	0.500058
N141	N	0.893289	0.065094	0.206638
N142	N	1.393289	0.565094	0.706638
N143	N	0.893332	0.065105	-0.206459
N144	N	1.393332	0.565105	0.293541
C145	C	0.945144	0.032186	0.248368
C146	C	1.445144	0.532186	0.748368
C147	C	0.945148	0.032185	0.331821
C148	C	1.445148	0.532185	0.831821
C149	C	0.893301	0.065095	0.373541
C150	C	1.393301	0.565095	0.873541
C151	C	0.841441	0.098005	0.331805
C152	C	1.341441	0.598005	0.831805
C153	C	0.841433	0.098003	0.248354
C154	C	1.341433	0.598003	0.748354
C155	C	0.841468	0.098015	0.668352
C156	C	1.341468	0.598015	1.168352
C157	C	0.841481	0.098015	0.751809
C158	C	1.341481	0.598015	1.251809
C159	C	0.945182	0.032197	0.751819
C160	C	1.445182	0.532197	1.251819
C161	C	0.945175	0.032195	0.668368
C162	C	1.445175	0.532195	1.168368
C163	C	0.893313	0.065102	0.626639
C164	C	1.393313	0.565102	1.126639
C165	C	0.893308	0.065102	0.536151
C166	C	1.393308	0.565102	1.036151
C167	C	0.893309	0.065099	0.464028
C168	C	1.393309	0.565099	0.964028
H169	H	0.105758	0.142249	0.000080
H170	H	0.605758	0.642249	0.500080
H171	H	1.088028	-0.421424	0.000099
H172	H	1.588028	0.078576	0.500099
H173	H	0.248965	0.143712	0.000069
H174	H	0.748965	0.643712	0.500069
H175	H	0.772252	-0.162502	0.000104
H176	H	1.272252	0.337498	0.500104
H177	H	0.987409	0.005400	0.785803
H178	H	1.487409	0.505400	1.285803
H179	H	0.773714	-0.071029	0.000098
H180	H	1.273714	0.428971	0.500098
H181	H	0.799257	0.124816	0.785776
H182	H	1.299257	0.624816	1.285776
H183	H	0.140380	-0.017574	0.000126
H184	H	0.640380	0.482426	0.500126
C185	C	0.297581	-0.028584	0.000123
C186	C	0.797581	0.471416	0.500123
N187	N	0.338178	-0.064747	0.000132
N188	N	0.838178	0.435253	0.500132
H189	H	0.799241	0.124810	0.634383
H190	H	1.299241	0.624810	1.134383
C191	C	0.681396	-0.288237	0.000028
C192	C	1.181396	0.211763	0.500028
N193	N	0.624538	-0.262520	0.000021
N194	N	1.124538	0.237480	0.500021
H195	H	0.646234	0.147773	0.000041
H196	H	1.146234	0.647773	0.500041
H197	H	0.537645	-0.013510	0.000113
H198	H	1.037645	0.486490	0.500113
C199	C	0.784401	0.134202	0.377701
C200	C	1.284401	0.634202	0.877701
N201	N	0.741437	0.161467	0.412268
N202	N	1.241437	0.661467	0.912268
C203	C	1.043990	-0.086677	0.000137
C204	C	1.543990	0.413323	0.500137
N205	N	1.101513	-0.070633	0.000146
N206	N	1.601513	0.429367	0.500146
C207	C	0.742629	-0.783118	0.000042
C208	C	1.242629	-0.283118	0.500042
N209	N	0.685104	-0.799161	0.000032
N210	N	1.185104	-0.299161	0.500032
C211	C	0.784395	0.134208	0.202452
C212	C	1.284395	0.634208	0.702452
N213	N	0.741433	0.161479	0.167879
N214	N	1.241433	0.661479	0.667879
H215	H	1.089484	-0.329971	0.000113
H216	H	1.589484	0.170029	0.500113
H217	H	0.680855	-0.012050	0.000093
H218	H	1.180855	0.487950	0.500093
C219	C	1.002174	-0.004028	0.377720
C220	C	1.502174	0.495972	0.877720
N221	N	1.045122	-0.031310	0.412291
N222	N	1.545122	0.468690	0.912291
C223	C	0.489033	0.158781	0.000067
C224	C	0.989033	0.658781	0.500067
N225	N	0.448433	0.194943	0.000076
N226	N	0.948433	0.694943	0.500076
C227	C	1.034210	-0.701768	0.000083
C228	C	1.534210	-0.201768	0.500083
N229	N	1.091735	-0.685725	0.000088
N230	N	1.591735	-0.185725	0.500088
C231	C	0.744310	-0.677257	0.000035
C232	C	1.244310	-0.177257	0.500035
N233	N	0.687448	-0.651544	0.000026
N234	N	1.187448	-0.151544	0.500026
C235	C	1.042314	-0.192541	0.000121
C236	C	1.542314	0.307459	0.500121
N237	N	1.099176	-0.218254	0.000136
N238	N	1.599176	0.281746	0.500136
H239	H	0.987396	0.005398	0.634402
H240	H	1.487396	0.505398	1.134402
C241	C	0.679705	-0.394098	0.000018
C242	C	1.179705	0.105902	0.500018
N243	N	0.622177	-0.410137	-0.000002
N244	N	1.122177	0.089863	0.499998
C245	C	1.106918	-0.475681	0.000094
C246	C	1.606918	0.024319	0.500094
N247	N	1.164444	-0.459641	0.000101
N248	N	1.664444	0.040359	0.500101
H249	H	1.012907	-0.798773	0.000073
H250	H	1.512907	-0.298773	0.500073
C251	C	1.105221	-0.581555	0.000082
C252	C	1.605221	-0.081555	0.500082
N253	N	1.162067	-0.607285	0.000082
N254	N	1.662067	-0.107285	0.500082
H255	H	0.697148	-0.539820	0.000031
H256	H	1.197148	-0.039820	0.500031
C257	C	1.002181	-0.004019	0.202484
C258	C	1.502181	0.495981	0.702484
N259	N	1.045140	-0.031291	0.167925
N260	N	1.545140	0.468709	0.667925
H261	H	0.698605	-0.448366	0.000035
H262	H	1.198605	0.051634	0.500035
