data_functionalizedCrystal
_audit_creation_method	'MofGen! by Chris Wilmer'
_symmetry_space_group_name_H-M	'P1'
_symmetry_Int_Tables_number	1
_symmetry_cell_setting	triclinic
loop_
_symmetry_equiv_pos_as_xyz
  x,y,z
_cell_length_a	15.186229
_cell_length_b	10.654550
_cell_length_c	10.654550
_cell_angle_alpha	95.515070
_cell_angle_beta	90.005706
_cell_angle_gamma	90.000109
loop_
_atom_site_label
_atom_site_type_symbol
_atom_site_fract_x
_atom_site_fract_y
_atom_site_fract_z
O1	O	-0.073217	1.667834	-0.176402
O2	O	0.426783	2.167834	0.323598
O3	O	-0.073221	1.302355	-0.193208
O4	O	0.426779	1.802355	0.306792
O5	O	-0.073213	1.493497	-0.002066
O6	O	0.426787	1.993497	0.497934
O7	O	-0.073224	1.476691	-0.367544
O8	O	0.426776	1.976691	0.132456
O9	O	0.073244	1.493496	-0.002054
O10	O	0.573244	1.993496	0.497946
O11	O	0.073236	1.302354	-0.193196
O12	O	0.573236	1.802354	0.306804
O13	O	0.073241	1.667832	-0.176390
O14	O	0.573241	2.167832	0.323610
Zn15	Zn	0.096492	1.485093	-0.184791
Zn16	Zn	0.596492	1.985093	0.315209
Zn17	Zn	-0.096472	1.485095	-0.184807
Zn18	Zn	0.403528	1.985095	0.315193
O19	O	0.073233	1.476690	-0.367532
O20	O	0.573233	1.976690	0.132468
C21	C	0.000007	1.255556	-0.191968
C22	C	0.500007	1.755556	0.308032
C23	C	0.000006	1.116113	-0.188276
C24	C	0.500006	1.616113	0.311724
N25	N	-0.228165	1.485097	-0.184808
N26	N	0.271835	1.985097	0.315192
C27	C	0.000015	1.492263	0.044738
C28	C	0.500015	1.992263	0.544738
C29	C	0.000014	1.488571	0.184181
C30	C	0.500014	1.988571	0.684181
C31	C	-0.453884	1.569901	-0.100337
C32	C	0.046116	2.069901	0.399663
C33	C	-0.546074	1.569904	-0.100333
C34	C	-0.046074	2.069904	0.399667
C35	C	-0.546090	1.400292	-0.269261
C36	C	-0.046090	1.900292	0.230739
C37	C	-0.453902	1.400296	-0.269269
C38	C	0.046098	1.900296	0.230731
C39	C	-0.407801	1.485098	-0.184800
C40	C	0.092199	1.985098	0.315200
C41	C	-0.592179	1.485099	-0.184788
C42	C	-0.092179	1.985099	0.315212
C43	C	-0.692135	1.485102	-0.184785
C44	C	-0.192135	1.985102	0.315215
C45	C	-0.307839	1.485097	-0.184804
C46	C	0.192161	1.985097	0.315196
N47	N	0.228184	1.485100	-0.184780
N48	N	0.728184	1.985100	0.315220
C49	C	0.000011	1.714631	-0.177630
C50	C	0.500011	2.214631	0.322370
C51	C	0.000006	1.854074	-0.181322
C52	C	0.500006	2.354074	0.318678
C53	C	0.000007	1.933560	-0.068780
C54	C	0.500007	2.433560	0.431220
C55	C	0.000009	2.064580	-0.072257
C56	C	0.500009	2.564580	0.427743
C57	C	0.000008	2.036617	-0.300826
C58	C	0.500008	2.536617	0.199174
C59	C	0.000012	1.905599	-0.297349
C60	C	0.500012	2.405599	0.202651
C61	C	0.000003	1.477925	-0.414336
C62	C	0.500003	1.977925	0.085664
C63	C	-0.000002	1.481616	-0.553779
C64	C	0.499998	1.981616	-0.053779
C65	C	0.000015	1.601112	0.263667
C66	C	0.500015	2.101112	0.763667
C67	C	0.000004	1.597636	0.394688
C68	C	0.500004	2.097636	0.894688
C69	C	-0.000005	1.369066	0.366725
C70	C	0.499995	1.869066	0.866725
C71	C	-0.000001	1.372544	0.235706
C72	C	0.499999	1.872544	0.735706
H73	H	-0.416351	1.638954	-0.031558
H74	H	0.083649	2.138954	0.468442
H75	H	0.000010	2.078585	-0.395291
H76	H	0.500010	2.578585	0.104709
H77	H	0.000003	1.689279	0.459401
H78	H	0.500003	2.189279	0.959401
Cl79	Cl	0.000008	1.868790	0.077081
Cl80	Cl	0.500008	2.368790	0.577081
Cl81	Cl	-0.395963	1.293685	-0.375466
Cl82	Cl	0.104037	1.793685	0.124534
H83	H	0.000011	2.129293	0.019386
H84	H	0.500011	2.629293	0.519386
Cl85	Cl	0.000016	1.805666	-0.438841
Cl86	Cl	0.500016	2.305666	0.061159
H87	H	0.000025	1.695588	0.221720
H88	H	0.500025	2.195588	0.721720
H89	H	-0.000015	1.274601	0.408693
H90	H	0.499985	1.774601	0.908693
Cl91	Cl	-0.000010	1.231051	0.135774
Cl92	Cl	0.499990	1.731051	0.635774
H93	H	-0.583634	1.331246	-0.338032
H94	H	-0.083634	1.831246	0.161968
Cl95	Cl	-0.604003	1.676521	0.005852
Cl96	Cl	-0.104003	2.176521	0.505852
