data_functionalizedCrystal
_audit_creation_method	'MofGen! by Chris Wilmer'
_symmetry_space_group_name_H-M	'P1'
_symmetry_Int_Tables_number	1
_symmetry_cell_setting	triclinic
loop_
_symmetry_equiv_pos_as_xyz
  x,y,z
_cell_length_a	14.750488
_cell_length_b	16.109301
_cell_length_c	16.109301
_cell_angle_alpha	83.461481
_cell_angle_beta	77.358897
_cell_angle_gamma	102.645088
loop_
_atom_site_label
_atom_site_type_symbol
_atom_site_fract_x
_atom_site_fract_y
_atom_site_fract_z
O1	O	0.079774	-1.085086	-0.124900
O2	O	0.079789	-0.843020	-0.138203
O3	O	0.079771	-0.970705	-0.010518
O4	O	0.079792	-0.957401	-0.252585
O5	O	-0.079891	-1.006812	0.025578
O6	O	-0.079873	-0.879127	-0.102107
O7	O	-0.079889	-1.121193	-0.088804
Zn8	Zn	-0.105231	-1.005893	-0.089725
Zn9	Zn	0.105131	-0.958321	-0.137282
O10	O	-0.079871	-0.993508	-0.216489
C11	C	-0.000040	-0.830099	-0.119617
C12	C	-0.000035	-0.737802	-0.118003
N13	N	-0.248798	-1.038366	-0.057267
C14	C	-0.399553	-1.129027	0.033329
C15	C	-0.299046	-1.106275	0.010599
C16	C	-0.299045	-0.993179	-0.102427
C17	C	-0.399554	-1.015919	-0.079703
C18	C	-0.449800	-1.083845	-0.011825
C19	C	-0.449801	-0.970737	-0.124858
C20	C	-0.550301	-0.993479	-0.102139
C21	C	-0.600554	-1.061403	-0.034265
C22	C	-0.550300	-1.106586	0.010894
C23	C	-0.399553	-0.902816	-0.192740
C24	C	-0.449800	-0.857634	-0.237894
C25	C	-0.550302	-0.880371	-0.215171
C26	C	-0.600555	-0.948295	-0.147298
C27	C	-0.600556	-0.835187	-0.260330
C28	C	-0.701056	-0.857929	-0.237611
C29	C	-0.701055	-0.971037	-0.124579
C30	C	-0.000061	-0.988220	0.038505
C31	C	-0.000062	-0.986605	0.130800
N32	N	0.248698	-0.925854	-0.169733
C33	C	-0.000057	-1.134114	-0.107391
C34	C	-0.000057	-1.226409	-0.109006
C35	C	-0.000040	-0.515531	-0.190009
C36	C	-0.000046	-0.428812	-0.188484
C37	C	-0.000055	-0.448688	-0.036993
C38	C	-0.000055	-0.535407	-0.038518
C39	C	-0.000043	-0.568825	-0.115030
C40	C	-0.000049	-0.395387	-0.111979
C41	C	-0.000055	-0.301362	-0.110325
C42	C	-0.000038	-0.662855	-0.116684
C43	C	-0.000037	-0.975993	-0.265512
C44	C	-0.000030	-0.977606	-0.357809
C45	C	-0.000051	-1.058610	0.353070
C46	C	-0.000043	-1.057085	0.439789
C47	C	-0.000037	-0.905595	0.419913
C48	C	-0.000038	-0.907120	0.333195
C49	C	-0.000050	-0.983631	0.299777
C50	C	-0.000041	-0.980580	0.473214
C51	C	-0.000032	-0.978925	0.567238
C52	C	-0.000057	-0.985286	0.205747
H53	H	-0.741967	-1.026342	-0.069300
C54	C	-0.000056	-0.411922	0.047160
H55	H	-0.000045	-0.352640	0.037328
H56	H	-0.055734	-0.442809	0.090624
H57	H	0.055629	-0.417624	0.065436
H58	H	-0.000061	-0.578802	0.022544
C59	C	-0.000053	-1.142767	0.316310
H60	H	-0.000044	-1.187200	0.360471
H61	H	-0.055731	-1.159107	0.295486
H62	H	0.055632	-1.133913	0.270303
C63	C	-0.000034	-0.552294	-0.274164
H64	H	-0.000025	-0.611572	-0.264338
H65	H	-0.055710	-0.546593	-0.292447
H66	H	0.055653	-0.521402	-0.317625
C67	C	-0.243769	-0.918462	-0.177084
H68	H	-0.176718	-0.911384	-0.184145
H69	H	-0.260232	-0.931187	-0.228857
H70	H	-0.260249	-0.866709	-0.164296
H71	H	-0.000029	-0.843302	0.447133
H72	H	-0.000042	-1.118140	0.483177
H73	H	-0.000035	-0.846058	0.289800
H74	H	-0.591212	-1.161892	0.066173
C75	C	-0.711102	-1.086424	-0.009269
H76	H	-0.733828	-1.133352	0.037618
H77	H	-0.733850	-1.038442	0.007270
H78	H	-0.733829	-1.102932	-0.057278
H79	H	-0.000045	-0.385423	-0.249540
H80	H	-0.440465	-1.184333	0.088608
H81	H	-0.317719	-0.884305	-0.211238
H82	H	-0.408878	-0.802330	-0.293164
H83	H	-0.258140	-1.143075	0.047374
C84	C	-0.756332	-0.808200	-0.287248
H85	H	-0.712014	-0.764475	-0.330912
H86	H	-0.795548	-0.846938	-0.313014
H87	H	-0.795525	-0.782484	-0.248429
C88	C	-0.545278	-0.760477	-0.334993
H89	H	-0.478228	-0.753403	-0.342055
H90	H	-0.561744	-0.773208	-0.386763
H91	H	-0.561752	-0.708720	-0.322213
