data_functionalizedCrystal
_audit_creation_method	'MofGen! by Chris Wilmer'
_symmetry_space_group_name_H-M	'P1'
_symmetry_Int_Tables_number	1
_symmetry_cell_setting	triclinic
loop_
_symmetry_equiv_pos_as_xyz
  x,y,z
_cell_length_a	10.908878
_cell_length_b	27.731996
_cell_length_c	10.065875
_cell_angle_alpha	98.708141
_cell_angle_beta	83.443480
_cell_angle_gamma	71.353089
loop_
_atom_site_label
_atom_site_type_symbol
_atom_site_fract_x
_atom_site_fract_y
_atom_site_fract_z
O1	O	1.724330	-0.083406	-0.113441
O2	O	1.349701	-0.045599	-0.113461
O3	O	1.548681	-0.135804	-0.113421
O4	O	1.525350	0.006799	-0.113481
O5	O	1.510737	-0.118546	0.113560
O6	O	1.311757	-0.028341	0.113520
O7	O	1.686386	-0.066148	0.113540
Zn8	Zn	1.493047	-0.044505	0.149568
Zn9	Zn	1.543040	-0.067243	-0.149489
O10	O	1.487406	0.024057	0.113500
C11	C	1.282816	-0.033437	0.000028
C12	C	1.140050	-0.022914	0.000021
C13	C	1.529229	-0.145145	0.000074
C14	C	1.527782	-0.198688	0.000088
C15	C	1.091820	-0.061308	0.000037
C16	C	0.944264	-0.050434	0.000030
C17	C	1.539390	-0.540112	-0.123706
C18	C	1.533910	-0.741347	-0.123731
O19	O	1.550737	-0.775358	-0.228957
N20	N	1.512546	-0.757104	-0.000004
C21	C	1.492542	-0.722547	0.123737
O22	O	1.474232	-0.740565	0.228973
C23	C	1.498013	-0.521313	0.123759
C24	C	1.519392	-0.505560	0.000025
C25	C	1.560766	-0.524359	-0.247431
C26	C	1.562143	-0.474054	-0.247423
C27	C	1.542144	-0.439502	-0.123692
C28	C	1.520769	-0.455255	0.000032
C29	C	1.478000	-0.486756	0.247499
C30	C	1.479366	-0.436445	0.247494
C31	C	1.500745	-0.420692	0.123760
C32	C	1.502147	-0.370399	0.123771
N33	N	1.523511	-0.354642	0.000045
C34	C	1.543509	-0.389194	-0.123686
C35	C	1.489674	-0.828200	0.123716
C36	C	1.488308	-0.878508	0.123711
C37	C	1.529674	-0.897304	-0.123757
C38	C	1.531049	-0.846995	-0.123750
C39	C	1.511038	-0.812442	-0.000010
C40	C	1.546400	-0.283549	-0.123662
C41	C	1.547781	-0.233240	-0.123643
C42	C	1.506408	-0.214448	0.123824
C43	C	1.505034	-0.264754	0.123806
C44	C	1.525028	-0.299303	0.000052
O45	O	1.485316	-0.336358	0.228942
O46	O	1.561789	-0.371162	-0.228907
C47	C	1.538014	-0.590417	-0.123714
C48	C	1.516638	-0.606170	0.000011
C49	C	1.496640	-0.571618	0.123742
C50	C	1.515273	-0.656479	0.000005
C51	C	1.535271	-0.691030	-0.123726
C52	C	1.556636	-0.675273	-0.247453
C53	C	1.558012	-0.624968	-0.247445
C54	C	1.475275	-0.587376	0.247468
C55	C	1.473902	-0.637681	0.247451
C56	C	1.493900	-0.672233	0.123719
C57	C	1.753272	-0.078311	0.000049
C58	C	1.896039	-0.088834	0.000046
C59	C	1.506859	0.033398	0.000002
C60	C	1.508307	0.086940	-0.000021
N61	N	1.458938	-0.028988	0.353667
N62	N	1.577160	-0.082764	-0.353588
C63	C	1.531164	-0.061846	0.421460
C64	C	1.504923	-0.049901	0.578622
H65	H	1.159769	-0.102230	0.000048
C66	C	1.582214	-0.561856	-0.381740
C67	C	1.471938	-0.576943	-0.389027
C68	C	1.491655	-0.611478	-0.512750
H69	H	1.657512	-0.591628	-0.387019
H70	H	1.595075	-0.545270	-0.455453
H71	H	1.459093	-0.593529	-0.315335
H72	H	1.396626	-0.547182	-0.383773
H73	H	1.504515	-0.594892	-0.586462
H74	H	1.566955	-0.641247	-0.518017
H75	H	1.416832	-0.621715	-0.517716
H76	H	1.612423	-0.098822	0.363153
C77	C	0.986823	-0.143363	0.000134
C78	C	1.115121	-0.143307	0.000167
C79	C	1.198782	-0.193527	0.000265
H80	H	0.984964	-0.166451	-0.078990
H81	H	0.958411	-0.154376	0.079327
H82	H	1.143525	-0.132300	-0.079017
H83	H	1.117021	-0.120229	0.079286
H84	H	1.170371	-0.204540	0.079457
H85	H	1.196912	-0.216611	-0.078861
H86	H	1.285839	-0.193495	0.000299
C87	C	0.853566	0.004094	-0.000208
C88	C	0.795112	0.003498	-0.116974
C89	C	0.711539	0.053717	-0.117232
H90	H	0.902808	0.026819	-0.000287
H91	H	0.787263	0.015834	0.078900
H92	H	0.861404	-0.008235	-0.196062
H93	H	0.745846	-0.019217	-0.116920
H94	H	0.645237	0.065457	-0.038124
H95	H	0.760792	0.076438	-0.117307
H96	H	0.671859	0.053319	-0.196449
C97	C	1.049347	0.031611	-0.000218
C98	C	0.990893	0.031015	-0.116983
C99	C	0.907321	0.081234	-0.117241
H100	H	1.098590	0.054336	-0.000296
H101	H	0.983045	0.043351	0.078891
H102	H	1.057186	0.019282	-0.196071
H103	H	0.941628	0.008300	-0.116929
H104	H	0.841019	0.092974	-0.038133
H105	H	0.956573	0.103955	-0.117316
H106	H	0.867641	0.080836	-0.196458
C107	C	1.396362	-0.000640	0.656283
C108	C	1.275784	-0.000841	0.621674
C109	C	1.175749	0.044524	0.693202
H110	H	1.413607	0.028784	0.632980
H111	H	1.393037	0.000841	0.751594
H112	H	1.279111	-0.002317	0.526384
H113	H	1.258497	-0.030255	0.644980
H114	H	1.172424	0.046005	0.788514
H115	H	1.193007	0.073945	0.669894
H116	H	1.093924	0.044391	0.669740
C117	C	1.570944	-0.216227	-0.258133
C118	C	1.588123	-0.257252	-0.366489
C119	C	1.609443	-0.241598	-0.490395
H120	H	1.647386	-0.206725	-0.263470
H121	H	1.497289	-0.187284	-0.263356
H122	H	1.661771	-0.286186	-0.361269
H123	H	1.511694	-0.266760	-0.361198
H124	H	1.535789	-0.212655	-0.495618
H125	H	1.685884	-0.232096	-0.495718
H126	H	1.621090	-0.269430	-0.563929
C127	C	1.685181	-0.132170	0.568675
C128	C	1.630408	-0.162368	0.486841
C129	C	1.729801	-0.207915	0.415273
H130	H	1.726986	-0.151269	0.631569
H131	H	1.747947	-0.123483	0.512721
H132	H	1.567665	-0.171056	0.542791
H133	H	1.588613	-0.143285	0.423922
H134	H	1.792567	-0.199228	0.359318
H135	H	1.771599	-0.227009	0.478177
H136	H	1.692654	-0.228408	0.359731
C137	C	1.567833	-0.321047	-0.257972
C138	C	1.457541	-0.336126	-0.265233
C139	C	1.477236	-0.370665	-0.388942
H140	H	1.643122	-0.350822	-0.263247
H141	H	1.580697	-0.304467	-0.331696
H142	H	1.444693	-0.352706	-0.191529
H143	H	1.382238	-0.306362	-0.259982
H144	H	1.490100	-0.354085	-0.462666
H145	H	1.552528	-0.400437	-0.394206
H146	H	1.402402	-0.380896	-0.393890
C147	C	1.350383	0.020271	0.431333
C148	C	1.229805	0.020069	0.396724
C149	C	1.129770	0.065435	0.468252
H150	H	1.367628	0.049695	0.408030
H151	H	1.347058	0.021752	0.526644
H152	H	1.233131	0.018594	0.301433
H153	H	1.212518	-0.009345	0.420030
H154	H	1.126445	0.066916	0.563564
H155	H	1.147028	0.094856	0.444944
H156	H	1.047945	0.065302	0.444790
H157	H	1.456502	-0.650502	0.348218
C158	C	1.585292	-0.457043	-0.381909
C159	C	1.602470	-0.498071	-0.490254
C160	C	1.623775	-0.482421	-0.614169
H161	H	1.661731	-0.447538	-0.387258
H162	H	1.511632	-0.428102	-0.387131
H163	H	1.676123	-0.527003	-0.485034
H164	H	1.526044	-0.507581	-0.484950
H165	H	1.550116	-0.453480	-0.619391
H166	H	1.700213	-0.472917	-0.619503
H167	H	1.635421	-0.510255	-0.687695
C168	C	1.554001	-0.829801	-0.258000
C169	C	1.445291	-0.787127	-0.265210
C170	C	1.466379	-0.771273	-0.388862
H171	H	1.565660	-0.857535	-0.331787
H172	H	1.630385	-0.820249	-0.263187
H173	H	1.368929	-0.796680	-0.260037
H174	H	1.433614	-0.759383	-0.191452
H175	H	1.542763	-0.761722	-0.394049
H176	H	1.478040	-0.799011	-0.462639
H177	H	1.392630	-0.742315	-0.393766
C178	C	1.551650	-0.934833	-0.258140
C179	C	1.675165	-0.942622	-0.332790
C180	C	1.695448	-0.977196	-0.456574
H181	H	1.485445	-0.920775	-0.309135
H182	H	1.547850	-0.967068	-0.240469
H183	H	1.678954	-0.910394	-0.350465
H184	H	1.741395	-0.956687	-0.281836
H185	H	1.691648	-1.009431	-0.438903
H186	H	1.629236	-0.963134	-0.507557
H187	H	1.779259	-0.982489	-0.507234
C188	C	1.465025	-0.895503	0.258195
C189	C	1.447769	-0.854466	0.366545
C190	C	1.426292	-0.870097	0.490456
H191	H	1.538609	-0.924441	0.263545
H192	H	1.388555	-0.904997	0.263410
H193	H	1.524231	-0.844979	0.361333
H194	H	1.374183	-0.825524	0.361240
H195	H	1.349822	-0.879591	0.495670
H196	H	1.499879	-0.899035	0.495791
H197	H	1.414568	-0.842254	0.563986
C198	C	1.467702	-0.790635	0.258034
C199	C	1.356558	-0.746868	0.265306
C200	C	1.336275	-0.712260	0.389028
H201	H	1.542299	-0.780278	0.263323
H202	H	1.454713	-0.807204	0.331747
H203	H	1.369555	-0.730301	0.191614
H204	H	1.281939	-0.757209	0.260041
H205	H	1.323286	-0.728829	0.462740
H206	H	1.410879	-0.701907	0.394306
H207	H	1.260856	-0.682563	0.393984
C208	C	1.454690	-0.503742	0.381986
C209	C	1.437428	-0.462701	0.490328
C210	C	1.415930	-0.478324	0.614245
H211	H	1.528267	-0.532680	0.387352
H212	H	1.378217	-0.513234	0.387196
H213	H	1.513893	-0.453216	0.485121
H214	H	1.363849	-0.433759	0.485008
H215	H	1.339456	-0.487816	0.619454
H216	H	1.489510	-0.507263	0.619596
H217	H	1.404202	-0.450480	0.687769
H218	H	1.463052	-0.408310	0.348260
C219	C	1.481747	-0.281755	0.258286
C220	C	1.464503	-0.240722	0.366645
C221	C	1.443017	-0.256356	0.490549
H222	H	1.555324	-0.310696	0.263631
H223	H	1.405270	-0.291244	0.263496
H224	H	1.540972	-0.231240	0.361438
H225	H	1.390924	-0.211777	0.361346
H226	H	1.366539	-0.265845	0.495759
H227	H	1.516597	-0.285298	0.495879
H228	H	1.431302	-0.228517	0.564085
H229	H	1.490131	-0.186308	0.224563
H230	H	1.575420	-0.612148	-0.348202
H231	H	1.572925	-0.703415	-0.348199
H232	H	1.458992	-0.559248	0.348228
