data_functionalizedCrystal
_audit_creation_method	'MofGen! by Chris Wilmer'
_symmetry_space_group_name_H-M	'P1'
_symmetry_Int_Tables_number	1
_symmetry_cell_setting	triclinic
loop_
_symmetry_equiv_pos_as_xyz
  x,y,z
_cell_length_a	14.519709
_cell_length_b	14.519709
_cell_length_c	13.596369
_cell_angle_alpha	89.999709
_cell_angle_beta	89.993066
_cell_angle_gamma	96.319855
loop_
_atom_site_label
_atom_site_type_symbol
_atom_site_fract_x
_atom_site_fract_y
_atom_site_fract_z
O1	O	0.120893	-1.223868	-0.081665
O2	O	0.620893	-0.723868	0.418335
O3	O	0.135129	-0.955392	-0.081696
O4	O	0.635129	-0.455392	0.418304
O5	O	-0.006227	-1.096748	-0.081671
O6	O	0.493773	-0.596748	0.418329
O7	O	0.262249	-1.082512	-0.081690
O8	O	0.762249	-0.582512	0.418310
O9	O	-0.006235	-1.096734	0.081912
O10	O	0.493765	-0.596734	0.581912
O11	O	0.135122	-0.955377	0.081887
O12	O	0.635122	-0.455377	0.581887
O13	O	0.120885	-1.223854	0.081917
O14	O	0.620885	-0.723854	0.581917
Zn15	Zn	0.128002	-1.089614	0.107875
Zn16	Zn	0.628002	-0.589614	0.607875
Zn17	Zn	0.128012	-1.089632	-0.107653
Zn18	Zn	0.628012	-0.589632	0.392347
O19	O	0.262242	-1.082498	0.081893
O20	O	0.762242	-0.582498	0.581893
C21	C	0.134462	-0.921025	0.000092
C22	C	0.634462	-0.421025	0.500092
C23	C	0.132474	-0.818643	0.000081
C24	C	0.632474	-0.318643	0.500081
C25	C	-0.040591	-1.096078	0.000121
C26	C	0.459409	-0.596078	0.500121
C27	C	-0.142972	-1.094090	0.000121
C28	C	0.357028	-0.594090	0.500121
N29	N	0.127995	-1.089608	0.254966
N30	N	0.627995	-0.589608	0.754966
C31	C	-0.517868	-1.086770	0.000095
C32	C	-0.017868	-0.586770	0.500095
C33	C	-0.413560	-1.088803	0.000102
C34	C	0.086440	-0.588803	0.500102
C35	C	-0.330423	-1.090430	0.000109
C36	C	0.169577	-0.590430	0.500109
C37	C	-0.226109	-1.092463	0.000114
C38	C	0.273891	-0.592463	0.500114
C39	C	0.296605	-1.083168	0.000099
C40	C	0.796605	-0.583168	0.500099
C41	C	0.398987	-1.085156	0.000092
C42	C	0.898987	-0.585156	0.500092
C43	C	0.121553	-1.258221	0.000128
C44	C	0.621553	-0.758221	0.500128
C45	C	0.123541	-1.360602	0.000132
C46	C	0.623541	-0.860602	0.500132
C47	C	0.125154	-0.443748	0.000126
C48	C	0.625154	0.056252	0.500126
C49	C	0.127187	-0.548056	0.000113
C50	C	0.627187	-0.048056	0.500113
C51	C	0.128814	-0.631192	0.000102
C52	C	0.628814	-0.131192	0.500102
C53	C	0.130847	-0.735507	0.000091
C54	C	0.630847	-0.235507	0.500091
N55	N	0.128012	-1.089645	-0.254745
N56	N	0.628012	-0.589645	0.245255
C57	C	0.128013	-1.089631	0.656257
C58	C	0.628013	-0.589631	1.156257
C59	C	0.128011	-1.089622	0.544606
C60	C	0.628011	-0.589622	1.044606
C61	C	0.128005	-1.089620	0.455615
C62	C	0.628005	-0.589620	0.955615
C63	C	0.128001	-1.089610	0.343957
C64	C	0.628001	-0.589610	0.843957
