data_functionalizedCrystal
_audit_creation_method	'MofGen! by Chris Wilmer'
_symmetry_space_group_name_H-M	'P1'
_symmetry_Int_Tables_number	1
_symmetry_cell_setting	triclinic
loop_
_symmetry_equiv_pos_as_xyz
  x,y,z
_cell_length_a	9.065218
_cell_length_b	12.837942
_cell_length_c	8.140239
_cell_angle_alpha	89.996939
_cell_angle_beta	89.997198
_cell_angle_gamma	89.922413
loop_
_atom_site_label
_atom_site_type_symbol
_atom_site_fract_x
_atom_site_fract_y
_atom_site_fract_z
O1	O	1.978903	0.152196	-0.136617
O2	O	1.551136	0.164680	-0.136619
O3	O	1.755534	0.007446	-0.136608
O4	O	1.774505	0.309430	-0.136628
O5	O	1.755521	0.007444	0.136619
O6	O	1.551123	0.164678	0.136608
O7	O	1.978890	0.152194	0.136610
Zn8	Zn	1.765005	0.158436	0.179990
Zn9	Zn	1.765021	0.158439	-0.179999
O10	O	1.774492	0.309428	0.136599
C11	C	1.495997	0.163479	-0.000006
C12	C	1.331718	0.159892	-0.000007
C13	C	1.749119	-0.031235	0.000004
C14	C	1.730006	-0.146492	0.000002
C15	C	1.959783	-0.385293	-0.000031
C16	C	1.941831	-0.493587	-0.000034
C17	C	1.676152	-0.471377	-0.000019
C18	C	1.694104	-0.363083	-0.000016
C19	C	1.835924	-0.320045	-0.000020
C20	C	1.853874	-0.211748	-0.000005
C21	C	1.588196	-0.189540	-0.000001
C22	C	1.570245	-0.297835	-0.000004
C23	C	2.034029	0.153395	-0.000007
C24	C	2.198308	0.156983	-0.000017
C25	C	1.780907	0.348110	-0.000017
C26	C	1.800020	0.463366	-0.000025
N27	N	1.765004	0.158434	0.425672
N28	N	1.765033	0.158433	-0.425681
H29	H	1.969351	-0.176709	-0.000002
O30	O	1.467913	-0.126116	-0.000285
C31	C	1.334029	0.009092	-0.141763
C32	C	1.470290	-0.062691	-0.141673
H33	H	1.335922	0.060405	-0.256045
H34	H	1.229542	-0.040227	-0.141867
H35	H	1.335801	0.060291	-0.027360
H36	H	1.468661	-0.113903	-0.256056
H37	H	1.574717	-0.013310	-0.141484
H38	H	1.454779	-0.332891	-0.000007
O39	O	1.538372	-0.513150	-0.000322
C40	C	1.305792	-0.527261	-0.141842
C41	C	1.461795	-0.479902	-0.141716
H42	H	1.243824	-0.500381	-0.256129
H43	H	1.314167	-0.615874	-0.141965
H44	H	1.243857	-0.500530	-0.027444
H45	H	1.523817	-0.506552	-0.256094
H46	H	1.453315	-0.391294	-0.141508
O47	O	2.097433	-0.343308	0.000046
C48	C	2.242828	-0.186315	-0.000045
C49	C	2.086855	-0.233723	-0.000095
H50	H	2.234329	-0.097709	-0.000194
H51	H	2.304831	-0.213011	0.114329
H52	H	2.304804	-0.213140	-0.114361
H53	H	2.024756	-0.206920	0.114144
H54	H	2.024965	-0.207030	-0.114545
O55	O	2.062034	-0.557076	0.000177
C56	C	2.196006	-0.692196	0.141761
C57	C	2.059790	-0.620372	0.141712
H58	H	2.194253	-0.743373	0.256197
H59	H	2.194252	-0.743517	0.027491
H60	H	2.300425	-0.642807	0.141676
H61	H	1.955300	-0.669678	0.141855
H62	H	2.061675	-0.569045	0.255972
