data_functionalizedCrystal
_audit_creation_method	'MofGen! by Chris Wilmer'
_symmetry_space_group_name_H-M	'P1'
_symmetry_Int_Tables_number	1
_symmetry_cell_setting	triclinic
loop_
_symmetry_equiv_pos_as_xyz
  x,y,z
_cell_length_a	10.686220
_cell_length_b	12.827892
_cell_length_c	10.686551
_cell_angle_alpha	94.405267
_cell_angle_beta	89.691918
_cell_angle_gamma	94.396991
loop_
_atom_site_label
_atom_site_type_symbol
_atom_site_fract_x
_atom_site_fract_y
_atom_site_fract_z
Zn1	Zn	1.972285	-0.254771	0.562388
Zn2	Zn	1.956055	-0.443915	0.352631
Zn3	Zn	1.746404	-0.281503	0.368706
Zn4	Zn	1.762485	-0.441797	0.578409
O5	O	1.859307	-0.355497	0.465534
O6	O	2.145674	-0.269560	0.521132
O7	O	1.914721	-0.434445	0.179218
O8	O	1.776430	-0.131715	0.394421
O9	O	2.133750	-0.408523	0.367024
O10	O	1.942384	-0.112075	0.536718
O11	O	1.760692	-0.315121	0.191028
O12	O	1.572995	-0.313068	0.409956
O13	O	1.803838	-0.404914	0.751829
O14	O	1.584810	-0.430835	0.564023
O15	O	1.957978	-0.267506	0.740059
O16	O	1.930314	-0.589876	0.382559
O17	O	1.788100	-0.588320	0.548436
C18	C	1.533386	-0.374623	0.490473
C19	C	1.393958	-0.382829	0.501172
C20	C	1.859227	-0.627013	0.465516
C21	C	1.859311	-0.743159	0.465542
C22	C	1.941401	-0.785139	0.536027
C23	C	1.941490	-0.905182	0.536055
C24	C	2.186501	-0.336296	0.440498
C25	C	2.325931	-0.328114	0.429829
C26	C	1.884512	-0.332992	0.792734
C27	C	1.895253	-0.323402	0.932167
C28	C	1.859424	-0.082916	0.465576
C29	C	1.859474	0.033241	0.465594
C30	C	1.834272	-0.377834	0.139601
C31	C	1.823775	-0.387115	0.000150
H32	H	1.345526	-0.435960	0.570434
H33	H	1.374357	-0.274993	0.360563
Br34	Br	2.058423	-0.696928	0.636595
Br35	Br	2.058647	-0.965408	0.636628
Br36	Br	1.742333	-0.906540	0.364995
H37	H	1.789090	-0.796089	0.405225
Br38	Br	1.708086	-0.490272	0.919373
H39	H	1.964675	-0.261517	0.980640
