data_functionalizedCrystal
_audit_creation_method	'MofGen! by Chris Wilmer'
_symmetry_space_group_name_H-M	'P1'
_symmetry_Int_Tables_number	1
_symmetry_cell_setting	triclinic
loop_
_symmetry_equiv_pos_as_xyz
  x,y,z
_cell_length_a	16.625548
_cell_length_b	16.625548
_cell_length_c	21.395361
_cell_angle_alpha	89.983559
_cell_angle_beta	89.968224
_cell_angle_gamma	90.008236
loop_
_atom_site_label
_atom_site_type_symbol
_atom_site_fract_x
_atom_site_fract_y
_atom_site_fract_z
Zn1	Zn	1.232536	0.455880	0.249525
Zn2	Zn	1.232449	0.321036	0.354275
Zn3	Zn	1.097727	0.321061	0.249517
Zn4	Zn	1.097649	0.455825	0.354270
O5	O	1.165090	0.388451	0.301897
O6	O	1.345357	0.438005	0.263425
O7	O	1.214574	0.208207	0.340378
O8	O	1.115679	0.338979	0.161840
O9	O	1.345293	0.338935	0.340385
O10	O	1.214722	0.438030	0.161846
O11	O	1.115594	0.208225	0.263413
O12	O	0.984884	0.338925	0.263408
O13	O	1.115546	0.568665	0.340377
O14	O	0.984827	0.437936	0.340370
O15	O	1.214647	0.568705	0.263420
O16	O	1.214498	0.338882	0.441952
O17	O	1.115461	0.437912	0.441949
C18	C	0.955599	0.388428	0.301888
C19	C	0.865978	0.388437	0.301899
C20	C	0.537803	0.388472	0.301903
C21	C	0.629111	0.388460	0.301900
C22	C	0.701888	0.388454	0.301902
C23	C	0.793202	0.388443	0.301898
C24	C	1.165097	0.598759	0.301899
C25	C	1.165100	0.688380	0.301899
C26	C	1.165067	1.016556	0.301905
C27	C	1.165074	0.925248	0.301905
C28	C	1.165084	0.852471	0.301903
C29	C	1.165090	0.761157	0.301902
C30	C	1.375399	0.388474	0.301906
C31	C	1.465020	0.388483	0.301910
C32	C	1.164984	0.388406	0.464685
C33	C	1.165012	0.388413	0.534326
C34	C	1.165075	1.178960	0.301908
C35	C	1.165067	1.089339	0.301903
C36	C	1.165219	0.388513	0.138474
C37	C	1.165274	0.388540	0.068832
C38	C	1.216626	0.336902	0.567020
C39	C	1.216664	0.336920	0.632455
C40	C	1.165073	0.388441	0.665194
C41	C	1.113455	0.439963	0.632492
C42	C	1.113424	0.439949	0.567058
C43	C	1.092471	0.394760	0.768911
C44	C	1.092500	0.394768	0.834344
C45	C	1.165167	0.388488	0.867015
C46	C	1.237806	0.382184	0.834245
C47	C	1.237776	0.382170	0.768811
C48	C	1.165100	0.388462	0.736146
C49	C	1.216826	0.336993	0.970662
C50	C	1.216865	0.337017	1.036098
C51	C	1.113648	0.440056	1.036133
C52	C	1.113617	0.440037	0.970698
C53	C	1.165204	0.388501	0.937966
H54	H	1.258634	0.294940	0.540371
C55	C	1.056645	0.496610	0.531090
H56	H	1.064019	0.489225	0.487431
H57	H	1.002484	0.484767	0.541857
H58	H	1.068417	0.550802	0.541784
C59	C	1.273435	0.280248	0.668427
H60	H	1.304150	0.249550	0.639561
H61	H	1.308556	0.311122	0.693920
H62	H	1.242616	0.245095	0.693983
C63	C	1.056830	0.496690	0.934733
H64	H	1.026104	0.527373	0.963601
H65	H	1.087631	0.531845	0.909170
H66	H	1.021709	0.465800	0.909245
C67	C	1.317671	0.375248	0.732763
H68	H	1.307242	0.376136	0.689115
H69	H	1.351556	0.419145	0.743447
H70	H	1.343500	0.326184	0.743482
C71	C	1.317745	0.375283	0.870174
H72	H	1.307363	0.376204	0.913837
H73	H	1.343564	0.326219	0.859453
H74	H	1.351617	0.419181	0.859406
H75	H	1.258834	0.295032	0.944010
C76	C	1.056705	0.496633	0.668502
H77	H	1.064109	0.489258	0.712155
H78	H	1.068457	0.550817	0.657752
H79	H	1.002531	0.484776	0.657819
H80	H	1.258900	0.295071	1.062717
H81	H	1.033292	0.399876	0.742316
C82	C	1.056903	0.496733	1.072138
H83	H	1.064311	0.489362	1.115791
H84	H	1.068657	0.550915	1.061385
H85	H	1.002728	0.484877	1.061459
C86	C	1.012604	0.401709	0.870387
H87	H	1.023027	0.400810	0.914036
H88	H	0.986787	0.450774	0.859664
H89	H	0.978709	0.357814	0.859704
