data_functionalizedCrystal
_audit_creation_method	'MofGen! by Chris Wilmer'
_symmetry_space_group_name_H-M	'P1'
_symmetry_Int_Tables_number	1
_symmetry_cell_setting	triclinic
loop_
_symmetry_equiv_pos_as_xyz
  x,y,z
_cell_length_a	16.992694
_cell_length_b	16.992696
_cell_length_c	26.210047
_cell_angle_alpha	90.026770
_cell_angle_beta	90.014337
_cell_angle_gamma	90.668339
loop_
_atom_site_label
_atom_site_type_symbol
_atom_site_fract_x
_atom_site_fract_y
_atom_site_fract_z
O1	O	-1.050869	-0.166933	-0.042380
O2	O	-0.550869	0.333067	0.457620
O3	O	-0.822469	-0.165101	-0.042395
O4	O	-0.322469	0.334899	0.457605
O5	O	-0.935753	-0.051817	-0.042374
O6	O	-0.435753	0.448183	0.457626
O7	O	-0.937585	-0.280217	-0.042402
O8	O	-0.437585	0.219783	0.457598
O9	O	-0.935706	-0.051780	0.042484
O10	O	-0.435706	0.448220	0.542484
O11	O	-0.822422	-0.165065	0.042463
O12	O	-0.322422	0.334935	0.542463
O13	O	-1.050822	-0.166896	0.042478
O14	O	-0.550822	0.333104	0.542478
Cu15	Cu	-0.936618	-0.165977	0.050219
Cu16	Cu	-0.436618	0.334023	0.550219
Cu17	Cu	-0.936673	-0.166020	-0.050136
Cu18	Cu	-0.436673	0.333980	0.449864
O19	O	-0.937538	-0.280180	0.042456
O20	O	-0.437538	0.219820	0.542456
C21	C	-0.793085	-0.162727	0.000032
C22	C	-0.293085	0.337273	0.500032
C23	C	-0.705601	-0.155699	0.000027
C24	C	-0.205601	0.344301	0.500027
C25	C	-0.933374	-0.022439	0.000058
C26	C	-0.433374	0.477561	0.500058
C27	C	-0.926345	0.065046	0.000065
C28	C	-0.426345	0.565046	0.500065
C29	C	-1.080206	-0.169270	0.000049
C30	C	-0.580206	0.330730	0.500049
C31	C	-1.167690	-0.176299	0.000051
C32	C	-0.667690	0.323701	0.500051
N33	N	-0.936585	-0.165946	0.120803
N34	N	-0.436585	0.334054	0.620803
C35	C	-0.659610	-0.223517	0.000019
C36	C	-0.159610	0.276483	0.500019
C37	C	-0.577409	-0.216908	0.000027
C38	C	-0.077409	0.283092	0.500027
C39	C	-0.541201	-0.142480	0.000039
C40	C	-0.041201	0.357520	0.500039
C41	C	-0.587198	-0.074657	0.000049
C42	C	-0.087198	0.425343	0.500049
C43	C	-0.669397	-0.081267	0.000045
C44	C	-0.169397	0.418733	0.500045
C45	C	-0.295886	-0.115086	0.000056
C46	C	0.204114	0.384914	0.500056
C47	C	-0.213681	-0.108481	0.000059
C48	C	0.286319	0.391519	0.500059
C49	C	-0.203898	-0.250732	0.000038
C50	C	0.296102	0.249268	0.500038
C51	C	-0.286100	-0.257335	0.000031
C52	C	0.213900	0.242665	0.500031
C53	C	-0.332089	-0.189512	0.000043
C54	C	0.167911	0.310488	0.500043
N55	N	-0.457179	-0.135723	0.000046
N56	N	0.042821	0.364277	0.500046
N57	N	-0.416110	-0.196270	0.000040
N58	N	0.083890	0.303730	0.500040
C59	C	-0.994163	0.111037	0.000074
C60	C	-0.494163	0.611037	0.500074
C61	C	-0.987554	0.193238	0.000076
C62	C	-0.487554	0.693238	0.500076
C63	C	-0.913126	0.229446	0.000073
C64	C	-0.413126	0.729446	0.500073
C65	C	-0.845303	0.183449	0.000062
C66	C	-0.345303	0.683449	0.500062
C67	C	-0.851913	0.101250	0.000056
C68	C	-0.351913	0.601250	0.500056
C69	C	-0.885731	0.474760	0.000085
C70	C	-0.385731	0.974760	0.500085
C71	C	-0.879126	0.556966	0.000093
C72	C	-0.379126	1.056966	0.500093
C73	C	-1.021378	0.566749	0.000106
C74	C	-0.521378	1.066749	0.500106
C75	C	-1.027981	0.484547	0.000103
C76	C	-0.527981	0.984547	0.500103
C77	C	-0.960158	0.438558	0.000090
C78	C	-0.460158	0.938558	0.500090
N79	N	-0.906369	0.313468	0.000076
N80	N	-0.406369	0.813468	0.500076
N81	N	-0.966916	0.354537	0.000083
N82	N	-0.466916	0.854537	0.500083
C83	C	-0.939917	0.690441	0.000046
C84	C	-0.439917	1.190441	0.500046
C85	C	-0.946944	0.602956	0.000102
C86	C	-0.446944	1.102956	0.500102
N87	N	-0.936712	-0.166045	-0.120720
N88	N	-0.436712	0.333955	0.379280
C89	C	-0.885925	-0.115220	0.526783
C90	C	-0.385925	0.384780	1.026783
C91	C	-0.885889	-0.115198	0.313124
C92	C	-0.385889	0.384802	0.813124
O93	O	-0.842763	-0.072003	0.285517
O94	O	-0.342763	0.427997	0.785517
N95	N	-0.936616	-0.165959	0.286386
N96	N	-0.436616	0.334041	0.786386
C97	C	-0.987359	-0.216726	0.313066
C98	C	-0.487359	0.283274	0.813066
O99	O	-1.030510	-0.259895	0.285421
O100	O	-0.530510	0.240105	0.785421
C101	C	-0.987398	-0.216743	0.526724
C102	C	-0.487398	0.283257	1.026724
C103	C	-0.936662	-0.165985	0.553459
C104	C	-0.436662	0.334015	1.053459
C105	C	-0.835194	-0.064465	0.553518
C106	C	-0.335194	0.435535	1.053518
C107	C	-0.835201	-0.064474	0.606930
C108	C	-0.335201	0.435526	1.106930
C109	C	-0.885938	-0.115239	0.633606
C110	C	-0.385938	0.384761	1.133606
C111	C	-0.936669	-0.165994	0.606870
C112	C	-0.436669	0.334006	1.106870
C113	C	-1.038144	-0.267505	0.553403
C114	C	-0.538144	0.232495	1.053403
C115	C	-1.038151	-0.267504	0.606820
C116	C	-0.538151	0.232496	1.106820
C117	C	-0.987415	-0.216745	0.633556
C118	C	-0.487415	0.283255	1.133556
C119	C	-0.987413	-0.216767	0.686958
C120	C	-0.487413	0.283233	1.186958
N121	N	-0.936686	-0.166006	0.713696
N122	N	-0.436686	0.333994	1.213696
C123	C	-0.885949	-0.115242	0.687020
C124	C	-0.385949	0.384758	1.187020
C125	C	-0.987333	-0.216714	0.200893
C126	C	-0.487333	0.283286	0.700893
C127	C	-0.987322	-0.216711	0.147479
C128	C	-0.487322	0.283289	0.647479
C129	C	-0.885854	-0.115182	0.147540
C130	C	-0.385854	0.384818	0.647540
C131	C	-0.885861	-0.115190	0.200956
C132	C	-0.385861	0.384810	0.700956
C133	C	-0.936606	-0.165953	0.227631
C134	C	-0.436606	0.334047	0.727631
C135	C	-0.885966	-0.115265	0.799188
C136	C	-0.385966	0.384735	1.299188
C137	C	-0.885974	-0.115281	0.852604
C138	C	-0.385974	0.384719	1.352604
C139	C	-0.987446	-0.216806	0.852537
C140	C	-0.487446	0.283194	1.352537
C141	C	-0.987435	-0.216794	0.799126
C142	C	-0.487435	0.283206	1.299126
C143	C	-0.936692	-0.166017	0.772452
C144	C	-0.436692	0.333983	1.272452
O145	O	-1.030522	-0.259934	0.714599
O146	O	-0.530522	0.240066	1.214599
O147	O	-0.842816	-0.072067	0.714674
O148	O	-0.342816	0.427933	1.214674
C149	C	-0.885918	-0.115211	0.473371
C150	C	-0.385918	0.384789	0.973371
C151	C	-0.936649	-0.165966	0.446636
C152	C	-0.436649	0.334034	0.946636
C153	C	-0.987387	-0.216731	0.473312
C154	C	-0.487387	0.283269	0.973312
C155	C	-0.936639	-0.165963	0.393222
C156	C	-0.436639	0.334037	0.893222
C157	C	-0.885901	-0.115199	0.366546
C158	C	-0.385901	0.384801	0.866546
C159	C	-0.835175	-0.064438	0.393284
C160	C	-0.335175	0.435562	0.893284
C161	C	-0.835181	-0.064447	0.446695
C162	C	-0.335181	0.435553	0.946695
C163	C	-1.038113	-0.267492	0.446574
C164	C	-0.538113	0.232508	0.946574
C165	C	-1.038102	-0.267479	0.393163
C166	C	-0.538102	0.232521	0.893163
C167	C	-0.987365	-0.216715	0.366487
C168	C	-0.487365	0.283285	0.866487
H169	H	-0.689084	-0.284124	0.000009
H170	H	-0.189084	0.215876	0.500009
Cl171	Cl	-0.168163	-0.014908	0.000086
Cl172	Cl	0.331837	0.485092	0.500086
H173	H	-0.796688	0.063805	0.000049
H174	H	-0.296688	0.563805	0.500049
H175	H	-1.079432	-0.308830	0.468288
H176	H	-0.579432	0.191170	0.968288
H177	H	-0.333322	-0.059859	0.000067
H178	H	0.166678	0.440141	0.500067
H179	H	-0.844656	-0.073947	0.874369
H180	H	-0.344656	0.426053	1.374369
H181	H	-0.830504	0.437325	0.000075
H182	H	-0.330504	0.937325	0.500075
H183	H	-1.028658	-0.258054	0.222607
H184	H	-0.528658	0.241946	0.722607
Cl185	Cl	-0.519595	-0.302169	0.000014
Cl186	Cl	-0.019595	0.197831	0.500014
Cl187	Cl	-1.101914	-0.331336	0.519806
Cl188	Cl	-0.601914	0.168664	1.019806
Cl189	Cl	-0.541678	0.018910	0.000067
Cl190	Cl	-0.041678	0.518910	0.500067
Cl191	Cl	-0.331613	-0.350905	0.000012
Cl192	Cl	0.168387	0.149095	0.500012
Cl193	Cl	-1.101952	-0.331322	0.640352
Cl194	Cl	-0.601952	0.168678	1.140352
Cl195	Cl	-0.146079	-0.335990	0.000025
Cl196	Cl	0.353921	0.164010	0.500025
H197	H	-0.844646	-0.073918	0.777477
H198	H	-0.344646	0.426082	1.277477
H199	H	-0.793877	-0.023123	0.531804
H200	H	-0.293877	0.476877	1.031804
Cl201	Cl	-1.051227	-0.280595	0.765515
Cl202	Cl	-0.551227	0.219405	1.265515
H203	H	-0.706842	-0.026042	0.000051
H204	H	-0.206842	0.473958	0.500051
H205	H	-0.793867	-0.023114	0.468458
H206	H	-0.293867	0.476886	0.968458
H207	H	-0.793889	-0.023139	0.628693
H208	H	-0.293889	0.476861	1.128693
Cl209	Cl	-1.087734	0.065526	0.000084
Cl210	Cl	-0.587734	0.565526	0.500084
Cl211	Cl	-0.785553	0.602483	0.000091
Cl212	Cl	-0.285553	1.102483	0.500091
H213	H	-1.042778	0.230680	0.000084
H214	H	-0.542778	0.730680	0.500084
Cl215	Cl	-1.121551	0.439035	0.000091
Cl216	Cl	-0.621551	0.939035	0.500091
H217	H	-1.076595	0.604202	0.000116
H218	H	-0.576595	1.104202	0.500116
Cl219	Cl	-1.051223	-0.280625	0.886083
Cl220	Cl	-0.551223	0.219375	1.386083
H221	H	-0.784702	0.212936	0.000056
H222	H	-0.284702	0.712936	0.500056
Cl223	Cl	-0.822079	-0.051375	0.234560
Cl224	Cl	-0.322079	0.448625	0.734560
H225	H	-0.844539	-0.073850	0.125812
H226	H	-0.344539	0.426150	0.625812
Cl227	Cl	-1.051092	-0.280540	0.113875
Cl228	Cl	-0.551092	0.219460	0.613875
H229	H	-0.793859	-0.023107	0.371555
H230	H	-0.293859	0.476893	0.871555
Cl231	Cl	-1.101881	-0.331306	0.359559
Cl232	Cl	-0.601881	0.168694	0.859559
