data_functionalizedCrystal
_audit_creation_method	'MofGen! by Chris Wilmer'
_symmetry_space_group_name_H-M	'P1'
_symmetry_Int_Tables_number	1
_symmetry_cell_setting	triclinic
loop_
_symmetry_equiv_pos_as_xyz
  x,y,z
_cell_length_a	14.519731
_cell_length_b	14.519709
_cell_length_c	9.482900
_cell_angle_alpha	99.350820
_cell_angle_beta	80.692239
_cell_angle_gamma	83.684499
loop_
_atom_site_label
_atom_site_type_symbol
_atom_site_fract_x
_atom_site_fract_y
_atom_site_fract_z
O1	O	1.238206	0.106569	-0.120901
O2	O	1.571539	0.439902	0.212432
O3	O	1.904873	0.773236	0.545766
O4	O	0.969732	0.120785	-0.120904
O5	O	1.303065	0.454118	0.212430
O6	O	1.636399	0.787451	0.545763
O7	O	1.111086	-0.020559	-0.120889
O8	O	1.444419	0.312774	0.212444
O9	O	1.777752	0.646107	0.545778
O10	O	1.096852	0.247913	-0.120915
O11	O	1.430186	0.581247	0.212418
O12	O	1.763519	0.914580	0.545751
O13	O	1.082374	0.008266	0.120900
O14	O	1.415707	0.341599	0.454234
O15	O	1.749040	0.674933	0.787567
O16	O	0.941020	0.149610	0.120886
O17	O	1.274353	0.482944	0.454219
O18	O	1.607687	0.816277	0.787553
O19	O	1.209494	0.135395	0.120889
O20	O	1.542827	0.468728	0.454222
O21	O	1.876161	0.802061	0.787555
Cu22	Cu	1.072635	0.145135	0.142965
Cu23	Cu	1.405969	0.478468	0.476298
Cu24	Cu	1.739302	0.811801	0.809631
Cu25	Cu	1.106591	0.111045	-0.142980
Cu26	Cu	1.439924	0.444378	0.190354
Cu27	Cu	1.773257	0.777712	0.523687
O28	O	1.068140	0.276739	0.120874
O29	O	1.401474	0.610072	0.454207
O30	O	1.734807	0.943406	0.787541
C31	C	0.921017	0.134531	-0.000009
C32	C	1.254350	0.467865	0.333324
C33	C	1.587683	0.801198	0.666658
C34	C	0.818637	0.132535	-0.000010
C35	C	1.151970	0.465869	0.333324
C36	C	1.485303	0.799202	0.666657
C37	C	1.096066	-0.040506	0.000006
C38	C	1.429399	0.292827	0.333339
C39	C	1.762733	0.626160	0.666673
C40	C	1.094078	-0.142888	0.000007
C41	C	1.427411	0.190446	0.333340
C42	C	1.760745	0.523779	0.666673
C43	C	0.735493	0.130913	-0.000015
C44	C	1.068826	0.464246	0.333318
C45	C	1.402160	0.797579	0.666651
C46	C	0.631184	0.128886	-0.000016
C47	C	0.964518	0.462219	0.333318
C48	C	1.297851	0.795553	0.666651
C49	C	0.548045	0.127278	-0.000015
C50	C	0.881379	0.460611	0.333318
C51	C	1.214712	0.793944	0.666651
C52	C	0.443730	0.125251	-0.000018
C53	C	0.777064	0.458584	0.333315
C54	C	1.110397	0.791918	0.666648
C55	C	1.086763	-0.517789	-0.000031
C56	C	1.420096	-0.184455	0.333302
C57	C	1.753430	0.148878	0.666635
C58	C	1.088794	-0.413479	-0.000020
C59	C	1.422128	-0.080146	0.333313
C60	C	1.755461	0.253187	0.666646
C61	C	1.090420	-0.330341	-0.000011
C62	C	1.423753	0.002992	0.333322
C63	C	1.757087	0.336325	0.666656
C64	C	1.092452	-0.226026	-0.000003
C65	C	1.425785	0.107308	0.333331
C66	C	1.759119	0.440641	0.666664
C67	C	1.258210	0.121648	-0.000009
C68	C	1.591543	0.454981	0.333324
C69	C	1.924876	0.788314	0.666657
C70	C	1.360591	0.123643	-0.000018
C71	C	1.693924	0.456976	0.333315
C72	C	2.027258	0.790309	0.666648
C73	C	1.083160	0.296685	-0.000024
C74	C	1.416494	0.630019	0.333309
C75	C	1.749827	0.963352	0.666643
C76	C	1.085150	0.399066	-0.000034
C77	C	1.418483	0.732399	0.333299
C78	C	1.751816	1.065732	0.666632
N79	N	1.048760	0.169111	0.344082
N80	N	1.382093	0.502444	0.677416
N81	N	1.715427	0.835777	1.010749
N82	N	1.130473	0.087061	-0.344097
N83	N	1.463807	0.420395	-0.010764
N84	N	1.797140	0.753728	0.322569
C85	C	1.099542	0.118112	0.416287
C86	C	1.432875	0.451445	0.749620
C87	C	1.766209	0.784779	1.082953
C88	C	1.079684	0.138068	0.583702
C89	C	1.413017	0.471401	0.917035
C90	C	1.746351	0.804734	1.250369
H91	H	1.157717	0.059672	0.354165
H92	H	1.491050	0.393006	0.687498
H93	H	1.824384	0.726339	1.020831
Br94	Br	0.982702	0.235465	0.687228
Br95	Br	1.316036	0.568798	1.020561
Br96	Br	1.649369	0.902131	1.353894
Br97	Br	1.227665	-0.010127	0.552382
Br98	Br	1.560999	0.323206	0.885715
Br99	Br	1.894332	0.656540	1.219048
H100	H	0.990579	0.227543	0.406206
H101	H	1.323912	0.560877	0.739540
H102	H	1.657245	0.894210	1.072873
