data_functionalizedCrystal
_audit_creation_method	'MofGen! by Chris Wilmer'
_symmetry_space_group_name_H-M	'P1'
_symmetry_Int_Tables_number	1
_symmetry_cell_setting	triclinic
loop_
_symmetry_equiv_pos_as_xyz
  x,y,z
_cell_length_a	12.759395
_cell_length_b	16.625545
_cell_length_c	12.759387
_cell_angle_alpha	89.966730
_cell_angle_beta	89.979491
_cell_angle_gamma	90.027095
loop_
_atom_site_label
_atom_site_type_symbol
_atom_site_fract_x
_atom_site_fract_y
_atom_site_fract_z
Zn1	Zn	1.606189	-0.320926	-0.593987
Zn2	Zn	2.106189	0.179074	-0.093987
Zn3	Zn	1.606047	-0.455781	-0.418300
Zn4	Zn	2.106047	0.044219	0.081700
Zn5	Zn	1.430488	-0.320970	-0.418324
Zn6	Zn	1.930488	0.179030	0.081676
Zn7	Zn	1.430447	-0.455724	-0.593939
Zn8	Zn	1.930447	0.044276	-0.093939
O9	O	1.518293	-0.388350	-0.506137
O10	O	2.018293	0.111650	-0.006137
O11	O	1.753192	-0.338821	-0.570692
O12	O	2.253192	0.161179	-0.070692
O13	O	1.582716	-0.437941	-0.271282
O14	O	2.082716	0.062059	0.228718
O15	O	1.453872	-0.208132	-0.441656
O16	O	1.953872	0.291868	0.058344
O17	O	1.753087	-0.437898	-0.441615
O18	O	2.253087	0.062102	0.058385
O19	O	1.582959	-0.208099	-0.570715
O20	O	2.082959	0.291901	-0.070715
O21	O	1.453733	-0.338895	-0.271300
O22	O	1.953733	0.161105	0.228700
O23	O	1.283461	-0.338840	-0.441610
O24	O	1.783461	0.161160	0.058390
O25	O	1.453802	-0.437800	-0.740967
O26	O	1.953802	0.062200	-0.240967
O27	O	1.283431	-0.437843	-0.570633
O28	O	1.783431	0.062157	-0.070633
O29	O	1.582919	-0.338765	-0.741002
O30	O	2.082919	0.161235	-0.241002
O31	O	1.582676	-0.568606	-0.441569
O32	O	2.082676	-0.068606	0.058431
O33	O	1.453664	-0.568564	-0.570610
O34	O	1.953664	-0.068564	-0.070610
C35	C	1.245325	-0.388341	-0.506119
C36	C	1.745325	0.111659	-0.006119
C37	C	1.128548	-0.388356	-0.506137
C38	C	1.628548	0.111644	-0.006137
C39	C	1.518178	-0.597841	-0.506104
C40	C	2.018178	-0.097841	-0.006104
C41	C	1.518226	-0.687462	-0.506125
C42	C	2.018226	-0.187462	-0.006125
C43	C	1.128556	-0.491615	-0.640272
C44	C	1.628556	0.008385	-0.140272
C45	C	1.073698	-0.543250	-0.707342
C46	C	1.573698	-0.043250	-0.207342
C47	C	0.963977	-0.543260	-0.707355
C48	C	1.463977	-0.043260	-0.207355
C49	C	0.909110	-0.491627	-0.640292
C50	C	1.409110	0.008373	-0.140292
C51	C	0.963967	-0.439991	-0.573222
C52	C	1.463967	0.060009	-0.073222
C53	C	1.073691	-0.439989	-0.573214
C54	C	1.573691	0.060011	-0.073214
C55	C	0.963960	-0.336730	-0.439094
C56	C	1.463960	0.163270	0.060906
C57	C	1.073681	-0.336723	-0.439074
C58	C	1.573681	0.163277	0.060926
C59	C	0.909093	-0.285096	-0.372031
C60	C	1.409093	0.214904	0.127969
C61	C	0.963950	-0.233463	-0.304954
C62	C	1.463950	0.266537	0.195046
C63	C	1.073678	-0.233456	-0.304943
C64	C	1.573678	0.266544	0.195057
C65	C	1.128539	-0.285087	-0.372003
C66	C	1.628539	0.214913	0.127997
C67	C	1.518267	-0.760245	-0.506146
C68	C	2.018267	-0.260245	-0.006146
C69	C	1.518328	-0.851553	-0.506169
C70	C	2.018328	-0.351553	-0.006169
C71	C	1.518382	-0.924330	-0.506183
C72	C	2.018382	-0.424330	-0.006183
C73	C	1.518442	-1.015644	-0.506204
C74	C	2.018442	-0.515644	-0.006204
C75	C	1.792326	-0.388361	-0.506156
C76	C	2.292326	0.111639	-0.006156
C77	C	1.909103	-0.388365	-0.506164
C78	C	2.409103	0.111635	-0.006164
C79	C	1.518372	-0.388271	-0.780171
C80	C	2.018372	0.111729	-0.280171
C81	C	1.518406	-0.388238	-0.896948
C82	C	2.018406	0.111762	-0.396948
C83	C	1.518436	-0.178041	-0.506194
C84	C	2.018436	0.321959	-0.006194
C85	C	1.518497	-0.088420	-0.506218
C86	C	2.018497	0.411580	-0.006218
C87	C	1.652865	-0.285119	-0.897004
C88	C	2.152865	0.214881	-0.397004
C89	C	1.720109	-0.233547	-0.951893
C90	C	2.220109	0.266453	-0.451893
C91	C	1.720135	-0.233518	-1.061615
C92	C	2.220135	0.266482	-0.561615
C93	C	1.652907	-0.285064	-1.116450
C94	C	2.152907	0.214936	-0.616450
C95	C	1.585662	-0.336635	-1.061561
C96	C	2.085662	0.163365	-0.561561
C97	C	1.585646	-0.336661	-0.951837
C98	C	2.085646	0.163339	-0.451837
C99	C	1.451200	-0.439749	-1.061505
C100	C	1.951200	0.060251	-0.561505
C101	C	1.451178	-0.439784	-0.951783
C102	C	1.951178	0.060216	-0.451783
C103	C	1.383971	-0.491295	-1.116340
C104	C	1.883971	0.008705	-0.616340
C105	C	1.316731	-0.542872	-1.061451
C106	C	1.816731	-0.042872	-0.561451
C107	C	1.316709	-0.542900	-0.951722
C108	C	1.816709	-0.042900	-0.451722
C109	C	1.383934	-0.491355	-0.896894
C110	C	1.883934	0.008645	-0.396894
C111	C	1.518274	-0.388371	-0.233170
C112	C	2.018274	0.111629	0.266830
C113	C	1.518444	-0.388177	-0.116394
C114	C	2.018444	0.111823	0.383606
H115	H	1.217897	-0.491618	-0.640260
H116	H	1.717897	0.008382	-0.140260
H117	H	0.819769	-0.491633	-0.640318
H118	H	1.319769	0.008367	-0.140318
H119	H	1.774884	-0.191519	-1.106306
H120	H	2.274884	0.308481	-0.606306
H121	H	1.383993	-0.491264	-1.205681
H122	H	1.883993	0.008736	-0.705681
H123	H	1.774843	-0.191578	-0.907235
H124	H	2.274843	0.308422	-0.407235
H125	H	1.217880	-0.285088	-0.371998
H126	H	1.717880	0.214912	0.128002
H127	H	1.383927	-0.491376	-0.807553
H128	H	1.883927	0.008624	-0.307553
H129	H	1.118383	-0.585288	-0.761945
H130	H	1.618383	-0.085288	-0.261945
H131	H	1.261939	-0.584887	-0.907038
H132	H	1.761939	-0.084887	-0.407038
H133	H	1.652925	-0.285028	-1.205791
H134	H	2.152925	0.214972	-0.705791
H135	H	0.819752	-0.285105	-0.372051
H136	H	1.319752	0.214895	0.127949
H137	H	0.919312	-0.585302	-0.761975
H138	H	1.419312	-0.085302	-0.261975
H139	H	1.118337	-0.191402	-0.250333
H140	H	1.618337	0.308598	0.249667
H141	H	0.919269	-0.191424	-0.250362
H142	H	1.419269	0.308576	0.249638
H143	H	1.652861	-0.285145	-0.807663
H144	H	2.152861	0.214855	-0.307663
H145	H	1.261994	-0.584832	-1.106106
H146	H	1.761994	-0.084832	-0.606106
