data_functionalizedCrystal
_audit_creation_method	'MofGen! by Chris Wilmer'
_symmetry_space_group_name_H-M	'P1'
_symmetry_Int_Tables_number	1
_symmetry_cell_setting	triclinic
loop_
_symmetry_equiv_pos_as_xyz
  x,y,z
_cell_length_a	16.625548
_cell_length_b	16.625545
_cell_length_c	21.395364
_cell_angle_alpha	89.990067
_cell_angle_beta	90.007647
_cell_angle_gamma	89.974895
loop_
_atom_site_label
_atom_site_type_symbol
_atom_site_fract_x
_atom_site_fract_y
_atom_site_fract_z
Zn1	Zn	1.232569	0.321123	0.354270
Zn2	Zn	1.732569	0.821123	0.854270
Zn3	Zn	1.232499	0.455923	0.249497
Zn4	Zn	1.732499	0.955923	0.749497
Zn5	Zn	1.097761	0.321111	0.249507
Zn6	Zn	1.597761	0.821111	0.749507
Zn7	Zn	1.097697	0.455920	0.354237
Zn8	Zn	1.597697	0.955920	0.854237
O9	O	1.165131	0.388519	0.301878
O10	O	1.665131	0.888519	0.801878
O11	O	1.345392	0.339011	0.340382
O12	O	1.845392	0.839011	0.840382
O13	O	1.214623	0.438036	0.161821
O14	O	1.714623	0.938036	0.661821
O15	O	1.115700	0.208280	0.263422
O16	O	1.615700	0.708280	0.763422
O17	O	1.345340	0.438048	0.263405
O18	O	1.845340	0.938048	0.763405
O19	O	1.214742	0.208289	0.340392
O20	O	1.714742	0.708289	0.840392
O21	O	1.115632	0.338990	0.161828
O22	O	1.615632	0.838990	0.661828
O23	O	0.984920	0.338987	0.263390
O24	O	1.484920	0.838987	0.763390
O25	O	1.115591	0.438042	0.441919
O26	O	1.615591	0.938042	0.941919
O27	O	0.984873	0.438030	0.340335
O28	O	1.484873	0.938030	0.840335
O29	O	1.214680	0.339008	0.441944
O30	O	1.714680	0.839008	0.941944
O31	O	1.214561	0.568755	0.263373
O32	O	1.714561	1.068755	0.763373
O33	O	1.115523	0.568753	0.340325
O34	O	1.615523	1.068753	0.840325
C35	C	0.955641	0.388507	0.301860
C36	C	1.455641	0.888507	0.801860
C37	C	0.866020	0.388522	0.301868
C38	C	1.366020	0.888522	0.801868
C39	C	1.165049	0.598010	0.301858
C40	C	1.665049	1.098010	0.801858
C41	C	1.165088	0.687631	0.301870
C42	C	1.665088	1.187631	0.801870
C43	C	0.537844	0.388527	0.301895
C44	C	1.037844	0.888527	0.801895
C45	C	0.629152	0.388524	0.301885
C46	C	1.129152	0.888524	0.801885
C47	C	0.701929	0.388525	0.301881
C48	C	1.201929	0.888525	0.801881
C49	C	0.793243	0.388520	0.301872
C50	C	1.293243	0.888520	0.801872
C51	C	1.165220	1.015807	0.301945
C52	C	1.665220	1.515807	0.801945
C53	C	1.165181	0.924498	0.301926
C54	C	1.665181	1.424498	0.801926
C55	C	1.165153	0.851722	0.301907
C56	C	1.665153	1.351722	0.801907
C57	C	1.165115	0.760407	0.301889
C58	C	1.665115	1.260407	0.801889
C59	C	1.375440	0.388531	0.301896
C60	C	1.875440	0.888531	0.801896
C61	C	1.465061	0.388536	0.301904
C62	C	1.965061	0.888536	0.801904
C63	C	1.165136	0.388526	0.465301
C64	C	1.665136	0.888526	0.965301
C65	C	1.165139	0.388529	0.534942
C66	C	1.665139	0.888529	1.034942
C67	C	1.165229	1.178210	0.301919
C68	C	1.665229	1.678210	0.801919
C69	C	1.165253	1.088589	0.301956
C70	C	1.665253	1.588589	0.801956
C71	C	1.216676	0.440085	1.036735
C72	C	1.716676	0.940085	1.536735
C73	C	1.216674	0.440091	0.971300
C74	C	1.716674	0.940091	1.471300
C75	C	1.165136	0.388524	0.938581
C76	C	1.665136	0.888524	1.438581
C77	C	1.113582	0.336961	0.971303
C78	C	1.613582	0.836961	1.471303
C79	C	1.113579	0.336962	1.036737
C80	C	1.613579	0.836962	1.536737
C81	C	1.158810	0.315876	0.834923
C82	C	1.658810	0.815876	1.334923
C83	C	1.158818	0.315874	0.769491
C84	C	1.658818	0.815874	1.269491
C85	C	1.165140	0.388520	0.736760
C86	C	1.665140	0.888520	1.236760
C87	C	1.171470	0.461171	0.769471
C88	C	1.671470	0.961171	1.269471
C89	C	1.171468	0.461172	0.834905
C90	C	1.671468	0.961172	1.334905
C91	C	1.165133	0.388517	0.867628
C92	C	1.665133	0.888517	1.367628
C93	C	1.216685	0.440089	0.633094
C94	C	1.716685	0.940089	1.133094
C95	C	1.216678	0.440096	0.567657
C96	C	1.716678	0.940096	1.067657
C97	C	1.113590	0.336959	0.567661
C98	C	1.613590	0.836959	1.067661
C99	C	1.113593	0.336959	0.633096
C100	C	1.613593	0.836959	1.133096
C101	C	1.165145	0.388523	0.665809
C102	C	1.665145	0.888523	1.165809
C103	C	1.165124	0.388530	1.139090
C104	C	1.665124	0.888530	1.639090
C105	C	1.165131	0.388526	1.069449
C106	C	1.665131	0.888526	1.569449
H107	H	1.258651	0.482075	1.063366
H108	H	1.758651	0.982075	1.563366
F109	F	1.271536	0.494970	0.936476
F110	F	1.771536	0.994970	1.436476
H111	H	1.071625	0.294974	0.541022
H112	H	1.571625	0.794974	1.041022
H113	H	1.153715	0.256711	0.861567
H114	H	1.653715	0.756711	1.361567
H115	H	1.071619	0.294975	0.944659
H116	H	1.571619	0.794975	1.444659
F117	F	1.178201	0.538490	0.869715
F118	F	1.678201	1.038490	1.369715
F119	F	1.178201	0.538492	0.734642
F120	F	1.678201	1.038492	1.234642
H121	H	1.071623	0.294971	0.659732
H122	H	1.571623	0.794971	1.159732
H123	H	1.258647	0.482089	0.541022
H124	H	1.758647	0.982089	1.041022
H125	H	1.153668	0.256717	0.742863
H126	H	1.653668	0.756717	1.242863
F127	F	1.058712	0.282088	1.071554
F128	F	1.558712	0.782088	1.571554
H129	H	1.258659	0.482078	0.659729
H130	H	1.758659	0.982078	1.159729
