data_functionalizedCrystal
_audit_creation_method	'MofGen! by Chris Wilmer'
_symmetry_space_group_name_H-M	'P1'
_symmetry_Int_Tables_number	1
_symmetry_cell_setting	triclinic
loop_
_symmetry_equiv_pos_as_xyz
  x,y,z
_cell_length_a	19.188930
_cell_length_b	18.266242
_cell_length_c	10.540514
_cell_angle_alpha	90.003144
_cell_angle_beta	83.829971
_cell_angle_gamma	90.022918
loop_
_atom_site_label
_atom_site_type_symbol
_atom_site_fract_x
_atom_site_fract_y
_atom_site_fract_z
O1	O	0.927198	0.061112	0.158474
O2	O	1.427198	0.561112	0.658474
O3	O	0.724028	0.061061	0.179806
O4	O	1.224028	0.561061	0.679806
O5	O	0.830257	0.061088	-0.015671
O6	O	1.330257	0.561088	0.484329
O7	O	0.820968	0.061084	0.353951
O8	O	1.320968	0.561084	0.853951
O9	O	0.830239	-0.060674	-0.015681
O10	O	1.330239	0.439326	0.484319
O11	O	0.724009	-0.060701	0.179797
O12	O	1.224009	0.439299	0.679797
O13	O	0.927180	-0.060650	0.158464
O14	O	1.427180	0.439350	0.658464
Zn15	Zn	0.825592	-0.080008	0.169128
Zn16	Zn	1.325592	0.419992	0.669128
Zn17	Zn	0.825616	0.080419	0.169142
Zn18	Zn	1.325616	0.580419	0.669142
O19	O	0.820950	-0.060678	0.353941
O20	O	1.320950	0.439322	0.853941
C21	C	0.698003	0.000173	0.179111
C22	C	1.198003	0.500173	0.679111
C23	C	0.620485	0.000154	0.177037
C24	C	1.120485	0.500154	0.677037
C25	C	0.576320	0.000164	0.291737
C26	C	1.076320	0.500164	0.791737
C27	C	0.503483	0.000172	0.289788
C28	C	1.003483	0.500172	0.789788
C29	C	0.474815	0.000185	0.173134
C30	C	0.974815	0.500185	0.673134
C31	C	0.518989	0.000171	0.058419
C32	C	1.018989	0.500171	0.558419
C33	C	0.591824	0.000155	0.060371
C34	C	1.091824	0.500155	0.560371
N35	N	0.366251	0.041656	0.083969
N36	N	0.866251	0.541656	0.583969
N37	N	0.297060	0.041673	0.082123
N38	N	0.797060	0.541673	0.582123
C39	C	0.255367	0.000230	0.167247
C40	C	0.755367	0.500230	0.667247
N41	N	0.285478	-0.041221	0.254306
N42	N	0.785478	0.458779	0.754306
N43	N	0.354674	-0.041234	0.256155
N44	N	0.854674	0.458766	0.756155
C45	C	0.395838	0.000201	0.171005
C46	C	0.895838	0.500201	0.671005
C47	C	0.132224	0.000248	0.279842
C48	C	0.632224	0.500248	0.779842
C49	C	0.059386	0.000251	0.277889
C50	C	0.559386	0.500251	0.777889
C51	C	0.074894	0.000257	0.046516
C52	C	0.574894	0.500257	0.546516
C53	C	0.147730	0.000246	0.048473
C54	C	0.647730	0.500246	0.548473
C55	C	0.176390	0.000245	0.165139
C56	C	0.676390	0.500245	0.665139
N57	N	0.825580	-0.189495	0.169119
N58	N	1.325580	0.310505	0.669119
C59	C	0.872634	-0.227792	0.082604
C60	C	1.372634	0.272208	0.582604
C61	C	0.872639	-0.304437	0.082598
C62	C	1.372639	0.195563	0.582598
C63	C	0.825596	-0.342782	0.169129
C64	C	1.325596	0.157218	0.669129
C65	C	0.778533	-0.304476	0.255650
C66	C	1.278533	0.195524	0.755650
C67	C	0.778525	-0.227833	0.255645
C68	C	1.278525	0.272167	0.755645
N69	N	0.817264	-0.463117	0.281495
N70	N	1.317264	0.036883	0.781495
N71	N	0.817275	-0.535925	0.281496
N72	N	1.317275	-0.035925	0.781496
C73	C	0.825616	-0.573704	0.169147
C74	C	1.325616	-0.073704	0.669147
N75	N	0.833958	-0.535925	0.056794
N76	N	1.333958	-0.035925	0.556794
N77	N	0.833950	-0.463110	0.056794
N78	N	1.333950	0.036890	0.556794
C79	C	0.825599	-0.425889	0.169143
C80	C	1.325599	0.074111	0.669143
C81	C	0.872677	-0.695108	0.082618
C82	C	1.372677	-0.195108	0.582618
C83	C	0.872677	-0.771755	0.082611
C84	C	1.372677	-0.271755	0.582611
C85	C	0.778574	-0.771792	0.255675
C86	C	1.278574	-0.271792	0.755675
C87	C	0.778571	-0.695148	0.255671
C88	C	1.278571	-0.195148	0.755671
C89	C	0.825626	-0.656810	0.169144
C90	C	1.325626	-0.156810	0.669144
C91	C	0.953204	0.000239	0.159159
C92	C	1.453204	0.500239	0.659159
C93	C	1.030722	0.000263	0.161233
C94	C	1.530722	0.500263	0.661233
C95	C	0.829555	0.000209	-0.062964
C96	C	1.329555	0.500209	0.437036
C97	C	0.827482	0.000214	-0.203868
C98	C	1.327482	0.500214	0.296132
N99	N	0.825632	0.189905	0.169141
N100	N	1.325632	0.689905	0.669141
C101	C	0.903456	0.000231	-0.276248
C102	C	1.403456	0.500231	0.223752
C103	C	0.901325	-0.000051	-0.422814
C104	C	1.401325	0.499949	0.077186
C105	C	0.786154	-0.069199	-0.395299
C106	C	1.286154	0.430801	0.104701
C107	C	0.788823	-0.069252	-0.248818
C108	C	1.288823	0.430748	0.251182
C109	C	0.787719	0.069219	-0.248384
C110	C	1.287719	0.569219	0.251616
C111	C	0.786986	0.070126	-0.395346
C112	C	1.286986	0.570126	0.104654
C113	C	0.821652	0.000203	0.401234
C114	C	1.321652	0.500203	0.901234
C115	C	0.823725	0.000203	0.542138
C116	C	1.323725	0.500203	1.042138
H117	H	0.051553	0.000313	-0.048466
H118	H	0.551553	0.500313	0.451534
H119	H	0.740228	-0.335701	0.326103
H120	H	1.240228	0.164299	0.826103
O121	O	0.727765	-0.186526	0.348957
O122	O	1.227765	0.313474	0.848957
H123	H	0.735659	-0.126789	0.334408
H124	H	1.235659	0.373211	0.834408
O125	O	0.923417	-0.653749	-0.010716
O126	O	1.423417	-0.153749	0.489284
H127	H	0.956130	-0.693260	-0.070894
H128	H	1.456130	-0.193260	0.429106
H129	H	0.910948	-0.196580	0.012146
H130	H	1.410948	0.303420	0.512146
H131	H	0.910957	-0.335624	0.012144
H132	H	1.410957	0.164376	0.512144
H133	H	0.811916	-0.121032	-0.438428
H134	H	1.311916	0.378968	0.061572
O135	O	0.455834	0.000191	0.413503
O136	O	0.955834	0.500191	0.913503
H137	H	0.488000	0.000193	0.494955
H138	H	0.988000	0.500193	0.994955
H139	H	0.910992	-0.802936	0.012153
H140	H	1.410992	-0.302936	0.512153
H141	H	0.740268	-0.803013	0.326125
H142	H	1.240268	-0.303013	0.826125
H143	H	0.740258	-0.663964	0.326125
H144	H	1.240258	-0.163964	0.826125
H145	H	0.930877	0.049688	-0.466127
H146	H	1.430877	0.549688	0.033873
O147	O	0.488075	0.000180	-0.067406
O148	O	0.988075	0.500180	0.432594
H149	H	0.455297	0.049819	-0.073838
H150	H	0.955297	0.549819	0.426162
O151	O	0.823350	0.138144	-0.450437
O152	O	1.323350	0.638144	0.049563
H153	H	0.785434	0.172146	-0.496905
H154	H	1.285434	0.672146	0.003095
H155	H	0.933839	-0.049414	-0.246603
H156	H	1.433839	0.450586	0.253397
H157	H	0.934279	0.050001	-0.248402
H158	H	1.434279	0.550001	0.251598
H159	H	0.183690	0.000242	-0.044929
H160	H	0.683690	0.500242	0.455071
O161	O	0.639467	0.000148	-0.063345
O162	O	1.139467	0.500148	0.436655
H163	H	0.607299	0.000160	-0.144794
H164	H	1.107299	0.500160	0.355206
H165	H	0.930735	-0.050081	-0.465196
H166	H	1.430735	0.449919	0.034804
O167	O	0.821121	0.138923	-0.207142
O168	O	1.321121	0.638923	0.292858
H169	H	0.866456	0.125159	-0.154489
H170	H	1.366456	0.625159	0.345511
H171	H	0.730426	0.074512	-0.418294
H172	H	1.230426	0.574512	0.081706
H173	H	0.599650	0.000165	0.386735
H174	H	1.099650	0.500165	0.886735
H175	H	0.816248	-0.121316	-0.221201
H176	H	1.316248	0.378684	0.278799
H177	H	0.733014	-0.072225	-0.199583
H178	H	1.233014	0.427775	0.300417
H179	H	0.729158	-0.071598	-0.416357
H180	H	1.229158	0.428402	0.083643
O181	O	0.713492	0.070103	-0.184143
O182	O	1.213492	0.570103	0.315857
H183	H	0.704928	0.021661	-0.120808
H184	H	1.204928	0.521661	0.379192
O185	O	0.163142	0.000230	0.405669
O186	O	0.663142	0.500230	0.905669
H187	H	0.145466	0.049853	0.460783
H188	H	0.645466	0.549853	0.960783
O189	O	0.011744	0.000259	0.401606
O190	O	0.511744	0.500259	0.901606
H191	H	0.043914	0.000262	0.483053
H192	H	0.543914	0.500262	0.983053
