data_functionalizedCrystal
_audit_creation_method	'MofGen! by Chris Wilmer'
_symmetry_space_group_name_H-M	'P1'
_symmetry_Int_Tables_number	1
_symmetry_cell_setting	triclinic
loop_
_symmetry_equiv_pos_as_xyz
  x,y,z
_cell_length_a	19.077105
_cell_length_b	10.686285
_cell_length_c	19.076919
_cell_angle_alpha	88.081200
_cell_angle_beta	90.076224
_cell_angle_gamma	83.162422
loop_
_atom_site_label
_atom_site_type_symbol
_atom_site_fract_x
_atom_site_fract_y
_atom_site_fract_z
Zn1	Zn	1.085506	-0.610610	-0.415453
Zn2	Zn	1.099198	-0.813548	-0.289649
Zn3	Zn	0.971970	-0.593702	-0.293938
Zn4	Zn	0.976985	-0.812786	-0.402433
O5	O	1.033415	-0.707661	-0.350368
O6	O	1.185984	-0.644924	-0.402419
O7	O	1.085952	-0.777627	-0.192163
O8	O	0.979201	-0.419327	-0.317301
O9	O	1.196043	-0.794022	-0.309992
O10	O	1.062616	-0.431749	-0.406578
O11	O	0.992478	-0.616107	-0.195314
O12	O	0.873973	-0.615369	-0.304676
O13	O	0.987750	-0.792725	-0.502215
O14	O	0.877659	-0.776330	-0.384387
O15	O	1.067480	-0.644186	-0.511781
O16	O	1.090815	-0.990065	-0.297367
O17	O	1.001026	-0.989505	-0.380228
C18	C	0.850234	-0.693933	-0.343584
C19	C	0.771869	-0.688092	-0.340697
C20	C	0.736999	-0.769268	-0.380767
C21	C	0.663366	-0.763763	-0.378058
C22	C	0.624605	-0.677087	-0.335276
C23	C	0.659481	-0.595902	-0.295205
C24	C	0.733112	-0.601402	-0.297918
C25	C	0.404183	-0.651633	-0.322724
C26	C	0.330547	-0.646142	-0.320013
C27	C	0.334437	-0.814001	-0.402867
C28	C	0.408069	-0.819499	-0.405573
C29	C	0.442938	-0.738310	-0.365505
N30	N	0.549341	-0.671460	-0.332505
N31	N	0.518201	-0.743931	-0.368280
C32	C	1.047969	-1.035583	-0.336935
C33	C	1.054260	-1.175875	-0.331214
C34	C	1.217311	-0.721444	-0.357180
C35	C	1.295676	-0.727318	-0.360082
C36	C	1.026647	-0.720257	-0.533134
C37	C	1.023763	-0.725624	-0.611017
C38	C	1.018822	-0.378462	-0.363870
C39	C	1.012603	-0.238177	-0.369624
C40	C	1.063917	-0.650813	-0.652589
C41	C	1.061198	-0.655851	-0.725768
C42	C	1.018329	-0.735707	-0.757375
C43	C	0.978171	-0.810521	-0.715799
C44	C	0.980886	-0.805476	-0.642621
C45	C	1.005754	-0.759083	-0.975701
C46	C	1.003043	-0.764125	-1.048885
C47	C	1.086070	-0.609453	-1.058849
C48	C	1.088785	-0.604420	-0.985669
C49	C	1.048624	-0.679229	-0.944099
N50	N	1.015551	-0.740861	-0.832177
N51	N	1.051398	-0.674067	-0.869299
C52	C	1.040193	-0.695027	-0.168319
C53	C	1.043197	-0.689314	-0.090456
H54	H	0.432565	-0.585532	-0.290092
H55	H	0.948181	-0.866381	-0.608774
C56	C	1.108941	-1.248805	-0.280868
C57	C	1.084494	-1.333465	-0.221040
C58	C	1.139174	-1.406395	-0.170695
C59	C	1.218302	-1.394665	-0.180177
C60	C	1.242753	-1.310001	-0.240008
C61	C	1.188073	-1.237071	-0.290354
H62	H	1.025915	-1.342152	-0.214018
H63	H	1.121073	-1.469068	-0.126404
H64	H	1.258780	-1.448652	-0.142909
H65	H	1.301332	-1.301315	-0.247030
H66	H	1.206174	-1.174398	-0.334644
H67	H	1.098828	-0.585790	-0.626860
C68	C	0.957924	-1.165252	-0.419967
C69	C	0.899712	-1.068454	-0.391163
C70	C	0.845032	-0.995520	-0.441508
C71	C	0.848565	-1.019385	-0.520657
C72	C	0.906780	-1.116188	-0.549465
C73	C	0.961459	-1.189122	-0.499120
H74	H	0.897095	-1.050783	-0.332569
H75	H	0.801938	-0.923860	-0.420182
H76	H	0.808088	-0.965395	-0.557925
H77	H	0.909397	-1.133858	-0.608059
H78	H	1.004554	-1.260782	-0.520446
H79	H	0.761502	-0.535293	-0.265293
H80	H	1.093898	-0.594935	-0.759613
H81	H	1.123696	-0.539397	-0.959940
C82	C	0.955908	-0.852013	-1.083653
C83	C	0.911750	-0.934333	-1.037929
C84	C	0.864632	-1.022240	-1.072698
C85	C	0.861671	-1.027827	-1.153191
C86	C	0.905831	-0.945505	-1.198919
C87	C	0.952949	-0.857598	-1.164151
H88	H	0.913940	-0.930199	-0.978340
H89	H	0.831942	-1.083180	-1.038846
H90	H	0.826792	-1.092901	-1.178929
H91	H	0.903641	-0.949639	-1.258509
H92	H	0.985639	-0.796657	-1.198002
H93	H	1.118766	-0.548546	-1.092703
H94	H	0.298989	-0.575545	-0.285179
H95	H	0.768552	-0.839853	-0.415602
H96	H	0.634977	-0.829866	-0.410686
H97	H	0.439623	-0.890082	-0.440409
C98	C	0.961570	-0.841380	-0.929995
C99	C	0.880593	-0.825751	-0.937534
C100	C	0.836401	-0.908054	-0.891830
C101	C	0.873187	-1.005987	-0.838588
C102	C	0.954169	-1.021620	-0.831047
C103	C	0.998360	-0.939317	-0.876750
H104	H	0.853358	-0.753252	-0.976949
H105	H	0.776453	-0.896481	-0.897413
H106	H	0.840474	-1.066912	-0.804756
H107	H	0.981404	-1.094119	-0.791632
H108	H	1.058308	-0.950890	-0.871167
H109	H	0.627916	-0.525323	-0.260374
C110	C	0.296079	-0.903294	-0.446947
C111	C	0.215088	-0.897250	-0.443970
C112	C	0.176730	-0.986542	-0.488055
C113	C	0.219365	-1.081880	-0.535116
C114	C	0.300361	-1.087928	-0.538095
C115	C	0.338718	-0.998636	-0.494010
H116	H	0.183523	-0.826672	-0.409131
H117	H	0.116772	-0.982064	-0.485849
H118	H	0.190971	-1.147980	-0.567750
H119	H	0.331925	-1.158506	-0.572934
H120	H	0.398677	-1.003114	-0.496215
H121	H	0.943263	-0.875537	-0.741539
