data_functionalizedCrystal
_audit_creation_method	'MofGen! by Chris Wilmer'
_symmetry_space_group_name_H-M	'P1'
_symmetry_Int_Tables_number	1
_symmetry_cell_setting	triclinic
loop_
_symmetry_equiv_pos_as_xyz
  x,y,z
_cell_length_a	14.853566
_cell_length_b	15.995350
_cell_length_c	13.330367
_cell_angle_alpha	89.997588
_cell_angle_beta	89.995295
_cell_angle_gamma	83.563394
loop_
_atom_site_label
_atom_site_type_symbol
_atom_site_fract_x
_atom_site_fract_y
_atom_site_fract_z
O1	O	1.196222	0.109312	-0.083352
O2	O	0.933745	0.122335	-0.083368
O3	O	1.072159	-0.006056	-0.083359
O4	O	1.057809	0.237703	-0.083361
O5	O	1.072138	-0.006059	0.083488
O6	O	0.933725	0.122332	0.083479
O7	O	1.196202	0.109309	0.083495
Cu8	Cu	1.064962	0.115820	0.098722
Cu9	Cu	1.064985	0.115824	-0.098595
O10	O	1.057789	0.237700	0.083486
C11	C	0.900147	0.121744	0.000053
C12	C	0.800066	0.119976	0.000047
C13	C	0.376902	0.112501	-0.090884
C14	C	0.376901	0.112498	0.091020
C15	C	0.470933	0.114158	0.091017
C16	C	0.517953	0.114991	0.000062
C17	C	0.470942	0.114163	-0.090889
C18	C	0.517950	0.114994	0.181966
C19	C	0.611988	0.116655	0.181967
C20	C	0.659011	0.117482	0.091011
C21	C	0.611994	0.116653	0.000056
C22	C	0.659014	0.117486	-0.090898
C23	C	0.611999	0.116652	-0.181855
C24	C	0.517965	0.114990	-0.181845
C25	C	0.753045	0.119144	0.091002
C26	C	0.753054	0.119149	-0.090904
C27	C	1.071555	-0.037253	0.000063
C28	C	1.069777	-0.130205	0.000057
C29	C	1.063389	-0.467960	0.000060
C30	C	0.964814	-0.420640	-0.000320
C31	C	0.966593	-0.323948	0.000056
C32	C	1.066558	-0.300396	0.000058
C33	C	1.115167	-0.341419	0.095337
C34	C	1.112691	-0.438057	0.095417
C35	C	1.114750	-0.438410	-0.094320
C36	C	1.114727	-0.341464	-0.095579
C37	C	1.068353	-0.205696	0.000060
C38	C	1.061597	-0.562660	0.000065
C39	C	1.229800	0.109900	0.000071
C40	C	1.329881	0.111668	0.000071
C41	C	1.058392	0.268897	0.000062
C42	C	1.060170	0.361849	0.000061
N43	N	1.064952	0.115818	0.237503
N44	N	1.065003	0.115820	-0.237376
C45	C	1.003693	0.172653	0.710122
C46	C	1.126302	0.058988	0.710098
C47	C	1.126292	0.058986	0.605080
C48	C	1.064982	0.115818	0.552578
C49	C	1.003683	0.172654	0.605094
C50	C	1.187596	0.002157	0.552556
C51	C	1.187589	0.002153	0.447531
C52	C	1.126274	0.058982	0.395027
C53	C	1.064972	0.115819	0.447549
C54	C	1.003663	0.172652	0.395047
C55	C	0.942355	0.229486	0.447568
C56	C	0.942368	0.229483	0.552590
C57	C	1.126261	0.058985	0.290005
C58	C	1.003652	0.172653	0.290019
H59	H	0.338611	0.111826	0.165071
F60	F	1.252848	-0.058321	0.608432
H61	H	1.187626	-0.326018	-0.101330
H62	H	0.953723	0.218931	0.247278
F63	F	0.916648	-0.286852	-0.089217
F64	F	1.071018	-0.304378	0.188013
H65	H	0.650259	0.117333	0.256029
H66	H	0.479659	0.114322	0.256017
F67	F	1.068631	-0.305511	-0.187722
F68	F	1.211161	-0.322846	0.099974
F69	F	0.877112	0.289975	0.391680
H70	H	0.791319	0.119831	0.165057
F71	F	0.467927	0.114076	-0.278638
H72	H	1.187429	-0.470086	-0.094958
F73	F	1.252834	-0.058335	0.391642
F74	F	0.877127	0.289967	0.608489
F75	F	0.938445	0.233134	0.766016
F76	F	0.662052	0.117544	-0.278652
F77	F	0.916288	-0.287582	0.089473
H78	H	1.176223	0.012720	0.752849
F79	F	0.913323	-0.444918	-0.089629
F80	F	1.191510	-0.001493	0.234115
F81	F	1.072630	-0.465294	-0.188712
F82	F	0.913401	-0.446593	0.088240
H83	H	1.077228	-0.456401	0.166638
H84	H	0.791332	0.119824	-0.164972
F85	F	1.207284	-0.480101	0.101080
H86	H	0.338619	0.111818	-0.164938
