data_functionalizedCrystal
_audit_creation_method	'MofGen! by Chris Wilmer'
_symmetry_space_group_name_H-M	'P1'
_symmetry_Int_Tables_number	1
_symmetry_cell_setting	triclinic
loop_
_symmetry_equiv_pos_as_xyz
  x,y,z
_cell_length_a	19.805407
_cell_length_b	14.908178
_cell_length_c	19.805399
_cell_angle_alpha	86.675724
_cell_angle_beta	89.982197
_cell_angle_gamma	93.311253
loop_
_atom_site_label
_atom_site_type_symbol
_atom_site_fract_x
_atom_site_fract_y
_atom_site_fract_z
Zn1	Zn	1.019222	-0.359271	-0.367131
Zn2	Zn	1.519222	0.140729	0.132869
Zn3	Zn	1.012622	-0.510147	-0.247410
Zn4	Zn	1.512622	-0.010147	0.252590
Zn5	Zn	0.906036	-0.359289	-0.253958
Zn6	Zn	1.406036	0.140711	0.246042
Zn7	Zn	0.899488	-0.510092	-0.360562
Zn8	Zn	1.399488	-0.010092	0.139438
O9	O	0.959342	-0.434700	-0.307265
O10	O	1.459342	0.065300	0.192735
O11	O	1.113062	-0.379300	-0.351258
O12	O	1.613062	0.120700	0.148742
O13	O	0.998461	-0.490166	-0.153560
O14	O	1.498461	0.009834	0.346440
O15	O	0.926553	-0.233032	-0.274460
O16	O	1.426553	0.266968	0.225540
O17	O	1.108213	-0.490148	-0.263299
O18	O	1.608213	0.009852	0.236701
O19	O	1.009710	-0.233019	-0.357608
O20	O	1.509710	0.266981	0.142392
O21	O	0.920153	-0.379331	-0.158372
O22	O	1.420153	0.120669	0.341628
O23	O	0.810451	-0.379277	-0.268091
O24	O	1.310451	0.120723	0.231909
O25	O	0.915392	-0.490055	-0.456151
O26	O	1.415392	0.009945	0.043849
O27	O	0.805640	-0.490072	-0.346413
O28	O	1.305640	0.009928	0.153587
O29	O	1.003361	-0.379247	-0.460977
O30	O	1.503361	0.120753	0.039023
O31	O	0.992112	-0.636394	-0.256930
O32	O	1.492112	-0.136394	0.243070
O33	O	0.908993	-0.636353	-0.340063
O34	O	1.408993	-0.136353	0.159937
C35	C	0.783487	-0.434671	-0.307250
C36	C	1.283487	0.065329	0.192750
C37	C	0.708255	-0.434681	-0.307259
C38	C	1.208255	0.065319	0.192741
C39	C	0.675432	-0.377064	-0.353120
C40	C	1.175432	0.122936	0.146880
C41	C	0.604743	-0.377069	-0.353123
C42	C	1.104743	0.122931	0.146877
C43	C	0.566879	-0.434696	-0.307266
C44	C	1.066879	0.065304	0.192734
C45	C	0.599706	-0.492315	-0.261400
C46	C	1.099706	0.007685	0.238600
C47	C	0.670394	-0.492305	-0.261395
C48	C	1.170394	0.007695	0.238605
C49	C	0.314631	-0.492355	-0.261419
C50	C	0.814631	0.007645	0.238581
C51	C	0.243939	-0.492363	-0.261429
C52	C	0.743939	0.007637	0.238571
C53	C	0.248980	-0.377120	-0.353147
C54	C	0.748980	0.122880	0.146853
C55	C	0.319668	-0.377110	-0.353142
C56	C	0.819668	0.122890	0.146858
C57	C	0.352490	-0.434725	-0.307273
C58	C	0.852490	0.065275	0.192727
C59	C	0.429139	-0.434718	-0.307270
C60	C	0.929139	0.065282	0.192730
C61	C	0.490231	-0.434708	-0.307272
C62	C	0.990231	0.065292	0.192728
C63	C	0.949144	-0.669110	-0.297088
C64	C	1.449144	-0.169110	0.202912
C65	C	0.944843	-0.769391	-0.292756
C66	C	1.444843	-0.269391	0.207244
C67	C	1.023287	-0.957668	-0.371291
C68	C	1.523287	-0.457668	0.128709
C69	C	1.019248	-1.051891	-0.367224
C70	C	1.519248	-0.551891	0.132776
C71	C	0.932724	-1.052064	-0.280558
C72	C	1.432724	-0.552064	0.219442
C73	C	0.936762	-0.957840	-0.284625
C74	C	1.436762	-0.457840	0.215375
C75	C	0.982046	-0.910645	-0.329993
C76	C	1.482046	-0.410645	0.170007
C77	C	0.986088	-0.816420	-0.334056
C78	C	1.486088	-0.316420	0.165944
C79	C	0.899560	-0.816594	-0.247394
C80	C	1.399560	-0.316594	0.252606
C81	C	0.895522	-0.910818	-0.243326
C82	C	1.395522	-0.410818	0.256674
C83	C	1.135883	-0.434729	-0.307281
C84	C	1.635883	0.065271	0.192719
C85	C	1.211115	-0.434741	-0.307287
C86	C	1.711115	0.065259	0.192713
C87	C	0.959382	-0.434643	-0.483810
C88	C	1.459382	0.065357	0.016190
C89	C	0.959400	-0.434619	-0.559044
C90	C	1.459400	0.065381	-0.059044
C91	C	0.969598	-0.199374	-0.317497
C92	C	1.469598	0.300626	0.182503
C93	C	0.973969	-0.099092	-0.321858
C94	C	1.473969	0.400908	0.178142
C95	C	1.005206	-0.376918	-0.596902
C96	C	1.505206	0.123082	-0.096902
C97	C	1.005214	-0.376892	-0.667591
C98	C	1.505214	0.123108	-0.167591
C99	C	0.959418	-0.434571	-0.700421
C100	C	1.459418	0.065429	-0.200421
C101	C	0.913607	-0.492274	-0.662558
C102	C	1.413607	0.007726	-0.162558
C103	C	0.913597	-0.492295	-0.591870
C104	C	1.413597	0.007705	-0.091870
C105	C	0.913649	-0.492190	-0.947635
C106	C	1.413649	0.007810	-0.447635
C107	C	0.913665	-0.492167	-1.018328
C108	C	1.413665	0.007833	-0.518328
C109	C	1.005266	-0.376787	-1.023357
C110	C	1.505266	0.123213	-0.523357
C111	C	1.005256	-0.376808	-0.952668
C112	C	1.505256	0.123192	-0.452668
C113	C	0.959443	-0.434507	-0.914811
C114	C	1.459443	0.065493	-0.414811
C115	C	0.959433	-0.434533	-0.838162
C116	C	1.459433	0.065467	-0.338162
C117	C	0.959430	-0.434550	-0.777069
C118	C	1.459430	0.065450	-0.277069
C119	C	0.959343	-0.434691	-0.131410
C120	C	1.459343	0.065309	0.368590
C121	C	0.959468	-0.434461	-0.056188
C122	C	1.459468	0.065539	0.443812
H123	H	0.350494	-0.330187	-0.390485
H124	H	0.850494	0.169813	0.109515
H125	H	0.213111	-0.539291	-0.224084
H126	H	0.713111	-0.039291	0.275916
Cl127	Cl	1.062784	-0.304407	-0.555637
Cl128	Cl	1.562784	0.195593	-0.055637
H129	H	0.876355	-0.539186	-0.916820
H130	H	1.376355	-0.039186	-0.416820
H131	H	0.697117	-0.539221	-0.224049
H132	H	1.197117	-0.039221	0.275951
Cl133	Cl	1.043017	-0.757091	-0.391087
Cl134	Cl	1.543017	-0.257091	0.108913
Cl135	Cl	0.856033	-0.564783	-0.703830
Cl136	Cl	1.356033	-0.064783	-0.203830
H137	H	0.222249	-0.330203	-0.390493
H138	H	0.722249	0.169797	0.109507
Cl139	Cl	1.062831	-0.304296	-0.911401
Cl140	Cl	1.562831	0.195704	-0.411401
H141	H	0.895853	-1.090506	-0.243625
H142	H	1.395853	-0.590506	0.256375
Cl143	Cl	0.838592	-0.970157	-0.186301
Cl144	Cl	1.338592	-0.470157	0.313699
H145	H	0.876290	-0.539272	-0.561047
H146	H	1.376290	-0.039272	-0.061047
H147	H	0.865981	-0.778298	-0.213764
H148	H	1.365981	-0.278298	0.286236
H149	H	1.060164	-0.919241	-0.408227
H150	H	1.560164	-0.419241	0.091773
Cl151	Cl	1.062859	-0.304246	-1.070953
Cl152	Cl	1.562859	0.195754	-0.570953
H153	H	1.042515	-0.329909	-0.698413
H154	H	1.542515	0.170091	-0.198413
Cl155	Cl	0.563483	-0.304636	-0.410782
Cl156	Cl	1.063483	0.195364	0.089218
Cl157	Cl	0.856088	-0.564683	-1.059599
Cl158	Cl	1.356088	-0.064683	-0.559599
H159	H	1.052828	-1.090173	-0.400857
H160	H	1.552828	-0.590173	0.099143
H161	H	0.341346	-0.539270	-0.224070
H162	H	0.841346	-0.039270	0.275930
Cl163	Cl	0.723026	-0.304619	-0.410775
Cl164	Cl	1.223026	0.195381	0.089225
Cl165	Cl	0.552105	-0.564755	-0.203748
Cl166	Cl	1.052105	-0.064755	0.296252
