data_functionalizedCrystal
_audit_creation_method	'MofGen! by Chris Wilmer'
_symmetry_space_group_name_H-M	'P1'
_symmetry_Int_Tables_number	1
_symmetry_cell_setting	triclinic
loop_
_symmetry_equiv_pos_as_xyz
  x,y,z
_cell_length_a	6.817900
_cell_length_b	14.125469
_cell_length_c	16.255661
_cell_angle_alpha	95.870770
_cell_angle_beta	103.488922
_cell_angle_gamma	100.398878
loop_
_atom_site_label
_atom_site_type_symbol
_atom_site_fract_x
_atom_site_fract_y
_atom_site_fract_z
V1	V	-4.010936	-0.133890	-0.263542
O2	O	-4.014854	0.005634	-0.258862
O3	O	-3.947073	-0.264713	-0.261416
O4	O	-3.962699	-0.132182	-0.378630
O5	O	-3.999120	-0.127814	-0.140837
V6	V	-4.496546	-0.117160	-0.248905
O7	O	-4.267615	-0.170589	-0.295650
O8	O	-4.690064	-0.080461	-0.216797
O9	O	-4.337203	0.013662	-0.251031
O10	O	-4.610025	-0.256684	-0.253585
O11	O	-4.625759	-0.123236	-0.371610
O12	O	-4.321576	-0.118869	-0.133818
C13	C	-3.788307	-0.296593	-0.257175
C14	C	-3.817379	-0.403545	-0.256204
C15	C	-3.870675	-0.599365	-0.254439
C16	C	-4.056174	-0.651697	-0.258011
C17	C	-4.085830	-0.760658	-0.257029
C18	C	-3.841011	-0.490394	-0.255421
C19	C	-3.808239	-0.127536	-0.406692
C20	C	-3.849981	-0.127004	-0.500774
C21	C	-3.761285	-0.120657	-0.723608
C22	C	-3.908049	-0.202574	-0.792883
C23	C	-3.926483	-0.126008	-0.673025
C24	C	-3.854120	-0.043154	-0.771390
C25	C	-4.000365	-0.125041	-0.839411
C26	C	-4.072720	-0.207998	-0.741070
C27	C	-4.018737	-0.048505	-0.719561
C28	C	-4.165635	-0.130445	-0.788817
C29	C	-3.883916	-0.126566	-0.577175
C30	C	-4.042948	-0.124491	-0.935261
C31	C	-4.159310	0.045538	-0.255270
C32	C	-4.109476	0.152488	-0.256246
C33	C	-4.139379	-0.123518	-0.105751
C34	C	-4.076875	-0.124044	-0.011668
H35	H	-3.861701	-0.267711	-0.824809
H36	H	-4.337017	-0.134605	-0.817153
C37	C	-3.965931	0.125644	-0.691191
C38	C	-4.081193	0.039429	-0.676420
H39	H	-4.004469	0.179935	-0.664550
H40	H	-3.991962	0.126972	-0.751021
H41	H	-3.823189	0.128499	-0.668006
H42	H	-4.223935	0.036570	-0.699612
H43	H	-4.055177	0.038100	-0.616579
C44	C	-3.518791	0.055838	-0.756883
C45	C	-3.729904	0.050901	-0.789947
H46	H	-3.442101	0.113903	-0.768334
H47	H	-3.480857	0.001098	-0.783068
H48	H	-3.490238	0.055876	-0.696819
H49	H	-3.758460	0.050855	-0.850013
H50	H	-3.767851	0.105655	-0.763765
H51	H	-4.192711	-0.614668	-0.261806
C52	C	-4.156316	-0.301835	-0.634125
C53	C	-4.196907	-0.302153	-0.722668
H54	H	-4.232968	-0.359966	-0.622765
H55	H	-4.195314	-0.247186	-0.608340
H56	H	-4.013137	-0.298152	-0.611223
H57	H	-4.340084	-0.305828	-0.745568
H58	H	-4.157921	-0.356817	-0.748463
C59	C	-3.509058	-0.579826	-0.246187
C60	C	-3.686352	-0.649342	-0.249304
H61	H	-3.395275	-0.610691	-0.243019
H62	H	-3.481157	-0.531895	-0.197159
H63	H	-3.530498	-0.549760	-0.296278
H64	H	-3.664918	-0.679404	-0.199209
H65	H	-3.714257	-0.697291	-0.298337
C66	C	-3.472148	-0.196025	-0.722523
C67	C	-3.530072	-0.115213	-0.685161
H68	H	-3.329415	-0.192668	-0.698782
H69	H	-3.497481	-0.196212	-0.782534
H70	H	-3.550246	-0.254000	-0.711579
H71	H	-3.451984	-0.057238	-0.696111
H72	H	-3.504719	-0.115017	-0.625137
