data_functionalizedCrystal
_audit_creation_method	'MofGen! by Chris Wilmer'
_symmetry_space_group_name_H-M	'P1'
_symmetry_Int_Tables_number	1
_symmetry_cell_setting	triclinic
loop_
_symmetry_equiv_pos_as_xyz
  x,y,z
_cell_length_a	11.026607
_cell_length_b	14.044202
_cell_length_c	9.482899
_cell_angle_alpha	100.194351
_cell_angle_beta	78.627193
_cell_angle_gamma	100.889359
loop_
_atom_site_label
_atom_site_type_symbol
_atom_site_fract_x
_atom_site_fract_y
_atom_site_fract_z
O1	O	-1.636274	-0.416218	-0.120997
O2	O	-1.277982	-0.370168	-0.120988
O3	O	-1.451750	-0.254286	-0.120953
O4	O	-1.462506	-0.532100	-0.121032
O5	O	-1.487068	-0.230658	0.120847
O6	O	-1.313301	-0.346540	0.120812
O7	O	-1.671592	-0.392590	0.120803
Cu8	Cu	-1.495671	-0.367407	0.142886
Cu9	Cu	-1.453903	-0.395350	-0.143070
O10	O	-1.497825	-0.508472	0.120768
C11	C	-1.464700	-0.206353	-0.000046
C12	C	-1.450655	-0.098728	-0.000024
C13	C	-1.249511	-0.349859	-0.000086
C14	C	-1.112055	-0.324534	-0.000081
C15	C	-1.700063	-0.412899	-0.000102
C16	C	-1.837517	-0.438225	-0.000117
C17	C	-1.524592	0.138937	-0.000064
C18	C	-1.424987	0.098305	-0.000055
C19	C	-1.439272	-0.011334	-0.000038
C20	C	-1.510309	0.248587	-0.000081
C21	C	-1.045819	-0.394461	-0.000102
C22	C	-0.903751	-0.368288	-0.000096
C23	C	-1.484874	0.443597	-0.000123
C24	C	-1.498919	0.335977	-0.000094
N25	N	-1.424525	-0.414997	-0.344197
C26	C	-1.462570	-0.389542	-0.583802
C27	C	-1.487023	-0.373204	-0.416379
N28	N	-1.525058	-0.347755	0.344012
H29	H	-1.328984	0.145862	-0.000058
H30	H	-1.620589	0.091385	-0.000054
C31	C	-1.327787	-0.479673	-0.428137
N32	N	-1.254923	-0.528385	-0.491363
C33	C	-1.621790	-0.283082	-0.572039
N34	N	-1.694649	-0.234367	-0.508810
C35	C	-1.111293	-0.501518	-0.000126
N36	N	-1.160607	-0.582155	-0.000146
H37	H	-0.855282	-0.289043	-0.000111
C38	C	-1.365837	-0.454214	-0.667751
N39	N	-1.292974	-0.502926	-0.730980
C40	C	-0.902983	-0.545289	-0.000148
N41	N	-0.952292	-0.625928	-0.000175
H42	H	-1.558634	-0.325334	-0.354240
C43	C	-1.046582	-0.217477	-0.000050
N44	N	-0.997269	-0.136839	-0.000029
