data_functionalizedCrystal
_audit_creation_method	'MofGen! by Chris Wilmer'
_symmetry_space_group_name_H-M	'P1'
_symmetry_Int_Tables_number	1
_symmetry_cell_setting	triclinic
loop_
_symmetry_equiv_pos_as_xyz
  x,y,z
_cell_length_a	11.169416
_cell_length_b	11.169417
_cell_length_c	11.169409
_cell_angle_alpha	90.019513
_cell_angle_beta	90.030874
_cell_angle_gamma	90.011589
loop_
_atom_site_label
_atom_site_type_symbol
_atom_site_fract_x
_atom_site_fract_y
_atom_site_fract_z
Zn1	Zn	-0.477670	1.834962	0.678545
Zn2	Zn	-0.144337	2.168296	1.011878
Zn3	Zn	0.188997	2.501629	1.345212
Zn4	Zn	-0.678410	1.834852	0.477867
Zn5	Zn	-0.345077	2.168185	0.811200
Zn6	Zn	-0.011744	2.501518	1.144534
Zn7	Zn	-0.477744	1.634248	0.477880
Zn8	Zn	-0.144411	1.967582	0.811214
Zn9	Zn	0.188922	2.300915	1.144547
Zn10	Zn	-0.678314	1.634256	0.678513
Zn11	Zn	-0.344981	1.967589	1.011846
Zn12	Zn	-0.011647	2.300922	1.345180
O13	O	-0.578035	1.734579	0.578201
O14	O	-0.244701	2.067913	0.911535
O15	O	0.088632	2.401246	1.244868
O16	O	-0.504308	2.002897	0.651932
O17	O	-0.170974	2.336231	0.985266
O18	O	0.162359	2.669564	1.318599
O19	O	-0.651863	1.808192	0.309919
O20	O	-0.318530	2.141525	0.643252
O21	O	0.014803	2.474858	0.976586
O22	O	-0.309785	1.660917	0.504518
O23	O	0.023549	1.994250	0.837851
O24	O	0.356882	2.327583	1.171185
O25	O	-0.651791	2.002816	0.504495
O26	O	-0.318458	2.336149	0.837828
O27	O	0.014876	2.669483	1.171162
O28	O	-0.309730	1.808380	0.651945
O29	O	0.023603	2.141714	0.985279
O30	O	0.356937	2.475047	1.318612
O31	O	-0.504435	1.660809	0.309929
O32	O	-0.171101	1.994143	0.643262
O33	O	0.162232	2.327476	0.976596
O34	O	-0.504341	1.466300	0.504487
O35	O	-0.171008	1.799633	0.837820
O36	O	0.162325	2.132966	1.171154
O37	O	-0.651627	1.660929	0.846467
O38	O	-0.318293	1.994263	1.179800
O39	O	0.015040	2.327596	1.513134
O40	O	-0.651699	1.466305	0.651891
O41	O	-0.318366	1.799638	0.985224
O42	O	0.014968	2.132972	1.318558
O43	O	-0.504214	1.808388	0.846491
O44	O	-0.170881	2.141721	1.179824
O45	O	0.162452	2.475054	1.513157
O46	O	-0.846347	1.808199	0.504464
O47	O	-0.513014	2.141532	0.837797
O48	O	-0.179681	2.474866	1.171131
O49	O	-0.846277	1.660822	0.651878
O50	O	-0.512943	1.994155	0.985211
O51	O	-0.179610	2.327489	1.318545
C52	C	-0.578019	1.422755	0.578188
C53	C	-0.244685	1.756088	0.911521
C54	C	0.088648	2.089421	1.244854
C55	C	-0.578041	1.289355	0.578210
C56	C	-0.244707	1.622688	0.911544
C57	C	0.088626	1.956021	1.244877
C58	C	-0.889859	1.734532	0.578192
C59	C	-0.556526	2.067865	0.911526
C60	C	-0.223193	2.401199	1.244859
C61	C	-1.023259	1.734621	0.578228
C62	C	-0.689926	2.067955	0.911562
C63	C	-0.356593	2.401288	1.244895
C64	C	-0.264992	1.734660	0.578237
C65	C	0.068341	2.067993	0.911570
C66	C	0.401674	2.401327	1.244903
C67	C	-0.131592	1.734694	0.578252
C68	C	0.201741	2.068028	0.911585
C69	C	0.535074	2.401361	1.244919
C70	C	-0.577901	1.734672	0.891244
C71	C	-0.244568	2.068005	1.224577
C72	C	0.088765	2.401338	1.557911
C73	C	-0.577845	1.734711	1.024644
C74	C	-0.244511	2.068044	1.357977
C75	C	0.088822	2.401378	1.691311
C76	C	-0.578052	2.047622	0.578216
C77	C	-0.244719	2.380955	0.911549
C78	C	0.088615	2.714288	1.244883
C79	C	-0.578059	2.181022	0.578222
C80	C	-0.244726	2.514355	0.911555
C81	C	0.088608	2.847688	1.244889
C82	C	-0.578081	1.734557	0.266377
C83	C	-0.244748	2.067890	0.599710
C84	C	0.088586	2.401223	0.933043
C85	C	-0.577800	1.734750	0.132977
C86	C	-0.244466	2.068083	0.466311
C87	C	0.088867	2.401417	0.799644
