data_functionalizedCrystal
_audit_creation_method	'MofGen! by Chris Wilmer'
_symmetry_space_group_name_H-M	'P1'
_symmetry_Int_Tables_number	1
_symmetry_cell_setting	triclinic
loop_
_symmetry_equiv_pos_as_xyz
  x,y,z
_cell_length_a	15.944499
_cell_length_b	15.944551
_cell_length_c	18.366186
_cell_angle_alpha	89.992892
_cell_angle_beta	89.988045
_cell_angle_gamma	83.488174
loop_
_atom_site_label
_atom_site_type_symbol
_atom_site_fract_x
_atom_site_fract_y
_atom_site_fract_z
O1	O	1.114557	0.108126	-0.060595
O2	O	1.614557	0.608126	0.439405
O3	O	0.870001	0.121528	-0.060587
O4	O	1.370001	0.621528	0.439413
O5	O	0.998957	-0.007449	-0.060585
O6	O	1.498957	0.492551	0.439415
O7	O	0.985601	0.237103	-0.060597
O8	O	1.485601	0.737103	0.439403
O9	O	0.998935	-0.007455	0.060515
O10	O	1.498935	0.492545	0.560515
O11	O	0.869979	0.121522	0.060512
O12	O	1.369979	0.621522	0.560512
O13	O	1.114534	0.108120	0.060505
O14	O	1.614534	0.608120	0.560505
Zn15	Zn	0.992253	0.114820	0.079736
Zn16	Zn	1.492253	0.614820	0.579736
Zn17	Zn	0.992283	0.114828	-0.079818
Zn18	Zn	1.492283	0.614828	0.420182
O19	O	0.985578	0.237097	0.060502
O20	O	1.485578	0.737097	0.560502
C21	C	0.838695	0.120976	-0.000036
C22	C	1.338695	0.620976	0.499964
C23	C	0.745447	0.119331	-0.000033
C24	C	1.245447	0.619331	0.499967
C25	C	0.998392	-0.038746	-0.000035
C26	C	1.498392	0.461254	0.499965
C27	C	0.996729	-0.131992	-0.000034
C28	C	1.496729	0.368008	0.499966
C29	C	0.453911	0.194263	-0.000048
C30	C	0.953911	0.694263	0.499952
C31	C	0.514951	0.155315	-0.059755
C32	C	1.014951	0.655315	0.440245
C33	C	0.409810	0.113355	-0.000049
C34	C	0.909810	0.613355	0.499951
C35	C	0.514915	0.155287	0.059639
C36	C	1.014915	0.655287	0.559639
C37	C	0.574719	0.116296	-0.000040
C38	C	1.074719	0.616296	0.499960
C39	C	0.469623	0.074384	-0.059806
C40	C	0.969623	0.574384	0.440194
C41	C	0.469580	0.074367	0.059642
C42	C	0.969580	0.574367	0.559642
C43	C	0.530603	0.035360	-0.000080
C44	C	1.030603	0.535360	0.499920
C45	C	0.314810	0.111663	-0.000055
C46	C	0.814810	0.611663	0.499945
C47	C	0.669718	0.117981	-0.000039
C48	C	1.169718	0.617981	0.499961
C49	C	0.912823	-0.346833	-0.000042
C50	C	1.412823	0.153167	0.499958
C51	C	0.951775	-0.407860	0.059666
C52	C	1.451775	0.092140	0.559666
C53	C	0.993722	-0.302717	-0.000040
C54	C	1.493722	0.197283	0.499960
C55	C	0.951817	-0.407838	-0.059728
C56	C	1.451817	0.092162	0.440272
C57	C	0.990811	-0.467629	-0.000048
C58	C	1.490811	0.032371	0.499952
C59	C	1.032696	-0.362516	0.059718
C60	C	1.532696	0.137484	0.559718
C61	C	1.032726	-0.362487	-0.059731
C62	C	1.532726	0.137513	0.440269
C63	C	1.071737	-0.423497	-0.000008
C64	C	1.571737	0.076503	0.499992
C65	C	0.995397	-0.207715	-0.000034
C66	C	1.495397	0.292285	0.499966
C67	C	0.989143	-0.562630	-0.000049
C68	C	1.489143	-0.062630	0.499951
C69	C	1.145840	0.108672	-0.000048
C70	C	1.645840	0.608672	0.499952
C71	C	1.239089	0.110317	-0.000056
C72	C	1.739089	0.610317	0.499944
C73	C	0.986144	0.268394	-0.000049
C74	C	1.486144	0.768394	0.499951
C75	C	0.987806	0.361640	-0.000055
C76	C	1.487806	0.861640	0.499945
N77	N	0.992239	0.114814	0.188627
N78	N	1.492239	0.614814	0.688627
C79	C	1.049359	0.057731	0.226728
C80	C	1.549359	0.557731	0.726728
C81	C	1.049364	0.057728	0.302956
C82	C	1.549364	0.557728	0.802956
C83	C	0.992256	0.114821	0.341080
C84	C	1.492256	0.614821	0.841080
C85	C	0.935125	0.171908	0.302969
C86	C	1.435125	0.671908	0.802969
C87	C	0.935116	0.171905	0.226742
C88	C	1.435116	0.671905	0.726742
C89	C	0.981255	0.191322	0.461836
C90	C	1.481255	0.691322	0.961836
C91	C	0.981269	0.191327	0.538061
C92	C	1.481269	0.691327	1.038061
C93	C	0.992279	0.114833	0.576187
C94	C	1.492279	0.614833	1.076187
C95	C	1.003291	0.038330	0.538079
C96	C	1.503291	0.538330	1.038079
C97	C	1.003282	0.038326	0.461852
C98	C	1.503282	0.538326	0.961852
C99	C	0.992259	0.114831	0.423734
C100	C	1.492259	0.614831	0.923734
C101	C	1.049407	0.057741	0.696943
C102	C	1.549407	0.557741	1.196943
C103	C	1.049406	0.057736	0.773173
C104	C	1.549406	0.557736	1.273173
C105	C	0.935172	0.171925	0.773184
C106	C	1.435172	0.671925	1.273184
C107	C	0.935169	0.171922	0.696956
C108	C	1.435169	0.671922	1.196956
C109	C	0.992291	0.114831	0.658840
C110	C	1.492291	0.614831	1.158840
N111	N	0.992297	0.114830	0.811291
N112	N	1.492297	0.614830	1.311291
H113	H	0.420581	0.261409	-0.000109
H114	H	0.920581	0.761409	0.499891
H115	H	1.095879	0.011242	0.333984
H116	H	1.595879	0.511242	0.833984
H117	H	1.095918	0.011248	0.804195
H118	H	1.595918	0.511248	1.304195
H119	H	0.449653	0.040197	-0.110341
H120	H	0.949653	0.540197	0.389659
C121	C	0.575433	-0.055429	-0.000121
C122	C	1.075433	0.444571	0.499879
N123	N	0.609201	-0.123810	-0.000154
N124	N	1.109201	0.376190	0.499846
C125	C	0.442381	0.028175	0.127843
C126	C	0.942381	0.528175	0.627843
N127	N	0.421891	-0.006610	0.179218
N128	N	0.921891	0.493390	0.679218
H129	H	0.534981	0.189519	0.110115
H130	H	1.034981	0.689519	0.610115
C131	C	0.872313	0.234740	0.184830
C132	C	1.372313	0.734740	0.684830
N133	N	0.825023	0.282082	0.153260
N134	N	1.325023	0.782082	0.653260
H135	H	0.888671	0.218408	0.804224
H136	H	1.388671	0.718408	1.304224
C137	C	0.822110	-0.301812	0.000043
C138	C	1.322110	0.198188	0.500043
N139	N	0.753787	-0.267899	0.000111
N140	N	1.253787	0.232101	0.500111
C141	C	0.542123	0.201554	-0.127946
C142	C	1.042123	0.701554	0.372054
N143	N	0.562589	0.236388	-0.179303
N144	N	1.062589	0.736388	0.320697
C145	C	0.905536	-0.435025	0.127862
C146	C	1.405536	0.064975	0.627862
N147	N	0.870704	-0.455483	0.179223
N148	N	1.370704	0.044517	0.679223
H149	H	1.138946	-0.456668	0.000024
H150	H	1.638946	0.043332	0.500024
C151	C	1.078867	-0.335525	0.127989
C152	C	1.578867	0.164475	0.627989
N153	N	1.113639	-0.315192	0.179412
N154	N	1.613639	0.184808	0.679412
H155	H	1.066924	-0.342361	-0.110214
H156	H	1.566924	0.157639	0.389786
C157	C	1.015400	-0.045821	0.580011
C158	C	1.515400	0.454179	1.080011
N159	N	1.024521	-0.109201	0.611599
N160	N	1.524521	0.390799	1.111599
H161	H	0.917598	-0.427906	-0.110210
H162	H	1.417598	0.072094	0.389790
C163	C	1.112187	-0.005079	0.184805
C164	C	1.612187	0.494921	0.684805
N165	N	1.159507	-0.052390	0.153228
N166	N	1.659507	0.447610	0.653228
C167	C	1.015384	-0.045825	0.419936
C168	C	1.515384	0.454175	0.919936
N169	N	1.024495	-0.109209	0.388365
N170	N	1.524495	0.390791	0.888365
C171	C	1.112234	-0.005067	0.655014
C172	C	1.612234	0.494933	1.155014
N173	N	1.159555	-0.052376	0.623434
N174	N	1.659555	0.447624	1.123434
C175	C	0.872392	0.234779	0.655043
C176	C	1.372392	0.734779	1.155043
N177	N	0.825124	0.282145	0.623474
N178	N	1.325124	0.782145	1.123474
H179	H	0.972308	0.253620	0.569083
H180	H	1.472308	0.753620	1.069083
C181	C	0.969143	0.275478	0.419905
C182	C	1.469143	0.775478	0.919905
N183	N	0.960021	0.338862	0.388324
N184	N	1.460021	0.838862	0.888324
H185	H	0.888626	0.218394	0.334013
H186	H	1.388626	0.718394	0.834013
