data_functionalizedCrystal
_audit_creation_method	'MofGen! by Chris Wilmer'
_symmetry_space_group_name_H-M	'P1'
_symmetry_Int_Tables_number	1
_symmetry_cell_setting	triclinic
loop_
_symmetry_equiv_pos_as_xyz
  x,y,z
_cell_length_a	14.519709
_cell_length_b	15.944551
_cell_length_c	12.996460
_cell_angle_alpha	89.992903
_cell_angle_beta	90.000034
_cell_angle_gamma	83.589442
loop_
_atom_site_label
_atom_site_type_symbol
_atom_site_fract_x
_atom_site_fract_y
_atom_site_fract_z
O1	O	1.223676	0.110109	-0.085435
O2	O	1.723676	0.610109	0.414565
O3	O	0.955177	0.123076	-0.085467
O4	O	1.455177	0.623076	0.414533
O5	O	1.096759	-0.005672	-0.085441
O6	O	1.596759	0.494328	0.414559
O7	O	1.082094	0.238857	-0.085461
O8	O	1.582094	0.738857	0.414539
O9	O	1.096744	-0.005679	0.085693
O10	O	1.596744	0.494321	0.585693
O11	O	0.955162	0.123069	0.085667
O12	O	1.455162	0.623069	0.585667
O13	O	1.223661	0.110102	0.085699
O14	O	1.723661	0.610102	0.585699
Cu15	Cu	1.089410	0.116585	0.101309
Cu16	Cu	1.589410	0.616585	0.601309
Cu17	Cu	1.089428	0.116593	-0.101077
Cu18	Cu	1.589428	0.616593	0.398923
O19	O	1.082080	0.238849	0.085673
O20	O	1.582080	0.738849	0.585673
C21	C	0.920810	0.122468	0.000096
C22	C	1.420810	0.622468	0.500096
C23	C	0.818432	0.120657	0.000084
C24	C	1.318432	0.620657	0.500084
C25	C	1.096142	-0.036970	0.000126
C26	C	1.596142	0.463030	0.500126
C27	C	1.094317	-0.130219	0.000126
C28	C	1.594317	0.369781	0.500126
C29	C	0.443548	0.113990	0.000132
C30	C	0.943548	0.613990	0.500132
C31	C	0.547853	0.115842	0.000118
C32	C	1.047853	0.615842	0.500118
C33	C	0.630987	0.117323	0.000107
C34	C	1.130987	0.617323	0.500107
C35	C	0.735298	0.119175	0.000095
C36	C	1.235298	0.619175	0.500095
C37	C	1.002196	-0.345209	0.000101
C38	C	1.502196	0.154791	0.500101
C39	C	1.044967	-0.406168	0.084486
C40	C	1.544967	0.093832	0.584486
C41	C	1.091015	-0.300950	0.000118
C42	C	1.591015	0.199050	0.500118
C43	C	1.045002	-0.406144	-0.084239
C44	C	1.545002	0.093856	0.415761
C45	C	1.087820	-0.465867	0.000106
C46	C	1.587820	0.034133	0.500106
C47	C	1.133811	-0.360680	0.084572
C48	C	1.633811	0.139320	0.584572
C49	C	1.133834	-0.360650	-0.084228
C50	C	1.633834	0.139350	0.415772
C51	C	1.176669	-0.421591	0.000177
C52	C	1.676669	0.078409	0.500177
C53	C	1.092854	-0.205945	0.000126
C54	C	1.592854	0.294055	0.500126
C55	C	1.085988	-0.560871	0.000105
C56	C	1.585988	-0.060871	0.500105
C57	C	1.258028	0.110710	0.000133
C58	C	1.758028	0.610710	0.500133
C59	C	1.360406	0.112521	0.000139
C60	C	1.860406	0.612521	0.500139
C61	C	1.082696	0.270148	0.000103
C62	C	1.582696	0.770148	0.500103
C63	C	1.084521	0.363397	0.000096
C64	C	1.584521	0.863397	0.500096
N65	N	1.089405	0.116578	0.243656
N66	N	1.589405	0.616578	0.743656
N67	N	1.089441	0.116593	-0.243424
N68	N	1.589441	0.616593	0.256576
C69	C	1.089426	0.116594	0.663470
C70	C	1.589426	0.616594	1.163470
C71	C	1.089418	0.116592	0.546665
C72	C	1.589418	0.616592	1.046665
C73	C	1.089416	0.116587	0.453567
C74	C	1.589416	0.616587	0.953567
C75	C	1.089406	0.116584	0.336754
C76	C	1.589406	0.616584	0.836754
H77	H	1.007393	-0.426334	0.155817
H78	H	1.507393	0.073666	0.655817
H79	H	1.171340	-0.340638	0.155991
H80	H	1.671340	0.159362	0.655991
H81	H	1.250458	-0.454643	0.000233
H82	H	1.750458	0.045357	0.500233
C83	C	1.124395	-0.276736	-0.238058
C84	C	1.624395	0.223264	0.261942
C85	C	1.184513	-0.333385	-0.180524
C86	C	1.684513	0.166615	0.319476
H87	H	1.155680	-0.259899	-0.297509
H88	H	1.655680	0.240101	0.202491
H89	H	1.071919	-0.303350	-0.258317
H90	H	1.571919	0.196650	0.241683
H91	H	1.104827	-0.228534	-0.197369
H92	H	1.604827	0.271466	0.302631
H93	H	1.204076	-0.381590	-0.221210
H94	H	1.704076	0.118410	0.278790
H95	H	1.237006	-0.306772	-0.160266
H96	H	1.737006	0.193228	0.339734
C97	C	0.856377	-0.323192	0.088667
C98	C	1.356377	0.176808	0.588667
C99	C	0.902675	-0.300381	0.000199
C100	C	1.402675	0.199619	0.500199
H101	H	0.794942	-0.295511	0.088732
H102	H	1.294942	0.204489	0.588732
H103	H	0.854537	-0.382550	0.089271
H104	H	1.354537	0.117450	0.589271
H105	H	0.888249	-0.306971	0.147998
H106	H	1.388249	0.193029	0.647998
H107	H	0.870807	-0.316608	-0.059132
H108	H	1.370807	0.183392	0.440868
H109	H	0.904511	-0.241010	-0.000415
H110	H	1.404511	0.258990	0.499585
C111	C	0.902942	-0.394380	-0.180384
C112	C	1.402942	0.105620	0.319616
C113	C	0.994283	-0.433328	-0.180548
C114	C	1.494283	0.066672	0.319452
H115	H	0.871630	-0.411156	-0.239842
H116	H	1.371630	0.088844	0.260158
H117	H	0.871994	-0.410733	-0.120479
H118	H	1.371994	0.089267	0.379521
H119	H	0.903258	-0.334836	-0.180738
H120	H	1.403258	0.165164	0.319262
H121	H	0.993967	-0.492873	-0.180187
H122	H	1.493967	0.007127	0.319813
H123	H	1.025239	-0.416981	-0.240469
H124	H	1.525239	0.083019	0.259531
