data_functionalizedCrystal
_audit_creation_method	'MofGen! by Chris Wilmer'
_symmetry_space_group_name_H-M	'P1'
_symmetry_Int_Tables_number	1
_symmetry_cell_setting	triclinic
loop_
_symmetry_equiv_pos_as_xyz
  x,y,z
_cell_length_a	15.625950
_cell_length_b	15.538191
_cell_length_c	14.185569
_cell_angle_alpha	82.127072
_cell_angle_beta	120.545593
_cell_angle_gamma	66.741480
loop_
_atom_site_label
_atom_site_type_symbol
_atom_site_fract_x
_atom_site_fract_y
_atom_site_fract_z
O1	O	1.281604	0.025220	0.382623
O2	O	0.978092	0.068055	0.272256
O3	O	1.188928	-0.095910	0.348918
O4	O	1.070769	0.189185	0.305961
O5	O	1.251209	-0.144342	0.538399
O6	O	1.040373	0.019623	0.461737
O7	O	1.343885	-0.023211	0.572104
Cu8	Cu	1.197816	-0.006216	0.534221
Cu9	Cu	1.124161	0.051060	0.310138
O10	O	1.133050	0.140753	0.495442
C11	C	0.971336	0.046695	0.353216
C12	C	0.858422	0.055194	0.312156
C13	C	0.656649	-0.048765	0.693398
C14	C	0.550523	-0.040746	0.654760
C15	C	0.482679	0.012048	0.448215
C16	C	0.588800	0.004038	0.486835
C17	C	0.675779	-0.026370	0.609428
C18	C	0.607929	0.026434	0.402865
C19	C	0.714043	0.018419	0.441483
C20	C	0.801028	-0.011990	0.564071
C21	C	0.781893	-0.034384	0.648046
C22	C	0.520952	0.056835	0.280274
C23	C	0.540081	0.079230	0.196304
C24	C	0.646193	0.071223	0.234920
C25	C	0.733178	0.040813	0.357508
C26	C	0.665329	0.093617	0.150945
C27	C	0.771443	0.085603	0.189563
C28	C	0.839293	0.032799	0.396126
C29	C	1.232430	-0.156354	0.448150
C30	C	1.269251	-0.264303	0.461530
C31	C	0.903412	-0.518542	0.328520
C32	C	0.938041	-0.619985	0.341115
C33	C	1.132819	-0.660294	0.411942
C34	C	1.098204	-0.558851	0.399347
C35	C	0.983499	-0.487982	0.357637
C36	C	1.178291	-0.528291	0.428465
C37	C	1.143681	-0.426859	0.415877
C38	C	1.028982	-0.355986	0.374172
C39	C	0.948889	-0.386550	0.345050
C40	C	1.292998	-0.599164	0.470182
C41	C	1.373085	-0.568604	0.499300
C42	C	1.338472	-0.467168	0.486704
C43	C	1.223774	-0.396295	0.445000
C44	C	1.418566	-0.436604	0.515827
C45	C	1.383955	-0.335171	0.503239
C46	C	1.189164	-0.294862	0.432412
C47	C	1.350640	-0.001851	0.491141
C48	C	1.463552	-0.010348	0.532194
C49	C	1.089547	0.201198	0.396207
C50	C	1.052723	0.309149	0.382820
N51	N	1.249628	-0.046503	0.691832
N52	N	1.072360	0.091338	0.152532
C53	C	0.920150	0.209656	0.939680
C54	C	0.959402	0.179146	1.058974
C55	C	1.146108	0.034002	1.126823
C56	C	1.106869	0.064497	1.007532
C57	C	0.993890	0.152326	0.913969
C58	C	1.180609	0.007167	0.981820
C59	C	1.141376	0.037663	0.862540
C60	C	1.028403	0.125490	0.768972
C61	C	0.954657	0.182822	0.794688
C62	C	1.293591	-0.080657	1.075387
C63	C	1.367331	-0.137988	1.049675
C64	C	1.328095	-0.107496	0.930392
C65	C	1.215122	-0.019669	0.836823
C66	C	1.401841	-0.164828	0.904675
C67	C	1.362607	-0.134331	0.785395
C68	C	1.175888	0.010828	0.717543
H69	H	0.910110	0.008052	0.495951
H70	H	0.872821	-0.644863	0.317417
N71	N	1.542280	-0.513056	0.560829
H72	H	1.537901	-0.538097	0.497397
H73	H	1.587703	-0.478247	0.577382
N74	N	1.442118	-0.196190	0.757650
H75	H	1.400115	-0.163547	0.667887
H76	H	1.517522	-0.196906	0.803393
N77	N	0.915484	-0.020642	0.605724
H78	H	0.897769	0.048898	0.563588
H79	H	0.967629	-0.043343	0.696131
H80	H	1.459322	-0.209497	1.125868
N81	N	0.825183	-0.310096	0.300086
H82	H	0.783394	-0.249155	0.223051
H83	H	0.779777	-0.344916	0.283619
H84	H	1.226213	-0.718009	0.445906
H85	H	0.469252	0.103984	0.096489
N86	N	1.523699	-0.259544	1.005595
H87	H	1.537366	-0.270159	1.085061
H88	H	1.529855	-0.322245	0.989483
N89	N	1.470332	-0.302203	0.534651
H90	H	1.495850	-0.310707	0.482086
H91	H	1.430926	-0.227204	0.520364
N92	N	0.875709	-0.067167	0.780269
H93	H	0.847490	-0.080134	0.827609
H94	H	0.951176	-0.132750	0.811685
N95	N	1.330329	-0.708568	0.483765
H96	H	1.277346	-0.707139	0.402652
H97	H	1.415162	-0.748766	0.514658
H98	H	0.727467	-0.073512	0.793223
H99	H	0.828147	0.281169	0.863493
N100	N	0.529900	-0.064909	0.745341
H101	H	0.601445	-0.086082	0.828977
H102	H	0.457871	-0.001414	0.723413
N103	N	0.388870	0.044835	0.315997
H104	H	0.318745	0.046512	0.304272
H105	H	0.362641	0.116072	0.266754
H106	H	0.434546	0.063364	0.248834
H107	H	0.996462	0.150322	0.671848
N108	N	0.571523	0.126395	0.018729
H109	H	0.501401	0.128066	0.007008
H110	H	0.545286	0.197631	-0.030523
N111	N	0.792088	0.109751	0.099003
H112	H	0.720885	0.130233	0.015481
H113	H	0.804681	0.168681	0.099639
H114	H	1.095757	-0.237154	0.398439
H115	H	1.000807	-0.273395	0.363931
H116	H	0.810006	-0.460833	0.294547
H117	H	1.083885	0.082340	0.641356
N118	N	1.496801	-0.645045	0.544296
H119	H	1.506577	-0.713941	0.547857
H120	H	1.510194	-0.618167	0.487317
N121	N	0.832794	0.277544	0.693759
H122	H	0.792025	0.309236	0.728142
H123	H	0.840209	0.329693	0.652879
N124	N	1.267962	-0.060720	1.227739
H125	H	1.281630	-0.071341	1.307206
H126	H	1.274108	-0.123415	1.211617
N127	N	1.335907	-0.113553	1.204039
H128	H	1.418670	-0.177885	1.259410
H129	H	1.336382	-0.056008	1.229429
H130	H	0.899345	0.225840	1.079897
