data_functionalizedCrystal
_audit_creation_method	'MofGen! by Chris Wilmer'
_symmetry_space_group_name_H-M	'P1'
_symmetry_Int_Tables_number	1
_symmetry_cell_setting	triclinic
loop_
_symmetry_equiv_pos_as_xyz
  x,y,z
_cell_length_a	20.919309
_cell_length_b	14.395555
_cell_length_c	14.395555
_cell_angle_alpha	90.002465
_cell_angle_beta	62.591508
_cell_angle_gamma	57.440906
loop_
_atom_site_label
_atom_site_type_symbol
_atom_site_fract_x
_atom_site_fract_y
_atom_site_fract_z
Zr1	Zr	0.700740	-0.161478	0.934542
O2	O	0.834312	-0.317368	0.793761
O3	O	0.567175	-0.108453	0.972461
O4	O	0.700744	-0.309806	0.980008
O5	O	0.700739	0.036859	0.786219
O6	O	0.700739	-0.309798	1.132882
O7	O	0.700744	-0.116015	0.786214
O8	O	0.461809	0.050386	1.119381
O9	O	0.939668	-0.323325	0.799720
O10	O	0.622106	-0.092159	1.109049
O11	O	0.622106	0.021923	0.994965
O12	O	0.779366	-0.215144	1.003852
O13	O	0.779366	-0.101062	0.889767
Zr14	Zr	0.700725	0.082352	1.178366
Zr15	Zr	0.700733	-0.161465	1.178358
Zr16	Zr	0.700733	0.082339	0.934550
Zr17	Zr	0.868772	-0.170978	0.944046
Zr18	Zr	0.532694	0.091852	1.168863
O19	O	0.834290	0.029327	1.140448
O20	O	0.834301	-0.317349	1.140436
O21	O	0.834301	0.029308	0.793773
O22	O	0.567153	0.238242	1.319148
O23	O	0.567164	-0.108434	1.319136
O24	O	0.567164	0.238223	0.972472
O25	O	0.700727	-0.115985	1.326690
O26	O	0.700722	0.230680	1.132900
O27	O	0.700727	0.230672	0.980026
O28	O	0.700722	0.036889	1.326695
O29	O	0.939662	-0.323314	0.993521
O30	O	0.461803	0.244188	1.119387
O31	O	0.461797	0.244199	1.313189
O32	O	0.461803	0.050397	1.313182
O33	O	0.939662	-0.129523	0.799726
O34	O	0.939656	-0.129512	0.993528
O35	O	0.622099	0.136018	1.109057
O36	O	0.622099	0.021936	1.223141
O37	O	0.779359	-0.101049	1.117943
O38	O	0.779359	0.013033	1.003859
C39	C	0.490551	-0.027680	1.044567
C40	C	0.419218	-0.023647	1.040532
C41	C	0.700742	-0.039580	0.751478
C42	C	0.700745	-0.039585	0.647971
C43	C	0.700723	0.265415	1.056464
C44	C	0.700720	0.368922	1.056468
C45	C	0.385705	-0.081302	1.098185
C46	C	0.318675	-0.077502	1.094397
C47	C	0.285163	-0.016052	1.032949
C48	C	0.318678	0.041610	0.975295
C49	C	0.385703	0.037816	0.979090
C50	C	0.082788	-0.001611	1.018517
C51	C	0.015761	0.002176	1.014724
C52	C	0.015760	-0.116934	1.133827
C53	C	0.082790	-0.120729	1.137612
C54	C	0.116296	-0.063061	1.079962
C55	C	0.216649	-0.012169	1.029073
C56	C	0.184804	-0.066938	1.083846
C57	C	0.910914	-0.051446	1.068342
C58	C	0.982248	-0.055479	1.072376
C59	C	0.700742	-0.344541	1.056444
C60	C	0.700745	-0.448047	1.056441
C61	C	0.614975	0.496567	1.113821
C62	C	0.657837	0.524975	1.161328
C63	C	0.657862	0.524938	1.008985
C64	C	0.743582	0.395965	1.104037
C65	C	0.743595	0.395932	0.951634
C66	C	0.786519	0.424263	0.999117
C67	C	0.786490	-0.106632	0.530024
C68	C	0.743629	-0.149286	0.496763
C69	C	0.743604	0.003060	0.496809
C70	C	0.657883	-0.082301	0.616073
C71	C	0.657871	0.070103	0.616117
C72	C	0.614946	0.027480	0.582926
C73	C	0.700723	-0.039546	1.361431
C74	C	0.700720	-0.039540	1.464937
C75	C	0.490542	-0.027663	1.349544
C76	C	0.419205	-0.023625	1.449016
C77	C	0.490542	0.277298	1.044577
C78	C	0.419205	0.384838	1.040546
C79	C	0.490532	0.277315	1.349554
C80	C	0.419192	0.384860	1.449029
C81	C	0.910933	-0.356440	0.763355
C82	C	0.982273	-0.463986	0.663879
C83	C	0.910924	-0.051463	0.763365
C84	C	0.982261	-0.055501	0.663893
C85	C	0.910924	-0.356424	1.068332
C86	C	0.982261	-0.463963	1.072363
C87	C	0.385708	-0.081294	1.436174
C88	C	0.318689	-0.077523	1.529629
C89	C	0.285163	-0.016074	1.635925
C90	C	0.318666	0.041597	1.648765
C91	C	0.385689	0.037818	1.555311
C92	C	0.385701	0.494906	1.098208
C93	C	0.318681	0.595960	1.094416
C94	C	0.285163	0.586943	1.032969
C95	C	0.318674	0.476863	0.975300
C96	C	0.385697	0.375811	0.979086
C97	C	0.385690	0.375815	1.555305
C98	C	0.318668	0.476855	1.648782
C99	C	0.285144	0.586940	1.635981
C100	C	0.318653	0.595983	1.529695
C101	C	0.385679	0.494943	1.436220
C102	C	1.015783	-0.454941	0.557604
C103	C	1.082827	-0.555983	0.464128
C104	C	1.116354	-0.666068	0.476929
C105	C	1.082841	-0.675110	0.583216
C106	C	1.015803	-0.574070	0.676690
C107	C	1.015764	0.002158	0.676735
C108	C	1.082802	-0.001641	0.583281
C109	C	1.116330	-0.063094	0.476985
C110	C	1.082824	-0.120760	0.464145
C111	C	1.015792	-0.116967	0.557598
C112	C	1.015758	-0.454909	1.133820
C113	C	1.082777	-0.555944	1.137630
C114	C	1.116303	-0.666033	1.079974
C115	C	1.082800	-0.675085	1.018514
C116	C	1.015777	-0.574050	1.014712
H117	H	0.412990	-0.131347	1.148216
C118	C	1.190033	-0.777163	1.084166
N119	N	1.245567	-0.860863	1.087325
C120	C	1.119722	-0.796215	0.597278
N121	N	1.147497	-0.887434	0.607866
C122	C	0.281812	0.466882	1.765687
N123	N	0.254053	0.459368	1.853737
H124	H	0.988489	-0.365313	0.547160
H125	H	0.189356	0.037863	0.979042
C126	C	0.517034	0.536447	1.179452
N127	N	0.443269	0.566472	1.228891
C128	C	1.190064	-0.067248	0.374193
N129	N	1.245597	-0.070370	0.296774
H130	H	1.110107	-0.764732	0.971573
C131	C	0.211407	0.698077	1.738818
N132	N	0.155865	0.781781	1.816279
H133	H	0.412975	0.286187	1.565749
H134	H	0.988511	-0.581439	0.964662
C135	C	0.978887	-0.333820	1.197259
N136	N	0.951115	-0.242619	1.245050
H137	H	1.110101	-0.548597	0.377594
H138	H	1.110049	-0.548551	1.187675
H139	H	0.412984	0.502270	1.148245
H140	H	-0.011521	0.052215	0.964681
H141	H	0.291348	0.685627	1.519288
C142	C	0.281772	0.109197	1.765701
N143	N	0.253975	0.160120	1.853780
C144	C	0.422579	-0.148905	1.319256
N145	N	0.450350	-0.199839	1.231197
C146	C	0.978935	-0.180386	0.543453
N147	N	0.951175	-0.228155	0.532790
C148	C	0.281835	-0.140960	1.157789
N149	N	0.254095	-0.188770	1.205530
H150	H	0.291418	-0.124486	1.519153
H151	H	0.412947	0.502324	1.349688
C152	C	0.792578	0.051766	0.427306
N153	N	0.829471	0.088444	0.374956
H154	H	0.859084	0.394500	0.950618
C155	C	0.608888	0.599987	0.954743
N156	N	0.571994	0.656515	0.913894
C157	C	1.190090	-0.777204	0.374092
N158	N	1.245624	-0.860908	0.296631
C159	C	0.608969	-0.131154	0.685383
N160	N	0.572131	-0.167954	0.737586
C161	C	0.792495	0.321117	1.158420
N162	N	0.829332	0.264743	1.199386
C163	C	0.422534	0.254739	0.915662
N164	N	0.450276	0.163549	0.867890
H165	H	0.988520	-0.581448	0.763221
C166	C	0.608973	0.195352	0.685670
N167	N	0.572157	0.289686	0.738060
C168	C	0.978900	0.069758	0.793653
N169	N	0.951143	0.120671	0.881714
H170	H	0.291405	0.685581	1.141382
H171	H	0.110074	-0.170765	1.187647
H172	H	1.110072	0.045323	0.593757
H173	H	0.779804	0.340372	0.863005
H174	H	1.110133	-0.170794	0.377586
C175	C	0.516919	0.104085	0.612032
N176	N	0.443086	0.161777	0.633950
C177	C	0.608877	0.600045	1.281083
N178	N	0.571994	0.656591	1.371284
C179	C	0.119607	0.061869	0.955140
N180	N	0.147331	0.109701	0.907417
H181	H	-0.011528	-0.163883	1.180764
H182	H	0.412990	0.084761	0.932141
C183	C	0.792599	-0.274565	0.427186
N184	N	0.829492	-0.368923	0.374767
H185	H	0.230588	-0.013005	1.712013
H186	H	0.291383	0.091650	0.925270
H187	H	0.212088	-0.116965	1.133881
H188	H	0.412954	0.084787	1.565782
C189	C	0.211427	0.698115	1.028828
N190	N	0.155885	0.781854	1.025718
H191	H	0.858996	-0.163412	0.508679
H192	H	0.291373	0.469538	0.925271
