data_functionalizedCrystal
_audit_creation_method	'MofGen! by Chris Wilmer'
_symmetry_space_group_name_H-M	'P1'
_symmetry_Int_Tables_number	1
_symmetry_cell_setting	triclinic
loop_
_symmetry_equiv_pos_as_xyz
  x,y,z
_cell_length_a	13.032831
_cell_length_b	16.625545
_cell_length_c	13.032268
_cell_angle_alpha	97.146495
_cell_angle_beta	90.886977
_cell_angle_gamma	82.830132
loop_
_atom_site_label
_atom_site_type_symbol
_atom_site_fract_x
_atom_site_fract_y
_atom_site_fract_z
Zn1	Zn	1.498388	-0.544519	-0.780799
Zn2	Zn	1.520110	-0.664649	-0.608812
Zn3	Zn	1.348252	-0.510837	-0.587043
Zn4	Zn	1.326359	-0.660290	-0.758937
O5	O	1.423278	-0.595074	-0.683898
O6	O	1.645188	-0.576375	-0.776245
O7	O	1.515566	-0.631974	-0.462008
O8	O	1.368240	-0.402483	-0.612784
O9	O	1.661147	-0.664634	-0.649886
O10	O	1.478544	-0.427229	-0.755136
O11	O	1.389303	-0.518968	-0.446014
O12	O	1.201430	-0.514741	-0.591585
O13	O	1.330926	-0.657204	-0.905753
O14	O	1.185345	-0.624544	-0.717875
O15	O	1.457315	-0.572148	-0.921815
O16	O	1.494338	-0.776892	-0.628687
O17	O	1.351989	-0.773690	-0.738984
C18	C	1.156071	-0.565515	-0.649996
C19	C	1.041756	-0.552891	-0.635517
C20	C	0.982872	-0.601662	-0.691454
C21	C	0.864721	-0.588616	-0.676491
C22	C	1.423170	-0.804549	-0.683851
C23	C	1.423214	-0.894177	-0.683878
C24	C	1.423251	-0.966966	-0.683903
C25	C	1.423308	-1.058283	-0.683933
C26	C	1.423360	-1.131066	-0.683953
C27	C	1.423416	-1.222389	-0.683982
C28	C	1.691527	-0.624748	-0.717932
C29	C	1.805839	-0.637394	-0.732436
C30	C	1.389256	-0.617947	-0.952143
C31	C	1.374757	-0.627694	-1.066454
C32	C	1.423411	-0.384785	-0.683971
C33	C	1.423468	-0.295172	-0.684002
C34	C	1.430828	-0.589956	-1.125364
C35	C	1.415845	-0.600029	-1.243510
C36	C	1.457226	-0.572238	-0.416703
C37	C	1.471924	-0.562285	-0.302419
H38	H	0.827668	-0.537197	-0.617524
C39	C	1.294919	-0.681417	-1.116465
H40	H	1.261678	-0.703783	-1.064183
H41	H	1.328959	-0.724443	-1.163355
H42	H	1.244847	-0.649159	-1.152694
H43	H	1.489921	-0.550185	-1.088332
H44	H	0.842890	-0.688806	-0.791414
C45	C	1.032923	-0.671117	-0.771117
H46	H	1.105769	-0.670777	-0.770719
H47	H	1.006619	-0.663374	-0.838038
H48	H	1.017271	-0.722056	-0.753727
H49	H	1.004698	-0.501476	-0.576554
H50	H	1.356737	-0.639793	-1.280536
C51	C	1.551765	-0.508559	-1.252410
H52	H	1.551368	-0.508839	-1.179564
H53	H	1.534540	-0.454211	-1.268076
H54	H	1.618651	-0.529495	-1.278727
