data_functionalizedCrystal
_audit_creation_method	'MofGen! by Chris Wilmer'
_symmetry_space_group_name_H-M	'P1'
_symmetry_Int_Tables_number	1
_symmetry_cell_setting	triclinic
loop_
_symmetry_equiv_pos_as_xyz
  x,y,z
_cell_length_a	13.339070
_cell_length_b	19.188930
_cell_length_c	12.376457
_cell_angle_alpha	101.232575
_cell_angle_beta	75.589755
_cell_angle_gamma	99.387037
loop_
_atom_site_label
_atom_site_type_symbol
_atom_site_fract_x
_atom_site_fract_y
_atom_site_fract_z
O1	O	1.360197	0.340100	-0.094096
O2	O	1.065870	0.294198	-0.094082
O3	O	1.221523	0.217159	-0.094067
O4	O	1.204545	0.417139	-0.094111
O5	O	1.182624	0.236385	0.093941
O6	O	1.026971	0.313424	0.093926
O7	O	1.321298	0.359326	0.093913
Zn8	Zn	1.167958	0.339428	0.123770
Zn9	Zn	1.219210	0.314097	-0.123939
O10	O	1.165645	0.436365	0.093898
C11	C	1.008765	0.296057	-0.000076
C12	C	0.896565	0.272945	-0.000070
C13	C	0.530988	0.452652	-0.000127
C14	C	0.636407	0.474369	-0.000136
C15	C	0.701451	0.424015	-0.000119
C16	C	0.661067	0.351940	-0.000094
C17	C	0.555640	0.330220	-0.000093
C18	C	0.726103	0.301583	-0.000086
C19	C	0.685719	0.229508	-0.000060
C20	C	0.580302	0.207792	-0.000059
C21	C	0.515258	0.258146	-0.000076
C22	C	0.831530	0.323303	-0.000086
C23	C	0.856182	0.200871	-0.000053
C24	C	0.750763	0.179154	-0.000043
C25	C	1.201522	0.200654	-0.000060
C26	C	1.199869	0.122827	-0.000050
C27	C	1.291202	0.095789	-0.000049
C28	C	1.289655	0.022659	-0.000067
C29	C	1.196764	-0.023428	-0.000063
C30	C	1.105420	0.003617	-0.000071
C31	C	1.106972	0.076744	-0.000064
N32	N	1.112522	-0.138794	0.063923
N33	N	1.111052	-0.208261	0.063919
C34	C	1.192081	-0.243757	-0.000086
N35	N	1.274646	-0.207158	-0.064073
N36	N	1.276118	-0.137684	-0.064064
C37	C	1.195070	-0.102723	-0.000071
C38	C	1.281743	-0.350089	-0.000106
C39	C	1.280193	-0.423221	-0.000131
C40	C	1.095953	-0.442261	-0.000124
C41	C	1.097508	-0.369132	-0.000110
C42	C	1.190404	-0.323049	-0.000096
C43	C	1.378403	0.357467	-0.000096
C44	C	1.490606	0.380578	-0.000110
C45	C	1.185646	0.452870	-0.000112
C46	C	1.187301	0.530696	-0.000130
N47	N	1.132988	0.356716	0.292825
N48	N	1.254188	0.296804	-0.292994
C49	C	1.335365	0.256657	0.647829
C50	C	1.359835	0.244556	0.529492
C51	C	1.303125	0.272595	0.470319
C52	C	1.221942	0.312738	0.529496
C53	C	1.197474	0.324845	0.647845
C54	C	1.165235	0.340783	0.470335
C55	C	1.084051	0.380926	0.529511
C56	C	1.059587	0.393031	0.647849
C57	C	1.116297	0.364992	0.707021
C58	C	1.189702	0.328675	0.351986
C59	C	1.051811	0.396863	0.352001
C60	C	1.027341	0.408964	0.470339
H61	H	1.366847	0.133305	-0.000041
H62	H	1.364033	0.000640	-0.000070
O63	O	0.926327	0.146557	-0.000022
H64	H	0.927876	0.105200	-0.076647
H65	H	0.993491	0.425724	0.696030
O66	O	1.005224	-0.046084	-0.000055
H67	H	1.019484	-0.101475	-0.000043
O68	O	1.396533	0.226423	0.711645
H69	H	1.342996	0.189773	0.765580
O70	O	1.089908	0.378054	0.834662
H71	H	1.142985	0.351814	0.865860
O72	O	0.939789	0.452269	0.534167
H73	H	0.932313	0.455980	0.626396
O74	O	1.381936	-0.300382	-0.000104
H75	H	1.402895	-0.274431	-0.076724
O76	O	1.378704	-0.452388	-0.000120
H77	H	1.443554	-0.408054	-0.000095
O78	O	0.990629	0.427096	0.288186
H79	H	1.044169	0.463735	0.234234
O80	O	0.875073	0.401039	-0.000092
H81	H	0.864777	0.418391	-0.076721
O82	O	0.815151	0.447435	-0.000111
H83	H	0.832302	0.506013	-0.000118
H84	H	0.669282	0.533052	-0.000166
O85	O	0.460837	0.506960	-0.000136
H86	H	0.380747	0.479748	-0.000122
H87	H	0.429416	0.240467	-0.000068
H88	H	0.547428	0.149102	-0.000051
O89	O	0.707205	0.101416	-0.000022
H90	H	0.622975	0.094777	-0.000031
O91	O	1.008456	0.105915	-0.000046
H92	H	0.943598	0.061586	-0.000039
O93	O	0.995757	-0.491957	-0.000115
H94	H	1.010018	-0.547350	-0.000112
H95	H	1.425935	0.211873	0.481314
H96	H	1.023133	-0.347117	-0.000105
O97	O	1.277241	0.285368	0.288156
H98	H	1.351305	0.311864	0.310844
O99	O	1.329499	0.259533	0.342683
H100	H	1.395468	0.226901	0.311474
