data_functionalizedCrystal
_audit_creation_method	'MofGen! by Chris Wilmer'
_symmetry_space_group_name_H-M	'P1'
_symmetry_Int_Tables_number	1
_symmetry_cell_setting	triclinic
loop_
_symmetry_equiv_pos_as_xyz
  x,y,z
_cell_length_a	29.839131
_cell_length_b	19.805407
_cell_length_c	19.805399
_cell_angle_alpha	89.980427
_cell_angle_beta	89.970435
_cell_angle_gamma	90.041420
loop_
_atom_site_label
_atom_site_type_symbol
_atom_site_fract_x
_atom_site_fract_y
_atom_site_fract_z
Zn1	Zn	-0.178864	1.034665	-0.382710
Zn2	Zn	-0.253991	1.034550	-0.269518
Zn3	Zn	-0.178876	0.921480	-0.269535
Zn4	Zn	-0.253967	0.921414	-0.382665
O5	O	-0.216425	0.978027	-0.326107
O6	O	-0.188834	1.129366	-0.367707
O7	O	-0.244042	1.019531	-0.174804
O8	O	-0.116007	0.936570	-0.284574
O9	O	-0.244030	1.129282	-0.284545
O10	O	-0.115998	1.019727	-0.367723
O11	O	-0.188856	0.936458	-0.174816
O12	O	-0.188832	0.826754	-0.284530
O13	O	-0.243990	0.936457	-0.477388
O14	O	-0.244002	0.826706	-0.367646
O15	O	-0.188811	1.019662	-0.477421
O16	O	-0.316855	1.019467	-0.284501
O17	O	-0.316838	0.936346	-0.367630
C18	C	-0.216416	0.802171	-0.326085
C19	C	-0.216423	0.726939	-0.326092
C20	C	-0.333147	0.977905	-0.326073
C21	C	-0.383082	0.977915	-0.326082
C22	C	-0.245193	0.691587	-0.369300
C23	C	-0.245194	0.620899	-0.369310
C24	C	-0.216427	0.585564	-0.326107
C25	C	-0.187654	0.620920	-0.282897
C26	C	-0.187651	0.691607	-0.282891
C27	C	-0.187664	0.335847	-0.282919
C28	C	-0.187669	0.265155	-0.282927
C29	C	-0.245207	0.265139	-0.369338
C30	C	-0.245204	0.335826	-0.369332
C31	C	-0.216429	0.371176	-0.326125
C32	C	-0.216428	0.447825	-0.326116
C33	C	-0.216430	0.508916	-0.326112
C34	C	-0.692722	1.021387	-0.282885
C35	C	-0.880395	1.021471	-0.282912
O36	O	-0.904656	1.058335	-0.246159
N37	N	-0.903867	0.978168	-0.326158
C38	C	-0.880418	0.934844	-0.369404
O39	O	-0.904688	0.898019	-0.406194
C40	C	-0.692746	0.934764	-0.369381
C41	C	-0.669276	0.978065	-0.326127
C42	C	-0.669252	1.064685	-0.239635
C43	C	-0.622336	1.064661	-0.239626
C44	C	-0.598891	1.021339	-0.282868
C45	C	-0.622360	0.978041	-0.326118
C46	C	-0.669297	0.891444	-0.412630
C47	C	-0.622376	0.891429	-0.412621
C48	C	-0.598907	0.934730	-0.369367
C49	C	-0.551999	0.934695	-0.369351
N50	N	-0.528527	0.977998	-0.326104
C51	C	-0.551973	1.021320	-0.282863
C52	C	-0.978948	0.934888	-0.369412
C53	C	-1.025866	0.934907	-0.369418
C54	C	-1.025840	1.021534	-0.282926
C55	C	-0.978921	1.021512	-0.282918
C56	C	-0.955476	0.978191	-0.326166
C57	C	-0.453447	1.021266	-0.282847
C58	C	-0.406527	1.021237	-0.282840
C59	C	-0.406558	0.934611	-0.369334
C60	C	-0.453473	0.934638	-0.369339
C61	C	-0.476917	0.977971	-0.326093
O62	O	-0.527708	0.897855	-0.406090
O63	O	-0.527694	1.058150	-0.246090
C64	C	-0.739637	1.021411	-0.282894
C65	C	-0.763107	0.978113	-0.326144
C66	C	-0.739661	0.934791	-0.369386
C67	C	-0.810025	0.978132	-0.326149
C68	C	-0.833470	1.021454	-0.282908
C69	C	-0.809998	1.064757	-0.239661
C70	C	-0.763083	1.064733	-0.239653
C71	C	-0.763133	0.891488	-0.412632
C72	C	-0.810049	0.891515	-0.412637
C73	C	-0.833494	0.934837	-0.369395
C74	C	-0.099246	0.978168	-0.326156
C75	C	-0.049312	0.978228	-0.326176
C76	C	-0.216396	0.978065	-0.502650
C77	C	-0.216384	0.978081	-0.577882
C78	C	-0.216434	1.154570	-0.326129
C79	C	-0.216437	1.229802	-0.326139
C80	C	-0.187652	1.021407	-0.613244
C81	C	-0.187638	1.021414	-0.683933
C82	C	-0.216361	0.978098	-0.719258
C83	C	-0.245095	0.934767	-0.683890
C84	C	-0.245105	0.934757	-0.613203
C85	C	-0.245053	0.934806	-0.968963
C86	C	-0.245041	0.934820	-1.039656
C87	C	-0.187586	1.021462	-1.039694
C88	C	-0.187597	1.021453	-0.969006
C89	C	-0.216329	0.978120	-0.933645
C90	C	-0.216342	0.978112	-0.856997
C91	C	-0.216350	0.978109	-0.795905
C92	C	-0.216420	0.978028	-0.150251
C93	C	-0.216306	0.978143	-0.075019
H94	H	-0.268620	0.720352	-0.404479
H95	H	-0.603230	1.099922	-0.204407
Cl96	Cl	-0.151535	1.075914	-0.728386
Cl97	Cl	-0.698718	1.119155	-0.185267
H98	H	-0.164209	1.056727	-0.940249
Cl99	Cl	-0.281202	0.880310	-0.728298
H100	H	-1.044971	0.899640	-0.404633
Cl101	Cl	-0.281227	0.880286	-0.568747
H102	H	-0.268634	0.236348	-0.404522
Cl103	Cl	-0.151489	0.380278	-0.228603
Cl104	Cl	-0.949481	0.880419	-0.423786
H105	H	-0.959815	1.056771	-0.247697
Cl106	Cl	-0.151501	0.220734	-0.228611
H107	H	-0.743977	1.099993	-0.204431
H108	H	-0.688398	0.856180	-0.447849
Cl109	Cl	-0.151486	0.576498	-0.228588
H110	H	-0.829096	1.100029	-0.204451
H111	H	-0.472583	0.899381	-0.404562
H112	H	-0.387461	0.899337	-0.404539
H113	H	-0.472529	1.056554	-0.247634
H114	H	-0.164264	1.056683	-0.584488
H115	H	-0.603290	0.856153	-0.447842
Cl116	Cl	-0.839548	0.837073	-0.467019
Cl117	Cl	-0.281363	0.576460	-0.423632
Cl118	Cl	-0.151463	1.075937	-1.084152
Cl119	Cl	-0.281152	0.880361	-1.084063
Cl120	Cl	-0.281371	0.380243	-0.423644
H121	H	-0.164221	0.720390	-0.247710
Cl122	Cl	-0.377026	1.075676	-0.228460
Cl123	Cl	-0.281174	0.880330	-0.924518
H124	H	-1.044937	1.056809	-0.247717
H125	H	-0.744047	0.856211	-0.447845
