data_functionalizedCrystal
_audit_creation_method	'MofGen! by Chris Wilmer'
_symmetry_space_group_name_H-M	'P1'
_symmetry_Int_Tables_number	1
_symmetry_cell_setting	triclinic
loop_
_symmetry_equiv_pos_as_xyz
  x,y,z
_cell_length_a	12.594516
_cell_length_b	16.625548
_cell_length_c	16.625539
_cell_angle_alpha	89.981168
_cell_angle_beta	90.021462
_cell_angle_gamma	89.984088
loop_
_atom_site_label
_atom_site_type_symbol
_atom_site_fract_x
_atom_site_fract_y
_atom_site_fract_z
Zn1	Zn	-0.423764	-1.232688	0.455975
Zn2	Zn	0.076236	-0.732688	0.955975
Zn3	Zn	-0.601759	-1.232615	0.321154
Zn4	Zn	-0.101759	-0.732615	0.821154
Zn5	Zn	-0.423795	-1.097859	0.321152
Zn6	Zn	0.076205	-0.597859	0.821152
Zn7	Zn	-0.601700	-1.097836	0.455940
Zn8	Zn	-0.101700	-0.597836	0.955940
O9	O	-0.512755	-1.165249	0.388555
O10	O	-0.012755	-0.665249	0.888555
O11	O	-0.447387	-1.345511	0.438107
O12	O	0.052613	-0.845511	0.938107
O13	O	-0.578190	-1.214718	0.208322
O14	O	-0.078190	-0.714718	0.708322
O15	O	-0.274845	-1.115784	0.339050
O16	O	0.225155	-0.615784	0.839050
O17	O	-0.578160	-1.345457	0.339055
O18	O	-0.078160	-0.845457	0.839055
O19	O	-0.274822	-1.214843	0.438105
O20	O	0.225178	-0.714843	0.938105
O21	O	-0.447440	-1.115713	0.208320
O22	O	0.052560	-0.615713	0.708320
O23	O	-0.447383	-0.985023	0.339016
O24	O	0.052617	-0.485023	0.839016
O25	O	-0.578059	-1.115745	0.568777
O26	O	-0.078059	-0.615745	1.068777
O27	O	-0.578089	-0.985006	0.438044
O28	O	-0.078089	-0.485006	0.938044
O29	O	-0.447330	-1.214821	0.568803
O30	O	0.052670	-0.714821	1.068803
O31	O	-0.750697	-1.214696	0.339020
O32	O	-0.250697	-0.714696	0.839020
O33	O	-0.750654	-1.115674	0.438047
O34	O	-0.250654	-0.615674	0.938047
C35	C	-0.512733	-0.955759	0.388526
C36	C	-0.012733	-0.455759	0.888526
C37	C	-0.512750	-0.866138	0.388533
C38	C	-0.012750	-0.366138	0.888533
C39	C	-0.512748	-0.537962	0.388557
C40	C	-0.012748	-0.037962	0.888557
C41	C	-0.512746	-0.629270	0.388548
C42	C	-0.012746	-0.129270	0.888548
C43	C	-0.512750	-0.702047	0.388545
C44	C	-0.012750	-0.202047	0.888545
C45	C	-0.512746	-0.793361	0.388537
C46	C	-0.012746	-0.293361	0.888537
C47	C	-0.789296	-1.165197	0.388548
C48	C	-0.289296	-0.665197	0.888548
C49	C	-0.907601	-1.165248	0.388571
C50	C	-0.407601	-0.665248	0.888571
C51	C	-0.976869	-1.111385	0.442394
C52	C	-0.476869	-0.611385	0.942394
C53	C	-1.047726	-1.091744	0.368819
C54	C	-0.547726	-0.591744	0.868819
C55	C	-1.047543	-1.184962	0.462159
C56	C	-0.547543	-0.684962	0.962159
C57	C	-0.976900	-1.145568	0.314957
C58	C	-0.476900	-0.645568	0.814957
C59	C	-0.976710	-1.238820	0.408347
C60	C	-0.476710	-0.738820	0.908347
C61	C	-1.047535	-1.219208	0.334721
C62	C	-0.547535	-0.719208	0.834721
C63	C	-0.235134	-1.165324	0.388581
C64	C	0.264866	-0.665324	0.888581
C65	C	-0.116828	-1.165356	0.388592
C66	C	0.383172	-0.665356	0.888592
C67	C	-0.512684	-1.165289	0.598864
C68	C	-0.012684	-0.665289	1.098864
C69	C	-0.512654	-1.165306	0.688486
C70	C	-0.012654	-0.665306	1.188486
C71	C	-0.512769	-0.375558	0.388577
C72	C	-0.012769	0.124442	0.888577
C73	C	-0.512758	-0.465179	0.388567
C74	C	-0.012758	0.034821	0.888567
C75	C	-0.512748	-1.165256	0.179065
C76	C	-0.012748	-0.665256	0.679065
C77	C	-0.512478	-1.165396	0.089444
C78	C	-0.012478	-0.665396	0.589444
C79	C	-0.512631	-1.165319	0.761268
C80	C	-0.012631	-0.665319	1.261268
C81	C	-0.512591	-1.165338	0.852577
C82	C	-0.012591	-0.665338	1.352577
C83	C	-0.512554	-1.165357	0.925353
C84	C	-0.012554	-0.665357	1.425353
C85	C	-0.512515	-1.165377	1.016667
C86	C	-0.012515	-0.665377	1.516667
H87	H	-0.945839	-1.065753	0.487844
H88	H	-0.445839	-0.565753	0.987844
F89	F	-0.936513	-1.123740	0.233602
F90	F	-0.436513	-0.623740	0.733602
F91	F	-1.088496	-1.010482	0.346959
F92	F	-0.588496	-0.510482	0.846959
H93	H	-1.078368	-1.264804	0.289161
H94	H	-0.578368	-0.764804	0.789161
H95	H	-0.945496	-1.300974	0.425092
H96	H	-0.445496	-0.800974	0.925092
F97	F	-1.088106	-1.206698	0.543489
F98	F	-0.588106	-0.706698	1.043489
