data_functionalizedCrystal
_audit_creation_method	'MofGen! by Chris Wilmer'
_symmetry_space_group_name_H-M	'P1'
_symmetry_Int_Tables_number	1
_symmetry_cell_setting	triclinic
loop_
_symmetry_equiv_pos_as_xyz
  x,y,z
_cell_length_a	27.440280
_cell_length_b	19.377369
_cell_length_c	19.377372
_cell_angle_alpha	62.058157
_cell_angle_beta	90.000814
_cell_angle_gamma	48.634130
loop_
_atom_site_label
_atom_site_type_symbol
_atom_site_fract_x
_atom_site_fract_y
_atom_site_fract_z
Zr1	Zr	0.381816	0.759386	0.055869
O2	O	0.268766	0.943830	-0.042074
O3	O	0.425680	0.607573	0.064538
O4	O	0.383725	0.806418	-0.072854
O5	O	0.333341	0.696506	0.227989
O6	O	0.463932	0.806400	-0.072841
O7	O	0.310721	0.744985	0.095318
O8	O	0.538981	0.450701	0.172929
O9	O	0.258291	1.052205	-0.017780
O10	O	0.493119	0.657916	0.094048
O11	O	0.450143	0.621752	0.193048
O12	O	0.400747	0.855866	0.031287
O13	O	0.357770	0.819701	0.130287
Zr14	Zr	0.545812	0.682039	0.267487
Zr15	Zr	0.509736	0.759356	0.055891
Zr16	Zr	0.417892	0.682069	0.267465
Zr17	Zr	0.365110	0.932231	0.094615
Zr18	Zr	0.562518	0.509194	0.228741
O19	O	0.501948	0.833852	0.258818
O20	O	0.450653	0.943788	-0.042043
O21	O	0.320062	0.833895	0.258787
O22	O	0.658862	0.497595	0.365430
O23	O	0.607566	0.607530	0.064569
O24	O	0.476975	0.497637	0.365399
O25	O	0.594287	0.744919	0.095367
O26	O	0.543903	0.635007	0.396210
O27	O	0.463696	0.635025	0.396197
O28	O	0.616907	0.696440	0.228038
O29	O	0.359971	1.052181	-0.017763
O30	O	0.567657	0.389244	0.341119
O31	O	0.669337	0.389220	0.341137
O32	O	0.640661	0.450678	0.172947
O33	O	0.286967	0.990747	0.150409
O34	O	0.388647	0.990724	0.150427
O35	O	0.526881	0.585559	0.292070
O36	O	0.569858	0.621723	0.193069
O37	O	0.477485	0.819673	0.130308
O38	O	0.434509	0.783508	0.229309
C39	C	0.484711	0.504510	0.113213
C40	C	0.491803	0.431134	0.096765
C41	C	0.403263	0.095006	0.301334
C42	C	0.410021	0.025940	0.285949
C43	C	0.454885	0.063703	0.182600
C44	C	0.448135	0.132769	0.197980
C45	C	0.422322	0.148415	0.257347
C46	C	0.467194	0.186178	0.153992
C47	C	0.460440	0.255242	0.169368
C48	C	0.434627	0.270897	0.228731
C49	C	0.415568	0.217479	0.272723
C50	C	0.493001	0.170537	0.094621
C51	C	0.512060	0.223946	0.050633
C52	C	0.505311	0.293005	0.066013
C53	C	0.479498	0.308660	0.125376
C54	C	0.524369	0.346423	0.022021
C55	C	0.517615	0.415487	0.037397
C56	C	0.472744	0.377724	0.140752
C57	C	0.303805	0.720750	0.161651
C58	C	0.249499	0.720763	0.161641
C59	C	-0.038964	0.617359	0.194462
C60	C	-0.089980	0.617351	0.194470
O61	O	-0.075356	0.529464	0.222362
N62	N	-0.163715	0.720678	0.161708
C63	C	-0.186432	0.824018	0.128945
O64	O	-0.253833	0.911904	0.101080
C65	C	-0.135415	0.824023	0.128943
C66	C	-0.061681	0.720692	0.161699
C67	C	0.034766	0.514036	0.227216
C68	C	0.085778	0.514046	0.227207
C69	C	0.063061	0.617378	0.194444
C70	C	-0.010669	0.720701	0.161690
C71	C	-0.158131	0.927359	0.096186
C72	C	-0.107106	0.927355	0.096188
C73	C	-0.033373	0.824024	0.128944
C74	C	0.017626	0.824043	0.128918
N75	N	0.091361	0.720715	0.161679
C76	C	0.114078	0.617383	0.194443
C77	C	-0.293567	0.823999	0.128952
C78	C	-0.344585	0.823997	0.128947
C79	C	-0.248130	0.617329	0.194474
C80	C	-0.197112	0.617334	0.194472
C81	C	-0.219833	0.720671	0.161714
C82	C	0.221204	0.617411	0.194420
C83	C	0.272216	0.617430	0.194404
C84	C	0.175758	0.824096	0.128882
C85	C	0.124749	0.824078	0.128893
C86	C	0.147478	0.720725	0.161668
O87	O	0.003056	0.911884	0.101043
O88	O	0.181481	0.529507	0.222313
C89	C	0.623823	0.720675	0.161706
C90	C	0.678129	0.720662	0.161715
C91	C	0.418688	0.817425	-0.102995
C92	C	0.403373	0.850248	-0.192823
C93	C	0.442917	0.936914	0.210143
C94	C	0.435825	1.010291	0.226592
C95	C	0.594070	0.441573	-0.324456
C96	C	0.579664	0.472443	-0.408871
C97	C	0.483233	0.679088	-0.474379
C98	C	0.497634	0.648235	-0.389968
C99	C	0.553053	0.529476	-0.315011
C100	C	0.456617	0.736138	-0.380524
C101	C	0.471014	0.705288	-0.296119
C102	C	0.526429	0.586534	-0.221159
C103	C	0.567450	0.498626	-0.230607
C104	C	0.401195	0.854897	-0.455481
C105	C	0.360178	0.942799	-0.446037
C106	C	0.374578	0.911949	-0.361631
C107	C	0.429993	0.793196	-0.286672
C108	C	0.333557	0.999858	-0.352184
C109	C	0.347954	0.969008	-0.267779
C110	C	0.444390	0.762346	-0.202267
C111	C	0.508940	0.624000	0.426351
C112	C	0.524255	0.591177	0.516179
C113	C	0.644720	0.504473	0.113241
C114	C	0.706118	0.431083	0.096801
C115	C	0.529837	0.407798	0.377886
C116	C	0.552244	0.301598	0.451266
C117	C	0.689846	0.407760	0.377914
C118	C	0.766559	0.301547	0.451302
C119	C	0.237782	1.033665	-0.054558
C120	C	0.161069	1.139878	-0.127946
C121	C	0.282908	0.936952	0.210115
C122	C	0.221510	1.010342	0.226555
C123	C	0.397792	1.033627	-0.054530
C124	C	0.375384	1.139827	-0.127909
C125	C	0.694893	0.415514	0.037384
C126	C	0.752573	0.346574	0.021920
C127	C	0.821480	0.293196	0.065879
C128	C	0.832703	0.308772	0.125299
C129	C	0.775022	0.377718	0.140757
C130	C	0.602825	0.232829	0.537422
C131	C	0.623877	0.133049	0.606380
C132	C	0.594352	0.102035	0.589178
C133	C	0.543765	0.170814	0.503013
C134	C	0.522709	0.270597	0.434058
C135	C	0.825023	0.270546	0.434089
C136	C	0.897105	0.170760	0.503039
C137	C	0.910723	0.101972	0.589201
C138	C	0.852252	0.132981	0.606414
C139	C	0.780171	0.232770	0.537466
C140	C	0.102604	1.170887	-0.110731
C141	C	0.030520	1.270694	-0.179677
C142	C	0.016902	1.339486	-0.265838
C143	C	0.075373	1.308473	-0.283052
C144	C	0.147456	1.208672	-0.214106
C145	C	0.232733	1.025921	0.285964
C146	C	0.175047	1.094889	0.301409
C147	C	0.106140	1.148270	0.257448
C148	C	0.094917	1.132690	0.198032
C149	C	0.152601	1.063730	0.182583
C150	C	0.404923	1.170808	-0.110681
C151	C	0.383883	1.270582	-0.179622
C152	C	0.333300	1.339379	-0.265791
C153	C	0.303761	1.308391	-0.283019
C154	C	0.324805	1.208614	-0.214079
H155	H	0.394550	0.230218	0.321066
H156	H	0.639201	0.344868	-0.263420
H157	H	0.382245	0.107744	0.349678
H158	H	0.612581	0.401920	-0.169571
H159	H	0.481525	0.326579	0.363907
H160	H	0.315055	1.039492	-0.507077
H161	H	0.262573	1.364420	-0.353186
H162	H	-0.229640	0.533192	0.221148
H163	H	0.784173	0.390381	0.189145
H164	H	0.288431	1.096551	-0.413224
H165	H	0.613067	0.400853	-0.416552
H166	H	0.611503	0.020783	0.645334
F167	F	0.304306	1.062563	-0.257727
H168	H	0.064276	1.364496	-0.353212
H169	H	0.446110	1.114805	-0.040523
F170	F	0.503391	0.635948	-0.122487
H171	H	0.545379	0.333684	-0.026322
F172	F	0.634260	0.265813	0.555749
F173	F	0.541748	0.553700	-0.131328
F174	F	0.245403	0.507411	0.229301
H175	H	0.813948	0.326542	0.363937
F176	F	0.866757	0.059759	0.698120
H177	H	0.519729	0.145547	0.489020
F178	F	0.621561	0.472316	-0.009412
H179	H	0.732572	0.257997	0.551493
F180	F	0.987443	-0.004231	0.662575
H181	H	0.438110	0.775781	-0.535419
F182	F	0.058959	0.404045	0.262094
F183	F	0.117082	1.097687	-0.019037
F184	F	0.187006	1.111452	0.364651
F185	F	0.140647	1.047152	0.119354
F186	F	0.389731	-0.030898	0.332768
H187	H	0.429124	0.327140	0.241245
H188	H	0.743421	0.333903	-0.026463
H189	H	0.300745	1.183402	-0.228119
H190	H	0.059175	1.204419	0.270036
H191	H	0.868442	0.237058	0.053284
H192	H	0.451725	0.390463	0.189095
H193	H	-0.017081	1.295926	-0.165644
F194	F	0.209674	1.175677	-0.232442
H195	H	0.288837	0.982459	0.321771
F196	F	0.415325	1.303546	-0.161268
H197	H	0.475899	0.050959	0.134260
F198	F	0.500183	0.097036	0.078256
F199	F	0.310908	1.445571	-0.339154
H200	H	0.533074	0.211202	0.002294
F201	F	0.537899	0.472333	-0.009420
H202	H	0.332256	0.533282	0.221081
H203	H	0.145812	0.429904	0.253876
F204	F	0.385872	0.887728	-0.545312
H205	H	-0.137076	0.533190	0.221154
F206	F	-0.423058	0.933981	0.094070
F207	F	0.906045	0.251952	0.172079
H208	H	-0.312078	0.908154	0.102272
H209	H	-0.125613	1.011501	0.069524
F210	F	-0.236596	1.037337	0.061330
H211	H	0.944707	0.145527	0.489008
F212	F	0.677718	0.059864	0.698076
F213	F	-0.059820	1.445701	-0.339209
H214	H	0.064708	0.908223	0.102208
H215	H	0.157271	0.908227	0.102204
H216	H	0.038805	1.176163	0.162242
