data_functionalizedCrystal
_audit_creation_method	'MofGen! by Chris Wilmer'
_symmetry_space_group_name_H-M	'P1'
_symmetry_Int_Tables_number	1
_symmetry_cell_setting	triclinic
loop_
_symmetry_equiv_pos_as_xyz
  x,y,z
_cell_length_a	18.215405
_cell_length_b	16.625547
_cell_length_c	18.215399
_cell_angle_alpha	90.023151
_cell_angle_beta	89.967040
_cell_angle_gamma	89.975929
loop_
_atom_site_label
_atom_site_type_symbol
_atom_site_fract_x
_atom_site_fract_y
_atom_site_fract_z
Zn1	Zn	-0.292990	-1.232636	-0.416227
Zn2	Zn	-0.042990	-0.982636	-0.166227
Zn3	Zn	0.207010	-0.732636	0.083773
Zn4	Zn	0.457010	-0.482636	0.333773
Zn5	Zn	-0.416067	-1.232543	-0.293155
Zn6	Zn	-0.166067	-0.982543	-0.043155
Zn7	Zn	0.083933	-0.732543	0.206845
Zn8	Zn	0.333933	-0.482543	0.456845
Zn9	Zn	-0.293017	-1.097807	-0.293161
Zn10	Zn	-0.043017	-0.847807	-0.043161
Zn11	Zn	0.206983	-0.597807	0.206839
Zn12	Zn	0.456983	-0.347807	0.456839
Zn13	Zn	-0.416018	-1.097762	-0.416166
Zn14	Zn	-0.166018	-0.847762	-0.166166
Zn15	Zn	0.083982	-0.597762	0.083834
Zn16	Zn	0.333982	-0.347762	0.333834
O17	O	-0.354523	-1.165187	-0.354677
O18	O	-0.104523	-0.915187	-0.104677
O19	O	0.145477	-0.665187	0.145323
O20	O	0.395477	-0.415187	0.395323
O21	O	-0.309326	-1.345456	-0.399924
O22	O	-0.059326	-1.095456	-0.149924
O23	O	0.190674	-0.845456	0.100076
O24	O	0.440674	-0.595456	0.350076
O25	O	-0.399775	-1.214649	-0.190171
O26	O	-0.149775	-0.964649	0.059829
O27	O	0.100225	-0.714649	0.309829
O28	O	0.350225	-0.464649	0.559829
O29	O	-0.190029	-1.115750	-0.309513
O30	O	0.059971	-0.865750	-0.059513
O31	O	0.309971	-0.615750	0.190487
O32	O	0.559971	-0.365750	0.440487
O33	O	-0.399750	-1.345387	-0.309504
O34	O	-0.149750	-1.095387	-0.059504
O35	O	0.100250	-0.845387	0.190496
O36	O	0.350250	-0.595387	0.440496
O37	O	-0.190010	-1.214808	-0.399929
O38	O	0.059990	-0.964808	-0.149929
O39	O	0.309990	-0.714808	0.100071
O40	O	0.559990	-0.464808	0.350071
O41	O	-0.309371	-1.115659	-0.190175
O42	O	-0.059371	-0.865659	0.059825
O43	O	0.190629	-0.615659	0.309825
O44	O	0.440629	-0.365659	0.559825
O45	O	-0.309324	-0.984969	-0.309455
O46	O	-0.059324	-0.734969	-0.059455
O47	O	0.190676	-0.484969	0.190545
O48	O	0.440676	-0.234969	0.440545
O49	O	-0.399666	-1.115674	-0.519159
O50	O	-0.149666	-0.865674	-0.269159
O51	O	0.100334	-0.615674	-0.019159
O52	O	0.350334	-0.365674	0.230841
O53	O	-0.399692	-0.984936	-0.399826
O54	O	-0.149692	-0.734936	-0.149826
O55	O	0.100308	-0.484936	0.100174
O56	O	0.350308	-0.234936	0.350174
O57	O	-0.309279	-1.214765	-0.519203
O58	O	-0.059279	-0.964765	-0.269203
O59	O	0.190721	-0.714765	-0.019203
O60	O	0.440721	-0.464765	0.230797
O61	O	-0.519045	-1.214606	-0.309445
O62	O	-0.269045	-0.964606	-0.059445
O63	O	-0.019045	-0.714606	0.190555
O64	O	0.230955	-0.464606	0.440555
O65	O	-0.519009	-1.115584	-0.399821
O66	O	-0.269009	-0.865584	-0.149821
O67	O	-0.019009	-0.615584	0.100179
O68	O	0.230991	-0.365584	0.350179
C69	C	-0.354506	-0.955696	-0.354635
C70	C	-0.104506	-0.705696	-0.104635
C71	C	0.145494	-0.455696	0.145365
C72	C	0.395494	-0.205696	0.395365
C73	C	-0.354517	-0.866075	-0.354634
C74	C	-0.104517	-0.616075	-0.104634
C75	C	0.145483	-0.366075	0.145366
C76	C	0.395483	-0.116075	0.395366
C77	C	-0.545729	-1.165102	-0.354642
C78	C	-0.295729	-0.915102	-0.104642
C79	C	-0.045729	-0.665102	0.145358
C80	C	0.204271	-0.415102	0.395358
C81	C	-0.627528	-1.165139	-0.354651
C82	C	-0.377528	-0.915139	-0.104651
C83	C	-0.127528	-0.665139	0.145349
C84	C	0.122472	-0.415139	0.395349
C85	C	-0.354517	-0.793293	-0.354641
C86	C	-0.104517	-0.543293	-0.104641
C87	C	0.145483	-0.293293	0.145359
C88	C	0.395483	-0.043293	0.395359
C89	C	-0.354520	-0.701984	-0.354656
C90	C	-0.104520	-0.451984	-0.104656
C91	C	0.145480	-0.201984	0.145344
C92	C	0.395480	0.048016	0.395344
C93	C	-0.354526	-0.629208	-0.354672
C94	C	-0.104526	-0.379208	-0.104672
C95	C	0.145474	-0.129208	0.145328
C96	C	0.395474	0.120792	0.395328
C97	C	-0.354530	-0.537893	-0.354686
C98	C	-0.104530	-0.287893	-0.104686
C99	C	0.145470	-0.037893	0.145314
C100	C	0.395470	0.212107	0.395314
C101	C	-0.815716	-1.216821	-0.307679
C102	C	-0.565716	-0.966821	-0.057679
C103	C	-0.315716	-0.716821	0.192321
C104	C	-0.065716	-0.466821	0.442321
C105	C	-0.892575	-1.216857	-0.307697
C106	C	-0.642575	-0.966857	-0.057697
C107	C	-0.392575	-0.716857	0.192303
C108	C	-0.142575	-0.466857	0.442303
C109	C	-0.892578	-1.113656	-0.401728
C110	C	-0.642578	-0.863656	-0.151728
C111	C	-0.392578	-0.613656	0.098272
C112	C	-0.142578	-0.363656	0.348272
C113	C	-0.815720	-1.113624	-0.401713
C114	C	-0.565720	-0.863624	-0.151713
C115	C	-0.315720	-0.613624	0.098287
C116	C	-0.065720	-0.363624	0.348287
C117	C	-0.777292	-1.165206	-0.354685
C118	C	-0.527292	-0.915206	-0.104685
C119	C	-0.277292	-0.665206	0.145315
C120	C	-0.027292	-0.415206	0.395315
C121	C	-0.931008	-1.165273	-0.354717
C122	C	-0.681008	-0.915273	-0.104717
C123	C	-0.431008	-0.665273	0.145283
C124	C	-0.181008	-0.415273	0.395283
C125	C	-1.014341	-1.165312	-0.354737
C126	C	-0.764341	-0.915312	-0.104737
C127	C	-0.514341	-0.665312	0.145263
C128	C	-0.264341	-0.415312	0.395263
C129	C	-0.693953	-1.165169	-0.354666
C130	C	-0.443953	-0.915169	-0.104666
C131	C	-0.193953	-0.665169	0.145334
C132	C	0.056047	-0.415169	0.395334
C133	C	-0.162570	-1.165294	-0.354729
C134	C	0.087430	-0.915294	-0.104729
C135	C	0.337430	-0.665294	0.145271
C136	C	0.587430	-0.415294	0.395271
C137	C	-0.080771	-1.165340	-0.354751
C138	C	0.169229	-0.915340	-0.104751
C139	C	0.419229	-0.665340	0.145249
C140	C	0.669229	-0.415340	0.395249
C141	C	-0.354464	-1.165225	-0.546630
C142	C	-0.104464	-0.915225	-0.296630
C143	C	0.145536	-0.665225	-0.046630
C144	C	0.395536	-0.415225	0.203370
C145	C	-0.354439	-1.165241	-0.628429
C146	C	-0.104439	-0.915241	-0.378429
C147	C	0.145561	-0.665241	-0.128429
C148	C	0.395561	-0.415241	0.121571
C149	C	-0.354537	-0.375496	-0.354711
C150	C	-0.104537	-0.125496	-0.104711
C151	C	0.145463	0.124504	0.145289
C152	C	0.395463	0.374504	0.395289
C153	C	-0.354536	-0.465117	-0.354703
C154	C	-0.104536	-0.215117	-0.104703
C155	C	0.145464	0.034883	0.145297
C156	C	0.395464	0.284883	0.395297
C157	C	-0.307334	-1.113741	-0.816626
C158	C	-0.057334	-0.863741	-0.566626
C159	C	0.192666	-0.613741	-0.316626
C160	C	0.442666	-0.363741	-0.066626
C161	C	-0.307319	-1.113755	-0.893485
C162	C	-0.057319	-0.863755	-0.643485
C163	C	0.192681	-0.613755	-0.393485
C164	C	0.442681	-0.363755	-0.143485
C165	C	-0.401457	-1.216838	-0.893470
C166	C	-0.151457	-0.966838	-0.643470
C167	C	0.098543	-0.716838	-0.393470
C168	C	0.348543	-0.466838	-0.143470
C169	C	-0.401475	-1.216819	-0.816613
C170	C	-0.151475	-0.966819	-0.566613
C171	C	0.098525	-0.716819	-0.316613
C172	C	0.348525	-0.466819	-0.066613
C173	C	-0.354409	-1.165272	-0.778193
C174	C	-0.104409	-0.915272	-0.528193
C175	C	0.145591	-0.665272	-0.278193
C176	C	0.395591	-0.415272	-0.028193
C177	C	-0.354376	-1.165305	-0.931909
C178	C	-0.104376	-0.915305	-0.681909
C179	C	0.145624	-0.665305	-0.431909
C180	C	0.395624	-0.415305	-0.181909
C181	C	-0.354360	-1.165320	-1.015243
C182	C	-0.104360	-0.915320	-0.765243
C183	C	0.145640	-0.665320	-0.515243
C184	C	0.395640	-0.415320	-0.265243
C185	C	-0.354426	-1.165255	-0.694854
C186	C	-0.104426	-0.915255	-0.444854
C187	C	0.145574	-0.665255	-0.194854
C188	C	0.395574	-0.415255	0.055146
C189	C	-0.354528	-1.165195	-0.163471
C190	C	-0.104528	-0.915195	0.086529
C191	C	0.145472	-0.665195	0.336529
C192	C	0.395472	-0.415195	0.586529
C193	C	-0.354346	-1.165335	-0.081672
C194	C	-0.104346	-0.915335	0.168328
C195	C	0.145654	-0.665335	0.418328
C196	C	0.395654	-0.415335	0.668328
H197	H	-0.784429	-1.258823	-0.269387
H198	H	-0.534429	-1.008823	-0.019387
H199	H	-0.284429	-0.758823	0.230613
H200	H	-0.034429	-0.508823	0.480613
H201	H	-0.269010	-1.071768	-0.785347
H202	H	-0.019010	-0.821768	-0.535347
H203	H	0.230990	-0.571768	-0.285347
H204	H	0.480990	-0.321768	-0.035347
O205	O	-0.452242	-1.272411	-0.775150
O206	O	-0.202242	-1.022411	-0.525150
O207	O	0.047758	-0.772411	-0.275150
O208	O	0.297758	-0.522411	-0.025150
H209	H	-0.484956	-1.308270	-0.814777
H210	H	-0.234956	-1.058270	-0.564777
H211	H	0.015044	-0.808270	-0.314777
H212	H	0.265044	-0.558270	-0.064777
H213	H	-0.268986	-1.071792	-0.924774
H214	H	-0.018986	-0.821792	-0.674774
H215	H	0.231014	-0.571792	-0.424774
H216	H	0.481014	-0.321792	-0.174774
H217	H	-0.439775	-1.258807	-0.924761
H218	H	-0.189775	-1.008807	-0.674761
H219	H	0.060225	-0.758807	-0.424761
H220	H	0.310225	-0.508807	-0.174761
H221	H	-0.923876	-1.071659	-0.440016
H222	H	-0.673876	-0.821659	-0.190016
H223	H	-0.423876	-0.571659	0.059984
H224	H	-0.173876	-0.321659	0.309984
O225	O	-0.934022	-1.272523	-0.256994
O226	O	-0.684022	-1.022523	-0.006994
O227	O	-0.434022	-0.772523	0.243006
O228	O	-0.184022	-0.522523	0.493006
H229	H	-0.894385	-1.308378	-0.224288
H230	H	-0.644385	-1.058378	0.025712
H231	H	-0.394385	-0.808378	0.275712
H232	H	-0.144385	-0.558378	0.525712
H233	H	-0.784433	-1.071593	-0.439995
H234	H	-0.534433	-0.821593	-0.189995
H235	H	-0.284433	-0.571593	0.060005
H236	H	-0.034433	-0.321593	0.310005
