data_functionalizedCrystal
_audit_creation_method	'MofGen! by Chris Wilmer'
_symmetry_space_group_name_H-M	'P1'
_symmetry_Int_Tables_number	1
_symmetry_cell_setting	triclinic
loop_
_symmetry_equiv_pos_as_xyz
  x,y,z
_cell_length_a	12.759401
_cell_length_b	16.120484
_cell_length_c	12.759393
_cell_angle_alpha	92.862882
_cell_angle_beta	89.981504
_cell_angle_gamma	92.925560
loop_
_atom_site_label
_atom_site_type_symbol
_atom_site_fract_x
_atom_site_fract_y
_atom_site_fract_z
Zn1	Zn	1.584972	-0.331853	-0.615146
Zn2	Zn	1.575923	-0.471291	-0.448359
Zn3	Zn	1.409271	-0.331897	-0.439488
Zn4	Zn	1.400324	-0.471227	-0.623996
O5	O	1.492622	-0.401567	-0.531747
O6	O	1.730792	-0.350358	-0.593030
O7	O	1.553774	-0.452845	-0.300164
O8	O	1.440109	-0.215226	-0.455373
O9	O	1.724144	-0.452803	-0.470492
O10	O	1.569196	-0.215194	-0.584428
O11	O	1.431335	-0.350433	-0.293646
O12	O	1.261064	-0.350370	-0.463955
O13	O	1.424860	-0.452693	-0.769840
O14	O	1.254490	-0.452736	-0.599512
O15	O	1.560520	-0.350296	-0.763338
O16	O	1.545098	-0.587947	-0.479074
O17	O	1.416086	-0.587900	-0.608114
C18	C	1.219656	-0.401551	-0.531732
C19	C	1.102879	-0.401565	-0.531752
C20	C	1.478668	-0.618174	-0.545540
C21	C	1.472794	-0.710839	-0.551475
C22	C	1.044616	-0.454952	-0.602231
C23	C	0.934891	-0.454962	-0.602243
C24	C	0.941702	-0.348197	-0.461287
C25	C	1.051425	-0.348183	-0.461281
C26	C	1.096069	-0.508334	-0.672701
C27	C	1.037806	-0.561726	-0.743185
C28	C	0.928081	-0.561736	-0.743197
C29	C	0.876620	-0.508355	-0.672725
C30	C	1.462076	-0.880500	-0.562334
C31	C	1.523357	-0.921793	-0.501178
C32	C	1.517393	-1.016198	-0.507219
C33	C	1.468038	-0.786086	-0.556293
C34	C	1.766655	-0.401583	-0.531763
C35	C	1.883431	-0.401590	-0.531770
C36	C	1.492701	-0.401483	-0.805775
C37	C	1.492735	-0.401447	-0.922550
C38	C	1.506660	-0.184114	-0.517924
C39	C	1.512642	-0.091448	-0.512033
C40	C	1.563383	-0.348123	-0.974027
C41	C	1.563410	-0.348093	-1.083750
C42	C	1.422138	-0.454717	-1.090507
C43	C	1.422106	-0.454742	-0.980787
C44	C	1.634011	-0.294828	-0.915790
C45	C	1.704666	-0.241501	-0.967268
C46	C	1.704693	-0.241471	-1.076990
C47	C	1.634065	-0.294768	-1.135235
C48	C	1.492608	-0.401590	-0.258781
C49	C	1.492793	-0.401391	-0.141992
H50	H	1.079714	-0.605181	-0.800566
H51	H	0.880647	-0.605204	-0.800595
H52	H	1.185412	-0.508333	-0.672697
C53	C	0.885097	-0.289487	-0.383765
C54	C	0.764406	-0.289505	-0.383766
C55	C	0.707802	-0.230797	-0.306240
C56	C	0.771889	-0.172071	-0.228711
C57	C	0.892587	-0.172051	-0.228707
C58	C	0.949191	-0.230759	-0.306234
H59	H	0.716958	-0.332980	-0.441160
H60	H	0.618453	-0.230812	-0.306243
H61	H	0.729988	-0.128611	-0.171321
H62	H	0.940035	-0.128576	-0.171314
H63	H	1.038540	-0.230744	-0.306231
H64	H	1.098864	-0.304704	-0.403898
C65	C	1.344459	-0.513346	-1.154573
C66	C	1.344496	-0.513323	-1.275262
C67	C	1.266819	-0.571956	-1.339327
C68	C	1.189105	-0.630612	-1.282703
C69	C	1.189066	-0.630638	-1.162008
C70	C	1.266743	-0.572005	-1.097943
H71	H	1.402027	-0.469900	-1.317184
H72	H	1.266849	-0.571937	-1.428674
H73	H	1.131604	-0.674016	-1.330128
H74	H	1.131535	-0.674061	-1.120086
H75	H	1.266713	-0.572024	-1.008596
H76	H	1.634000	-0.294848	-0.826449
H77	H	1.405137	-0.916046	-0.619223
C78	C	1.600275	-0.873778	-0.424302
C79	C	1.558481	-0.813985	-0.338027
C80	C	1.635391	-0.765967	-0.261150
C81	C	1.754096	-0.777744	-0.270547
C82	C	1.795896	-0.837540	-0.356826
C83	C	1.718986	-0.885558	-0.433704
H84	H	1.470603	-0.805265	-0.331067
H85	H	1.604447	-0.721702	-0.197280
H86	H	1.811029	-0.742199	-0.213638
H87	H	1.883774	-0.846261	-0.363786
H88	H	1.749930	-0.929823	-0.497573
C89	C	1.782351	-0.182875	-0.903204
C90	C	1.782329	-0.182906	-0.782516
C91	C	1.860015	-0.124278	-0.718455
C92	C	1.937723	-0.065620	-0.775083
C93	C	1.937748	-0.065587	-0.895777
C94	C	1.860062	-0.124215	-0.959838
H95	H	1.724802	-0.226330	-0.740591
H96	H	1.859996	-0.124303	-0.629109
H97	H	1.995231	-0.022220	-0.727661
H98	H	1.995275	-0.022162	-0.937702
H99	H	1.860081	-0.124190	-1.049185
H100	H	1.364563	-0.498150	-0.938872
H101	H	0.787275	-0.508361	-0.672749
H102	H	1.762216	-0.198044	-1.118900
H103	H	1.634081	-0.294729	-1.224577
