data_functionalizedCrystal
_audit_creation_method	'MofGen! by Chris Wilmer'
_symmetry_space_group_name_H-M	'P1'
_symmetry_Int_Tables_number	1
_symmetry_cell_setting	triclinic
loop_
_symmetry_equiv_pos_as_xyz
  x,y,z
_cell_length_a	17.038272
_cell_length_b	14.044220
_cell_length_c	15.500346
_cell_angle_alpha	87.073237
_cell_angle_beta	92.974377
_cell_angle_gamma	87.849783
loop_
_atom_site_label
_atom_site_type_symbol
_atom_site_fract_x
_atom_site_fract_y
_atom_site_fract_z
O1	O	0.193077	-1.277203	0.071852
O2	O	0.693077	-0.777203	0.571852
O3	O	0.186238	-1.000683	0.071874
O4	O	0.686238	-0.500683	0.571874
O5	O	0.075727	-1.137299	0.071856
O6	O	0.575727	-0.637299	0.571856
O7	O	0.303588	-1.140587	0.071869
O8	O	0.803588	-0.640587	0.571869
O9	O	0.068681	-1.128856	-0.072030
O10	O	0.568681	-0.628856	0.427970
O11	O	0.179192	-0.992240	-0.072012
O12	O	0.679192	-0.492240	0.427988
O13	O	0.186031	-1.268759	-0.072034
O14	O	0.686031	-0.768759	0.427966
Cu15	Cu	0.181968	-1.129729	-0.085161
Cu16	Cu	0.681968	-0.629729	0.414839
Cu17	Cu	0.190301	-1.139714	0.085001
Cu18	Cu	0.690301	-0.639714	0.585001
O19	O	0.296542	-1.132143	-0.072016
O20	O	0.796542	-0.632143	0.427984
C21	C	0.179721	-0.960906	-0.000067
C22	C	0.679721	-0.460906	0.499933
C23	C	0.170790	-0.854960	-0.000058
C24	C	0.670790	-0.354960	0.499942
C25	C	0.042867	-1.130088	-0.000087
C26	C	0.542867	-0.630088	0.499913
C27	C	-0.044550	-1.121169	-0.000086
C28	C	0.455450	-0.621169	0.499914
N29	N	0.176107	-1.122713	-0.204844
N30	N	0.676107	-0.622713	0.295156
C31	C	-0.088936	-1.203057	-0.000093
C32	C	0.411064	-0.703057	0.499907
C33	C	-0.171073	-1.194671	-0.000084
C34	C	0.328927	-0.694671	0.499916
C35	C	-0.208823	-1.104396	-0.000074
C36	C	0.291177	-0.604396	0.499926
C37	C	-0.164431	-1.022502	-0.000064
C38	C	0.335569	-0.522502	0.499936
C39	C	-0.082295	-1.030889	-0.000067
C40	C	0.417705	-0.530889	0.499933
C41	C	-0.456653	-1.074767	-0.000060
C42	C	0.043347	-0.574767	0.499940
C43	C	-0.538794	-1.066386	-0.000060
C44	C	-0.038794	-0.566386	0.499940
C45	C	-0.545431	-1.238556	-0.000078
C46	C	-0.045431	-0.738556	0.499922
C47	C	-0.463294	-1.246934	-0.000086
C48	C	0.036706	-0.746934	0.499914
C49	C	-0.418909	-1.165041	-0.000072
C50	C	0.081091	-0.665041	0.499928
C51	C	-0.292780	-1.095822	-0.000068
C52	C	0.207220	-0.595822	0.499932
C53	C	-0.334953	-1.173616	-0.000072
C54	C	0.165047	-0.673616	0.499928
C55	C	0.329403	-1.139355	-0.000072
C56	C	0.829403	-0.639355	0.499928
C57	C	0.416820	-1.148274	-0.000067
C58	C	0.916820	-0.648274	0.499933
C59	C	0.192548	-1.308537	-0.000092
C60	C	0.692548	-0.808537	0.499908
C61	C	0.201480	-1.414483	-0.000094
C62	C	0.701480	-0.914483	0.499906
C63	C	0.154461	-0.660981	-0.000076
C64	C	0.654461	-0.160981	0.499924
C65	C	0.217806	-0.608456	-0.000076
C66	C	0.717806	-0.108456	0.499924
C67	C	0.208720	-0.500519	-0.000086
C68	C	0.708720	-0.000519	0.499914
C69	C	0.163545	-0.768928	-0.000066
C70	C	0.663545	-0.268928	0.499934
C71	C	0.146640	-1.087734	-0.750021
C72	C	0.646640	-0.587734	-0.250021
C73	C	0.151103	-1.093036	-0.659450
C74	C	0.651103	-0.593036	-0.159450
C75	C	0.205086	-1.157338	-0.614176
C76	C	0.705086	-0.657338	-0.114176
C77	C	0.254604	-1.216347	-0.659478
C78	C	0.754604	-0.716347	-0.159478
C79	C	0.250137	-1.211049	-0.750048
C80	C	0.750137	-0.711049	-0.250048
C81	C	0.221159	-1.176424	-0.340715
C82	C	0.721159	-0.676424	0.159285
C83	C	0.225623	-1.181715	-0.250140
C84	C	0.725623	-0.681715	0.249860
C85	C	0.122120	-1.058406	-0.250117
C86	C	0.622120	-0.558406	0.249883
C87	C	0.117661	-1.053109	-0.340689
C88	C	0.617661	-0.553109	0.159311
C89	C	0.167177	-1.112122	-0.385983
C90	C	0.667177	-0.612122	0.114017
C91	C	0.209650	-1.162757	-0.521598
C92	C	0.709650	-0.662757	-0.021598
C93	C	0.162608	-1.106707	-0.478559
C94	C	0.662608	-0.606707	0.021441
N95	N	0.196156	-1.146737	0.204683
N96	N	0.696156	-0.646737	0.704683
H97	H	-0.058207	-1.276568	-0.000107
H98	H	0.441793	-0.776568	0.499893
F99	F	0.074662	-0.613806	-0.000084
F100	F	0.574662	-0.113806	0.499916
F101	F	-0.578969	-0.970299	-0.000053
F102	F	-0.078969	-0.470299	0.499947
F103	F	0.312054	-1.284786	-0.611292
F104	F	0.812054	-0.784786	-0.111292
H105	H	0.290459	-1.259096	-0.786926
H106	H	0.790459	-0.759096	-0.286926
H107	H	0.102685	-1.035368	-0.786876
H108	H	0.602685	-0.535368	-0.286876
H109	H	0.118653	-1.054356	-0.515425
H110	H	0.618653	-0.554356	-0.015425
H111	H	0.278861	-0.644551	-0.000069
H112	H	0.778861	-0.144551	0.499931
H113	H	0.073701	-1.000750	-0.377544
H114	H	0.573701	-0.500750	0.122456
F115	F	-0.409425	-0.987608	-0.000042
F116	F	0.090575	-0.487608	0.499958
F117	F	0.098418	-1.030215	-0.611247
F118	F	0.598418	-0.530215	-0.111247
H119	H	-0.207209	-1.261353	-0.000092
H120	H	0.292791	-0.761353	0.499908
F121	F	-0.423123	-1.343018	-0.000075
F122	F	0.076877	-0.843018	0.499925
H123	H	0.253605	-1.215110	-0.484726
H124	H	0.753605	-0.715110	0.015274
H125	H	-0.581578	-1.305229	-0.000088
H126	H	-0.081578	-0.805229	0.499912
H127	H	0.269589	-1.234076	-0.213280
H128	H	0.769589	-0.734076	0.286720
F129	F	-0.204608	-0.926425	-0.000044
F130	F	0.295392	-0.426425	0.499956
F131	F	0.273862	-1.239226	-0.388909
F132	F	0.773862	-0.739226	0.111091
H133	H	-0.046157	-0.964207	-0.000061
H134	H	0.453843	-0.464207	0.499939
F135	F	-0.332963	-0.999748	-0.000053
F136	F	0.167037	-0.499748	0.499947
F137	F	-0.294775	-1.269690	-0.000077
F138	F	0.205225	-0.769690	0.499923
F139	F	0.069425	-0.995607	-0.201906
F140	F	0.569425	-0.495607	0.298094
