data_functionalizedCrystal
_audit_creation_method	'MofGen! by Chris Wilmer'
_symmetry_space_group_name_H-M	'P1'
_symmetry_Int_Tables_number	1
_symmetry_cell_setting	triclinic
loop_
_symmetry_equiv_pos_as_xyz
  x,y,z
_cell_length_a	13.339070
_cell_length_b	10.489716
_cell_length_c	11.804917
_cell_angle_alpha	78.047470
_cell_angle_beta	105.113924
_cell_angle_gamma	100.079215
loop_
_atom_site_label
_atom_site_type_symbol
_atom_site_fract_x
_atom_site_fract_y
_atom_site_fract_z
O1	O	1.326607	0.659642	-0.099020
O2	O	1.031473	0.575496	-0.099018
O3	O	1.185767	0.434273	-0.099023
O4	O	1.172312	0.800864	-0.099015
O5	O	1.226356	0.397145	0.099013
O6	O	1.072062	0.538368	0.099018
O7	O	1.367196	0.622514	0.099017
Cu8	Cu	1.223335	0.577051	0.117100
Cu9	Cu	1.175334	0.620959	-0.117101
O10	O	1.212901	0.763736	0.099022
C11	C	1.013976	0.542718	0.000000
C12	C	0.901368	0.500349	0.000000
C13	C	0.538950	0.829785	-0.000011
C14	C	0.644749	0.869596	-0.000015
C15	C	0.708909	0.777288	-0.000011
C16	C	0.667259	0.645161	-0.000003
C17	C	0.561448	0.605347	-0.000009
C18	C	0.731407	0.552850	-0.000009
C19	C	0.689757	0.420723	-0.000001
C20	C	0.583956	0.380916	-0.000006
C21	C	0.519796	0.473224	-0.000010
C22	C	0.837218	0.592664	-0.000003
C23	C	0.859716	0.368227	-0.000001
C24	C	0.753917	0.328415	0.000003
C25	C	1.205050	0.367832	-0.000009
C26	C	1.202023	0.225167	-0.000019
C27	C	1.296644	0.159884	-0.000009
C28	C	1.226633	0.083712	-0.097648
C29	C	1.266629	0.047135	0.097600
C30	C	1.132035	0.150889	-0.097739
C31	C	1.172063	0.114306	0.097597
C32	C	1.101978	0.038163	-0.000066
C33	C	1.384692	0.655292	-0.000004
C34	C	1.497298	0.697662	-0.000012
C35	C	1.193618	0.830178	0.000005
C36	C	1.196643	0.972844	0.000008
N37	N	1.257104	0.546170	0.281824
N38	N	1.141573	0.651832	-0.281826
C39	C	1.060453	0.726013	0.655867
C40	C	1.034883	0.749382	0.531218
C41	C	1.090437	0.698581	0.468863
C42	C	1.171563	0.624407	0.531170
C43	C	1.197130	0.601027	0.655832
C44	C	1.227113	0.573595	0.468828
C45	C	1.308240	0.499421	0.531135
C46	C	1.333803	0.476046	0.655785
C47	C	1.278250	0.526847	0.718139
C48	C	1.201547	0.596975	0.344167
C49	C	1.338224	0.471989	0.344131
C50	C	1.363793	0.448620	0.468781
H51	H	0.550046	0.273332	-0.000013
H52	H	1.015223	0.767360	0.706644
H53	H	0.911955	0.293062	-0.000003
H54	H	1.323509	0.001868	0.180145
N55	N	1.305841	0.501656	0.852587
H56	H	1.258343	0.545104	0.882627
H57	H	1.296640	0.403896	0.882528
H58	H	0.433645	0.440816	-0.000006
N59	N	0.708976	0.185916	0.000000
H60	H	0.717260	0.157541	-0.073410
H61	H	0.747369	0.130116	0.073463
H62	H	1.399853	0.415637	0.706515
H63	H	1.378926	0.212755	-0.000109
N64	N	0.823026	0.820214	0.000007
H65	H	0.837895	0.799505	-0.073398
H66	H	0.839602	0.917913	0.000052
H67	H	1.075177	0.196019	-0.180377
H68	H	1.249657	0.069367	-0.180197
H69	H	1.019603	-0.014455	-0.000118
H70	H	1.069614	0.717612	0.367368
H71	H	1.149075	0.128685	0.180149
N72	N	1.114050	0.676971	0.276981
H73	H	1.130829	0.767801	0.298684
H74	H	1.106316	0.683974	0.188572
N75	N	1.451293	0.368622	0.535988
H76	H	1.459056	0.361526	0.624415
H77	H	1.434463	0.277835	0.514198
H78	H	0.678650	0.977175	-0.000030
H79	H	0.968830	0.809772	0.480492
N80	N	1.398140	0.417174	0.276894
H81	H	1.369635	0.443240	0.188472
H82	H	1.474660	0.453370	0.298668
H83	H	0.486700	0.904929	-0.000024
N84	N	0.882125	0.735165	-0.000013
H85	H	0.873834	0.763534	0.073397
H86	H	0.958870	0.746292	-0.000057
