data_functionalizedCrystal
_audit_creation_method	'MofGen! by Chris Wilmer'
_symmetry_space_group_name_H-M	'P1'
_symmetry_Int_Tables_number	1
_symmetry_cell_setting	triclinic
loop_
_symmetry_equiv_pos_as_xyz
  x,y,z
_cell_length_a	10.654545
_cell_length_b	14.519731
_cell_length_c	9.730223
_cell_angle_alpha	89.994614
_cell_angle_beta	89.997167
_cell_angle_gamma	84.085966
loop_
_atom_site_label
_atom_site_type_symbol
_atom_site_fract_x
_atom_site_fract_y
_atom_site_fract_z
O1	O	1.666611	0.129511	-0.114280
O2	O	2.166611	0.629511	0.385720
O3	O	1.301014	0.141856	-0.114286
O4	O	1.801014	0.641856	0.385714
O5	O	1.493492	0.001497	-0.114270
O6	O	1.993492	0.501497	0.385730
O7	O	1.474133	0.269871	-0.114295
O8	O	1.974133	0.769871	0.385705
O9	O	1.493479	0.001493	0.114310
O10	O	1.993479	0.501493	0.614310
O11	O	1.301002	0.141852	0.114294
O12	O	1.801002	0.641852	0.614294
O13	O	1.666598	0.129507	0.114300
O14	O	2.166598	0.629507	0.614300
Zn15	Zn	1.483798	0.135679	0.150589
Zn16	Zn	1.983798	0.635679	0.650589
Zn17	Zn	1.483814	0.135684	-0.150575
Zn18	Zn	1.983814	0.635684	0.349425
O19	O	1.474121	0.269867	0.114285
O20	O	1.974121	0.769867	0.614285
C21	C	1.254218	0.140949	0.000004
C22	C	1.754218	0.640949	0.500004
C23	C	1.114801	0.138239	0.000002
C24	C	1.614801	0.638239	0.500002
C25	C	1.049301	0.136962	0.124602
C26	C	1.549301	0.636962	0.624602
C27	C	0.918306	0.134401	0.124602
C28	C	1.418306	0.634401	0.624602
C29	C	0.918320	0.134399	-0.124609
C30	C	1.418320	0.634399	0.375391
C31	C	1.049314	0.136953	-0.124607
C32	C	1.549314	0.636953	0.375393
C33	C	1.492578	-0.032869	0.000020
C34	C	1.992578	0.467131	0.500020
C35	C	1.489860	-0.135264	0.000021
C36	C	1.989860	0.364736	0.500021
C37	C	1.487652	-0.218419	0.000018
C38	C	1.987652	0.281581	0.500018
C39	C	1.484892	-0.322742	0.000007
C40	C	1.984892	0.177258	0.500007
C41	C	1.482702	-0.405893	-0.000002
C42	C	1.982702	0.094107	0.499998
C43	C	1.479942	-0.510222	-0.000010
C44	C	1.979942	-0.010222	0.499990
C45	C	1.713394	0.130415	0.000008
C46	C	2.213394	0.630415	0.500008
C47	C	1.852812	0.133124	0.000001
C48	C	2.352812	0.633124	0.500001
C49	C	1.475034	0.304233	-0.000009
C50	C	1.975034	0.804233	0.499991
C51	C	1.477752	0.406627	-0.000018
C52	C	1.977752	0.906627	0.499982
N53	N	1.483796	0.135675	0.356126
N54	N	1.983796	0.635675	0.856126
N55	N	1.483826	0.135681	-0.356111
N56	N	1.983826	0.635681	0.143889
C57	C	1.569054	0.073550	0.428059
C58	C	2.069054	0.573550	0.928059
C59	C	1.569066	0.073551	0.571942
C60	C	2.069066	0.573551	1.071942
C61	C	1.398559	0.197809	0.571946
C62	C	1.898559	0.697809	1.071946
C63	C	1.398541	0.197803	0.428066
C64	C	1.898541	0.697803	0.928066
H65	H	0.864983	0.133361	0.226064
H66	H	1.364983	0.633361	0.726064
H67	H	1.102616	0.138009	0.226066
H68	H	1.602616	0.638009	0.726066
H69	H	0.864985	0.133353	-0.226061
H70	H	1.364985	0.633353	0.273939
H71	H	1.638490	0.022962	0.630505
H72	H	2.138490	0.522962	1.130505
H73	H	1.102646	0.137991	-0.226078
H74	H	1.602646	0.637991	0.273922
N75	N	1.656068	0.010029	0.354594
N76	N	2.156068	0.510029	0.854594
N77	N	1.732133	-0.045473	0.418844
N78	N	2.232133	0.454527	0.918844
H79	H	1.793560	-0.090361	0.366964
H80	H	2.293560	0.409639	0.866964
H81	H	1.329148	0.248393	0.630534
H82	H	1.829148	0.748393	1.130534
N83	N	1.311430	0.261266	0.354600
N84	N	1.811430	0.761266	0.854600
N85	N	1.235323	0.316735	0.418844
N86	N	1.735323	0.816735	0.918844
H87	H	1.173799	0.361552	0.366960
H88	H	1.673799	0.861552	0.866960
