data_functionalizedCrystal
_audit_creation_method	'MofGen! by Chris Wilmer'
_symmetry_space_group_name_H-M	'P1'
_symmetry_Int_Tables_number	1
_symmetry_cell_setting	triclinic
loop_
_symmetry_equiv_pos_as_xyz
  x,y,z
_cell_length_a	6.817900
_cell_length_b	10.992469
_cell_length_c	10.992743
_cell_angle_alpha	91.823596
_cell_angle_beta	108.770538
_cell_angle_gamma	108.765624
loop_
_atom_site_label
_atom_site_type_symbol
_atom_site_fract_x
_atom_site_fract_y
_atom_site_fract_z
V1	V	-4.114299	-0.177721	-0.400571
O2	O	-4.072421	0.008581	-0.392964
O3	O	-4.091882	-0.352431	-0.397813
O4	O	-4.091911	-0.174970	-0.575282
O5	O	-4.072392	-0.170108	-0.214267
V6	V	-4.591190	-0.155440	-0.378289
O7	O	-4.390106	-0.226598	-0.449446
O8	O	-4.765580	-0.106563	-0.329414
O9	O	-4.390400	0.019270	-0.381047
O10	O	-4.750464	-0.341742	-0.385896
O11	O	-4.750494	-0.163053	-0.564593
O12	O	-4.390371	-0.158191	-0.203578
C13	C	-3.942362	-0.395022	-0.391489
C14	C	-4.005493	-0.537848	-0.390399
C15	C	-3.807114	-0.584348	-0.382243
C16	C	-3.872968	-0.732984	-0.381612
C17	C	-4.270218	-0.764484	-0.515755
C18	C	-4.203092	-0.615838	-0.516925
C19	C	-4.079398	-0.577561	-0.271576
C20	C	-4.140135	-0.725781	-0.268697
C21	C	-3.942398	-0.168651	-0.617866
C22	C	-4.005549	-0.167557	-0.760693
C23	C	-4.317988	-0.174249	-0.971786
C24	C	-4.252204	-0.174894	-0.823154
C25	C	-3.855213	-0.040045	-0.791481
C26	C	-3.922275	-0.038864	-0.940123
C27	C	-4.044626	-0.284158	-0.978370
C28	C	-3.983951	-0.287059	-0.830155
C29	C	-4.203263	0.061854	-0.387368
C30	C	-4.119371	0.204679	-0.388466
C31	C	-4.203226	-0.164514	-0.160987
C32	C	-4.119312	-0.165601	-0.018159
H33	H	-4.227084	-0.548011	-0.276359
H34	H	-4.096050	-0.381315	-0.811988
H35	H	-4.466788	-0.265406	-1.024413
H36	H	-4.157458	-0.592794	-0.606774
H37	H	-3.809027	-0.289132	-0.788409
H38	H	-3.896392	-0.278846	-1.007551
H39	H	-3.968497	0.050797	-0.963222
H40	H	-3.772063	-0.027302	-0.969405
H41	H	-3.847809	-0.779283	-0.467022
H42	H	-4.180669	-0.379774	-1.032949
H43	H	-3.657928	-0.531763	-0.291254
H44	H	-3.756391	-0.752631	-0.290138
H45	H	-4.353109	-0.586462	-0.528109
H46	H	-3.868081	0.048725	-0.742698
H47	H	-3.749720	-0.557668	-0.467599
H48	H	-4.451672	-0.806259	-0.525415
H49	H	-4.314837	-0.767432	-0.266274
H50	H	-4.257956	-0.813318	-0.604713
H51	H	-4.368429	-0.266542	-0.803547
H52	H	-4.375953	-0.089097	-0.998525
H53	H	-4.277973	-0.089697	-0.776916
H54	H	-3.942912	-0.523014	-0.176095
H55	H	-3.673598	-0.030031	-0.749616
H56	H	-4.027669	-0.743993	-0.174603
