data_functionalizedCrystal
_audit_creation_method	'MofGen! by Chris Wilmer'
_symmetry_space_group_name_H-M	'P1'
_symmetry_Int_Tables_number	1
_symmetry_cell_setting	triclinic
loop_
_symmetry_equiv_pos_as_xyz
  x,y,z
_cell_length_a	11.792241
_cell_length_b	19.288864
_cell_length_c	17.766277
_cell_angle_alpha	89.971843
_cell_angle_beta	89.991519
_cell_angle_gamma	83.664832
loop_
_atom_site_label
_atom_site_type_symbol
_atom_site_fract_x
_atom_site_fract_y
_atom_site_fract_z
O1	O	1.505473	0.095201	-0.062619
O2	O	2.005473	0.595201	0.437381
O3	O	1.174983	0.105012	-0.062627
O4	O	1.674983	0.605012	0.437373
O5	O	1.349777	-0.000970	-0.062576
O6	O	1.849777	0.499030	0.437424
O7	O	1.330678	0.201183	-0.062670
O8	O	1.830678	0.701183	0.437330
O9	O	1.349747	-0.000975	0.062612
O10	O	1.849747	0.499025	0.562612
O11	O	1.174952	0.105007	0.062561
O12	O	1.674952	0.605007	0.562561
O13	O	1.505442	0.095195	0.062570
O14	O	2.005442	0.595195	0.562570
Cu15	Cu	1.340194	0.100100	0.073996
Cu16	Cu	1.840194	0.600100	0.573996
Cu17	Cu	1.340230	0.100107	-0.074054
Cu18	Cu	1.840230	0.600107	0.425946
O19	O	1.330647	0.201177	0.062519
O20	O	1.830647	0.701177	0.562519
C21	C	1.132686	0.104393	-0.000034
C22	C	1.632686	0.604393	0.499966
C23	C	1.006700	0.102548	-0.000034
C24	C	1.506700	0.602548	0.499966
C25	C	1.547739	0.095814	-0.000026
C26	C	2.047739	0.595814	0.499974
C27	C	1.673725	0.097659	-0.000030
C28	C	2.173725	0.597659	0.499970
C29	C	1.904385	0.101051	-0.000031
C30	C	2.404385	0.601051	0.499969
C31	C	1.776029	0.099166	-0.000030
C32	C	2.276029	0.599166	0.499970
C33	C	1.349147	-0.026852	0.000028
C34	C	1.849147	0.473148	0.500028
C35	C	1.347303	-0.103966	0.000059
C36	C	1.847303	0.396034	0.500059
C37	C	1.331277	0.227060	-0.000088
C38	C	1.831277	0.727060	0.499912
C39	C	1.333122	0.304174	-0.000123
C40	C	1.833122	0.804174	0.499877
N41	N	1.340177	0.100095	0.178127
N42	N	1.840177	0.600095	0.678127
C43	C	1.230561	0.348287	-0.000111
C44	C	1.730561	0.848287	0.499889
C45	C	1.232294	0.420744	-0.000094
C46	C	1.732294	0.920744	0.499906
C47	C	1.336594	0.449084	-0.000074
C48	C	1.836594	0.949084	0.499926
C49	C	1.439169	0.404961	-0.000091
C50	C	1.939169	0.904961	0.499909
C51	C	1.437433	0.332506	-0.000115
C52	C	1.937433	0.832506	0.499885
C53	C	1.418575	0.557798	0.043827
C54	C	1.918575	1.057798	0.543827
C55	C	1.420307	0.630253	0.043856
C56	C	1.920307	1.130253	0.543856
C57	C	1.341953	0.672560	-0.000002
C58	C	1.841953	1.172560	0.499998
C59	C	1.261848	0.642407	-0.043879
C60	C	1.761848	1.142407	0.456121
C61	C	1.260112	0.569951	-0.043904
C62	C	1.760112	1.069951	0.456096
C63	C	1.338488	0.527649	-0.000048
C64	C	1.838488	1.027649	0.499952
C65	C	1.241264	0.795241	0.000028
C66	C	1.741264	1.295241	0.500028
C67	C	1.243001	0.867699	0.000041
C68	C	1.743001	1.367699	0.500041
C69	C	1.449880	0.851914	0.000051
C70	C	1.949880	1.351914	0.500051
C71	C	1.448139	0.779457	0.000031
C72	C	1.948139	1.279457	0.500031
C73	C	1.343828	0.751125	0.000023
C74	C	1.843828	1.251125	0.500023
N75	N	1.340257	0.100107	-0.178184
N76	N	1.840257	0.600107	0.321816
C77	C	1.417601	0.053190	0.217536
C78	C	1.917601	0.553190	0.717536
C79	C	1.417608	0.053187	0.296338
C80	C	1.917608	0.553187	0.796338
C81	C	1.340201	0.100101	0.335727
C82	C	1.840201	0.600101	0.835727
C83	C	1.262763	0.147010	0.296308
C84	C	1.762763	0.647010	0.796308
C85	C	1.262751	0.147007	0.217508
C86	C	1.762751	0.647007	0.717508
C87	C	1.325007	0.163302	0.460536
C88	C	1.825007	0.663302	0.960536
C89	C	1.325027	0.163306	0.539335
C90	C	1.825027	0.663306	1.039335
C91	C	1.340231	0.100110	0.578773
C92	C	1.840231	0.600110	1.078773
C93	C	1.355440	0.036907	0.539404
C94	C	1.855440	0.536907	1.039404
C95	C	1.355428	0.036904	0.460604
C96	C	1.855428	0.536904	0.960604
C97	C	1.340205	0.100109	0.421173
C98	C	1.840205	0.600109	0.921173
C99	C	1.417667	0.053197	0.703629
C100	C	1.917667	0.553197	1.203629
C101	C	1.417665	0.053193	0.782432
C102	C	1.917665	0.553193	1.282432
C103	C	1.262826	0.147022	0.782401
C104	C	1.762826	0.647022	1.282401
C105	C	1.262822	0.147020	0.703599
C106	C	1.762822	0.647020	1.203599
C107	C	1.340248	0.100108	0.664218
C108	C	1.840248	0.600108	1.164218
H109	H	1.145622	0.325225	-0.000124
H110	H	1.645622	0.825225	0.499876
H111	H	1.480643	0.014990	0.185474
H112	H	1.980643	0.514990	0.685474
H113	H	1.531656	0.743539	0.000026
H114	H	2.031656	1.243539	0.500026
H115	H	1.534803	0.874987	0.000013
H116	H	2.034803	1.374987	0.500013
H117	H	1.480657	0.014989	0.328431
H118	H	1.980657	0.514989	0.828431
H119	H	1.199735	0.185207	0.328383
H120	H	1.699735	0.685207	0.828383
H121	H	1.367808	-0.014558	0.428552
H122	H	1.867808	0.485442	0.928552
H123	H	1.159480	0.903616	0.000046
H124	H	1.659480	1.403616	0.500046
H125	H	1.199780	0.185218	0.671510
H126	H	1.699780	0.685218	1.171510
H127	H	1.485528	0.654798	0.079587
H128	H	1.985528	1.154798	0.579587
H129	H	1.312650	0.214770	0.571383
H130	H	1.812650	0.714770	1.071383
H131	H	1.156327	0.772172	0.000026
H132	H	1.656327	1.272172	0.500026
H133	H	1.520954	0.296588	-0.000126
H134	H	2.020954	0.796588	0.499874
H135	H	1.367820	-0.014554	0.571513
H136	H	1.867820	0.485446	1.071513
H137	H	1.312606	0.214768	0.428431
H138	H	1.812606	0.714768	0.928431
H139	H	1.198039	0.676853	-0.079587
H140	H	1.698039	1.176853	0.420413
H141	H	1.148773	0.456669	-0.000082
H142	H	1.648773	0.956669	0.499918
H143	H	1.480709	0.014996	0.671563
H144	H	1.980709	0.514996	1.171563
H145	H	1.199701	0.185204	0.185420
H146	H	1.699701	0.685204	0.685420
H147	H	1.194890	0.545403	-0.079631
H148	H	1.694890	1.045403	0.420369
H149	H	1.482389	0.523356	0.079540
H150	H	1.982389	1.023356	0.579540
H151	H	1.524091	0.428040	-0.000089
H152	H	2.024091	0.928040	0.499911
H153	H	1.480710	0.014993	0.814520
H154	H	1.980710	0.514993	1.314520
H155	H	1.199795	0.185218	0.814471
H156	H	1.699795	0.685218	1.314471
