data_functionalizedCrystal
_audit_creation_method	'MofGen! by Chris Wilmer'
_symmetry_space_group_name_H-M	'P1'
_symmetry_Int_Tables_number	1
_symmetry_cell_setting	triclinic
loop_
_symmetry_equiv_pos_as_xyz
  x,y,z
_cell_length_a	6.817900
_cell_length_b	11.514786
_cell_length_c	16.462897
_cell_angle_alpha	82.212790
_cell_angle_beta	75.969381
_cell_angle_gamma	70.411456
loop_
_atom_site_label
_atom_site_type_symbol
_atom_site_fract_x
_atom_site_fract_y
_atom_site_fract_z
V1	V	-4.048845	0.169820	0.236400
O2	O	-4.019539	-0.007131	0.257223
O3	O	-4.015983	0.335735	0.210428
O4	O	-4.002880	0.167659	0.350613
O5	O	-4.032733	0.162107	0.116067
V6	V	-4.530144	0.148601	0.224966
O7	O	-4.314982	0.216365	0.261481
O8	O	-4.714205	0.102056	0.199884
O9	O	-4.339800	-0.017314	0.250938
O10	O	-4.676847	0.325552	0.204142
O11	O	-4.663654	0.156314	0.345298
O12	O	-4.352903	0.150762	0.110752
C13	C	-3.864685	0.376167	0.200414
C14	C	-3.919120	0.511807	0.179940
C15	C	-3.984915	0.589118	0.241253
C16	C	-4.041176	0.729309	0.220094
C17	C	-3.847970	0.161769	0.379234
C18	C	-3.891775	0.161100	0.472444
C19	C	-4.175296	0.165646	0.690268
C20	C	-4.216435	0.165007	0.777849
C21	C	-3.850837	0.152801	0.771086
C22	C	-3.809697	0.153431	0.683507
C23	C	-3.971936	0.159860	0.643100
C24	C	-4.054216	0.158591	0.818260
C25	C	-4.098819	0.157898	0.913219
C26	C	-3.927329	0.160550	0.548135
C27	C	-4.178137	0.156664	1.082127
C28	C	-4.134376	0.157351	0.988916
C29	C	-4.161408	0.942260	0.260945
C30	C	-4.106975	0.806619	0.281416
H31	H	-4.121649	0.769027	0.349578
H32	H	-3.904429	0.549406	0.111783
H33	H	-4.382026	0.169717	0.816250
O34	O	-4.002112	0.544324	0.322574
C35	C	-3.887417	0.529513	0.452078
C36	C	-3.867695	0.580285	0.359990
H37	H	-3.778793	0.558589	0.482362
H38	H	-3.838814	0.424430	0.454706
H39	H	-4.059389	0.568005	0.487361
H40	H	-3.695765	0.541886	0.324652
H41	H	-3.916431	0.685367	0.357425
O42	O	-4.023876	0.774356	0.138823
C43	C	-4.063994	0.955152	0.043634
C44	C	-4.083717	0.904303	0.135707
H45	H	-4.112321	1.060219	0.041084
H46	H	-4.172820	0.926293	0.013325
H47	H	-3.892071	0.916569	0.008325
H48	H	-4.255568	0.942861	0.171086
H49	H	-3.974765	0.933151	0.165951
H50	H	-4.307403	0.170879	0.657372
O51	O	-3.693520	0.146627	0.810469
C52	C	-3.594838	0.140183	0.942394
C53	C	-3.773208	0.147202	0.897902
H54	H	-3.659188	0.140619	1.013091
H55	H	-3.535805	0.223141	0.920240
H56	H	-3.457406	0.051496	0.926783
H57	H	-3.910764	0.235837	0.913492
H58	H	-3.832065	0.064183	0.920058
O59	O	-3.612307	0.148028	0.637599
C60	C	-3.402259	0.248040	0.530756
C61	C	-3.625911	0.254277	0.582665
H62	H	-3.413176	0.333943	0.486341
H63	H	-3.334547	0.162280	0.492833
H64	H	-3.293443	0.243309	0.574714
H65	H	-3.734889	0.259054	0.538767
H66	H	-3.693448	0.340023	0.620598
