data_functionalizedCrystal
_audit_creation_method	'MofGen! by Chris Wilmer'
_symmetry_space_group_name_H-M	'P1'
_symmetry_Int_Tables_number	1
_symmetry_cell_setting	triclinic
loop_
_symmetry_equiv_pos_as_xyz
  x,y,z
_cell_length_a	23.532407
_cell_length_b	17.038272
_cell_length_c	22.010155
_cell_angle_alpha	89.997018
_cell_angle_beta	90.009453
_cell_angle_gamma	86.980117
loop_
_atom_site_label
_atom_site_type_symbol
_atom_site_fract_x
_atom_site_fract_y
_atom_site_fract_z
O1	O	-0.760256	-0.094865	-0.050450
O2	O	-0.260256	0.405135	0.449550
O3	O	-0.595114	-0.108592	-0.050467
O4	O	-0.095114	0.391408	0.449533
O5	O	-0.676704	0.012080	-0.050454
O6	O	-0.176704	0.512080	0.449546
O7	O	-0.678667	-0.215537	-0.050463
O8	O	-0.178667	0.284463	0.449537
O9	O	-0.676678	0.012064	0.050597
O10	O	-0.176678	0.512064	0.550597
O11	O	-0.595089	-0.108608	0.050583
O12	O	-0.095089	0.391392	0.550583
O13	O	-0.760231	-0.094881	0.050601
O14	O	-0.260231	0.405119	0.550601
Cu15	Cu	-0.677657	-0.101746	0.059819
Cu16	Cu	-0.177657	0.398254	0.559819
Cu17	Cu	-0.677688	-0.101727	-0.059685
Cu18	Cu	-0.177688	0.398273	0.440315
O19	O	-0.678641	-0.215552	0.050587
O20	O	-0.178641	0.284448	0.550587
C21	C	-0.573867	-0.108251	0.000055
C22	C	-0.073867	0.391749	0.500055
C23	C	-0.510595	-0.107200	0.000049
C24	C	-0.010595	0.392800	0.500049
C25	C	-0.781478	-0.095222	0.000076
C26	C	-0.281478	0.404778	0.500076
C27	C	-0.844750	-0.096273	0.000079
C28	C	-0.344750	0.403727	0.500079
N29	N	-0.677640	-0.101758	0.143871
N30	N	-0.177640	0.398242	0.643871
C31	C	-0.114900	-0.172019	0.000074
C32	C	0.385100	0.327981	0.500074
C33	C	-0.055448	-0.171042	0.000077
C34	C	0.444552	0.328958	0.500077
O35	O	-0.021862	-0.231130	0.000097
O36	O	0.478138	0.268870	0.500097
N37	N	-0.029050	-0.099303	0.000079
N38	N	0.470950	0.400697	0.500079
C39	C	-0.062108	-0.028535	0.000084
C40	C	0.437892	0.471465	0.500084
O41	O	-0.034195	0.032574	0.000086
O42	O	0.465805	0.532574	0.500086
C43	C	-0.121558	-0.029512	0.000084
C44	C	0.378442	0.470488	0.500084
C45	C	-0.147952	-0.101256	0.000076
C46	C	0.352048	0.398744	0.500076
C47	C	-0.141294	-0.243757	0.000066
C48	C	0.358706	0.256243	0.500066
C49	C	-0.200742	-0.244733	0.000061
C50	C	0.299258	0.255267	0.500061
C51	C	-0.233794	-0.173971	0.000064
C52	C	0.266206	0.326029	0.500064
C53	C	-0.207400	-0.102232	0.000071
C54	C	0.292600	0.397768	0.500071
C55	C	-0.154614	0.041254	0.000093
C56	C	0.345386	0.541254	0.500093
C57	C	-0.214068	0.040271	0.000094
C58	C	0.285932	0.540271	0.500094
C59	C	-0.240463	-0.031473	0.000086
C60	C	0.259537	0.468527	0.500086
C61	C	-0.299900	-0.032446	0.000069
C62	C	0.200100	0.467554	0.500069
N63	N	-0.326298	-0.104186	0.000067
N64	N	0.173702	0.395814	0.500067
C65	C	-0.293245	-0.174948	0.000064
C66	C	0.206755	0.325052	0.500064
C67	C	0.062743	-0.026489	0.000083
C68	C	0.562743	0.473511	0.500083
C69	C	0.122192	-0.025511	0.000079
C70	C	0.622192	0.474489	0.500079
C71	C	0.128847	-0.168018	0.000073
C72	C	0.628847	0.331982	0.500073
C73	C	0.069397	-0.168995	0.000074
C74	C	0.569397	0.331005	0.500074
C75	C	0.036345	-0.098228	0.000082
C76	C	0.536345	0.401772	0.500082
C77	C	-0.418089	-0.176992	0.000054
C78	C	0.081911	0.323008	0.500054
C79	C	-0.477542	-0.177962	0.000046
C80	C	0.022458	0.322038	0.500046
C81	C	-0.484192	-0.035455	0.000055
C82	C	0.015808	0.464545	0.500055
C83	C	-0.424745	-0.034485	0.000059
C84	C	0.075255	0.465515	0.500059
C85	C	-0.391694	-0.105260	0.000060
C86	C	0.108306	0.394740	0.500060
O87	O	-0.333522	0.027610	0.000052
O88	O	0.166478	0.527610	0.500052
O89	O	-0.321165	-0.236047	0.000070
O90	O	0.178835	0.263953	0.500070
C91	C	-0.674906	0.041187	0.000071
C92	C	-0.174906	0.541187	0.500071
C93	C	-0.669579	0.127940	0.000070
C94	C	-0.169579	0.627940	0.500070
C95	C	-0.680439	-0.244660	0.000061
C96	C	-0.180439	0.255340	0.500061
C97	C	-0.685766	-0.331413	0.000058
C98	C	-0.185766	0.168587	0.500058
C99	C	-0.718484	0.178417	0.000076
C100	C	-0.218484	0.678417	0.500076
C101	C	-0.713475	0.259930	0.000070
C102	C	-0.213475	0.759930	0.500070
C103	C	-0.659562	0.290965	0.000062
C104	C	-0.159562	0.790965	0.500062
C105	C	-0.610654	0.240483	0.000054
C106	C	-0.110654	0.740483	0.500054
C107	C	-0.615662	0.158971	0.000056
C108	C	-0.115662	0.658971	0.500056
C109	C	-0.641866	0.536592	0.000052
C110	C	-0.141866	1.036592	0.500052
C111	C	-0.636861	0.618111	0.000052
C112	C	-0.136861	1.118111	0.500052
C113	C	-0.739684	0.637552	0.000066
C114	C	-0.239684	1.137552	0.500066
C115	C	-0.744688	0.556038	0.000072
C116	C	-0.244688	1.056038	0.500072
C117	C	-0.695779	0.505562	0.000061
C118	C	-0.195779	1.005562	0.500061
C119	C	-0.654441	0.374285	0.000058
C120	C	-0.154441	0.874285	0.500058
C121	C	-0.700901	0.422244	0.000061
C122	C	-0.200901	0.922244	0.500061
C123	C	-0.640848	-0.054567	0.436474
C124	C	-0.140848	0.445433	0.936474
C125	C	-0.640843	-0.054570	0.372866
C126	C	-0.140843	0.445430	0.872866
O127	O	-0.609541	-0.014443	0.339967
O128	O	-0.109541	0.485557	0.839967
N129	N	-0.677660	-0.101737	0.341055
N130	N	-0.177660	0.398263	0.841055
C131	C	-0.714488	-0.148899	0.372855
C132	C	-0.214488	0.351101	0.872855
O133	O	-0.745803	-0.189018	0.339956
O134	O	-0.245803	0.310982	0.839956
C135	C	-0.714495	-0.148892	0.436461
C136	C	-0.214495	0.351108	0.936461
C137	C	-0.677671	-0.101727	0.468269
C138	C	-0.177671	0.398273	0.968269
C139	C	-0.604028	-0.007406	0.468282
C140	C	-0.104028	0.492594	0.968282
C141	C	-0.604032	-0.007404	0.531885
C142	C	-0.104032	0.492596	1.031885
C143	C	-0.640855	-0.054565	0.563680
C144	C	-0.140855	0.445435	1.063680
C145	C	-0.677675	-0.101726	0.531872
C146	C	-0.177675	0.398274	1.031872
C147	C	-0.751325	-0.196049	0.468260
C148	C	-0.251325	0.303951	0.968260
C149	C	-0.751329	-0.196037	0.531870
C150	C	-0.251329	0.303963	1.031870
C151	C	-0.714505	-0.148873	0.563678
C152	C	-0.214505	0.351127	1.063678
C153	C	-0.714503	-0.148885	0.627271
C154	C	-0.214503	0.351115	1.127271
N155	N	-0.677686	-0.101717	0.659082
N156	N	-0.177686	0.398283	1.159082
C157	C	-0.640862	-0.054557	0.627287
C158	C	-0.140862	0.445443	1.127287
C159	C	-0.714471	-0.148910	0.239277
C160	C	-0.214471	0.351090	0.739277
C161	C	-0.714462	-0.148922	0.175672
C162	C	-0.214462	0.351078	0.675672
C163	C	-0.640818	-0.054591	0.175688
C164	C	-0.140818	0.445409	0.675688
C165	C	-0.640825	-0.054584	0.239294
C166	C	-0.140825	0.445416	0.739294
C167	C	-0.677655	-0.101742	0.271088
C168	C	-0.177655	0.398258	0.771088
C169	C	-0.640872	-0.054559	0.760858
C170	C	-0.140872	0.445441	1.260858
C171	C	-0.640878	-0.054564	0.824467
C172	C	-0.140878	0.445436	1.324467
C173	C	-0.714524	-0.148891	0.824446
C174	C	-0.214524	0.351109	1.324446
C175	C	-0.714516	-0.148889	0.760842
C176	C	-0.214516	0.351111	1.260842
C177	C	-0.677689	-0.101717	0.729050
C178	C	-0.177689	0.398283	1.229050
O179	O	-0.745790	-0.188988	0.660210
O180	O	-0.245790	0.311012	1.160210
O181	O	-0.609557	-0.014437	0.660193
O182	O	-0.109557	0.485563	1.160193
N183	N	-0.677701	-0.101724	0.856262
N184	N	-0.177701	0.398276	1.356262
H185	H	-0.499029	-0.236387	0.000039
H186	H	0.000971	0.263613	0.500039
H187	H	-0.511115	0.022158	0.000054
H188	H	-0.011115	0.522158	0.500054
H189	H	-0.222226	-0.303154	0.000054
H190	H	0.277774	0.196846	0.500054
O191	O	-0.776634	0.144943	0.000079
O192	O	-0.276634	0.644943	0.500079
H193	H	-0.809798	0.193740	0.000074
H194	H	-0.309798	0.693740	0.500074
O195	O	0.040930	-0.246375	0.000069
O196	O	0.540930	0.253625	0.500069
H197	H	0.014010	-0.250235	0.041255
H198	H	0.514010	0.249765	0.541255
H199	H	-0.574048	0.031005	0.557778
H200	H	-0.074048	0.531005	1.057778
O201	O	-0.552502	0.273950	0.000052
O202	O	-0.052502	0.773950	0.500052
H203	H	-0.557233	0.339111	0.000061
H204	H	-0.057233	0.839111	0.500061
O205	O	-0.562915	0.104525	0.000051
O206	O	-0.062915	0.604525	0.500051
H207	H	-0.562729	0.066916	0.041235
H208	H	-0.062729	0.566916	0.541235
H209	H	0.143677	0.032911	0.000076
H210	H	0.643677	0.532911	0.500076
H211	H	-0.781321	-0.234439	0.557754
H212	H	-0.281321	0.265561	1.057754
O213	O	-0.126161	0.118641	0.000109
O214	O	0.373839	0.618641	0.500109
H215	H	-0.099244	0.122525	-0.041077
H216	H	0.400756	0.622525	0.458923
H217	H	-0.753299	0.301025	0.000076
H218	H	-0.253299	0.801025	0.500076
O219	O	-0.578711	0.651594	0.000042
O220	O	-0.078711	1.151594	0.500042
H221	H	-0.555033	0.631304	-0.041153
H222	H	-0.055033	1.131304	0.458847
H223	H	-0.781311	-0.234454	0.442373
H224	H	-0.281311	0.265546	0.942373
H225	H	-0.240977	0.097900	0.000101
H226	H	0.259023	0.597900	0.500101
H227	H	-0.610834	-0.016191	0.149789
H228	H	-0.110834	0.483809	0.649789
H229	H	-0.744797	0.396972	0.000054
H230	H	-0.244797	0.896972	0.500054
H231	H	-0.744493	-0.187306	0.734943
H232	H	-0.244493	0.312694	1.234943
O233	O	-0.589113	0.482165	0.000048
O234	O	-0.089113	0.982165	0.500048
H235	H	-0.588937	0.444571	-0.041141
H236	H	-0.088937	0.944571	0.458859
O237	O	0.164502	-0.244345	0.000081
O238	O	0.664502	0.255655	0.500081
H239	H	0.210275	-0.231606	0.000090
H240	H	0.710275	0.268394	0.500090
H241	H	-0.610889	-0.016157	0.850362
H242	H	-0.110889	0.483843	1.350362
O243	O	-0.596291	0.407758	0.000052
O244	O	-0.096291	0.907758	0.500052
H245	H	-0.572590	0.387447	0.041236
H246	H	-0.072590	0.887447	0.541236
H247	H	-0.403253	0.023935	0.000057
H248	H	0.096747	0.523935	0.500057
H249	H	-0.574041	0.031002	0.442401
H250	H	-0.074041	0.531002	0.942401
O251	O	-0.802836	0.522560	0.000080
O252	O	-0.302836	1.022560	0.500080
H253	H	-0.807583	0.485884	-0.041102
H254	H	-0.307583	0.985884	0.458898
H255	H	-0.610884	-0.016146	0.734981
H256	H	-0.110884	0.483854	1.234981
H257	H	-0.779502	0.678658	0.000074
H258	H	-0.279502	1.178658	0.500074
O259	O	-0.754246	-0.199741	0.858750
O260	O	-0.254246	0.300259	1.358750
H261	H	-0.728995	-0.241929	0.887748
H262	H	-0.228995	0.258071	1.387748
O263	O	-0.754189	-0.199788	0.273569
O264	O	-0.254189	0.300212	0.773569
H265	H	-0.779782	-0.232590	0.240758
H266	H	-0.279782	0.267410	0.740758
O267	O	-0.382445	-0.253325	0.000050
O268	O	0.117555	0.246675	0.500050
H269	H	-0.410795	-0.303367	0.000038
H270	H	0.089205	0.196633	0.500038
O271	O	0.027094	0.049843	0.000083
O272	O	0.527094	0.549843	0.500083
H273	H	0.055442	0.099886	0.000079
H274	H	0.555442	0.599886	0.500079
H275	H	-0.610840	-0.016178	0.265188
H276	H	-0.110840	0.483822	0.765188
H277	H	-0.744441	-0.187338	0.149779
H278	H	-0.244441	0.312662	0.649779
O279	O	-0.105648	-0.320085	0.000061
O280	O	0.394352	0.179915	0.500061
H281	H	-0.133999	-0.370125	0.000052
H282	H	0.366001	0.129875	0.500052
