data_functionalizedCrystal
_audit_creation_method	'MofGen! by Chris Wilmer'
_symmetry_space_group_name_H-M	'P1'
_symmetry_Int_Tables_number	1
_symmetry_cell_setting	triclinic
loop_
_symmetry_equiv_pos_as_xyz
  x,y,z
_cell_length_a	14.044191
_cell_length_b	14.044220
_cell_length_c	10.065875
_cell_angle_alpha	99.572841
_cell_angle_beta	80.426843
_cell_angle_gamma	93.190327
loop_
_atom_site_label
_atom_site_type_symbol
_atom_site_fract_x
_atom_site_fract_y
_atom_site_fract_z
O1	O	1.289977	0.217384	-0.113432
O2	O	1.013307	0.209070	-0.113449
O3	O	1.147488	0.074893	-0.113428
O4	O	1.155796	0.351561	-0.113454
O5	O	1.121852	0.100532	0.113557
O6	O	0.987671	0.234709	0.113535
O7	O	1.264341	0.243023	0.113552
Zn8	Zn	1.121936	0.242937	0.149582
Zn9	Zn	1.155712	0.209156	-0.149480
O10	O	1.130160	0.377200	0.113531
C11	C	0.964867	0.218252	0.000041
C12	C	0.858725	0.207404	0.000035
C13	C	0.613265	0.264506	0.000043
C14	C	0.664390	0.187590	0.000048
C15	C	0.772528	0.198617	0.000041
C16	C	0.505118	0.253480	0.000050
C17	C	1.131034	0.052090	0.000065
C18	C	1.120189	-0.054053	0.000066
C19	C	1.100365	-0.248393	0.000045
C20	C	1.177280	-0.299521	0.000046
C21	C	1.166249	-0.407659	0.000034
C22	C	1.111394	-0.140246	0.000057
C23	C	1.312781	0.233840	0.000059
C24	C	1.418925	0.244687	0.000056
C25	C	1.146614	0.400002	0.000035
C26	C	1.157460	0.506144	0.000025
N27	N	1.098891	0.265991	0.353684
N28	N	1.178764	0.186095	-0.353581
C29	C	1.129967	0.234915	0.578632
C30	C	1.147695	0.217164	0.421467
H31	H	0.626957	0.113448	-0.000041
H32	H	1.233662	0.131153	0.588101
H33	H	1.026238	-0.285833	0.000037
H34	H	1.075062	0.289850	0.636947
H35	H	0.650708	0.338631	0.000032
C36	C	1.277424	-0.248944	0.000082
H37	H	1.271797	-0.181842	0.000105
H38	H	1.320079	-0.275815	-0.079062
H39	H	1.302169	-0.257956	0.079257
C40	C	1.024720	0.340214	0.432446
H41	H	1.022538	0.342415	0.527746
H42	H	0.962738	0.321841	0.409110
H43	H	1.043141	0.402187	0.409087
C44	C	1.221878	0.142954	0.342703
H45	H	1.224071	0.140768	0.247404
H46	H	1.203481	0.080980	0.366053
H47	H	1.283860	0.161350	0.366043
