data_functionalizedCrystal
_audit_creation_method	'MofGen! by Chris Wilmer'
_symmetry_space_group_name_H-M	'P1'
_symmetry_Int_Tables_number	1
_symmetry_cell_setting	triclinic
loop_
_symmetry_equiv_pos_as_xyz
  x,y,z
_cell_length_a	19.188925
_cell_length_b	19.188930
_cell_length_c	17.666332
_cell_angle_alpha	90.011603
_cell_angle_beta	89.989697
_cell_angle_gamma	96.856335
loop_
_atom_site_label
_atom_site_type_symbol
_atom_site_fract_x
_atom_site_fract_y
_atom_site_fract_z
O1	O	0.926152	-0.087151	-0.062973
O2	O	0.722840	-0.098889	-0.062972
O3	O	0.830363	0.008636	-0.062958
O4	O	0.818629	-0.194676	-0.062987
O5	O	0.830344	0.008642	0.062939
O6	O	0.722821	-0.098883	0.062925
O7	O	0.926133	-0.087145	0.062924
Cu8	Cu	0.824476	-0.093014	0.074419
Cu9	Cu	0.824498	-0.093020	-0.074468
O10	O	0.818610	-0.194670	0.062909
C11	C	0.696820	-0.098507	-0.000023
C12	C	0.619315	-0.097367	-0.000022
C13	C	0.057545	-0.152831	-0.000032
C14	C	0.130368	-0.153908	-0.000037
C15	C	0.175302	-0.090816	-0.000026
C16	C	0.147408	-0.026642	-0.000031
C17	C	0.074586	-0.025568	-0.000034
N18	N	0.295973	-0.045138	0.042837
N19	N	0.365150	-0.046163	0.042842
C20	C	0.394712	-0.094050	-0.000018
N21	N	0.352481	-0.140883	-0.042872
N22	N	0.283297	-0.139860	-0.042874
C23	C	0.254267	-0.091974	-0.000023
C24	C	0.501561	-0.159386	-0.000023
C25	C	0.574385	-0.160460	-0.000032
C26	C	0.591425	-0.033193	-0.000018
C27	C	0.518601	-0.032121	-0.000017
C28	C	0.473673	-0.095220	-0.000016
C29	C	0.829974	0.034650	-0.000007
C30	C	0.828833	0.112154	-0.000001
C31	C	0.952154	-0.087527	-0.000027
C32	C	1.029658	-0.088666	-0.000033
N33	N	0.824465	-0.093008	0.179139
C34	C	0.819000	-0.220684	-0.000043
C35	C	0.820140	-0.298188	-0.000054
C36	C	0.891924	0.157079	0.000003
C37	C	0.890852	0.229903	-0.000010
C38	C	0.826686	0.257799	-0.000010
C39	C	0.763587	0.212864	-0.000017
C40	C	0.764660	0.140041	-0.000013
N41	N	0.777632	0.365805	0.042835
N42	N	0.776617	0.434983	0.042833
C43	C	0.823448	0.477207	-0.000025
N44	N	0.871344	0.447641	-0.042871
N45	N	0.872361	0.378456	-0.042865
C46	C	0.825515	0.336761	-0.000015
C47	C	0.885381	0.601097	-0.000036
C48	C	0.884307	0.673922	-0.000053
C49	C	0.757040	0.656880	-0.000053
C50	C	0.758116	0.584057	-0.000044
C51	C	0.822289	0.556170	-0.000032
N52	N	0.824514	-0.093020	-0.179187
C53	C	0.872092	-0.045420	0.218755
C54	C	0.872096	-0.045416	0.298003
C55	C	0.824480	-0.093014	0.337631
C56	C	0.776844	-0.140606	0.298005
C57	C	0.776837	-0.140604	0.218759
N58	N	0.815404	-0.154821	0.462041
N59	N	0.815415	-0.154821	0.537321
C60	C	0.824498	-0.093023	0.576395
N61	N	0.833584	-0.031223	0.537345
N62	N	0.833576	-0.031223	0.462057
C63	C	0.824482	-0.093022	0.423560
C64	C	0.872132	-0.045427	0.701940
C65	C	0.872131	-0.045423	0.781190
C66	C	0.776883	-0.140619	0.781191
C67	C	0.776880	-0.140617	0.701943
C68	C	0.824509	-0.093022	0.662323
H69	H	0.051883	0.026685	-0.000035
H70	H	0.910912	-0.006666	0.813446
O71	O	0.952123	0.273584	-0.000135
C72	C	0.955317	0.316219	-0.065328
H73	H	0.919547	0.289429	-0.110907
H74	H	1.011590	0.324582	-0.087204
H75	H	0.937398	0.369120	-0.050589
O76	O	0.730670	-0.186867	0.180190
C77	C	0.767926	-0.229861	0.134348
H78	H	0.822643	-0.201915	0.122469
H79	H	0.738748	-0.240980	0.078626
H80	H	0.772511	-0.281451	0.164877
H81	H	0.935686	0.710500	-0.000054
O82	O	0.458012	-0.220741	-0.000066
C83	C	0.498245	-0.277608	-0.000057
H84	H	0.552658	-0.259720	-0.023888
H85	H	0.471252	-0.321801	-0.036617
H86	H	0.503360	-0.297287	0.060338
O87	O	0.947699	0.573970	0.000100
C88	C	0.952116	0.532361	0.065297
H89	H	0.915678	0.549482	0.110871
H90	H	1.008405	0.539078	0.087180
H91	H	0.935838	0.474877	0.050563
H92	H	0.738111	-0.179371	0.813456
O93	O	0.634995	0.028141	0.000092
C94	C	0.622387	0.067113	0.065307
H95	H	0.567087	0.049804	0.087044
H96	H	0.627693	0.125360	0.050647
H97	H	0.662183	0.057692	0.110964
H98	H	0.713282	0.103462	-0.000015
O99	O	0.491592	0.030254	-0.000109
C100	C	0.514569	0.068690	-0.065316
H101	H	0.565023	0.049814	-0.087055
H102	H	0.524853	0.126865	-0.050644
H103	H	0.472411	0.060472	-0.110976
H104	H	0.910911	-0.006670	0.669680
H105	H	0.910880	-0.006662	0.330264
O106	O	0.701212	0.239875	0.000084
C107	C	0.662758	0.216924	0.065294
H108	H	0.681627	0.166477	0.087036
H109	H	0.604587	0.206635	0.050626
H110	H	0.670966	0.259099	0.110951
H111	H	0.704794	0.679592	-0.000057
O112	O	0.013835	-0.214079	-0.000143
C113	C	-0.028769	-0.217279	-0.065362
H114	H	-0.032280	-0.161873	-0.087093
H115	H	-0.083586	-0.243458	-0.050708
H116	H	-0.004893	-0.249094	-0.111021
H117	H	0.738074	-0.179360	0.330275
O118	O	0.157548	-0.216198	0.000072
C119	C	0.199131	-0.220617	0.065290
H120	H	0.217431	-0.165525	0.087024
H121	H	0.246738	-0.248306	0.050635
H122	H	0.166851	-0.251593	0.110948
H123	H	0.944179	0.134379	0.000010
O124	O	0.730595	-0.186918	0.663573
C125	C	0.688555	-0.228918	0.715540
H126	H	0.717181	-0.229637	0.772021
H127	H	0.677729	-0.284704	0.692632
H128	H	0.636762	-0.206376	0.723989
O129	O	0.696782	0.540484	-0.000138
C130	C	0.657826	0.553069	-0.065352
H131	H	0.675143	0.608360	-0.087095
H132	H	0.599576	0.547771	-0.050686
H133	H	0.667256	0.513253	-0.111006
O134	O	0.191126	0.034599	-0.000120
C135	C	0.233761	0.037786	-0.065329
H136	H	0.237277	-0.017625	-0.087070
H137	H	0.288573	0.063961	-0.050658
H138	H	0.209911	0.069596	-0.110987
O139	O	0.601504	-0.222779	-0.000177
C140	C	0.643134	-0.227207	-0.065377
H141	H	0.626031	-0.190771	-0.110940
H142	H	0.636418	-0.283498	-0.087274
H143	H	0.700614	-0.210933	-0.050639
H144	H	0.910871	-0.006663	0.186498
