data_functionalizedCrystal
_audit_creation_method	'MofGen! by Chris Wilmer'
_symmetry_space_group_name_H-M	'P1'
_symmetry_Int_Tables_number	1
_symmetry_cell_setting	triclinic
loop_
_symmetry_equiv_pos_as_xyz
  x,y,z
_cell_length_a	20.875444
_cell_length_b	14.446369
_cell_length_c	20.875641
_cell_angle_alpha	90.002056
_cell_angle_beta	64.273268
_cell_angle_gamma	61.739637
loop_
_atom_site_label
_atom_site_type_symbol
_atom_site_fract_x
_atom_site_fract_y
_atom_site_fract_z
Zr1	Zr	0.664030	0.944056	-0.047772
O2	O	0.784769	0.810200	-0.140498
O3	O	0.538499	0.978692	-0.023799
O4	O	0.657112	0.994095	-0.146915
O5	O	0.673284	0.789924	0.084799
O6	O	0.657107	1.146432	-0.146911
O7	O	0.666156	0.794797	-0.017382
O8	O	0.444929	1.118878	0.073320
O9	O	0.885462	0.817477	-0.135432
O10	O	0.591903	1.114880	-0.008192
O11	O	0.597227	0.997556	0.068062
O12	O	0.736879	1.015691	-0.076891
O13	O	0.742203	0.898367	-0.000637
Zr14	Zr	0.675391	1.179242	0.115201
Zr15	Zr	0.664022	1.187015	-0.047766
Zr16	Zr	0.675400	0.936283	0.115196
Zr17	Zr	0.824624	0.955661	-0.039693
Zr18	Zr	0.514798	1.167636	0.107123
O19	O	0.800923	1.144606	0.091229
O20	O	0.784757	1.155657	-0.140490
O21	O	0.800935	0.799149	0.091221
O22	O	0.554652	1.313097	0.207928
O23	O	0.538487	1.324149	-0.023791
O24	O	0.554664	0.967641	0.207920
O25	O	0.666137	1.333374	-0.017370
O26	O	0.682309	1.129202	0.214345
O27	O	0.682315	0.976866	0.214341
O28	O	0.673266	1.328501	0.084812
O29	O	0.885455	1.010598	-0.135428
O30	O	0.453966	1.112700	0.202858
O31	O	0.453959	1.305820	0.202862
O32	O	0.444922	1.311998	0.073325
O33	O	0.894499	0.811299	-0.005895
O34	O	0.894492	1.004419	-0.005891
O35	O	0.602543	1.107606	0.144321
O36	O	0.597219	1.224930	0.068067
O37	O	0.742195	1.125742	-0.000632
O38	O	0.747519	1.008418	0.075622
C39	C	0.468833	1.047132	0.023610
C40	C	0.400657	1.042205	0.020180
C41	C	0.022334	1.006175	-0.004660
C42	C	0.086407	1.010803	-0.001469
C43	C	0.066910	1.090356	0.053630
C44	C	-0.016667	1.165278	0.105545
C45	C	-0.080739	1.160644	0.102356
C46	C	0.253008	1.112493	0.068907
C47	C	0.317088	1.117123	0.072090
C48	C	0.420158	0.962647	-0.034923
C49	C	0.356080	0.958024	-0.038110
C50	C	0.272509	1.032942	0.013808
N51	N	0.132402	1.095091	0.056892
N52	N	0.207019	1.028201	0.010548
C53	C	0.669721	0.757744	0.033708
C54	C	0.669725	0.654601	0.033706
C55	C	0.761168	0.445365	-0.009381
C56	C	0.761213	0.552614	-0.009647
C57	C	0.620194	0.649548	-0.003744
C58	C	0.620771	0.541840	-0.004065
C59	C	0.627081	0.537414	0.114266
C60	C	0.628858	0.643518	0.114225
C61	C	0.870589	1.076166	0.043820
C62	C	0.938765	1.081093	0.047250
C63	C	0.655490	1.071371	-0.170133
C64	C	0.650663	1.074671	-0.239317
C65	C	0.669700	1.365554	0.033722
C66	C	0.669697	1.468696	0.033724
C67	C	0.724070	1.024447	-0.307680
C68	C	0.719530	1.027562	-0.372683
C69	C	0.641582	1.080894	-0.369322
C70	C	0.568170	1.131124	-0.300951
C71	C	0.572711	1.128015	-0.235950
C72	C	0.619887	1.095749	-0.559881
C73	C	0.615352	1.098851	-0.624891
C74	C	0.766712	0.995290	-0.696618
C75	C	0.771246	0.992180	-0.631611
C76	C	0.697834	1.042415	-0.563247
N77	N	0.636940	1.084076	-0.435765
N78	N	0.702477	1.039240	-0.496806
C79	C	0.683932	1.051927	0.237562
C80	C	0.688758	1.048627	0.306746
C81	C	0.468822	1.351037	0.023617
C82	C	0.400643	1.449252	0.020189
C83	C	0.483054	1.037409	0.227457
C84	C	0.419704	1.029183	0.293212
C85	C	0.483043	1.341314	0.227464
C86	C	0.419690	1.436230	0.293221
C87	C	0.856378	0.781983	-0.160034
C88	C	0.919731	0.687068	-0.225791
C89	C	0.870599	0.772261	0.043813
C90	C	0.938779	0.674046	0.047240
C91	C	0.856368	1.085888	-0.160027
C92	C	0.919717	1.094115	-0.225782
C93	C	0.365849	1.437930	-0.021234
C94	C	0.301795	1.530206	-0.024469
C95	C	0.272531	1.633802	0.013724
C96	C	0.307331	1.645122	0.055148
C97	C	0.371388	1.552848	0.058379
C98	C	0.392730	1.082764	0.363904
C99	C	0.333216	1.075030	0.425694
C100	C	0.300672	1.013721	0.416790
C101	C	0.327652	0.960133	0.346090
C102	C	0.387170	0.967861	0.284302
C103	C	0.387160	1.542056	0.284297
C104	C	0.327641	1.631250	0.346077
C105	C	0.300650	1.614615	0.416779
C106	C	0.333186	1.508779	0.425702
C107	C	0.392708	1.419588	0.363923
C108	C	0.952270	0.581242	-0.216867
C109	C	1.011808	0.492050	-0.278645
C110	C	1.038803	0.508685	-0.349348
C111	C	1.006262	0.614521	-0.358271
C112	C	0.946729	0.703711	-0.296493
C113	C	0.973578	0.685368	0.088657
C114	C	1.037649	0.593094	0.091875
C115	C	1.066915	0.489498	0.053680
C116	C	1.032113	0.478178	0.012259
C117	C	0.968047	0.570452	0.009037
C118	C	0.952242	1.155433	-0.216854
C119	C	1.011758	1.163184	-0.278631
C120	C	1.038752	1.109610	-0.349336
C121	C	1.006221	1.048289	-0.358262
C122	C	0.946702	1.040545	-0.296486
H123	H	0.371966	0.893242	-0.082976
H124	H	0.779305	0.986667	-0.428345
H125	H	0.826480	0.954392	-0.752285
N126	N	0.416275	1.560004	0.208042
H127	H	0.403121	1.523014	0.178734
H128	H	0.386625	1.640599	0.211832
H129	H	0.920227	0.990609	-0.303765
H130	H	1.055951	0.393818	-0.018838
N131	N	0.855319	0.934671	-0.635241
H132	H	0.860583	0.873996	-0.609875
H133	H	0.901081	0.903400	-0.688431
H134	H	-0.148785	1.221648	0.144628
N135	N	0.275764	1.756861	0.096339
H136	H	0.229903	1.813589	0.088005
H137	H	0.253108	1.761274	0.150673
N138	N	0.176546	0.930021	-0.057462
H139	H	0.203507	0.970170	-0.085581
H140	H	0.207267	0.886874	-0.031406
H141	H	0.252210	1.007437	0.467108
H142	H	0.301147	0.910215	0.338851
N143	N	0.236434	1.710821	0.483406
H144	H	0.224263	1.684233	0.529554
H145	H	0.258771	1.759044	0.484490
H146	H	0.301155	1.717419	0.338798
H147	H	0.793953	0.395958	-0.068358
H148	H	0.311256	1.118673	0.483255
H149	H	1.038239	1.213116	-0.271349
N150	N	1.136004	0.389974	0.057167
H151	H	1.185407	0.349733	0.005933
H152	H	1.153533	0.412956	0.089236
N153	N	1.035381	0.632454	-0.434530
H154	H	1.078029	0.559888	-0.472306
H155	H	0.986041	0.672047	-0.443018
N156	N	0.808146	0.966926	-0.311315
H157	H	0.813400	1.020403	-0.285942
H158	H	0.813360	0.906249	-0.285963
H159	H	0.939715	0.561217	-0.024687
H160	H	1.087279	0.436051	-0.399646
H161	H	0.930273	1.199061	-0.159288
N162	N	0.804768	0.556794	-0.088254
H163	H	0.764763	0.622837	-0.097053
H164	H	0.854712	0.561408	-0.097481
N165	N	0.911625	0.817854	-0.306117
H166	H	0.958491	0.831839	-0.332375
H167	H	0.883043	0.826283	-0.336154
H168	H	0.399709	1.562081	0.092114
H169	H	1.087217	1.115924	-0.399632
N170	N	0.942022	0.797096	0.129856
H171	H	0.973800	0.790251	0.156575
H172	H	0.950617	0.842437	0.093865
N173	N	0.427821	1.148897	0.373519
H174	H	0.401697	1.181657	0.427682
H175	H	0.490367	1.100257	0.351512
H176	H	0.512936	1.168912	-0.180286
N177	N	0.510292	0.881845	-0.090917
H178	H	0.547925	0.896848	-0.080539
H179	H	0.523499	0.805662	-0.087765
H180	H	0.553485	0.561911	0.025051
H181	H	0.220371	1.708929	0.011088
H182	H	1.065975	0.602332	0.125607
N183	N	0.669962	0.472210	0.155115
H184	H	0.717453	0.397455	0.121819
H185	H	0.692612	0.510528	0.170824
H186	H	0.311201	1.495250	0.483276
H187	H	0.419187	1.333422	0.371199
N188	N	1.035340	0.990509	-0.434523
H189	H	1.077983	1.004722	-0.472297
H190	H	1.061462	0.909720	-0.439217
H191	H	0.930294	0.567677	-0.159303
H192	H	0.038219	0.941399	-0.049531
H193	H	0.560110	1.136654	-0.504225
N194	N	0.296058	1.202931	0.131519
H195	H	0.233394	1.249688	0.163926
H196	H	0.322306	1.166569	0.162241
H197	H	0.184968	1.173499	0.111180
H198	H	-0.032538	1.230047	0.150410
H199	H	1.038293	0.405882	-0.271366
H200	H	0.551875	1.142279	-0.622146
N201	N	0.416305	0.910001	0.208058
H202	H	0.386668	0.869973	0.211801
H203	H	0.403176	0.965000	0.178753
H204	H	0.800012	0.392981	0.015903
N205	N	0.812305	0.552520	0.024000
H206	H	0.871569	0.488562	-0.005655
H207	H	0.812372	0.622385	0.023899
N208	N	0.659450	0.482204	-0.082713
H209	H	0.675966	0.525992	-0.116848
H210	H	0.710629	0.408803	-0.095104
N211	N	0.484097	1.188657	-0.297321
H212	H	0.492358	1.183004	-0.348873
H213	H	0.451843	1.153651	-0.270299
H214	H	0.552772	0.721194	0.025938
H215	H	0.648678	0.656931	-0.062580
N216	N	0.676742	0.644471	0.151238
H217	H	0.736571	0.581588	0.122501
H218	H	0.675510	0.715189	0.153000
N219	N	0.540772	0.739299	0.160845
H220	H	0.526042	0.791464	0.130293
H221	H	0.500693	0.712732	0.179317
H222	H	0.559738	0.558096	0.146592
N223	N	0.397403	1.326202	-0.062429
H224	H	0.365637	1.333048	-0.089160
H225	H	0.458918	1.289963	-0.099210
N226	N	0.264270	1.517983	-0.069150
H227	H	0.292527	1.438352	-0.092846
H228	H	0.202513	1.549220	-0.035840
