data_functionalizedCrystal
_audit_creation_method	'MofGen! by Chris Wilmer'
_symmetry_space_group_name_H-M	'P1'
_symmetry_Int_Tables_number	1
_symmetry_cell_setting	triclinic
loop_
_symmetry_equiv_pos_as_xyz
  x,y,z
_cell_length_a	12.827893
_cell_length_b	19.120786
_cell_length_c	12.827885
_cell_angle_alpha	87.523932
_cell_angle_beta	89.980918
_cell_angle_gamma	92.465374
loop_
_atom_site_label
_atom_site_type_symbol
_atom_site_fract_x
_atom_site_fract_y
_atom_site_fract_z
Zn1	Zn	1.579850	-0.279595	-0.573049
Zn2	Zn	1.572257	-0.397069	-0.390833
Zn3	Zn	1.405089	-0.279629	-0.398321
Zn4	Zn	1.397592	-0.397017	-0.565537
O5	O	1.488697	-0.338327	-0.481935
O6	O	1.725078	-0.295185	-0.548888
O7	O	1.550041	-0.381527	-0.245588
O8	O	1.434586	-0.181334	-0.427777
O9	O	1.719499	-0.381493	-0.415014
O10	O	1.562982	-0.181308	-0.556149
O11	O	1.427224	-0.295244	-0.251089
O12	O	1.257859	-0.295194	-0.420492
O13	O	1.421810	-0.381405	-0.712772
O14	O	1.252351	-0.381438	-0.543345
O15	O	1.555713	-0.295135	-0.718291
O16	O	1.542772	-0.495353	-0.407730
O17	O	1.414447	-0.495315	-0.536084
C18	C	1.217188	-0.338314	-0.481917
C19	C	1.101034	-0.338326	-0.481933
C20	C	0.926502	-0.381080	-0.542637
C21	C	1.046553	-0.381069	-0.542622
C22	C	1.477000	-0.520820	-0.470302
C23	C	1.472092	-0.598890	-0.465360
C24	C	1.536585	-0.635495	-0.529930
C25	C	1.531969	-0.708851	-0.525288
C26	C	1.462865	-0.745601	-0.456072
C27	C	1.398365	-0.708991	-0.391500
C28	C	1.402976	-0.635637	-0.396147
C29	C	1.445595	-0.967088	-0.438698
C30	C	1.440990	-1.040448	-0.434053
C31	C	1.574594	-1.040302	-0.567843
C32	C	1.579204	-0.966946	-0.572480
C33	C	1.514700	-0.930343	-0.507912
C34	C	1.458147	-0.820582	-0.451324
C35	C	1.519413	-0.855362	-0.512667
C36	C	1.761266	-0.338341	-0.481954
C37	C	1.877419	-0.338347	-0.481962
C38	C	1.488772	-0.338260	-0.754510
C39	C	1.488804	-0.338231	-0.870665
C40	C	1.500468	-0.155123	-0.493636
C41	C	1.505483	-0.077052	-0.498622
C42	C	1.555072	-0.295534	-0.925181
C43	C	1.555106	-0.295503	-1.045233
C44	C	1.488685	-0.338344	-0.210424
C45	C	1.488868	-0.338175	-0.094282
H46	H	0.924274	-0.301756	-0.430001
H47	H	1.088774	-0.417651	-0.594573
O48	O	1.050847	-0.294609	-0.419925
C49	C	1.124819	-0.254879	-0.363473
H50	H	1.202828	-0.252427	-0.406357
H51	H	1.096735	-0.199551	-0.356018
H52	H	1.134711	-0.280531	-0.282398
H53	H	1.592862	-0.605577	-0.586288
H54	H	1.350457	-0.605834	-0.343570
O55	O	1.622691	-0.251912	-1.101303
C56	C	1.607690	-0.261593	-1.208685
H57	H	1.525558	-0.284601	-1.222013
H58	H	1.618127	-0.208995	-1.253599
H59	H	1.667255	-0.299008	-1.237277
O60	O	1.594741	-0.744299	-0.588034
C61	C	1.656717	-0.696133	-0.650127
H62	H	1.663624	-0.643859	-0.610642
H63	H	1.737725	-0.717269	-0.659979
H64	H	1.618921	-0.688321	-0.729968
O65	O	0.870457	-0.424672	-0.604596
C66	C	0.763068	-0.414987	-0.590803
H67	H	0.751718	-0.360747	-0.560155
H68	H	0.721241	-0.419792	-0.668728
H69	H	0.729408	-0.456590	-0.532376
H70	H	1.635475	-0.937025	-0.628842
O71	O	1.421324	-0.381824	-1.038259
C72	C	1.477952	-0.427181	-0.972253
H73	H	1.558749	-0.402405	-0.957601
H74	H	1.434837	-0.436564	-0.894852
H75	H	1.486060	-0.479249	-1.010930
H76	H	1.432090	-0.374759	-0.912870
O77	O	1.390880	-0.856253	-0.384196
C78	C	1.287836	-0.838369	-0.408046
H79	H	1.283774	-0.818160	-0.492801
H80	H	1.233186	-0.886649	-0.395945
H81	H	1.263222	-0.795840	-0.354679
O82	O	1.637187	-1.075784	-0.630722
C83	C	1.615387	-1.057833	-0.735989
H84	H	1.578568	-1.004592	-0.741483
H85	H	1.690935	-1.055261	-0.783089
H86	H	1.559033	-1.099128	-0.768515
O87	O	1.373761	-1.076040	-0.366791
C88	C	1.317833	-1.028004	-0.310780
H89	H	1.317476	-0.975695	-0.356892
H90	H	1.234169	-1.049257	-0.298222
H91	H	1.356626	-1.020218	-0.231937
O92	O	1.383097	-0.931458	-0.375928
C93	C	1.445299	-0.889036	-0.311159
H94	H	1.525166	-0.877983	-0.348788
H95	H	1.405981	-0.837485	-0.300382
H96	H	1.455048	-0.917337	-0.231933
H97	H	1.342094	-0.738919	-0.335147
O98	O	1.586398	-0.819589	-0.579957
C99	C	1.529528	-0.777173	-0.650103
H100	H	1.451036	-0.766256	-0.613873
H101	H	1.575323	-0.725554	-0.667405
H102	H	1.516240	-0.805409	-0.725751
O103	O	1.622587	-0.251917	-0.874726
C104	C	1.565930	-0.206590	-0.814499
H105	H	1.485122	-0.231369	-0.796671
H106	H	1.609005	-0.197249	-0.738301
H107	H	1.557851	-0.154499	-0.859823
