data_functionalizedCrystal
_audit_creation_method	'MofGen! by Chris Wilmer'
_symmetry_space_group_name_H-M	'P1'
_symmetry_Int_Tables_number	1
_symmetry_cell_setting	triclinic
loop_
_symmetry_equiv_pos_as_xyz
  x,y,z
_cell_length_a	12.837943
_cell_length_b	9.130313
_cell_length_c	12.837936
_cell_angle_alpha	90.001874
_cell_angle_beta	85.170528
_cell_angle_gamma	89.999361
loop_
_atom_site_label
_atom_site_type_symbol
_atom_site_fract_x
_atom_site_fract_y
_atom_site_fract_z
O1	O	1.402332	0.121753	-0.272136
O2	O	1.099198	0.121762	-0.258692
O3	O	1.244042	0.121759	-0.113847
O4	O	1.257488	0.121755	-0.416981
O5	O	1.244040	-0.121840	-0.113851
O6	O	1.099197	-0.121837	-0.258696
O7	O	1.402330	-0.121846	-0.272140
Cu8	Cu	1.250763	-0.144084	-0.265418
Cu9	Cu	1.250765	0.144000	-0.265413
O10	O	1.257487	-0.121843	-0.416985
C11	C	1.060128	-0.000036	-0.254153
C12	C	0.943713	-0.000032	-0.240608
N13	N	1.250770	-0.346707	-0.265422
C14	C	0.718841	-0.000055	-0.403438
C15	C	0.609458	-0.000052	-0.390717
C16	C	0.615563	-0.000034	-0.202445
C17	C	0.724946	-0.000037	-0.215167
C18	C	0.776581	-0.000045	-0.315666
C19	C	0.885965	-0.000037	-0.328387
C20	C	0.892069	-0.000030	-0.140116
C21	C	0.782686	-0.000027	-0.127395
C22	C	1.314927	-0.423360	-0.201310
C23	C	1.314923	-0.576697	-0.201297
C24	C	1.186602	-0.576714	-0.329517
C25	C	1.186601	-0.423380	-0.329523
C26	C	1.379095	-0.346687	-0.137209
C27	C	1.443259	-0.423340	-0.073093
C28	C	1.443255	-0.576677	-0.073080
C29	C	1.379087	-0.653361	-0.137183
C30	C	1.441400	-0.000045	-0.276679
C31	C	1.557815	-0.000040	-0.290223
C32	C	1.239500	-0.000036	-0.074780
C33	C	1.225954	-0.000025	0.041635
N34	N	1.250766	0.346622	-0.265402
C35	C	1.112741	-0.000023	0.202661
C36	C	1.125461	-0.000022	0.093279
C37	C	1.313733	-0.000026	0.099383
C38	C	1.301012	-0.000028	0.208765
C39	C	1.200513	-0.000029	0.260401
C40	C	1.187793	-0.000041	0.369785
C41	C	1.376064	-0.000035	0.375887
C42	C	1.388784	-0.000034	0.266505
C43	C	1.262028	-0.000044	0.543948
C44	C	1.275572	-0.000042	0.427533
H45	H	0.760882	-0.000059	-0.485269
H46	H	1.134360	-0.639159	-0.381708
H47	H	0.740630	-0.000037	-0.045571
H48	H	0.939092	-0.000012	-0.068646
H49	H	1.053988	-0.000016	0.046271
O50	O	1.379087	-0.181303	-0.137215
H51	H	1.434475	-0.140862	-0.081864
H52	H	1.030910	-0.000050	0.244704
H53	H	0.928004	-0.000046	-0.410218
O54	O	0.547179	-0.000072	-0.485385
H55	H	0.497189	0.099207	-0.484094
O56	O	1.497177	-0.000037	0.210812
H57	H	1.491279	-0.000043	0.125050
H58	H	1.134357	-0.360968	-0.381728
O59	O	1.512458	-0.340651	-0.003944
H60	H	1.491046	-0.370071	0.078988
H61	H	1.447535	-0.000042	0.422911
H62	H	0.573503	-0.000148	-0.120623
H63	H	1.379082	-0.778218	-0.137159
H64	H	1.395555	-0.000118	0.057322
O65	O	1.512462	-0.659362	-0.003940
H66	H	1.557088	-0.580281	0.040621
O67	O	1.079404	-0.000036	0.425486
H68	H	1.020509	-0.000015	0.366954
