data_functionalizedCrystal
_audit_creation_method	'MofGen! by Chris Wilmer'
_symmetry_space_group_name_H-M	'P1'
_symmetry_Int_Tables_number	1
_symmetry_cell_setting	triclinic
loop_
_symmetry_equiv_pos_as_xyz
  x,y,z
_cell_length_a	15.297327
_cell_length_b	12.827893
_cell_length_c	12.827885
_cell_angle_alpha	89.980538
_cell_angle_beta	99.642560
_cell_angle_gamma	99.706564
loop_
_atom_site_label
_atom_site_type_symbol
_atom_site_fract_x
_atom_site_fract_y
_atom_site_fract_z
Zn1	Zn	-0.359116	1.525604	-0.662774
Zn2	Zn	0.140884	2.025604	-0.162774
Zn3	Zn	-0.510001	1.495218	-0.518254
Zn4	Zn	-0.010001	1.995218	-0.018254
Zn5	Zn	-0.359160	1.350836	-0.488056
Zn6	Zn	0.140840	1.850836	0.011944
Zn7	Zn	-0.509933	1.320565	-0.692940
Zn8	Zn	-0.009933	1.820565	-0.192940
O9	O	-0.434552	1.423056	-0.590506
O10	O	0.065448	1.923056	-0.090506
O11	O	-0.379141	1.667807	-0.643616
O12	O	0.120859	2.167807	-0.143616
O13	O	-0.490038	1.476017	-0.368021
O14	O	0.009962	1.976017	0.131979
O15	O	-0.232909	1.399405	-0.485970
O16	O	0.267091	1.899405	0.014030
O17	O	-0.489995	1.645483	-0.537438
O18	O	0.010005	2.145483	-0.037438
O19	O	-0.232876	1.527806	-0.614334
O20	O	0.267124	2.027806	-0.114334
O21	O	-0.379216	1.369940	-0.345835
O22	O	0.120784	1.869940	0.154165
O23	O	-0.379151	1.200586	-0.515222
O24	O	0.120849	1.700586	-0.015222
O25	O	-0.489880	1.347812	-0.835165
O26	O	0.010120	1.847812	-0.335165
O27	O	-0.489923	1.178346	-0.665749
O28	O	0.010077	1.678346	-0.165749
O29	O	-0.379075	1.498453	-0.813002
O30	O	0.120925	1.998453	-0.313002
O31	O	-0.636237	1.446664	-0.566689
O32	O	-0.136237	1.946664	-0.066689
O33	O	-0.636187	1.318347	-0.695031
O34	O	-0.136187	1.818347	-0.195031
C35	C	-0.434535	1.151549	-0.590483
C36	C	0.065465	1.651549	-0.090483
C37	C	-0.434549	1.035393	-0.590502
C38	C	0.065451	1.535393	-0.090502
C39	C	-0.489449	0.972614	-0.664907
C40	C	0.010551	1.472614	-0.164907
C41	C	-0.489465	0.852560	-0.664928
C42	C	0.010535	1.352560	-0.164928
C43	C	-0.668946	1.375952	-0.637433
C44	C	-0.168946	1.875952	-0.137433
C45	C	-0.769221	1.355896	-0.657543
C46	C	-0.269221	1.855896	-0.157543
C47	C	-1.051857	1.566826	-0.447130
C48	C	-0.551857	2.066826	0.052870
C49	C	-0.957644	1.585669	-0.428230
C50	C	-0.457644	2.085669	0.071770
C51	C	-0.910533	1.528228	-0.485557
C52	C	-0.410533	2.028228	0.014443
C53	C	-0.957645	1.451940	-0.561787
C54	C	-0.457645	1.951940	-0.061787
C55	C	-1.051868	1.433090	-0.580683
C56	C	-0.551868	1.933090	-0.080683
C57	C	-0.910544	1.394491	-0.619110
C58	C	-0.410544	1.894491	-0.119110
C59	C	-0.957656	1.318204	-0.695340
C60	C	-0.457656	1.818204	-0.195340
C61	C	-1.051869	1.299357	-0.714233
C62	C	-0.551869	1.799357	-0.214233
C63	C	-1.098980	1.356798	-0.656906
C64	C	-0.598980	1.856798	-0.156906
C65	C	-0.816322	1.413342	-0.600214
C66	C	-0.316322	1.913342	-0.100214
C67	C	-0.816333	1.279605	-0.733766
C68	C	-0.316333	1.779605	-0.233766
C69	C	-0.910546	1.260762	-0.752667
C70	C	-0.410546	1.760762	-0.252667
C71	C	-0.199243	1.470372	-0.543419
C72	C	0.300757	1.970372	-0.043419
C73	C	-0.098969	1.490535	-0.523353
C74	C	0.401031	1.990535	-0.023353
C75	C	-0.434465	1.423145	-0.863059
C76	C	0.065535	1.923145	-0.363059
C77	C	-0.434428	1.423183	-0.979205
C78	C	0.065572	1.923183	-0.479205
C79	C	-0.434571	1.695622	-0.590530
C80	C	0.065429	2.195622	-0.090530
C81	C	-0.434578	1.811774	-0.590541
C82	C	0.065422	2.311774	-0.090541
C83	C	-0.379550	1.497772	-1.140057
C84	C	0.120450	1.997772	-0.640057
C85	C	-0.379587	1.497735	-1.020014
C86	C	0.120413	1.997735	-0.520014
C87	C	-0.434574	1.423040	-0.319001
C88	C	0.065426	1.923040	0.180999
C89	C	-0.434358	1.423255	-0.202805
C90	C	0.065642	1.923255	0.297195
H91	H	-0.387556	1.000263	-0.526821
H92	H	0.112444	1.500263	-0.026821
N93	N	-0.317435	1.582254	-0.948605
N94	N	0.182565	2.082254	-0.448605
H95	H	-0.326276	1.570251	-0.872974
H96	H	0.173724	2.070251	-0.372974
H97	H	-0.331474	1.654082	-0.970450
H98	H	0.168526	2.154082	-0.470450
N99	N	-0.765521	1.495628	-0.518007
N100	N	-0.265521	1.995628	-0.018007
H101	H	-0.726371	1.551866	-0.552667
H102	H	-0.226371	2.051866	-0.052667
H103	H	-0.726542	1.460915	-0.461736
H104	H	-0.226542	1.960915	0.038264
N105	N	-0.317350	1.582315	-1.186607
N106	N	0.182650	2.082315	-0.686607
H107	H	-0.280778	1.632038	-1.128240
H108	H	0.219222	2.132038	-0.628240
H109	H	-0.354096	1.623258	-1.239250
H110	H	0.145904	2.123258	-0.739250
H111	H	-0.481347	1.359377	-1.033116
H112	H	0.018653	1.859377	-0.533116
H113	H	-0.481311	1.359433	-1.167654
H114	H	0.018689	1.859433	-0.667654
H115	H	-0.777976	1.232829	-0.780445
H116	H	-0.277976	1.732829	-0.280445
H117	H	-0.536435	1.007746	-0.728595
H118	H	-0.036435	1.507746	-0.228595
H119	H	-0.387578	0.865713	-0.526833
H120	H	0.112422	1.365713	-0.026833
N121	N	-0.551734	0.781112	-0.749307
N122	N	-0.051734	1.281112	-0.249307
H123	H	-0.542921	0.705477	-0.737360
H124	H	-0.042921	1.205477	-0.237360
H125	H	-0.537782	0.802971	-0.821190
H126	H	-0.037782	1.302971	-0.321190
N127	N	-1.102682	1.217079	-0.796453
N128	N	-0.602682	1.717079	-0.296453
H129	H	-1.169516	1.213854	-0.799724
H130	H	-0.669516	1.713854	-0.299724
H131	H	-1.086278	1.145734	-0.776837
H132	H	-0.586278	1.645734	-0.276837
H133	H	-0.948918	1.198648	-0.814733
H134	H	-0.448918	1.698648	-0.314733
H135	H	-0.919289	1.647781	-0.366163
H136	H	-0.419289	2.147781	0.133837
N137	N	-0.808918	1.548546	-0.465175
N138	N	-0.308918	2.048546	0.034825
H139	H	-0.786221	1.605590	-0.408187
H140	H	-0.286221	2.105590	0.091813
H141	H	-0.786236	1.572227	-0.532364
H142	H	-0.286236	2.072227	-0.032364
N143	N	-1.102666	1.628756	-0.385288
N144	N	-0.602666	2.128756	0.114712
H145	H	-1.169500	1.605231	-0.408821
H146	H	-0.669500	2.105231	0.091179
H147	H	-1.086145	1.706693	-0.398289
H148	H	-0.586145	2.206693	0.101711
H149	H	-1.175696	1.341463	-0.672293
H150	H	-0.675696	1.841463	-0.172293
