data_functionalizedCrystal
_audit_creation_method	'MofGen! by Chris Wilmer'
_symmetry_space_group_name_H-M	'P1'
_symmetry_Int_Tables_number	1
_symmetry_cell_setting	triclinic
loop_
_symmetry_equiv_pos_as_xyz
  x,y,z
_cell_length_a	14.395555
_cell_length_b	12.970454
_cell_length_c	12.970454
_cell_angle_alpha	59.999776
_cell_angle_beta	90.001507
_cell_angle_gamma	59.999613
loop_
_atom_site_label
_atom_site_type_symbol
_atom_site_fract_x
_atom_site_fract_y
_atom_site_fract_z
Zr1	Zr	0.894915	1.128475	-0.135252
O2	O	0.746586	1.343573	-0.299886
O3	O	0.940386	0.913383	-0.084782
O4	O	0.940388	1.128472	-0.299873
O5	O	0.746583	1.128484	0.084872
O6	O	1.093262	1.128465	-0.299864
O7	O	0.746585	1.128483	-0.084795
O8	O	1.093259	0.743708	0.084894
O9	O	0.746586	1.513240	-0.299887
O10	O	1.073867	1.001846	-0.063252
O11	O	0.959778	1.001852	0.063362
O12	O	0.959780	1.255093	-0.189880
O13	O	0.845691	1.255099	-0.063267
Zr14	Zr	1.138730	1.128465	0.135361
Zr15	Zr	1.138732	1.128463	-0.135238
Zr16	Zr	0.894914	1.128477	0.135346
Zr17	Zr	0.894915	1.399075	-0.135254
Zr18	Zr	1.138730	0.857865	0.135362
O19	O	1.093259	1.343557	0.084891
O20	O	1.093262	1.343555	-0.299865
O21	O	0.746583	1.343575	0.084870
O22	O	1.287059	0.913367	0.299994
O23	O	1.287062	0.913365	-0.084762
O24	O	0.940384	0.913385	0.299974
O25	O	1.287062	1.128456	-0.084763
O26	O	1.093258	1.128468	0.299982
O27	O	0.940384	1.128475	0.299973
O28	O	1.287061	1.128457	0.084903
O29	O	0.940388	1.513230	-0.299875
O30	O	1.093258	0.743710	0.299984
O31	O	1.287059	0.743700	0.299995
O32	O	1.287061	0.743699	0.084905
O33	O	0.746585	1.513241	-0.084797
O34	O	0.940386	1.513232	-0.084785
O35	O	1.073866	1.001847	0.189989
O36	O	1.187955	1.001841	0.063375
O37	O	1.073867	1.255088	-0.063253
O38	O	0.959778	1.255094	0.063360
C39	C	1.016823	0.789991	0.000056
C40	C	1.016823	0.675114	0.000057
C41	C	0.711845	1.128485	0.000036
C42	C	0.608339	1.128490	0.000030
C43	C	0.485545	1.266572	-0.069002
C44	C	0.454709	1.197544	-0.119030
C45	C	0.454751	1.197513	0.050049
C46	C	0.578867	1.059462	-0.050067
C47	C	0.578905	1.059450	0.119077
C48	C	0.548143	0.990322	0.069079
C49	C	1.321800	1.128455	0.000072
C50	C	1.425307	1.128450	0.000078
C51	C	1.016825	1.128468	-0.338423
C52	C	1.016826	1.128468	-0.453299
C53	C	1.016823	1.466949	0.000053
C54	C	1.016823	1.581826	0.000052
C55	C	1.016821	1.128472	0.338532
C56	C	1.016820	1.128472	0.453408
C57	C	1.321800	0.789975	0.000074
C58	C	1.425306	0.675094	0.000081
C59	C	1.016820	0.789993	0.338533
C60	C	1.016820	0.675116	0.453410
C61	C	1.321798	0.789977	0.338552
C62	C	1.425304	0.675096	0.453434
C63	C	0.711848	1.466963	-0.338443
C64	C	0.608342	1.581844	-0.453326
C65	C	0.711845	1.466964	0.000035
C66	C	0.608339	1.581846	0.000028
C67	C	1.016825	1.466947	-0.338425
C68	C	1.016826	1.581824	-0.453302
C69	C	1.473915	0.527659	0.093560
C70	C	1.571160	0.419700	0.093571
C71	C	1.619800	0.459179	0.000106
C72	C	1.571183	0.606629	-0.093383
C73	C	1.473935	0.714584	-0.093398
C74	C	1.473919	0.527661	0.507384
C75	C	1.571184	0.419701	0.615317
C76	C	1.619828	0.459179	0.669303
C77	C	1.571208	0.606628	0.615343
C78	C	1.473949	0.714585	0.507407
C79	C	0.559735	1.729279	-0.507285
C80	C	0.462491	1.837238	-0.615242
C81	C	0.413851	1.797760	-0.669232
C82	C	0.462467	1.650311	-0.615267
C83	C	0.559714	1.542354	-0.507317
C84	C	0.559729	1.542322	0.093509
C85	C	0.462484	1.650251	0.093529
C86	C	0.413845	1.797703	0.000060
C87	C	0.462463	1.837228	-0.093426
C88	C	0.559712	1.729300	-0.093439
H89	H	0.401192	1.255902	-0.219687
H90	H	0.632419	1.001142	0.219713
C91	C	1.420469	0.876765	0.448078
C92	C	1.296887	0.976675	0.436859
C93	C	1.243412	1.138854	0.377536
C94	C	1.313519	1.201124	0.329432
C95	C	1.437108	1.101213	0.340651
C96	C	1.490583	0.939034	0.399974
H97	H	1.244983	0.930580	0.472469
H98	H	1.151923	1.212815	0.369232
H99	H	1.273933	1.321179	0.285518
H100	H	1.489011	1.147308	0.305040
H101	H	1.582072	0.865074	0.408278
H102	H	1.610830	0.638752	0.659314
C103	C	1.420487	0.876762	-0.196223
C104	C	1.296903	0.976726	-0.284933
C105	C	1.243465	1.138902	-0.387765
C106	C	1.313610	1.201116	-0.401887
C107	C	1.437201	1.101151	-0.313174
C108	C	1.490640	0.938974	-0.210342
H109	H	1.244971	0.930673	-0.274482
H110	H	1.151974	1.212903	-0.453436
H111	H	1.274051	1.321168	-0.478009
H112	H	1.489134	1.147203	-0.323625
H113	H	1.582131	0.864974	-0.144671
H114	H	0.334658	1.885571	0.000085
C115	C	0.382479	1.276372	0.107184
C116	C	0.421557	1.341968	0.152761
C117	C	0.349285	1.420838	0.209886
C118	C	0.237934	1.434112	0.221434
C119	C	0.198850	1.368514	0.175857
C120	C	0.271122	1.289644	0.118732
H121	H	0.503991	1.332144	0.144213
H122	H	0.378218	1.469399	0.243625
H123	H	0.184433	1.492496	0.263721
H124	H	0.116416	1.378338	0.184404
H125	H	0.242189	1.241083	0.084992
C126	C	1.624632	0.257514	0.196422
C127	C	1.571135	0.214102	0.299240
C128	C	1.624605	0.051922	0.402093
C129	C	1.731572	-0.066846	0.402127
C130	C	1.785075	-0.023437	0.299305
C131	C	1.731605	0.138743	0.196453
H132	H	1.491947	0.302024	0.299218
H133	H	1.584998	0.019788	0.478208
H134	H	1.771154	-0.186902	0.478264
H135	H	1.864264	-0.111359	0.299327
H136	H	1.771212	0.170877	0.120337
C137	C	1.624644	0.257517	0.674666
C138	C	1.571116	0.214106	0.615290
C139	C	1.624571	0.051926	0.674637
C140	C	1.731554	-0.066843	0.793360
C141	C	1.785089	-0.023436	0.852742
C142	C	1.731634	0.138744	0.793395
H143	H	1.491915	0.302029	0.527398
H144	H	1.584941	0.019794	0.630677
H145	H	1.771125	-0.186899	0.837292
H146	H	1.864290	-0.111358	0.940634
H147	H	1.771264	0.170877	0.837355
H148	H	0.422847	1.957297	-0.169524
C149	C	0.306872	1.916525	-0.787971
C150	C	0.310124	2.027304	-0.910286
C151	C	0.203143	2.146076	-1.029022
C152	C	0.092909	2.154069	-1.025442
C153	C	0.089652	2.043286	-0.903123
C154	C	0.196634	1.924514	-0.784387
H155	H	0.391730	2.021390	-0.912940
H156	H	0.205555	2.228084	-1.119571
H157	H	0.013715	2.241991	-1.113337
H158	H	0.008047	2.049199	-0.900469
H159	H	0.194222	1.842505	-0.693838
C160	C	0.409009	1.606753	0.196360
C161	C	0.462504	1.444556	0.299151
C162	C	0.409031	1.401055	0.401980
C163	C	0.302064	1.519751	0.402018
C164	C	0.248563	1.681958	0.299223
C165	C	0.302035	1.725459	0.196394
H166	H	0.541693	1.356681	0.299127
H167	H	0.448637	1.280978	0.478076
H168	H	0.262480	1.487548	0.478138
H169	H	0.169374	1.769832	0.299247
H170	H	0.262430	1.845536	0.120298
C171	C	0.613166	1.772794	-0.196288
C172	C	0.543028	1.864771	-0.336361
C173	C	0.596475	1.908279	-0.439216
C174	C	0.720060	1.859809	-0.401998
C175	C	0.790206	1.767826	-0.261918
C176	C	0.736758	1.724319	-0.159063
H177	H	0.451536	1.900656	-0.363918
H178	H	0.544548	1.976371	-0.542913
H179	H	0.759625	1.892016	-0.478137
H180	H	0.881697	1.731941	-0.234361
H181	H	0.788685	1.656227	-0.055366
H182	H	0.460101	1.383332	-0.127470
C183	C	1.726809	0.340414	0.788040
C184	C	1.837045	0.332417	0.784467
C185	C	1.944023	0.213645	0.903206
C186	C	1.940765	0.102869	1.025519
C187	C	1.830525	0.110862	1.029096
C188	C	1.723547	0.229635	0.910357
H189	H	1.839461	0.414423	0.693920
H190	H	2.025630	0.207729	0.900557
H191	H	2.019957	0.014947	1.113417
H192	H	1.828109	0.028856	1.119644
H193	H	1.641940	0.235551	0.913006
H194	H	1.698984	0.371260	0.000130
H195	H	1.434324	0.495486	0.169674
H196	H	0.632226	1.001144	-0.092465
H197	H	0.422849	1.618187	-0.659241
C198	C	0.582786	0.832466	0.147948
C199	C	0.709526	0.703959	0.211293
C200	C	0.744163	0.546107	0.290151
C201	C	0.652059	0.516763	0.305664
C202	C	0.525311	0.645274	0.242318
C203	C	0.490674	0.803125	0.163460
H204	H	0.777714	0.725678	0.199810
H205	H	0.837991	0.450976	0.337044
H206	H	0.677700	0.399912	0.364039
H207	H	0.457123	0.623554	0.253800
H208	H	0.396846	0.898257	0.116567
H209	H	0.599322	1.761451	-0.463338
H210	H	1.610801	0.638753	-0.169479
H211	H	1.434325	0.495490	0.463443
H212	H	0.422920	1.957290	-0.659163
H213	H	0.599277	1.422307	-0.463387
H214	H	0.599315	1.422265	0.169622
