data_functionalizedCrystal
_audit_creation_method	'MofGen! by Chris Wilmer'
_symmetry_space_group_name_H-M	'P1'
_symmetry_Int_Tables_number	1
_symmetry_cell_setting	triclinic
loop_
_symmetry_equiv_pos_as_xyz
  x,y,z
_cell_length_a	19.288864
_cell_length_b	14.044220
_cell_length_c	17.766277
_cell_angle_alpha	89.993125
_cell_angle_beta	89.976791
_cell_angle_gamma	88.162561
loop_
_atom_site_label
_atom_site_type_symbol
_atom_site_fract_x
_atom_site_fract_y
_atom_site_fract_z
O1	O	0.928949	0.118215	-0.062840
O2	O	0.727713	0.134161	-0.062789
O3	O	0.825310	-0.011784	-0.062806
O4	O	0.831351	0.264160	-0.062822
O5	O	0.825291	-0.011791	0.062383
O6	O	0.727693	0.134154	0.062400
O7	O	0.928929	0.118207	0.062349
Cu8	Cu	0.828310	0.126180	0.073805
Cu9	Cu	0.828332	0.126189	-0.074245
O10	O	0.831332	0.264152	0.062366
C11	C	0.701794	0.133645	-0.000188
C12	C	0.624591	0.132104	-0.000168
C13	C	0.585397	0.217738	-0.000185
C14	C	0.512857	0.216291	-0.000193
C15	C	0.479514	0.129205	-0.000200
C16	C	0.518717	0.043560	-0.000178
C17	C	0.591256	0.045010	-0.000163
C18	C	0.366860	0.060749	-0.044080
C19	C	0.294323	0.059303	-0.044100
C20	C	0.255781	0.124731	-0.000245
C21	C	0.289785	0.191621	0.043621
C22	C	0.362323	0.193071	0.043637
C23	C	0.400858	0.127624	-0.000216
C24	C	0.137930	0.208802	-0.000270
C25	C	0.065389	0.207351	-0.000273
C26	C	0.071251	0.034617	-0.000266
C27	C	0.143790	0.036071	-0.000255
C28	C	0.177126	0.123165	-0.000260
C29	C	0.822656	-0.047091	-0.000211
C30	C	0.814768	-0.152283	-0.000208
C31	C	0.800348	-0.344882	-0.000215
C32	C	0.856291	-0.402755	-0.000231
C33	C	0.848267	-0.509924	-0.000235
C34	C	0.808370	-0.237703	-0.000211
C35	C	0.954848	0.118724	-0.000254
C36	C	1.032051	0.120264	-0.000278
C37	C	0.833986	0.299459	-0.000231
C38	C	0.841874	0.404651	-0.000239
N39	N	0.828299	0.126173	0.177935
N40	N	0.828348	0.126188	-0.178375
C41	C	0.871532	0.061580	0.217315
C42	C	0.871536	0.061576	0.296116
C43	C	0.828314	0.126181	0.335536
C44	C	0.785072	0.190779	0.296147
C45	C	0.785064	0.190775	0.217347
C46	C	0.824563	0.212524	0.460370
C47	C	0.824575	0.212529	0.539169
C48	C	0.828333	0.126192	0.578582
C49	C	0.832093	0.039847	0.539187
C50	C	0.832085	0.039843	0.460387
C51	C	0.828317	0.126192	0.420982
C52	C	0.871573	0.061589	0.703407
C53	C	0.871572	0.061583	0.782211
C54	C	0.785111	0.190794	0.782240
C55	C	0.785109	0.190792	0.703438
C56	C	0.828343	0.126190	0.664027
H57	H	0.266642	0.004841	-0.079822
H58	H	0.746431	-0.375822	-0.000203
C59	C	0.470414	0.309372	-0.000258
C60	C	0.515133	0.385954	-0.000278
C61	C	0.476062	0.471714	-0.000350
H62	H	0.441959	0.312537	0.043377
H63	H	0.442035	0.312439	-0.043941
H64	H	0.543499	0.382889	0.043400
H65	H	0.543588	0.382821	-0.043910
H66	H	0.447684	0.474780	-0.044033
H67	H	0.447610	0.474869	0.043285
H68	H	0.506399	0.523685	-0.000371
H69	H	0.033478	0.277088	-0.000283
H70	H	0.398235	0.007467	-0.079797
C71	C	0.820632	0.306300	0.417618
C72	C	0.877629	0.360628	0.436734
C73	C	0.874038	0.447010	0.397358
H74	H	0.778976	0.340372	0.430513
H75	H	0.821202	0.293969	0.365040
H76	H	0.877052	0.372962	0.489301
H77	H	0.919293	0.326586	0.423837
H78	H	0.874609	0.434678	0.344779
H79	H	0.832380	0.481072	0.410256
H80	H	0.912712	0.483878	0.410317
C81	C	0.918489	-0.008671	0.174662
C82	C	0.956339	-0.065258	0.226022
C83	C	0.999594	-0.129993	0.186756
H84	H	0.949562	0.025203	0.143896
H85	H	0.891078	-0.048089	0.143961
H86	H	0.983748	-0.025845	0.256710
H87	H	0.925284	-0.099153	0.256790
H88	H	0.972183	-0.169411	0.156055
H89	H	1.030662	-0.096111	0.155991
H90	H	1.025275	-0.168401	0.221598
H91	H	0.165073	0.279719	-0.000263
H92	H	0.906743	0.008975	0.328185
H93	H	0.390006	0.247532	0.079357
C94	C	0.928131	-0.361323	-0.000203
C95	C	0.921913	-0.261721	-0.000175
C96	C	0.988074	-0.223518	-0.000135
H97	H	0.952715	-0.382105	-0.043851
H98	H	0.952642	-0.382179	0.043467
H99	H	0.897413	-0.240874	-0.043840
H100	H	0.897341	-0.240913	0.043470
H101	H	1.012585	-0.244374	0.043534
H102	H	1.012653	-0.244307	-0.043785
H103	H	0.983864	-0.155935	-0.000110
H104	H	0.835145	-0.030462	0.428314
H105	H	0.835153	-0.030457	0.571275
H106	H	0.821518	0.282836	0.571239
C107	C	0.738026	0.260812	0.338903
C108	C	0.668835	0.245657	0.319793
C109	C	0.625472	0.310143	0.359172
H110	H	0.749387	0.324074	0.326007
H111	H	0.744176	0.251559	0.391481
H112	H	0.662688	0.254918	0.267226
H113	H	0.657453	0.182408	0.332691
H114	H	0.631623	0.300891	0.411750
H115	H	0.636839	0.373401	0.346272
H116	H	0.578521	0.299864	0.346216
H117	H	0.612534	0.288658	-0.000191
C118	C	0.918528	-0.008661	0.660748
C119	C	0.956374	-0.065256	0.712105
C120	C	0.999629	-0.129989	0.672837
H121	H	0.949604	0.025215	0.629985
H122	H	0.891117	-0.048074	0.630042
H123	H	0.983783	-0.025848	0.742798
H124	H	0.925317	-0.099153	0.742869
H125	H	0.972218	-0.169402	0.642132
H126	H	1.030700	-0.096105	0.642077
H127	H	1.025308	-0.168402	0.707677
C128	C	0.738216	0.261067	0.174628
C129	C	0.755256	0.354150	0.193765
C130	C	0.712122	0.418930	0.154419
H131	H	0.691212	0.251065	0.187534
H132	H	0.744411	0.251880	0.122045
H133	H	0.749055	0.363333	0.246336
H134	H	0.802252	0.364182	0.180857
H135	H	0.718317	0.409743	0.101836
H136	H	0.665121	0.408919	0.167328
H137	H	0.723682	0.482094	0.167392
H138	H	0.906775	0.008979	0.814274
H139	H	0.258405	0.244899	0.079333
C140	C	0.738064	0.260830	0.824988
C141	C	0.668874	0.245680	0.805872
C142	C	0.625510	0.310169	0.845247
H143	H	0.749428	0.324091	0.812092
H144	H	0.744210	0.251577	0.877566
H145	H	0.662731	0.254940	0.753305
H146	H	0.657488	0.182432	0.818769
H147	H	0.631657	0.300917	0.897825
H148	H	0.636881	0.373426	0.832348
H149	H	0.578560	0.299893	0.832287
H150	H	0.044104	-0.036290	-0.000318
C151	C	0.186227	-0.057008	-0.000284
C152	C	0.141504	-0.133587	-0.000311
C153	C	0.180571	-0.219349	-0.000345
H154	H	0.214630	-0.060172	0.043366
H155	H	0.214657	-0.060081	-0.043952
H156	H	0.113086	-0.130515	0.043353
H157	H	0.113101	-0.130455	-0.043957
H158	H	0.209001	-0.222422	-0.044013
H159	H	0.208973	-0.222502	0.043306
H160	H	0.150233	-0.271317	-0.000370
H161	H	0.491565	-0.027346	-0.000194
C162	C	0.738264	0.261086	0.660720
C163	C	0.755308	0.354168	0.679856
C164	C	0.712173	0.418950	0.640513
H165	H	0.691262	0.251086	0.673629
H166	H	0.744456	0.251899	0.608137
H167	H	0.749111	0.363352	0.732427
H168	H	0.802303	0.364199	0.666945
H169	H	0.718364	0.409763	0.587929
H170	H	0.665172	0.408942	0.653425
H171	H	0.723735	0.482113	0.653485
H172	H	0.623168	-0.024726	-0.000149
