data_functionalizedCrystal
_audit_creation_method	'MofGen! by Chris Wilmer'
_symmetry_space_group_name_H-M	'P1'
_symmetry_Int_Tables_number	1
_symmetry_cell_setting	triclinic
loop_
_symmetry_equiv_pos_as_xyz
  x,y,z
_cell_length_a	17.038272
_cell_length_b	23.532407
_cell_length_c	16.098538
_cell_angle_alpha	92.700973
_cell_angle_beta	87.069734
_cell_angle_gamma	86.980117
loop_
_atom_site_label
_atom_site_type_symbol
_atom_site_fract_x
_atom_site_fract_y
_atom_site_fract_z
O1	O	1.039966	0.121251	-0.069166
O2	O	1.539966	0.621251	0.430834
O3	O	0.812351	0.119288	-0.069191
O4	O	1.312351	0.619288	0.430809
O5	O	0.933021	0.037699	-0.069163
O6	O	1.433021	0.537699	0.430837
O7	O	0.919295	0.202840	-0.069195
O8	O	1.419295	0.702840	0.430805
O9	O	0.925973	0.042445	0.069349
O10	O	1.425973	0.542445	0.569349
O11	O	0.805302	0.124034	0.069321
O12	O	1.305302	0.624034	0.569321
O13	O	1.032917	0.125997	0.069345
O14	O	1.532917	0.625997	0.569345
Zn15	Zn	0.917990	0.125769	0.091324
Zn16	Zn	1.417990	0.625769	0.591324
Zn17	Zn	0.927278	0.119516	-0.091170
Zn18	Zn	1.427278	0.619516	0.408830
O19	O	0.912247	0.207586	0.069317
O20	O	1.412247	0.707586	0.569317
C21	C	0.779712	0.119875	0.000062
C22	C	1.279712	0.619875	0.500062
C23	C	0.692959	0.114548	0.000054
C24	C	1.192959	0.614548	0.500054
C25	C	0.642483	0.163453	0.000045
C26	C	1.142483	0.663453	0.500045
C27	C	0.560969	0.158445	0.000057
C28	C	1.060969	0.658445	0.500057
C29	C	0.529932	0.104532	0.000072
C30	C	1.029932	0.604532	0.500072
C31	C	0.580415	0.055624	0.000084
C32	C	1.080415	0.555624	0.500084
C33	C	0.661927	0.060632	0.000077
C34	C	1.161927	0.560632	0.500077
C35	C	0.284304	0.086837	0.000098
C36	C	0.784304	0.586837	0.500098
C37	C	0.202786	0.081832	0.000102
C38	C	0.702786	0.581832	0.500102
C39	C	0.183345	0.184654	0.000077
C40	C	0.683345	0.684654	0.500077
C41	C	0.264860	0.189657	0.000066
C42	C	0.764860	0.689657	0.500066
C43	C	0.315335	0.140750	0.000081
C44	C	0.815335	0.640750	0.500081
C45	C	0.446612	0.099411	0.000083
C46	C	0.946612	0.599411	0.500083
C47	C	0.398653	0.145871	0.000077
C48	C	0.898653	0.645871	0.500077
C49	C	0.929147	0.018838	0.000095
C50	C	1.429147	0.518838	0.500095
C51	C	0.928096	-0.044434	0.000101
C52	C	1.428096	0.455566	0.500101
C53	C	0.992917	-0.440131	0.000063
C54	C	1.492917	0.059869	0.500063
C55	C	0.991941	-0.499583	0.000056
C56	C	1.491941	0.000417	0.500056
O57	O	1.052030	-0.533169	0.000032
O58	O	1.552030	-0.033169	0.500032
N59	N	0.920202	-0.525981	0.000049
N60	N	1.420202	-0.025981	0.500049
C61	C	0.849435	-0.492924	0.000040
C62	C	1.349435	0.007076	0.500040
O63	O	0.788325	-0.520836	0.000033
O64	O	1.288325	-0.020836	0.500033
C65	C	0.850412	-0.433473	0.000041
C66	C	1.350412	0.066527	0.500041
C67	C	0.922155	-0.407078	0.000056
C68	C	1.422155	0.092922	0.500056
C69	C	1.064654	-0.413736	0.000077
C70	C	1.564654	0.086264	0.500077
C71	C	1.065630	-0.354288	0.000085
C72	C	1.565630	0.145712	0.500085
C73	C	0.994868	-0.321236	0.000079
C74	C	1.494868	0.178764	0.500079
C75	C	0.923131	-0.347631	0.000064
C76	C	1.423131	0.152369	0.500064
C77	C	0.779646	-0.400418	0.000026
C78	C	1.279646	0.099582	0.500026
C79	C	0.780629	-0.340963	0.000025
C80	C	1.280629	0.159037	0.500025
C81	C	0.852372	-0.314569	0.000041
C82	C	1.352372	0.185431	0.500041
C83	C	0.853344	-0.255130	0.000066
C84	C	1.353344	0.244870	0.500066
N85	N	0.925083	-0.228732	0.000073
N86	N	1.425083	0.271268	0.500073
C87	C	0.995845	-0.261785	0.000079
C88	C	1.495845	0.238215	0.500079
C89	C	0.847388	-0.617774	0.000038
C90	C	1.347388	-0.117774	0.500038
C91	C	0.846410	-0.677223	0.000043
C92	C	1.346410	-0.177223	0.500043
C93	C	0.988917	-0.683878	0.000058
C94	C	1.488917	-0.183878	0.500058
C95	C	0.989894	-0.624428	0.000058
C96	C	1.489894	-0.124428	0.500058
C97	C	0.919127	-0.591376	0.000045
C98	C	1.419127	-0.091376	0.500045
C99	C	0.997889	-0.136940	0.000097
C100	C	1.497889	0.363060	0.500097
C101	C	0.998858	-0.077487	0.000108
C102	C	1.498858	0.422513	0.500108
C103	C	0.856352	-0.070837	0.000089
C104	C	1.356352	0.429163	0.500089
C105	C	0.855382	-0.130285	0.000082
C106	C	1.355382	0.369715	0.500082
C107	C	0.926157	-0.163336	0.000083
C108	C	1.426157	0.336664	0.500083
O109	O	0.793287	-0.221508	0.000086
O110	O	1.293287	0.278492	0.500086
O111	O	1.056945	-0.233865	0.000076
O112	O	1.556945	0.266135	0.500076
C113	C	1.065556	0.125410	0.000090
C114	C	1.565556	0.625410	0.500090
C115	C	1.152310	0.130737	0.000093
C116	C	1.652310	0.630737	0.500093
C117	C	0.916121	0.226447	0.000057
C118	C	1.416121	0.726447	0.500057
C119	C	0.917172	0.289719	0.000045
C120	C	1.417172	0.789719	0.500045
N121	N	0.911658	0.130036	0.215872
N122	N	1.411658	0.630036	0.715872
N123	N	0.933616	0.115244	-0.215718
N124	N	1.433616	0.615244	0.284282
C125	C	0.962894	0.095421	0.259469
C126	C	1.462894	0.595421	0.759469
C127	C	0.958471	0.098412	0.346657
C128	C	1.458471	0.598412	0.846657
C129	C	0.902816	0.136022	0.390246
C130	C	1.402816	0.636022	0.890246
C131	C	0.851574	0.170639	0.346643
C132	C	1.351574	0.670639	0.846643
C133	C	0.855994	0.167644	0.259457
C134	C	1.355994	0.667644	0.759457
C135	C	0.886795	0.146867	0.653493
C136	C	1.386795	0.646867	1.153493
C137	C	0.882380	0.149860	0.740685
C138	C	1.382380	0.649860	1.240685
C139	C	0.989277	0.077632	0.740693
C140	C	1.489277	0.577632	1.240693
C141	C	0.993694	0.074644	0.653505
C142	C	1.493694	0.574644	1.153505
C143	C	0.942450	0.109258	0.609909
C144	C	1.442450	0.609258	1.109909
C145	C	0.898295	0.139081	0.479366
C146	C	1.398295	0.639081	0.979366
C147	C	0.946968	0.106195	0.520791
C148	C	1.446968	0.606195	1.020791
H149	H	0.423926	0.189766	0.000069
H150	H	0.923926	0.689766	0.500069
O151	O	1.066582	-0.169096	0.000212
O152	O	1.566582	0.330904	0.500212
C153	C	1.066642	-0.201224	0.071957
C154	C	1.566642	0.298776	0.571957
H155	H	1.003417	-0.206432	0.095861
H156	H	1.503417	0.293568	0.595861
H157	H	1.096945	-0.244986	0.055825
H158	H	1.596945	0.255014	0.555825
H159	H	1.099615	-0.178235	0.122198
H160	H	1.599615	0.321765	0.622198
O161	O	1.038965	0.044028	0.783171
O162	O	1.538965	0.544028	1.283171
C163	C	1.023147	0.054744	0.869471
C164	C	1.523147	0.554744	1.369471
H165	H	0.960244	0.073394	0.881382
H166	H	1.460244	0.573394	1.381382
H167	H	1.030498	0.013193	0.902619
H168	H	1.530498	0.513193	1.402619
H169	H	1.065906	0.086306	0.894196
H170	H	1.565906	0.586306	1.394196
H171	H	1.008217	0.064798	0.223984
H172	H	1.508217	0.564798	0.723984
O173	O	0.295107	0.241997	0.000142
O174	O	0.795107	0.741997	0.500142
C175	C	0.338034	0.250445	0.071871
C176	C	0.838034	0.750445	0.571871
H177	H	0.357459	0.207383	0.095818
H178	H	0.857459	0.707383	0.595818
H179	H	0.392068	0.275155	0.055701
H180	H	0.892068	0.775155	0.555701
H181	H	0.299291	0.275628	0.122094
H182	H	0.799291	0.775628	0.622094
O183	O	0.672760	0.215780	-0.000010
O184	O	1.172760	0.715780	0.499990
C185	C	0.755528	0.209717	0.000005
C186	C	1.255528	0.709717	0.500005
H187	H	0.776348	0.165320	-0.026209
H188	H	1.276348	0.665320	0.473791
H189	H	0.782336	0.243075	-0.040220
H190	H	1.282336	0.743075	0.459780
H191	H	0.774829	0.215855	0.066452
H192	H	1.274829	0.715855	0.566452
H193	H	0.421332	0.055516	0.000119
H194	H	0.921332	0.555516	0.500119
O195	O	0.134388	0.232205	0.000179
O196	O	0.634388	0.732205	0.500179
C197	C	0.144739	0.267155	0.071918
C198	C	0.644739	0.767155	0.571918
H199	H	0.205473	0.256991	0.095833
H200	H	0.705473	0.756991	0.595833
H201	H	0.139455	0.313805	0.055775
H202	H	0.639455	0.813805	0.555775
H203	H	0.097662	0.258933	0.122156
H204	H	0.597662	0.758933	0.622156
H205	H	1.048313	-0.602941	0.000070
H206	H	1.548313	-0.102941	0.500070
O207	O	0.785626	-0.155839	0.000033
O208	O	1.285626	0.344161	0.500033
C209	C	0.723378	-0.113913	0.000053
C210	C	1.223378	0.386087	0.500053
H211	H	0.746301	-0.073403	-0.026152
H212	H	1.246301	0.426597	0.473848
H213	H	0.675313	-0.130129	-0.040176
H214	H	1.175313	0.369871	0.459824
H215	H	0.698187	-0.104305	0.066502
H216	H	1.198187	0.395695	0.566502
O217	O	0.172765	0.029416	0.000153
O218	O	0.672765	0.529416	0.500153
C219	C	0.234794	-0.012679	0.000144
C220	C	0.734794	0.487321	0.500144
H221	H	0.288718	0.006858	0.026365
H222	H	0.788718	0.506858	0.526365
H223	H	0.215994	-0.048703	0.040364
H224	H	0.715994	0.451297	0.540364
H225	H	0.249828	-0.030232	-0.066304
H226	H	0.749828	0.469768	0.433696
O227	O	1.135280	-0.328593	-0.000022
O228	O	1.635280	0.171407	0.499978
C229	C	1.143772	-0.296869	-0.071769
C230	C	1.643772	0.203131	0.428231
H231	H	1.083272	-0.285880	-0.095686
H232	H	1.583272	0.214120	0.404314
H233	H	1.173809	-0.255926	-0.055637
H234	H	1.673809	0.244074	0.444363
H235	H	1.181102	-0.323146	-0.122001
H236	H	1.681102	0.176854	0.377999
H237	H	1.046535	-0.710801	0.000060
H238	H	1.546535	-0.210801	0.500060
H239	H	0.325392	0.047013	0.000112
H240	H	0.825392	0.547013	0.500112
H241	H	0.837057	0.180488	0.776172
H242	H	1.337057	0.680488	1.276172
O243	O	1.133468	-0.445752	0.000123
O244	O	1.633468	0.054248	0.500123
C245	C	1.196986	-0.409695	0.000114
C246	C	1.696986	0.090305	0.500114
H247	H	1.175444	-0.365446	0.026330
H248	H	1.675444	0.134554	0.526330
H249	H	1.244492	-0.427817	0.040340
H250	H	1.744492	0.072183	0.540340
H251	H	1.222384	-0.406666	-0.066332
H252	H	1.722384	0.093334	0.433668
H253	H	0.789757	-0.590866	0.000034
H254	H	1.289757	-0.090866	0.500034
H255	H	0.798739	-0.043915	0.000087
H256	H	1.298739	0.456085	0.500087
O257	O	0.710986	0.013148	0.000230
O258	O	1.210986	0.513148	0.500230
C259	C	0.755091	0.015434	0.071953
C260	C	1.255091	0.515434	0.571953
H261	H	0.722465	0.044817	0.122088
H262	H	1.222465	0.544817	0.622088
H263	H	0.763392	-0.029153	0.096042
H264	H	1.263392	0.470847	0.596042
H265	H	0.815079	0.032485	0.055727
H266	H	1.315079	0.532485	0.555727
H267	H	0.555138	0.011727	0.000108
H268	H	1.055138	0.511727	0.500108
H269	H	0.852981	0.169705	0.514864
H270	H	1.352981	0.669705	1.014864
H271	H	0.787989	-0.698708	0.000045
H272	H	1.287989	-0.198708	0.500045
H273	H	1.057282	-0.055999	0.000123
H274	H	1.557282	0.444001	0.500123
O275	O	1.008333	0.064771	0.388878
O276	O	1.508333	0.564771	0.888878
C277	C	1.058397	0.030930	0.331709
C278	C	1.558397	0.530930	0.831709
H279	H	1.062236	0.052179	0.269550
H280	H	1.562236	0.552179	0.769550
H281	H	1.119603	0.026172	0.356891
H282	H	1.619603	0.526172	0.856891
H283	H	1.033836	-0.012924	0.322459
H284	H	1.533836	0.487076	0.822459
H285	H	0.721225	-0.421898	0.000008
H286	H	1.221225	0.078102	0.500008
H287	H	0.723001	-0.314056	0.000013
H288	H	1.223001	0.185944	0.500013
H289	H	1.039013	0.044019	0.618016
H290	H	1.539013	0.544019	1.118016
O291	O	0.836986	0.180551	0.611280
O292	O	1.336986	0.680551	1.111280
C293	C	0.786907	0.214378	0.668453
C294	C	1.286907	0.714378	1.168453
H295	H	0.815798	0.218720	0.730595
H296	H	1.315798	0.718720	1.230595
H297	H	0.775903	0.258395	0.643249
H298	H	1.275903	0.758395	1.143249
H299	H	0.728526	0.193374	0.677745
H300	H	1.228526	0.693374	1.177745
H301	H	0.806255	0.201259	0.382139
H302	H	1.306255	0.701259	0.882139
O303	O	0.806189	0.201329	0.217233
O304	O	1.306189	0.701329	0.717233
C305	C	0.756106	0.235157	0.274400
C306	C	1.256106	0.735157	0.774400
H307	H	0.784992	0.239502	0.336544
H308	H	1.284992	0.739502	0.836544
H309	H	0.745102	0.279173	0.249192
H310	H	1.245102	0.779173	0.749192
H311	H	0.697725	0.214153	0.283688
H312	H	1.197725	0.714153	0.783688
O313	O	1.000951	0.069573	0.478506
O314	O	1.500951	0.569573	0.978506
C315	C	0.987610	0.013335	0.499868
C316	C	1.487610	0.513335	0.999868
H317	H	0.923824	0.010829	0.523839
H318	H	1.423824	0.510829	1.023839
H319	H	0.999732	-0.016775	0.442550
H320	H	1.499732	0.483225	0.942550
H321	H	1.028487	0.000476	0.550485
H322	H	1.528487	0.500476	1.050485
O323	O	0.512050	0.206007	0.000010
O324	O	1.012050	0.706007	0.500010
C325	C	0.556921	0.254666	0.000012
C326	C	1.056921	0.754666	0.500012
H327	H	0.619205	0.242265	-0.026216
H328	H	1.119205	0.742265	0.473784
H329	H	0.528609	0.287796	-0.040208
H330	H	1.028609	0.787796	0.459792
H331	H	0.559233	0.273286	0.066457
H332	H	1.059233	0.773286	0.566457
