data_functionalizedCrystal
_audit_creation_method	'MofGen! by Chris Wilmer'
_symmetry_space_group_name_H-M	'P1'
_symmetry_Int_Tables_number	1
_symmetry_cell_setting	triclinic
loop_
_symmetry_equiv_pos_as_xyz
  x,y,z
_cell_length_a	10.489716
_cell_length_b	12.837932
_cell_length_c	11.892095
_cell_angle_alpha	85.696014
_cell_angle_beta	86.061917
_cell_angle_gamma	90.320581
loop_
_atom_site_label
_atom_site_type_symbol
_atom_site_fract_x
_atom_site_fract_y
_atom_site_fract_z
O1	O	-1.717554	0.139691	0.093990
O2	O	-1.347873	0.153457	0.093994
O3	O	-1.524515	-0.004389	0.093989
O4	O	-1.540912	0.297537	0.093995
O5	O	-1.509784	0.008751	-0.094018
O6	O	-1.333142	0.166598	-0.094013
O7	O	-1.702823	0.152831	-0.094017
Zn8	Zn	-1.515644	0.161801	-0.123865
Zn9	Zn	-1.535052	0.144488	0.123842
O10	O	-1.526181	0.310678	-0.094012
C11	C	-1.292861	0.158993	-0.000009
C12	C	-1.150889	0.155898	-0.000008
C13	C	-1.511611	-0.036481	-0.000013
C14	C	-1.495092	-0.151681	-0.000008
C15	C	-1.757835	0.147295	-0.000012
C16	C	-1.899808	0.150389	-0.000006
C17	C	-1.063888	0.252695	-0.000003
C18	C	-0.973639	0.208025	-0.092707
C19	C	-0.988166	0.195046	0.092654
C20	C	-1.062504	0.111274	-0.092788
C21	C	-1.077045	0.098304	0.092656
C22	C	-0.986835	0.053565	-0.000070
N23	N	-1.502408	0.173616	-0.292919
C24	C	-1.539085	0.342769	-0.000008
C25	C	-1.555604	0.457968	-0.000006
C26	C	-1.693672	0.608832	-0.000005
C27	C	-1.678159	0.500591	-0.000005
C28	C	-1.448556	0.523594	-0.000002
C29	C	-1.464068	0.631835	-0.000001
C30	C	-1.586630	0.674450	-0.000004
C31	C	-1.602141	0.782693	-0.000012
C32	C	-1.372540	0.805694	-0.000000
C33	C	-1.357027	0.697453	-0.000001
C34	C	-1.640394	0.050389	-0.529571
C35	C	-1.631153	0.058655	-0.647912
C36	C	-1.474676	0.198409	-0.647946
C37	C	-1.483918	0.190143	-0.529605
C38	C	-1.566781	0.116131	-0.470421
C39	C	-1.576029	0.107871	-0.352077
C40	C	-1.419547	0.247619	-0.352113
C41	C	-1.410305	0.255885	-0.470455
N42	N	-1.548297	0.132664	0.292896
H43	H	-1.097834	0.336899	-0.000088
Br44	Br	-0.898439	0.285256	-0.223331
H45	H	-1.122179	0.051995	0.171031
Br46	Br	-1.688491	0.007433	-0.271758
Br47	Br	-1.297845	0.356321	-0.550782
H48	H	-1.407201	0.258661	-0.696149
H49	H	-1.793465	0.643529	-0.000018
H50	H	-1.707874	-0.009867	-0.481383
H51	H	-1.691094	0.005120	-0.696069
H52	H	-1.359610	0.301154	-0.303940
H53	H	-1.095171	0.075919	-0.171238
H54	H	-0.953110	-0.030692	-0.000125
H55	H	-0.955330	0.230451	0.171016
H56	H	-1.701937	0.817388	-0.000018
H57	H	-1.765324	0.447167	-0.000002
Br58	Br	-1.282238	0.465739	0.000043
Br59	Br	-1.190702	0.639608	0.000017
H60	H	-1.285378	0.859133	-0.000009
