data_functionalizedCrystal
_audit_creation_method	'MofGen! by Chris Wilmer'
_symmetry_space_group_name_H-M	'P1'
_symmetry_Int_Tables_number	1
_symmetry_cell_setting	triclinic
loop_
_symmetry_equiv_pos_as_xyz
  x,y,z
_cell_length_a	17.077404
_cell_length_b	29.839132
_cell_length_c	17.077396
_cell_angle_alpha	89.965873
_cell_angle_beta	90.018362
_cell_angle_gamma	89.956766
loop_
_atom_site_label
_atom_site_type_symbol
_atom_site_fract_x
_atom_site_fract_y
_atom_site_fract_z
Zn1	Zn	1.199933	0.178878	0.443788
Zn2	Zn	1.533266	0.512211	0.777121
Zn3	Zn	1.866599	0.845544	1.110455
Zn4	Zn	1.199788	0.254008	0.312509
Zn5	Zn	1.533122	0.587342	0.645842
Zn6	Zn	1.866455	0.920675	0.979176
Zn7	Zn	1.068664	0.178890	0.312539
Zn8	Zn	1.401998	0.512224	0.645872
Zn9	Zn	1.735331	0.845557	0.979205
Zn10	Zn	1.068581	0.253979	0.443735
Zn11	Zn	1.401914	0.587312	0.777069
Zn12	Zn	1.735248	0.920645	1.110402
O13	O	1.134242	0.216439	0.378143
O14	O	1.467575	0.549772	0.711476
O15	O	1.800908	0.883105	1.044809
O16	O	1.309760	0.188851	0.426383
O17	O	1.643094	0.522184	0.759717
O18	O	1.976427	0.855518	1.093050
O19	O	1.182369	0.244062	0.202666
O20	O	1.515702	0.577395	0.535999
O21	O	1.849036	0.910728	0.869333
O22	O	1.086173	0.116022	0.329984
O23	O	1.419506	0.449355	0.663317
O24	O	1.752839	0.782688	0.996650
O25	O	1.309654	0.244049	0.329933
O26	O	1.642988	0.577382	0.663267
O27	O	1.976321	0.910716	0.996600
O28	O	1.182615	0.116012	0.426412
O29	O	1.515948	0.449346	0.759745
O30	O	1.849281	0.782679	1.093079
O31	O	1.086033	0.188873	0.202688
O32	O	1.419366	0.522206	0.536021
O33	O	1.752699	0.855539	0.869354
O34	O	0.958806	0.188844	0.329932
O35	O	1.292140	0.522177	0.663266
O36	O	1.625473	0.855511	0.996599
O37	O	1.086031	0.243999	0.553589
O38	O	1.419364	0.577332	0.886923
O39	O	1.752697	0.910665	1.220256
O40	O	0.958745	0.244011	0.426322
O41	O	1.292079	0.577344	0.759655
O42	O	1.625412	0.910678	1.092989
O43	O	1.182534	0.188822	0.553628
O44	O	1.515867	0.522156	0.886961
O45	O	1.849201	0.855489	1.220295
O46	O	1.182288	0.316872	0.329882
O47	O	1.515622	0.650205	0.663215
O48	O	1.848955	0.983538	0.996549
O49	O	1.085891	0.316850	0.426293
O50	O	1.419224	0.650183	0.759627
O51	O	1.752557	0.983516	1.092960
C52	C	0.930294	0.216426	0.378125
C53	C	1.263627	0.549759	0.711458
C54	C	1.596960	0.883093	1.044792
C55	C	0.843044	0.216431	0.378136
C56	C	1.176377	0.549765	0.711470
C57	C	1.509711	0.883098	1.044803
C58	C	0.802110	0.187741	0.428434
C59	C	1.135443	0.521074	0.761768
C60	C	1.468776	0.854408	1.095101
C61	C	0.720129	0.187744	0.428438
C62	C	1.053463	0.521077	0.761771
C63	C	1.386796	0.854410	1.095105
C64	C	0.679084	0.216440	0.378147
C65	C	1.012418	0.549773	0.711480
C66	C	1.345751	0.883107	1.044813
C67	C	0.720025	0.245132	0.327843
C68	C	1.053358	0.578465	0.661176
C69	C	1.386691	0.911798	0.994510
C70	C	0.802003	0.245126	0.327836
C71	C	1.135337	0.578460	0.661169
C72	C	1.468670	0.911793	0.994503
C73	C	0.549154	0.245142	0.327863
C74	C	0.882488	0.578475	0.661196
C75	C	1.215821	0.911809	0.994529
C76	C	0.467170	0.245148	0.327870
C77	C	0.800503	0.578481	0.661204
C78	C	1.133837	0.911815	0.994537
C79	C	0.467280	0.187759	0.428464
C80	C	0.800614	0.521093	0.761798
C81	C	1.133947	0.854426	1.095131
C82	C	0.549259	0.187754	0.428457
C83	C	0.882592	0.521087	0.761791
C84	C	1.215926	0.854421	1.095124
C85	C	0.590193	0.216447	0.378155
C86	C	0.923527	0.549780	0.711488
C87	C	1.256860	0.883113	1.044821
C88	C	1.134086	0.333161	0.378096
C89	C	1.467419	0.666495	0.711429
C90	C	1.800753	0.999828	1.044763
C91	C	1.134091	0.383096	0.378102
C92	C	1.467425	0.716429	0.711435
C93	C	1.800758	1.049763	1.044769
C94	C	1.184471	0.692738	0.327983
C95	C	1.517804	1.026071	0.661316
C96	C	1.851138	1.359405	0.994649
C97	C	1.184546	0.880411	0.328000
C98	C	1.517879	1.213744	0.661334
C99	C	1.851213	1.547078	0.994667
O100	O	1.227296	0.904675	0.285373
O101	O	1.560630	1.238008	0.618706
O102	O	1.893963	1.571341	0.952040
N103	N	1.134324	0.903881	0.378155
N104	N	1.467657	1.237214	0.711489
N105	N	1.800990	1.570548	1.044822
C106	C	1.084083	0.880430	0.428313
C107	C	1.417416	1.213763	0.761647
C108	C	1.750749	1.547096	1.094980
O109	O	1.041373	0.904699	0.470980
O110	O	1.374706	1.238032	0.804313
O111	O	1.708040	1.571365	1.137646
C112	C	1.084012	0.692757	0.428299
C113	C	1.417346	1.026091	0.761632
C114	C	1.750679	1.359424	1.094966
C115	C	1.134232	0.669290	0.378135
C116	C	1.467566	1.002623	0.711468
C117	C	1.800899	1.335957	1.044802
C118	C	1.234688	0.669270	0.277823
C119	C	1.568021	1.002604	0.611156
C120	C	1.901354	1.335937	0.944490
C121	C	1.234665	0.622355	0.277816
C122	C	1.567999	0.955688	0.611150
C123	C	1.901332	1.289022	0.944483
C124	C	1.184427	0.598907	0.327969
C125	C	1.517760	0.932240	0.661302
C126	C	1.851093	1.265574	0.994635
C127	C	1.134210	0.622375	0.378128
C128	C	1.467543	0.955708	0.711461
C129	C	1.800877	1.289041	1.044795
C130	C	1.033776	0.669307	0.478460
C131	C	1.367109	1.002640	0.811794
C132	C	1.700443	1.335974	1.145127
C133	C	1.033764	0.622386	0.478454
C134	C	1.367098	0.955719	0.811787
C135	C	1.700431	1.289053	1.145120
C136	C	1.083984	0.598919	0.428290
C137	C	1.417318	0.932252	0.761623
C138	C	1.750651	1.265585	1.094956
C139	C	1.083949	0.552011	0.428273
C140	C	1.417283	0.885345	0.761607
C141	C	1.750616	1.218678	1.094940
N142	N	1.134171	0.528541	0.378118
N143	N	1.467505	0.861875	0.711452
N144	N	1.800838	1.195208	1.044785
C145	C	1.184410	0.551989	0.327966
C146	C	1.517744	0.885322	0.661299
C147	C	1.851077	1.218656	0.994632
C148	C	1.084122	0.978960	0.428316
C149	C	1.417456	1.312294	0.761650
C150	C	1.750789	1.645627	1.094983
C151	C	1.084139	1.025878	0.428319
C152	C	1.417472	1.359211	0.761652
C153	C	1.750805	1.692545	1.094986
C154	C	1.184603	1.025856	0.328007
C155	C	1.517936	1.359189	0.661340
C156	C	1.851270	1.692523	0.994673
C157	C	1.184582	0.978937	0.328001
C158	C	1.517915	1.312271	0.661334
C159	C	1.851249	1.645604	0.994667
C160	C	1.134344	0.955490	0.378161
C161	C	1.467678	1.288824	0.711494
C162	C	1.801011	1.622157	1.044828
C163	C	1.184359	0.453463	0.327955
C164	C	1.517693	0.786797	0.661288
C165	C	1.851026	1.120130	0.994621
C166	C	1.184330	0.406544	0.327950
C167	C	1.517664	0.739877	0.661283
C168	C	1.850997	1.073210	0.994616
C169	C	1.083869	0.406570	0.428265
C170	C	1.417202	0.739903	0.761598
C171	C	1.750536	1.073236	1.094931
C172	C	1.083895	0.453485	0.428267
C173	C	1.417228	0.786819	0.761600
C174	C	1.750561	1.120152	1.094933
C175	C	1.134146	0.476931	0.378109
C176	C	1.467480	0.810264	0.711442
C177	C	1.800813	1.143598	1.044776
O178	O	1.041228	0.527719	0.470885
O179	O	1.374561	0.861052	0.804218
O180	O	1.707894	1.194385	1.137551
O181	O	1.227126	0.527712	0.285318
O182	O	1.560459	0.861046	0.618652
O183	O	1.893792	1.194379	0.951985
C184	C	1.184493	0.739653	0.327989
C185	C	1.517827	1.072987	0.661323
C186	C	1.851160	1.406320	0.994656
C187	C	1.134277	0.763121	0.378149
C188	C	1.467610	1.096454	0.711482
C189	C	1.800944	1.429788	1.044815
C190	C	1.084038	0.739673	0.428301
C191	C	1.417371	1.073006	0.761635
C192	C	1.750705	1.406340	1.094968
C193	C	1.134293	0.810039	0.378152
C194	C	1.467627	1.143372	0.711485
C195	C	1.800960	1.476705	1.044818
C196	C	1.184532	0.833487	0.327999
C197	C	1.517865	1.166820	0.661333
C198	C	1.851199	1.500153	0.994666
C199	C	1.234754	0.810017	0.277844
C200	C	1.568088	1.143350	0.611177
C201	C	1.901421	1.476683	0.944511
C202	C	1.234732	0.763101	0.277837
C203	C	1.568065	1.096435	0.611170
C204	C	1.901399	1.429768	0.944504
C205	C	1.033816	0.763143	0.478456
C206	C	1.367149	1.096476	0.811790
C207	C	1.700483	1.429810	1.145123
C208	C	1.033842	0.810058	0.478459
C209	C	1.367175	1.143392	0.811792
C210	C	1.700508	1.476725	1.145125
C211	C	1.084080	0.833506	0.428306
C212	C	1.417414	1.166840	0.761640
C213	C	1.750747	1.500173	1.094973
C214	C	1.338986	0.216452	0.378161
C215	C	1.672319	0.549785	0.711494
C216	C	2.005652	0.883119	1.044828
C217	C	1.426236	0.216458	0.378169
C218	C	1.759569	0.549791	0.711502
C219	C	2.092902	0.883124	1.044835
C220	C	1.134289	0.216406	0.582887
C221	C	1.467622	0.549739	0.916220
C222	C	1.800956	0.883072	1.249554
C223	C	1.134309	0.216392	0.670137
C224	C	1.467643	0.549725	1.003470
C225	C	1.800976	0.883058	1.336804
C226	C	1.134390	1.099260	0.378190
C227	C	1.467723	1.432594	0.711523
C228	C	1.801056	1.765927	1.044857
C229	C	1.134377	1.049326	0.378167
C230	C	1.467711	1.382659	0.711500
C231	C	1.801044	1.715993	1.044833
C232	C	1.134239	0.216439	0.174195
C233	C	1.467573	0.549773	0.507528
C234	C	1.800906	0.883106	0.840862
C235	C	1.134371	0.216327	0.086946
C236	C	1.467705	0.549660	0.420279
C237	C	1.801038	0.882994	0.753612
C238	C	1.184560	0.187659	0.711149
C239	C	1.517894	0.520992	1.044482
C240	C	1.851227	0.854326	1.377815
C241	C	1.184570	0.187644	0.793129
C242	C	1.517903	0.520977	1.126462
C243	C	1.851237	0.854311	1.459796
C244	C	1.134332	0.216364	0.834096
C245	C	1.467665	0.549698	1.167430
C246	C	1.800998	0.883031	1.500763
C247	C	1.084075	0.245098	0.793079
C248	C	1.417408	0.578432	1.126412
C249	C	1.750742	0.911765	1.459746
C250	C	1.084062	0.245111	0.711100
C251	C	1.417395	0.578444	1.044433
C252	C	1.750729	0.911777	1.377767
C253	C	1.084107	0.245071	0.963949
C254	C	1.417440	0.578405	1.297283
C255	C	1.750773	0.911738	1.630616
C256	C	1.084120	0.245060	1.045934
C257	C	1.417454	0.578393	1.379267
C258	C	1.750787	0.911726	1.712601
C259	C	1.184614	0.187605	1.045978
C260	C	1.517948	0.520938	1.379312
C261	C	1.851281	0.854271	1.712645
C262	C	1.184602	0.187617	0.963999
C263	C	1.517935	0.520950	1.297333
C264	C	1.851268	0.854284	1.630666
C265	C	1.134346	0.216352	0.922988
C266	C	1.467679	0.549685	1.256321
C267	C	1.801012	0.883018	1.589654
H268	H	0.582676	0.164390	0.469414
H269	H	0.916009	0.497723	0.802747
H270	H	1.249342	0.831056	1.136080
H271	H	1.043211	0.959873	0.469164
H272	H	1.376544	1.293206	0.802497
H273	H	1.709877	1.626539	1.135831
F274	F	0.423489	0.275698	0.274360
F275	F	0.756822	0.609031	0.607693
F276	F	1.090155	0.942365	0.941026
F277	F	1.288126	0.597385	0.224433
F278	F	1.621459	0.930718	0.557767
F279	F	1.954793	1.264052	0.891100
H280	H	1.043004	0.472594	0.469117
H281	H	1.376337	0.805927	0.802450
H282	H	1.709671	1.139260	1.135784
F283	F	1.030406	0.381607	0.481640
F284	F	1.363740	0.714940	0.814973
F285	F	1.697073	1.048273	1.148306
H286	H	1.225533	0.164207	1.079374
H287	H	1.558867	0.497540	1.412707
H288	H	1.892200	0.830874	1.746041
H289	H	0.686599	0.268494	0.286891
H290	H	1.019933	0.601828	0.620225
H291	H	1.353266	0.935161	0.953558
F292	F	0.592718	0.275682	0.274327
F293	F	0.926051	0.609015	0.607661
F294	F	1.259385	0.942348	0.940994
H295	H	1.043237	1.044981	0.469160
H296	H	1.376571	1.378315	0.802494
H297	H	1.709904	1.711648	1.135827
H298	H	1.275626	0.743997	0.236989
H299	H	1.608959	1.077331	0.570322
H300	H	1.942293	1.410664	0.903656
F301	F	0.980343	0.738194	0.531839
F302	F	1.313676	1.071527	0.865173
F303	F	1.647009	1.404861	1.198506
F304	F	0.845568	0.275663	0.274302
F305	F	1.178902	0.608996	0.607636
F306	F	1.512235	0.942330	0.940969
H307	H	1.043210	0.268445	1.079287
H308	H	1.376543	0.601779	1.412621
H309	H	1.709877	0.935112	1.745954
H310	H	1.043135	0.268503	0.677709
H311	H	1.376468	0.601837	1.011043
H312	H	1.709801	0.935170	1.344376
H313	H	1.275658	0.829116	0.237006
H314	H	1.608992	1.162450	0.570339
H315	H	1.942325	1.495783	0.903673
F316	F	1.030617	0.275653	0.920303
F317	F	1.363950	0.608987	1.253637
F318	F	1.697283	0.942320	1.586970
H319	H	0.686804	0.164382	0.469397
H320	H	1.020137	0.497715	0.802731
H321	H	1.353471	0.831049	1.136064
H322	H	1.275602	0.688357	0.236983
H323	H	1.608936	1.021690	0.570316
H324	H	1.942269	1.355023	0.903649
F325	F	0.980385	0.835029	0.531852
F326	F	1.313718	1.168363	0.865185
F327	F	1.647051	1.501696	1.198519
H328	H	1.043167	0.268481	0.826441
H329	H	1.376501	0.601815	1.159775
H330	H	1.709834	0.935148	1.493108
H331	H	0.835522	0.164374	0.469390
H332	H	1.168856	0.497708	0.802723
H333	H	1.502189	0.831041	1.136056
F334	F	0.423714	0.157221	0.481999
F335	F	0.757048	0.490555	0.815333
F336	F	1.090381	0.823888	1.148666
H337	H	1.225476	0.959833	0.287153
H338	H	1.558809	1.293166	0.620487
H339	H	1.892143	1.626500	0.953820
F340	F	1.237783	0.381570	0.274556
F341	F	1.571116	0.714904	0.607889
F342	F	1.904450	1.048237	0.941222
H343	H	1.225280	0.472547	0.287113
H344	H	1.558614	0.805881	0.620446
H345	H	1.891947	1.139214	0.953780
H346	H	1.225514	0.164233	0.930646
H347	H	1.558848	0.497566	1.263979
H348	H	1.892181	0.830899	1.597312
F349	F	1.238069	1.050819	0.274629
F350	F	1.571403	1.384152	0.607962
F351	F	1.904736	1.717486	0.941295
H352	H	1.225491	0.164248	0.826517
H353	H	1.558825	0.497581	1.159850
H354	H	1.892158	0.830915	1.493184
F355	F	0.980331	0.694273	0.531860
F356	F	1.313664	1.027606	0.865193
F357	F	1.646997	1.360940	1.198526
F358	F	0.980294	0.597435	0.531845
F359	F	1.313628	0.930768	0.865178
F360	F	1.646961	1.264101	1.198511
F361	F	1.238036	0.157092	0.667555
F362	F	1.571369	0.490426	1.000889
F363	F	1.904703	0.823759	1.334222
