data_functionalizedCrystal
_audit_creation_method	'MofGen! by Chris Wilmer'
_symmetry_space_group_name_H-M	'P1'
_symmetry_Int_Tables_number	1
_symmetry_cell_setting	triclinic
loop_
_symmetry_equiv_pos_as_xyz
  x,y,z
_cell_length_a	12.827893
_cell_length_b	13.032721
_cell_length_c	12.827885
_cell_angle_alpha	97.149035
_cell_angle_beta	89.980728
_cell_angle_gamma	97.204267
loop_
_atom_site_label
_atom_site_type_symbol
_atom_site_fract_x
_atom_site_fract_y
_atom_site_fract_z
Zn1	Zn	1.544798	-0.415987	-0.643644
Zn2	Zn	1.522478	-0.590766	-0.491086
Zn3	Zn	1.370033	-0.416038	-0.468924
Zn4	Zn	1.347821	-0.590688	-0.665776
O5	O	1.446282	-0.503370	-0.567357
O6	O	1.688072	-0.439183	-0.623419
O7	O	1.502211	-0.567642	-0.341917
O8	O	1.411853	-0.269794	-0.473563
O9	O	1.671673	-0.567593	-0.511336
O10	O	1.540252	-0.269756	-0.601929
O11	O	1.390210	-0.439270	-0.325634
O12	O	1.220852	-0.439194	-0.495024
O13	O	1.373995	-0.567460	-0.809070
O14	O	1.204532	-0.567509	-0.639651
O15	O	1.518714	-0.439108	-0.792809
O16	O	1.480672	-0.736993	-0.532797
O17	O	1.352352	-0.736936	-0.661141
C18	C	1.174775	-0.503350	-0.567335
C19	C	1.058620	-0.503366	-0.567353
C20	C	0.998775	-0.566960	-0.638834
C21	C	0.878722	-0.566978	-0.638854
C22	C	1.411708	-0.774882	-0.601798
C23	C	1.397013	-0.891037	-0.616567
C24	C	1.454008	-0.942815	-0.559696
C25	C	1.438821	-1.062867	-0.574959
C26	C	1.718850	-0.503391	-0.567381
C27	C	1.835002	-0.503400	-0.567391
C28	C	1.446366	-0.503270	-0.839915
C29	C	1.446402	-0.503227	-0.956063
C30	C	1.481020	-0.230797	-0.532805
C31	C	1.495823	-0.114643	-0.518081
C32	C	1.518022	-0.439702	-0.999800
C33	C	1.518061	-0.439656	-1.119844
C34	C	1.446269	-0.503394	-0.295851
C35	C	1.446473	-0.503143	-0.179666
H36	H	1.036418	-0.621387	-0.700019
H37	H	1.579306	-0.385345	-0.948371
O38	O	1.325503	-0.944125	-0.688279
C39	C	1.270433	-0.977586	-0.870214
C40	C	1.351506	-0.917422	-0.789111
H41	H	1.291414	-0.956003	-0.951751
H42	H	1.270949	-1.064953	-0.869866
H43	H	1.188860	-0.956288	-0.849045
H44	H	1.433117	-0.938633	-0.810224
H45	H	1.350897	-0.830070	-0.789475
O46	O	1.591110	-0.374800	-1.164908
C47	C	1.657816	-0.315693	-1.325656
C48	C	1.575012	-0.389182	-1.274754
H49	H	1.644844	-0.327311	-1.414475
H50	H	1.650215	-0.231394	-1.293647
H51	H	1.739747	-0.334024	-1.306525
H52	H	1.493045	-0.370946	-1.293865
H53	H	1.582706	-0.473459	-1.306766
O54	O	0.896445	-0.438587	-0.494342
C55	C	1.021482	-0.424462	-0.351534
C56	C	0.951957	-0.497977	-0.434225
H57	H	1.066365	-0.472450	-0.302893
H58	H	1.079616	-0.369932	-0.392664
H59	H	0.969870	-0.376571	-0.297776
H60	H	1.003485	-0.545935	-0.488007
H61	H	0.893816	-0.552437	-0.393026
H62	H	1.514051	-0.898270	-0.499712
H63	H	0.827287	-0.621426	-0.700049
H64	H	1.020978	-0.448931	-0.506175
O65	O	1.373457	-0.568084	-1.134663
C66	C	1.341512	-0.709149	-1.029233
C67	C	1.424310	-0.635654	-1.080133
H68	H	1.382594	-0.763813	-0.985152
H69	H	1.293032	-0.661197	-0.971976
H70	H	1.287599	-0.756896	-1.092961
H71	H	1.478293	-0.587891	-1.016478
H72	H	1.472713	-0.683665	-1.137413
O73	O	1.367203	-1.116159	-0.646455
C74	C	1.286849	-1.284405	-0.726929
C75	C	1.367971	-1.224182	-0.645909
H76	H	1.287459	-1.371752	-0.726530
H77	H	1.205238	-1.263174	-0.705822
H78	H	1.307848	-1.262863	-0.808478
H79	H	1.347070	-1.245691	-0.564332
H80	H	1.449560	-1.245418	-0.667107
O81	O	1.567377	-1.061353	-0.446520
C82	C	1.647827	-0.893109	-0.366136
C83	C	1.566743	-0.953329	-0.447196
H84	H	1.647357	-0.805762	-0.366670
H85	H	1.626830	-0.914509	-0.284534
H86	H	1.729385	-0.914486	-0.387246
H87	H	1.485157	-0.931985	-0.426183
H88	H	1.587831	-0.931925	-0.528774
O89	O	1.373149	-0.567962	-1.017347
C90	C	1.188972	-0.618681	-1.057323
C91	C	1.271823	-0.545285	-0.987864
H92	H	1.107030	-0.600388	-1.033497
H93	H	1.201942	-0.607085	-1.143220
H94	H	1.196613	-0.702968	-1.046625
H95	H	1.264231	-0.460970	-0.998471
H96	H	1.258827	-0.556971	-0.901993
