data_functionalizedCrystal
_audit_creation_method	'MofGen! by Chris Wilmer'
_symmetry_space_group_name_H-M	'P1'
_symmetry_Int_Tables_number	1
_symmetry_cell_setting	triclinic
loop_
_symmetry_equiv_pos_as_xyz
  x,y,z
_cell_length_a	13.897449
_cell_length_b	21.295411
_cell_length_c	13.897448
_cell_angle_alpha	89.984179
_cell_angle_beta	90.018519
_cell_angle_gamma	89.973954
loop_
_atom_site_label
_atom_site_type_symbol
_atom_site_fract_x
_atom_site_fract_y
_atom_site_fract_z
Zn1	Zn	1.474728	-0.355962	-0.384104
Zn2	Zn	1.474614	-0.250698	-0.545384
Zn3	Zn	1.313410	-0.250704	-0.384107
Zn4	Zn	1.313399	-0.355927	-0.545361
O5	O	1.394038	-0.303323	-0.464739
O6	O	1.609694	-0.342010	-0.405506
O7	O	1.453187	-0.162609	-0.524001
O8	O	1.334861	-0.264684	-0.249125
O9	O	1.609611	-0.264673	-0.523998
O10	O	1.453381	-0.342016	-0.249122
O11	O	1.334751	-0.162614	-0.405511
O12	O	1.178426	-0.264650	-0.405489
O13	O	1.334842	-0.444021	-0.523959
O14	O	1.178419	-0.341957	-0.523961
O15	O	1.453370	-0.444047	-0.405484
O16	O	1.453177	-0.264640	-0.680362
O17	O	1.334732	-0.341951	-0.680345
C18	C	1.143423	-0.303301	-0.464724
C19	C	1.036209	-0.303306	-0.464741
C20	C	0.949140	-0.303317	-0.464744
C21	C	0.839907	-0.303336	-0.464751
C22	C	1.394118	-0.467513	-0.464718
C23	C	1.394152	-0.537481	-0.464710
C24	C	1.455867	-0.570362	-0.403017
C25	C	1.455865	-0.636105	-0.402975
C26	C	1.394159	-0.668964	-0.464643
C27	C	1.332432	-0.636075	-0.526340
C28	C	1.332429	-0.570334	-0.526373
N29	N	1.386736	-0.772185	-0.549025
N30	N	1.386745	-0.834636	-0.548991
C31	C	1.394165	-0.867039	-0.464545
N32	N	1.401595	-0.834630	-0.380134
N33	N	1.401591	-0.772173	-0.380169
C34	C	1.394156	-0.740249	-0.464614
C35	C	1.455882	-0.971205	-0.402802
C36	C	1.455874	-1.036949	-0.402759
C37	C	1.332446	-1.036918	-0.526132
C38	C	1.332449	-0.971175	-0.526167
C39	C	1.394172	-0.938323	-0.464503
C40	C	1.645631	-0.303345	-0.464754
C41	C	1.752844	-0.303355	-0.464761
C42	C	1.393967	-0.303305	-0.715353
C43	C	1.394025	-0.303318	-0.822567
C44	C	1.394013	-0.139771	-0.464689
C45	C	1.394166	-0.069803	-0.464426
C46	C	1.394127	-0.303357	-1.018862
C47	C	1.394068	-0.303337	-0.909629
C48	C	1.394135	-0.303355	-0.213146
C49	C	1.394176	-0.303368	-0.105932
H50	H	1.506125	-0.543618	-0.352804
H51	H	1.282188	-0.662833	-0.576548
Cl52	Cl	1.254864	-0.929837	-0.603732
H53	H	1.282169	-0.543562	-0.576610
H54	H	1.506128	-1.063720	-0.352515
Cl55	Cl	1.533436	-0.677450	-0.325393
H56	H	1.506135	-0.944455	-0.352586
Cl57	Cl	1.254863	-1.078220	-0.603650
