data_functionalizedCrystal
_audit_creation_method	'MofGen! by Chris Wilmer'
_symmetry_space_group_name_H-M	'P1'
_symmetry_Int_Tables_number	1
_symmetry_cell_setting	triclinic
loop_
_symmetry_equiv_pos_as_xyz
  x,y,z
_cell_length_a	14.971506
_cell_length_b	11.792254
_cell_length_c	14.048226
_cell_angle_alpha	89.993407
_cell_angle_beta	89.993237
_cell_angle_gamma	83.910493
loop_
_atom_site_label
_atom_site_type_symbol
_atom_site_fract_x
_atom_site_fract_y
_atom_site_fract_z
O1	O	1.187534	0.148018	-0.079168
O2	O	1.687534	0.648018	0.420832
O3	O	0.927208	0.165706	-0.079168
O4	O	1.427208	0.665706	0.420832
O5	O	1.063683	-0.008348	-0.079161
O6	O	1.563683	0.491652	0.420839
O7	O	1.051060	0.322071	-0.079175
O8	O	1.551060	0.822071	0.420825
O9	O	1.063666	-0.008358	0.079160
O10	O	1.563666	0.491642	0.579160
O11	O	0.927191	0.165696	0.079153
O12	O	1.427191	0.665696	0.579153
O13	O	1.187518	0.148007	0.079154
O14	O	1.687518	0.648007	0.579154
Zn15	Zn	1.057352	0.156850	0.104290
Zn16	Zn	1.557352	0.656850	0.604290
Zn17	Zn	1.057374	0.156863	-0.104305
Zn18	Zn	1.557374	0.656863	0.395695
O19	O	1.051043	0.322061	0.079147
O20	O	1.551043	0.822061	0.579147
C21	C	0.893872	0.164906	-0.000008
C22	C	1.393872	0.664906	0.499992
C23	C	0.794566	0.162523	-0.000008
C24	C	1.294566	0.662523	0.499992
C25	C	1.062879	-0.050639	-0.000001
C26	C	1.562879	0.449361	0.499999
C27	C	1.060499	-0.176637	-0.000002
C28	C	1.560499	0.323363	0.499998
C29	C	0.356660	0.255683	-0.000021
C30	C	0.856660	0.755683	0.499979
C31	C	0.449970	0.257913	-0.000025
C32	C	0.949970	0.757913	0.499975
C33	C	0.506776	0.155649	-0.000017
C34	C	1.006776	0.655649	0.499983
C35	C	0.470269	0.051149	-0.000014
C36	C	0.970269	0.551149	0.499986
C37	C	0.376962	0.048920	-0.000017
C38	C	0.876962	0.548920	0.499983
C39	C	0.664751	0.055802	-0.000006
C40	C	1.164751	0.555802	0.499994
C41	C	0.758065	0.058031	-0.000002
C42	C	1.258065	0.558031	0.499998
C43	C	0.737759	0.264794	-0.000015
C44	C	1.237759	0.764794	0.499985
C45	C	0.644451	0.262566	-0.000018
C46	C	1.144451	0.762566	0.499982
C47	C	0.607951	0.158065	-0.000013
C48	C	1.107951	0.658065	0.499987
C49	C	1.058565	-0.278961	-0.000005
C50	C	1.558565	0.221039	0.499995
C51	C	1.056147	-0.407332	-0.000014
C52	C	1.556147	0.092668	0.499986
C53	C	1.220854	0.148808	-0.000009
C54	C	1.720854	0.648808	0.499991
C55	C	1.320159	0.151191	-0.000015
C56	C	1.820159	0.651191	0.499985
C57	C	1.051846	0.364352	-0.000016
C58	C	1.551846	0.864352	0.499984
C59	C	1.054227	0.490350	-0.000021
C60	C	1.554227	0.990350	0.499979
N61	N	1.057344	0.156840	0.246651
N62	N	1.557344	0.656840	0.746651
N63	N	1.057389	0.156864	-0.246666
N64	N	1.557389	0.656864	0.253334
C65	C	1.117794	0.079801	0.296472
C66	C	1.617794	0.579801	0.796472
C67	C	1.117800	0.079800	0.396130
C68	C	1.617800	0.579800	0.896130
C69	C	1.057359	0.156845	0.445964
C70	C	1.557359	0.656845	0.945964
C71	C	0.996903	0.233888	0.396136
C72	C	1.496903	0.733888	0.896136
C73	C	0.996893	0.233882	0.296480
C74	C	1.496893	0.733882	0.796480
C75	C	0.996928	0.233896	0.603851
C76	C	1.496928	0.733896	1.103851
C77	C	0.996939	0.233904	0.703513
C78	C	1.496939	0.733904	1.203513
C79	C	1.117835	0.079814	0.703500
C80	C	1.617835	0.579814	1.203500
C81	C	1.117826	0.079808	0.603844
C82	C	1.617826	0.579808	1.103844
C83	C	1.057370	0.156853	0.554023
C84	C	1.557370	0.656853	1.054023
H85	H	0.310414	0.338958	-0.000021
H86	H	0.810414	0.838958	0.499979
H87	H	0.947721	0.296640	0.744084
H88	H	1.447721	0.796640	1.244084
H89	H	0.347245	-0.036168	-0.000014
H90	H	0.847245	0.463832	0.499986
F91	F	1.182128	-0.002197	0.243444
F92	F	1.682128	0.497803	0.743444
F93	F	0.932581	0.315894	0.550831
F94	F	1.432581	0.815894	1.050831
H95	H	0.516529	-0.032115	-0.000013
H96	H	1.016529	0.467885	0.499987
H97	H	0.767482	0.349883	-0.000018
H98	H	1.267482	0.849883	0.499982
F99	F	1.182136	-0.002195	0.449153
F100	F	1.682136	0.497805	0.949153
H101	H	0.804315	-0.025241	-0.000003
H102	H	1.304315	0.474759	0.499997
F103	F	0.932551	0.315875	0.243458
F104	F	1.432551	0.815875	0.743458
F105	F	0.932572	0.315881	0.449175
F106	F	1.432572	0.815881	0.949175
F107	F	1.182157	-0.002184	0.550806
F108	F	1.682157	0.497816	1.050806
H109	H	1.167060	0.017082	0.744070
H110	H	1.667060	0.517082	1.244070
H111	H	0.479684	0.343000	-0.000039
H112	H	0.979684	0.843000	0.499961
H113	H	0.598201	0.345838	-0.000018
H114	H	1.098201	0.845838	0.499982
H115	H	0.635036	-0.029293	-0.000007
H116	H	1.135036	0.470707	0.499993
