data_functionalizedCrystal
_audit_creation_method	'MofGen! by Chris Wilmer'
_symmetry_space_group_name_H-M	'P1'
_symmetry_Int_Tables_number	1
_symmetry_cell_setting	triclinic
loop_
_symmetry_equiv_pos_as_xyz
  x,y,z
_cell_length_a	19.188930
_cell_length_b	19.188940
_cell_length_c	10.868271
_cell_angle_alpha	90.005572
_cell_angle_beta	90.018197
_cell_angle_gamma	83.146747
loop_
_atom_site_label
_atom_site_type_symbol
_atom_site_fract_x
_atom_site_fract_y
_atom_site_fract_z
O1	O	-0.926148	-0.087168	-0.102719
O2	O	-0.722837	-0.098902	-0.102635
O3	O	-0.830356	0.008620	-0.102670
O4	O	-0.818629	-0.194690	-0.102684
O5	O	-0.830347	0.008625	0.101975
O6	O	-0.722828	-0.098898	0.102010
O7	O	-0.926139	-0.087164	0.101926
Zn8	Zn	-0.824482	-0.093030	0.134460
Zn9	Zn	-0.824494	-0.093035	-0.135169
O10	O	-0.818620	-0.194686	0.101961
C11	C	-0.696821	-0.098520	-0.000302
C12	C	-0.619317	-0.097379	-0.000269
C13	C	-0.829970	0.034633	-0.000348
C14	C	-0.828827	0.112138	-0.000348
C15	C	-0.952154	-0.087546	-0.000410
C16	C	-1.029659	-0.088686	-0.000451
C17	C	-0.574395	-0.160470	-0.000293
C18	C	-0.501571	-0.159398	-0.000306
C19	C	-0.473672	-0.095232	-0.000321
C20	C	-0.518604	-0.032133	-0.000290
C21	C	-0.591426	-0.033207	-0.000264
N22	N	-0.365693	-0.046187	-0.070016
N23	N	-0.296515	-0.045171	-0.070044
C24	C	-0.254264	-0.091994	-0.000396
N25	N	-0.283803	-0.139881	0.069265
N26	N	-0.352988	-0.140899	0.069286
C27	C	-0.394710	-0.094061	-0.000348
C28	C	-0.130377	-0.153927	-0.000432
C29	C	-0.057553	-0.152853	-0.000438
C30	C	-0.074587	-0.025586	-0.000434
C31	C	-0.147410	-0.026662	-0.000416
C32	C	-0.175301	-0.090835	-0.000421
C33	C	-0.819005	-0.220699	-0.000364
C34	C	-0.820148	-0.298203	-0.000372
C35	C	-0.820688	0.665399	0.111178
C36	C	-0.821754	0.592575	0.111185
C37	C	-0.822296	0.556153	-0.000366
C38	C	-0.821753	0.592559	-0.111931
C39	C	-0.820679	0.665381	-0.111934
N40	N	-0.863716	0.447127	-0.083412
N41	N	-0.864737	0.377949	-0.083402
C42	C	-0.825530	0.336744	-0.000363
N43	N	-0.785271	0.367330	0.082684
N44	N	-0.784252	0.436515	0.082677
C45	C	-0.823460	0.477189	-0.000375
C46	C	-0.827224	0.221381	0.111202
C47	C	-0.828287	0.148554	0.111204
C48	C	-0.828292	0.148541	-0.111915
C49	C	-0.827223	0.221365	-0.111914
C50	C	-0.826692	0.257781	-0.000351
N51	N	-0.824479	-0.093026	0.318474
N52	N	-0.824502	-0.093034	-0.319183
C53	C	-0.824490	-0.093034	0.569480
C54	C	-0.824482	-0.093031	0.429802
H55	H	-0.597098	-0.212724	-0.000299
F56	F	-0.453753	-0.226550	-0.000328
F57	F	-0.009743	-0.220006	-0.000457
F58	F	-0.160063	-0.222224	-0.000428
F59	F	-0.044900	0.042704	-0.000438
F60	F	-0.822334	0.553830	0.229917
F61	F	-0.195221	0.040488	-0.000397
F62	F	-0.826654	0.260105	-0.230643
H63	H	-0.820255	0.695044	0.202021
F64	F	-0.488911	0.036156	-0.000300
H65	H	-0.822191	0.562899	-0.202756
F66	F	-0.820105	0.704120	-0.230667
F67	F	-0.826657	0.260139	0.229934
H68	H	-0.828724	0.118920	0.202046
F69	F	-0.828846	0.109780	-0.230637
H70	H	-0.628002	0.018171	-0.000246
