data_functionalizedCrystal
_audit_creation_method	'MofGen! by Chris Wilmer'
_symmetry_space_group_name_H-M	'P1'
_symmetry_Int_Tables_number	1
_symmetry_cell_setting	triclinic
loop_
_symmetry_equiv_pos_as_xyz
  x,y,z
_cell_length_a	12.827893
_cell_length_b	25.639240
_cell_length_c	12.827885
_cell_angle_alpha	90.038240
_cell_angle_beta	89.980918
_cell_angle_gamma	89.956676
loop_
_atom_site_label
_atom_site_type_symbol
_atom_site_fract_x
_atom_site_fract_y
_atom_site_fract_z
Zn1	Zn	1.597468	0.208122	-0.590783
Zn2	Zn	1.597277	0.295568	-0.416018
Zn3	Zn	1.422709	0.208148	-0.416058
Zn4	Zn	1.422610	0.295529	-0.590719
O5	O	1.510016	0.251842	-0.503395
O6	O	1.743679	0.219727	-0.567611
O7	O	1.574082	0.283998	-0.269787
O8	O	1.446013	0.134980	-0.439279
O9	O	1.743539	0.283973	-0.439212
O10	O	1.574407	0.134960	-0.567649
O11	O	1.445828	0.219772	-0.269816
O12	O	1.276460	0.219734	-0.439216
O13	O	1.445843	0.283907	-0.736964
O14	O	1.276387	0.283932	-0.567539
O15	O	1.574311	0.219690	-0.737011
O16	O	1.573986	0.368728	-0.439149
O17	O	1.445659	0.368699	-0.567501
C18	C	1.238506	0.251832	-0.503376
C19	C	1.122353	0.251841	-0.503392
C20	C	1.509819	0.387684	-0.503337
C21	C	1.509831	0.445798	-0.503347
C22	C	1.070577	0.220031	-0.440006
C23	C	0.950527	0.220039	-0.440022
C24	C	1.576924	0.806164	-0.436636
C25	C	1.576956	0.860768	-0.436646
O26	O	1.633862	0.889007	-0.379893
N27	N	1.510100	0.888081	-0.503418
C28	C	1.443216	0.860786	-0.570192
O29	O	1.386354	0.889032	-0.626988
C30	C	1.443190	0.806183	-0.570186
C31	C	1.510043	0.778873	-0.503402
C32	C	1.643772	0.778854	-0.369858
C33	C	1.643738	0.724253	-0.369847
C34	C	1.576857	0.696963	-0.436613
C35	C	1.510009	0.724273	-0.503391
C36	C	1.376312	0.778890	-0.636965
C37	C	1.376292	0.724283	-0.636954
C38	C	1.443145	0.696973	-0.570170
C39	C	1.443094	0.642382	-0.570147
N40	N	1.509949	0.615069	-0.503374
C41	C	1.576831	0.642359	-0.436608
C42	C	1.443277	0.975457	-0.570200
C43	C	1.443297	1.030059	-0.570201
C44	C	1.577038	1.030037	-0.436656
C45	C	1.577012	0.975434	-0.436650
C46	C	1.510132	0.948144	-0.503428
C47	C	1.576755	0.527694	-0.436589
C48	C	1.576712	0.473089	-0.436581
C49	C	1.442975	0.473116	-0.570129
C50	C	1.443013	0.527716	-0.570134
C51	C	1.509911	0.555004	-0.503360
O52	O	1.386220	0.614108	-0.626874
O53	O	1.633693	0.614107	-0.379831
C54	C	1.782586	0.251852	-0.503414
C55	C	1.898739	0.251856	-0.503423
C56	C	1.510087	0.251791	-0.775965
C57	C	1.510118	0.251770	-0.892118
C58	C	1.510203	1.115469	-0.503457
C59	C	1.510183	1.057355	-0.503437
C60	C	1.573589	0.283538	-0.943889
C61	C	1.573622	0.283516	-1.063939
C62	C	1.510005	0.251854	-0.231885
C63	C	1.510178	0.251729	-0.115732
H64	H	0.906000	0.192804	-0.385760
O65	O	1.638293	0.315989	-0.890585
C66	C	1.623869	0.308779	-0.782587
H67	H	1.543233	0.291649	-0.767790
H68	H	1.630843	0.347931	-0.741006
H69	H	1.685864	0.280930	-0.751633
H70	H	1.077804	0.279081	-0.557668
O71	O	1.641756	0.446641	-0.371672
C72	C	1.700775	0.482442	-0.312731
H73	H	1.704390	0.521346	-0.355549
H74	H	1.783109	0.466628	-0.301651
H75	H	1.662554	0.488302	-0.233332
O76	O	1.708918	0.805284	-0.305046
C77	C	1.813031	0.791863	-0.328024
H78	H	1.815097	0.752211	-0.368234
H79	H	1.859942	0.789964	-0.252657
H80	H	1.848244	0.822559	-0.381761
H81	H	0.943259	0.279088	-0.557697
H82	H	1.627961	0.310715	-1.108461
H83	H	1.631501	1.052267	-0.382294
O84	O	1.641598	0.554259	-0.371687
C85	C	1.582173	0.585895	-0.304122
H86	H	1.502959	0.594106	-0.340899
H87	H	1.624778	0.624274	-0.290173
H88	H	1.570730	0.564890	-0.226661
H89	H	1.631450	0.953201	-0.382270
H90	H	1.115126	0.192794	-0.385724
O91	O	1.445201	0.219377	-0.945305
C92	C	1.377750	0.249160	-1.008438
H93	H	1.371193	0.290330	-0.975456
H94	H	1.297359	0.230250	-1.009788
H95	H	1.410153	0.250983	-1.091119
O96	O	1.378315	1.056504	-0.635165
C97	C	1.319262	1.020701	-0.694067
H98	H	1.362046	0.981756	-0.697708
H99	H	1.308075	1.036448	-0.776399
H100	H	1.239914	1.014949	-0.655725
H101	H	1.698178	0.702021	-0.315469
H102	H	1.321868	0.801116	-0.691343
O103	O	1.445393	0.219206	-1.062749
C104	C	1.468318	0.167079	-1.089355
H105	H	1.508444	0.165945	-1.168631
H106	H	1.392934	0.143630	-1.092990
H107	H	1.522110	0.149510	-1.027960
H108	H	1.388807	0.953241	-0.624575
O109	O	1.311227	0.697855	-0.701860
C110	C	1.252256	0.733674	-0.760821
H111	H	1.248680	0.772613	-0.718016
H112	H	1.169906	0.717937	-0.771907
H113	H	1.290495	0.739433	-0.840217
H114	H	1.388580	0.549953	-0.624518
H115	H	1.388517	0.450887	-0.624487
