data_functionalizedCrystal
_audit_creation_method	'MofGen! by Chris Wilmer'
_symmetry_space_group_name_H-M	'P1'
_symmetry_Int_Tables_number	1
_symmetry_cell_setting	triclinic
loop_
_symmetry_equiv_pos_as_xyz
  x,y,z
_cell_length_a	16.109301
_cell_length_b	16.109304
_cell_length_c	15.186229
_cell_angle_alpha	89.999066
_cell_angle_beta	89.999362
_cell_angle_gamma	83.462059
loop_
_atom_site_label
_atom_site_type_symbol
_atom_site_fract_x
_atom_site_fract_y
_atom_site_fract_z
O1	O	1.103132	0.106866	-0.073167
O2	O	0.861070	0.120165	-0.073181
O3	O	0.988749	-0.007515	-0.073174
O4	O	0.975452	0.234546	-0.073174
O5	O	0.988741	-0.007517	0.073283
O6	O	0.861061	0.120163	0.073277
O7	O	1.103123	0.106864	0.073290
Zn8	Zn	0.982091	0.113513	0.096537
Zn9	Zn	0.982102	0.113516	-0.096427
O10	O	0.975444	0.234545	0.073283
C11	C	0.830091	0.119626	0.000046
C12	C	0.737795	0.118010	0.000041
C13	C	0.988206	-0.038491	0.000052
C14	C	0.986590	-0.130786	0.000046
C15	C	0.515524	0.190018	0.000051
C16	C	0.428803	0.188494	0.000057
C17	C	0.448676	0.037005	0.000053
C18	C	0.535395	0.038530	0.000054
C19	C	0.568816	0.115039	0.000048
C20	C	0.395377	0.111990	0.000053
C21	C	0.301351	0.110337	0.000059
C22	C	0.662848	0.116693	0.000044
C23	C	0.982861	-0.343123	-0.079784
C24	C	0.981335	-0.429843	-0.079784
C25	C	0.981330	-0.429842	0.079892
C26	C	0.982850	-0.343122	0.079890
C27	C	0.983620	-0.299766	0.000050
C28	C	0.980573	-0.473205	0.000052
C29	C	0.978919	-0.567231	0.000053
C30	C	0.985273	-0.205734	0.000048
C31	C	1.134102	0.107404	0.000061
C32	C	1.226398	0.109019	0.000061
C33	C	0.975987	0.265520	0.000055
C34	C	0.977603	0.357816	0.000055
N35	N	0.982089	0.113511	0.228229
N36	N	0.982110	0.113511	-0.228120
C37	C	1.038645	0.056993	0.453955
C38	C	1.038648	0.056991	0.546145
C39	C	0.925549	0.170032	0.546148
C40	C	0.925543	0.170029	0.453960
C41	C	0.982096	0.113511	0.407866
C42	C	0.982104	0.113512	0.592243
C43	C	0.982107	0.113510	0.692200
C44	C	0.982092	0.113511	0.307903
H45	H	0.542732	0.252316	0.000053
O46	O	0.980628	-0.472095	0.157367
C47	C	0.979108	-0.557931	0.140251
H48	H	1.005203	-0.573223	0.071637
H49	H	1.018875	-0.596177	0.191237
H50	H	0.912018	-0.573804	0.144041
O51	O	0.983621	-0.301133	0.157525
C52	C	0.982601	-0.357992	0.227995
H53	H	1.007827	-0.423259	0.204597
H54	H	1.023376	-0.338221	0.283832
H55	H	0.915778	-0.358475	0.252540
H56	H	1.084693	0.010972	0.416427
H57	H	0.879506	0.216049	0.583687
O58	O	0.377154	0.261406	0.000018
C59	C	0.425252	0.329256	0.000037
H60	H	0.489981	0.308137	-0.027693
H61	H	0.393248	0.381791	-0.042483
H62	H	0.431422	0.352707	0.070299
O63	O	0.416070	-0.037239	0.000012
C64	C	0.328102	-0.022509	0.000032
H65	H	0.307719	0.042379	-0.027693
H66	H	0.301492	-0.071459	-0.042492
H67	H	0.303962	-0.026536	0.070294
O68	O	0.983622	-0.300878	-0.157259
C69	C	0.985096	-0.215035	-0.140146
H70	H	1.011628	-0.206637	-0.071543
H71	H	1.025993	-0.187359	-0.191149
H72	H	0.918862	-0.181696	-0.143909
H73	H	0.980715	-0.465140	-0.144792
O74	O	0.587051	-0.034386	0.000011
C75	C	0.538959	-0.102241	0.000030
H76	H	0.474230	-0.081127	-0.027699
H77	H	0.570969	-0.154772	-0.042491
H78	H	0.532791	-0.125695	0.070292
O79	O	1.093662	0.002061	0.590779
C80	C	1.143556	-0.047836	0.530323
H81	H	1.144481	-0.013747	0.464608
H82	H	1.209955	-0.060500	0.556954
H83	H	1.116581	-0.109607	0.520520
O84	O	0.870576	0.225015	0.409320
C85	C	0.820654	0.274891	0.469769
H86	H	0.854741	0.275846	0.535482
H87	H	0.807949	0.341282	0.443126
H88	H	0.758903	0.247877	0.479581
