data_functionalizedCrystal
_audit_creation_method	'MofGen! by Chris Wilmer'
_symmetry_space_group_name_H-M	'P1'
_symmetry_Int_Tables_number	1
_symmetry_cell_setting	triclinic
loop_
_symmetry_equiv_pos_as_xyz
  x,y,z
_cell_length_a	25.639239
_cell_length_b	12.645331
_cell_length_c	12.645323
_cell_angle_alpha	89.977324
_cell_angle_beta	90.031874
_cell_angle_gamma	89.962335
loop_
_atom_site_label
_atom_site_type_symbol
_atom_site_fract_x
_atom_site_fract_y
_atom_site_fract_z
Zn1	Zn	-0.208161	-1.620577	0.599395
Zn2	Zn	-0.295600	-1.620393	0.422113
Zn3	Zn	-0.208179	-1.443291	0.422139
Zn4	Zn	-0.295566	-1.443208	0.599328
O5	O	-0.251876	-1.531867	0.510744
O6	O	-0.219767	-1.768900	0.575895
O7	O	-0.284025	-1.596858	0.273769
O8	O	-0.135011	-1.466920	0.445691
O9	O	-0.284008	-1.768765	0.445647
O10	O	-0.134998	-1.597171	0.575920
O11	O	-0.219797	-1.466742	0.273788
O12	O	-0.219764	-1.294933	0.445627
O13	O	-0.283949	-1.466778	0.747685
O14	O	-0.283967	-1.294872	0.575807
O15	O	-0.219734	-1.597090	0.747733
O16	O	-0.368760	-1.596778	0.445582
O17	O	-0.368735	-1.466600	0.575782
C18	C	-0.251864	-1.256438	0.510713
C19	C	-0.251871	-1.138607	0.510725
C20	C	-0.387719	-1.531689	0.510695
C21	C	-0.445833	-1.531710	0.510710
C22	C	-0.251836	-1.531945	0.787249
C23	C	-0.251819	-1.531979	0.905079
C24	C	-0.806196	-1.599827	0.443064
C25	C	-0.860801	-1.599869	0.443079
O26	O	-0.889038	-1.657600	0.385511
N27	N	-0.888115	-1.532054	0.510814
C28	C	-0.860823	-1.464201	0.578547
O29	O	-0.889070	-1.406523	0.636163
C30	C	-0.806219	-1.464166	0.578538
C31	C	-0.778908	-1.531978	0.510790
C32	C	-0.778884	-1.667635	0.375323
C33	C	-0.724284	-1.667592	0.375308
C34	C	-0.696995	-1.599742	0.443034
C35	C	-0.724307	-1.531935	0.510775
C36	C	-0.778928	-1.396319	0.646275
C37	C	-0.724321	-1.396290	0.646260
C38	C	-0.697009	-1.464102	0.578513
C39	C	-0.642418	-1.464042	0.578485
N40	N	-0.615103	-1.531857	0.510750
C41	C	-0.642392	-1.599707	0.443024
C42	C	-0.975493	-1.464281	0.578564
C43	C	-1.030096	-1.464309	0.578569
C44	C	-1.030070	-1.599979	0.443101
C45	C	-0.975466	-1.599944	0.443092
C46	C	-0.948179	-1.532096	0.510828
C47	C	-0.527727	-1.599611	0.442997
C48	C	-0.473122	-1.599560	0.442984
C49	C	-0.473152	-1.463894	0.578455
C50	C	-0.527753	-1.463942	0.578464
C51	C	-0.555039	-1.531809	0.510731
O52	O	-0.614146	-1.406343	0.636027
O53	O	-0.614138	-1.657385	0.385428
C54	C	-0.115503	-1.532075	0.510816
C55	C	-0.057389	-1.532164	0.510846
C56	C	-0.251889	-1.808372	0.510775
C57	C	-0.251895	-1.926203	0.510788
C58	C	-0.211295	-0.971047	0.429281
C59	C	-0.211400	-1.093606	0.428922
C60	C	-0.306949	-1.094046	0.480197
C61	C	-0.306727	-0.971448	0.479641
C62	C	-0.237893	-0.971468	0.623013
C63	C	-0.236663	-1.094075	0.622389
C64	C	-0.251879	-1.531850	0.235314
C65	C	-0.251749	-1.532023	0.117485
C66	C	-0.292026	-1.449747	1.072613
C67	C	-0.292225	-1.449962	0.950053
C68	C	-0.266773	-1.643667	0.949595
C69	C	-0.267025	-1.643216	1.072194
C70	C	-0.196432	-1.503578	1.072291
C71	C	-0.196764	-1.501086	0.949684
H72	H	-0.450886	-1.654780	0.387812
H73	H	-0.338001	-0.941780	0.536418
N74	N	-0.319777	-1.676167	0.908949
H75	H	-0.316493	-1.743990	0.867319
H76	H	-0.334150	-1.618651	0.861752
N77	N	-0.178372	-1.397580	1.113224
H78	H	-0.205870	-1.366923	1.161486
H79	H	-0.172405	-1.348076	1.051721
N80	N	-1.059506	-1.673175	0.370060
H81	H	-1.050040	-1.656750	0.294296
H82	H	-1.098231	-1.662874	0.380443
H83	H	-0.220447	-0.940192	0.346607
H84	H	-0.166423	-1.563505	1.101312
N85	N	-0.223654	-1.132392	0.318766
H86	H	-0.229013	-1.069848	0.270253
H87	H	-0.256443	-1.176575	0.320505
H88	H	-0.332779	-1.468338	1.103422
N89	N	-0.322951	-1.134611	0.372682
H90	H	-0.356404	-1.176227	0.379231
H91	H	-0.294577	-1.181803	0.343651
H92	H	-0.198432	-0.940601	0.650774
N93	N	-1.059546	-1.391151	0.651626
H94	H	-1.050007	-1.407567	0.727382
H95	H	-1.098270	-1.401493	0.641279
H96	H	-0.238364	-1.706611	0.920467
H97	H	-0.170558	-1.123737	0.448058
H98	H	-0.196132	-1.123209	0.645409
N99	N	-0.694831	-1.740751	0.302255
H100	H	-0.672212	-1.697698	0.253071
H101	H	-0.720445	-1.783722	0.259437
H102	H	-0.185486	-1.418894	0.920588
H103	H	-0.282867	-1.367140	0.919953
H104	H	-0.165168	-1.556637	0.919071
N105	N	-0.946063	-1.391088	0.651618
H106	H	-0.971656	-1.348136	0.694523
H107	H	-0.923447	-1.342035	0.608416
H108	H	-0.801156	-1.341094	0.701438
H109	H	-0.801097	-1.722892	0.320173
N110	N	-0.346545	-1.474874	0.911228
H111	H	-0.345691	-1.541377	0.867052
H112	H	-0.359868	-1.414119	0.866914
H113	H	-0.338007	-1.123193	0.537699
H114	H	-0.953232	-1.655163	0.387927
N115	N	-0.557152	-1.672809	0.369945
H116	H	-0.531558	-1.715751	0.327033
H117	H	-0.579845	-1.629703	0.320848
N118	N	-0.279745	-1.339704	1.111625
H119	H	-0.247955	-1.342112	1.158770
H120	H	-0.310430	-1.311416	1.152935
H121	H	-0.450925	-1.408649	0.633594
H122	H	-0.702106	-1.341041	0.701423
N123	N	-0.272974	-1.134646	0.707144
H124	H	-0.299919	-1.182681	0.674209
H125	H	-0.290991	-1.072963	0.742350
N126	N	-0.557214	-1.390793	0.651520
H127	H	-0.531639	-1.347802	0.694418
H128	H	-0.579828	-1.433939	0.700629
H129	H	-0.267464	-0.942468	0.683743
N130	N	-0.229863	-1.727181	1.111522
H131	H	-0.249576	-1.780274	1.155794
H132	H	-0.201737	-1.693118	1.155855
H133	H	-0.307463	-1.667331	1.100794
H134	H	-0.170330	-0.941613	0.448212
H135	H	-0.318601	-0.942793	0.397599
