data_functionalizedCrystal
_audit_creation_method	'MofGen! by Chris Wilmer'
_symmetry_space_group_name_H-M	'P1'
_symmetry_Int_Tables_number	1
_symmetry_cell_setting	triclinic
loop_
_symmetry_equiv_pos_as_xyz
  x,y,z
_cell_length_a	14.519709
_cell_length_b	13.339070
_cell_length_c	12.376457
_cell_angle_alpha	104.410245
_cell_angle_beta	101.296542
_cell_angle_gamma	80.345281
loop_
_atom_site_label
_atom_site_type_symbol
_atom_site_fract_x
_atom_site_fract_y
_atom_site_fract_z
O1	O	0.449827	-1.362507	-0.094056
O2	O	0.389115	-1.067869	-0.094048
O3	O	0.287221	-1.222998	-0.094042
O4	O	0.551721	-1.207378	-0.094062
O5	O	0.312650	-1.184229	0.093969
O6	O	0.414544	-1.029100	0.093963
O7	O	0.475256	-1.323739	0.093955
Zn8	Zn	0.448937	-1.170264	0.123810
Zn9	Zn	0.415434	-1.221343	-0.123903
O10	O	0.577150	-1.168610	0.093949
C11	C	0.265390	-1.202885	-0.000036
C12	C	0.162454	-1.200703	-0.000036
C13	C	0.391574	-1.010777	-0.000041
C14	C	0.361005	-0.898419	-0.000038
C15	C	0.472796	-1.380832	-0.000054
C16	C	0.503364	-1.493191	-0.000065
C17	C	-0.214489	-1.192677	-0.000065
C18	C	-0.109612	-1.194906	-0.000056
C19	C	-0.026021	-1.196690	-0.000049
C20	C	0.078862	-1.198919	-0.000043
C21	C	0.598980	-1.188723	-0.000059
C22	C	0.701915	-1.190906	-0.000067
N23	N	0.471804	-1.135411	0.292866
C24	C	0.598692	-0.534063	-0.000074
C25	C	0.627415	-0.639629	-0.000081
C26	C	0.560815	-0.704332	-0.000070
C27	C	0.465487	-0.663458	-0.000053
C28	C	0.436759	-0.557883	-0.000055
C29	C	0.398883	-0.728152	-0.000050
C30	C	0.303554	-0.687278	-0.000033
C31	C	0.274832	-0.581713	-0.000035
C32	C	0.341432	-0.517011	-0.000046
C33	C	0.427610	-0.833726	-0.000048
C34	C	0.265678	-0.857547	-0.000029
C35	C	0.236954	-0.751980	-0.000022
N36	N	0.392562	-1.256204	-0.292960
C37	C	0.339463	-1.337109	0.647859
C38	C	0.323457	-1.361497	0.529520
C39	C	0.360542	-1.304977	0.470351
C40	C	0.413636	-1.224066	0.529532
C41	C	0.429650	-1.199681	0.647883
C42	C	0.450729	-1.167550	0.470375
C43	C	0.503824	-1.086639	0.529556
C44	C	0.519834	-1.062257	0.647895
C45	C	0.482749	-1.118777	0.707064
C46	C	0.434715	-1.191935	0.352024
C47	C	0.524903	-1.054507	0.352048
C48	C	0.540909	-1.030119	0.470387
H49	H	0.505228	-0.866994	-0.000058
O50	O	0.134137	-0.707893	-0.000004
H51	H	0.106807	-0.676174	-0.076636
O52	O	0.193834	-0.927315	-0.000007
H53	H	0.229826	-1.007587	0.000007
H54	H	0.584207	-0.790288	-0.000078
H55	H	0.318049	-0.431049	-0.000040
O56	O	0.598191	-0.942865	0.534217
H57	H	0.554044	-0.882499	0.588161
H58	H	0.391486	-1.257813	0.303849
O59	O	0.564893	-0.993523	0.288247
H60	H	0.544825	-1.024060	0.196013
H61	H	0.652906	-0.481376	-0.000092
O62	O	0.577110	-0.974998	0.711723
H63	H	0.582023	-0.967545	0.803954
O64	O	0.299479	-1.398066	0.711681
H65	H	0.259873	-1.458429	0.650652
H66	H	0.705030	-0.672903	-0.000103
H67	H	0.197207	-0.548441	-0.000034
O68	O	0.343266	-1.331262	0.342714
H69	H	0.300106	-1.397009	0.311501
O70	O	0.266186	-1.448749	0.465688
H71	H	0.243078	-1.483947	0.526710
O72	O	0.500025	-1.092476	0.834706
H73	H	0.465320	-1.145375	0.865901
