data_functionalizedCrystal
_audit_creation_method	'MofGen! by Chris Wilmer'
_symmetry_space_group_name_H-M	'P1'
_symmetry_Int_Tables_number	1
_symmetry_cell_setting	triclinic
loop_
_symmetry_equiv_pos_as_xyz
  x,y,z
_cell_length_a	12.827893
_cell_length_b	12.759394
_cell_length_c	12.827893
_cell_angle_alpha	90.008891
_cell_angle_beta	90.003786
_cell_angle_gamma	90.014808
loop_
_atom_site_label
_atom_site_type_symbol
_atom_site_fract_x
_atom_site_fract_y
_atom_site_fract_z
Zn1	Zn	1.597514	-0.418448	0.590838
Zn2	Zn	2.097514	0.081552	1.090838
Zn3	Zn	1.597457	-0.594095	0.416094
Zn4	Zn	2.097457	-0.094095	0.916094
Zn5	Zn	1.422803	-0.418431	0.416112
Zn6	Zn	1.922803	0.081569	0.916112
Zn7	Zn	1.422742	-0.594085	0.590794
Zn8	Zn	1.922742	-0.094085	1.090794
O9	O	1.510129	-0.506265	0.503459
O10	O	2.010129	-0.006265	1.003459
O11	O	1.743742	-0.441759	0.567669
O12	O	2.243742	0.058241	1.067669
O13	O	1.574290	-0.570790	0.269860
O14	O	2.074290	-0.070790	0.769860
O15	O	1.446027	-0.271412	0.439315
O16	O	1.946027	0.228588	0.939315
O17	O	1.743700	-0.570807	0.439285
O18	O	2.243700	-0.070807	0.939285
O19	O	1.574387	-0.271425	0.567686
O20	O	2.074387	0.228575	1.067686
O21	O	1.445972	-0.441730	0.269873
O22	O	1.945972	0.058270	0.769873
O23	O	1.276559	-0.441720	0.439272
O24	O	1.776559	0.058280	0.939272
O25	O	1.445925	-0.570790	0.737035
O26	O	1.945925	-0.070790	1.237035
O27	O	1.276514	-0.570773	0.567611
O28	O	1.776514	-0.070773	1.067611
O29	O	1.574329	-0.441750	0.737068
O30	O	2.074329	0.058250	1.237068
O31	O	1.574232	-0.741115	0.439242
O32	O	2.074232	-0.241115	0.939242
O33	O	1.445869	-0.741108	0.567593
O34	O	1.945869	-0.241108	1.067593
C35	C	1.238619	-0.506245	0.503439
C36	C	1.738619	-0.006245	1.003439
C37	C	1.122466	-0.506261	0.503456
C38	C	1.622466	-0.006261	1.003456
C39	C	1.070687	-0.570220	0.566863
C40	C	1.570687	-0.070220	1.066863
C41	C	0.950637	-0.570239	0.566882
C42	C	1.450637	-0.070239	1.066882
C43	C	1.510066	-0.779232	0.503434
C44	C	2.010066	-0.279232	1.003434
C45	C	1.510135	-0.896009	0.503458
C46	C	2.010135	-0.396009	1.003458
C47	C	1.643899	-0.895963	0.369906
C48	C	2.143899	-0.395963	0.869906
C49	C	1.710808	-0.950801	0.303142
C50	C	2.210808	-0.450801	0.803142
C51	C	1.710869	-1.060523	0.303171
C52	C	2.210869	-0.560523	0.803171
C53	C	1.644016	-1.115409	0.369972
C54	C	2.144016	-0.615409	0.869972
C55	C	1.577107	-1.060571	0.436736
C56	C	2.077107	-0.560571	0.936736
C57	C	1.577051	-0.950847	0.436698
C58	C	2.077051	-0.450847	0.936698
C59	C	1.443350	-1.060617	0.570292
C60	C	1.943350	-0.560617	1.070292
C61	C	1.443282	-0.950895	0.570260
C62	C	1.943282	-0.450895	1.070260
C63	C	1.376497	-1.115503	0.637093
C64	C	1.876497	-0.615503	1.137093
C65	C	1.309581	-1.060665	0.703853
C66	C	1.809581	-0.560665	1.203853
C67	C	1.309522	-0.950937	0.703821
C68	C	1.809522	-0.450937	1.203821
C69	C	1.376373	-0.896057	0.637023
C70	C	1.876373	-0.396057	1.137023
C71	C	1.782699	-0.506286	0.503480
C72	C	2.282699	-0.006286	1.003480
C73	C	1.898852	-0.506295	0.503489
C74	C	2.398852	-0.006295	1.003489
C75	C	1.510126	-0.506271	0.776029
C76	C	2.010126	-0.006271	1.276029
C77	C	1.510125	-0.506273	0.892182
C78	C	2.010125	-0.006273	1.392182
C79	C	1.510220	-0.232231	0.503507
C80	C	2.010220	0.267769	1.003507
C81	C	1.510259	-0.115455	0.503528
C82	C	2.010259	0.384545	1.003528
C83	C	1.573614	-0.570131	0.943961
C84	C	2.073614	-0.070131	1.443961
C85	C	1.573614	-0.570135	1.064011
C86	C	2.073614	-0.070135	1.564011
C87	C	1.510124	-0.506282	1.231949
C88	C	2.010124	-0.006282	1.731949
C89	C	1.510125	-0.506280	1.115796
C90	C	2.010125	-0.006280	1.615796
H91	H	1.643842	-0.806622	0.369863
H92	H	2.143842	-0.306622	0.869863
O93	O	1.775689	-0.897598	0.238105
O94	O	2.275689	-0.397598	0.738105
C95	C	1.752917	-0.924456	0.133943
C96	C	2.252917	-0.424456	0.633943
H97	H	1.712793	-1.004157	0.131772
H98	H	2.212793	-0.504157	0.631772
H99	H	1.828369	-0.928167	0.087139
H100	H	2.328369	-0.428167	0.587139
H101	H	1.699177	-0.862765	0.098688
H102	H	2.199177	-0.362765	0.598688
H103	H	1.627968	-0.624807	1.108539
H104	H	2.127968	-0.124807	1.608539
H105	H	1.765357	-1.105171	0.248811
H106	H	2.265357	-0.605171	0.748811
H107	H	1.644081	-1.204750	0.369998
H108	H	2.144081	-0.704750	0.869998
H109	H	1.455764	-0.451610	1.071275
H110	H	1.955764	0.048390	1.571275
O111	O	1.376750	-1.222086	0.637127
O112	O	1.876750	-0.722086	1.137127
C113	C	1.476898	-1.258652	0.664074
C114	C	1.976898	-0.758652	1.164074
H115	H	1.537070	-1.195381	0.646249
H116	H	2.037070	-0.695381	1.146249
H117	H	1.495545	-1.332063	0.616972
H118	H	1.995545	-0.832063	1.116972
H119	H	1.479064	-1.278082	0.750790
H120	H	1.979064	-0.778082	1.250790
H121	H	1.255160	-1.105362	0.758242
H122	H	1.755160	-0.605362	1.258242
H123	H	1.255041	-0.906294	0.758192
H124	H	1.755041	-0.406294	1.258192
H125	H	1.376324	-0.806716	0.636984
H126	H	1.876324	-0.306716	1.136984
O127	O	1.638364	-0.635318	0.890665
O128	O	2.138364	-0.135318	1.390665
C129	C	1.623962	-0.620789	0.782665
C130	C	2.123962	-0.120789	1.282665
H131	H	1.543314	-0.586359	0.767864
H132	H	2.043314	-0.086359	1.267864
H133	H	1.630987	-0.699445	0.741094
H134	H	2.130987	-0.199445	1.241094
H135	H	1.685939	-0.564815	0.751705
H136	H	2.185939	-0.064815	1.251705
H137	H	1.455775	-0.451601	0.936730
H138	H	1.955775	0.048399	1.436730
O139	O	0.897362	-0.635469	0.631615
O140	O	1.397362	-0.135469	1.131615
C141	C	0.789359	-0.620979	0.617209
C142	C	1.289359	-0.120979	1.117209
H143	H	0.774557	-0.539835	0.583111
H144	H	1.274557	-0.039835	1.083111
H145	H	0.747819	-0.628198	0.695441
H146	H	1.247819	-0.128198	1.195441
H147	H	0.758365	-0.683187	0.561429
H148	H	1.258365	-0.183187	1.061429
H149	H	1.115234	-0.624960	0.621139
H150	H	1.615234	-0.124960	1.121139
H151	H	1.077919	-0.451513	0.449188
H152	H	1.577919	0.048487	0.949188
O153	O	0.952075	-0.441110	0.438667
O154	O	1.452075	0.058890	0.938667
C155	C	1.015168	-0.500869	0.371099
C156	C	1.515168	-0.000869	0.871099
H157	H	1.031410	-0.580560	0.407831
H158	H	1.531410	-0.080560	0.907831
H159	H	1.091966	-0.458114	0.357225
H160	H	1.591966	0.041886	0.857225
H161	H	0.973148	-0.512257	0.293606
H162	H	1.473148	-0.012257	0.793606
