data_functionalizedCrystal
_audit_creation_method	'MofGen! by Chris Wilmer'
_symmetry_space_group_name_H-M	'P1'
_symmetry_Int_Tables_number	1
_symmetry_cell_setting	triclinic
loop_
_symmetry_equiv_pos_as_xyz
  x,y,z
_cell_length_a	10.489741
_cell_length_b	10.489741
_cell_length_c	12.996460
_cell_angle_alpha	89.994152
_cell_angle_beta	89.997126
_cell_angle_gamma	84.539174
loop_
_atom_site_label
_atom_site_type_symbol
_atom_site_fract_x
_atom_site_fract_y
_atom_site_fract_z
O1	O	1.694055	0.179970	-0.085503
O2	O	2.194055	0.679970	0.414497
O3	O	1.322860	0.196863	-0.085519
O4	O	1.822860	0.696863	0.414481
O5	O	1.516904	0.002819	-0.085504
O6	O	2.016904	0.502819	0.414496
O7	O	1.500011	0.374015	-0.085517
O8	O	2.000011	0.874015	0.414483
O9	O	1.516884	0.002808	0.085630
O10	O	2.016884	0.502808	0.585630
O11	O	1.322839	0.196852	0.085615
O12	O	1.822839	0.696852	0.585615
O13	O	1.694035	0.179959	0.085631
O14	O	2.194035	0.679959	0.585631
Cu15	Cu	1.508435	0.188405	0.101249
Cu16	Cu	2.008435	0.688405	0.601249
Cu17	Cu	1.508459	0.188418	-0.101136
Cu18	Cu	2.008459	0.688418	0.398864
O19	O	1.499991	0.374004	0.085617
O20	O	1.999991	0.874004	0.585617
C21	C	1.275318	0.195582	0.000046
C22	C	1.775318	0.695582	0.500046
C23	C	1.133688	0.191765	0.000040
C24	C	1.633688	0.691765	0.500040
C25	C	1.065548	0.068300	0.000054
C26	C	1.565548	0.568300	0.500054
C27	C	0.973432	0.126629	-0.084323
C28	C	1.473432	0.626629	0.415677
C29	C	0.973445	0.126647	0.084401
C30	C	1.473445	0.626647	0.584401
C31	C	1.043437	0.250144	-0.084407
C32	C	1.543437	0.750144	0.415593
C33	C	1.043460	0.250146	0.084393
C34	C	1.543460	0.750146	0.584393
C35	C	0.951371	0.308564	-0.000005
C36	C	1.451371	0.808564	0.499995
C37	C	1.515618	-0.044718	0.000062
C38	C	2.015618	0.455282	0.500062
C39	C	1.511801	-0.186348	0.000060
C40	C	2.011801	0.313652	0.500060
C41	C	1.388336	-0.254488	0.000047
C42	C	1.888336	0.245512	0.500047
C43	C	1.446650	-0.346616	0.084428
C44	C	1.946650	0.153384	0.584428
C45	C	1.446699	-0.346580	-0.084297
C46	C	1.946699	0.153420	0.415703
C47	C	1.570165	-0.276610	0.084510
C48	C	2.070165	0.223390	0.584510
C49	C	1.570197	-0.276565	-0.084290
C50	C	2.070197	0.223435	0.415710
C51	C	1.628600	-0.368665	0.000111
C52	C	2.128600	0.131335	0.500111
C53	C	1.741577	0.181241	0.000064
C54	C	2.241577	0.681241	0.500064
C55	C	1.883206	0.185058	0.000063
C56	C	2.383206	0.685058	0.500063
C57	C	1.501277	0.421541	0.000048
C58	C	2.001277	0.921541	0.500048
C59	C	1.505094	0.563170	0.000043
C60	C	2.005094	1.063170	0.500043
N61	N	1.508428	0.188395	0.243596
N62	N	2.008428	0.688395	0.743596
N63	N	1.508477	0.188418	-0.243484
N64	N	2.008477	0.688418	0.256516
C65	C	1.508458	0.188419	0.663411
C66	C	2.008458	0.688419	1.163411
C67	C	1.508446	0.188417	0.546605
C68	C	2.008446	0.688417	1.046605
C69	C	1.508443	0.188408	0.453507
C70	C	2.008443	0.688408	0.953507
C71	C	1.508430	0.188404	0.336695
C72	C	2.008430	0.688404	0.836695
H73	H	1.074274	0.302349	-0.155823
H74	H	1.574274	0.802349	0.344177
H75	H	1.286824	-0.204837	0.000128
H76	H	1.786824	0.295163	0.500128
H77	H	0.901947	0.410168	-0.000055
H78	H	1.401947	0.910168	0.499945
Cl79	Cl	0.925607	0.045955	0.194539
Cl80	Cl	1.425607	0.545955	0.694539
H81	H	0.942426	0.074393	-0.155656
H82	H	1.442426	0.574393	0.344344
Cl83	Cl	1.365985	-0.394504	0.194561
Cl84	Cl	1.865985	0.105496	0.694561
H85	H	1.074498	0.302339	0.155730
H86	H	1.574498	0.802339	0.655730
Cl87	Cl	1.785465	-0.444978	0.000186
Cl88	Cl	2.285465	0.055022	0.500186
H89	H	1.622352	-0.245783	0.155927
H90	H	2.122352	0.254217	0.655927
H91	H	1.622402	-0.245515	-0.155627
H92	H	2.122402	0.254485	0.344373
H93	H	1.394451	-0.377539	-0.155641
H94	H	1.894451	0.122461	0.344359
H95	H	1.115238	-0.033196	-0.000048
H96	H	1.615238	0.466804	0.499952
