data_functionalizedCrystal
_audit_creation_method	'MofGen! by Chris Wilmer'
_symmetry_space_group_name_H-M	'P1'
_symmetry_Int_Tables_number	1
_symmetry_cell_setting	triclinic
loop_
_symmetry_equiv_pos_as_xyz
  x,y,z
_cell_length_a	17.638336
_cell_length_b	12.827892
_cell_length_c	12.827885
_cell_angle_alpha	90.029786
_cell_angle_beta	78.781769
_cell_angle_gamma	101.218681
loop_
_atom_site_label
_atom_site_type_symbol
_atom_site_fract_x
_atom_site_fract_y
_atom_site_fract_z
Zn1	Zn	1.208562	0.739548	-0.913435
Zn2	Zn	1.208482	0.914304	-0.738674
Zn3	Zn	1.076365	0.704207	-0.703423
Zn4	Zn	1.076354	0.878852	-0.878107
O5	O	1.142441	0.809228	-0.808410
O6	O	1.319172	0.792358	-0.919790
O7	O	1.190927	0.886481	-0.587754
O8	O	1.093939	0.562669	-0.731314
O9	O	1.319113	0.920750	-0.791394
O10	O	1.191064	0.588634	-0.885609
O11	O	1.093862	0.732123	-0.561855
O12	O	0.965743	0.697746	-0.697057
O13	O	1.093921	0.860327	-1.029037
O14	O	0.965735	0.826058	-0.825397
O15	O	1.191053	0.757981	-1.054992
O16	O	1.190916	1.055827	-0.757138
O17	O	1.093843	1.029781	-0.859578
C18	C	0.937056	0.754221	-0.753569
C19	C	0.849192	0.730714	-0.730133
C20	C	0.725332	0.630674	-0.630384
C21	C	0.807894	0.652770	-0.652414
C22	C	0.807937	0.786596	-0.785849
C23	C	0.725374	0.764515	-0.763826
C24	C	0.684078	0.686552	-0.686094
C25	C	0.684119	0.820393	-0.819536
C26	C	0.601563	0.798309	-0.797518
C27	C	0.560261	0.720348	-0.719792
C28	C	0.601521	0.664468	-0.664076
C29	C	0.725417	0.898351	-0.897273
C30	C	0.684162	0.954229	-0.952983
C31	C	0.601604	0.932151	-0.930961
C32	C	0.560302	0.854189	-0.853234
C33	C	0.560344	0.988030	-0.986676
C34	C	0.477788	0.965946	-0.964659
C35	C	0.477746	0.832105	-0.831217
C36	C	1.142391	1.080725	-0.808378
C37	C	1.142442	1.196891	-0.808419
C38	C	1.142494	0.809142	-1.080994
C39	C	1.142517	0.809105	-1.197154
C40	C	1.348627	0.864451	-0.863465
C41	C	1.436491	0.887983	-0.886926
C42	C	1.142512	0.536677	-0.808470
C43	C	1.142542	0.420532	-0.808496
C44	C	1.190535	1.261545	-0.757814
C45	C	1.190589	1.381610	-0.757854
C46	C	1.190587	0.758450	-1.261783
C47	C	1.190612	0.758411	-1.381840
C48	C	1.142433	0.809250	-0.536898
C49	C	1.142563	0.809034	-0.420780
H50	H	0.567895	0.600983	-0.600779
Br51	Br	0.669279	0.524885	-0.524869
H52	H	1.231672	1.228014	-0.714462
H53	H	1.231760	1.437161	-0.714526
H54	H	1.101409	0.852408	-1.365256
Br55	Br	1.073903	1.327953	-0.880703
Br56	Br	0.837459	0.928323	-0.927153
Br57	Br	1.259130	0.686174	-1.205871
H58	H	0.717797	1.017704	-1.016275
Br59	Br	1.259216	0.686135	-1.474391
H60	H	0.444197	1.011445	-1.010026
H61	H	0.593980	1.051500	-1.049973
H62	H	1.101377	0.852436	-1.230702
H63	H	0.444120	0.768620	-0.767919
H64	H	0.841572	0.850071	-0.849141
H65	H	0.841480	0.607252	-0.607052
Br66	Br	0.448218	0.690367	-0.689915
H67	H	1.101312	1.230427	-0.851779
