data_functionalizedCrystal
_audit_creation_method	'MofGen! by Chris Wilmer'
_symmetry_space_group_name_H-M	'P1'
_symmetry_Int_Tables_number	1
_symmetry_cell_setting	triclinic
loop_
_symmetry_equiv_pos_as_xyz
  x,y,z
_cell_length_a	12.837943
_cell_length_b	10.654550
_cell_length_c	11.892095
_cell_angle_alpha	93.928097
_cell_angle_beta	85.689438
_cell_angle_gamma	89.656922
loop_
_atom_site_label
_atom_site_type_symbol
_atom_site_fract_x
_atom_site_fract_y
_atom_site_fract_z
O1	O	1.384377	0.319511	-0.093978
O2	O	1.082456	0.303370	-0.093985
O3	O	1.240358	0.129459	-0.093977
O4	O	1.226475	0.493422	-0.093986
O5	O	1.227192	0.143935	0.094030
O6	O	1.069290	0.317845	0.094022
O7	O	1.371211	0.333987	0.094029
Zn8	Zn	1.218160	0.328214	0.123876
Zn9	Zn	1.235507	0.309142	-0.123831
O10	O	1.213309	0.507898	0.094021
C11	C	1.037213	0.305155	0.000018
C12	C	0.922020	0.288892	0.000015
C13	C	1.232756	0.089788	0.000025
C14	C	1.229706	-0.049989	0.000021
C15	C	0.682466	0.484397	0.000027
C16	C	0.574230	0.469123	0.000025
C17	C	0.597310	0.243071	0.000018
C18	C	0.705546	0.258345	0.000020
C19	C	0.748119	0.379012	0.000023
C20	C	0.856358	0.394285	0.000016
C21	C	0.879435	0.168234	0.000017
C22	C	0.771199	0.152960	0.000016
C23	C	1.322676	-0.119329	0.000027
C24	C	1.319805	-0.250664	0.000019
C25	C	1.130985	-0.243306	0.000004
C26	C	1.133858	-0.111974	0.000004
C27	C	1.418525	-0.057343	0.000044
C28	C	1.511502	-0.126683	0.000050
C29	C	1.508631	-0.258018	0.000042
C30	C	1.412782	-0.320013	0.000028
C31	C	1.416454	0.332202	0.000024
C32	C	1.531648	0.348464	0.000019
C33	C	1.220912	0.547569	0.000017
C34	C	1.223962	0.687345	0.000013
N35	N	1.206330	0.341231	0.292929
N36	N	1.247346	0.296117	-0.292885
C37	C	1.329670	0.205471	0.529583
C38	C	1.321408	0.214579	0.647925
C39	C	1.181539	0.368549	0.647956
C40	C	1.189801	0.359440	0.529614
C41	C	1.263870	0.277900	0.470432
C42	C	1.272137	0.268799	0.352089
C43	C	1.132263	0.422761	0.352122
C44	C	1.124001	0.431870	0.470463
H45	H	0.891019	0.492538	0.000020
C46	C	1.059879	0.502441	0.287059
H47	H	1.014591	0.552313	0.339259
H48	H	1.019589	0.448486	0.240898
H49	H	1.100810	0.555706	0.240893
H50	H	0.520778	0.554939	0.000032
C51	C	1.411144	0.115788	0.464480
H52	H	1.449148	0.073952	0.516658
H53	H	1.457875	0.162647	0.418303
H54	H	1.376664	0.055415	0.418326
C55	C	1.353612	0.179119	0.286984
H56	H	1.349119	0.184076	0.208032
H57	H	1.340393	0.095368	0.306377
H58	H	1.421598	0.202606	0.306369
C59	C	1.393791	0.134911	0.712987
H60	H	1.439089	0.085053	0.660788
H61	H	1.352872	0.081654	0.759163
H62	H	1.434086	0.188882	0.759139
C63	C	1.031596	-0.035690	0.000001
H64	H	1.047038	0.051403	-0.000008
H65	H	0.987738	-0.050651	0.065560
H66	H	0.996931	-0.060747	-0.065573
C67	C	1.100007	0.458150	0.713064
H68	H	1.061975	0.499956	0.660889
H69	H	1.134415	0.518535	0.759263
H70	H	1.053296	0.411203	0.759195
H71	H	1.063692	0.498255	0.518663
H72	H	0.717130	0.582649	0.000027
C73	C	1.025561	-0.311496	0.000002
H74	H	1.037165	-0.399643	0.000014
H75	H	0.991828	-0.293512	-0.065560
H76	H	0.982653	-0.283413	0.065573
C77	C	0.550465	0.110353	0.000028
H78	H	0.476601	0.116356	0.000026
H79	H	0.568357	0.071463	0.065589
H80	H	0.577526	0.061366	-0.065544
C81	C	0.724367	0.020235	0.000008
H82	H	0.778973	-0.040341	0.000011
H83	H	0.687212	0.004538	-0.065553
H84	H	0.678037	0.014618	0.065579
C85	C	1.610899	-0.334289	0.000048
H86	H	1.668390	-0.278558	0.000066
H87	H	1.618303	-0.390721	-0.065514
H88	H	1.609105	-0.380627	0.065618
C89	C	0.951652	0.052302	0.000013
H90	H	0.910791	-0.021747	0.000002
H91	H	0.989770	0.058601	0.065571
H92	H	0.998939	0.048520	-0.065561
H93	H	1.420873	0.049596	0.000054
H94	H	1.589541	-0.076201	0.000034
C95	C	1.409620	-0.464479	0.000012
H96	H	1.339223	-0.491465	-0.000001
H97	H	1.439247	-0.490510	0.065571
H98	H	1.448427	-0.500585	-0.065561
