data_functionalizedCrystal
_audit_creation_method	'MofGen! by Chris Wilmer'
_symmetry_space_group_name_H-M	'P1'
_symmetry_Int_Tables_number	1
_symmetry_cell_setting	triclinic
loop_
_symmetry_equiv_pos_as_xyz
  x,y,z
_cell_length_a	16.625546
_cell_length_b	19.077142
_cell_length_c	19.076919
_cell_angle_alpha	90.074357
_cell_angle_beta	87.730083
_cell_angle_gamma	92.282081
loop_
_atom_site_label
_atom_site_type_symbol
_atom_site_fract_x
_atom_site_fract_y
_atom_site_fract_z
Zn1	Zn	-0.390096	-1.058281	0.440442
Zn2	Zn	-0.519739	-1.062925	0.322932
Zn3	Zn	-0.379293	-0.945499	0.318232
Zn4	Zn	-0.519251	-0.940747	0.435680
O5	O	-0.452095	-1.001863	0.379321
O6	O	-0.412019	-1.157229	0.428814
O7	O	-0.496792	-1.051280	0.223977
O8	O	-0.267897	-0.960505	0.334469
O9	O	-0.507268	-1.160641	0.342479
O10	O	-0.275834	-1.043365	0.424256
O11	O	-0.393606	-0.965008	0.220524
O12	O	-0.393133	-0.846537	0.329852
O13	O	-0.506435	-0.952406	0.534643
O14	O	-0.495959	-0.843046	0.416141
O15	O	-0.411546	-1.038758	0.538141
O16	O	-0.632504	-1.046673	0.337862
O17	O	-0.632145	-0.956909	0.420698
C18	C	-0.443321	-0.819295	0.371970
C19	C	-0.439588	-0.741191	0.368842
C20	C	-0.491445	-0.702701	0.412227
C21	C	-0.487927	-0.629313	0.409291
C22	C	-0.432555	-0.594417	0.362966
C23	C	-0.380693	-0.632913	0.319578
C24	C	-0.384207	-0.706298	0.322518
C25	C	-0.416291	-0.375130	0.349366
C26	C	-0.412781	-0.301739	0.346428
C27	C	-0.520015	-0.298145	0.436142
C28	C	-0.523528	-0.371532	0.439075
C29	C	-0.471663	-0.410021	0.395691
N30	N	-0.428960	-0.519404	0.359962
N31	N	-0.475255	-0.485033	0.398698
C32	C	-0.661581	-1.001798	0.379289
C33	C	-0.751205	-1.001833	0.379302
C34	C	-1.079389	-1.001953	0.379380
C35	C	-0.988078	-1.001917	0.379360
C36	C	-0.915300	-1.001892	0.379340
C37	C	-0.823983	-1.001858	0.379321
C38	C	-0.241792	-1.001947	0.379370
C39	C	-0.152173	-1.001983	0.379390
C40	C	-0.460141	-0.994534	0.562601
C41	C	-0.463570	-0.991411	0.640704
C42	C	-0.460899	-0.185145	0.386693
C43	C	-0.464638	-0.263249	0.389814
C44	C	-0.444024	-1.009204	0.196756
C45	C	-0.440374	-1.012464	0.118659
C46	C	-0.415779	-1.034900	0.679219
C47	C	-0.418997	-1.031957	0.752605
C48	C	-0.470011	-0.985527	0.787474
C49	C	-0.517804	-0.942033	0.748953
C50	C	-0.514581	-0.944973	0.675569
C51	C	-0.484944	-0.971910	1.006754
C52	C	-0.488165	-0.968974	1.080144
C53	C	-0.389357	-1.058897	1.083791
C54	C	-0.386142	-1.061836	1.010405
C55	C	-0.433932	-1.018340	0.971890
N56	N	-0.473304	-0.982519	0.862486
N57	N	-0.430634	-1.021344	0.896880
H58	H	-0.568620	-0.399939	0.476797
H59	H	-0.530156	-0.597978	0.444620
H60	H	-0.374064	-0.406459	0.314034
H61	H	-0.341976	-0.737636	0.287193
H62	H	-0.523870	-0.936502	0.975405
H63	H	-0.562240	-0.266799	0.471465
H64	H	-0.374241	-1.072710	0.650835
H65	H	-0.335604	-0.604494	0.281862
H66	H	-0.380083	-1.067372	0.783961
H67	H	-0.367682	-0.273329	0.308708
H68	H	-0.344604	-1.099646	0.982020
H69	H	-0.553489	-0.909553	0.644210
H70	H	-0.350449	-1.094308	1.115157
H71	H	-0.529708	-0.931164	1.108532
H72	H	-0.536538	-0.731108	0.449948
H73	H	-0.559337	-0.904227	0.777349
