data_functionalizedCrystal
_audit_creation_method	'MofGen! by Chris Wilmer'
_symmetry_space_group_name_H-M	'P1'
_symmetry_Int_Tables_number	1
_symmetry_cell_setting	triclinic
loop_
_symmetry_equiv_pos_as_xyz
  x,y,z
_cell_length_a	6.817900
_cell_length_b	17.458045
_cell_length_c	17.078481
_cell_angle_alpha	95.900285
_cell_angle_beta	99.306161
_cell_angle_gamma	106.367962
loop_
_atom_site_label
_atom_site_type_symbol
_atom_site_fract_x
_atom_site_fract_y
_atom_site_fract_z
V1	V	-3.994431	-0.110378	-0.248065
O2	O	-3.967309	0.005496	-0.242618
O3	O	-3.960837	-0.219046	-0.247067
O4	O	-3.925238	-0.108596	-0.355937
O5	O	-4.003154	-0.105718	-0.132994
V6	V	-4.478835	-0.096528	-0.234217
O7	O	-4.253757	-0.140759	-0.278443
O8	O	-4.669705	-0.066147	-0.203840
O9	O	-4.289222	0.012140	-0.235216
O10	O	-4.623354	-0.212402	-0.239665
O11	O	-4.587508	-0.101188	-0.349289
O12	O	-4.324821	-0.098310	-0.126346
C13	C	-3.810113	-0.245539	-0.243333
C14	C	-3.863794	-0.334376	-0.243236
C15	C	-3.707115	-0.372046	-0.239204
C16	C	-3.757563	-0.455517	-0.239103
C17	C	-3.964692	-0.501316	-0.243039
C18	C	-4.121380	-0.463639	-0.247068
C19	C	-4.070929	-0.380169	-0.247164
C20	C	-4.135083	-0.751389	-0.243175
C21	C	-4.185524	-0.834865	-0.243081
C22	C	-3.821702	-0.826736	-0.235115
C23	C	-3.771269	-0.743266	-0.235215
C24	C	-3.927958	-0.705596	-0.239240
N25	N	-4.016263	-0.586636	-0.242938
N26	N	-3.876384	-0.620276	-0.239336
C27	C	-3.764701	-0.104648	-0.382207
C28	C	-3.789510	-0.103911	-0.470397
C29	C	-3.983040	-0.107553	-0.515896
C30	C	-4.006339	-0.106859	-0.598760
C31	C	-3.836107	-0.102528	-0.636124
C32	C	-3.642559	-0.098883	-0.590619
C33	C	-3.619260	-0.099571	-0.507756
C34	C	-3.886283	-0.100037	-0.883512
C35	C	-3.909600	-0.099352	-0.966381
C36	C	-4.273377	-0.107326	-0.974517
C37	C	-4.250064	-0.108019	-0.891652
C38	C	-4.056517	-0.104369	-0.846153
N39	N	-3.859919	-0.101821	-0.720825
N40	N	-4.032704	-0.105071	-0.761454
C41	C	-4.103289	0.038629	-0.238947
C42	C	-4.028845	0.127465	-0.239050
C43	C	-4.148701	-0.102260	-0.100071
C44	C	-4.103131	-0.102994	-0.011880
H45	H	-3.602605	-0.705981	-0.232007
C46	C	-4.307447	-0.709966	-0.247625
H47	H	-4.438031	-0.749201	-0.249969
H48	H	-4.277495	-0.670302	-0.201308
H49	H	-4.313181	-0.684848	-0.294363
H50	H	-3.728707	-0.097094	-0.846481
C51	C	-3.455309	-0.094122	-0.631717
H52	H	-3.496906	-0.094242	-0.687586
H53	H	-3.346141	-0.045786	-0.608923
H54	H	-3.407382	-0.139415	-0.624008
H55	H	-4.121669	-0.111085	-0.485482
H56	H	-3.461656	-0.096586	-0.470708
C57	C	-3.649358	-0.868173	-0.230675
H58	H	-3.709059	-0.924443	-0.231175
H59	H	-3.584203	-0.860093	-0.275576
H60	H	-3.548491	-0.845553	-0.182520
C61	C	-3.585218	-0.496952	-0.234676
H62	H	-3.454639	-0.457723	-0.232357
H63	H	-3.579450	-0.522078	-0.187948
H64	H	-3.615220	-0.536613	-0.281005
H65	H	-4.354198	-0.872153	-0.246287
H66	H	-3.770965	-0.095823	-0.996800
H67	H	-3.538455	-0.334763	-0.236005
H68	H	-4.290031	-0.500935	-0.250269
C69	C	-4.437313	-0.112771	-0.850556
H70	H	-4.555907	-0.114832	-0.889520
H71	H	-4.466405	-0.160014	-0.825941
H72	H	-4.405152	-0.066384	-0.810858
H73	H	-4.198515	-0.349499	-0.250442
H74	H	-4.163925	-0.109821	-0.635801
C75	C	-4.486255	-0.111329	-1.024565
H76	H	-4.475754	-0.110292	-1.079265
H77	H	-4.587789	-0.159889	-1.020202
H78	H	-4.526538	-0.066260	-1.005108
