data_functionalizedCrystal
_audit_creation_method	'MofGen! by Chris Wilmer'
_symmetry_space_group_name_H-M	'P1'
_symmetry_Int_Tables_number	1
_symmetry_cell_setting	triclinic
loop_
_symmetry_equiv_pos_as_xyz
  x,y,z
_cell_length_a	16.992694
_cell_length_b	10.654541
_cell_length_c	16.053802
_cell_angle_alpha	92.590712
_cell_angle_beta	87.249047
_cell_angle_gamma	87.576076
loop_
_atom_site_label
_atom_site_type_symbol
_atom_site_fract_x
_atom_site_fract_y
_atom_site_fract_z
O1	O	1.045115	0.261481	-0.069324
O2	O	0.816815	0.258557	-0.069348
O3	O	0.936214	0.077733	-0.069330
O4	O	0.925715	0.442304	-0.069342
O5	O	0.929642	0.087643	0.069527
O6	O	0.810242	0.268466	0.069510
O7	O	1.038542	0.271391	0.069534
Zn8	Zn	0.923349	0.271501	0.091569
Zn9	Zn	0.932008	0.258446	-0.091383
O10	O	0.919143	0.452214	0.069516
C11	C	0.784296	0.259751	0.000077
C12	C	0.697191	0.248531	0.000068
C13	C	0.647539	0.356781	0.000065
C14	C	0.565694	0.346233	0.000077
C15	C	0.533504	0.227433	0.000086
C16	C	0.583162	0.119174	0.000091
C17	C	0.665005	0.129724	0.000085
C18	C	0.289668	0.183707	0.000110
C19	C	0.207819	0.173165	0.000113
C20	C	0.190356	0.400226	0.000101
C21	C	0.272201	0.410765	0.000090
C22	C	0.321852	0.302506	0.000099
N23	N	0.449846	0.216647	0.000095
N24	N	0.405508	0.313293	0.000096
C25	C	0.932158	0.035823	0.000098
C26	C	0.929852	-0.103819	0.000096
C27	C	1.072627	-0.119450	0.000122
C28	C	1.142928	-0.192868	0.000137
C29	C	1.140757	-0.324074	0.000134
C30	C	1.068278	-0.381864	0.000114
C31	C	0.997977	-0.308446	0.000100
C32	C	1.000155	-0.177238	0.000105
C33	C	0.855204	-0.292816	0.000068
C34	C	0.857373	-0.161610	0.000076
C35	C	0.782725	-0.350606	0.000048
C36	C	0.712422	-0.277188	0.000039
C37	C	0.714596	-0.145974	0.000043
C38	C	0.787072	-0.088192	0.000062
C39	C	1.071061	0.270196	0.000106
C40	C	1.158166	0.281416	0.000110
C41	C	0.923199	0.494124	0.000086
C42	C	0.925505	0.633766	0.000082
N43	N	0.917445	0.280412	0.216428
N44	N	0.937918	0.249526	-0.216242
C45	C	0.968268	0.203502	0.260130
C46	C	0.964146	0.209748	0.347536
C47	C	0.909203	0.292910	0.391239
C48	C	0.858374	0.369822	0.347531
C49	C	0.862493	0.363569	0.260126
C50	C	0.891209	0.320186	0.652646
C51	C	0.887095	0.326436	0.740056
C52	C	0.992866	0.166359	0.740055
C53	C	0.996984	0.160119	0.652649
C54	C	0.946152	0.237026	0.608949
N55	N	0.904989	0.299298	0.480582
N56	N	0.950363	0.230631	0.519607
H57	H	0.181613	0.076419	0.000119
C58	C	1.261915	-0.160716	0.071543
C59	C	1.222598	-0.129351	0.000156
H60	H	1.311102	-0.121513	0.071547
H61	H	1.230647	-0.132542	0.119952
H62	H	1.270672	-0.249368	0.071534
H63	H	1.213836	-0.040700	0.000167
H64	H	1.253873	-0.157519	-0.048265
H65	H	0.556946	0.022444	0.000110
H66	H	0.813634	0.437530	0.383119
C67	C	0.466893	0.460988	-0.071312
C68	C	0.511118	0.465227	0.000065
H69	H	0.433198	0.534451	-0.071316
H70	H	0.501469	0.456919	-0.119727
H71	H	0.436010	0.388724	-0.071291
H72	H	0.542006	0.537486	0.000041
H73	H	0.476538	0.469308	0.048493
H74	H	0.298405	0.507504	0.000073
C75	C	0.789222	0.329632	0.554370
C76	C	0.835348	0.404737	0.604613
H77	H	0.754734	0.381839	0.524718
H78	H	0.822530	0.279216	0.515839
H79	H	0.759109	0.276921	0.588484
H80	H	0.865465	0.457443	0.570498
H81	H	0.802036	0.455176	0.643149
H82	H	0.149922	0.488363	0.000095
H83	H	0.330084	0.095555	0.000118
H84	H	0.705432	0.041574	0.000087
C85	C	1.217750	-0.475619	0.071528
C86	C	1.218030	-0.404786	0.000149
H87	H	1.265454	-0.525452	0.071532
H88	H	1.213342	-0.420658	0.119942
H89	H	1.174270	-0.528803	0.071510
H90	H	1.261507	-0.351595	0.000170
H91	H	1.222446	-0.459753	-0.048278
C92	C	0.760506	0.372991	0.161850
C93	C	0.806627	0.448113	0.212087
H94	H	0.726011	0.425186	0.132198
H95	H	0.793817	0.322580	0.123318
H96	H	0.730401	0.320273	0.195967
H97	H	0.836736	0.500825	0.177969
H98	H	0.773312	0.498545	0.250624
C99	C	0.744137	-0.539390	-0.071354
C100	C	0.780339	-0.494830	0.000040
H101	H	0.742669	-0.628429	-0.071358
H102	H	0.691902	-0.503942	-0.071359
H103	H	0.773300	-0.516036	-0.119763
H104	H	0.751173	-0.518177	0.048450
H105	H	0.832583	-0.530292	0.000053
H106	H	1.034250	0.103743	0.775643
C107	C	0.593446	-0.309353	-0.071377
C108	C	0.632761	-0.340715	0.000012
H109	H	0.544269	-0.348583	-0.071394
H110	H	0.584675	-0.220716	-0.071363
H111	H	0.624728	-0.337512	-0.119789
H112	H	0.601481	-0.312548	0.048425
H113	H	0.641529	-0.429371	0.000007
H114	H	1.066517	-0.488700	0.000101
C115	C	1.111220	0.069326	0.071527
C116	C	1.075015	0.024774	0.000133
H117	H	1.112699	0.158364	0.071530
H118	H	1.082061	0.045979	0.119931
H119	H	1.163460	0.033864	0.071530
H120	H	1.022773	0.060229	0.000133
H121	H	1.104173	0.048133	-0.048283
H122	H	1.005530	0.147121	0.383117
H123	H	0.657348	-0.086204	0.000027
C124	C	0.747939	0.109105	0.071443
C125	C	0.789465	0.056031	0.000069
H126	H	0.749424	0.198142	0.071447
H127	H	0.694720	0.085206	0.071422
H128	H	0.771520	0.079974	0.119866
H129	H	0.765881	0.085155	-0.048354
H130	H	0.842695	0.079942	0.000083
H131	H	1.013012	0.135788	0.224552
C132	C	1.101113	0.002503	0.661430
C133	C	1.057375	0.068697	0.604613
H134	H	1.138393	-0.053940	0.631773
H135	H	1.128008	0.060102	0.695509
H136	H	1.066599	-0.043561	0.695533
H137	H	1.091889	0.114769	0.570514
H138	H	1.030479	0.011090	0.570520
C139	C	0.782932	0.484010	0.731283
C140	C	0.826685	0.417835	0.788097
H141	H	0.745636	0.540424	0.760943
H142	H	0.817428	0.530093	0.697187
H143	H	0.756047	0.426388	0.697198
H144	H	0.853575	0.475457	0.822178
H145	H	0.792184	0.371749	0.822208
H146	H	0.673741	0.453522	0.000058
