data_functionalizedCrystal
_audit_creation_method	'MofGen! by Chris Wilmer'
_symmetry_space_group_name_H-M	'P1'
_symmetry_Int_Tables_number	1
_symmetry_cell_setting	triclinic
loop_
_symmetry_equiv_pos_as_xyz
  x,y,z
_cell_length_a	23.532407
_cell_length_b	27.732048
_cell_length_c	22.610064
_cell_angle_alpha	89.999096
_cell_angle_beta	89.997161
_cell_angle_gamma	82.745667
loop_
_atom_site_label
_atom_site_type_symbol
_atom_site_fract_x
_atom_site_fract_y
_atom_site_fract_z
O1	O	0.755138	0.058672	-0.049117
O2	O	1.255138	0.558672	0.450883
O3	O	0.589257	0.067162	-0.049135
O4	O	1.089257	0.567162	0.450865
O5	O	0.677349	-0.007472	-0.049114
O6	O	1.177349	0.492528	0.450886
O7	O	0.667046	0.133306	-0.049138
O8	O	1.167046	0.633306	0.450862
O9	O	0.677334	-0.007461	0.049255
O10	O	1.177334	0.492539	0.549255
O11	O	0.589241	0.067173	0.049234
O12	O	1.089241	0.567173	0.549234
O13	O	0.755123	0.058683	0.049252
O14	O	1.255123	0.558683	0.549252
Zn15	Zn	0.672179	0.062930	0.064861
Zn16	Zn	1.172179	0.562930	0.564861
Zn17	Zn	0.672200	0.062915	-0.064744
Zn18	Zn	1.172200	0.562915	0.435256
O19	O	0.667030	0.133317	0.049231
O20	O	1.167030	0.633317	0.549231
C21	C	0.568033	0.066952	0.000047
C22	C	1.068033	0.566952	0.500047
C23	C	0.504818	0.066302	0.000041
C24	C	1.004818	0.566302	0.500041
C25	C	0.677125	-0.025473	0.000072
C26	C	1.177125	0.474527	0.500072
C27	C	0.676474	-0.079129	0.000077
C28	C	1.176474	0.420871	0.500077
C29	C	0.105629	0.106391	0.000061
C30	C	0.605629	0.606391	0.500061
C31	C	0.046230	0.105787	0.000064
C32	C	0.546230	0.605787	0.500064
O33	O	0.009406	0.142951	0.000080
O34	O	0.509406	0.642951	0.500080
N35	N	0.023699	0.061418	0.000071
N36	N	0.523699	0.561418	0.500071
C37	C	0.060570	0.017649	0.000080
C38	C	0.560570	0.517649	0.500080
O39	O	0.035951	-0.020147	0.000086
O40	O	0.535951	0.479853	0.500086
C41	C	0.119967	0.018253	0.000080
C42	C	0.619967	0.518253	0.500080
C43	C	0.142495	0.062626	0.000068
C44	C	0.642495	0.562626	0.500068
C45	C	0.128158	0.150760	0.000049
C46	C	0.628158	0.650760	0.500049
C47	C	0.187552	0.151364	0.000044
C48	C	0.687552	0.651364	0.500044
C49	C	0.224419	0.107599	0.000051
C50	C	0.724419	0.607599	0.500051
C51	C	0.201890	0.063229	0.000063
C52	C	0.701890	0.563229	0.500063
C53	C	0.156837	-0.025515	0.000093
C54	C	0.656837	0.474485	0.500093
C55	C	0.216239	-0.024907	0.000094
C56	C	0.716239	0.475093	0.500094
C57	C	0.238766	0.019466	0.000082
C58	C	0.738766	0.519466	0.500082
C59	C	0.298151	0.020068	0.000065
C60	C	0.798151	0.520068	0.500065
N61	N	0.320683	0.064437	0.000059
N62	N	0.820683	0.564437	0.500059
C63	C	0.283817	0.108203	0.000052
C64	C	0.783817	0.608203	0.500052
C65	C	-0.064170	0.016383	0.000080
C66	C	0.435830	0.516383	0.500080
C67	C	-0.123567	0.015778	0.000075
C68	C	0.376433	0.515778	0.500075
C69	C	-0.137902	0.103917	0.000061
C70	C	0.362098	0.603917	0.500061
C71	C	-0.078505	0.104521	0.000061
C72	C	0.421495	0.604521	0.500061
C73	C	-0.041639	0.060753	0.000073
C74	C	0.458361	0.560753	0.500073
C75	C	0.408551	0.109467	0.000041
C76	C	0.908551	0.609467	0.500041
C77	C	0.467951	0.110067	0.000034
C78	C	0.967951	0.610067	0.500034
C79	C	0.482282	0.021928	0.000051
C80	C	0.982282	0.521928	0.500051
C81	C	0.422886	0.021328	0.000055
C82	C	0.922886	0.521328	0.500055
C83	C	0.386021	0.065102	0.000052
C84	C	0.886021	0.565102	0.500052
O85	O	0.335010	-0.017077	0.000052
O86	O	0.835010	0.482923	0.500052
O87	O	0.308444	0.145992	0.000053
O88	O	0.808444	0.645992	0.500053
C89	C	0.724431	-0.417871	0.000052
C90	C	1.224431	0.082129	0.500052
C91	C	0.722014	-0.619534	0.000043
C92	C	1.222014	-0.119534	0.500043
O93	O	0.765867	-0.650722	0.000022
O94	O	1.265867	-0.150722	0.500022
N95	N	0.669779	-0.638738	0.000038
N96	N	1.169779	-0.138738	0.500038
C97	C	0.618144	-0.607523	0.000031
C98	C	1.118144	-0.107523	0.500031
O99	O	0.573659	-0.628484	0.000020
O100	O	1.073659	-0.128484	0.500020
C101	C	0.620561	-0.405860	0.000035
C102	C	1.120561	0.094140	0.500035
C103	C	0.672800	-0.386659	0.000046
C104	C	1.172800	0.113341	0.500046
C105	C	0.776665	-0.398669	0.000062
C106	C	1.276665	0.101331	0.500062
C107	C	0.777269	-0.348256	0.000067
C108	C	1.277269	0.151744	0.500067
C109	C	0.725638	-0.317045	0.000062
C110	C	1.225638	0.182955	0.500062
C111	C	0.673403	-0.336247	0.000052
C112	C	1.173403	0.163753	0.500052
C113	C	0.568927	-0.374646	0.000024
C114	C	1.068927	0.125354	0.500024
C115	C	0.569536	-0.324228	0.000024
C116	C	1.069536	0.175772	0.500024
C117	C	0.621775	-0.305027	0.000035
C118	C	1.121775	0.194973	0.500035
C119	C	0.622376	-0.254622	0.000052
C120	C	1.122376	0.245378	0.500052
N121	N	0.674611	-0.235418	0.000057
N122	N	1.174611	0.264582	0.500057
C123	C	0.726242	-0.266630	0.000062
C124	C	1.226242	0.233370	0.500062
C125	C	0.616879	-0.713399	0.000030
C126	C	1.116879	-0.213399	0.500030
C127	C	0.616274	-0.763814	0.000030
C128	C	1.116274	-0.263814	0.500030
C129	C	0.720145	-0.775822	0.000041
C130	C	1.220145	-0.275822	0.500041
C131	C	0.720749	-0.725406	0.000045
C132	C	1.220749	-0.225406	0.500045
C133	C	0.669114	-0.694195	0.000035
C134	C	1.169114	-0.194195	0.500035
C135	C	0.727506	-0.160758	0.000074
C136	C	1.227506	0.339242	0.500074
C137	C	0.728105	-0.110341	0.000082
C138	C	1.228105	0.389659	0.500082
C139	C	0.624235	-0.098337	0.000068
C140	C	1.124235	0.401663	0.500068
C141	C	0.623635	-0.148751	0.000063
C142	C	1.123635	0.351249	0.500063
C143	C	0.675276	-0.179961	0.000064
C144	C	1.175276	0.320039	0.500064
O145	O	0.578547	-0.223406	0.000066
O146	O	1.078547	0.276594	0.500066
O147	O	0.770721	-0.245659	0.000060
O148	O	1.270721	0.254341	0.500060
C149	C	0.723827	-0.468283	0.000046
C150	C	1.223827	0.031717	0.500046
C151	C	0.671593	-0.487485	0.000036
C152	C	1.171593	0.012515	0.500036
C153	C	0.619962	-0.456274	0.000030
C154	C	1.119962	0.043726	0.500030
C155	C	0.670988	-0.537900	0.000036
C156	C	1.170988	-0.037900	0.500036
C157	C	0.722619	-0.569112	0.000041
C158	C	1.222619	-0.069112	0.500041
C159	C	0.774855	-0.549908	0.000046
C160	C	1.274855	-0.049908	0.500046
C161	C	0.775458	-0.499495	0.000051
C162	C	1.275458	0.000505	0.500051
C163	C	0.567727	-0.475478	0.000025
C164	C	1.067727	0.024522	0.500025
C165	C	0.567127	-0.525891	0.000021
C166	C	1.067127	-0.025891	0.500021
C167	C	0.618758	-0.557103	0.000026
C168	C	1.118758	-0.057103	0.500026
C169	C	0.776346	0.058894	0.000068
C170	C	1.276346	0.558894	0.500068
C171	C	0.839562	0.059544	0.000071
C172	C	1.339562	0.559544	0.500071
C173	C	0.667254	0.151319	0.000044
C174	C	1.167254	0.651319	0.500044
C175	C	0.667905	0.204975	0.000035
C176	C	1.167905	0.704975	0.500035
N177	N	0.672170	0.062939	0.153314
N178	N	1.172170	0.562939	0.653314
N179	N	0.672214	0.062902	-0.153197
N180	N	1.172214	0.562902	0.346803
C181	C	0.711209	0.029873	0.561964
C182	C	1.211209	0.529873	1.061964
C183	C	0.711212	0.029869	0.623884
C184	C	1.211212	0.529869	1.123884
O185	O	0.744380	0.001762	0.655911
O186	O	1.244380	0.501762	1.155911
N187	N	0.672200	0.062905	0.654851
N188	N	1.172200	0.562905	1.154851
C189	C	0.633178	0.095944	0.623894
C190	C	1.133178	0.595944	1.123894
O191	O	0.599995	0.124044	0.655919
O192	O	1.099995	0.624044	1.155919
C193	C	0.633173	0.095945	0.561975
C194	C	1.133173	0.595945	1.061975
C195	C	0.672191	0.062910	0.531012
C196	C	1.172191	0.562910	1.031012
C197	C	0.750224	-0.003160	0.531001
C198	C	1.250224	0.496840	1.031001
C199	C	0.750222	-0.003156	0.469085
C200	C	1.250222	0.496844	0.969085
C201	C	0.711204	0.029881	0.438133
C202	C	1.211204	0.529881	0.938133
C203	C	0.672189	0.062914	0.469096
C204	C	1.172189	0.562914	0.969096
C205	C	0.594149	0.128981	0.531020
C206	C	1.094149	0.628981	1.031020
C207	C	0.594146	0.128979	0.469097
C208	C	1.094146	0.628979	0.969097
C209	C	0.633165	0.095944	0.438134
C210	C	1.133165	0.595944	0.938134
C211	C	0.633169	0.095955	0.376229
C212	C	1.133169	0.595955	0.876229
N213	N	0.672182	0.062919	0.345262
N214	N	1.172182	0.562919	0.845262
C215	C	0.711199	0.029882	0.376214
C216	C	1.211199	0.529882	0.876214
C217	C	0.633191	0.095939	0.753928
C218	C	1.133191	0.595939	1.253928
C219	C	0.633198	0.095941	0.815846
C220	C	1.133198	0.595941	1.315846
C221	C	0.711232	0.029865	0.815831
C222	C	1.211232	0.529865	1.315831
C223	C	0.711227	0.029866	0.753912
C224	C	1.211227	0.529866	1.253912
C225	C	0.672203	0.062903	0.722961
C226	C	1.172203	0.562903	1.222961
C227	C	0.711192	0.029894	0.246187
C228	C	1.211192	0.529894	0.746187
C229	C	0.711187	0.029902	0.184266
C230	C	1.211187	0.529902	0.684266
C231	C	0.633152	0.095976	0.184286
C232	C	1.133152	0.595976	0.684286
C233	C	0.633158	0.095969	0.246201
C234	C	1.133158	0.595969	0.746201
C235	C	0.672180	0.062924	0.277150
C236	C	1.172180	0.562924	0.777150
O237	O	0.600016	0.124047	0.344163
O238	O	1.100016	0.624047	0.844163
O239	O	0.744372	0.001783	0.344182
O240	O	1.244372	0.501783	0.844182
H241	H	0.486290	0.146202	0.000023
H242	H	0.986290	0.646202	0.500023
H243	H	0.781993	-0.030058	0.443879
H244	H	1.281993	0.469942	0.943879
C245	C	0.832711	-0.432573	-0.000053
C246	C	1.332711	0.067427	0.499947
C247	C	0.835425	-0.461861	-0.050667
C248	C	1.335425	0.038139	0.449333
C249	C	0.887053	-0.493091	-0.050792
C250	C	1.387053	0.006909	0.449208
H251	H	0.834687	-0.452535	0.034212
H252	H	1.334687	0.047465	0.534212
H253	H	0.863917	-0.413926	-0.000079
H254	H	1.363917	0.086074	0.499921
H255	H	0.804228	-0.480507	-0.050635
H256	H	1.304228	0.019493	0.449365
H257	H	0.833458	-0.441913	-0.084940
H258	H	1.333458	0.058087	0.415060
H259	H	0.918259	-0.474444	-0.050819
H260	H	1.418259	0.025556	0.449181
H261	H	0.889025	-0.513050	-0.016526
H262	H	1.389025	-0.013050	0.483474
H263	H	0.888904	-0.512964	-0.085136
H264	H	1.388904	-0.012964	0.414864
H265	H	0.742966	0.002985	0.271379
H266	H	1.242966	0.502985	0.771379
C267	C	0.830851	-0.583880	0.000019
C268	C	1.330851	-0.083880	0.500019
C269	C	0.819133	-0.632140	-0.000002
C270	C	1.319133	-0.132140	0.499998
C271	C	0.870699	-0.663451	-0.000039
C272	C	1.370699	-0.163451	0.499961
H273	H	0.852330	-0.578155	0.034315
H274	H	1.352330	-0.078155	0.534315
H275	H	0.852298	-0.578114	-0.034296
H276	H	1.352298	-0.078114	0.465704
H277	H	0.797696	-0.637904	0.034310
H278	H	1.297696	-0.137904	0.534310
H279	H	0.797663	-0.637880	-0.034296
H280	H	1.297663	-0.137880	0.465704
H281	H	0.892146	-0.657684	-0.034355
H282	H	1.392146	-0.157684	0.465645
H283	H	0.892174	-0.657721	0.034257
H284	H	1.392174	-0.157721	0.534257
H285	H	0.862756	-0.696198	-0.000059
H286	H	1.362756	-0.196198	0.499941
H287	H	0.781997	-0.030065	0.556197
H288	H	1.281997	0.469935	1.056197
C289	C	0.590929	0.131867	0.849490
C290	C	1.090929	0.631867	1.349490
C291	C	0.621000	0.161337	0.885026
C292	C	1.121000	0.661337	1.385026
C293	C	0.582077	0.194440	0.916019
C294	C	1.082077	0.694440	1.416019
H295	H	0.567360	0.114637	0.873693
H296	H	1.067360	0.614637	1.373693
H297	H	0.567702	0.151570	0.822201
H298	H	1.067702	0.651570	1.322201
H299	H	0.644218	0.141637	0.912311
H300	H	1.144218	0.641637	1.412311
H301	H	0.644567	0.178577	0.860837
H302	H	1.144567	0.678577	1.360837
H303	H	0.558850	0.214143	0.888730
H304	H	1.058850	0.714143	1.388730
H305	H	0.558511	0.177206	0.940219
H306	H	1.058511	0.677206	1.440219
H307	H	0.602475	0.214442	0.940129
H308	H	1.102475	0.714442	1.440129
C309	C	0.088231	0.198334	0.000008
C310	C	0.588231	0.698334	0.500008
C311	C	0.120687	0.237314	-0.000017
C312	C	0.620687	0.737314	0.499983
C313	C	0.083930	0.281149	-0.000068
C314	C	0.583930	0.781149	0.499932
H315	H	0.064743	0.200011	0.034300
H316	H	0.564743	0.700011	0.534300
H317	H	0.064775	0.199954	-0.034311
H318	H	0.564775	0.699954	0.465689
H319	H	0.144133	0.235694	0.034299
H320	H	0.644133	0.735694	0.534299
H321	H	0.144173	0.235653	-0.034306
H322	H	0.644173	0.735653	0.465694
H323	H	0.060474	0.282769	-0.034387
H324	H	0.560474	0.782769	0.465613
H325	H	0.060444	0.282821	0.034225
H326	H	0.560444	0.782821	0.534225
H327	H	0.105946	0.307602	-0.000090
H328	H	0.605946	0.807602	0.499910
H329	H	0.601386	0.122876	0.159075
H330	H	1.101386	0.622876	0.659075
H331	H	-0.141903	-0.020355	0.000076
H332	H	0.358097	0.479645	0.500076
C333	C	0.551690	0.164793	0.564594
C334	C	1.051690	0.664793	1.064594
C335	C	0.495802	0.157178	0.549539
C336	C	0.995802	0.657178	1.049539
C337	C	0.456670	0.190156	0.580459
C338	C	0.956670	0.690156	1.080459
H339	H	0.557507	0.197049	0.554467
H340	H	1.057507	0.697049	1.054467
H341	H	0.557233	0.160065	0.605911
H342	H	1.057233	0.660065	1.105911
H343	H	0.490260	0.161910	0.508231
H344	H	0.990260	0.661910	1.008231
H345	H	0.489966	0.124928	0.559667
H346	H	0.989966	0.624928	1.059667
H347	H	0.462214	0.185428	0.621777
H348	H	0.962214	0.685428	1.121777
H349	H	0.462493	0.222410	0.570331
H350	H	0.962493	0.722410	1.070331
H351	H	0.418746	0.184991	0.570254
H352	H	0.918746	0.684991	1.070254
C353	C	0.212117	0.199492	-0.000008
C354	C	0.712117	0.699492	0.499992
C355	C	0.272026	0.190663	-0.000029
C356	C	0.772026	0.690663	0.499971
C357	C	0.294670	0.234989	-0.000090
C358	C	0.794670	0.734989	0.499910
H359	H	0.199498	0.217545	0.034280
H360	H	0.699498	0.717545	0.534280
H361	H	0.199463	0.217492	-0.034332
H362	H	0.699463	0.717492	0.465668
H363	H	0.284675	0.172671	0.034291
H364	H	0.784675	0.672671	0.534291
H365	H	0.284661	0.172617	-0.034314
H366	H	0.784661	0.672617	0.465686
H367	H	0.282016	0.252989	-0.034414
H368	H	0.782016	0.752989	0.465586
H369	H	0.282047	0.253040	0.034198
H370	H	0.782047	0.753040	0.534198
H371	H	0.335320	0.229005	-0.000110
H372	H	0.835320	0.729005	0.499890
H373	H	0.562367	0.155881	0.443900
H374	H	1.062367	0.655881	0.943900
H375	H	0.763286	-0.709776	0.000054
H376	H	1.263286	-0.209776	0.500054
C377	C	0.132500	-0.073743	0.000143
C378	C	0.632500	0.426257	0.500143
C379	C	0.177510	-0.111935	0.000170
C380	C	0.677510	0.388065	0.500170
C381	C	0.155114	-0.156371	0.000227
C382	C	0.655114	0.343629	0.500227
H383	H	0.109637	-0.075893	-0.034147
H384	H	0.609637	0.424107	0.465853
H385	H	0.109645	-0.075831	0.034464
H386	H	0.609645	0.424169	0.534464
H387	H	0.200355	-0.109847	-0.034147
H388	H	0.700355	0.390153	0.465853
H389	H	0.200377	-0.109800	0.034459
H390	H	0.700377	0.390200	0.534459
H391	H	0.132259	-0.158460	0.034548
H392	H	0.632259	0.341540	0.534548
H393	H	0.132251	-0.158517	-0.034064
H394	H	0.632251	0.341483	0.465936
H395	H	0.185649	-0.182290	0.000251
H396	H	0.685649	0.317710	0.500251
H397	H	0.762185	-0.801243	0.000045
H398	H	1.262185	-0.301243	0.500045
H399	H	0.525681	-0.450070	0.000020
H400	H	1.025681	0.049930	0.500020
H401	H	-0.060167	0.140653	0.000054
H402	H	0.439833	0.640653	0.500054
H403	H	0.601391	0.122874	0.271412
H404	H	1.101391	0.622874	0.771412
H405	H	0.378542	0.145112	0.000040
H406	H	0.878542	0.645112	0.500040
H407	H	-0.167930	0.139553	0.000058
H408	H	0.332070	0.639553	0.500058
H409	H	0.246253	-0.060550	0.000104
H410	H	0.746253	0.439450	0.500104
H411	H	-0.034156	-0.019261	0.000084
H412	H	0.465844	0.480739	0.500084
C413	C	0.398534	-0.026897	0.000090
C414	C	0.898534	0.473103	0.500090
C415	C	0.443537	-0.065095	0.000106
C416	C	0.943537	0.434905	0.500106
C417	C	0.421131	-0.109527	0.000151
C418	C	0.921131	0.390473	0.500151
H419	H	0.375668	-0.029037	-0.034200
H420	H	0.875668	0.470963	0.465800
H421	H	0.375681	-0.028988	0.034411
H422	H	0.875681	0.471012	0.534411
H423	H	0.466381	-0.063004	-0.034212
H424	H	0.966381	0.436996	0.465788
H425	H	0.466407	-0.062971	0.034394
H426	H	0.966407	0.437029	0.534394
H427	H	0.398277	-0.111619	0.034472
H428	H	0.898277	0.388381	0.534472
H429	H	0.398265	-0.111662	-0.034140
H430	H	0.898265	0.388338	0.465860
H431	H	0.451661	-0.135449	0.000166
H432	H	0.951661	0.364551	0.500166
C433	C	0.510347	-0.546640	-0.000021
C434	C	1.010347	-0.046640	0.499979
C435	C	0.465265	-0.508510	-0.000042
C436	C	0.965265	-0.008510	0.499958
C437	C	0.412953	-0.527604	-0.000094
C438	C	0.912953	-0.027604	0.499906
H439	H	0.507859	-0.566053	0.034268
H440	H	1.007859	-0.066053	0.534268
H441	H	0.507928	-0.566040	-0.034343
H442	H	1.007928	-0.066040	0.465657
H443	H	0.467682	-0.489119	0.034276
H444	H	0.967682	0.010881	0.534276
H445	H	0.467734	-0.489094	-0.034329
H446	H	0.967734	0.010906	0.465671
H447	H	0.410534	-0.547003	-0.034416
H448	H	0.910534	-0.047003	0.465584
H449	H	0.410471	-0.547017	0.034196
H450	H	0.910471	-0.047017	0.534196
H451	H	0.382359	-0.501736	-0.000114
H452	H	0.882359	-0.001736	0.499886
H453	H	0.582198	-0.072916	0.000066
H454	H	1.082198	0.427084	0.500066
C455	C	0.753613	-0.006058	0.720405
C456	C	1.253613	0.493942	1.220405
C457	C	0.787773	-0.034995	0.760772
C458	C	1.287773	0.465005	1.260772
C459	C	0.826820	-0.068100	0.729930
C460	C	1.326820	0.431900	1.229930
H461	H	0.777219	0.011170	0.696243
H462	H	1.277219	0.511170	1.196243
H463	H	0.733319	-0.026121	0.696268
H464	H	1.233319	0.473879	1.196268
H465	H	0.808065	-0.014935	0.784899
H466	H	1.308065	0.485065	1.284899
H467	H	0.764182	-0.052234	0.784935
H468	H	1.264182	0.447766	1.284935
H469	H	0.806526	-0.088163	0.705794
H470	H	1.306526	0.411837	1.205794
H471	H	0.850423	-0.050868	0.705770
H472	H	1.350423	0.449132	1.205770
H473	H	0.849999	-0.087741	0.757315
H474	H	1.349999	0.412259	1.257315
C475	C	0.560831	-0.679494	-0.000099
C476	C	1.060831	-0.179494	0.499901
C477	C	0.558135	-0.650208	-0.050715
C478	C	1.058135	-0.150208	0.449285
C479	C	0.506508	-0.618976	-0.050855
C480	C	1.006508	-0.118976	0.449145
H481	H	0.558843	-0.659531	0.034165
H482	H	1.058843	-0.159531	0.534165
H483	H	0.529624	-0.698140	-0.000132
H484	H	1.029624	-0.198140	0.499868
H485	H	0.589333	-0.631563	-0.050676
H486	H	1.089333	-0.131563	0.449324
H487	H	0.560112	-0.670157	-0.084986
H488	H	1.060112	-0.170157	0.415014
H489	H	0.475301	-0.637622	-0.050889
H490	H	0.975301	-0.137622	0.449111
H491	H	0.504525	-0.599017	-0.016589
H492	H	1.004525	-0.099017	0.483411
H493	H	0.504670	-0.599105	-0.085200
H494	H	1.004670	-0.099105	0.414800
H495	H	0.512309	-0.013704	0.000054
H496	H	1.012309	0.486296	0.500054
H497	H	0.769556	-0.186164	0.000073
H498	H	1.269556	0.313836	0.500073
H499	H	0.770646	-0.094710	0.000092
H500	H	1.270646	0.405290	0.500092
H501	H	0.526389	-0.390270	0.000011
H502	H	1.026389	0.109730	0.500011
H503	H	0.819807	-0.332628	0.000074
H504	H	1.319807	0.167372	0.500074
C505	C	0.513412	-0.290423	0.000043
C506	C	1.013412	0.209577	0.500043
C507	C	0.467540	-0.318034	0.000047
C508	C	0.967540	0.181966	0.500047
C509	C	0.415832	-0.286911	0.000074
C510	C	0.915832	0.213089	0.500074
H511	H	0.511413	-0.270493	-0.034250
H512	H	1.011413	0.229507	0.465750
H513	H	0.511448	-0.270514	0.034362
H514	H	1.011448	0.229486	0.534362
H515	H	0.469503	-0.337934	-0.034268
H516	H	0.969503	0.162066	0.465732
H517	H	0.469520	-0.337962	0.034338
H518	H	0.969520	0.162038	0.534338
H519	H	0.413867	-0.267002	0.034393
H520	H	0.913867	0.232998	0.534393
H521	H	0.413839	-0.266983	-0.034220
H522	H	0.913839	0.233017	0.465780
H523	H	0.384701	-0.305640	0.000082
H524	H	0.884701	0.194360	0.500082
H525	H	0.573737	-0.779443	0.000031
H526	H	1.073737	-0.279443	0.500031
H527	H	0.581099	-0.164385	0.000070
H528	H	1.081099	0.335615	0.500070
H529	H	0.743002	0.002964	0.841044
H530	H	1.243002	0.502964	1.341044
H531	H	0.817996	-0.483866	0.000060
H532	H	1.317996	0.016134	0.500060
C533	C	0.753577	-0.006022	0.150756
C534	C	1.253577	0.493978	0.650756
C535	C	0.787735	-0.034964	0.191121
C536	C	1.287735	0.465036	0.691121
C537	C	0.826783	-0.068067	0.160276
C538	C	1.326783	0.431933	0.660276
H539	H	0.777185	0.011208	0.126599
H540	H	1.277185	0.511208	0.626599
H541	H	0.733283	-0.026083	0.126615
H542	H	1.233283	0.473917	0.626615
H543	H	0.808027	-0.014907	0.215252
H544	H	1.308027	0.485093	0.715252
H545	H	0.764143	-0.052205	0.215280
H546	H	1.264143	0.447795	0.715280
H547	H	0.806489	-0.088127	0.136135
H548	H	1.306489	0.411873	0.636135
H549	H	0.850387	-0.050833	0.136120
H550	H	1.350387	0.449167	0.636120
H551	H	0.849960	-0.087710	0.187659
H552	H	1.349960	0.412290	0.687659
C553	C	0.590800	0.131871	0.720433
C554	C	1.090800	0.631871	1.220433
C555	C	0.556650	0.160808	0.760811
C556	C	1.056650	0.660808	1.260811
C557	C	0.517599	0.193917	0.729981
C558	C	1.017599	0.693917	1.229981
H559	H	0.567187	0.114646	0.696279
H560	H	1.067187	0.614646	1.196279
H561	H	0.611091	0.151934	0.696290
H562	H	1.111091	0.651934	1.196290
H563	H	0.536360	0.140748	0.784944
H564	H	1.036360	0.640748	1.284944
H565	H	0.580247	0.178044	0.784967
H566	H	1.080247	0.678044	1.284967
H567	H	0.537891	0.213979	0.705839
H568	H	1.037891	0.713979	1.205839
H569	H	0.493990	0.176687	0.705828
H570	H	0.993990	0.676687	1.205828
H571	H	0.494428	0.213557	0.757373
H572	H	0.994428	0.713557	1.257373
