data_functionalizedCrystal
_audit_creation_method	'MofGen! by Chris Wilmer'
_symmetry_space_group_name_H-M	'P1'
_symmetry_Int_Tables_number	1
_symmetry_cell_setting	triclinic
loop_
_symmetry_equiv_pos_as_xyz
  x,y,z
_cell_length_a	16.974885
_cell_length_b	16.956995
_cell_length_c	16.053942
_cell_angle_alpha	92.381106
_cell_angle_beta	83.790486
_cell_angle_gamma	79.731237
loop_
_atom_site_label
_atom_site_type_symbol
_atom_site_fract_x
_atom_site_fract_y
_atom_site_fract_z
O1	O	1.042542	0.101564	-0.000950
O2	O	0.810692	0.115274	0.014703
O3	O	0.940546	-0.007721	0.005933
O4	O	0.912689	0.224559	0.007820
O5	O	0.947654	-0.014467	-0.133403
O6	O	0.817801	0.108528	-0.124634
O7	O	1.049651	0.094818	-0.140286
Zn8	Zn	0.934854	0.100602	-0.154582
Zn9	Zn	0.925489	0.109490	0.028999
O10	O	0.919797	0.217813	-0.131516
C11	C	0.784719	0.111506	-0.052972
C12	C	0.696736	0.110318	-0.047032
C13	C	0.201073	0.104008	-0.005388
C14	C	0.283743	0.105123	-0.010980
C15	C	0.328943	0.102009	-0.089729
C16	C	0.291472	0.097772	-0.162890
C17	C	0.208805	0.096651	-0.157297
C18	C	0.576597	0.104961	-0.114601
C19	C	0.659269	0.106084	-0.120188
C20	C	0.651535	0.113433	0.031723
C21	C	0.568866	0.112317	0.037309
C22	C	0.531402	0.108076	-0.035852
N23	N	0.413445	0.103151	-0.095447
N24	N	0.446904	0.106929	-0.030134
C25	C	0.945526	-0.040808	-0.063830
C26	C	0.949766	-0.129347	-0.064114
C27	C	1.075624	0.098586	-0.072609
C28	C	1.163607	0.099774	-0.078544
C29	C	0.981488	-0.628787	-0.066252
C30	C	0.977498	-0.545594	-0.065988
C31	C	0.902595	-0.494177	-0.060927
C32	C	0.831678	-0.525956	-0.056139
C33	C	0.835669	-0.609148	-0.056410
C34	C	0.882840	-0.244318	-0.059596
C35	C	0.878854	-0.161121	-0.059324
C36	C	1.024675	-0.180765	-0.069174
C37	C	1.028660	-0.263957	-0.069439
C38	C	0.957743	-0.295729	-0.064655
N39	N	0.898514	-0.409141	-0.060654
N40	N	0.961825	-0.380765	-0.064934
C41	C	0.914817	0.250900	-0.061751
C42	C	0.910576	0.339439	-0.061462
N43	N	0.941252	0.094536	-0.279872
C44	C	0.974359	0.063235	-0.805728
C45	C	0.969865	0.067488	-0.718019
C46	C	0.910105	0.124053	-0.670296
C47	C	0.854841	0.176374	-0.710285
C48	C	0.859339	0.172123	-0.797993
C49	C	0.890487	0.142606	-0.407569
C50	C	0.885991	0.146851	-0.319856
C51	C	1.001016	0.037966	-0.327596
C52	C	1.005506	0.033717	-0.415304
C53	C	0.950245	0.086040	-0.455286
N54	N	0.905508	0.128401	-0.580643
N55	N	0.954846	0.081696	-0.544937
N56	N	0.919098	0.115549	0.154288
H57	H	0.682047	0.116885	0.091287
C58	C	0.820205	0.209035	-0.267358
N59	N	0.770642	0.255852	-0.227816
C60	C	1.030653	0.009933	-0.674041
N61	N	1.076442	-0.033420	-0.640918
H62	H	0.164275	0.106549	0.058739
C63	C	0.341189	0.094380	-0.249515
N64	N	0.378632	0.091841	-0.314762
H65	H	1.023019	0.017170	-0.844579
H66	H	0.314245	0.108566	0.048592
H67	H	1.042483	-0.670645	-0.070366
C68	C	0.798546	0.229672	-0.841974
N69	N	0.752755	0.273021	-0.875099
H70	H	0.845489	0.185208	-0.440115
C71	C	0.789104	0.238596	-0.657786
N72	N	0.739587	0.285460	-0.618244
H73	H	0.825094	-0.270176	-0.055691
H74	H	0.770690	-0.484086	-0.052024
H75	H	1.054168	-0.012342	-0.454159
H76	H	0.696069	0.103554	-0.184318
H77	H	1.046008	-0.004632	-0.295034
H78	H	1.089654	-0.305816	-0.073563
C79	C	0.519154	0.115730	0.123939
N80	N	0.481711	0.118298	0.189190
H81	H	0.546107	0.101496	-0.174174
C82	C	1.055507	-0.510647	-0.071258
N83	N	1.114268	-0.484326	-0.075228
C84	C	0.167592	0.091997	-0.237775
N85	N	0.136551	0.088489	-0.298393
C86	C	0.796452	-0.104564	-0.053768
N87	N	0.734389	-0.061965	-0.049586
C88	C	1.102679	-0.145809	-0.074448
N89	N	1.161435	-0.119480	-0.078426
C90	C	0.757660	-0.644098	-0.051137
N91	N	0.698901	-0.670421	-0.047168
