data_functionalizedCrystal
_audit_creation_method	'MofGen! by Chris Wilmer'
_symmetry_space_group_name_H-M	'P1'
_symmetry_Int_Tables_number	1
_symmetry_cell_setting	triclinic
loop_
_symmetry_equiv_pos_as_xyz
  x,y,z
_cell_length_a	19.288840
_cell_length_b	19.288865
_cell_length_c	17.766277
_cell_angle_alpha	89.988397
_cell_angle_beta	89.983415
_cell_angle_gamma	83.131131
loop_
_atom_site_label
_atom_site_type_symbol
_atom_site_fract_x
_atom_site_fract_y
_atom_site_fract_z
O1	O	-0.921364	-0.086566	0.062729
O2	O	-0.421364	0.413434	0.562729
O3	O	-0.719101	-0.098273	0.062704
O4	O	-0.219101	0.401727	0.562704
O5	O	-0.826077	0.008711	0.062702
O6	O	-0.326077	0.508711	0.562702
O7	O	-0.814388	-0.193550	0.062730
O8	O	-0.314388	0.306450	0.562730
O9	O	-0.826058	0.008717	-0.062487
O10	O	-0.326058	0.508717	0.437513
O11	O	-0.719082	-0.098267	-0.062485
O12	O	-0.219082	0.401733	0.437515
O13	O	-0.921345	-0.086560	-0.062460
O14	O	-0.421345	0.413440	0.437540
Cu15	Cu	-0.820212	-0.092413	-0.073903
Cu16	Cu	-0.320212	0.407587	0.426097
Cu17	Cu	-0.820234	-0.092420	0.074147
Cu18	Cu	-0.320234	0.407580	0.574147
O19	O	-0.814369	-0.193545	-0.062458
O20	O	-0.314369	0.306455	0.437542
C21	C	-0.693215	-0.097896	0.000106
C22	C	-0.193215	0.402104	0.500106
C23	C	-0.616110	-0.096774	0.000096
C24	C	-0.116110	0.403226	0.500096
N25	N	-0.820202	-0.092409	-0.178034
N26	N	-0.320202	0.407591	0.321966
C27	C	-0.825692	0.034591	0.000105
C28	C	-0.325692	0.534591	0.500105
C29	C	-0.824563	0.111694	0.000099
C30	C	-0.324563	0.611694	0.500099
C31	C	-0.947232	-0.086937	0.000139
C32	C	-0.447232	0.413063	0.500139
C33	C	-1.024336	-0.088059	0.000154
C34	C	-0.524336	0.411941	0.500154
C35	C	-0.579917	-0.096238	0.068338
C36	C	-0.079917	0.403762	0.568338
C37	C	-0.507470	-0.095176	0.068347
C38	C	-0.007470	0.404824	0.568347
C39	C	-0.471221	-0.094636	0.000110
C40	C	0.028779	0.405364	0.500110
C41	C	-0.507423	-0.095176	-0.068141
C42	C	-0.007423	0.404824	0.431859
C43	C	-0.579867	-0.096245	-0.068148
C44	C	-0.079867	0.403755	0.431852
C45	C	-0.361886	-0.052256	-0.052164
C46	C	0.138114	0.447744	0.447836
C47	C	-0.289443	-0.051183	-0.052155
C48	C	0.210557	0.448817	0.447845
C49	C	-0.247778	-0.091342	0.000129
C50	C	0.252222	0.408658	0.500129
C51	C	-0.278565	-0.132566	0.052416
C52	C	0.221435	0.367434	0.552416
C53	C	-0.351010	-0.133635	0.052408
C54	C	0.148990	0.366365	0.552408
C55	C	-0.392667	-0.093477	0.000110
C56	C	0.107333	0.406523	0.500110
C57	C	-0.133029	-0.089655	0.068386
C58	C	0.366971	0.410345	0.568386
C59	C	-0.060580	-0.088598	0.068392
C60	C	0.439420	0.411402	0.568392
C61	C	-0.060535	-0.088591	-0.068098
C62	C	0.439465	0.411409	0.431902
C63	C	-0.132982	-0.089656	-0.068102
C64	C	0.367018	0.410344	0.431898
C65	C	-0.169225	-0.090185	0.000142
C66	C	0.330775	0.409815	0.500142
C67	C	-0.814755	-0.219424	0.000140
C68	C	-0.314755	0.280576	0.500140
C69	C	-0.815884	-0.296527	0.000152
C70	C	-0.315884	0.203473	0.500152
C71	C	-0.887331	0.156396	0.000103
C72	C	-0.387331	0.656396	0.500103
C73	C	-0.886270	0.228843	0.000114
C74	C	-0.386270	0.728843	0.500114
C75	C	-0.822438	0.256585	0.000107
C76	C	-0.322438	0.756585	0.500107
C77	C	-0.759661	0.211873	0.000107
C78	C	-0.259661	0.711873	0.500107
C79	C	-0.760723	0.139428	0.000103
C80	C	-0.260723	0.639428	0.500103
C81	C	-0.772251	0.364870	-0.043750
C82	C	-0.272251	0.864870	0.456250
C83	C	-0.771191	0.437314	-0.043750
C84	C	-0.271191	0.937314	0.456250
C85	C	-0.819158	0.480030	0.000123
C86	C	-0.319158	0.980030	0.500123
C87	C	-0.868196	0.450295	0.043988
C88	C	-0.368196	0.950295	0.543988
C89	C	-0.869259	0.377849	0.043984
C90	C	-0.369259	0.877849	0.543984
C91	C	-0.821278	0.335139	0.000112
C92	C	-0.321278	0.835139	0.500112
C93	C	-0.880781	0.603288	0.000141
C94	C	-0.380781	1.103288	0.500141
C95	C	-0.879717	0.675736	0.000158
C96	C	-0.379717	1.175736	0.500158
C97	C	-0.753106	0.658764	0.000143
C98	C	-0.253106	1.158764	0.500143
C99	C	-0.754171	0.586318	0.000134
C100	C	-0.254171	1.086318	0.500134
C101	C	-0.818010	0.558584	0.000130
C102	C	-0.318010	1.058584	0.500130
C103	C	-0.867586	-0.045059	-0.217421
C104	C	-0.367586	0.454941	0.282579
C105	C	-0.867590	-0.045056	-0.296223
C106	C	-0.367590	0.454944	0.203777
C107	C	-0.820216	-0.092414	-0.335634
C108	C	-0.320216	0.407586	0.164366
C109	C	-0.772823	-0.139767	-0.296237
C110	C	-0.272823	0.360233	0.203763
C111	C	-0.772816	-0.139764	-0.217437
C112	C	-0.272816	0.360236	0.282563
C113	C	-0.810917	-0.155703	-0.460464
C114	C	-0.310917	0.344297	0.039536
C115	C	-0.810930	-0.155706	-0.539263
C116	C	-0.310930	0.344294	-0.039263
C117	C	-0.820235	-0.092422	-0.578680
C118	C	-0.320235	0.407578	-0.078680
C119	C	-0.829543	-0.029132	-0.539290
C120	C	-0.329543	0.470868	-0.039290
C121	C	-0.829535	-0.029129	-0.460489
C122	C	-0.329535	0.470871	0.039511
C123	C	-0.820219	-0.092422	-0.421080
C124	C	-0.320219	0.407578	0.078920
C125	C	-0.867626	-0.045065	-0.703514
C126	C	-0.367626	0.454935	-0.203514
C127	C	-0.867625	-0.045061	-0.782317
C128	C	-0.367625	0.454939	-0.282317
C129	C	-0.772862	-0.139779	-0.782330
C130	C	-0.272862	0.360221	-0.282330
C131	C	-0.772859	-0.139777	-0.703528
C132	C	-0.272859	0.360223	-0.203528
C133	C	-0.820245	-0.092421	-0.664125
C134	C	-0.320245	0.407579	-0.164125
N135	N	-0.820250	-0.092419	0.178277
N136	N	-0.320250	0.407581	0.678277
H137	H	-0.609422	-0.096669	0.123907
H138	H	-0.109422	0.403331	0.623907
H139	H	-0.477996	-0.094741	0.123920
H140	H	0.022004	0.405259	0.623920
H141	H	-0.837120	0.022400	-0.571382
H142	H	-0.337120	0.522400	-0.071382
H143	H	-0.701132	0.681351	0.000141
H144	H	-0.201132	1.181351	0.500141
H145	H	-0.906168	-0.006498	-0.185341
H146	H	-0.406168	0.493502	0.314659
H147	H	-0.703058	0.549920	0.000127
H148	H	-0.203058	1.049920	0.500127
Br149	Br	-0.392791	-0.189580	0.123362
Br150	Br	0.107209	0.310420	0.623362
Br151	Br	-0.708552	-0.204042	-0.650067
Br152	Br	-0.208552	0.295958	-0.150067
Br153	Br	-0.418425	0.002248	-0.123130
Br154	Br	0.081575	0.502248	0.376870
H155	H	-0.907256	0.485073	0.079715
H156	H	-0.407256	0.985073	0.579715
H157	H	-0.734250	-0.178326	-0.328329
H158	H	-0.234250	0.321674	0.171671
Br159	Br	-0.458229	-0.094451	-0.160749
Br160	Br	0.041771	0.405549	0.339251
Br161	Br	-0.222028	-0.187074	0.123376
Br162	Br	0.277972	0.312926	0.623376
Br163	Br	-0.182220	-0.090378	0.161000
Br164	Br	0.317780	0.409622	0.661000
H165	H	-0.930833	0.712132	0.000165
H166	H	-0.430833	1.212132	0.500165
H167	H	-0.837112	0.022404	-0.428420
H168	H	-0.337112	0.522404	0.071580
Br169	Br	-0.704644	0.477663	-0.103285
Br170	Br	-0.204644	0.977663	0.396715
Br171	Br	-0.798358	-0.241598	-0.406977
Br172	Br	-0.298358	0.258402	0.093023
Br173	Br	-0.935804	0.337494	0.103515
Br174	Br	-0.435804	0.837494	0.603515
H175	H	-0.031112	-0.088165	0.123965
H176	H	0.468888	0.411835	0.623965
Br177	Br	-0.798305	-0.241598	-0.592714
Br178	Br	-0.298305	0.258402	-0.092714
H179	H	-0.932763	0.580706	0.000141
H180	H	-0.432763	1.080706	0.500141
H181	H	-0.733189	0.330095	-0.079481
H182	H	-0.233189	0.830095	0.420519
H183	H	-0.937386	0.265246	0.000121
H184	H	-0.437386	0.765246	0.500121
Br185	Br	-0.931932	0.019205	-0.650036
Br186	Br	-0.431932	0.519205	-0.150036
H187	H	-0.707687	0.234465	0.000103
H188	H	-0.207687	0.734465	0.500103
Br189	Br	-0.708503	-0.204029	-0.163977
Br190	Br	-0.208503	0.295971	0.336023
H191	H	-0.709608	0.103030	0.000099
H192	H	-0.209608	0.603030	0.500099
H193	H	-0.031021	-0.088156	-0.123658
H194	H	0.468979	0.411844	0.376342
Br195	Br	-0.931902	0.019211	-0.349687
Br196	Br	-0.431902	0.519211	0.150313
Br197	Br	-0.931931	0.019210	-0.835776
Br198	Br	-0.431931	0.519210	-0.335776
H199	H	-0.609335	-0.096683	-0.123721
H200	H	-0.109335	0.403317	0.376279
Br201	Br	-0.182105	-0.090381	-0.160722
Br202	Br	0.317895	0.409619	0.339278
Br203	Br	-0.247665	0.004745	-0.123128
Br204	Br	0.252335	0.504745	0.376872
H205	H	-0.734287	-0.178336	-0.814418
H206	H	-0.234287	0.321664	-0.314418
H207	H	-0.939314	0.133820	0.000102
H208	H	-0.439314	0.633820	0.500102
