data_functionalizedCrystal
_audit_creation_method	'MofGen! by Chris Wilmer'
_symmetry_space_group_name_H-M	'P1'
_symmetry_Int_Tables_number	1
_symmetry_cell_setting	triclinic
loop_
_symmetry_equiv_pos_as_xyz
  x,y,z
_cell_length_a	10.654550
_cell_length_b	16.098524
_cell_length_c	10.654550
_cell_angle_alpha	86.959395
_cell_angle_beta	95.515069
_cell_angle_gamma	93.037586
loop_
_atom_site_label
_atom_site_type_symbol
_atom_site_fract_x
_atom_site_fract_y
_atom_site_fract_z
O1	O	1.672894	0.069194	-0.181451
O2	O	2.172894	0.569194	0.318549
O3	O	1.307416	0.069209	-0.198258
O4	O	1.807416	0.569209	0.301742
O5	O	1.498558	0.069196	-0.007115
O6	O	1.998558	0.569196	0.492885
O7	O	1.481752	0.069207	-0.372594
O8	O	1.981752	0.569207	0.127406
O9	O	1.488427	-0.069317	0.003004
O10	O	1.988427	0.430683	0.503004
O11	O	1.297286	-0.069304	-0.188139
O12	O	1.797286	0.430696	0.311861
O13	O	1.662763	-0.069319	-0.171332
O14	O	2.162763	0.430681	0.328668
Zn15	Zn	1.478416	-0.091303	-0.178129
Zn16	Zn	1.978416	0.408697	0.321871
Zn17	Zn	1.491763	0.091194	-0.191461
Zn18	Zn	1.991763	0.591194	0.308539
O19	O	1.471622	-0.069306	-0.362475
O20	O	1.971622	0.430694	0.137525
C21	C	1.255553	-0.000045	-0.191965
C22	C	1.755553	0.499955	0.308035
C23	C	1.116110	-0.000040	-0.188273
C24	C	1.616110	0.499960	0.311727
N25	N	1.469316	-0.215853	-0.169030
N26	N	1.969316	0.284147	0.330970
C27	C	1.036625	-0.000038	-0.300815
C28	C	1.536625	0.499962	0.199185
C29	C	0.905603	-0.000053	-0.297337
C30	C	1.405603	0.499947	0.202663
C31	C	0.933565	-0.000066	-0.068767
C32	C	1.433565	0.499934	0.431233
C33	C	1.064584	-0.000058	-0.072245
C34	C	1.564584	0.499942	0.427755
C35	C	1.542963	-0.259435	-0.242730
C36	C	2.042963	0.240565	0.257270
C37	C	1.536614	-0.346625	-0.236356
C38	C	2.036614	0.153375	0.263644
C39	C	1.456610	-0.390230	-0.156289
C40	C	1.956610	0.109770	0.343711
C41	C	1.382960	-0.346641	-0.082581
C42	C	1.882960	0.153359	0.417419
C43	C	1.389316	-0.259454	-0.088948
C44	C	1.889316	0.240546	0.411052
C45	C	1.433580	-0.653481	-0.133210
C46	C	1.933580	-0.153481	0.366790
C47	C	1.427226	-0.740674	-0.126851
C48	C	1.927226	-0.240674	0.373149
C49	C	1.580883	-0.740652	-0.280625
C50	C	2.080883	-0.240652	0.219375
C51	C	1.587226	-0.653462	-0.286991
C52	C	2.087226	-0.153462	0.213009
C53	C	1.513581	-0.609881	-0.213278
C54	C	2.013581	-0.109881	0.286722
C55	C	1.450115	-0.479351	-0.149775
C56	C	1.950115	0.020649	0.350225
C57	C	1.520083	-0.520762	-0.219786
C58	C	2.020083	-0.020762	0.280214
C59	C	1.714626	-0.000063	-0.177625
C60	C	2.214626	0.499937	0.322375
C61	C	1.854069	-0.000063	-0.181317
C62	C	2.354069	0.499937	0.318683
C63	C	1.492258	-0.000060	0.044743
C64	C	1.992258	0.499940	0.544743
C65	C	1.488566	-0.000058	0.184186
C66	C	1.988566	0.499942	0.684186
N67	N	1.500873	0.215743	-0.200550
N68	N	2.000873	0.715743	0.299450
C69	C	1.477921	-0.000048	-0.414333
C70	C	1.977921	0.499952	0.085667
C71	C	1.481613	-0.000044	-0.553776
C72	C	1.981613	0.499956	-0.053776
C73	C	1.601108	-0.000063	0.263672
C74	C	2.101108	0.499937	0.763672
C75	C	1.597632	-0.000053	0.394692
C76	C	2.097632	0.499947	0.894692
C77	C	1.369064	-0.000037	0.366727
C78	C	1.869064	0.499963	0.866727
C79	C	1.372541	-0.000041	0.235709
C80	C	1.872541	0.499959	0.735709
H81	H	1.078572	-0.000030	-0.395292
H82	H	1.578572	0.499970	0.104708
H83	H	0.891596	-0.000086	0.025700
H84	H	1.391596	0.499914	0.525700
F85	F	1.342072	-0.787080	-0.041627
F86	F	1.842072	-0.287080	0.458373
H87	H	1.129305	-0.000061	0.019406
H88	H	1.629305	0.499939	0.519406
H89	H	0.840890	-0.000054	-0.388980
H90	H	1.340890	0.499946	0.111020
H91	H	1.695583	-0.000075	0.221726
H92	H	2.195583	0.499925	0.721726
H93	H	1.280891	-0.000035	0.170988
H94	H	1.780891	0.499965	0.670988
H95	H	1.274599	-0.000025	0.408695
H96	H	1.774599	0.499975	0.908695
H97	H	1.608103	-0.223938	-0.307937
H98	H	2.108103	0.276062	0.192063
F99	F	1.659257	-0.787040	-0.359069
F100	F	2.159257	-0.287040	0.140931
H101	H	1.596588	-0.382106	-0.296368
H102	H	2.096588	0.117894	0.203632
H103	H	1.373613	-0.618007	-0.073187
H104	H	1.873613	-0.118007	0.426813
F105	F	1.672336	-0.607061	-0.372252
F106	F	2.172336	-0.107061	0.127748
F107	F	1.297816	-0.393051	0.002637
F108	F	1.797816	0.106949	0.502637
H109	H	1.329344	-0.223970	-0.028934
H110	H	1.829344	0.276030	0.471066
H111	H	1.585227	-0.485255	-0.284972
H112	H	2.085227	0.014745	0.215028
F113	F	1.364963	-0.525766	-0.064571
F114	F	1.864963	-0.025766	0.435429
H115	H	1.689275	-0.000054	0.459405
H116	H	2.189275	0.499946	0.959405
