data_functionalizedCrystal
_audit_creation_method	'MofGen! by Chris Wilmer'
_symmetry_space_group_name_H-M	'P1'
_symmetry_Int_Tables_number	1
_symmetry_cell_setting	triclinic
loop_
_symmetry_equiv_pos_as_xyz
  x,y,z
_cell_length_a	11.026607
_cell_length_b	19.188930
_cell_length_c	10.065875
_cell_angle_alpha	98.754308
_cell_angle_beta	79.302338
_cell_angle_gamma	95.865399
loop_
_atom_site_label
_atom_site_type_symbol
_atom_site_fract_x
_atom_site_fract_y
_atom_site_fract_z
O1	O	1.626420	0.284145	-0.113552
O2	O	1.273289	0.250876	-0.113547
O3	O	1.460041	0.167156	-0.113523
O4	O	1.439668	0.367866	-0.113576
O5	O	1.424429	0.183202	0.113461
O6	O	1.237678	0.266922	0.113437
O7	O	1.590808	0.300192	0.113432
Zn8	Zn	1.408589	0.286105	0.149473
Zn9	Zn	1.455509	0.264963	-0.149588
O10	O	1.404057	0.383912	0.113408
C11	C	1.210305	0.252761	-0.000054
C12	C	1.075688	0.234465	-0.000051
C13	C	1.001616	0.284984	-0.000065
C14	C	0.862482	0.266075	-0.000062
C15	C	1.441574	0.149084	-0.000027
C16	C	1.439591	0.071328	-0.000015
C17	C	1.549173	0.040370	-0.000010
C18	C	1.547315	-0.032693	-0.000032
C19	C	1.435865	-0.074793	-0.000031
C20	C	1.326271	-0.043828	-0.000044
C21	C	1.328134	0.029233	-0.000036
N22	N	1.338556	-0.188194	0.077217
N23	N	1.336793	-0.257598	0.077212
C24	C	1.430245	-0.294920	-0.000059
N25	N	1.525543	-0.260215	-0.077308
N26	N	1.527308	-0.190805	-0.077297
C27	C	1.433832	-0.154015	-0.000041
C28	C	1.537819	-0.405101	-0.000080
C29	C	1.535958	-0.478166	-0.000110
C30	C	1.314909	-0.489298	-0.000108
C31	C	1.316775	-0.416236	-0.000092
C32	C	1.428233	-0.374141	-0.000071
C33	C	1.653793	0.298306	-0.000064
C34	C	1.788412	0.316602	-0.000076
C35	C	1.422523	0.401983	-0.000091
C36	C	1.424508	0.479739	-0.000112
N37	N	1.376576	0.300534	0.353575
N38	N	1.487531	0.250529	-0.353689
C39	C	1.444363	0.269978	0.421362
C40	C	1.419734	0.281090	0.578527
H41	H	0.827993	0.373857	-0.000082
H42	H	1.238897	0.054438	-0.000039
O43	O	1.535513	0.229019	0.351983
C44	C	1.753338	0.211318	0.307982
C45	C	1.650214	0.257754	0.386638
H46	H	1.846101	0.234541	0.335950
H47	H	1.733299	0.155424	0.336056
H48	H	1.756962	0.209638	0.193622
H49	H	1.646533	0.259493	0.501017
H50	H	1.670294	0.313625	0.358451
O51	O	1.328812	0.322206	0.647929
C52	C	1.250848	0.437823	0.691969
C53	C	1.353881	0.391337	0.613262
H54	H	1.271094	0.493728	0.663992
H55	H	1.158037	0.414725	0.663952
H56	H	1.247178	0.439436	0.806322
H57	H	1.357665	0.389704	0.498891
H58	H	1.446641	0.414451	0.641393
H59	H	1.628576	-0.370826	-0.000069
O60	O	1.048623	0.353325	-0.000024
C61	C	1.006227	0.474039	-0.000145
C62	C	0.952830	0.396673	-0.000159
H63	H	0.928810	0.509106	-0.000284
H64	H	1.049770	0.491893	0.094868
H65	H	1.079666	0.478385	-0.095117
H66	H	0.879347	0.392269	0.094749
H67	H	0.909367	0.378854	-0.095235
H68	H	1.036103	0.177212	-0.000071
H69	H	1.639931	0.074639	0.000002
O70	O	1.653658	-0.062842	0.000164
C71	C	1.761391	-0.130527	0.117819
C72	C	1.640878	-0.096436	0.117748
H73	H	1.751109	-0.157684	0.212889
H74	H	1.780964	-0.171204	0.022891
H75	H	1.841359	-0.087883	0.117767
H76	H	1.560834	-0.139031	0.117848
H77	H	1.621413	-0.055745	0.212667
O78	O	1.218113	-0.084806	-0.000223
C79	C	1.106153	-0.182032	-0.117866
C80	C	1.228723	-0.135688	-0.117808
H81	H	1.114681	-0.223171	-0.212938
H82	H	1.084840	-0.209860	-0.022940
H83	H	1.028159	-0.147334	-0.117802
H84	H	1.306796	-0.170336	-0.117921
H85	H	1.249929	-0.107854	-0.212726
H86	H	1.563799	0.216137	0.588000
O87	O	1.285428	0.341462	0.423074
C88	C	1.067632	0.359237	0.467040
C89	C	1.170735	0.312814	0.388277
H90	H	0.974882	0.336101	0.438915
H91	H	1.063872	0.360877	0.581416
H92	H	1.087838	0.415137	0.439028
H93	H	1.150602	0.256892	0.416175
H94	H	1.174470	0.311234	0.273921
H95	H	0.822903	0.208818	-0.000082
O96	O	1.210272	-0.386253	-0.000261
C97	C	1.040402	-0.381686	-0.117888
C98	C	1.160988	-0.415709	-0.117845
H99	H	1.000534	-0.405477	-0.212959
H100	H	0.970558	-0.392114	-0.022961
H101	H	1.060894	-0.322234	-0.117815
H102	H	1.140615	-0.475168	-0.117966
H103	H	1.230795	-0.405224	-0.212764
H104	H	1.625197	-0.503370	-0.000113
H105	H	1.224166	-0.523576	-0.000114
