data_functionalizedCrystal
_audit_creation_method	'MofGen! by Chris Wilmer'
_symmetry_space_group_name_H-M	'P1'
_symmetry_Int_Tables_number	1
_symmetry_cell_setting	triclinic
loop_
_symmetry_equiv_pos_as_xyz
  x,y,z
_cell_length_a	17.699083
_cell_length_b	17.699083
_cell_length_c	16.776229
_cell_angle_alpha	90.004308
_cell_angle_beta	89.999727
_cell_angle_gamma	83.283015
loop_
_atom_site_label
_atom_site_type_symbol
_atom_site_fract_x
_atom_site_fract_y
_atom_site_fract_z
O1	O	1.004077	0.095710	0.066178
O2	O	0.783699	0.108162	0.066204
O3	O	0.900114	-0.008253	0.066183
O4	O	0.887662	0.212125	0.066199
O5	O	0.900101	-0.008254	-0.066393
O6	O	0.783686	0.108162	-0.066372
O7	O	1.004064	0.095709	-0.066398
Zn8	Zn	0.893873	0.101935	-0.087435
Zn9	Zn	0.893890	0.101936	0.087241
O10	O	0.887649	0.212125	-0.066378
C11	C	0.755495	0.107716	-0.000081
C12	C	0.671477	0.106377	-0.000071
C13	C	0.899662	-0.036451	-0.000105
C14	C	0.898323	-0.120469	-0.000105
C15	C	0.622856	0.174710	-0.000066
C16	C	0.543913	0.173448	-0.000077
C17	C	0.513592	0.103852	-0.000086
C18	C	0.562219	0.035513	-0.000093
C19	C	0.641161	0.036776	-0.000088
C20	C	0.243856	0.030418	-0.000113
C21	C	0.164908	0.029160	-0.000115
C22	C	0.146608	0.167090	-0.000101
C23	C	0.225550	0.168353	-0.000097
C24	C	0.274170	0.100015	-0.000108
C25	C	0.359769	0.101384	-0.000098
C26	C	0.427995	0.102481	-0.000090
C27	C	0.966656	-0.169090	-0.000114
C28	C	0.965394	-0.248033	-0.000107
C29	C	0.895798	-0.278354	-0.000096
C30	C	0.827459	-0.229727	-0.000085
C31	C	0.828722	-0.150785	-0.000086
C32	C	0.822364	-0.548090	-0.000078
C33	C	0.821106	-0.627038	-0.000078
C34	C	0.959036	-0.645338	-0.000099
C35	C	0.960299	-0.566396	-0.000100
C36	C	0.891961	-0.517776	-0.000084
C37	C	0.893330	-0.432177	-0.000090
C38	C	0.894427	-0.363951	-0.000096
C39	C	1.032268	0.096156	-0.000112
C40	C	1.116286	0.097494	-0.000116
C41	C	0.888102	0.240322	-0.000087
C42	C	0.889440	0.324340	-0.000082
N43	N	0.893867	0.101935	-0.206646
C44	C	0.939682	0.147783	-0.248362
C45	C	0.939690	0.147781	-0.331814
C46	C	0.893879	0.101933	-0.373549
C47	C	0.848062	0.056079	-0.331827
C48	C	0.848058	0.056078	-0.248376
C49	C	0.848077	0.056080	-0.668374
C50	C	0.848083	0.056085	-0.751831
C51	C	0.939709	0.147782	-0.751812
C52	C	0.939705	0.147781	-0.668361
C53	C	0.893892	0.101925	-0.626647
C54	C	0.893884	0.101927	-0.536158
C55	C	0.893882	0.101933	-0.464036
N56	N	0.893903	0.101931	0.206452
H57	H	0.647537	0.231384	-0.000058
H58	H	0.283434	-0.025228	-0.000123
Cl59	Cl	0.482792	0.259357	-0.000066
H60	H	1.014680	-0.684934	-0.000107
Cl61	Cl	0.790468	-0.001571	-0.195933
H62	H	0.107012	0.222734	-0.000097
H63	H	0.976999	0.185114	-0.365776
Cl64	Cl	0.790472	-0.001561	-0.384294
H65	H	0.810773	0.018740	-0.634420
H66	H	0.977007	0.185119	-0.634385
Cl67	Cl	0.997275	0.205425	-0.195904
H68	H	0.977015	0.185119	-0.785786
H69	H	0.250232	0.225025	-0.000085
Cl70	Cl	0.790488	-0.001558	-0.804296
Cl71	Cl	0.126793	-0.058340	-0.000127
H72	H	0.537526	-0.021154	-0.000112
Cl73	Cl	0.733606	-0.665153	-0.000063
H74	H	0.680748	-0.018868	-0.000091
H75	H	1.023330	-0.144409	-0.000128
H76	H	1.021038	-0.287618	-0.000116
Cl77	Cl	1.047795	-0.528283	-0.000111
H78	H	0.766718	-0.508512	-0.000065
Cl79	Cl	0.739966	-0.267844	-0.000061
H80	H	0.773078	-0.111198	-0.000078
