data_functionalizedCrystal
_audit_creation_method	'MofGen! by Chris Wilmer'
_symmetry_space_group_name_H-M	'P1'
_symmetry_Int_Tables_number	1
_symmetry_cell_setting	triclinic
loop_
_symmetry_equiv_pos_as_xyz
  x,y,z
_cell_length_a	10.654545
_cell_length_b	14.853559
_cell_length_c	9.730223
_cell_angle_alpha	89.997790
_cell_angle_beta	89.997167
_cell_angle_gamma	84.057266
loop_
_atom_site_label
_atom_site_type_symbol
_atom_site_fract_x
_atom_site_fract_y
_atom_site_fract_z
O1	O	1.666522	0.126607	-0.114269
O2	O	1.300917	0.138675	-0.114274
O3	O	1.493491	0.001463	-0.114270
O4	O	1.473948	0.263819	-0.114273
O5	O	1.493478	0.001459	0.114310
O6	O	1.300904	0.138672	0.114306
O7	O	1.666509	0.126603	0.114311
Zn8	Zn	1.483705	0.132637	0.150601
Zn9	Zn	1.483721	0.132642	-0.150563
O10	O	1.473935	0.263815	0.114307
C11	C	1.254122	0.137788	0.000015
C12	C	1.114706	0.135140	0.000013
C13	C	1.492601	-0.032132	0.000018
C14	C	1.489953	-0.132231	0.000010
C15	C	1.049207	0.133891	0.124613
C16	C	0.918214	0.131387	0.124613
C17	C	0.918228	0.131385	-0.124597
C18	C	1.049220	0.133882	-0.124596
C19	C	1.478727	-0.555464	-0.124589
C20	C	1.478713	-0.555462	0.124617
C21	C	1.481212	-0.461416	0.124618
C22	C	1.482466	-0.414389	0.000014
C23	C	1.481222	-0.461408	-0.124592
C24	C	1.482443	-0.414388	0.249222
C25	C	1.484940	-0.320336	0.249228
C26	C	1.486203	-0.273308	0.124622
C27	C	1.484960	-0.320333	0.000011
C28	C	1.486214	-0.273306	-0.124593
C29	C	1.484981	-0.320330	-0.249206
C30	C	1.482485	-0.414380	-0.249198
C31	C	1.488699	-0.179258	0.124614
C32	C	1.488709	-0.179250	-0.124596
C33	C	1.713304	0.127490	0.000019
C34	C	1.852720	0.130139	0.000012
C35	C	1.474825	0.297411	0.000017
C36	C	1.477473	0.397509	0.000015
N37	N	1.483703	0.132633	0.356137
N38	N	1.483733	0.132639	-0.356100
C39	C	1.569003	0.071901	0.428065
C40	C	1.569016	0.071901	0.571948
C41	C	1.398423	0.193373	0.571962
C42	C	1.398406	0.193368	0.428082
H43	H	1.102522	0.134914	0.226078
Br44	Br	1.476983	-0.619283	0.293715
H45	H	1.477727	-0.593755	-0.226046
H46	H	1.328978	0.242824	0.630554
Br47	Br	1.684761	-0.010526	0.330430
Br48	Br	1.684779	-0.010528	0.669561
Br49	Br	1.282623	0.275788	0.330454
H50	H	0.864891	0.130371	0.226075
Br51	Br	1.138121	0.135566	-0.293708
Br52	Br	0.829352	0.129652	-0.293702
Br53	Br	1.490367	-0.115442	0.293716
H54	H	1.489736	-0.140968	-0.226066
Br55	Br	1.486684	-0.256496	-0.418306
Br56	Br	1.480705	-0.478211	0.418318
Br57	Br	1.486605	-0.256524	0.418340
Br58	Br	1.480820	-0.478204	-0.418299
