data_functionalizedCrystal
_audit_creation_method	'MofGen! by Chris Wilmer'
_symmetry_space_group_name_H-M	'P1'
_symmetry_Int_Tables_number	1
_symmetry_cell_setting	triclinic
loop_
_symmetry_equiv_pos_as_xyz
  x,y,z
_cell_length_a	6.394989
_cell_length_b	10.654549
_cell_length_c	9.730223
_cell_angle_alpha	89.997731
_cell_angle_beta	90.001437
_cell_angle_gamma	94.508756
loop_
_atom_site_label
_atom_site_type_symbol
_atom_site_fract_x
_atom_site_fract_y
_atom_site_fract_z
O1	O	-0.293438	1.670947	-0.114248
O2	O	-0.321396	1.305765	-0.114257
O3	O	-0.003428	1.493539	-0.114254
O4	O	-0.611406	1.483172	-0.114252
O5	O	-0.003419	1.493527	0.114326
O6	O	-0.321387	1.305752	0.114323
O7	O	-0.293429	1.670935	0.114331
Zn8	Zn	-0.307407	1.488341	0.150619
Zn9	Zn	-0.307418	1.488358	-0.150545
O10	O	-0.611397	1.483160	0.114328
C11	C	-0.319339	1.258939	0.000031
C12	C	-0.313197	1.119430	0.000028
C13	C	-0.494626	0.910837	0.000034
C14	C	-0.500412	1.041919	0.000026
C15	C	-0.120184	1.065854	0.000024
C16	C	-0.114400	0.934774	0.000023
C17	C	0.074428	1.491484	0.000031
C18	C	0.310754	1.485219	0.000030
C19	C	-0.295486	1.717761	0.000040
C20	C	-0.301627	1.857269	0.000034
N21	N	-0.307397	1.488339	0.356155
N22	N	-0.307411	1.488370	-0.356081
C23	C	-0.166661	1.571516	0.428083
C24	C	-0.166662	1.571528	0.571966
C25	C	-0.448154	1.405184	0.571981
C26	C	-0.448141	1.405167	0.428101
H27	H	0.042772	0.891159	0.000018
H28	H	-0.562746	1.337428	0.369534
C29	C	0.085756	1.151115	0.000025
C30	C	0.134068	1.244510	0.118726
C31	C	0.340012	1.329769	0.118731
C32	C	0.497644	1.321632	0.000035
C33	C	0.449336	1.228233	-0.118675
C34	C	0.243392	1.142974	-0.118680
H35	H	0.017375	1.250537	0.206600
H36	H	0.375771	1.398910	0.206609
H37	H	0.650096	1.384746	0.000039
H38	H	0.566029	1.222206	-0.206549
H39	H	0.207633	1.073833	-0.206558
H40	H	-0.052056	1.639238	0.369508
C41	C	-0.011856	1.663027	0.651088
C42	C	0.142918	1.754530	0.571947
C43	C	0.297733	1.846032	0.651070
C44	C	0.297773	1.846030	0.809332
C45	C	0.142994	1.754523	0.888482
C46	C	-0.011821	1.663022	0.809360
H47	H	0.142893	1.754535	0.454784
H48	H	0.412311	1.913771	0.592477
H49	H	0.412377	1.913765	0.867904
H50	H	0.143018	1.754519	1.005645
H51	H	-0.126400	1.595283	0.867952
H52	H	-0.562747	1.337469	0.630573
H53	H	-0.657570	1.085527	0.000024
H54	H	-0.647079	0.847736	0.000043
