data_functionalizedCrystal
_audit_creation_method	'MofGen! by Chris Wilmer'
_symmetry_space_group_name_H-M	'P1'
_symmetry_Int_Tables_number	1
_symmetry_cell_setting	triclinic
loop_
_symmetry_equiv_pos_as_xyz
  x,y,z
_cell_length_a	17.640112
_cell_length_b	25.639239
_cell_length_c	25.639233
_cell_angle_alpha	89.981253
_cell_angle_beta	101.179825
_cell_angle_gamma	101.263838
loop_
_atom_site_label
_atom_site_type_symbol
_atom_site_fract_x
_atom_site_fract_y
_atom_site_fract_z
Zn1	Zn	1.208290	-0.046428	-0.134303
Zn2	Zn	1.208174	-0.133862	-0.046882
Zn3	Zn	1.076121	-0.064124	-0.064526
Zn4	Zn	1.076038	-0.151542	-0.151927
O5	O	1.142156	-0.098989	-0.099409
O6	O	1.318888	-0.043221	-0.107946
O7	O	1.190644	-0.124618	0.023941
O8	O	1.093736	0.011400	-0.073790
O9	O	1.318803	-0.107458	-0.043719
O10	O	1.190841	0.024401	-0.125054
O11	O	1.093624	-0.073382	0.010978
O12	O	0.965497	-0.090525	-0.090880
O13	O	1.093595	-0.137592	-0.222752
O14	O	0.965436	-0.154751	-0.155093
O15	O	1.190760	-0.060365	-0.209804
O16	O	1.190563	-0.209384	-0.060809
O17	O	1.093483	-0.222373	-0.137985
C18	C	0.936785	-0.126478	-0.126814
C19	C	0.848927	-0.138250	-0.138550
C20	C	0.560021	-0.009547	-0.010257
C21	C	0.477465	-0.020619	-0.021291
C22	C	0.477455	-0.087590	-0.088041
C23	C	0.560013	-0.076521	-0.077014
C24	C	0.601290	-0.037500	-0.038121
C25	C	0.601282	-0.104474	-0.104878
C26	C	0.683833	-0.093408	-0.093849
C27	C	0.725115	-0.054389	-0.054957
C28	C	0.683840	-0.026434	-0.027092
C29	C	0.560004	-0.143498	-0.143769
C30	C	0.601273	-0.171450	-0.171633
C31	C	0.683825	-0.160382	-0.160607
C32	C	0.725107	-0.121363	-0.121714
C33	C	0.725100	-0.188337	-0.188472
C34	C	0.807651	-0.177271	-0.177443
C35	C	0.807658	-0.110297	-0.110685
C36	C	1.142023	-0.234849	-0.099403
C37	C	1.142038	-0.292961	-0.099408
C38	C	1.192837	-0.646515	-0.059263
C39	C	1.192868	-0.701115	-0.059266
O40	O	1.235921	-0.723580	-0.025126
N41	N	1.142295	-0.735209	-0.099426
C42	C	1.091693	-0.714701	-0.139588
O43	O	1.048680	-0.748714	-0.173747
C44	C	1.091667	-0.660101	-0.139586
C45	C	1.142238	-0.626009	-0.099421
C46	C	1.243405	-0.612424	-0.019102
C47	C	1.243373	-0.557828	-0.019099
C48	C	1.192774	-0.537322	-0.059257
C49	C	1.142206	-0.571413	-0.099418
C50	C	1.041070	-0.639592	-0.179750
C51	C	1.041049	-0.584988	-0.179745
C52	C	1.091620	-0.550897	-0.139580
C53	C	1.091575	-0.496312	-0.139573
N54	N	1.142148	-0.462217	-0.099413
C55	C	1.192748	-0.482722	-0.059255
C56	C	1.091753	-0.829363	-0.139588
C57	C	1.091774	-0.883963	-0.139587
C58	C	1.192950	-0.870373	-0.059266
C59	C	1.192924	-0.815773	-0.059265
C60	C	1.142326	-0.795269	-0.099428
C61	C	1.192676	-0.368067	-0.059251
C62	C	1.192638	-0.313467	-0.059250
C63	C	1.091465	-0.327061	-0.139573
C64	C	1.091500	-0.381656	-0.139572
C65	C	1.142112	-0.402157	-0.099409
O66	O	1.048546	-0.473808	-0.173697
O67	O	1.235761	-0.448702	-0.025106
C68	C	1.348328	-0.071394	-0.071899
C69	C	1.436186	-0.059634	-0.060175
C70	C	1.142181	-0.098976	-0.235779
C71	C	1.142192	-0.098971	-0.293892
C72	C	1.142311	0.037405	-0.099424
C73	C	1.142377	0.095528	-0.099430
C74	C	1.192850	-0.058651	-0.647510
C75	C	1.192860	-0.058635	-0.702113
O76	O	1.235868	-0.024424	-0.724623
N77	N	1.142279	-0.098837	-0.736163
C78	C	1.091680	-0.139054	-0.715608
O79	O	1.048657	-0.173247	-0.749584
C80	C	1.091667	-0.139067	-0.661007
C81	C	1.142256	-0.098866	-0.626958
C82	C	1.243435	-0.018453	-0.613462
C83	C	1.243426	-0.018469	-0.558862
C84	C	1.192832	-0.058684	-0.538311
C85	C	1.142247	-0.098882	-0.572359
C86	C	1.041064	-0.179281	-0.640453
C87	C	1.041054	-0.179291	-0.585848
C88	C	1.091644	-0.139090	-0.551799
C89	C	1.091645	-0.139113	-0.497208
N90	N	1.142225	-0.098912	-0.463158
C91	C	1.192819	-0.058697	-0.483709
C92	C	1.091710	-0.139023	-0.830275
C93	C	1.091727	-0.139012	-0.884875
C94	C	1.192906	-0.058593	-0.871376
C95	C	1.192893	-0.058606	-0.816774
C96	C	1.142291	-0.098821	-0.796225
C97	C	1.192797	-0.058735	-0.369047
C98	C	1.192786	-0.058756	-0.314443
C99	C	1.091604	-0.139174	-0.327947
C100	C	1.091618	-0.139154	-0.382546
C101	C	1.142217	-0.098930	-0.403094
O102	O	1.048657	-0.173306	-0.474660
O103	O	1.235827	-0.024506	-0.449728
C104	C	1.142176	-0.098958	0.036436
C105	C	1.142318	-0.098795	0.094569
H106	H	0.443867	0.002150	0.001398
C107	C	1.254447	0.053340	-0.496015
C108	C	1.299016	0.025738	-0.521450
H109	H	1.288764	0.080635	-0.472921
H110	H	1.220026	0.068716	-0.521918
H111	H	1.224333	0.029386	-0.475948
H112	H	1.329125	0.049691	-0.541520
H113	H	1.333450	0.010361	-0.495543
C114	C	0.843369	-0.002072	-0.002808
C115	C	0.815857	-0.042223	-0.042830
H116	H	0.899389	0.005436	0.004679
H117	H	0.824723	0.029150	-0.014404
H118	H	0.824662	-0.013576	0.028446
H119	H	0.834559	-0.030717	-0.074086
H120	H	0.834511	-0.073451	-0.031237
C121	C	1.030057	-0.702435	-0.251560
C122	C	0.985487	-0.677055	-0.223905
H123	H	0.995739	-0.725564	-0.278820
H124	H	1.064466	-0.676492	-0.266973
H125	H	1.060182	-0.722469	-0.227641
H126	H	0.955366	-0.657018	-0.247824
H127	H	0.951064	-0.703002	-0.208492
C128	C	0.985193	-0.457369	-0.160977
C129	C	1.035905	-0.419132	-0.183719
H130	H	0.950871	-0.480498	-0.188235
H131	H	1.015334	-0.477396	-0.137069
H132	H	0.954972	-0.440142	-0.142209
H133	H	1.066130	-0.436358	-0.202483
H134	H	1.005761	-0.399102	-0.207636
H135	H	1.233818	-0.285710	-0.026541
H136	H	0.717450	0.005349	0.004571
C137	C	1.326852	-0.869133	-0.016029
C138	C	1.248607	-0.892891	-0.015122
H139	H	1.361217	-0.883026	0.011225
H140	H	1.338369	-0.876522	-0.049625
H141	H	1.334037	-0.831737	-0.010293
H142	H	1.241421	-0.930287	-0.020862
H143	H	1.237087	-0.885505	0.018482
H144	H	0.593630	0.022236	0.021407
C145	C	1.343393	-0.549895	0.060286
C146	C	1.298975	-0.520357	0.025046
H147	H	1.377726	-0.526763	0.087537
H148	H	1.308984	-0.575827	0.075711
H149	H	1.373602	-0.567120	0.041508
H150	H	1.268760	-0.503135	0.043823
H151	H	1.333387	-0.494416	0.009620
C152	C	0.941052	-0.603908	-0.259146
C153	C	0.985428	-0.562451	-0.223896
H154	H	0.906712	-0.589994	-0.286400
H155	H	0.975487	-0.620561	-0.274567
H156	H	0.910851	-0.629281	-0.240377
H157	H	1.015634	-0.537080	-0.242664
H158	H	0.950989	-0.545789	-0.208474
H159	H	1.233997	-0.025979	-0.385771
H160	H	1.284635	0.014298	-0.630188
C161	C	0.985408	-0.160503	-0.960468
C162	C	1.036130	-0.183207	-0.922299
H163	H	0.951088	-0.187787	-0.983573
H164	H	0.955193	-0.141778	-0.943201
H165	H	1.015547	-0.136551	-0.980522
H166	H	1.005992	-0.207156	-0.902243
H167	H	1.066348	-0.201940	-0.939568
C168	C	1.046515	-0.249390	-0.175228
C169	C	1.035851	-0.304513	-0.183715
H170	H	1.012187	-0.235470	-0.202484
H171	H	1.034971	-0.242015	-0.141636
H172	H	1.099618	-0.233301	-0.175817
H173	H	0.982750	-0.320602	-0.183122
H174	H	1.047390	-0.311892	-0.217316
C175	C	1.292673	-0.349136	0.020148
C176	C	1.248304	-0.390597	-0.015101
H177	H	1.327007	-0.363047	0.047407
H178	H	1.322872	-0.323767	0.001383
H179	H	1.258227	-0.332482	0.035566
H180	H	1.282749	-0.407248	-0.030521
H181	H	1.218103	-0.415975	0.003667
H182	H	0.999868	-0.212018	-0.668167
C183	C	0.900439	-0.235172	-0.172185
C184	C	0.853017	-0.207997	-0.208072
H185	H	0.928442	-0.254145	-0.191095
H186	H	0.936834	-0.210351	-0.147450
H187	H	0.868200	-0.259458	-0.153679
H188	H	0.885258	-0.183708	-0.226575
H189	H	0.816618	-0.232821	-0.232817
H190	H	1.234104	-0.788019	-0.026560
H191	H	1.233985	-0.026019	-0.286722
H192	H	1.234086	-0.025870	-0.789055
H193	H	1.050503	-0.171773	-0.813548
C194	C	1.231508	0.035117	-0.883045
C195	C	1.248517	-0.014381	-0.893970
H196	H	1.265842	0.062409	-0.896991
H197	H	1.178413	0.035657	-0.899079
H198	H	1.238746	0.040856	-0.845652
H199	H	1.241274	-0.020122	-0.931363
H200	H	1.301624	-0.014922	-0.877937
C201	C	0.941054	-0.258787	-0.604678
C202	C	0.985443	-0.223506	-0.563259
H203	H	0.906731	-0.286087	-0.590732
H204	H	0.910842	-0.240046	-0.630003
H205	H	0.975487	-0.274164	-0.621385
H206	H	0.951010	-0.208126	-0.546555
H207	H	1.015658	-0.242249	-0.537926
H208	H	1.050431	-0.171893	-0.410269
H209	H	1.050414	-0.171917	-0.311204
H210	H	0.443837	-0.119362	-0.119707
H211	H	1.050587	-0.911717	-0.172290
H212	H	1.284613	-0.629112	0.013600
C213	C	0.441748	-0.195834	-0.195896
C214	C	0.469262	-0.155673	-0.155883
H215	H	0.385728	-0.203355	-0.203369
H216	H	0.460430	-0.184335	-0.227154
H217	H	0.460416	-0.227052	-0.184295
H218	H	0.450599	-0.124454	-0.167485
H219	H	0.450572	-0.167170	-0.124618
C220	C	0.575888	-0.200439	-0.263514
C221	C	0.555896	-0.214336	-0.214388
H222	H	0.547877	-0.226916	-0.289910
H223	H	0.562386	-0.167133	-0.273022
H224	H	0.630959	-0.197852	-0.260927
H225	H	0.500825	-0.216920	-0.216973
H226	H	0.569392	-0.247651	-0.204878
C227	C	0.991738	-0.848290	-0.218978
C228	C	1.036120	-0.806829	-0.183734
H229	H	0.957392	-0.834380	-0.246230
H230	H	1.026169	-0.864943	-0.234402
H231	H	0.961545	-0.873661	-0.200204
H232	H	1.066318	-0.781460	-0.202508
H233	H	1.001684	-0.790167	-0.168309
H234	H	0.841268	-0.078514	-0.079022
C235	C	0.699706	-0.217336	-0.280352
C236	C	0.679721	-0.231227	-0.231223
H237	H	0.671694	-0.243816	-0.306744
H238	H	0.686202	-0.184032	-0.289863
H239	H	0.754778	-0.214748	-0.277768
H240	H	0.624650	-0.233811	-0.233806
H241	H	0.693220	-0.264541	-0.221709
