data_functionalizedCrystal
_audit_creation_method	'MofGen! by Chris Wilmer'
_symmetry_space_group_name_H-M	'P1'
_symmetry_Int_Tables_number	1
_symmetry_cell_setting	triclinic
loop_
_symmetry_equiv_pos_as_xyz
  x,y,z
_cell_length_a	12.827893
_cell_length_b	14.908520
_cell_length_c	12.827885
_cell_angle_alpha	93.263516
_cell_angle_beta	89.980728
_cell_angle_gamma	93.320765
loop_
_atom_site_label
_atom_site_type_symbol
_atom_site_fract_x
_atom_site_fract_y
_atom_site_fract_z
Zn1	Zn	1.573615	-0.359110	-0.614816
Zn2	Zn	1.563402	-0.509994	-0.450147
Zn3	Zn	1.398853	-0.359155	-0.440093
Zn4	Zn	1.388739	-0.509927	-0.624842
O5	O	1.481152	-0.434546	-0.532475
O6	O	1.718496	-0.379134	-0.592984
O7	O	1.541533	-0.490031	-0.302580
O8	O	1.430543	-0.232904	-0.454867
O9	O	1.710992	-0.489988	-0.472002
O10	O	1.558939	-0.232872	-0.583235
O11	O	1.420640	-0.379210	-0.295193
O12	O	1.251276	-0.379146	-0.464589
O13	O	1.413305	-0.489875	-0.769745
O14	O	1.243845	-0.489918	-0.600323
O15	O	1.549132	-0.379070	-0.762379
O16	O	1.531726	-0.636229	-0.481724
O17	O	1.403402	-0.636180	-0.610072
C18	C	1.209644	-0.434530	-0.532454
C19	C	1.093489	-0.434544	-0.532471
C20	C	1.045411	-0.379788	-0.592442
C21	C	0.925360	-0.379802	-0.592461
C22	C	1.465386	-0.668939	-0.548100
C23	C	1.458737	-0.769212	-0.554819
C24	C	1.580004	-0.957628	-0.433905
C25	C	1.573760	-1.051844	-0.440215
C26	C	1.440012	-1.051863	-0.573754
C27	C	1.446255	-0.957647	-0.567444
C28	C	1.516253	-0.910532	-0.497516
C29	C	1.522491	-0.816314	-0.491201
C30	C	1.388748	-0.816335	-0.624745
C31	C	1.382504	-0.910551	-0.631055
C32	C	1.753721	-0.434564	-0.532496
C33	C	1.869874	-0.434571	-0.532506
C34	C	1.481229	-0.434460	-0.805039
C35	C	1.481262	-0.434423	-0.921190
C36	C	1.497008	-0.199239	-0.516811
C37	C	1.503765	-0.098965	-0.510136
C38	C	1.548481	-0.379582	-0.969329
C39	C	1.548517	-0.379543	-1.089377
C40	C	1.481140	-0.434568	-0.260966
C41	C	1.481327	-0.434350	-0.144799
H42	H	1.045774	-0.481432	-0.481139
H43	H	0.883999	-0.332925	-0.643808
H44	H	1.636992	-0.919267	-0.376959
Cl45	Cl	1.392441	-0.506865	-0.994766
H46	H	1.423779	-0.481307	-1.103394
H47	H	1.093127	-0.332895	-0.643767
Cl48	Cl	1.637378	-0.307055	-1.153308
Cl49	Cl	1.352036	-1.111108	-0.661670
Cl50	Cl	0.933718	-0.506960	-0.453234
H51	H	1.606000	-0.332658	-0.921667
Cl52	Cl	1.610483	-0.757086	-0.403289
H53	H	1.625675	-1.090186	-0.388418
H54	H	1.325517	-0.948925	-0.687991
H55	H	1.336834	-0.777979	-0.676539
