data_functionalizedCrystal
_audit_creation_method	'MofGen! by Chris Wilmer'
_symmetry_space_group_name_H-M	'P1'
_symmetry_Int_Tables_number	1
_symmetry_cell_setting	triclinic
loop_
_symmetry_equiv_pos_as_xyz
  x,y,z
_cell_length_a	13.032721
_cell_length_b	12.827893
_cell_length_c	13.032328
_cell_angle_alpha	82.835319
_cell_angle_beta	103.288501
_cell_angle_gamma	82.795733
loop_
_atom_site_label
_atom_site_type_symbol
_atom_site_fract_x
_atom_site_fract_y
_atom_site_fract_z
Zn1	Zn	-0.499067	-1.451108	-0.654163
Zn2	Zn	0.000933	-0.951108	-0.154163
Zn3	Zn	-0.654154	-1.450995	-0.499112
Zn4	Zn	-0.154154	-0.950995	0.000888
Zn5	Zn	-0.476565	-1.301776	-0.476587
Zn6	Zn	0.023435	-0.801776	0.023413
Zn7	Zn	-0.676625	-1.250909	-0.676657
Zn8	Zn	-0.176625	-0.750909	-0.176657
O9	O	-0.576603	-1.363697	-0.576630
O10	O	-0.076603	-0.863697	-0.076630
O11	O	-0.519652	-1.597326	-0.633608
O12	O	-0.019652	-1.097326	-0.133608
O13	O	-0.611775	-1.452441	-0.347505
O14	O	-0.111775	-0.952441	0.152495
O15	O	-0.330920	-1.342920	-0.481303
O16	O	0.169080	-0.842920	0.018697
O17	O	-0.633594	-1.597242	-0.519692
O18	O	-0.133594	-1.097242	-0.019692
O19	O	-0.347452	-1.452634	-0.611766
O20	O	0.152548	-0.952634	-0.111766
O21	O	-0.481302	-1.342810	-0.330956
O22	O	0.018698	-0.842810	0.169044
O23	O	-0.503091	-1.148795	-0.503114
O24	O	-0.003091	-0.648795	-0.003114
O25	O	-0.671892	-1.256225	-0.822292
O26	O	-0.171892	-0.756225	-0.322292
O27	O	-0.650073	-1.111424	-0.650105
O28	O	-0.150073	-0.611424	-0.150105
O29	O	-0.541441	-1.403311	-0.805766
O30	O	-0.041441	-0.903311	-0.305766
O31	O	-0.805765	-1.403117	-0.541504
O32	O	-0.305765	-0.903117	-0.041504
O33	O	-0.822274	-1.256115	-0.671946
O34	O	-0.322274	-0.756115	-0.171946
C35	C	-0.576580	-1.092193	-0.576607
C36	C	-0.076580	-0.592193	-0.076607
C37	C	-0.576598	-0.976035	-0.576626
C38	C	-0.076598	-0.476035	-0.076626
C39	C	-0.852561	-1.324109	-0.611633
C40	C	-0.352561	-0.824109	-0.111633
C41	C	-0.970621	-1.307264	-0.626643
C42	C	-0.470621	-0.807264	-0.126643
C43	C	-0.611683	-1.324107	-0.853642
C44	C	-0.111683	-0.824107	-0.353642
C45	C	-0.626632	-1.307236	-0.971688
C46	C	-0.126632	-0.807236	-0.471688
C47	C	-1.015059	-1.372537	-0.568844
C48	C	-0.515059	-0.872537	-0.068844
C49	C	-1.137081	-1.355128	-0.584356
C50	C	-0.637081	-0.855128	-0.084356
C51	C	-0.299570	-1.403464	-0.541513
C52	C	0.200430	-0.903464	-0.041513
C53	C	-0.181515	-1.420410	-0.526548
C54	C	0.318485	-0.920410	-0.026548
C55	C	-0.576627	-1.636261	-0.576653
C56	C	-0.076627	-1.136261	-0.076653
C57	C	-0.576637	-1.752411	-0.576663
C58	C	-0.076637	-1.252411	-0.076663
C59	C	-0.649418	-0.905785	-0.649274
C60	C	-0.149418	-0.405785	-0.149274
C61	C	-0.649440	-0.785729	-0.649295
C62	C	-0.149440	-0.285729	-0.149295
C63	C	-0.584209	-1.355066	-1.138147
C64	C	-0.084209	-0.855066	-0.638147
C65	C	-0.568749	-1.372499	-1.016139
C66	C	-0.068749	-0.872499	-0.516139
C67	C	-0.541582	-1.403204	-0.300686
C68	C	-0.041582	-0.903204	0.199314
C69	C	-0.526334	-1.420320	-0.182602
C70	C	-0.026334	-0.920320	0.317398
H71	H	-0.962771	-1.441312	-0.507878
H72	H	-0.462771	-0.941312	-0.007878
O73	O	-0.664996	-1.263959	-1.207371
O74	O	-0.164996	-0.763959	-0.707371
H75	H	-0.745688	-1.272917	-1.196705
H76	H	-0.245688	-0.772917	-0.696705
O77	O	-0.494056	-0.832337	-0.494267
O78	O	0.005944	-0.332337	0.005733
H79	H	-0.501578	-0.820762	-0.413163
H80	H	-0.001578	-0.320762	0.086837
O81	O	-0.487947	-1.463604	-0.946922
O82	O	0.012053	-0.963604	-0.446922
H83	H	-0.508840	-1.539991	-0.970467
H84	H	-0.008840	-1.039991	-0.470467
O85	O	-0.707427	-1.216122	-1.040901
O86	O	-0.207427	-0.716122	-0.540901
H87	H	-0.788116	-1.225084	-1.030230
H88	H	-0.288116	-0.725084	-0.530230
O89	O	-0.731979	-0.943843	-0.731648
O90	O	-0.231979	-0.443843	-0.231648
H91	H	-0.785320	-0.874120	-0.784874
H92	H	-0.285320	-0.374120	-0.284874
H93	H	-0.514267	-0.947298	-0.514448
H94	H	-0.014267	-0.447298	-0.014448
O95	O	-0.732107	-0.705847	-0.731650
O96	O	-0.232107	-0.205847	-0.231650
H97	H	-0.724668	-0.717409	-0.812781
H98	H	-0.224668	-0.217409	-0.312781
H99	H	-1.129229	-1.489190	-0.465579
H100	H	-0.629229	-0.989190	0.034421
O101	O	-1.206326	-1.264016	-0.665116
O102	O	-0.706326	-0.764016	-0.165116
H103	H	-1.291299	-1.264632	-0.664617
H104	H	-0.791299	-0.764632	-0.164617
O105	O	-1.039870	-1.216156	-0.707399
O106	O	-0.539870	-0.716156	-0.207399
H107	H	-1.124842	-1.216772	-0.706901
H108	H	-0.624842	-0.716772	-0.206901
H109	H	-0.465335	-1.489088	-1.130336
H110	H	0.034665	-0.989088	-0.630336
