data_functionalizedCrystal
_audit_creation_method	'MofGen! by Chris Wilmer'
_symmetry_space_group_name_H-M	'P1'
_symmetry_Int_Tables_number	1
_symmetry_cell_setting	triclinic
loop_
_symmetry_equiv_pos_as_xyz
  x,y,z
_cell_length_a	16.974867
_cell_length_b	16.974939
_cell_length_c	14.421503
_cell_angle_alpha	93.640344
_cell_angle_beta	93.645911
_cell_angle_gamma	83.165077
loop_
_atom_site_label
_atom_site_type_symbol
_atom_site_fract_x
_atom_site_fract_y
_atom_site_fract_z
O1	O	-1.049035	-0.100737	-0.009067
O2	O	-0.818818	-0.113582	0.007229
O3	O	-0.940334	0.007947	0.007218
O4	O	-0.927518	-0.222265	-0.009056
O5	O	-0.940323	0.007960	-0.147004
O6	O	-0.818807	-0.113569	-0.146993
O7	O	-1.049024	-0.100724	-0.163289
Cu8	Cu	-0.933914	-0.107145	-0.169222
Cu9	Cu	-0.933927	-0.107160	0.013162
O10	O	-0.927507	-0.222252	-0.163278
C11	C	-0.789355	-0.113088	-0.067637
C12	C	-0.701580	-0.111627	-0.060948
C13	C	-0.207509	-0.103379	-0.014205
C14	C	-0.289982	-0.104752	-0.020503
C15	C	-0.331204	-0.105437	-0.107719
C16	C	-0.289949	-0.104741	-0.188642
C17	C	-0.207478	-0.103363	-0.182343
C18	C	-0.577855	-0.109553	-0.135572
C19	C	-0.660331	-0.110934	-0.141865
C20	C	-0.660359	-0.110943	0.026275
C21	C	-0.577885	-0.109569	0.032566
C22	C	-0.536639	-0.108870	-0.048357
N23	N	-0.415505	-0.106842	-0.114159
N24	N	-0.452340	-0.107459	-0.041916
C25	C	-0.939838	0.037411	-0.067649
C26	C	-0.938366	0.125182	-0.060962
C27	C	-0.078486	-0.101219	-0.088425
C28	C	-0.166260	-0.102686	-0.095122
C29	C	-0.930153	0.619252	-0.014201
C30	C	-0.931528	0.536780	-0.020502
C31	C	-0.932204	0.495567	-0.107719
C32	C	-0.931512	0.536831	-0.188640
C33	C	-0.930142	0.619302	-0.182338
C34	C	-0.936304	0.248918	-0.135581
C35	C	-0.937672	0.166440	-0.141877
C36	C	-0.937690	0.166395	0.026261
C37	C	-0.936315	0.248868	0.032556
C38	C	-0.935628	0.290125	-0.048365
N39	N	-0.933607	0.411267	-0.114162
N40	N	-0.934230	0.374424	-0.041922
N41	N	-0.933911	-0.107134	-0.297503
C42	C	-0.927999	0.748284	-0.088415
C43	C	-0.929459	0.660510	-0.095116
C44	C	-0.989679	-0.050492	-0.608872
C45	C	-1.005595	-0.121703	-0.553559
C46	C	-0.933928	-0.107156	-0.669395
C47	C	-0.918042	-0.035936	-0.540614
C48	C	-0.933922	-0.107141	-0.486672
C49	C	-0.949879	-0.178403	-0.615449
C50	C	-0.862295	-0.092589	-0.602503
C51	C	-0.878180	-0.163852	-0.547221
C52	C	-0.933934	-0.107164	-0.774657
C53	C	-0.933915	-0.107142	-0.381412
N54	N	-0.933937	-0.107165	0.141443
H55	H	-0.173951	-0.102827	0.056816
O56	O	-1.045900	0.006590	-0.641338
C57	C	-1.044685	0.006266	-0.739027
H58	H	-0.983937	-0.021351	-0.761811
H59	H	-1.056646	0.069856	-0.761888
H60	H	-1.092490	-0.029968	-0.772375
H61	H	-0.801738	-0.080246	-0.624234
H62	H	-0.904607	0.024287	-0.507959
H63	H	-0.323564	-0.105311	0.045389
H64	H	-0.544328	-0.109011	0.103587
O65	O	-1.077913	-0.136269	-0.527688
C66	C	-1.136527	-0.076412	-0.559090
H67	H	-1.107715	-0.020654	-0.570122
H68	H	-1.183002	-0.062191	-0.504939
H69	H	-1.166261	-0.097990	-0.627599
O70	O	-0.700501	-0.111724	0.104805
C71	C	-0.739164	-0.180975	0.101764
H72	H	-0.748495	-0.203999	0.026349
H73	H	-0.799195	-0.166550	0.133914
H74	H	-0.701067	-0.228371	0.142569
O75	O	-0.935739	0.289052	-0.214154
C76	C	-1.003365	0.345809	-0.220015
H77	H	-1.051652	0.327253	-0.177365
H78	H	-1.026280	0.349812	-0.295804
H79	H	-0.986849	0.406257	-0.191617
O80	O	-0.537911	-0.108919	-0.214273
C81	C	-0.591984	-0.109805	-0.292598
H82	H	-0.647475	-0.135808	-0.274059
H83	H	-0.563087	-0.147775	-0.352066
H84	H	-0.609115	-0.046551	-0.315005
O85	O	-0.966036	-0.250202	-0.654423
C86	C	-0.965867	-0.249335	-0.752106
H87	H	-0.977797	-0.185403	-0.773814
H88	H	-1.014168	-0.284978	-0.785368
H89	H	-0.905500	-0.276925	-0.776125
O90	O	-0.700479	-0.111492	-0.226532
C91	C	-0.757202	-0.043838	-0.230760
H92	H	-0.772573	-0.021232	-0.157228
H93	H	-0.813161	-0.060202	-0.271761
H94	H	-0.731740	0.004626	-0.266711
H95	H	-0.323519	-0.105294	-0.259656
H96	H	-0.932095	0.503192	0.045387
O97	O	-0.932185	0.496924	-0.273438
C98	C	-0.931251	0.551024	-0.343503
H99	H	-0.955315	0.613100	-0.316005
H100	H	-0.969990	0.532260	-0.406631
H101	H	-0.867695	0.551458	-0.364528
H102	H	-0.173893	-0.102807	-0.248236
H103	H	-0.831028	-0.211816	-0.520322
H104	H	-0.929576	0.652894	-0.248228
O105	O	-0.929516	0.659164	0.070596
C106	C	-0.930396	0.605055	0.140662
H107	H	-0.956405	0.549578	0.109900
H108	H	-0.968358	0.633926	0.198793
H109	H	-0.867138	0.587909	0.169951
O110	O	-0.938432	0.126341	-0.226565
C111	C	-1.007673	0.087666	-0.239723
H112	H	-1.030708	0.078285	-0.169168
H113	H	-0.993229	0.027659	-0.278739
H114	H	-1.055070	0.125779	-0.281900
H115	H	-0.935771	0.282419	0.103577
H116	H	-0.938250	0.132795	0.092143
