data_functionalizedCrystal
_audit_creation_method	'MofGen! by Chris Wilmer'
_symmetry_space_group_name_H-M	'P1'
_symmetry_Int_Tables_number	1
_symmetry_cell_setting	triclinic
loop_
_symmetry_equiv_pos_as_xyz
  x,y,z
_cell_length_a	6.817900
_cell_length_b	16.255661
_cell_length_c	16.255699
_cell_angle_alpha	95.343798
_cell_angle_beta	103.489404
_cell_angle_gamma	103.488922
loop_
_atom_site_label
_atom_site_type_symbol
_atom_site_fract_x
_atom_site_fract_y
_atom_site_fract_z
V1	V	-4.026708	-0.264153	-0.117774
O2	O	-4.014191	-0.258836	0.004956
O3	O	-3.978255	-0.262625	-0.232849
O4	O	-3.978270	-0.379233	-0.116271
O5	O	-4.014176	-0.141420	-0.112429
V6	V	-4.510347	-0.249440	-0.103057
O7	O	-4.287710	-0.296429	-0.150055
O8	O	-4.699542	-0.217164	-0.070776
O9	O	-4.335593	-0.250969	0.012018
O10	O	-4.640261	-0.254757	-0.225787
O11	O	-4.640276	-0.372173	-0.108402
O12	O	-4.335579	-0.134360	-0.104560
C13	C	-3.823245	-0.258529	-0.260892
C14	C	-3.864916	-0.258046	-0.354970
C15	C	-3.775496	-0.252513	-0.577782
C16	C	-3.859152	-0.184316	-0.625224
C17	C	-3.941316	-0.257203	-0.527222
C18	C	-3.931935	-0.324549	-0.647410
C19	C	-4.015103	-0.256392	-0.693609
C20	C	-4.024394	-0.188954	-0.573415
C21	C	-4.097180	-0.329250	-0.595606
C22	C	-4.180955	-0.261038	-0.643023
C23	C	-3.898803	-0.257670	-0.431370
C24	C	-4.057627	-0.255920	-0.789458
C25	C	-3.823262	-0.407274	-0.112184
C26	C	-3.864942	-0.501354	-0.111717
C27	C	-3.775498	-0.724159	-0.106134
C28	C	-3.931912	-0.793808	-0.178190
C29	C	-3.941326	-0.673600	-0.110841
C30	C	-3.859203	-0.771587	-0.037959
C31	C	-4.015094	-0.839982	-0.109990
C32	C	-4.097222	-0.742019	-0.182961
C33	C	-4.024451	-0.719783	-0.042667
C34	C	-4.181001	-0.789412	-0.114744
C35	C	-3.898825	-0.577752	-0.111331
C36	C	-4.057612	-0.935829	-0.109506
C37	C	-4.153946	-0.255062	0.040057
C38	C	-4.091513	-0.255550	0.134133
C39	C	-4.153929	-0.106315	-0.108650
C40	C	-4.091487	-0.012234	-0.109113
H41	H	-4.063030	-0.131590	-0.541300
N42	N	-4.229765	-0.410422	-0.577746
H43	H	-4.324463	-0.395509	-0.542656
H44	H	-4.317253	-0.447214	-0.633704
H45	H	-3.603670	-0.248827	-0.549269
H46	H	-3.758971	-0.785050	0.023305
H47	H	-3.758964	-0.123033	-0.638672
N48	N	-4.408557	-0.265782	-0.680581
H49	H	-4.475254	-0.319127	-0.724637
H50	H	-4.482672	-0.267704	-0.633484
N51	N	-4.229960	-0.724383	-0.264226
H52	H	-4.318477	-0.780366	-0.300685
H53	H	-4.323667	-0.688802	-0.249312
N54	N	-3.880664	-0.400442	-0.690078
H55	H	-3.727869	-0.397135	-0.666207
H56	H	-3.969179	-0.455113	-0.678752
N57	N	-3.547990	-0.686419	-0.101425
H58	H	-3.512967	-0.713611	-0.152681
H59	H	-3.521079	-0.622604	-0.101210
H60	H	-4.063048	-0.687537	0.014633
N61	N	-3.880705	-0.836495	-0.254089
H62	H	-3.727919	-0.812633	-0.250802
H63	H	-3.910879	-0.900252	-0.253474
N64	N	-4.408656	-0.826973	-0.119580
H65	H	-4.498602	-0.816472	-0.174342
H66	H	-4.435331	-0.890621	-0.118692
