data_functionalizedCrystal
_audit_creation_method	'MofGen! by Chris Wilmer'
_symmetry_space_group_name_H-M	'P1'
_symmetry_Int_Tables_number	1
_symmetry_cell_setting	triclinic
loop_
_symmetry_equiv_pos_as_xyz
  x,y,z
_cell_length_a	27.732048
_cell_length_b	27.732048
_cell_length_c	26.809956
_cell_angle_alpha	90.024436
_cell_angle_beta	89.995970
_cell_angle_gamma	82.642655
loop_
_atom_site_label
_atom_site_type_symbol
_atom_site_fract_x
_atom_site_fract_y
_atom_site_fract_z
O1	O	0.640924	0.057528	0.041421
O2	O	1.140924	0.557528	0.541421
O3	O	0.500130	0.066273	0.041436
O4	O	1.000130	0.566273	0.541436
O5	O	0.574900	-0.008496	0.041419
O6	O	1.074900	0.491504	0.541419
O7	O	0.566154	0.132297	0.041439
O8	O	1.066154	0.632297	0.541439
O9	O	0.574900	-0.008520	-0.041541
O10	O	1.074900	0.491480	0.458459
O11	O	0.500131	0.066249	-0.041523
O12	O	1.000131	0.566249	0.458477
O13	O	0.640924	0.057504	-0.041539
O14	O	1.140924	0.557504	0.458461
Zn15	Zn	0.570528	0.061873	-0.054702
Zn16	Zn	1.070528	0.561873	0.445298
Zn17	Zn	0.570527	0.061904	0.054600
Zn18	Zn	1.070527	0.561904	0.554600
O19	O	0.566155	0.132273	-0.041521
O20	O	1.066155	0.632273	0.458479
C21	C	0.482124	0.066078	-0.000041
C22	C	0.982124	0.566078	0.499959
C23	C	0.428469	0.065525	-0.000036
C24	C	0.928469	0.565525	0.499964
C25	C	0.089654	0.106229	-0.000051
C26	C	0.589654	0.606229	0.499949
C27	C	-0.112006	0.104178	-0.000056
C28	C	0.387994	0.604178	0.499944
O29	O	-0.143262	0.141398	-0.000073
O30	O	0.356738	0.641398	0.499927
N31	N	-0.131130	0.059843	-0.000062
N32	N	0.368870	0.559843	0.499938
C33	C	-0.099835	0.016017	-0.000069
C34	C	0.400165	0.516017	0.499931
O35	O	-0.120728	-0.021740	-0.000079
O36	O	0.379272	0.478260	0.499921
C37	C	0.101824	0.018068	-0.000068
C38	C	0.601824	0.518068	0.499932
C39	C	0.120944	0.062407	-0.000057
C40	C	0.620944	0.562407	0.499943
C41	C	0.108775	0.150563	-0.000042
C42	C	0.608775	0.650563	0.499958
C43	C	0.159187	0.151075	-0.000038
C44	C	0.659187	0.651075	0.499962
C45	C	0.190477	0.107253	-0.000044
C46	C	0.690477	0.607253	0.499956
C47	C	0.171356	0.062919	-0.000054
C48	C	0.671356	0.562919	0.499946
C49	C	0.133117	-0.025757	-0.000079
C50	C	0.633117	0.474243	0.499921
C51	C	0.183535	-0.025240	-0.000080
C52	C	0.683535	0.474760	0.499920
C53	C	0.202655	0.019098	-0.000069
C54	C	0.702655	0.519098	0.499931
C55	C	0.253059	0.019609	-0.000056
C56	C	0.753059	0.519609	0.499944
N57	N	0.272183	0.063944	-0.000050
N58	N	0.772183	0.563944	0.499950
C59	C	0.240892	0.107766	-0.000044
C60	C	0.740892	0.607766	0.499956
C61	C	-0.205709	0.014943	-0.000069
C62	C	0.294291	0.514943	0.499931
C63	C	-0.256124	0.014430	-0.000068
C64	C	0.243876	0.514430	0.499932
C65	C	-0.268291	0.102591	-0.000056
C66	C	0.231709	0.602591	0.499944
C67	C	-0.217876	0.103103	-0.000053
C68	C	0.282124	0.603103	0.499947
C69	C	-0.186585	0.059278	-0.000063
C70	C	0.313415	0.559278	0.499937
C71	C	0.346761	0.108839	-0.000036
C72	C	0.846761	0.608839	0.499964
C73	C	0.397178	0.109347	-0.000030
C74	C	0.897178	0.609347	0.499970
C75	C	0.409341	0.021186	-0.000044
C76	C	0.909341	0.521186	0.499956
C77	C	0.358929	0.020678	-0.000048
C78	C	0.858929	0.520678	0.499952
C79	C	0.327639	0.064508	-0.000045
C80	C	0.827639	0.564508	0.499955
O81	O	0.284343	-0.017592	-0.000045
O82	O	0.784343	0.482408	0.499955
O83	O	0.261794	0.145518	-0.000045
O84	O	0.761794	0.645518	0.499955
C85	C	0.039242	0.105716	-0.000055
C86	C	0.539242	0.605716	0.499945
C87	C	0.020120	0.061382	-0.000065
C88	C	0.520120	0.561382	0.499935
C89	C	0.051411	0.017560	-0.000071
C90	C	0.551411	0.517560	0.499929
C91	C	-0.030294	0.060869	-0.000065
C92	C	0.469706	0.560869	0.499935
C93	C	-0.061585	0.104691	-0.000059
C94	C	0.438415	0.604691	0.499941
C95	C	-0.042461	0.149026	-0.000053
C96	C	0.457539	0.649026	0.499947
C97	C	0.007951	0.149539	-0.000049
C98	C	0.507951	0.649539	0.499951
C99	C	0.032287	-0.026775	-0.000077
C100	C	0.532287	0.473225	0.499923
C101	C	-0.018125	-0.027284	-0.000080
C102	C	0.481875	0.472716	0.499920
C103	C	-0.049416	0.016538	-0.000074
C104	C	0.450584	0.516538	0.499926
C105	C	0.574716	-0.026515	-0.000062
C106	C	1.074716	0.473485	0.499938
C107	C	0.574164	-0.080170	-0.000066
C108	C	1.074164	0.419830	0.499934
C109	C	0.614867	-0.418985	-0.000045
C110	C	1.114867	0.081015	0.499955
C111	C	0.612816	-0.620645	-0.000038
C112	C	1.112816	-0.120645	0.499962
O113	O	0.650037	-0.651900	-0.000021
O114	O	1.150037	-0.151900	0.499979
N115	N	0.568481	-0.639768	-0.000034
N116	N	1.068481	-0.139768	0.499966
C117	C	0.524656	-0.608474	-0.000028
C118	C	1.024656	-0.108474	0.499972
O119	O	0.486899	-0.629367	-0.000019
O120	O	0.986899	-0.129367	0.499981
C121	C	0.526707	-0.406815	-0.000031
C122	C	1.026707	0.093185	0.499969
C123	C	0.571045	-0.387694	-0.000041
C124	C	1.071045	0.112306	0.499959
C125	C	0.659202	-0.399864	-0.000054
C126	C	1.159202	0.100136	0.499946
C127	C	0.659714	-0.349452	-0.000059
C128	C	1.159714	0.150548	0.499941
C129	C	0.615892	-0.318161	-0.000054
C130	C	1.115892	0.181839	0.499946
C131	C	0.571557	-0.337282	-0.000045
C132	C	1.071557	0.162718	0.499955
C133	C	0.482882	-0.375521	-0.000022
C134	C	0.982882	0.124479	0.499978
C135	C	0.483399	-0.325104	-0.000021
C136	C	0.983399	0.174896	0.499979
C137	C	0.527737	-0.305983	-0.000031
C138	C	1.027737	0.194017	0.499969
C139	C	0.528248	-0.255580	-0.000045
C140	C	1.028248	0.244420	0.499955
N141	N	0.572583	-0.236456	-0.000050
N142	N	1.072583	0.263544	0.499950
C143	C	0.616405	-0.267747	-0.000054
C144	C	1.116405	0.232253	0.499946
C145	C	0.523582	-0.714348	-0.000027
C146	C	1.023582	-0.214348	0.499973
C147	C	0.523069	-0.764762	-0.000027
C148	C	1.023069	-0.264762	0.499973
C149	C	0.611230	-0.776930	-0.000036
C150	C	1.111230	-0.276930	0.499964
C151	C	0.611742	-0.726514	-0.000040
C152	C	1.111742	-0.226514	0.499960
C153	C	0.567917	-0.695224	-0.000031
C154	C	1.067917	-0.195224	0.499969
C155	C	0.617477	-0.161878	-0.000064
C156	C	1.117477	0.338122	0.499936
C157	C	0.617986	-0.111461	-0.000071
C158	C	1.117986	0.388539	0.499929
C159	C	0.529825	-0.099298	-0.000059
C160	C	1.029825	0.400702	0.499941
C161	C	0.529316	-0.149710	-0.000055
C162	C	1.029316	0.350290	0.499945
C163	C	0.573147	-0.180999	-0.000056
C164	C	1.073147	0.319001	0.499944
O165	O	0.491047	-0.224296	-0.000057
O166	O	0.991047	0.275704	0.499943
O167	O	0.654156	-0.246844	-0.000053
O168	O	1.154156	0.253156	0.499947
C169	C	0.614355	-0.469397	-0.000041
C170	C	1.114355	0.030603	0.499959
C171	C	0.570021	-0.488518	-0.000032
C172	C	1.070021	0.011482	0.499968
C173	C	0.526198	-0.457228	-0.000027
C174	C	1.026198	0.042772	0.499973
C175	C	0.569508	-0.538933	-0.000032
C176	C	1.069508	-0.038933	0.499968
C177	C	0.613330	-0.570223	-0.000036
C178	C	1.113330	-0.070223	0.499964
C179	C	0.657665	-0.551100	-0.000041
C180	C	1.157665	-0.051100	0.499959
C181	C	0.658177	-0.500688	-0.000045
C182	C	1.158177	-0.000688	0.499955
C183	C	0.481863	-0.476351	-0.000023
C184	C	0.981863	0.023649	0.499977
C185	C	0.481355	-0.526764	-0.000019
C186	C	0.981355	-0.026764	0.499981
C187	C	0.525177	-0.558054	-0.000023
C188	C	1.025177	-0.058054	0.499977
C189	C	0.658931	0.057699	-0.000060
C190	C	1.158931	0.557699	0.499940
C191	C	0.712586	0.058252	-0.000062
C192	C	1.212586	0.558252	0.499938
C193	C	0.566338	0.150292	-0.000039
C194	C	1.066338	0.650292	0.499961
C195	C	0.566891	0.203947	-0.000031
C196	C	1.066891	0.703947	0.499969
N197	N	0.570532	0.061851	-0.129298
N198	N	1.070532	0.561851	0.370702
N199	N	0.570527	0.061922	0.129196
N200	N	1.070527	0.561922	0.629196
C201	C	0.541500	0.032700	0.473821
C202	C	1.041500	0.532700	0.973821
C203	C	0.541501	0.032683	0.682699
C204	C	1.041501	0.532683	1.182699
O205	O	0.516826	0.007851	0.709702
O206	O	1.016826	0.507851	1.209702
N207	N	0.570533	0.061861	0.708823
N208	N	1.070533	0.561861	1.208823
C209	C	0.599569	0.091043	0.682725
C210	C	1.099569	0.591043	1.182725
O211	O	0.624266	0.115856	0.709738
O212	O	1.124266	0.615856	1.209738
C213	C	0.599570	0.091056	0.473848
C214	C	1.099570	0.591056	0.973848
C215	C	0.570533	0.061880	0.447727
C216	C	1.070533	0.561880	0.947727
C217	C	0.512465	0.003525	0.447699
C218	C	1.012465	0.503525	0.947699
C219	C	0.512463	0.003532	0.395483
C220	C	1.012463	0.503532	0.895483
C221	C	0.541496	0.032712	0.369388
C222	C	1.041496	0.532712	0.869388
C223	C	0.570531	0.061887	0.395510
C224	C	1.070531	0.561887	0.895510
C225	C	0.628608	0.120235	0.447751
C226	C	1.128608	0.620235	0.947751
C227	C	0.628607	0.120235	0.395529
C228	C	1.128607	0.620235	0.895529
C229	C	0.599570	0.091059	0.369407
C230	C	1.099570	0.591059	0.869407
C231	C	0.599561	0.091074	0.317199
C232	C	1.099561	0.591074	0.817199
N233	N	0.570530	0.061896	0.291075
N234	N	1.070530	0.561896	0.791075
C235	C	0.541497	0.032715	0.317170
C236	C	1.041497	0.532715	0.817170
C237	C	0.599565	0.091034	0.792388
C238	C	1.099565	0.591034	1.292388
C239	C	0.599564	0.091032	0.844607
C240	C	1.099564	0.591032	1.344607
C241	C	0.541497	0.032671	0.844577
C242	C	1.041497	0.532671	1.344577
C243	C	0.541496	0.032677	0.792357
C244	C	1.041496	0.532677	1.292357
C245	C	0.570533	0.061856	0.766264
C246	C	1.070533	0.561856	1.266264
C247	C	0.541495	0.032731	0.207512
C248	C	1.041495	0.532731	0.707512
C249	C	0.541494	0.032742	0.155291
C250	C	1.041494	0.532742	0.655291
C251	C	0.599563	0.091100	0.155325
C252	C	1.099563	0.591100	0.655325
C253	C	0.599562	0.091092	0.207541
C254	C	1.099562	0.591092	0.707541
C255	C	0.570527	0.061903	0.233633
C256	C	1.070527	0.561903	0.733633
O257	O	0.624227	0.115889	0.290164
O258	O	1.124227	0.615889	0.790164
O259	O	0.516812	0.007897	0.290147
O260	O	1.016812	0.507897	0.790147
C261	C	0.541502	0.032693	0.526037
C262	C	1.041502	0.532693	1.026037
C263	C	0.570537	0.061867	0.552159
C264	C	1.070537	0.561867	1.052159
C265	C	0.599569	0.091048	0.526065
C266	C	1.099569	0.591048	1.026065
C267	C	0.570536	0.061865	0.604378
C268	C	1.070536	0.561865	1.104378
C269	C	0.541503	0.032684	0.630473
C270	C	1.041503	0.532684	1.130473
C271	C	0.512471	0.003506	0.604348
C272	C	1.012471	0.503506	1.104348
C273	C	0.512469	0.003513	0.552132
C274	C	1.012469	0.503513	1.052132
C275	C	0.628601	0.120226	0.552189
C276	C	1.128601	0.620226	1.052189
C277	C	0.628600	0.120218	0.604405
C278	C	1.128600	0.620218	1.104405
C279	C	0.599567	0.091037	0.630500
C280	C	1.099567	0.591037	1.130500
H281	H	-0.067947	0.184708	-0.000046
H282	H	0.432053	0.684708	0.499954
F283	F	0.313468	0.155488	-0.000033
F284	F	0.813468	0.655488	0.499967
F285	F	0.442651	-0.025450	-0.000051
F286	F	0.942651	0.474550	0.499949
H287	H	0.652245	0.143981	0.625669
H288	H	1.152245	0.643981	1.125669
H289	H	0.653168	-0.187348	-0.000063
H290	H	1.153168	0.312652	0.499937
H291	H	0.647846	-0.710950	-0.000047
H292	H	1.147846	-0.210950	0.499953
F293	F	0.417524	0.156540	-0.000017
F294	F	0.917524	0.656540	0.499983
F295	F	0.630461	0.122094	0.872402
F296	F	1.130461	0.622094	1.372402
F297	F	0.112779	-0.072948	-0.000083
F298	F	0.612779	0.427052	0.499917
F299	F	0.657869	-0.810240	-0.000040
F300	F	1.157869	-0.310240	0.499960
H301	H	0.695819	-0.333889	-0.000065
H302	H	1.195819	0.166111	0.499935
H303	H	0.654093	-0.095896	-0.000080
H304	H	1.154093	0.404104	0.499920
F305	F	0.481559	-0.027523	0.367689
F306	F	0.981559	0.472477	0.867689
H307	H	-0.033688	-0.063392	-0.000085
H308	H	0.466312	0.436608	0.499915
F309	F	0.435691	-0.395860	-0.000009
F310	F	0.935691	0.104140	0.499991
F311	F	0.481559	-0.027532	0.475463
F312	F	0.981559	0.472468	0.975463
H313	H	0.174750	0.187180	-0.000029
H314	H	0.674750	0.687180	0.499971
F315	F	0.075480	0.197209	-0.000035
F316	F	0.575480	0.697209	0.499965
H317	H	0.694889	-0.425336	-0.000056
H318	H	1.194889	0.074664	0.499944
H319	H	0.447710	-0.299629	-0.000014
H320	H	0.947710	0.200371	0.499986
H321	H	-0.202311	0.139207	-0.000047
H322	H	0.297689	0.639207	0.499953
H323	H	0.486964	-0.780325	-0.000028
H324	H	0.986964	-0.280325	0.499972
F325	F	0.434160	-0.547107	-0.000012
F326	F	0.934160	-0.047107	0.499988
H327	H	0.517851	0.008963	0.228749
H328	H	1.017851	0.508963	0.728749
F329	F	0.216833	-0.071886	-0.000092
F330	F	0.716833	0.428114	0.499908
H331	H	0.023514	0.185643	-0.000042
H332	H	0.523514	0.685643	0.499958
H333	H	0.487892	-0.688875	-0.000020
H334	H	0.987892	-0.188875	0.499980
H335	H	0.517851	0.008919	0.771093
H336	H	1.017851	0.508919	1.271093
H337	H	0.057760	-0.062462	-0.000083
H338	H	0.557760	0.437538	0.499917
F339	F	0.482127	-0.170060	-0.000054
F340	F	0.982127	0.329940	0.499946
F341	F	-0.172413	-0.031705	-0.000079
F342	F	0.327587	0.468295	0.499921
F343	F	0.659503	0.151286	0.524424
F344	F	1.159503	0.651286	1.024424
H345	H	0.446177	-0.450879	-0.000018
H346	H	0.946177	0.049121	0.499982
H347	H	0.623212	0.114797	0.771148
H348	H	1.123212	0.614797	1.271148
H349	H	0.494146	-0.073812	-0.000057
H350	H	0.994146	0.426188	0.499943
H351	H	0.694282	-0.485125	-0.000053
H352	H	1.194282	0.014875	0.499947
H353	H	0.693347	-0.576585	-0.000047
H354	H	1.193347	-0.076585	0.499953
F355	F	0.510586	0.001688	0.127493
F356	F	1.010586	0.501688	0.627493
H357	H	0.343360	-0.015426	-0.000049
H358	H	0.843360	0.484574	0.499951
H359	H	0.517856	0.008913	0.865832
H360	H	1.017856	0.508913	1.365832
F361	F	0.659506	0.151298	0.475541
F362	F	1.159506	0.651298	0.975541
F363	F	0.659515	0.151291	0.367761
F364	F	1.159515	0.651291	0.867761
F365	F	0.630470	0.122140	0.235343
F366	F	1.130470	0.622140	0.735343
F367	F	0.630457	0.122157	0.127544
F368	F	1.130457	0.622157	0.627544
H369	H	0.488830	-0.020251	0.625603
H370	H	0.988830	0.479749	1.125603
F371	F	-0.301601	0.149230	-0.000050
F372	F	0.198399	0.649230	0.499950
F373	F	-0.276468	-0.032761	-0.000068
F374	F	0.223532	0.467239	0.499932
F375	F	0.481563	-0.027541	0.524338
F376	F	0.981563	0.472459	1.024338
