data_functionalizedCrystal
_audit_creation_method	'MofGen! by Chris Wilmer'
_symmetry_space_group_name_H-M	'P1'
_symmetry_Int_Tables_number	1
_symmetry_cell_setting	triclinic
loop_
_symmetry_equiv_pos_as_xyz
  x,y,z
_cell_length_a	10.686220
_cell_length_b	16.120484
_cell_length_c	16.120297
_cell_angle_alpha	84.385569
_cell_angle_beta	82.988280
_cell_angle_gamma	97.070967
loop_
_atom_site_label
_atom_site_type_symbol
_atom_site_fract_x
_atom_site_fract_y
_atom_site_fract_z
Zn1	Zn	1.879493	-0.256272	0.389220
Zn2	Zn	1.879333	-0.388970	0.256539
Zn3	Zn	1.678100	-0.259974	0.260207
Zn4	Zn	1.655321	-0.407986	0.408208
O5	O	1.773062	-0.328300	0.328544
O6	O	2.057505	-0.264366	0.362138
O7	O	1.862105	-0.365449	0.139559
O8	O	1.714416	-0.142004	0.270909
O9	O	2.057388	-0.361859	0.264658
O10	O	1.862378	-0.139284	0.365694
O11	O	1.714260	-0.270676	0.142253
O12	O	1.497046	-0.289116	0.289321
O13	O	1.675592	-0.394270	0.523156
O14	O	1.480310	-0.397860	0.398057
O15	O	1.840291	-0.282806	0.509206
O16	O	1.840017	-0.508971	0.283070
O17	O	1.675437	-0.522942	0.394501
C18	C	1.442516	-0.345954	0.346148
C19	C	1.301103	-0.353528	0.353700
C20	C	1.755271	-0.546417	0.340464
C21	C	1.747774	-0.639723	0.345586
C22	C	1.734092	-0.810554	0.354954
C23	C	1.812259	-0.845195	0.302135
C24	C	1.804646	-0.940251	0.307347
C25	C	1.741703	-0.715490	0.349743
C26	C	2.104899	-0.310579	0.310871
C27	C	2.246308	-0.303026	0.303340
C28	C	1.755418	-0.340246	0.547490
C29	C	1.747900	-0.345337	0.640792
C30	C	1.790956	-0.109332	0.316593
C31	C	1.798581	-0.016020	0.311500
C32	C	1.790715	-0.316336	0.110441
C33	C	1.798500	-0.310996	0.017114
C34	C	1.734127	-0.354615	0.811617
C35	C	1.812268	-0.301721	0.846295
C36	C	1.804605	-0.306883	0.941347
C37	C	1.741789	-0.349454	0.716556
H38	H	1.307581	-0.253997	0.254447
H39	H	1.239823	-0.402566	0.402591
H40	H	1.661481	-0.403773	0.853313
H41	H	1.884895	-0.803461	0.253000
C42	C	1.635956	-0.866932	0.421320
N43	N	1.562035	-0.909405	0.471303
H44	H	1.884920	-0.252559	0.804596
