data_functionalizedCrystal
_audit_creation_method	'MofGen! by Chris Wilmer'
_symmetry_space_group_name_H-M	'P1'
_symmetry_Int_Tables_number	1
_symmetry_cell_setting	triclinic
loop_
_symmetry_equiv_pos_as_xyz
  x,y,z
_cell_length_a	17.077404
_cell_length_b	16.120444
_cell_length_c	17.077396
_cell_angle_alpha	87.130511
_cell_angle_beta	90.018362
_cell_angle_gamma	92.924506
loop_
_atom_site_label
_atom_site_type_symbol
_atom_site_fract_x
_atom_site_fract_y
_atom_site_fract_z
Zn1	Zn	1.184186	-0.331953	0.459656
Zn2	Zn	1.684186	0.168047	0.959656
Zn3	Zn	1.177428	-0.471378	0.335042
Zn4	Zn	1.677428	0.028622	0.835042
Zn5	Zn	1.052917	-0.331977	0.328408
Zn6	Zn	1.552917	0.168023	0.828408
Zn7	Zn	1.046224	-0.471323	0.466265
Zn8	Zn	1.546224	0.028677	0.966265
O9	O	1.115189	-0.401658	0.397343
O10	O	1.615189	0.098342	0.897343
O11	O	1.293136	-0.350461	0.443136
O12	O	1.793136	0.149539	0.943136
O13	O	1.160885	-0.452919	0.224316
O14	O	1.660885	0.047081	0.724316
O15	O	1.075959	-0.215308	0.340276
O16	O	1.575959	0.284692	0.840276
O17	O	1.288171	-0.452896	0.351582
O18	O	1.788171	0.047104	0.851582
O19	O	1.172402	-0.215290	0.436703
O20	O	1.672402	0.284710	0.936703
O21	O	1.069407	-0.350502	0.219442
O22	O	1.569407	0.149498	0.719442
O23	O	0.942183	-0.350449	0.346684
O24	O	1.442183	0.149551	0.846684
O25	O	1.064552	-0.452802	0.575234
O26	O	1.564552	0.047198	1.075234
O27	O	0.937265	-0.452825	0.447968
O28	O	1.437265	0.047175	0.947968
O29	O	1.165912	-0.350408	0.570378
O30	O	1.665912	0.149592	1.070378
O31	O	1.154395	-0.588036	0.357991
O32	O	1.654395	-0.088036	0.857991
O33	O	1.057999	-0.587996	0.454400
O34	O	1.557999	-0.087996	0.954400
C35	C	0.911242	-0.401634	0.397324
C36	C	1.411242	0.098366	0.897324
C37	C	0.823992	-0.401644	0.397335
C38	C	1.323992	0.098356	0.897335
C39	C	0.785583	-0.348401	0.445088
C40	C	1.285583	0.151599	0.945088
C41	C	0.703602	-0.348407	0.445092
C42	C	1.203602	0.151593	0.945092
C43	C	0.660032	-0.401660	0.397347
C44	C	1.160032	0.098340	0.897347
C45	C	0.698446	-0.454905	0.349588
C46	C	1.198446	0.045095	0.849588
C47	C	0.780425	-0.454894	0.349581
C48	C	1.280425	0.045106	0.849581
C49	C	0.527575	-0.454924	0.349609
C50	C	1.027575	0.045076	0.849609
C51	C	0.445590	-0.454935	0.349617
C52	C	0.945590	0.045065	0.849617
C53	C	0.450752	-0.348436	0.445120
C54	C	0.950752	0.151564	0.945120
C55	C	0.532731	-0.348426	0.445113
C56	C	1.032731	0.151574	0.945113
C57	C	0.571140	-0.401672	0.397355
C58	C	1.071140	0.098328	0.897355
C59	C	1.104758	-0.618266	0.407650
C60	C	1.604758	-0.118266	0.907650
C61	C	1.100368	-0.710932	0.412086
C62	C	1.600368	-0.210932	0.912086
C63	C	1.138156	-0.921875	0.374500
C64	C	1.638156	-0.421875	0.874500
C65	C	1.092367	-0.880589	0.420193
C66	C	1.592367	-0.380589	0.920193
C67	C	1.096820	-0.786183	0.415681
C68	C	1.596820	-0.286183	0.915681
C69	C	1.133704	-1.016289	0.379012
C70	C	1.633704	-0.516289	0.879012
C71	C	1.319932	-0.401682	0.397362
C72	C	1.819932	0.098318	0.897362
C73	C	1.407181	-0.401692	0.397370
C74	C	1.907181	0.098308	0.897370
C75	C	1.115239	-0.401596	0.602084
C76	C	1.615239	0.098404	1.102084
C77	C	1.115261	-0.401570	0.689333
C78	C	1.615261	0.098430	1.189333
C79	C	1.125681	-0.184203	0.387012
C80	C	1.625681	0.315797	0.887012
C81	C	1.130153	-0.091537	0.382610
C82	C	1.630153	0.408463	0.882610
C83	C	1.115187	-0.401659	0.193395
C84	C	1.615187	0.098341	0.693395
C85	C	1.115328	-0.401450	0.106135
C86	C	1.615328	0.098550	0.606135
C87	C	1.168041	-0.348249	0.727795
C88	C	1.668041	0.151751	1.227795
C89	C	1.168052	-0.348221	0.809775
C90	C	1.668052	0.151779	1.309775
C91	C	1.115285	-0.401519	0.853290
C92	C	1.615285	0.098481	1.353290
C93	C	1.062499	-0.454843	0.814821
C94	C	1.562499	0.045157	1.314821
C95	C	1.062485	-0.454866	0.732843
C96	C	1.562485	0.045134	1.232843
C97	C	1.062533	-0.454793	0.985689
C98	C	1.562533	0.045207	1.485689
C99	C	1.062548	-0.454771	1.067673
C100	C	1.562548	0.045229	1.567673
C101	C	1.168100	-0.348148	1.062620
C102	C	1.668100	0.151852	1.562620
C103	C	1.168086	-0.348171	0.980642
C104	C	1.668086	0.151829	1.480642
C105	C	1.115301	-0.401496	0.942180
C106	C	1.615301	0.098504	1.442180
H107	H	0.821053	-0.305039	0.483971
H108	H	1.321053	0.194961	0.983971
H109	H	1.049821	-0.916144	0.462700
H110	H	1.549821	-0.416144	0.962700
H111	H	1.019538	-0.498202	0.954375
H112	H	1.519538	0.001798	1.454375
N113	N	1.191526	-0.877266	0.321186
N114	N	1.691526	-0.377266	0.821186
N115	N	1.195110	-0.799528	0.317555
N116	N	1.695110	-0.299528	0.817555
H117	H	1.232801	-0.768013	0.279901
H118	H	1.732801	-0.268013	0.779901
H119	H	1.211012	-0.304850	0.692371
H120	H	1.711012	0.195150	1.192371
H121	H	1.211033	-0.304804	0.841087
H122	H	1.711033	0.195196	1.341087
N123	N	1.221997	-0.293733	0.936203
N124	N	1.721997	0.206267	1.436203
N125	N	1.269124	-0.246128	0.970552
N126	N	1.769124	0.253872	1.470552
H127	H	1.307200	-0.207680	0.939168
H128	H	1.807200	0.292320	1.439168
N129	N	1.008581	-0.509269	0.859263
N130	N	1.508581	-0.009269	1.359263
N131	N	0.936416	-0.503714	0.849830
N132	N	1.436416	-0.003714	1.349830
H133	H	0.898331	-0.542150	0.881218
H134	H	1.398331	-0.042150	1.381218
H135	H	1.211078	-0.304728	1.093940
H136	H	1.711078	0.195272	1.593940
H137	H	0.558845	-0.498280	0.310717
H138	H	1.058845	0.001720	0.810717
H139	H	1.019579	-0.498169	1.103101
H140	H	1.519579	0.001831	1.603101
H141	H	1.019499	-0.498277	0.701528
H142	H	1.519499	0.001723	1.201528
N143	N	0.653942	-0.509313	0.300828
N144	N	1.153942	-0.009313	0.800828
N145	N	0.659406	-0.586248	0.309578
N146	N	1.159406	-0.086248	0.809578
H147	H	0.627977	-0.624679	0.275141
H148	H	1.127977	-0.124679	0.775141
N149	N	0.664383	-0.293992	0.493853
N150	N	1.164383	0.206008	0.993853
N151	N	0.703294	-0.246438	0.536469
N152	N	1.203294	0.253562	1.036469
H153	H	0.675597	-0.207996	0.570901
H154	H	1.175597	0.292004	1.070901
H155	H	0.568205	-0.305067	0.483996
H156	H	1.068205	0.194933	0.983996
N157	N	0.819650	-0.509280	0.300791
N158	N	1.319650	-0.009280	0.800791
N159	N	0.780741	-0.556821	0.258161
N160	N	1.280741	-0.056821	0.758161
H161	H	0.808441	-0.595229	0.223698
H162	H	1.308441	-0.095229	0.723698
N163	N	0.411511	-0.294054	0.493903
N164	N	0.911511	0.205946	0.993903
N165	N	0.338315	-0.294067	0.493905
N166	N	0.838315	0.205933	0.993905
H167	H	0.310596	-0.255665	0.528360
H168	H	0.810596	0.244335	1.028360
H169	H	0.410116	-0.498299	0.310739
H170	H	0.910116	0.001701	0.810739
