data_functionalizedCrystal
_audit_creation_method	'MofGen! by Chris Wilmer'
_symmetry_space_group_name_H-M	'P1'
_symmetry_Int_Tables_number	1
_symmetry_cell_setting	triclinic
loop_
_symmetry_equiv_pos_as_xyz
  x,y,z
_cell_length_a	12.827893
_cell_length_b	12.645330
_cell_length_c	12.827885
_cell_angle_alpha	89.971022
_cell_angle_beta	89.980728
_cell_angle_gamma	90.017853
loop_
_atom_site_label
_atom_site_type_symbol
_atom_site_fract_x
_atom_site_fract_y
_atom_site_fract_z
Zn1	Zn	1.597653	-0.421983	-0.590855
Zn2	Zn	1.597540	-0.599284	-0.416117
Zn3	Zn	1.422894	-0.422036	-0.416128
Zn4	Zn	1.422873	-0.599206	-0.590817
O5	O	1.510240	-0.510627	-0.503479
O6	O	1.743874	-0.445514	-0.567686
O7	O	1.574335	-0.575826	-0.269883
O8	O	1.446133	-0.273681	-0.439326
O9	O	1.743791	-0.575776	-0.439308
O10	O	1.574527	-0.273643	-0.567697
O11	O	1.446023	-0.445603	-0.269891
O12	O	1.276655	-0.445527	-0.439290
O13	O	1.446096	-0.575642	-0.737058
O14	O	1.276639	-0.575693	-0.567633
O15	O	1.574506	-0.445438	-0.737086
O16	O	1.574314	-0.747621	-0.439271
O17	O	1.445986	-0.747564	-0.567623
C18	C	1.238730	-0.510608	-0.503459
C19	C	1.122577	-0.510625	-0.503476
C20	C	1.070833	-0.446281	-0.567101
C21	C	0.950783	-0.446298	-0.567119
C22	C	1.510164	-0.786057	-0.503465
C23	C	1.510227	-0.903887	-0.503493
C24	C	1.429829	-1.071459	-0.584488
C25	C	1.429418	-0.948900	-0.584228
C26	C	1.480414	-0.948489	-0.393362
C27	C	1.479923	-1.071088	-0.393854
C28	C	1.620929	-1.070974	-0.531736
C29	C	1.620251	-0.948367	-0.534144
C30	C	1.782810	-0.510648	-0.503500
C31	C	1.898963	-0.510656	-0.503509
C32	C	1.510311	-0.510525	-0.776050
C33	C	1.510341	-0.510482	-0.892203
C34	C	1.510345	-0.234122	-0.503517
C35	C	1.510390	-0.116292	-0.503533
C36	C	1.446853	-0.574839	-1.064018
C37	C	1.446820	-0.574885	-0.943968
C38	C	1.510229	-0.510652	-0.231969
C39	C	1.510401	-0.510397	-0.115817
H40	H	0.943455	-0.565752	-0.449040
Br41	Br	1.145120	-0.354435	-0.657868
H42	H	1.642733	-0.919210	-0.615195
H43	H	1.648124	-1.101812	-0.610678
Br44	Br	1.601040	-0.418527	-0.966434
H45	H	1.564778	-0.455255	-1.071286
Br46	Br	1.356143	-0.666856	-0.869731
Br47	Br	1.356200	-0.666736	-1.138228
H48	H	0.906284	-0.391214	-0.621594
H49	H	1.347469	-0.919666	-0.565543
Br50	Br	1.048290	-0.602457	-0.412694
H51	H	1.537231	-0.919335	-0.331396
Br52	Br	1.460624	-1.120472	-0.721049
Br53	Br	1.294098	-1.122992	-0.553773
Br54	Br	1.345245	-1.118918	-0.354030
Br55	Br	1.573465	-1.120532	-0.289886
Br56	Br	1.460503	-0.898625	-0.720336
H57	H	1.400452	-0.917880	-0.369038
Br58	Br	1.725568	-0.897279	-0.443034
Br59	Br	1.720972	-1.119317	-0.433479
