data_functionalizedCrystal
_audit_creation_method	'MofGen! by Chris Wilmer'
_symmetry_space_group_name_H-M	'P1'
_symmetry_Int_Tables_number	1
_symmetry_cell_setting	triclinic
loop_
_symmetry_equiv_pos_as_xyz
  x,y,z
_cell_length_a	15.944564
_cell_length_b	18.266242
_cell_length_c	15.944551
_cell_angle_alpha	89.992703
_cell_angle_beta	83.501336
_cell_angle_gamma	89.995454
loop_
_atom_site_label
_atom_site_type_symbol
_atom_site_fract_x
_atom_site_fract_y
_atom_site_fract_z
O1	O	-1.114523	0.060806	-0.108384
O2	O	-0.614523	0.560806	0.391616
O3	O	-0.869975	0.060825	-0.121729
O4	O	-0.369975	0.560825	0.378271
O5	O	-0.998927	0.060808	0.007218
O6	O	-0.498927	0.560808	0.507218
O7	O	-0.985571	0.060822	-0.237331
O8	O	-0.485571	0.560822	0.262669
O9	O	-0.998905	-0.060954	0.007224
O10	O	-0.498905	0.439046	0.507224
O11	O	-0.869953	-0.060937	-0.121723
O12	O	-0.369953	0.439063	0.378277
O13	O	-1.114501	-0.060956	-0.108378
O14	O	-0.614501	0.439044	0.391622
Zn15	Zn	-0.992223	-0.080279	-0.115049
Zn16	Zn	-0.492223	0.419721	0.384951
Zn17	Zn	-0.992252	0.080148	-0.115058
Zn18	Zn	-0.492252	0.580148	0.384942
O19	O	-0.985549	-0.060939	-0.237325
O20	O	-0.485549	0.439061	0.262675
C21	C	-0.838670	-0.000054	-0.121170
C22	C	-0.338670	0.499946	0.378830
C23	C	-0.745425	-0.000047	-0.119504
C24	C	-0.245425	0.499953	0.380496
C25	C	-0.530569	-0.000066	-0.035589
C26	C	-0.030569	0.499934	0.464411
C27	C	-0.469560	0.059971	-0.074552
C28	C	0.030440	0.559971	0.425448
C29	C	-0.574700	-0.000056	-0.116488
C30	C	-0.074700	0.499944	0.383512
C31	C	-0.469561	-0.060077	-0.074565
C32	C	0.030439	0.439923	0.425435
C33	C	-0.409788	-0.000068	-0.113570
C34	C	0.090212	0.499932	0.386430
C35	C	-0.514919	0.060031	-0.155474
C36	C	-0.014919	0.560031	0.344526
C37	C	-0.514926	-0.060071	-0.155475
C38	C	-0.014926	0.439929	0.344525
C39	C	-0.453935	-0.000019	-0.194497
C40	C	0.046065	0.499981	0.305503
C41	C	-0.669701	-0.000049	-0.118167
C42	C	-0.169701	0.499951	0.381833
C43	C	-0.314787	-0.000070	-0.111898
C44	C	0.185213	0.499930	0.388102
N45	N	-0.992210	-0.189766	-0.115043
N46	N	-0.492210	0.310234	0.384957
C47	C	-1.049329	-0.228082	-0.057973
C48	C	-0.549329	0.271918	0.442027
C49	C	-1.049334	-0.304727	-0.057969
C50	C	-0.549334	0.195273	0.442031
C51	C	-0.992229	-0.343053	-0.115049
C52	C	-0.492229	0.156947	0.384951
C53	C	-0.935099	-0.304727	-0.172123
C54	C	-0.435099	0.195273	0.327877
C55	C	-0.935090	-0.228084	-0.172120
C56	C	-0.435090	0.271916	0.327880
N57	N	-0.981541	-0.463380	-0.189372
N58	N	-0.481541	0.036620	0.310628
N59	N	-0.981555	-0.536188	-0.189373
N60	N	-0.481555	-0.036188	0.310627
C61	C	-0.992252	-0.573975	-0.115061
C62	C	-0.492252	-0.073975	0.384939
N63	N	-1.002951	-0.536203	-0.040747
N64	N	-0.502951	-0.036203	0.459253
N65	N	-1.002941	-0.463389	-0.040747
N66	N	-0.502941	0.036611	0.459253
C67	C	-0.992232	-0.426160	-0.115059
C68	C	-0.492232	0.073840	0.384941
C69	C	-1.049380	-0.695398	-0.057983
C70	C	-0.549380	-0.195398	0.442017
C71	C	-1.049379	-0.772045	-0.057978
C72	C	-0.549379	-0.272045	0.442022
C73	C	-0.935148	-0.772044	-0.172139
C74	C	-0.435148	-0.272044	0.327861
C75	C	-0.935145	-0.695399	-0.172137
C76	C	-0.435145	-0.195399	0.327863
C77	C	-0.992265	-0.657081	-0.115060
C78	C	-0.492265	-0.157081	0.384940
C79	C	-0.145807	-0.000075	-0.108925
C80	C	0.354193	0.499925	0.391075
C81	C	-0.239057	-0.000077	-0.110558
C82	C	0.260943	0.499923	0.389442
C83	C	-0.998361	-0.000073	0.038515
C84	C	-0.498361	0.499927	0.538515
C85	C	-0.996699	-0.000073	0.131761
C86	C	-0.496699	0.499927	0.631761
N87	N	-0.992272	0.189635	-0.115058
N88	N	-0.492272	0.689635	0.384942
C89	C	-0.986114	-0.000057	-0.268622
C90	C	-0.486114	0.499943	0.231378
C91	C	-0.987777	-0.000052	-0.361868
C92	C	-0.487777	0.499948	0.138132
C93	C	-0.912795	-0.000057	0.346622
C94	C	-0.412795	0.499943	0.846622
C95	C	-0.951747	-0.060096	0.407640
C96	C	-0.451747	0.439904	0.907640
C97	C	-0.993692	-0.000067	0.302487
C98	C	-0.493692	0.499933	0.802487
C99	C	-0.951787	0.059952	0.407617
C100	C	-0.451787	0.559952	0.907617
C101	C	-0.990781	-0.000058	0.467400
C102	C	-0.490781	0.499942	0.967400
C103	C	-1.032666	-0.060156	0.362278
C104	C	-0.532666	0.439844	0.862278
C105	C	-1.032695	0.059946	0.362248
C106	C	-0.532695	0.559946	0.862248
C107	C	-1.071705	-0.000108	0.423249
C108	C	-0.571705	0.499892	0.923249
C109	C	-0.995366	-0.000073	0.207485
C110	C	-0.495366	0.499927	0.707485
C111	C	-0.989113	-0.000058	0.562401
C112	C	-0.489113	0.499942	1.062401
H113	H	-0.449459	0.110724	-0.040338
H114	H	0.050541	0.610724	0.459662
H115	H	-0.563902	0.000004	0.031547
H116	H	-0.063902	0.500004	0.531547
H117	H	-1.095888	-0.664199	-0.011504
H118	H	-0.595888	-0.164199	0.488496
H119	H	-0.888649	-0.803248	-0.218612
H120	H	-0.388649	-0.303248	0.281388
F121	F	-0.874294	-0.187303	-0.232864
F122	F	-0.374294	0.312697	0.267136
F123	F	-0.410591	0.000028	-0.282338
F124	F	0.089409	0.500028	0.217662
F125	F	-1.159548	-0.000156	0.466588
F126	F	-0.659548	0.499844	0.966588
F127	F	-1.077342	-0.126573	0.336154
F128	F	-0.577342	0.373427	0.836154
H129	H	-0.535048	-0.110827	-0.189661
H130	H	-0.035048	0.389173	0.310339
F131	F	-0.443296	-0.126419	-0.029820
F132	F	0.056704	0.373581	0.470180
H133	H	-1.066891	0.110702	0.342114
H134	H	-0.566891	0.610702	0.842114
F135	F	-1.110131	-0.345512	0.002776
F136	F	-0.610131	0.154488	0.502776
F137	F	-0.907058	0.126292	0.433876
F138	F	-0.407058	0.626292	0.933876
F139	F	-0.541052	0.126447	-0.200168
F140	F	-0.041052	0.626447	0.299832
F141	F	-1.110117	-0.187303	0.002776
F142	F	-0.610117	0.312697	0.502776
H143	H	-0.888602	-0.335936	-0.218598
H144	H	-0.388602	0.164064	0.281402
F145	F	-1.110171	-0.812825	0.002771
F146	F	-0.610171	-0.312825	0.502771
H147	H	-0.888637	-0.664200	-0.218612
H148	H	-0.388637	-0.164200	0.281388
H149	H	-0.845647	-0.000112	0.313317
H150	H	-0.345647	0.499888	0.813317
H151	H	-0.917521	-0.110849	0.427753
H152	H	-0.417521	0.389151	0.927753
