data_functionalizedCrystal
_audit_creation_method	'MofGen! by Chris Wilmer'
_symmetry_space_group_name_H-M	'P1'
_symmetry_Int_Tables_number	1
_symmetry_cell_setting	triclinic
loop_
_symmetry_equiv_pos_as_xyz
  x,y,z
_cell_length_a	14.044191
_cell_length_b	14.044220
_cell_length_c	13.101018
_cell_angle_alpha	86.333450
_cell_angle_beta	93.666878
_cell_angle_gamma	93.190327
loop_
_atom_site_label
_atom_site_type_symbol
_atom_site_fract_x
_atom_site_fract_y
_atom_site_fract_z
O1	O	1.281982	0.225382	0.085160
O2	O	1.531982	0.475382	0.335160
O3	O	1.781982	0.725382	0.585160
O4	O	2.031982	0.975382	0.835160
O5	O	1.005311	0.217069	0.085174
O6	O	1.255311	0.467069	0.335174
O7	O	1.505311	0.717069	0.585174
O8	O	1.755311	0.967069	0.835174
O9	O	1.139493	0.082890	0.085163
O10	O	1.389493	0.332890	0.335163
O11	O	1.639493	0.582890	0.585163
O12	O	1.889493	0.832890	0.835163
O13	O	1.147800	0.359561	0.085171
O14	O	1.397800	0.609561	0.335171
O15	O	1.647800	0.859561	0.585171
O16	O	1.897800	1.109561	0.835171
O17	O	1.129855	0.092526	-0.085267
O18	O	1.379855	0.342526	0.164733
O19	O	1.629855	0.592526	0.414733
O20	O	1.879855	0.842526	0.664733
O21	O	0.995672	0.226704	-0.085256
O22	O	1.245672	0.476704	0.164744
O23	O	1.495672	0.726704	0.414744
O24	O	1.745672	0.976704	0.664744
O25	O	1.272343	0.235018	-0.085269
O26	O	1.522343	0.485018	0.164731
O27	O	1.772343	0.735018	0.414731
O28	O	2.022343	0.985018	0.664731
Zn29	Zn	1.132477	0.232391	-0.112322
Zn30	Zn	1.382477	0.482391	0.137678
Zn31	Zn	1.632477	0.732391	0.387678
Zn32	Zn	1.882477	0.982391	0.637678
Zn33	Zn	1.145177	0.219696	0.112226
Zn34	Zn	1.395177	0.469696	0.362226
Zn35	Zn	1.645177	0.719696	0.612226
Zn36	Zn	1.895177	0.969696	0.862226
O37	O	1.138161	0.369197	-0.085258
O38	O	1.388161	0.619197	0.164742
O39	O	1.638161	0.869197	0.414742
O40	O	1.888161	1.119197	0.664742
C41	C	0.964869	0.218250	-0.000040
C42	C	1.214869	0.468250	0.249960
C43	C	1.464869	0.718250	0.499960
C44	C	1.714869	0.968250	0.749960
C45	C	0.858726	0.207402	-0.000035
C46	C	1.108726	0.457402	0.249965
C47	C	1.358726	0.707402	0.499965
C48	C	1.608726	0.957402	0.749965
C49	C	0.613268	0.264503	-0.000043
C50	C	0.863268	0.514503	0.249957
C51	C	1.113268	0.764503	0.499957
C52	C	1.363268	1.014503	0.749957
C53	C	0.664393	0.187587	-0.000044
C54	C	0.914393	0.437587	0.249956
C55	C	1.164393	0.687587	0.499956
C56	C	1.414393	0.937587	0.749956
C57	C	0.772530	0.198615	-0.000039
C58	C	1.022530	0.448615	0.249961
C59	C	1.272530	0.698615	0.499961
C60	C	1.522530	0.948615	0.749961
C61	C	0.505121	0.253477	-0.000048
C62	C	0.755121	0.503477	0.249952
C63	C	1.005121	0.753477	0.499952
C64	C	1.255121	1.003477	0.749952
C65	C	1.131038	0.052086	-0.000051
C66	C	1.381038	0.302086	0.249949
C67	C	1.631038	0.552086	0.499949
C68	C	1.881038	0.802086	0.749949
C69	C	1.120194	-0.054057	-0.000047
C70	C	1.370194	0.195943	0.249953
C71	C	1.620194	0.445943	0.499953
C72	C	1.870194	0.695943	0.749953
C73	C	1.312785	0.233837	-0.000054
C74	C	1.562785	0.483837	0.249946
C75	C	1.812785	0.733837	0.499946
C76	C	2.062785	0.983837	0.749946
C77	C	1.418928	0.244684	-0.000052
C78	C	1.668928	0.494684	0.249948
C79	C	1.918928	0.744684	0.499948
C80	C	2.168928	0.994684	0.749948
N81	N	1.123817	0.241055	-0.265570
N82	N	1.373817	0.491055	-0.015570
N83	N	1.623817	0.741055	0.234430
N84	N	1.873817	0.991055	0.484430
C85	C	1.146616	0.400001	-0.000042
C86	C	1.396616	0.650001	0.249958
C87	C	1.646616	0.900001	0.499958
C88	C	1.896616	1.150001	0.749958
C89	C	1.157461	0.506144	-0.000039
C90	C	1.407461	0.756144	0.249961
C91	C	1.657461	1.006144	0.499961
C92	C	1.907461	1.256144	0.749961
C93	C	1.177287	0.700482	-0.000045
C94	C	1.427287	0.950482	0.249955
C95	C	1.677287	1.200482	0.499955
C96	C	1.927287	1.450482	0.749955
C97	C	1.100372	0.751610	-0.000042
C98	C	1.350372	1.001610	0.249958
C99	C	1.600372	1.251610	0.499958
C100	C	1.850372	1.501610	0.749958
C101	C	1.111404	0.859747	-0.000045
C102	C	1.361404	1.109747	0.249955
C103	C	1.611404	1.359747	0.499955
C104	C	1.861404	1.609747	0.749955
C105	C	1.166257	0.592336	-0.000042
C106	C	1.416257	0.842336	0.249958
C107	C	1.666257	1.092336	0.499958
C108	C	1.916257	1.342336	0.749958
C109	C	1.165621	0.199233	-0.525483
C110	C	1.415621	0.449233	-0.275483
C111	C	1.665621	0.699233	-0.025483
C112	C	1.915621	0.949233	0.224517
C113	C	1.112043	0.252844	-0.474606
C114	C	1.362043	0.502844	-0.224606
C115	C	1.612043	0.752844	0.025394
C116	C	1.862043	1.002844	0.275394
C117	C	1.118596	0.246283	-0.358288
C118	C	1.368596	0.496283	-0.108288
C119	C	1.618596	0.746283	0.141712
C120	C	1.868596	0.996283	0.391712
C121	C	1.159069	0.205793	-0.641812
C122	C	1.409069	0.455793	-0.391812
C123	C	1.659069	0.705793	-0.141812
C124	C	1.909069	0.955793	0.108188
N125	N	1.153844	0.211025	0.265475
N126	N	1.403844	0.461025	0.515475
N127	N	1.653844	0.711025	0.765475
N128	N	1.903844	0.961025	1.015475
H129	H	0.650709	0.338630	-0.000038
H130	H	0.900709	0.588630	0.249962
H131	H	1.150709	0.838630	0.499962
H132	H	1.400709	1.088630	0.749962
H133	H	1.026239	0.714169	-0.000039
H134	H	1.276239	0.964169	0.249961
H135	H	1.526239	1.214169	0.499961
H136	H	1.776239	1.464169	0.749961
O137	O	1.265680	0.745243	0.000079
O138	O	1.515680	0.995243	0.250079
O139	O	1.765680	1.245243	0.500079
O140	O	2.015680	1.495243	0.750079
C141	C	1.281636	0.797702	0.088353
C142	C	1.531636	1.047702	0.338353
C143	C	1.781636	1.297702	0.588353
C144	C	2.031636	1.547702	0.838353
H145	H	1.210115	0.814348	0.117793
H146	H	1.460115	1.064348	0.367793
H147	H	1.710115	1.314348	0.617793
H148	H	1.960115	1.564348	0.867793
H149	H	1.323967	0.867318	0.068490
H150	H	1.573967	1.117318	0.318490
H151	H	1.823967	1.367318	0.568490
H152	H	2.073967	1.617318	0.818490
H153	H	1.323729	0.753860	0.150157
H154	H	1.573729	1.003860	0.400157
H155	H	1.823729	1.253860	0.650157
H156	H	2.073729	1.503860	0.900157
H157	H	1.061252	0.303670	-0.518407
H158	H	1.311252	0.553670	-0.268407
H159	H	1.561252	0.803670	-0.018407
H160	H	1.811252	1.053670	0.231593
H161	H	1.216410	0.148412	-0.481687
H162	H	1.466410	0.398412	-0.231687
H163	H	1.716410	0.648412	0.018313
H164	H	1.966410	0.898412	0.268313
H165	H	0.626953	0.113451	0.000026
H166	H	0.876953	0.363451	0.250026
H167	H	1.126953	0.613451	0.500026
H168	H	1.376953	0.863451	0.750026
