data_functionalizedCrystal
_audit_creation_method	'MofGen! by Chris Wilmer'
_symmetry_space_group_name_H-M	'P1'
_symmetry_Int_Tables_number	1
_symmetry_cell_setting	triclinic
loop_
_symmetry_equiv_pos_as_xyz
  x,y,z
_cell_length_a	21.295420
_cell_length_b	21.295417
_cell_length_c	12.827885
_cell_angle_alpha	89.961900
_cell_angle_beta	89.978692
_cell_angle_gamma	90.026289
loop_
_atom_site_label
_atom_site_type_symbol
_atom_site_fract_x
_atom_site_fract_y
_atom_site_fract_z
Zn1	Zn	0.962335	-0.250650	-0.590845
Zn2	Zn	0.962243	-0.355932	-0.416080
Zn3	Zn	0.857064	-0.250673	-0.416112
Zn4	Zn	0.857028	-0.355877	-0.590774
O5	O	0.909668	-0.303283	-0.503453
O6	O	1.050412	-0.264629	-0.567678
O7	O	0.948268	-0.342001	-0.269848
O8	O	0.871082	-0.162580	-0.439334
O9	O	1.050345	-0.341979	-0.439279
O10	O	0.948424	-0.162563	-0.567710
O11	O	0.870993	-0.264668	-0.269872
O12	O	0.768970	-0.264615	-0.439265
O13	O	0.871020	-0.341886	-0.737019
O14	O	0.768943	-0.341908	-0.567588
O15	O	0.948389	-0.264576	-0.737072
O16	O	0.948233	-0.444014	-0.439210
O17	O	0.870931	-0.443974	-0.567557
C18	C	0.746116	-0.303259	-0.503423
C19	C	0.676148	-0.303263	-0.503435
C20	C	0.176724	-0.263101	-0.570434
C21	C	0.242467	-0.263097	-0.570434
C22	C	0.275308	-0.303302	-0.503477
C23	C	0.242402	-0.343526	-0.436534
C24	C	0.176661	-0.343534	-0.436543
N25	N	0.378501	-0.308053	-0.411974
N26	N	0.440953	-0.308042	-0.411968
C27	C	0.473383	-0.303281	-0.503446
N28	N	0.441003	-0.298520	-0.594933
N29	N	0.378545	-0.298528	-0.594938
C30	C	0.346594	-0.303298	-0.503460
C31	C	0.577567	-0.263057	-0.570390
C32	C	0.643311	-0.263057	-0.570392
C33	C	0.643245	-0.343483	-0.436482
C34	C	0.577502	-0.343487	-0.436490
C35	C	0.544667	-0.303271	-0.503443
C36	C	0.909585	-0.466834	-0.503395
C37	C	0.909607	-0.536802	-0.503405
C38	C	0.949894	-0.569669	-0.436643
C39	C	0.949924	-0.635412	-0.436667
C40	C	0.909655	-0.668285	-0.503441
C41	C	0.869366	-0.635410	-0.570216
C42	C	0.869342	-0.569669	-0.570198
N43	N	0.854588	-0.771546	-0.511398
N44	N	0.854612	-0.833998	-0.511409
C45	C	0.909726	-0.866360	-0.503501
N46	N	0.964815	-0.833911	-0.495561
N47	N	0.964790	-0.771454	-0.495545
C48	C	0.909677	-0.739570	-0.503469
C49	C	0.950048	-0.970512	-0.436761
C50	C	0.950078	-1.036255	-0.436792
C51	C	0.869515	-1.036253	-0.570335
C52	C	0.869490	-0.970511	-0.570310
C53	C	0.909755	-0.937644	-0.503517
C54	C	1.073858	-0.303307	-0.503483
C55	C	1.143826	-0.303318	-0.503496
C56	C	0.909710	-0.303222	-0.776023
C57	C	0.909729	-0.303197	-0.892176
C58	C	0.909768	-0.139092	-0.503534
C59	C	0.909810	-0.069124	-0.503568
C60	C	0.948017	-0.264933	-0.943987
C61	C	0.948037	-0.264906	-1.064037
C62	C	0.909661	-0.303297	-0.231943
C63	C	0.909765	-0.303146	-0.115790
H64	H	0.550831	-0.230311	-0.624907
H65	H	0.980781	-0.232193	-0.899467
O66	O	0.870569	-0.342203	-1.062770
C67	C	0.763486	-0.372719	-1.029093
C68	C	0.807803	-0.328455	-1.089229
H69	H	0.712730	-0.361611	-1.050446
H70	H	0.774454	-0.423494	-1.050497
H71	H	0.770470	-0.365793	-0.941746
H72	H	0.800844	-0.335325	-1.176589
H73	H	0.796825	-0.277696	-1.067738
O74	O	0.830465	-1.068149	-0.635352
C75	C	0.799832	-1.088166	-0.813069
C76	C	0.844104	-1.052013	-0.739550
H77	H	0.810834	-1.075123	-0.897327
H78	H	0.806771	-1.140807	-0.801710
H79	H	0.749078	-1.075299	-0.794582
H80	H	0.894874	-1.064827	-0.757992
H81	H	0.837110	-0.999380	-0.750922
O82	O	0.870668	-0.342344	-0.945161
C83	C	0.840098	-0.449394	-0.978749
C84	C	0.884364	-0.405128	-0.918666
H85	H	0.851164	-0.500165	-0.957367
H86	H	0.789320	-0.438402	-0.957325
H87	H	0.847066	-0.442381	-1.066104
H88	H	0.877451	-0.412116	-0.831298
H89	H	0.935125	-0.416131	-0.940177
O90	O	0.830439	-0.938553	-0.635266
C91	C	0.821891	-0.864237	-0.776279
C92	C	0.866188	-0.900400	-0.702792
H93	H	0.850776	-0.833371	-0.830877
H94	H	0.793125	-0.898995	-0.824085
H95	H	0.788968	-0.833538	-0.728218
H96	H	0.899149	-0.931099	-0.750771
H97	H	0.894910	-0.865607	-0.654982
H98	H	0.982836	-0.943751	-0.382378
H99	H	0.149994	-0.230357	-0.624957
O100	O	0.144797	-0.382620	-0.371413
C101	C	0.151670	-0.462418	-0.238642
C102	C	0.187834	-0.418177	-0.312333
H103	H	0.186449	-0.491187	-0.190872
H104	H	0.120906	-0.433513	-0.184019
H105	H	0.120873	-0.495341	-0.286543
H106	H	0.218664	-0.385246	-0.264517
H107	H	0.218558	-0.447122	-0.366959
O108	O	0.274336	-0.223969	-0.635495
C109	C	0.267468	-0.144222	-0.768351
C110	C	0.231301	-0.188489	-0.694706
H111	H	0.232691	-0.115534	-0.816258
H112	H	0.298228	-0.111230	-0.720512
H113	H	0.298269	-0.173166	-0.822857
H114	H	0.200466	-0.159595	-0.640185
H115	H	0.200582	-0.221482	-0.742609
H116	H	0.836580	-0.662180	-0.624586
H117	H	0.670096	-0.230310	-0.624909
O118	O	0.274371	-0.382612	-0.371636
C119	C	0.348536	-0.467605	-0.357318
C120	C	0.312383	-0.423366	-0.430929
H121	H	0.379267	-0.500575	-0.405228
H122	H	0.379350	-0.438697	-0.302772
H123	H	0.313716	-0.496323	-0.309450
H124	H	0.347158	-0.394639	-0.478864
H125	H	0.281559	-0.452310	-0.485405
O126	O	0.989157	-1.068282	-0.371971
C127	C	0.997789	-1.142634	-0.231025
C128	C	0.953444	-1.106396	-0.304330
H129	H	0.968933	-1.173448	-0.176304
H130	H	1.030656	-1.173373	-0.279122
H131	H	1.026612	-1.107868	-0.183331
H132	H	0.924580	-1.141116	-0.352040
H133	H	0.920618	-1.075647	-0.256174
O134	O	0.675236	-0.382482	-0.371475
C135	C	0.776485	-0.418147	-0.312168
C136	C	0.740330	-0.373935	-0.385820
H137	H	0.829120	-0.411262	-0.323756
H138	H	0.763589	-0.407037	-0.227914
H139	H	0.763507	-0.468912	-0.330361
H140	H	0.753289	-0.323155	-0.367721
H141	H	0.753229	-0.385098	-0.470052
H142	H	0.836535	-0.542909	-0.624564
O143	O	0.545639	-0.382568	-0.371357
C144	C	0.552513	-0.462363	-0.238580
C145	C	0.588676	-0.418122	-0.312273
H146	H	0.587293	-0.491129	-0.190808
H147	H	0.521747	-0.433457	-0.183960
H148	H	0.521719	-0.495288	-0.286479
H149	H	0.619505	-0.385188	-0.264458
H150	H	0.619402	-0.447067	-0.366897
H151	H	0.982682	-0.542911	-0.382260
H152	H	0.982732	-0.662177	-0.382302
O153	O	0.987235	-0.225890	-1.117138
C154	C	1.094316	-0.195331	-1.150724
C155	C	1.049995	-0.239567	-1.090539
H156	H	1.145066	-0.206364	-1.129225
H157	H	1.087418	-0.202275	-1.238087
H158	H	1.083266	-0.144568	-1.129362
H159	H	1.061017	-0.290347	-1.111815
H160	H	1.056901	-0.232568	-1.003191
