data_functionalizedCrystal
_audit_creation_method	'MofGen! by Chris Wilmer'
_symmetry_space_group_name_H-M	'P1'
_symmetry_Int_Tables_number	1
_symmetry_cell_setting	triclinic
loop_
_symmetry_equiv_pos_as_xyz
  x,y,z
_cell_length_a	17.699083
_cell_length_b	10.489741
_cell_length_c	16.776229
_cell_angle_alpha	89.993659
_cell_angle_beta	89.998886
_cell_angle_gamma	83.911094
loop_
_atom_site_label
_atom_site_type_symbol
_atom_site_fract_x
_atom_site_fract_y
_atom_site_fract_z
O1	O	1.005134	0.161296	-0.066176
O2	O	0.784893	0.182281	-0.066202
O3	O	0.900025	-0.013903	-0.066184
O4	O	0.890002	0.357479	-0.066194
O5	O	0.900009	-0.013915	0.066393
O6	O	0.784877	0.182269	0.066375
O7	O	1.005118	0.161284	0.066401
Zn8	Zn	0.894995	0.171774	0.087437
Zn9	Zn	0.895016	0.171790	-0.087238
O10	O	0.889986	0.357467	0.066382
C11	C	0.756683	0.181523	0.000083
C12	C	0.672650	0.179267	0.000073
C13	C	0.624782	0.294422	0.000070
C14	C	0.545825	0.292295	0.000080
C15	C	0.514737	0.175011	0.000088
C16	C	0.562611	0.059847	0.000094
C17	C	0.641567	0.061975	0.000089
C18	C	0.244192	0.051260	0.000114
C19	C	0.165230	0.049140	0.000116
C20	C	0.148450	0.281580	0.000105
C21	C	0.227406	0.283709	0.000100
C22	C	0.275273	0.168545	0.000110
C23	C	0.360887	0.170853	0.000100
C24	C	0.429124	0.172702	0.000092
C25	C	0.899260	-0.061427	0.000104
C26	C	0.896995	-0.203014	0.000102
C27	C	0.823740	-0.269793	0.000088
C28	C	0.858337	-0.362564	0.065459
C29	C	0.858370	-0.362527	-0.065251
C30	C	0.931623	-0.293920	0.065528
C31	C	0.931645	-0.293874	-0.065241
C32	C	0.966296	-0.386619	0.000146
C33	C	1.033328	0.162042	0.000114
C34	C	1.117361	0.164297	0.000119
C35	C	0.890751	0.404991	0.000093
C36	C	0.893016	0.546578	0.000089
N37	N	0.894987	0.171763	0.206648
N38	N	0.895030	0.171791	-0.206450
C39	C	0.945983	0.084928	0.248373
C40	C	0.945987	0.084927	0.331826
C41	C	0.894998	0.171767	0.373551
C42	C	0.843996	0.258606	0.331820
C43	C	0.843989	0.258600	0.248369
C44	C	0.844024	0.258631	0.668367
C45	C	0.844037	0.258633	0.751824
C46	C	0.946022	0.084958	0.751823
C47	C	0.946015	0.084952	0.668373
C48	C	0.895011	0.171786	0.626649
C49	C	0.895006	0.171784	0.536161
C50	C	0.895006	0.171776	0.464038
H51	H	0.109467	0.375352	0.000101
H52	H	0.537293	-0.035648	0.000111
H53	H	0.827335	-0.393005	0.120719
O54	O	0.135155	-0.064908	0.000164
C55	C	0.160126	-0.295242	0.000137
C56	C	0.194287	-0.166183	0.000103
H57	H	0.207918	-0.377156	0.000072
H58	H	0.123607	-0.302128	0.055634
H59	H	0.123555	-0.301977	-0.055332
H60	H	0.230893	-0.159360	0.055535
H61	H	0.230763	-0.159352	-0.055430
H62	H	0.987512	0.014219	0.365798
H63	H	0.763510	-0.219023	0.000147
O64	O	0.995543	0.000447	0.207968
C65	C	1.096731	-0.171774	0.216786
C66	C	1.040634	-0.076183	0.262640
H67	H	1.133212	-0.233737	0.260968
H68	H	1.063746	-0.235516	0.177749
H69	H	1.134800	-0.116765	0.177684
H70	H	1.002550	-0.131088	0.301785
H71	H	1.073665	-0.012442	0.301627
O72	O	0.499435	0.404275	0.000041
C73	C	0.491124	0.635056	0.000075
C74	C	0.543747	0.508329	0.000098
H75	H	0.526928	0.719217	0.000138
H76	H	0.453748	0.639963	-0.055417
H77	H	0.453729	0.639800	0.055549
H78	H	0.581189	0.503500	-0.055339
H79	H	0.581071	0.503475	0.055626
H80	H	0.252713	0.379213	0.000090
H81	H	0.987537	0.014243	0.634402
H82	H	1.026580	-0.437163	0.000189
O83	O	0.968608	-0.258068	0.131561
C84	C	1.034171	-0.326461	0.252584
C85	C	0.992321	-0.367247	0.177827
H86	H	1.053340	-0.414706	0.290019
H87	H	1.085881	-0.277479	0.233891
H88	H	0.994220	-0.256975	0.289215
H89	H	1.032211	-0.436773	0.141163
H90	H	0.940601	-0.416157	0.196575
H91	H	0.680540	-0.031796	0.000091
O92	O	0.794457	0.343107	0.627967
C93	C	0.693270	0.515328	0.636782
C94	C	0.749378	0.419743	0.682638
H95	H	0.656799	0.577294	0.680963
H96	H	0.726245	0.579066	0.597722
H97	H	0.655192	0.460314	0.597703
H98	H	0.787470	0.474652	0.721760
H99	H	0.716357	0.356006	0.721647
O100	O	0.794538	0.342916	0.372473
C101	C	0.749320	0.419854	0.501030
C102	C	0.805383	0.324320	0.455093
H103	H	0.758058	0.404835	0.567837
H104	H	0.759734	0.522021	0.484668
H105	H	0.688619	0.403373	0.484585
H106	H	0.866105	0.340684	0.471514
H107	H	0.794903	0.222187	0.471459
H108	H	0.962621	-0.263400	-0.120504
O109	O	0.821289	-0.398618	-0.131162
C110	C	0.704204	-0.379664	-0.205611
C111	C	0.746118	-0.338672	-0.130949
H112	H	0.643416	-0.331237	-0.205455
H113	H	0.734796	-0.350008	-0.261340
H114	H	0.703358	-0.488181	-0.205283
H115	H	0.746976	-0.230160	-0.131199
H116	H	0.715511	-0.368421	-0.075253
O117	O	0.290757	-0.060524	0.000007
C118	C	0.389596	-0.193069	-0.068708
C119	C	0.336915	-0.066405	-0.068674
H120	H	0.426916	-0.197878	-0.124238
H121	H	0.427036	-0.197922	-0.013264
H122	H	0.353792	-0.277230	-0.068668
H123	H	0.372659	0.017827	-0.068741
H124	H	0.299471	-0.061665	-0.124112
H125	H	0.987550	0.014249	0.785804
H126	H	0.802512	0.329351	0.785795
O127	O	0.794425	0.343078	0.207958
C128	C	0.693236	0.515295	0.216760
C129	C	0.749342	0.419716	0.262623
H130	H	0.656761	0.577264	0.260937
H131	H	0.726212	0.579031	0.177701
H132	H	0.655161	0.460276	0.177680
H133	H	0.787430	0.474631	0.301746
H134	H	0.716319	0.355981	0.301632
H135	H	0.650088	0.389929	0.000063
