data_functionalizedCrystal
_audit_creation_method	'MofGen! by Chris Wilmer'
_symmetry_space_group_name_H-M	'P1'
_symmetry_Int_Tables_number	1
_symmetry_cell_setting	triclinic
loop_
_symmetry_equiv_pos_as_xyz
  x,y,z
_cell_length_a	18.878441
_cell_length_b	31.640172
_cell_length_c	31.640172
_cell_angle_alpha	60.005009
_cell_angle_beta	90.003502
_cell_angle_gamma	60.007274
loop_
_atom_site_label
_atom_site_type_symbol
_atom_site_fract_x
_atom_site_fract_y
_atom_site_fract_z
Zr1	Zr	0.682485	0.462594	-0.055469
O2	O	0.569400	0.550750	-0.122947
O3	O	0.717137	0.374430	-0.034784
O4	O	0.717155	0.462586	-0.122951
O5	O	0.569384	0.462603	0.034768
O6	O	0.833723	0.462588	-0.122954
O7	O	0.569382	0.462594	-0.034780
O8	O	0.833691	0.304894	0.034761
O9	O	0.569416	0.620297	-0.122946
O10	O	0.818926	0.410698	-0.025963
O11	O	0.731934	0.410702	0.025941
O12	O	0.731956	0.514494	-0.077864
O13	O	0.644964	0.514499	-0.025959
Zr14	Zr	0.868400	0.462612	0.055448
Zr15	Zr	0.868397	0.462598	-0.055473
Zr16	Zr	0.682488	0.462608	0.055452
Zr17	Zr	0.682510	0.573514	-0.055468
Zr18	Zr	0.868374	0.351691	0.055447
O19	O	0.833747	0.550775	0.034763
O20	O	0.833744	0.550755	-0.122953
O21	O	0.569404	0.550769	0.034769
O22	O	0.981484	0.374456	0.122926
O23	O	0.981480	0.374436	-0.034790
O24	O	0.717141	0.374450	0.122932
O25	O	0.981501	0.462603	-0.034789
O26	O	0.833729	0.462619	0.122930
O27	O	0.717161	0.462617	0.122933
O28	O	0.981502	0.462611	0.034760
O29	O	0.717192	0.620300	-0.122949
O30	O	0.833693	0.304905	0.122928
O31	O	0.981468	0.304908	0.122926
O32	O	0.981466	0.304897	0.034758
O33	O	0.569418	0.620308	-0.034779
O34	O	0.717194	0.620311	-0.034782
O35	O	0.818929	0.410711	0.077843
O36	O	0.905921	0.410706	0.025938
O37	O	0.818950	0.514503	-0.025962
O38	O	0.731958	0.514508	0.025943
C39	C	0.775410	0.323858	-0.000012
C40	C	0.775400	0.276770	-0.000013
C41	C	0.820869	-0.015275	-0.027099
C42	C	0.820887	-0.192270	-0.027099
O43	O	0.859537	-0.215177	-0.050123
N44	N	0.775477	-0.214397	-0.000006
C45	C	0.730063	-0.192275	0.027091
O46	O	0.691447	-0.215160	0.050139
C47	C	0.730051	-0.015283	0.027093
C48	C	0.775457	0.006846	-0.000005
C49	C	0.866272	0.006854	-0.054196
C50	C	0.866263	0.051102	-0.054198
C51	C	0.820851	0.073223	-0.027104
C52	C	0.775448	0.051094	-0.000008
C53	C	0.684644	0.006836	0.054193
C54	C	0.684647	0.051085	0.054193
C55	C	0.730052	0.073214	0.027094
C56	C	0.730028	0.117463	0.027084
N57	N	0.775438	0.139590	-0.000008
C58	C	0.820849	0.117470	-0.027102
C59	C	0.730072	-0.285197	0.027087
C60	C	0.730073	-0.329444	0.027086
C61	C	0.820898	-0.329437	-0.027104
C62	C	0.820891	-0.285187	-0.027105
C63	C	0.775482	-0.263071	-0.000006
C64	C	0.820827	0.210395	-0.027105
C65	C	0.820811	0.254649	-0.027107
C66	C	0.729991	0.254637	0.027085
C67	C	0.730002	0.210389	0.027084
C68	C	0.775427	0.188267	-0.000012
O69	O	0.691406	0.140393	0.050101
O70	O	0.859476	0.140354	-0.050138
C71	C	0.820877	-0.059523	-0.027097
C72	C	0.775475	-0.081651	-0.000001
C73	C	0.730063	-0.059531	0.027093
C74	C	0.775476	-0.125898	-0.000003
C75	C	0.820888	-0.148019	-0.027097
C76	C	0.866298	-0.125892	-0.054189
C77	C	0.866289	-0.081644	-0.054191
C78	C	0.684653	-0.081658	0.054186
C79	C	0.684665	-0.125906	0.054185
C80	C	0.730076	-0.148026	0.027091
C81	C	0.542894	0.462598	-0.000006
C82	C	0.463970	0.462596	-0.000004
C83	C	0.472286	0.408416	0.027085
C84	C	0.398125	0.408418	0.027086
C85	C	0.315649	0.462601	-0.000007
C86	C	0.307334	0.516785	-0.027097
C87	C	0.381494	0.516782	-0.027094
C88	C	0.152764	0.516787	-0.027102
C89	C	0.078598	0.516789	-0.027106
C90	C	0.169395	0.408422	0.027077
C91	C	0.243555	0.408419	0.027080
C92	C	0.235235	0.462604	-0.000011
C93	C	1.007990	0.462608	-0.000015
C94	C	1.086915	0.462609	-0.000017
C95	C	0.775439	0.462585	-0.138756
C96	C	0.775438	0.462579	-0.185845
C97	C	0.775474	0.601347	-0.000009
C98	C	0.775485	0.648435	-0.000008
C99	C	0.730052	0.516789	-0.504972
C100	C	0.730053	0.516799	-0.681967
O101	O	0.691476	0.562878	-0.727894
N102	N	0.775450	0.462619	-0.677006
C103	C	0.820853	0.408432	-0.627791
O104	O	0.859473	0.362349	-0.627633
C105	C	0.820857	0.408423	-0.450797
C106	C	0.775451	0.462606	-0.455762
C107	C	0.684651	0.570969	-0.509935
C108	C	0.684647	0.570965	-0.465688
C109	C	0.730045	0.516783	-0.416479
C110	C	0.775447	0.462603	-0.411516
C111	C	0.866265	0.354236	-0.401583
C112	C	0.866264	0.354239	-0.357334
C113	C	0.820857	0.408423	-0.362300
C114	C	0.820841	0.408418	-0.318060
N115	N	0.775445	0.462598	-0.323021
C116	C	0.730047	0.516781	-0.372231
C117	C	0.820847	0.408441	-0.720718
C118	C	0.820845	0.408443	-0.764966
C119	C	0.730046	0.516811	-0.819139
C120	C	0.730044	0.516808	-0.774890
C121	C	0.775451	0.462622	-0.725679
C122	C	0.730042	0.516770	-0.279308
C123	C	0.730040	0.516762	-0.235055
C124	C	0.820842	0.408395	-0.180886
C125	C	0.820841	0.408402	-0.225135
C126	C	0.775440	0.462595	-0.274347
O127	O	0.859407	0.362363	-0.272118
O128	O	0.691449	0.562857	-0.372378
C129	C	0.730056	0.516792	-0.549218
C130	C	0.775458	0.462613	-0.544255
C131	C	0.820856	0.408430	-0.495046
C132	C	0.775456	0.462615	-0.588504
C133	C	0.730058	0.516798	-0.637713
C134	C	0.684662	0.570978	-0.642674
C135	C	0.684658	0.570975	-0.598428
C136	C	0.866252	0.354250	-0.490084
C137	C	0.866251	0.354257	-0.534333
C138	C	0.820853	0.408440	-0.583543
C139	C	0.775446	0.462620	0.138735
C140	C	0.775447	0.462626	0.185824
C141	C	1.007958	0.323863	-0.000017
C142	C	1.086872	0.276776	-0.000019
C143	C	0.775414	0.323876	0.138734
C144	C	0.775404	0.276793	0.185822
C145	C	1.007961	0.323881	0.138729
C146	C	1.086876	0.276800	0.185816
C147	C	0.542923	0.601325	-0.138750
C148	C	0.464008	0.648405	-0.185837
C149	C	0.542926	0.601342	-0.000004
C150	C	0.464013	0.648429	-0.000002
C151	C	0.775471	0.601329	-0.138755
C152	C	0.775481	0.648412	-0.185843
C153	C	1.078520	0.254660	-0.027116
C154	C	1.152661	0.210423	-0.027129
C155	C	1.235153	0.188300	-0.000040
C156	C	1.243502	0.210422	0.027058
C157	C	1.169363	0.254661	0.027067
C158	C	0.820810	0.254687	0.235032
C159	C	0.820797	0.210454	0.279281
C160	C	0.775384	0.188325	0.274319
C161	C	0.729972	0.210436	0.225104
C162	C	0.729980	0.254671	0.180856
C163	C	1.169352	0.254688	0.180835
C164	C	1.243508	0.210456	0.225074
C165	C	1.235187	0.188335	0.274293
C166	C	1.152702	0.210451	0.279274
C167	C	1.078548	0.254685	0.235035
C168	C	0.381532	0.670523	-0.180856
C169	C	0.307376	0.714768	-0.225095
C170	C	0.315698	0.736892	-0.274314
C171	C	0.398183	0.714772	-0.279295
C172	C	0.472337	0.670531	-0.235056
C173	C	0.472364	0.670550	0.027091
C174	C	0.398223	0.714800	0.027091
C175	C	0.315732	0.736923	0.000001
C176	C	0.307382	0.714800	-0.027095
C177	C	0.381522	0.670555	-0.027098
C178	C	0.820903	0.670527	-0.180865
C179	C	0.820929	0.714760	-0.225105
C180	C	0.775527	0.736881	-0.274324
C181	C	0.730103	0.714761	-0.279301
C182	C	0.730083	0.670526	-0.235061
H183	H	0.903239	0.069115	-0.076262
H184	H	0.693091	0.652525	-0.239122
O185	O	1.332476	0.186599	0.219708
H186	H	1.340025	0.166428	0.198234
O187	O	0.681073	-0.353289	0.056304
H188	H	0.726897	-0.402091	0.086251
H189	H	1.145846	0.192417	-0.049195
H190	H	0.693077	0.560929	-0.859214
H191	H	0.775551	0.772900	-0.310342
O192	O	0.561290	0.646694	-0.240436
H193	H	0.611465	0.612221	-0.201409
O194	O	0.681070	0.575222	-0.332380
H195	H	0.726913	0.577827	-0.353833
H196	H	0.857779	0.192457	0.319350
O197	O	1.332482	0.186552	0.056276
H198	H	1.340052	0.223681	0.040622
O199	O	0.869793	0.278549	0.240396
H200	H	0.919993	0.270049	0.221542
H201	H	0.404948	0.732791	-0.319375
H202	H	0.775384	0.152306	0.310353
H203	H	0.693018	0.192377	0.049143
H204	H	0.647675	-0.063653	0.076251
O205	O	0.178382	0.349976	0.056300
H206	H	0.146779	0.347380	0.086251
O207	O	0.869879	0.646672	-0.127782
H208	H	0.920050	0.597868	-0.106331
O209	O	0.143844	0.575210	-0.056332
H210	H	0.107848	0.601228	-0.040699
O211	O	0.869813	0.349970	-0.127797
H212	H	0.843587	0.323968	-0.123274
H213	H	1.176145	0.272693	0.140762
H214	H	0.857808	0.364321	-0.760917
O215	O	0.218376	0.575225	-0.056324
H216	H	0.182406	0.577822	-0.028976
O217	O	0.989554	0.278521	-0.056344
H218	H	0.953587	0.270029	-0.028996
H219	H	0.857917	0.732765	-0.221042
H220	H	0.693008	0.272664	0.140789
H221	H	1.295515	0.152277	-0.000051
H222	H	0.374717	0.560902	-0.049147
O223	O	0.681015	0.278483	0.056317
H224	H	0.707268	0.241335	0.097954
O225	O	1.178383	0.278503	0.056305
H226	H	1.112976	0.312983	0.051763
O227	O	0.407246	0.738646	0.056326
H228	H	0.341839	0.773134	0.051776
H229	H	0.255310	0.772916	-0.310332
O230	O	0.869788	0.278517	-0.056334
H231	H	0.901373	0.255693	-0.075169
H232	H	0.692998	0.192412	0.221071
H233	H	0.693061	0.560887	-0.239104
H234	H	0.255369	0.772951	0.000007
O235	O	1.315174	0.140620	0.322005
H236	H	1.315119	0.100307	0.345367
H237	H	0.693093	-0.267195	0.049156
H238	H	0.647671	-0.011175	0.076261
H239	H	1.011395	0.272683	0.239098
H240	H	0.903241	0.310113	-0.317266
O241	O	0.915245	0.295800	-0.396232
H242	H	0.965424	0.293227	-0.415100
H243	H	0.693138	0.732779	-0.319381
O244	O	1.143730	0.186582	0.332362
H245	H	1.209155	0.152102	0.362282
H246	H	0.404905	0.364299	0.049145
O247	O	0.332512	0.349979	0.056300
H248	H	0.368466	0.347385	0.028945
H249	H	0.240208	0.732820	-0.049151
H250	H	0.374710	0.652545	-0.049159
O251	O	0.372546	0.646669	-0.127771
H252	H	0.302732	0.669493	-0.131748
O253	O	0.561333	0.646701	0.056303
H254	H	0.554670	0.669531	0.075132
H255	H	0.647677	0.615088	-0.469738
O256	O	0.635677	0.629413	-0.563010
H257	H	0.604106	0.667081	-0.559017
O258	O	0.218420	0.738607	-0.219713
H259	H	0.210893	0.758749	-0.198214
H260	H	0.693069	0.560929	-0.778938
O261	O	0.869809	0.186545	-0.056335
H262	H	0.901367	0.209377	-0.075179
H263	H	0.903255	-0.011154	-0.076258
H264	H	0.857864	-0.267172	-0.049171
O265	O	0.869883	-0.353301	-0.056326
H266	H	0.862257	-0.387789	-0.051768
H267	H	0.903263	-0.063630	-0.076258
O268	O	0.635663	0.074944	0.083418
H269	H	0.604087	0.052123	0.102255
H270	H	0.647681	-0.143916	0.076250
O271	O	0.915277	-0.149752	-0.083415
H272	H	0.907652	-0.184241	-0.078856
H273	H	0.011444	0.560910	-0.049167
O274	O	0.561244	0.349976	0.056304
H275	H	0.568781	0.324000	0.097945
O276	O	0.869814	0.349994	-0.667641
H277	H	0.901367	0.312325	-0.671631
H278	H	0.647684	0.615097	-0.602477
O279	O	0.869810	0.349964	-0.219785
H280	H	0.901380	0.312287	-0.178131
H281	H	0.647692	0.615095	-0.682749
H282	H	0.903224	0.310131	-0.530282
H283	H	0.903223	0.310127	-0.450019
