data_functionalizedCrystal
_audit_creation_method	'MofGen! by Chris Wilmer'
_symmetry_space_group_name_H-M	'P1'
_symmetry_Int_Tables_number	1
_symmetry_cell_setting	triclinic
loop_
_symmetry_equiv_pos_as_xyz
  x,y,z
_cell_length_a	11.169417
_cell_length_b	11.169416
_cell_length_c	15.296720
_cell_angle_alpha	80.348021
_cell_angle_beta	80.337074
_cell_angle_gamma	90.009278
loop_
_atom_site_label
_atom_site_type_symbol
_atom_site_fract_x
_atom_site_fract_y
_atom_site_fract_z
Zn1	Zn	-1.717432	0.595252	-0.510078
Zn2	Zn	-1.752077	0.761243	-0.359239
Zn3	Zn	-1.551473	0.560570	-0.359244
Zn4	Zn	-1.516732	0.795881	-0.510048
O5	O	-1.634428	0.678236	-0.434652
O6	O	-1.889975	0.617289	-0.490080
O7	O	-1.754505	0.705613	-0.233001
O8	O	-1.573527	0.397224	-0.379266
O9	O	-1.915429	0.739242	-0.379259
O10	O	-1.695457	0.422705	-0.490084
O11	O	-1.607121	0.558179	-0.233004
O12	O	-1.378917	0.591766	-0.379237
O13	O	-1.514317	0.798277	-0.636291
O14	O	-1.353393	0.764648	-0.490033
O15	O	-1.661771	0.650876	-0.636313
O16	O	-1.720818	0.933784	-0.379230
O17	O	-1.547911	0.959232	-0.490029
C18	C	-1.322608	0.678203	-0.434633
C19	C	-1.189205	0.678223	-0.434646
C20	C	-1.634382	0.990059	-0.434645
C21	C	-1.634466	1.123466	-0.434673
C22	C	-0.947468	0.678259	-0.434665
C23	C	-1.080871	0.678238	-0.434652
C24	C	-1.634503	0.365200	-0.434679
C25	C	-1.634534	0.231803	-0.434690
C26	C	-1.580304	0.732309	-0.669949
C27	C	-1.557240	0.755352	-0.770219
C28	C	-1.799319	0.513338	-1.052908
C29	C	-1.820997	0.491690	-0.958700
C30	C	-1.755059	0.557603	-0.911575
C31	C	-1.667440	0.645168	-0.958668
C32	C	-1.645767	0.666825	-1.052886
C33	C	-1.601507	0.711090	-0.911552
C34	C	-1.513889	0.798655	-0.958645
C35	C	-1.492219	0.820307	-1.052853
C36	C	-1.558156	0.754394	-1.099978
C37	C	-1.623181	0.689434	-0.817335
C38	C	-1.469629	0.842921	-0.817312
C39	C	-1.447951	0.864569	-0.911520
C40	C	-1.688411	0.624287	-0.200270
C41	C	-1.711708	0.600907	-0.100001
H42	H	-1.694520	0.618136	-0.779001
N43	N	-1.353444	0.958996	-0.962330
H44	H	-1.393204	1.023603	-1.001422
H45	H	-1.314974	0.997381	-0.918139
H46	H	-1.415939	0.896595	-0.778943
H47	H	-1.853003	0.459687	-1.091286
H48	H	-1.772715	0.539972	-0.834867
H49	H	-1.892339	0.420397	-0.920364
H50	H	-1.420883	0.891619	-1.091194
N51	N	-1.534741	0.777714	-1.201592
H52	H	-1.589795	0.722655	-1.224295
H53	H	-1.551526	0.865281	-1.224234
