data_functionalizedCrystal
_audit_creation_method	'MofGen! by Chris Wilmer'
_symmetry_space_group_name_H-M	'P1'
_symmetry_Int_Tables_number	1
_symmetry_cell_setting	triclinic
loop_
_symmetry_equiv_pos_as_xyz
  x,y,z
_cell_length_a	15.995300
_cell_length_b	23.532357
_cell_length_c	15.072220
_cell_angle_alpha	89.993295
_cell_angle_beta	89.985917
_cell_angle_gamma	83.150049
loop_
_atom_site_label
_atom_site_type_symbol
_atom_site_fract_x
_atom_site_fract_y
_atom_site_fract_z
O1	O	1.110393	0.073269	-0.073826
O2	O	0.866534	0.082364	-0.073822
O3	O	0.995839	-0.005090	-0.073806
O4	O	0.981089	0.160723	-0.073842
O5	O	0.995807	-0.005085	0.073759
O6	O	0.866503	0.082369	0.073743
O7	O	1.110362	0.073274	0.073739
Zn8	Zn	0.988427	0.077822	0.097170
Zn9	Zn	0.988469	0.077816	-0.097253
O10	O	0.981057	0.160728	0.073723
C11	C	0.835326	0.081996	-0.000039
C12	C	0.742383	0.080884	-0.000036
C13	C	0.572218	0.078830	-0.000043
C14	C	0.524217	0.141099	-0.000054
C15	C	0.427539	0.139963	-0.000391
C16	C	0.404678	0.076808	-0.000048
C17	C	0.446094	0.045912	-0.084142
C18	C	0.542714	0.047487	-0.084211
C19	C	0.542965	0.046571	0.083605
C20	C	0.446020	0.046577	0.084708
C21	C	0.309993	0.075663	-0.000054
C22	C	0.666903	0.079974	-0.000043
C23	C	0.995454	-0.026305	-0.000021
C24	C	0.994345	-0.089528	-0.000012
C25	C	0.987398	-0.481568	-0.080498
C26	C	0.986344	-0.540971	-0.080503
O27	O	0.985785	-0.571692	-0.148912
N28	N	0.985804	-0.570682	-0.000066
C29	C	0.986309	-0.540985	0.080381
O30	O	0.985752	-0.571711	0.148798
C31	C	0.987358	-0.481582	0.080385
C32	C	0.987907	-0.451875	-0.000057
C33	C	0.987946	-0.451861	-0.160933
C34	C	0.989002	-0.392462	-0.160928
C35	C	0.989510	-0.362769	-0.080487
C36	C	0.988963	-0.392476	-0.000052
C37	C	0.987858	-0.451886	0.160831
C38	C	0.988905	-0.392479	0.160828
C39	C	0.989454	-0.362772	0.080386
C40	C	0.990527	-0.303385	0.080395
N41	N	0.991067	-0.273674	-0.000042
C42	C	0.990559	-0.303367	-0.080483
C43	C	0.984106	-0.665735	0.080366
C44	C	0.983064	-0.725137	0.080363
C45	C	0.983097	-0.725119	-0.080521
C46	C	0.984145	-0.665716	-0.080517
C47	C	0.984646	-0.636024	-0.000071
C48	C	0.992777	-0.178624	-0.080465
C49	C	0.993837	-0.119220	-0.080453
C50	C	0.993799	-0.119243	0.080430
C51	C	0.992744	-0.178642	0.080418
C52	C	0.992230	-0.208331	-0.000037
O53	O	0.991083	-0.272626	0.148769
O54	O	0.991105	-0.272633	-0.148889
C55	C	1.141570	0.073642	-0.000046
C56	C	1.234513	0.074755	-0.000054
C57	C	0.981442	0.181943	-0.000064
C58	C	0.982551	0.245166	-0.000078
N59	N	0.988405	0.077826	0.229859
N60	N	0.988498	0.077807	-0.229942
C61	C	0.988467	0.077814	0.589061
C62	C	0.919049	0.124452	0.551445
C63	C	0.919206	0.124622	0.448619
C64	C	0.988435	0.077820	0.410857
C65	C	1.075691	0.090788	0.448143
C66	C	1.075301	0.091120	0.551001
C67	C	0.971410	0.018069	0.551174
C68	C	0.969402	0.018468	0.448311
C69	C	0.988423	0.077822	0.310143
C70	C	0.988485	0.077812	0.689774
H71	H	0.542481	0.166125	0.060240
Br72	Br	0.398593	0.081260	-0.188863
H73	H	0.984591	-0.641533	-0.146020
Br74	Br	0.379724	0.180431	0.100054
Br75	Br	1.048272	-0.042088	0.405488
H76	H	0.399497	0.164131	-0.061035
H77	H	0.989446	-0.368280	-0.226432
H78	H	0.992305	-0.202831	0.145921
H79	H	0.987529	-0.476030	-0.226441
H80	H	0.982680	-0.749305	-0.146020
Br81	Br	0.423263	-0.031433	-0.088950
Br82	Br	0.982339	-0.765447	0.189538
Br83	Br	0.596607	-0.029944	0.084984
H84	H	0.994286	-0.095036	-0.145961
Br85	Br	0.811059	0.111786	0.406600
H86	H	0.560856	0.069751	-0.147320
H87	H	0.575380	0.001763	-0.087794
H88	H	1.091174	0.133862	0.422364
Br89	Br	0.994491	-0.078935	0.189595
H90	H	0.992355	-0.202790	-0.145980
H91	H	0.984517	-0.641563	0.145879
H92	H	0.987412	-0.476063	0.226336
Br93	Br	1.055794	-0.039777	0.591715
H94	H	0.989301	-0.368306	0.226339
Br95	Br	0.576817	0.080742	0.189876
Br96	Br	1.163854	0.036593	0.592476
H97	H	0.853963	0.116854	0.576210
Br98	Br	0.400109	0.084180	0.188406
H99	H	0.431076	0.000533	0.090045
H100	H	0.929736	0.168538	0.577273
Br101	Br	0.937232	0.198525	0.407569
H102	H	1.128560	0.057723	0.423680
Br103	Br	1.100484	0.163740	0.590960
Br104	Br	0.862424	0.002061	0.407699
Br105	Br	0.556564	0.182186	-0.100431
Br106	Br	0.867693	-0.002709	0.594468
