data_functionalizedCrystal
_audit_creation_method	'MofGen! by Chris Wilmer'
_symmetry_space_group_name_H-M	'P1'
_symmetry_Int_Tables_number	1
_symmetry_cell_setting	triclinic
loop_
_symmetry_equiv_pos_as_xyz
  x,y,z
_cell_length_a	12.811438
_cell_length_b	14.185569
_cell_length_c	12.837942
_cell_angle_alpha	75.424284
_cell_angle_beta	90.586849
_cell_angle_gamma	71.540373
loop_
_atom_site_label
_atom_site_type_symbol
_atom_site_fract_x
_atom_site_fract_y
_atom_site_fract_z
O1	O	1.418375	-0.045632	-0.126897
O2	O	1.918375	0.454368	0.373103
O3	O	1.107022	-0.017302	-0.150032
O4	O	1.607022	0.482698	0.349968
O5	O	1.255796	-0.030845	0.012293
O6	O	1.755796	0.469155	0.512293
O7	O	1.269600	-0.032089	-0.289222
O8	O	1.769600	0.467911	0.210778
O9	O	1.299746	-0.201681	0.060240
O10	O	1.799746	0.298319	0.560240
O11	O	1.150971	-0.188138	-0.102085
O12	O	1.650971	0.311862	0.397915
O13	O	1.462324	-0.216468	-0.078950
O14	O	1.962324	0.283532	0.421050
Cu15	Cu	1.310661	-0.217901	-0.086140
Cu16	Cu	1.810661	0.282099	0.413860
Cu17	Cu	1.258685	-0.015869	-0.142843
Cu18	Cu	1.758685	0.484131	0.357157
O19	O	1.313550	-0.202925	-0.241275
O20	O	1.813550	0.297075	0.258725
C21	C	1.088868	-0.099069	-0.126232
C22	C	1.588868	0.400931	0.373768
C23	C	0.969297	-0.088189	-0.126735
C24	C	1.469297	0.411811	0.373265
N25	N	1.347225	-0.360001	-0.046257
N26	N	1.847225	0.139999	0.453743
C27	C	0.776809	0.020257	-0.153576
C28	C	1.276809	0.520257	0.346424
C29	C	0.889155	0.010043	-0.153105
C30	C	1.389155	0.510043	0.346895
C31	C	0.937087	-0.176213	-0.100830
C32	C	1.437087	0.323787	0.399170
C33	C	0.824741	-0.165999	-0.101301
C34	C	1.324741	0.334001	0.398699
C35	C	0.744605	-0.067761	-0.127677
C36	C	1.244605	0.432239	0.372323
C37	C	0.632257	-0.057548	-0.128155
C38	C	1.132257	0.442452	0.371845
C39	C	0.680191	-0.243803	-0.075872
C40	C	1.180191	0.256197	0.424128
C41	C	0.792537	-0.254017	-0.075401
C42	C	1.292537	0.245983	0.424599
C43	C	1.114697	-0.706483	-0.299847
C44	C	1.614697	-0.206483	0.200153
C45	C	1.142402	-0.814027	-0.269644
C46	C	1.642402	-0.314027	0.230356
C47	C	1.274176	-0.825984	-0.125956
C48	C	1.774176	-0.325984	0.374044
C49	C	1.246478	-0.718438	-0.156145
C50	C	1.746478	-0.218438	0.343855
C51	C	1.166739	-0.658697	-0.243092
C52	C	1.666739	-0.158697	0.256908
C53	C	1.298520	-0.670652	-0.099389
C54	C	1.798520	-0.170652	0.400611
C55	C	1.270828	-0.563116	-0.129579
C56	C	1.770828	-0.063116	0.370421
C57	C	1.191094	-0.503368	-0.216525
C58	C	1.691094	-0.003368	0.283475
C59	C	1.139047	-0.551161	-0.273282
C60	C	1.639047	-0.051161	0.226718
C61	C	1.378265	-0.730396	-0.012448
C62	C	1.878265	-0.230396	0.487552
C63	C	1.430307	-0.682609	0.044308
C64	C	1.930307	-0.182609	0.544308
C65	C	1.402610	-0.575072	0.014123
C66	C	1.902610	-0.075072	0.514123
C67	C	1.322876	-0.515323	-0.072823
C68	C	1.822876	-0.015323	0.427177
C69	C	1.454657	-0.527278	0.070880
C70	C	1.954657	-0.027278	0.570880
C71	C	1.426965	-0.419743	0.040690
C72	C	1.926965	0.080257	0.540690
C73	C	1.295183	-0.407788	-0.103013
C74	C	1.795183	0.092212	0.396987
C75	C	1.480477	-0.134699	-0.102751
C76	C	1.980477	0.365301	0.397249
C77	C	1.600047	-0.145572	-0.102250
C78	C	2.100047	0.354428	0.397750
C79	C	1.273106	-0.115838	0.074787
C80	C	1.773106	0.384162	0.574787
C81	C	1.259194	-0.114571	0.189567
C82	C	1.759194	0.385429	0.689567
N83	N	1.222128	0.126230	-0.182717
N84	N	1.722128	0.626230	0.317283
C85	C	1.296239	-0.117930	-0.303770
C86	C	1.796239	0.382070	0.196230
C87	C	1.310150	-0.119190	-0.418552
C88	C	1.810150	0.380810	0.081448
C89	C	1.426433	-0.129767	0.434084
C90	C	1.926433	0.370233	0.934084
C91	C	1.413366	-0.128576	0.541931
C92	C	1.913366	0.371424	1.041931
C93	C	1.219993	-0.110991	0.513108
C94	C	1.719993	0.389009	1.013108
C95	C	1.233060	-0.112182	0.405261
C96	C	1.733060	0.387818	0.905261
C97	C	1.336283	-0.121572	0.365754
C98	C	1.836283	0.378428	0.865754
C99	C	1.349351	-0.122770	0.257907
C100	C	1.849351	0.377230	0.757907
C101	C	1.155977	-0.105177	0.229084
C102	C	1.655977	0.394823	0.729084
C103	C	1.142910	-0.103987	0.336931
C104	C	1.642910	0.396013	0.836931
H105	H	0.567011	0.022442	-0.149636
H106	H	1.067011	0.522442	0.350364
Br107	Br	1.153518	-0.357425	-0.257506
Br108	Br	1.653518	0.142575	0.242494
Br109	Br	1.002824	-0.091232	0.390555
Br110	Br	1.502824	0.408768	0.890555
H111	H	0.915369	0.081716	-0.174196
H112	H	1.415369	0.581716	0.325804
H113	H	1.400813	-0.817958	0.012126
H114	H	1.900813	-0.317958	0.512126
Br115	Br	1.382397	-0.907068	-0.007965
Br116	Br	1.882397	-0.407068	0.492035
H117	H	1.433402	-0.130419	0.225743
H118	H	1.933402	0.369581	0.725743
H119	H	1.510484	-0.137422	0.401919
H120	H	2.010484	0.362578	0.901919
H121	H	0.857797	-0.333999	-0.053923
H122	H	1.357797	0.166001	0.446077
Br123	Br	1.033628	-0.094073	0.136350
Br124	Br	1.533628	0.405927	0.636350
Br125	Br	0.636481	-0.363263	-0.040733
Br126	Br	1.136481	0.136737	0.459267
H127	H	1.049756	-0.657838	-0.370641
H128	H	1.549756	-0.157838	0.129359
H129	H	1.230243	-0.359142	-0.173806
H130	H	1.730243	0.140858	0.326194
Br131	Br	1.535715	-0.139692	0.634661
Br132	Br	2.035715	0.360308	1.134661
Br133	Br	1.538528	-0.763694	0.162300
Br134	Br	2.038528	-0.263694	0.662300
H135	H	1.002351	-0.256193	-0.079344
H136	H	1.502351	0.243807	0.420656
Br137	Br	0.668049	0.153574	-0.189392
Br138	Br	1.168049	0.653574	0.310608
H139	H	1.100017	-0.852928	-0.315870
H140	H	1.600017	-0.352928	0.184130
Br141	Br	1.497602	-0.354887	0.117712
Br142	Br	1.997602	0.145113	0.617712
Br143	Br	1.030810	-0.470076	-0.391271
Br144	Br	1.530810	0.029924	0.108729
H145	H	1.519590	-0.575935	0.141666
H146	H	2.019590	-0.075935	0.641666
H147	H	1.135950	-0.103336	0.545292
H148	H	1.635950	0.396664	1.045292
