data_functionalizedCrystal
_audit_creation_method	'MofGen! by Chris Wilmer'
_symmetry_space_group_name_H-M	'P1'
_symmetry_Int_Tables_number	1
_symmetry_cell_setting	triclinic
loop_
_symmetry_equiv_pos_as_xyz
  x,y,z
_cell_length_a	14.853567
_cell_length_b	13.930277
_cell_length_c	14.853567
_cell_angle_alpha	90.008437
_cell_angle_beta	96.365070
_cell_angle_gamma	90.003636
loop_
_atom_site_label
_atom_site_type_symbol
_atom_site_fract_x
_atom_site_fract_y
_atom_site_fract_z
O1	O	1.196369	0.079756	-0.117691
O2	O	1.696369	0.579756	0.382309
O3	O	0.933909	0.079772	-0.131713
O4	O	1.433909	0.579772	0.368287
O5	O	1.072150	0.079767	0.006528
O6	O	1.572150	0.579767	0.506528
O7	O	1.058128	0.079762	-0.255932
O8	O	1.558128	0.579762	0.244068
O9	O	1.072130	-0.079895	0.006506
O10	O	1.572130	0.420105	0.506506
O11	O	0.933889	-0.079890	-0.131734
O12	O	1.433889	0.420110	0.368266
O13	O	1.196349	-0.079905	-0.117713
O14	O	1.696349	0.420095	0.382287
Zn15	Zn	1.065116	-0.105247	-0.124727
Zn16	Zn	1.565116	0.394753	0.375273
Zn17	Zn	1.065142	0.105114	-0.124699
Zn18	Zn	1.565142	0.605114	0.375301
O19	O	1.058108	-0.079900	-0.255953
O20	O	1.558108	0.420100	0.244047
C21	C	0.900311	-0.000057	-0.131088
C22	C	1.400311	0.499943	0.368912
C23	C	0.800227	-0.000051	-0.129184
C24	C	1.300227	0.499949	0.370816
C25	C	0.387693	-0.000070	-0.039019
C26	C	0.887693	0.499930	0.460981
C27	C	0.366412	-0.000073	-0.203251
C28	C	0.866412	0.499927	0.296749
C29	C	0.460446	-0.000070	-0.205042
C30	C	0.960446	0.499930	0.294958
C31	C	0.518108	-0.000066	-0.123819
C32	C	1.018108	0.499934	0.376181
C33	C	0.481736	-0.000065	-0.040806
C34	C	0.981736	0.499935	0.459194
C35	C	0.496825	-0.000061	-0.288053
C36	C	0.996825	0.499939	0.211947
C37	C	0.590864	-0.000057	-0.289846
C38	C	1.090864	0.499943	0.210154
C39	C	0.648528	-0.000060	-0.208623
C40	C	1.148528	0.499940	0.291377
C41	C	0.612150	-0.000060	-0.125607
C42	C	1.112150	0.499940	0.374393
C43	C	0.669812	-0.000056	-0.044384
C44	C	1.169812	0.499944	0.455616
C45	C	0.633437	-0.000063	0.038633
C46	C	1.133437	0.499937	0.538633
C47	C	0.539399	-0.000067	0.040417
C48	C	1.039399	0.499933	0.540417
C49	C	0.742565	-0.000055	-0.210407
C50	C	1.242565	0.499945	0.289593
C51	C	0.763855	-0.000050	-0.046172
C52	C	1.263855	0.499950	0.453828
N53	N	1.065104	-0.248814	-0.124745
N54	N	1.565104	0.251186	0.375255
C55	C	1.119898	-0.701077	-0.179462
C56	C	1.619898	-0.201077	0.320538
C57	C	1.010414	-0.701058	-0.069899
C58	C	1.510414	-0.201058	0.430101
C59	C	1.010401	-0.600562	-0.069914
C60	C	1.510401	-0.100562	0.430086
C61	C	1.065138	-0.550319	-0.124702
C62	C	1.565138	-0.050319	0.375298
C63	C	1.119888	-0.600572	-0.179476
C64	C	1.619888	-0.100572	0.320524
C65	C	0.955658	-0.550302	-0.015134
C66	C	1.455658	-0.050302	0.484866
C67	C	0.955643	-0.449800	-0.015145
C68	C	1.455643	0.050200	0.484855
C69	C	1.010376	-0.399555	-0.069939
C70	C	1.510376	0.100445	0.430061
C71	C	1.065128	-0.449814	-0.124716
C72	C	1.565128	0.050186	0.375284
C73	C	1.119865	-0.399571	-0.179505
C74	C	1.619865	0.100429	0.320495
C75	C	1.174612	-0.449829	-0.234287
C76	C	1.674612	0.050171	0.265713
C77	C	1.174621	-0.550328	-0.234270
C78	C	1.674621	-0.050328	0.265730
C79	C	1.010367	-0.299056	-0.069957
C80	C	1.510367	0.200944	0.430043
C81	C	1.119855	-0.299066	-0.179519
C82	C	1.619855	0.200934	0.320481
C83	C	1.229947	-0.000075	-0.118337
C84	C	1.729947	0.499925	0.381663
C85	C	1.330031	-0.000075	-0.120241
C86	C	1.830031	0.499925	0.379759
C87	C	1.071504	-0.000061	0.040106
C88	C	1.571504	0.499939	0.540106
C89	C	1.069601	-0.000053	0.140189
C90	C	1.569601	0.499947	0.640189
N91	N	1.065161	0.248680	-0.124673
N92	N	1.565161	0.748680	0.375327
C93	C	1.058754	-0.000070	-0.289531
C94	C	1.558754	0.499930	0.210469
C95	C	1.060657	-0.000072	-0.389615
C96	C	1.560657	0.499928	0.110385
C97	C	0.979435	-0.000066	0.552723
C98	C	1.479435	0.499934	1.052723
C99	C	1.143668	-0.000076	0.574004
C100	C	1.643668	0.499924	1.074004
C101	C	1.145458	-0.000070	0.479970
C102	C	1.645458	0.499930	0.979970
C103	C	1.064235	-0.000064	0.422309
C104	C	1.564235	0.499936	0.922309
C105	C	0.981223	-0.000063	0.458680
C106	C	1.481223	0.499937	0.958680
C107	C	1.228469	-0.000080	0.443591
C108	C	1.728469	0.499920	0.943591
C109	C	1.230262	-0.000076	0.349552
C110	C	1.730262	0.499924	0.849552
C111	C	1.149039	-0.000063	0.291889
C112	C	1.649039	0.499937	0.791889
C113	C	1.066023	-0.000061	0.328266
C114	C	1.566023	0.499939	0.828266
C115	C	0.984800	-0.000055	0.270604
C116	C	1.484800	0.499945	0.770604
C117	C	0.901783	-0.000047	0.306979
C118	C	1.401783	0.499953	0.806979
C119	C	0.899999	-0.000050	0.401017
C120	C	1.399999	0.499950	0.901017
C121	C	1.150823	-0.000059	0.197851
C122	C	1.650823	0.499941	0.697851
C123	C	0.986588	-0.000052	0.176561
C124	C	1.486588	0.499948	0.676561
H125	H	0.358072	-0.000080	0.028572
H126	H	0.858072	0.499920	0.528572
Br127	Br	0.866774	-0.000041	0.602086
Br128	Br	1.366774	0.499959	1.102086
H129	H	0.920445	-0.000043	0.129618
H130	H	1.420445	0.499957	0.629618
Br131	Br	0.711703	-0.000046	0.148859
Br132	Br	1.211703	0.499954	0.648859
Br133	Br	0.881329	-0.381602	0.059184
Br134	Br	1.381329	0.118398	0.559184
Br135	Br	1.253893	-0.000105	0.652259
Br136	Br	1.753893	0.499895	1.152259
Br137	Br	0.791557	-0.000051	0.228714
Br138	Br	1.291557	0.499949	0.728714
H139	H	1.219196	-0.591256	-0.278869
H140	H	1.719196	-0.091256	0.221131
H141	H	0.810798	-0.000050	0.019971
H142	H	1.310798	0.499950	0.519971
Br143	Br	0.881377	-0.618491	0.059217
Br144	Br	1.381377	-0.118491	0.559217
Br145	Br	0.936136	-0.769244	0.004457
Br146	Br	1.436136	-0.269244	0.504457
H147	H	0.832411	-0.000044	0.430643
H148	H	1.332411	0.499956	0.930643
H149	H	0.449870	-0.000054	-0.354180
H150	H	0.949870	0.499946	0.145820
H151	H	0.965795	-0.258141	-0.025351
H152	H	1.465795	0.241859	0.474649
Br153	Br	1.342925	-0.000073	0.300193
Br154	Br	1.842925	0.499927	0.800193
H155	H	1.219183	-0.408908	-0.278892
H156	H	1.719183	0.091092	0.221108
Br157	Br	1.338693	-0.000115	0.521849
Br158	Br	1.838693	0.499885	1.021849
Br159	Br	0.791930	-0.000034	-0.323063
Br160	Br	1.291930	0.499966	0.176937
Br161	Br	0.490027	-0.000073	0.153073
Br162	Br	0.990027	0.499927	0.653073
Br163	Br	0.640223	-0.000048	-0.402509
Br164	Br	1.140223	0.499952	0.097491
H165	H	1.164470	-0.742001	-0.224067
H166	H	1.664470	-0.242001	0.275933
Br167	Br	1.194136	-0.230887	-0.253888
Br168	Br	1.694136	0.269113	0.246112
Br169	Br	1.263479	-0.000094	0.148487
Br170	Br	1.763479	0.499906	0.648487
H171	H	0.319459	-0.000068	-0.269379
H172	H	0.819459	0.499932	0.230621
