data_functionalizedCrystal
_audit_creation_method	'MofGen! by Chris Wilmer'
_symmetry_space_group_name_H-M	'P1'
_symmetry_Int_Tables_number	1
_symmetry_cell_setting	triclinic
loop_
_symmetry_equiv_pos_as_xyz
  x,y,z
_cell_length_a	8.597314
_cell_length_b	14.971493
_cell_length_c	14.048226
_cell_angle_alpha	90.005504
_cell_angle_beta	82.305678
_cell_angle_gamma	84.480675
loop_
_atom_site_label
_atom_site_type_symbol
_atom_site_fract_x
_atom_site_fract_y
_atom_site_fract_z
O1	O	-2.082651	-0.133506	0.091630
O2	O	-1.625747	-0.143748	0.054159
O3	O	-1.866439	-0.008527	0.073902
O4	O	-1.841959	-0.268727	0.071887
O5	O	-1.866410	-0.008519	0.232221
O6	O	-1.625718	-0.143740	0.212478
O7	O	-2.082622	-0.133498	0.249949
Zn8	Zn	-1.854165	-0.138617	0.256350
Zn9	Zn	-1.854204	-0.138628	0.047758
O10	O	-1.841930	-0.268719	0.230206
C11	C	-1.567260	-0.142644	0.128524
C12	C	-1.393031	-0.139356	0.114235
C13	C	-1.865328	0.024811	0.152971
C14	C	-1.862041	0.124134	0.152698
C15	C	-1.141109	-0.134601	0.175586
C16	C	-1.315338	-0.137887	0.189879
C17	C	-1.860516	0.170787	0.066272
C18	C	-1.857417	0.264111	0.066018
C19	C	-1.855855	0.310782	0.152192
C20	C	-1.857375	0.264122	0.238625
C21	C	-1.860462	0.170799	0.238877
C22	C	-1.850944	0.458638	0.238094
C23	C	-1.847859	0.551968	0.237843
C24	C	-1.847898	0.551950	0.065235
C25	C	-1.850986	0.458627	0.065487
C26	C	-1.852509	0.411974	0.151920
N27	N	-1.854151	-0.138609	0.398709
C28	C	-1.843043	0.697944	0.151139
C29	C	-1.846334	0.598621	0.151416
N30	N	-1.854231	-0.138629	-0.094601
C31	C	-1.960763	-0.078759	0.457272
C32	C	-1.960773	-0.078758	0.556931
C33	C	-1.854178	-0.138614	0.598025
C34	C	-1.747555	-0.198467	0.539454
C35	C	-1.747538	-0.198462	0.439797
C36	C	-1.747600	-0.198474	0.747172
C37	C	-1.747619	-0.198480	0.846837
C38	C	-1.960835	-0.078770	0.864306
C39	C	-1.960819	-0.078765	0.764649
C40	C	-1.854197	-0.138620	0.706085
H41	H	-1.326249	-0.138098	0.038534
H42	H	-1.852270	0.420631	-0.004683
H43	H	-2.047650	-0.030034	0.911995
H44	H	-1.846573	0.589964	0.308013
H45	H	-1.852150	0.420654	0.308475
H46	H	-1.861796	0.132795	-0.003901
H47	H	-1.382114	-0.139138	0.265575
C48	C	-1.862141	0.119476	0.333947
C49	C	-1.725524	0.123350	0.393941
C50	C	-1.727194	0.072028	0.489013
C51	C	-1.865480	0.016831	0.524091
C52	C	-2.002107	0.012955	0.464097
C53	C	-2.000438	0.064277	0.369025
H54	H	-1.623147	0.164212	0.367974
H55	H	-1.626052	0.074897	0.533424
H56	H	-1.866715	-0.021161	0.594469
H57	H	-2.104484	-0.027907	0.490063
H58	H	-2.101579	0.061408	0.324613
C59	C	-2.078072	-0.012927	0.719440
C60	C	-2.075258	0.088956	0.732918
C61	C	-2.192509	0.154796	0.687708
C62	C	-2.312572	0.118753	0.629018
C63	C	-2.315390	0.016865	0.615537
C64	C	-2.198140	-0.048976	0.660748
H65	H	-1.986376	0.115642	0.776366
H66	H	-2.190422	0.230221	0.697687
H67	H	-2.399367	0.167492	0.595551
H68	H	-2.404272	-0.009822	0.572090
H69	H	-2.200226	-0.124400	0.650768
H70	H	-2.047584	-0.030023	0.604613
C71	C	-1.855767	0.315437	-0.029047
C72	C	-1.717483	0.370632	-0.064137
C73	C	-1.715840	0.421961	-0.159204
C74	C	-1.852480	0.418095	-0.219181
C75	C	-1.990773	0.362898	-0.184092
C76	C	-1.992417	0.311569	-0.089025
H77	H	-1.616325	0.373496	-0.019738
H78	H	-1.613465	0.462822	-0.185179
H79	H	-1.851263	0.456092	-0.289555
H80	H	-2.091931	0.360034	-0.228491
H81	H	-2.094791	0.270708	-0.063050
C82	C	-1.855647	0.315465	0.333414
C83	C	-1.717343	0.370663	0.345793
C84	C	-1.715616	0.422007	0.440582
C85	C	-1.852194	0.418153	0.522991
C86	C	-1.990508	0.362952	0.510614
C87	C	-1.992235	0.311608	0.415825
H88	H	-1.616230	0.373519	0.284787
H89	H	-1.613226	0.462871	0.449744
H90	H	-1.850915	0.456161	0.593159
H91	H	-2.091620	0.360097	0.571620
H92	H	-2.094625	0.270745	0.406664
C93	C	-1.846227	0.603260	-0.029846
C94	C	-1.980289	0.676380	-0.042581
C95	C	-1.978632	0.727693	-0.137658
C96	C	-1.842913	0.705886	-0.220001
C97	C	-1.708841	0.632762	-0.207269
C98	C	-1.710497	0.581449	-0.112191
H99	H	-2.080765	0.692527	0.018376
H100	H	-2.077882	0.781825	-0.147083
H101	H	-1.841687	0.743871	-0.290383
H102	H	-1.608364	0.616616	-0.268226
H103	H	-1.611248	0.527318	-0.102767
C104	C	-2.078021	-0.012916	0.412074
C105	C	-2.195285	0.052922	0.476497
C106	C	-2.312543	0.118770	0.431303
C107	C	-2.312539	0.118780	0.321685
C108	C	-2.195271	0.052939	0.257255
C109	C	-2.078012	-0.012908	0.302450
H110	H	-2.195292	0.052917	0.557649
H111	H	-2.399353	0.167509	0.478998
H112	H	-2.399340	0.167524	0.288229
H113	H	-2.195263	0.052944	0.176104
H114	H	-1.991203	-0.061648	0.254754
C115	C	-1.630265	-0.264301	0.375375
C116	C	-1.513067	-0.330173	0.420578
C117	C	-1.395784	-0.396010	0.356156
C118	C	-1.395701	-0.395976	0.246532
C119	C	-1.512904	-0.330102	0.201323
C120	C	-1.630186	-0.264264	0.265745
H121	H	-1.513125	-0.330200	0.501733
H122	H	-1.309023	-0.444775	0.389623
H123	H	-1.308881	-0.444713	0.198843
H124	H	-1.512846	-0.330074	0.120168
H125	H	-1.716947	-0.215500	0.232278
H126	H	-1.660816	-0.247219	0.880289
H127	H	-1.660772	-0.247211	0.699492
H128	H	-1.660755	-0.247199	0.572918
