data_functionalizedCrystal
_audit_creation_method	'MofGen! by Chris Wilmer'
_symmetry_space_group_name_H-M	'P1'
_symmetry_Int_Tables_number	1
_symmetry_cell_setting	triclinic
loop_
_symmetry_equiv_pos_as_xyz
  x,y,z
_cell_length_a	10.654541
_cell_length_b	17.699083
_cell_length_c	16.776229
_cell_angle_alpha	90.007545
_cell_angle_beta	90.005775
_cell_angle_gamma	83.883471
loop_
_atom_site_label
_atom_site_type_symbol
_atom_site_fract_x
_atom_site_fract_y
_atom_site_fract_z
O1	O	-1.665988	-0.106296	-0.066266
O2	O	-1.165988	0.393704	0.433734
O3	O	-1.300331	-0.116425	-0.066273
O4	O	-0.800331	0.383575	0.433727
O5	O	-1.493490	-0.001237	-0.066262
O6	O	-0.993490	0.498763	0.433738
O7	O	-1.472829	-0.221484	-0.066276
O8	O	-0.972829	0.278516	0.433724
O9	O	-1.493465	-0.001230	0.066315
O10	O	-0.993465	0.498770	0.566315
O11	O	-1.300306	-0.116418	0.066304
O12	O	-0.800306	0.383582	0.566304
O13	O	-1.665962	-0.106288	0.066311
O14	O	-1.165962	0.393712	0.566311
Zn15	Zn	-1.483130	-0.111352	0.087357
Zn16	Zn	-0.983130	0.388648	0.587357
Zn17	Zn	-1.483164	-0.111362	-0.087318
Zn18	Zn	-0.983164	0.388638	0.412682
O19	O	-1.472803	-0.221477	0.066300
O20	O	-0.972803	0.278523	0.566300
C21	C	-1.253534	-0.115678	0.000015
C22	C	-0.753534	0.384322	0.500015
C23	C	-1.114129	-0.113454	0.000012
C24	C	-0.614129	0.386546	0.500012
C25	C	-1.492737	0.026968	0.000026
C26	C	-0.992737	0.526968	0.500026
C27	C	-1.490516	0.111001	0.000027
C28	C	-0.990516	0.611001	0.500027
C29	C	-1.712760	-0.107035	0.000022
C30	C	-1.212760	0.392965	0.500022
C31	C	-1.852165	-0.109260	0.000019
C32	C	-1.352165	0.390740	0.500019
C33	C	-1.083747	-0.251193	-0.000007
C34	C	-0.583747	0.248807	0.499993
C35	C	-1.003066	-0.319015	-0.000019
C36	C	-0.503066	0.180985	0.499981
C37	C	-0.872084	-0.316920	-0.000020
C38	C	-0.372084	0.183080	0.499980
C39	C	-0.821783	-0.246997	-0.000006
C40	C	-0.321783	0.253003	0.499994
C41	C	-0.902464	-0.179175	0.000007
C42	C	-0.402464	0.320825	0.500007
C43	C	-1.033447	-0.181277	0.000005
C44	C	-0.533447	0.318723	0.500005
C45	C	-0.932846	-0.041438	0.000032
C46	C	-0.432846	0.458562	0.500032
C47	C	-1.063828	-0.043531	0.000027
C48	C	-0.563828	0.456469	0.500027
C49	C	-0.882545	0.028485	0.000046
C50	C	-0.382545	0.528485	0.500046
C51	C	-0.963227	0.096308	0.000053
C52	C	-0.463227	0.596308	0.500053
C53	C	-1.094215	0.094211	0.000053
C54	C	-0.594215	0.594211	0.500053
C55	C	-1.144509	0.024291	0.000039
C56	C	-0.644509	0.524291	0.500039
C57	C	-1.473556	-0.249682	0.000010
C58	C	-0.973556	0.250318	0.500010
C59	C	-1.475777	-0.333714	0.000005
C60	C	-0.975777	0.166286	0.500005
N61	N	-1.483116	-0.111345	0.206568
N62	N	-0.983116	0.388655	0.706568
C63	C	-1.603896	0.158901	0.000030
C64	C	-1.103896	0.658901	0.500030
C65	C	-1.601802	0.237858	0.000023
C66	C	-1.101802	0.737858	0.500023
C67	C	-1.486326	0.268912	0.000018
C68	C	-0.986326	0.768912	0.500018
C69	C	-1.372937	0.221005	0.000013
C70	C	-0.872937	0.721005	0.500013
C71	C	-1.375033	0.142050	0.000014
C72	C	-0.875033	0.642050	0.500014
C73	C	-1.364483	0.539422	0.000006
C74	C	-0.864483	1.039422	0.500006
C75	C	-1.362396	0.618383	0.000007
C76	C	-0.862396	1.118383	0.500007
C77	C	-1.591252	0.635230	0.000015
C78	C	-1.091252	1.135230	0.500015
C79	C	-1.593348	0.556275	0.000016
C80	C	-1.093348	1.056275	0.500016
C81	C	-1.479960	0.508375	0.000006
C82	C	-0.979960	1.008375	0.500006
C83	C	-1.482232	0.422761	0.000013
C84	C	-0.982232	0.922761	0.500013
C85	C	-1.484052	0.354524	0.000018
C86	C	-0.984052	0.854524	0.500018
N87	N	-1.483187	-0.111363	-0.206530
N88	N	-0.983187	0.388637	0.293470
C89	C	-1.568673	-0.060361	0.248290
C90	C	-1.068673	0.439639	0.748290
C91	C	-1.568680	-0.060360	0.331742
C92	C	-1.068680	0.439640	0.831742
C93	C	-1.483135	-0.111348	0.373471
C94	C	-0.983135	0.388652	0.873471
C95	C	-1.397569	-0.162335	0.331743
C96	C	-0.897569	0.337665	0.831743
C97	C	-1.397557	-0.162331	0.248293
C98	C	-0.897557	0.337669	0.748293
C99	C	-1.397615	-0.162350	0.668290
C100	C	-0.897615	0.337650	1.168290
C101	C	-1.397636	-0.162351	0.751747
C102	C	-0.897636	0.337649	1.251747
C103	C	-1.568737	-0.060379	0.751740
C104	C	-1.068737	0.439621	1.251740
C105	C	-1.568725	-0.060376	0.668289
C106	C	-1.068725	0.439624	1.168289
C107	C	-1.483156	-0.111359	0.626569
C108	C	-0.983156	0.388641	1.126569
C109	C	-1.483147	-0.111358	0.536080
C110	C	-0.983147	0.388642	1.036080
C111	C	-1.483148	-0.111353	0.463958
C112	C	-0.983148	0.388647	0.963958
H113	H	-1.190398	-0.252906	-0.000024
H114	H	-0.690398	0.247094	0.499976
C115	C	-0.907894	0.173213	0.000067
C116	C	-0.407894	0.673213	0.500067
H117	H	-0.818331	0.164747	0.000064
H118	H	-0.318331	0.664747	0.500064
H119	H	-0.935596	0.201170	0.046301
H120	H	-0.435596	0.701170	0.546301
H121	H	-0.935599	0.201165	-0.046170
H122	H	-0.435599	0.701165	0.453830
H123	H	-1.159900	0.149440	0.000066
H124	H	-0.659900	0.649440	0.500066
H125	H	-1.638346	-0.018845	0.365712
H126	H	-1.138346	0.481155	0.865712
H127	H	-0.775892	0.030186	0.000050
H128	H	-0.275892	0.530186	0.500050
H129	H	-1.327911	-0.203848	0.365724
H130	H	-0.827911	0.296152	0.865724
H131	H	-1.327887	-0.203847	0.214323
H132	H	-0.827887	0.296153	0.714323
H133	H	-1.044036	-0.375945	-0.000029
H134	H	-0.544036	0.124055	0.499971
H135	H	-1.683578	0.674240	0.000019
H136	H	-1.183578	1.174240	0.500019
C137	C	-1.662844	-0.004305	0.622388
C138	C	-1.162844	0.495695	1.122388
H139	H	-1.650596	-0.011613	0.566712
H140	H	-1.150596	0.488387	1.066712
H141	H	-1.649393	0.046290	0.636067
H142	H	-1.149393	0.546290	1.136067
H143	H	-1.746623	-0.013013	0.636059
H144	H	-1.246623	0.486987	1.136059
H145	H	-1.251159	0.022576	0.000030
H146	H	-0.751159	0.522576	0.500030
H147	H	-0.715130	-0.245298	0.000003
H148	H	-0.215130	0.254702	0.500003
H149	H	-1.694128	0.276856	0.000027
H150	H	-1.194128	0.776856	0.500027
H151	H	-1.638409	-0.018863	0.785718
H152	H	-1.138409	0.481137	1.285718
C153	C	-1.235367	0.652542	-0.000009
C154	C	-0.735367	1.152542	0.499991
H155	H	-1.168136	0.612707	-0.000023
H156	H	-0.668136	1.112707	0.499977
H157	H	-1.229774	0.682998	0.046222
H158	H	-0.729774	1.182998	0.546222
H159	H	-1.229819	0.682986	-0.046249
H160	H	-0.729819	1.182986	0.453751
C161	C	-1.720370	0.522119	0.000018
C162	C	-1.220370	1.022119	0.500018
H163	H	-1.787598	0.561956	0.000011
H164	H	-1.287598	1.061956	0.500011
H165	H	-1.725940	0.491672	0.046249
H166	H	-1.225940	0.991672	0.546249
H167	H	-1.725946	0.491665	-0.046221
H168	H	-1.225946	0.991665	0.453779
H169	H	-1.272155	0.500431	-0.000002
H170	H	-0.772155	1.000431	0.499998
H171	H	-1.278915	0.246296	0.000004
H172	H	-0.778915	0.746296	0.500004
C173	C	-1.303510	-0.218427	0.797647
C174	C	-0.803510	0.281573	1.297647
H175	H	-1.252532	-0.248782	0.760849
H176	H	-0.752532	0.251218	1.260849
H177	H	-1.348568	-0.250193	0.830195
H178	H	-0.848568	0.249807	1.330195
H179	H	-1.251339	-0.190889	0.830208
H180	H	-0.751339	0.309111	1.330208
H181	H	-1.327943	-0.203864	0.634328
H182	H	-0.827943	0.296136	1.134328
C183	C	-1.662780	-0.004281	0.202392
C184	C	-1.162780	0.495719	0.702392
H185	H	-1.650533	-0.011585	0.146715
H186	H	-1.150533	0.488415	0.646715
H187	H	-1.649314	0.046310	0.216077
H188	H	-1.149314	0.546310	0.716077
H189	H	-1.746564	-0.012981	0.216060
H190	H	-1.246564	0.487019	0.716060
H191	H	-0.806392	-0.372147	-0.000025
H192	H	-0.306392	0.127853	0.499975
H193	H	-1.697930	0.133623	0.000039
H194	H	-1.197930	0.633623	0.500039
H195	H	-1.282707	0.103050	0.000011
H196	H	-0.782707	0.603050	0.500011
