data_functionalizedCrystal
_audit_creation_method	'MofGen! by Chris Wilmer'
_symmetry_space_group_name_H-M	'P1'
_symmetry_Int_Tables_number	1
_symmetry_cell_setting	triclinic
loop_
_symmetry_equiv_pos_as_xyz
  x,y,z
_cell_length_a	13.032951
_cell_length_b	13.033615
_cell_length_c	13.032268
_cell_angle_alpha	89.080892
_cell_angle_beta	89.114265
_cell_angle_gamma	90.906029
loop_
_atom_site_label
_atom_site_type_symbol
_atom_site_fract_x
_atom_site_fract_y
_atom_site_fract_z
Zn1	Zn	-1.423952	-0.684124	-0.684588
Zn2	Zn	-1.429256	-0.835039	-0.491368
Zn3	Zn	-1.278421	-0.641803	-0.496781
Zn4	Zn	-1.236102	-0.829553	-0.642259
O5	O	-1.341933	-0.747630	-0.578749
O6	O	-1.566397	-0.724150	-0.674406
O7	O	-1.429177	-0.793990	-0.350339
O8	O	-1.313218	-0.505685	-0.541674
O9	O	-1.570293	-0.835027	-0.532448
O10	O	-1.420139	-0.536778	-0.679655
O11	O	-1.318360	-0.652021	-0.354316
O12	O	-1.131067	-0.646702	-0.500630
O13	O	-1.241090	-0.825677	-0.789621
O14	O	-1.099975	-0.784640	-0.607513
O15	O	-1.379103	-0.718831	-0.820719
O16	O	-1.388142	-0.976043	-0.491404
O17	O	-1.246233	-0.972013	-0.602263
C18	C	-1.078769	-0.710484	-0.550066
C19	C	-0.966180	-0.694620	-0.537816
C20	C	-1.313195	-1.010784	-0.541678
C21	C	-1.300989	-1.123379	-0.525863
C22	C	-1.304785	-0.776363	-0.842951
C23	C	-1.288954	-0.788607	-0.955538
C24	C	-0.900631	-0.755885	-0.585132
C25	C	-0.784264	-0.739490	-0.572472
C26	C	-0.606126	-0.784909	-0.607539
C27	C	-0.718715	-0.800764	-0.619794
C28	C	-1.370807	-0.483455	-0.615990
C29	C	-1.383112	-0.370879	-0.631860
C30	C	-1.335695	-0.305305	-0.570665
C31	C	-1.348412	-0.188952	-0.587066
C32	C	-1.350183	-0.741201	-1.021120
C33	C	-1.333823	-0.753855	-1.137485
C34	C	-1.379003	-0.718944	-0.315591
C35	C	-1.395060	-0.706442	-0.203066
H36	H	-0.930661	-0.820471	-0.635017
H37	H	-1.250968	-0.153371	-0.461330
H38	H	-0.754239	-0.674893	-0.522592
C39	C	-1.450675	-0.330357	-0.719043
N40	N	-1.501567	-0.299837	-0.784711
C41	C	-1.415978	-0.148435	-0.674254
N42	N	-1.466870	-0.117915	-0.739921
H43	H	-1.285682	-0.335304	-0.506135
H44	H	-1.269281	-0.803805	-1.167482
C45	C	-0.759272	-0.888029	-0.687188
N46	N	-0.789820	-0.953756	-0.737946
C47	C	-0.925616	-0.607360	-0.470428
N48	N	-0.895065	-0.541634	-0.419668
C49	C	-1.437362	-0.673709	-0.980595
N50	N	-1.503028	-0.622873	-0.950073
C51	C	-1.482248	-0.638951	-1.162549
N52	N	-1.547918	-0.588120	-1.132029
H53	H	-1.224417	-0.838554	-0.985540
