data_functionalizedCrystal
_audit_creation_method	'MofGen! by Chris Wilmer'
_symmetry_space_group_name_H-M	'P1'
_symmetry_Int_Tables_number	1
_symmetry_cell_setting	triclinic
loop_
_symmetry_equiv_pos_as_xyz
  x,y,z
_cell_length_a	12.759401
_cell_length_b	18.050590
_cell_length_c	12.759393
_cell_angle_alpha	90.035753
_cell_angle_beta	90.018567
_cell_angle_gamma	90.017597
loop_
_atom_site_label
_atom_site_type_symbol
_atom_site_fract_x
_atom_site_fract_y
_atom_site_fract_z
Zn1	Zn	1.606227	-0.295635	0.593953
Zn2	Zn	1.606110	-0.419845	0.418260
Zn3	Zn	1.430529	-0.295671	0.418292
Zn4	Zn	1.430506	-0.419785	0.593901
O5	O	1.518343	-0.357734	0.506101
O6	O	1.753233	-0.312121	0.570655
O7	O	1.582779	-0.403413	0.271243
O8	O	1.453895	-0.191742	0.441629
O9	O	1.753146	-0.403378	0.441574
O10	O	1.582979	-0.191715	0.570686
O11	O	1.453781	-0.312183	0.271267
O12	O	1.283505	-0.312125	0.441579
O13	O	1.453855	-0.403276	0.740929
O14	O	1.283488	-0.403312	0.570598
O15	O	1.582957	-0.312063	0.740967
O16	O	1.582757	-0.523761	0.441524
O17	O	1.453741	-0.523718	0.570567
C18	C	1.245376	-0.357716	0.506087
C19	C	1.128599	-0.357727	0.506106
C20	C	1.073775	-0.310299	0.573422
C21	C	0.964051	-0.310313	0.573429
C22	C	0.963985	-0.405189	0.438799
C23	C	1.073707	-0.405171	0.438788
C24	C	1.073812	-0.255525	0.651152
C25	C	0.964088	-0.255540	0.651159
C26	C	1.518262	-0.550686	0.506060
C27	C	1.518324	-0.633232	0.506077
C28	C	1.588628	-0.832679	0.436001
C29	C	1.614296	-0.882003	0.531888
C30	C	1.518384	-0.784362	0.506119
C31	C	1.492823	-0.882120	0.410275
C32	C	1.518443	-0.930347	0.506151
C33	C	1.544100	-0.832599	0.602056
C34	C	1.422583	-0.832711	0.480379
C35	C	1.448214	-0.882013	0.576331
C36	C	1.518352	-0.700264	0.506099
C37	C	1.518475	-1.014444	0.506181
C38	C	1.792376	-0.357752	0.506117
C39	C	1.909153	-0.357760	0.506123
C40	C	1.518417	-0.357659	0.780135
C41	C	1.518448	-0.357627	0.896912
C42	C	1.518453	-0.164028	0.506167
C43	C	1.518500	-0.081482	0.506194
C44	C	1.518330	-0.357755	0.233134
C45	C	1.518502	-0.357578	0.116358
C46	C	1.585680	-0.310128	0.951795
C47	C	1.585705	-0.310101	1.061519
C48	C	1.451263	-0.405079	1.061467
C49	C	1.451233	-0.405101	0.951745
C50	C	1.663303	-0.255295	0.951826
C51	C	1.663328	-0.255269	1.061550
H52	H	1.107876	-0.276189	0.728388
C53	C	1.377271	-0.457342	0.891371
H54	H	1.386871	-0.450553	0.818171
H55	H	1.392610	-0.507240	0.909329
H56	H	1.306690	-0.446452	0.909356
C57	C	1.114040	-0.177797	0.621905
H58	H	1.056127	-0.145844	0.609873
H59	H	1.155426	-0.158727	0.677638
H60	H	1.155375	-0.180869	0.560141
C61	C	1.773241	-0.276084	1.101790
H62	H	1.773255	-0.276057	1.176248
H63	H	1.791380	-0.324017	1.076964
H64	H	1.822892	-0.241005	1.076995
C65	C	1.723769	-0.911264	0.561331
H66	H	1.718978	-0.940181	0.623333
H67	H	1.750138	-0.940982	0.505824
H68	H	1.769726	-0.870671	0.573017
C69	C	1.367999	-0.911100	0.656536
H70	H	1.316665	-0.940113	0.621487
H71	H	1.402875	-0.940692	0.707245
H72	H	1.334957	-0.870437	0.690345
C73	C	0.903600	-0.457379	0.364764
H74	H	0.830401	-0.450601	0.374415
H75	H	0.921554	-0.446451	0.294200
H76	H	0.921582	-0.507289	0.380021
C77	C	0.918099	-0.181703	0.611992
H78	H	0.973546	-0.148809	0.594550
H79	H	0.876169	-0.190480	0.551715
H80	H	0.876222	-0.160262	0.665559
H81	H	0.934342	-0.271017	0.732493
C82	C	1.377341	-0.457302	1.121786
H83	H	1.386990	-0.450490	1.194994
H84	H	1.306751	-0.446435	1.103805
H85	H	1.392692	-0.507208	1.103783
H86	H	1.471179	-0.903871	0.329209
H87	H	1.740573	-0.275915	0.917788
H88	H	1.118340	-0.443784	0.383963
H89	H	1.648052	-0.811017	0.376766
C90	C	1.313138	-0.803428	0.450901
H91	H	1.295058	-0.820354	0.382734
H92	H	1.263083	-0.821053	0.500024
H93	H	1.313763	-0.750802	0.451733
C94	C	1.573476	-0.803346	0.711599
H95	H	1.573313	-0.750716	0.710909
H96	H	1.523914	-0.820631	0.761459
H97	H	1.641345	-0.820633	0.729999
C98	C	1.633889	-0.177606	0.911628
H99	H	1.621802	-0.145641	0.969554
H100	H	1.689574	-0.158506	0.870278
H101	H	1.572124	-0.180745	0.870265
C102	C	1.624025	-0.181444	1.107562
H103	H	1.606511	-0.148584	1.052127
H104	H	1.563773	-0.190250	1.149459
H105	H	1.677559	-0.159947	1.149478
