data_functionalizedCrystal
_audit_creation_method	'MofGen! by Chris Wilmer'
_symmetry_space_group_name_H-M	'P1'
_symmetry_Int_Tables_number	1
_symmetry_cell_setting	triclinic
loop_
_symmetry_equiv_pos_as_xyz
  x,y,z
_cell_length_a	7.540329
_cell_length_b	9.065218
_cell_length_c	9.065218
_cell_angle_alpha	85.015885
_cell_angle_beta	90.001757
_cell_angle_gamma	90.003038
loop_
_atom_site_label
_atom_site_type_symbol
_atom_site_fract_x
_atom_site_fract_y
_atom_site_fract_z
O1	O	-0.147479	-1.960398	-0.216355
O2	O	0.352521	-1.460398	0.283645
O3	O	-0.147481	-1.531114	-0.234101
O4	O	0.352519	-1.031114	0.265899
O5	O	-0.147476	-1.754629	-0.010585
O6	O	0.352524	-1.254629	0.489415
O7	O	-0.147484	-1.736883	-0.439870
O8	O	0.352516	-1.236883	0.060130
O9	O	0.147489	-1.754616	-0.010583
O10	O	0.647489	-1.254616	0.489417
O11	O	0.147484	-1.531100	-0.234098
O12	O	0.647484	-1.031100	0.265902
O13	O	0.147486	-1.960385	-0.216352
O14	O	0.647486	-1.460385	0.283648
Cu15	Cu	0.174418	-1.745741	-0.225225
Cu16	Cu	0.674418	-1.245741	0.274775
Cu17	Cu	-0.174413	-1.745757	-0.225228
Cu18	Cu	0.325587	-1.245757	0.274772
O19	O	0.147481	-1.736869	-0.439867
O20	O	0.647481	-1.236869	0.060133
C21	C	0.000001	-1.476120	-0.232394
C22	C	0.500001	-0.976120	0.267606
C23	C	0.000000	-1.312277	-0.227294
C24	C	0.500000	-0.812277	0.272706
N25	N	0.419766	-1.745741	-0.225222
N26	N	0.919766	-1.245741	0.274778
N27	N	-0.419761	-1.745769	-0.225220
N28	N	0.080239	-1.245769	0.274780
C29	C	0.000003	-1.752917	0.044403
C30	C	0.500003	-1.252917	0.544403
C31	C	-0.000005	-1.747817	0.208245
C32	C	0.499995	-1.247817	0.708245
C33	C	-0.000000	-2.015378	-0.218059
C34	C	0.500000	-1.515378	0.281941
C35	C	-0.000011	-2.179221	-0.223158
C36	C	0.499989	-1.679221	0.276842
C37	C	-0.000002	-1.738582	-0.494855
C38	C	0.499998	-1.238582	0.005145
C39	C	-0.000005	-1.743681	-0.658698
C40	C	0.499995	-1.243681	-0.158698
