data_functionalizedCrystal
_audit_creation_method	'MofGen! by Chris Wilmer'
_symmetry_space_group_name_H-M	'P1'
_symmetry_Int_Tables_number	1
_symmetry_cell_setting	triclinic
loop_
_symmetry_equiv_pos_as_xyz
  x,y,z
_cell_length_a	19.851628
_cell_length_b	14.809374
_cell_length_c	14.809374
_cell_angle_alpha	90.000000
_cell_angle_beta	65.407214
_cell_angle_gamma	55.133987
loop_
_atom_site_label
_atom_site_type_symbol
_atom_site_fract_x
_atom_site_fract_y
_atom_site_fract_z
Zr1	Zr	0.737331	0.840913	-0.252477
O2	O	0.877863	0.676062	-0.372477
O3	O	0.596799	0.891440	-0.215682
O4	O	0.737331	0.862138	-0.401781
O5	O	0.737331	0.728488	-0.039590
O6	O	0.737331	1.008926	-0.424904
O7	O	0.737331	0.705365	-0.186379
O8	O	0.485945	1.061343	-0.092009
O9	O	0.988717	0.676071	-0.372486
O10	O	0.654602	1.022546	-0.217256
O11	O	0.654602	0.930256	-0.090452
O12	O	0.820060	0.895756	-0.309559
O13	O	0.820060	0.803466	-0.182755
Zr14	Zr	0.737331	1.111903	-0.055245
Zr15	Zr	0.737331	1.075024	-0.289356
Zr16	Zr	0.737331	0.877792	-0.018365
Zr17	Zr	0.914131	0.840927	-0.252490
Zr18	Zr	0.560532	1.111889	-0.055231
O19	O	0.877863	1.061376	-0.092039
O20	O	0.877863	1.008938	-0.424915
O21	O	0.877863	0.728500	-0.039601
O22	O	0.596799	1.276754	0.064756
O23	O	0.596799	1.224316	-0.268120
O24	O	0.596799	0.943878	0.117194
O25	O	0.737331	1.224328	-0.268131
O26	O	0.737331	1.090678	0.094059
O27	O	0.737331	0.943890	0.117183
O28	O	0.737331	1.247451	-0.121342
O29	O	0.988717	0.862158	-0.401800
O30	O	0.485945	1.090658	0.094079
O31	O	0.485945	1.276745	0.064764
O32	O	0.485945	1.247431	-0.121323
O33	O	0.988717	0.705385	-0.186399
O34	O	0.988717	0.891473	-0.215713
O35	O	0.654602	1.057060	0.001838
O36	O	0.654602	1.149350	-0.124966
O37	O	0.820060	1.022560	-0.217269
O38	O	0.820060	0.930270	-0.090465
C39	C	0.516182	0.976390	-0.153844
C40	C	0.441126	0.976383	-0.153838
C41	C	0.737331	0.683571	-0.107730
C42	C	0.737331	0.584184	-0.092074
C43	C	0.737331	0.930277	-0.446698
C44	C	0.737331	0.914621	-0.546084
C45	C	0.259767	0.926080	-0.084711
C46	C	0.270106	0.866566	-0.180902
C47	C	0.303706	0.976399	-0.153856
C48	C	0.159653	1.035876	-0.057685
C49	C	0.170962	0.976414	-0.153864
C50	C	0.315079	0.916815	-0.250098
C51	C	0.204580	1.086194	-0.126815
C52	C	0.214952	1.026695	-0.223072
C53	C	0.380178	0.976387	-0.153849
C54	C	0.094497	0.976422	-0.153882
C55	C	0.958480	0.976426	-0.153878
C56	C	1.033536	0.976433	-0.153884
C57	C	0.737331	0.527768	-0.161946
C58	C	0.737331	0.425047	-0.145766
C59	C	0.737331	1.269245	-0.199991
C60	C	0.737331	1.368632	-0.215648
C61	C	0.737331	0.984493	-0.602501
C62	C	0.737331	0.968313	-0.705222
C63	C	0.737331	1.022539	0.138977
C64	C	0.737331	1.038195	0.238363
C65	C	0.516182	1.269227	-0.199974
C66	C	0.441126	1.368607	-0.215625
C67	C	0.516182	1.022520	0.138994
C68	C	0.441126	1.038170	0.238386
C69	C	0.516182	1.315358	0.092863
C70	C	0.441126	1.430394	0.176599
C71	C	0.958480	0.637458	-0.400585
C72	C	1.033536	0.522422	-0.484321
C73	C	0.958480	0.683589	-0.107747
C74	C	1.033536	0.584209	-0.092097
C75	C	0.958480	0.930296	-0.446715
C76	C	1.033536	0.914646	-0.546107
C77	C	0.405879	1.349085	-0.271159
C78	C	0.335366	1.442451	-0.285884
C79	C	0.300096	1.555339	-0.245069
C80	C	0.335350	1.574859	-0.189533
C81	C	0.405867	1.481493	-0.174815
C82	C	0.405879	1.111712	0.333246
C83	C	0.335366	1.126414	0.426645
C84	C	0.300096	1.067580	0.425181
C85	C	0.335350	0.994030	0.330311
C86	C	0.405867	0.979323	0.236915
C87	C	0.405879	1.532601	0.149731
C88	C	0.335366	1.640697	0.228399
C89	C	0.300096	1.646585	0.333935
C90	C	0.335350	1.544367	0.360803
C91	C	0.405867	1.436273	0.282136
C92	C	1.068792	0.420215	-0.457452
C93	C	1.139327	0.312119	-0.536120
C94	C	1.174601	0.306231	-0.641657
C95	C	1.139342	0.408449	-0.668525
C96	C	1.068813	0.516543	-0.589857
C97	C	1.068791	0.603729	-0.036573
C98	C	1.139324	0.510359	-0.021873
C99	C	1.174596	0.397471	-0.062691
C100	C	1.139338	0.377952	-0.118223
C101	C	1.068812	0.471320	-0.132928
C102	C	1.068784	0.973496	-0.544610
C103	C	1.139297	0.958814	-0.637994
C104	C	1.174567	0.885274	-0.732873
C105	C	1.139313	0.826423	-0.734368
C106	C	1.068796	0.841112	-0.640986
H107	H	0.279510	0.883450	-0.026306
H108	H	0.306669	1.723916	0.206504
H109	H	1.232023	0.321455	-0.050710
H110	H	0.434556	1.497405	-0.129588
N111	N	1.175386	0.262628	-0.159910
N112	N	1.238353	0.179286	-0.146762
H113	H	1.263811	0.097836	-0.176199
N114	N	1.032746	1.048643	-0.447705
N115	N	0.946165	1.134146	-0.394701
H116	H	0.920711	1.187229	-0.326265
H117	H	1.168018	0.526275	0.023349
N118	N	1.246647	0.195802	-0.721995
N119	N	1.278110	0.104559	-0.697978
H120	H	1.328991	0.026564	-0.754713
N121	N	0.228066	1.757014	0.414273
N122	N	0.196607	1.848257	0.390257
H123	H	0.145733	1.926252	0.446991
N124	N	0.737305	0.562597	-0.252001
N125	N	0.670508	0.663081	-0.240912
H126	H	0.670484	0.687684	-0.304512
H127	H	0.242676	1.631353	-0.257060
H128	H	0.306671	1.426535	-0.331105
N129	N	1.032814	0.451350	-0.189648
N130	N	1.064320	0.350548	-0.226081
H131	H	1.038901	0.336435	-0.266143
H132	H	0.306671	1.186308	0.503881
N133	N	1.175288	1.018944	-0.636434
N134	N	1.143792	1.084588	-0.551708
H135	H	1.169207	1.127057	-0.550602
N136	N	0.737322	1.128289	-0.726856
N137	N	0.670536	1.205679	-0.640308
H138	H	0.670532	1.269308	-0.615751
N139	N	0.737326	0.549407	-0.001990
N140	N	0.670541	0.619480	0.087800
H141	H	0.670538	0.594923	0.151425
H142	H	0.434595	1.257172	-0.304411
N143	N	1.032757	0.426232	-0.349649
N144	N	0.946181	0.475783	-0.290970
H145	H	0.920736	0.480026	-0.214835
H146	H	0.306623	1.666784	-0.156306
N147	N	0.228067	1.082620	0.520597
N148	N	0.196609	1.148291	0.605283
H149	H	0.145737	1.158920	0.672675
N150	N	1.032806	0.780974	-0.642502
N151	N	0.969854	0.794074	-0.559126
H152	H	0.944440	0.751595	-0.560200
N153	N	0.441883	1.171830	0.334775
N154	N	0.410395	1.237482	0.419491
H155	H	0.435820	1.279943	0.420581
H156	H	0.306623	0.946132	0.329135
N157	N	1.175392	0.402404	-0.776334
N158	N	1.238361	0.305878	-0.846552
H159	H	1.263822	0.301604	-0.922696
N160	N	1.175345	0.751351	-0.831315
N161	N	1.167462	0.790969	-0.903994
H162	H	1.192917	0.737958	-0.972475
H163	H	0.434556	0.919442	0.159680
N164	N	1.246597	0.870293	-0.828247
N165	N	1.278054	0.922850	-0.826884
H166	H	1.328927	0.912273	-0.894238
N167	N	1.032813	0.620930	-0.617330
N168	N	1.064321	0.615644	-0.711565
H169	H	1.038901	0.689365	-0.730976
N170	N	0.303908	0.750103	-0.209615
N171	N	0.309246	0.711140	-0.289289
H172	H	0.333116	0.628889	-0.309562
N173	N	0.398368	0.853567	-0.352166
N174	N	0.399667	0.808549	-0.424896
H175	H	0.458491	0.763878	-0.496981
N176	N	1.032778	0.719028	0.005139
N177	N	1.064279	0.736419	0.054706
H178	H	1.038852	0.817847	0.084166
N179	N	0.737320	1.074570	-0.567680
N180	N	0.737316	1.087589	-0.484283
H181	H	0.737307	1.151209	-0.459691
N182	N	0.441848	1.331863	0.309572
N183	N	0.504794	1.235350	0.239336
H184	H	0.530199	1.161611	0.258718
H185	H	0.434585	1.527829	0.063803
N186	N	0.299304	1.550412	0.468613
N187	N	0.236336	1.646938	0.538831
H188	H	0.210870	1.651212	0.614975
H189	H	0.177629	1.179026	-0.103905
N190	N	0.190447	1.080036	-0.296526
N191	N	0.200738	1.023855	-0.370798
H192	H	0.183435	1.061519	-0.422680
N193	N	1.175319	0.207707	-0.508680
N194	N	1.238283	0.111195	-0.578917
H195	H	1.263696	0.037455	-0.559537
H196	H	0.737326	0.397308	-0.073959
N197	N	0.076311	1.098966	0.044340
N198	N	0.045613	1.049563	0.092436
H199	H	-0.013244	1.094112	0.164493
N200	N	0.737320	0.403448	-0.305715
N201	N	0.737315	0.486847	-0.318731
H202	H	0.737305	0.511439	-0.382340
N203	N	0.737320	0.878249	-0.740025
N204	N	0.737315	0.865237	-0.823417
H205	H	0.737305	0.801631	-0.847999
N206	N	0.737320	0.824562	-0.580892
N207	N	0.737315	0.811550	-0.664284
H208	H	0.737305	0.747944	-0.688866
