data_functionalizedCrystal
_audit_creation_method	'MofGen! by Chris Wilmer'
_symmetry_space_group_name_H-M	'P1'
_symmetry_Int_Tables_number	1
_symmetry_cell_setting	triclinic
loop_
_symmetry_equiv_pos_as_xyz
  x,y,z
_cell_length_a	10.489741
_cell_length_b	9.565339
_cell_length_c	14.519709
_cell_angle_alpha	89.999284
_cell_angle_beta	95.890341
_cell_angle_gamma	90.000900
loop_
_atom_site_label
_atom_site_type_symbol
_atom_site_fract_x
_atom_site_fract_y
_atom_site_fract_z
O1	O	1.692697	0.116177	-0.130108
O2	O	2.192697	0.616177	0.369892
O3	O	1.321374	0.116199	-0.142321
O4	O	1.821374	0.616199	0.357679
O5	O	1.516880	0.116175	-0.002030
O6	O	2.016880	0.616175	0.497970
O7	O	1.497190	0.116201	-0.270399
O8	O	1.997190	0.616201	0.229601
O9	O	1.516865	-0.116345	-0.002038
O10	O	2.016865	0.383655	0.497962
O11	O	1.321358	-0.116321	-0.142330
O12	O	1.821358	0.383679	0.357670
O13	O	1.692681	-0.116343	-0.130117
O14	O	2.192681	0.383657	0.369883
Zn15	Zn	1.507017	-0.153250	-0.136225
Zn16	Zn	2.007017	0.346750	0.363775
Zn17	Zn	1.507038	0.153106	-0.136213
Zn18	Zn	2.007038	0.653106	0.363787
O19	O	1.497175	-0.116319	-0.270408
O20	O	1.997175	0.383681	0.229592
C21	C	1.273844	-0.000058	-0.141403
C22	C	1.773844	0.499942	0.358597
C23	C	1.132243	-0.000050	-0.138643
C24	C	1.632243	0.499950	0.361357
N25	N	1.507013	-0.362329	-0.136232
N26	N	2.007013	0.137671	0.363768
C27	C	1.065034	-0.000072	-0.049380
C28	C	1.565034	0.499928	0.450620
C29	C	0.972475	0.114573	-0.091543
C30	C	1.472475	0.614573	0.408457
C31	C	0.972493	-0.114673	-0.091573
C32	C	1.472493	0.385327	0.408427
C33	C	1.041549	0.114690	-0.180843
C34	C	1.541549	0.614690	0.319157
C35	C	1.041578	-0.114659	-0.180860
C36	C	1.541578	0.385341	0.319140
C37	C	0.949046	0.000014	-0.223088
C38	C	1.449046	0.500014	0.276912
C39	C	1.416570	-0.453521	-0.201090
C40	C	1.916570	0.046479	0.298910
C41	C	1.531873	-0.546705	-0.219751
C42	C	2.031873	-0.046705	0.280249
C43	C	1.391760	-0.546701	-0.117579
C44	C	1.891760	-0.046701	0.382421
C45	C	1.622373	-0.453461	-0.154934
C46	C	2.122373	0.046539	0.345066
C47	C	1.482185	-0.453449	-0.052726
C48	C	1.982185	0.046551	0.447274
C49	C	1.597571	-0.546591	-0.071351
C50	C	2.097571	-0.046591	0.428649
C51	C	1.740211	-0.000083	-0.131035
C52	C	2.240211	0.499917	0.368965
C53	C	1.881812	-0.000082	-0.133794
C54	C	2.381812	0.499918	0.366206
C55	C	1.515955	-0.000085	0.032331
C56	C	2.015955	0.499915	0.532331
C57	C	1.513205	-0.000086	0.134727
C58	C	2.013205	0.499914	0.634727
N59	N	1.507052	0.362185	-0.136199
N60	N	2.007052	0.862185	0.363801
C61	C	1.498100	-0.000056	-0.304768
C62	C	1.998100	0.499944	0.195232
C63	C	1.500850	-0.000046	-0.407165
C64	C	2.000850	0.499954	0.092835
C65	C	1.503082	-0.000049	0.509678
C66	C	2.003082	0.499951	1.009678
C67	C	1.505893	-0.000060	0.405355
C68	C	2.005893	0.499940	0.905355
C69	C	1.508143	-0.000069	0.322206
C70	C	2.008143	0.499931	0.822206
C71	C	1.510955	-0.000077	0.217876
C72	C	2.010955	0.499923	0.717876
H73	H	1.115488	0.000064	0.024000
H74	H	1.615488	0.500064	0.524000
F75	F	0.932461	0.241257	-0.042174
F76	F	1.432461	0.741257	0.457826
F77	F	1.081333	0.241522	-0.230167
F78	F	1.581333	0.741522	0.269833
H79	H	0.898856	0.000084	-0.296546
H80	H	1.398856	0.500084	0.203454
H81	H	0.941903	-0.211598	-0.053791
H82	H	1.441903	0.288402	0.446209
H83	H	1.072224	-0.211583	-0.218602
H84	H	1.572224	0.288417	0.281398
F85	F	1.559358	-0.600247	-0.312035
F86	F	2.059358	-0.100247	0.187965
H87	H	1.340155	-0.412657	-0.255990
H88	H	1.840155	0.087343	0.244010
F89	F	1.749822	-0.400159	-0.175645
F90	F	2.249822	0.099841	0.324355
F91	F	1.697670	-0.599676	0.000361
F92	F	2.197670	-0.099676	0.500361
F93	F	1.264344	-0.600237	-0.096974
F94	F	1.764344	-0.100237	0.403026
F95	F	1.454656	-0.399863	0.039532
F96	F	1.954656	0.100137	0.539532
