data_functionalizedCrystal
_audit_creation_method	'MofGen! by Chris Wilmer'
_symmetry_space_group_name_H-M	'P1'
_symmetry_Int_Tables_number	1
_symmetry_cell_setting	triclinic
loop_
_symmetry_equiv_pos_as_xyz
  x,y,z
_cell_length_a	10.723024
_cell_length_b	11.792241
_cell_length_c	9.198806
_cell_angle_alpha	89.996670
_cell_angle_beta	89.996352
_cell_angle_gamma	84.330643
loop_
_atom_site_label
_atom_site_type_symbol
_atom_site_fract_x
_atom_site_fract_y
_atom_site_fract_z
O1	O	1.656767	0.159192	-0.120884
O2	O	1.293574	0.174430	-0.120889
O3	O	1.483984	0.001660	-0.120876
O4	O	1.466357	0.331962	-0.120897
O5	O	1.483969	0.001659	0.120909
O6	O	1.293559	0.174430	0.120896
O7	O	1.656751	0.159192	0.120901
Cu8	Cu	1.475154	0.166811	0.142976
Cu9	Cu	1.475172	0.166811	-0.142963
O10	O	1.466341	0.331962	0.120889
C11	C	1.247070	0.173321	0.000003
C12	C	1.108524	0.170003	0.000002
C13	C	1.482869	-0.040634	0.000016
C14	C	1.479555	-0.166655	0.000015
C15	C	1.033286	0.266676	-0.000005
C16	C	0.890091	0.263249	-0.000007
C17	C	1.473461	-0.397380	-0.000010
C18	C	1.476847	-0.268988	0.000004
C19	C	1.703256	0.160301	0.000006
C20	C	1.841801	0.163619	-0.000002
C21	C	1.467456	0.374255	-0.000007
C22	C	1.470770	0.500276	-0.000015
N23	N	1.475150	0.166810	0.344090
N24	N	1.475185	0.166803	-0.344077
C25	C	1.555099	0.093948	0.416292
C26	C	1.555118	0.093944	0.583704
H27	H	0.825440	0.346009	-0.000019
O28	O	1.393474	0.241338	0.582094
C29	C	1.226534	0.393397	0.597854
C30	C	1.319023	0.309066	0.681659
H31	H	1.166298	0.448161	0.678315
H32	H	1.280965	0.450423	0.526620
H33	H	1.163807	0.343974	0.526568
H34	H	1.381772	0.358397	0.753024
H35	H	1.264514	0.252041	0.752801
O36	O	1.083103	0.368349	-0.000069
C37	C	1.271244	0.464467	0.000033
C38	C	1.214997	0.349242	0.000067
H39	H	1.377887	0.449059	0.000174
H40	H	1.238829	0.514842	-0.101179
H41	H	1.238642	0.514814	0.101194
H42	H	1.247573	0.298803	-0.101025
H43	H	1.247407	0.298954	0.101347
H44	H	0.906445	0.080854	-0.000005
H45	H	1.066928	0.084701	-0.000030
O46	O	1.636789	0.019421	0.342417
C47	C	1.803734	-0.132638	0.358115
C48	C	1.711264	-0.048312	0.441954
H49	H	1.863989	-0.187405	0.438554
H50	H	1.749287	-0.189660	0.286911
H51	H	1.866444	-0.083210	0.286796
H52	H	1.648532	-0.097647	0.513352
H53	H	1.765789	0.008710	0.513066
H54	H	1.623570	0.031569	0.645795
H55	H	1.406713	0.229182	0.406213
