data_functionalizedCrystal
_audit_creation_method	'MofGen! by Chris Wilmer'
_symmetry_space_group_name_H-M	'P1'
_symmetry_Int_Tables_number	1
_symmetry_cell_setting	triclinic
loop_
_symmetry_equiv_pos_as_xyz
  x,y,z
_cell_length_a	19.805407
_cell_length_b	18.050590
_cell_length_c	18.050582
_cell_angle_alpha	89.976663
_cell_angle_beta	89.985914
_cell_angle_gamma	90.015869
loop_
_atom_site_label
_atom_site_type_symbol
_atom_site_fract_x
_atom_site_fract_y
_atom_site_fract_z
Zn1	Zn	1.034748	-0.295760	-0.419892
Zn2	Zn	1.534748	0.204240	0.080108
Zn3	Zn	1.034685	-0.419943	-0.295700
Zn4	Zn	1.534685	0.080057	0.204300
Zn5	Zn	0.921570	-0.295766	-0.295718
Zn6	Zn	1.421570	0.204234	0.204282
Zn7	Zn	0.921541	-0.419907	-0.419851
Zn8	Zn	1.421541	0.080093	0.080149
O9	O	0.978136	-0.357844	-0.357790
O10	O	1.478136	0.142156	0.142210
O11	O	1.129456	-0.312246	-0.403428
O12	O	1.629456	0.187754	0.096572
O13	O	1.019666	-0.403488	-0.191778
O14	O	1.519666	0.096512	0.308222
O15	O	0.936621	-0.191840	-0.312215
O16	O	1.436621	0.308160	0.187785
O17	O	1.129410	-0.403483	-0.312185
O18	O	1.629410	0.096517	0.187815
O19	O	1.019772	-0.191836	-0.403445
O20	O	1.519772	0.308164	0.096555
O21	O	0.936561	-0.312256	-0.191791
O22	O	1.436561	0.187744	0.308209
O23	O	0.826849	-0.312220	-0.312174
O24	O	1.326849	0.187780	0.187826
O25	O	0.936573	-0.403421	-0.523781
O26	O	1.436573	0.096579	-0.023781
O27	O	0.826829	-0.403426	-0.403374
O28	O	1.326829	0.096574	0.096626
O29	O	1.019745	-0.312210	-0.523811
O30	O	1.519745	0.187790	-0.023811
O31	O	1.019639	-0.523863	-0.312145
O32	O	1.519639	-0.023863	0.187855
O33	O	0.936512	-0.523836	-0.403357
O34	O	1.436512	-0.023836	0.096643
C35	C	0.802280	-0.357821	-0.357772
C36	C	1.302280	0.142179	0.142228
C37	C	0.727048	-0.357828	-0.357782
C38	C	1.227048	0.142172	0.142218
C39	C	0.691728	-0.310405	-0.405365
C40	C	1.191728	0.189595	0.094635
C41	C	0.621040	-0.310409	-0.405368
C42	C	1.121040	0.189591	0.094632
C43	C	0.585673	-0.357841	-0.357791
C44	C	1.085673	0.142159	0.142209
C45	C	0.620997	-0.405266	-0.310203
C46	C	1.120997	0.094734	0.189797
C47	C	0.691684	-0.405257	-0.310197
C48	C	1.191684	0.094743	0.189803
C49	C	0.335924	-0.405299	-0.310226
C50	C	0.835924	0.094701	0.189774
C51	C	0.265232	-0.405305	-0.310237
C52	C	0.765232	0.094695	0.189763
C53	C	0.265280	-0.310451	-0.405396
C54	C	0.765280	0.189549	0.094604
C55	C	0.335967	-0.310443	-0.405390
C56	C	0.835967	0.189557	0.094610
C57	C	0.371285	-0.357865	-0.357800
C58	C	0.871285	0.142135	0.142200
C59	C	0.447934	-0.357859	-0.357797
C60	C	0.947934	0.142141	0.142203
C61	C	0.509025	-0.357851	-0.357798
C62	C	1.009025	0.142149	0.142202
C63	C	0.978084	-0.550796	-0.357761
C64	C	1.478084	-0.050796	0.142239
C65	C	0.978124	-0.633342	-0.357773
C66	C	1.478124	-0.133342	0.142227
C67	C	1.023422	-0.832780	-0.308241
C68	C	1.523422	-0.332780	0.191759
C69	C	1.039951	-0.882119	-0.376020
C70	C	1.539951	-0.382119	0.123980
C71	C	0.978162	-0.784472	-0.357802
C72	C	1.478162	-0.284472	0.142198
C73	C	0.961702	-0.882214	-0.290053
C74	C	1.461702	-0.382214	0.209947
C75	C	0.978201	-0.930457	-0.357825
C76	C	1.478201	-0.430457	0.142175
C77	C	0.994722	-0.832724	-0.425618
C78	C	1.494722	-0.332724	0.074382
C79	C	0.916446	-0.832815	-0.339605
C80	C	1.416446	-0.332815	0.160395
C81	C	0.932951	-0.882132	-0.407431
C82	C	1.432951	-0.382132	0.092569
C83	C	0.978142	-0.700374	-0.357788
C84	C	1.478142	-0.200374	0.142212
C85	C	0.978221	-1.014554	-0.357847
C86	C	1.478221	-0.514554	0.142153
C87	C	1.154679	-0.357868	-0.357809
C88	C	1.654679	0.142132	0.142191
C89	C	1.229911	-0.357878	-0.357817
C90	C	1.729911	0.142122	0.142183
C91	C	0.978163	-0.357811	-0.551496
C92	C	1.478163	0.142189	-0.051496
C93	C	0.978174	-0.357797	-0.634042
C94	C	1.478174	0.142203	-0.134042
C95	C	0.978207	-0.164138	-0.357836
C96	C	1.478207	0.335862	0.142164
C97	C	0.978237	-0.081592	-0.357856
C98	C	1.478237	0.418408	0.142144
C99	C	0.932979	-0.407329	-0.833476
C100	C	1.432979	0.092671	-0.333476
C101	C	0.994734	-0.425486	-0.882866
C102	C	1.494734	0.074514	-0.382866
C103	C	0.978207	-0.357740	-0.785172
C104	C	1.478207	0.142260	-0.285172
C105	C	0.916487	-0.339563	-0.882864
C106	C	1.416487	0.160437	-0.382864
C107	C	0.978234	-0.357687	-0.931157
C108	C	1.478234	0.142313	-0.431157
C109	C	1.039994	-0.375932	-0.833475
C110	C	1.539994	0.124068	-0.333475
C111	C	0.961705	-0.289978	-0.833469
C112	C	1.461705	0.210022	-0.333469
C113	C	1.023502	-0.308109	-0.882836
C114	C	1.523502	0.191891	-0.382836
C115	C	0.978191	-0.357773	-0.701074
C116	C	1.478191	0.142227	-0.201074
C117	C	0.978257	-0.357654	-1.015254
C118	C	1.478257	0.142346	-0.515254
C119	C	0.978149	-0.357823	-0.164838
C120	C	1.478149	0.142177	0.335162
C121	C	0.978269	-0.357628	-0.082293
C122	C	1.478269	0.142372	0.417707
H123	H	0.364672	-0.443914	-0.271476
H124	H	0.864672	0.056086	0.228524
H125	H	1.008708	-0.482768	-0.904564
H126	H	1.508708	0.017232	-0.404564
H127	H	0.236438	-0.443931	-0.271492
H128	H	0.736438	0.056069	0.228508
O129	O	0.370217	-0.264298	-0.451629
O130	O	0.870217	0.235702	0.048371
C131	C	0.362802	-0.170239	-0.546045
C132	C	0.862802	0.329761	-0.046045
C133	C	0.323931	-0.222451	-0.493707
C134	C	0.823931	0.277549	0.006293
H135	H	0.325397	-0.136404	-0.580090
H136	H	0.825397	0.363596	-0.080090
H137	H	0.395873	-0.131308	-0.512049
H138	H	0.895873	0.368692	-0.012049
H139	H	0.395922	-0.204396	-0.584781
H140	H	0.895922	0.295604	-0.084781
H141	H	0.290775	-0.188354	-0.454961
H142	H	0.790775	0.311646	0.045039
H143	H	0.290903	-0.261385	-0.527749
H144	H	0.790903	0.238615	-0.027749
O145	O	0.887469	-0.457520	-0.807649
O146	O	1.387469	0.042480	-0.307649
C147	C	0.853464	-0.585643	-0.803558
C148	C	1.353464	-0.085643	-0.303558
C149	C	0.905057	-0.528882	-0.832842
C150	C	1.405057	-0.028882	-0.332842
H151	H	0.867657	-0.643350	-0.823928
H152	H	1.367657	-0.143350	-0.323928
H153	H	0.853535	-0.584888	-0.740405
H154	H	1.353535	-0.084888	-0.240405
H155	H	0.800971	-0.570697	-0.824706
H156	H	1.300971	-0.070697	-0.324706
H157	H	0.957575	-0.543789	-0.811749
H158	H	1.457575	-0.043789	-0.311749
H159	H	0.904927	-0.529648	-0.895994
H160	H	1.404927	-0.029648	-0.395994
H161	H	0.236515	-0.271835	-0.444144
H162	H	0.736515	0.228165	0.055856
O163	O	0.586539	-0.451316	-0.264056
O164	O	1.086539	0.048684	0.235944
C165	C	0.477623	-0.493340	-0.221860
C166	C	0.977623	0.006660	0.278140
C167	C	0.516560	-0.441160	-0.274171
C168	C	1.016560	0.058840	0.225829
H169	H	0.421038	-0.485136	-0.230009
H170	H	0.921038	0.014864	0.269991
H171	H	0.491466	-0.553256	-0.234793
H172	H	0.991466	-0.053256	0.265207
H173	H	0.491545	-0.480221	-0.162007
H174	H	0.991545	0.019779	0.337993
H175	H	0.502659	-0.454212	-0.334041
H176	H	1.002659	0.045788	0.165959
H177	H	0.502713	-0.381260	-0.261174
H178	H	1.002713	0.118740	0.238826
H179	H	1.092159	-0.903779	-0.391427
H180	H	1.592159	-0.403779	0.108573
O181	O	0.944950	-0.908110	-0.221713
O182	O	1.444950	-0.408110	0.278287
C183	C	0.861463	-0.911253	-0.124631
C184	C	1.361463	-0.411253	0.375369
C185	C	0.880335	-0.881892	-0.202039
C186	C	1.380335	-0.381892	0.297961
H187	H	0.809227	-0.890054	-0.108695
H188	H	1.309227	-0.390054	0.391305
H189	H	0.861105	-0.974405	-0.125409
H190	H	1.361105	-0.474405	0.374591
H191	H	0.900117	-0.890994	-0.082458
H192	H	1.400117	-0.390994	0.417542
H193	H	0.841701	-0.902096	-0.244256
H194	H	1.341701	-0.402096	0.255744
H195	H	0.880715	-0.818742	-0.201200
H196	H	1.380715	-0.318742	0.298800
O197	O	1.069043	-0.806797	-0.258297
O198	O	1.569043	-0.306797	0.241703
C199	C	1.119771	-0.699366	-0.201919
C200	C	1.619771	-0.199366	0.298081
C201	C	1.068070	-0.728692	-0.258487
C202	C	1.568070	-0.228692	0.241513
H203	H	1.119012	-0.636216	-0.202064
H204	H	1.619012	-0.136216	0.297936
H205	H	1.106243	-0.720517	-0.144274
H206	H	1.606243	-0.220517	0.355726
H207	H	1.172372	-0.719665	-0.217578
H208	H	1.672372	-0.219665	0.282422
H209	H	1.015450	-0.708406	-0.242896
H210	H	1.515450	-0.208406	0.257104
H211	H	1.081656	-0.707548	-0.316116
H212	H	1.581656	-0.207548	0.183884
H213	H	0.720441	-0.443874	-0.271450
H214	H	1.220441	0.056126	0.228550
O215	O	1.011445	-0.806783	-0.493949
O216	O	1.511445	-0.306783	0.006051
C217	C	1.030144	-0.699395	-0.570609
C218	C	1.530144	-0.199395	-0.070609
C219	C	1.011209	-0.728674	-0.493188
C220	C	1.511209	-0.228674	0.006812
H221	H	1.029946	-0.636241	-0.570023
H222	H	1.529946	-0.136241	-0.070023
H223	H	1.082624	-0.720089	-0.586245
H224	H	1.582624	-0.220089	-0.086245
H225	H	0.991828	-0.720187	-0.612893
H226	H	1.491828	-0.220187	-0.112893
H227	H	1.049480	-0.707895	-0.450852
H228	H	1.549480	-0.207895	0.049148
H229	H	0.958712	-0.707986	-0.477615
H230	H	1.458712	-0.207986	0.022385
O231	O	1.102248	-0.394352	-0.807585
O232	O	1.602248	0.105648	-0.307585
C233	C	1.172086	-0.415001	-0.700254
C234	C	1.672086	0.084999	-0.200254
C235	C	1.101551	-0.394145	-0.729476
C236	C	1.601551	0.105855	-0.229476
H237	H	1.171550	-0.414825	-0.637100
H238	H	1.671550	0.085175	-0.137100
H239	H	1.186267	-0.472582	-0.720988
H240	H	1.686267	0.027418	-0.220988
H241	H	1.210675	-0.372981	-0.721049
H242	H	1.710675	0.127019	-0.221049
H243	H	1.062915	-0.436115	-0.708693
H244	H	1.562915	0.063885	-0.208693
H245	H	1.087427	-0.336545	-0.708748
H246	H	1.587427	0.163455	-0.208748
O247	O	0.854160	-0.806916	-0.321335
O248	O	1.354160	-0.306916	0.178665
C249	C	0.757954	-0.734589	-0.359326
C250	C	1.257954	-0.234589	0.140674
C251	C	0.828480	-0.763884	-0.380128
C252	C	1.328480	-0.263884	0.119872
H253	H	0.737177	-0.699779	-0.406841
H254	H	1.237177	-0.199779	0.093159
H255	H	0.722633	-0.783256	-0.348362
H256	H	1.222633	-0.283256	0.151638
H257	H	0.761863	-0.699000	-0.307342
H258	H	1.261863	-0.199000	0.192658
H259	H	0.824635	-0.799462	-0.432122
H260	H	1.324635	-0.299462	0.067878
H261	H	0.863773	-0.715183	-0.391043
H262	H	1.363773	-0.215183	0.108957
O263	O	1.069099	-0.257962	-0.908562
O264	O	1.569099	0.242038	-0.408562
C265	C	1.087326	-0.147393	-0.980702
C266	C	1.587326	0.352607	-0.480702
C267	C	1.035614	-0.204120	-0.951606
C268	C	1.535614	0.295880	-0.451606
H269	H	1.060276	-0.103856	-1.015521
H270	H	1.560276	0.396144	-0.515521
H271	H	1.113485	-0.119366	-0.931934
H272	H	1.613485	0.380634	-0.431934
H273	H	1.126516	-0.176999	-1.016234
H274	H	1.626516	0.323001	-0.516234
H275	H	0.996384	-0.174571	-0.916086
H276	H	1.496384	0.325429	-0.416086
H277	H	1.009507	-0.232145	-1.000407
H278	H	1.509507	0.267855	-0.500407
H279	H	0.894693	-0.903665	-0.449402
H280	H	1.394693	-0.403665	0.050598
O281	O	0.944937	-0.221720	-0.807465
O282	O	1.444937	0.278280	-0.307465
C283	C	0.867388	-0.149701	-0.734049
C284	C	1.367388	0.350299	-0.234049
C285	C	0.886320	-0.227047	-0.763436
C286	C	1.386320	0.272953	-0.263436
H287	H	0.819987	-0.153980	-0.698459
H288	H	1.319987	0.346020	-0.198459
H289	H	0.910694	-0.126897	-0.699259
H290	H	1.410694	0.373103	-0.199259
H291	H	0.857445	-0.110953	-0.782726
H292	H	1.357445	0.389047	-0.282726
H293	H	0.896253	-0.265850	-0.714804
H294	H	1.396253	0.234150	-0.214804
H295	H	0.843004	-0.249790	-0.798248
H296	H	1.343004	0.250210	-0.298248
O297	O	0.725977	-0.264262	-0.451607
O298	O	1.225977	0.235738	0.048393
C299	C	0.718555	-0.170209	-0.546028
C300	C	1.218555	0.329791	-0.046028
C301	C	0.679688	-0.222419	-0.493684
C302	C	1.179688	0.277581	0.006316
H303	H	0.681147	-0.136377	-0.580072
H304	H	1.181147	0.363623	-0.080072
H305	H	0.751628	-0.131276	-0.512037
H306	H	1.251628	0.368724	-0.012037
H307	H	0.751672	-0.204369	-0.584765
H308	H	1.251672	0.295631	-0.084765
H309	H	0.646534	-0.188319	-0.454937
H310	H	1.146534	0.311681	0.045063
H311	H	0.646658	-0.261355	-0.527721
H312	H	1.146658	0.238645	-0.027721
O313	O	0.586659	-0.264449	-0.451631
O314	O	1.086659	0.235551	0.048369
C315	C	0.506920	-0.254615	-0.551959
C316	C	1.006920	0.245385	-0.051959
C317	C	0.545800	-0.306750	-0.499597
C318	C	1.045800	0.193250	0.000403
H319	H	0.473887	-0.288795	-0.590763
H320	H	0.973887	0.211205	-0.090763
H321	H	0.473777	-0.215744	-0.517983
H322	H	0.973777	0.284256	-0.017983
H323	H	0.544356	-0.220703	-0.585930
H324	H	1.044356	0.279297	-0.085930
H325	H	0.508413	-0.340710	-0.465615
H326	H	1.008413	0.159290	0.034385
H327	H	0.578953	-0.345572	-0.533616
H328	H	1.078953	0.154428	-0.033616
H329	H	0.864279	-0.324211	-0.904559
H330	H	1.364279	0.175789	-0.404559
