data_functionalizedCrystal
_audit_creation_method	'MofGen! by Chris Wilmer'
_symmetry_space_group_name_H-M	'P1'
_symmetry_Int_Tables_number	1
_symmetry_cell_setting	triclinic
loop_
_symmetry_equiv_pos_as_xyz
  x,y,z
_cell_length_a	19.188930
_cell_length_b	15.538191
_cell_length_c	14.750522
_cell_angle_alpha	72.474743
_cell_angle_beta	75.747426
_cell_angle_gamma	65.208439
loop_
_atom_site_label
_atom_site_type_symbol
_atom_site_fract_x
_atom_site_fract_y
_atom_site_fract_z
O1	O	-0.905516	-0.136000	0.080121
O2	O	-0.405516	0.364000	0.580121
O3	O	-0.698216	-0.151832	0.080052
O4	O	-0.198216	0.348168	0.580052
O5	O	-0.842219	-0.006624	0.080104
O6	O	-0.342219	0.493376	0.580104
O7	O	-0.761513	-0.281208	0.080069
O8	O	-0.261513	0.218792	0.580069
O9	O	-0.824395	0.029791	-0.079558
O10	O	-0.324395	0.529791	0.420442
O11	O	-0.680392	-0.115417	-0.079610
O12	O	-0.180392	0.384583	0.420390
O13	O	-0.887692	-0.099584	-0.079542
O14	O	-0.387692	0.400416	0.420458
Zn15	Zn	-0.781212	-0.101719	-0.104926
Zn16	Zn	-0.281212	0.398281	0.395074
Zn17	Zn	-0.804696	-0.149698	0.105436
Zn18	Zn	-0.304696	0.350302	0.605436
O19	O	-0.743689	-0.244792	-0.079594
O20	O	-0.243689	0.255208	0.420406
C21	C	-0.663421	-0.133110	0.000213
C22	C	-0.163421	0.366890	0.500213
C23	C	-0.586301	-0.131563	0.000188
C24	C	-0.086301	0.368437	0.500188
N25	N	-0.765190	-0.068974	-0.248492
N26	N	-0.265190	0.431026	0.251508
C27	C	-0.922487	-0.118308	0.000300
C28	C	-0.422487	0.381692	0.500300
C29	C	-0.999608	-0.119855	0.000331
C30	C	-0.499608	0.380145	0.500331
C31	C	-0.519976	-0.216774	0.000192
C32	C	-0.019976	0.283226	0.500192
C33	C	-0.447516	-0.215329	0.000202
C34	C	0.052484	0.284671	0.500202
C35	C	-0.441389	-0.128673	0.000228
C36	C	0.058611	0.371327	0.500228
C37	C	-0.507727	-0.043449	0.000219
C38	C	-0.007727	0.456551	0.500219
C39	C	-0.580183	-0.044894	0.000199
C40	C	-0.080183	0.455106	0.500199
N41	N	-0.356119	-0.074835	0.054616
N42	N	0.143881	0.425165	0.554616
N43	N	-0.287287	-0.073468	0.054637
N44	N	0.212713	0.426532	0.554637
C45	C	-0.223086	-0.124313	0.000288
C46	C	0.276914	0.375687	0.500288
N47	N	-0.230313	-0.176593	-0.054072
N48	N	0.269687	0.323407	0.445928
N49	N	-0.299151	-0.177963	-0.054089
N50	N	0.200849	0.322037	0.445911
C51	C	-0.362827	-0.127096	0.000250
C52	C	0.137173	0.372904	0.500250
C53	C	-0.078190	-0.207963	0.000302
C54	C	0.421810	0.292037	0.500302
C55	C	-0.005730	-0.206513	0.000307
C56	C	0.494270	0.293487	0.500307
C57	C	-0.065944	-0.034633	0.000333
C58	C	0.434056	0.465367	0.500333
C59	C	-0.138400	-0.036083	0.000319
C60	C	0.361600	0.463917	0.500319
C61	C	-0.144519	-0.122752	0.000308
C62	C	0.355481	0.377248	0.500308
C63	C	-0.841751	0.046712	0.000279
C64	C	-0.341751	0.546712	0.500279
C65	C	-0.866904	0.151385	0.000297
C66	C	-0.366904	0.651385	0.500297
C67	C	-0.744157	-0.298129	0.000234
C68	C	-0.244157	0.201871	0.500234
C69	C	-0.719005	-0.402804	0.000222
C70	C	-0.219005	0.097196	0.500222
C71	C	-0.617028	0.438170	0.000194
C72	C	-0.117028	0.938170	0.500194
C73	C	-0.640679	0.536532	0.000200
C74	C	-0.140679	1.036532	0.500200
C75	C	-0.773712	0.559513	0.000244
C76	C	-0.273712	1.059513	0.500244
C77	C	-0.750073	0.461150	0.000243
C78	C	-0.250073	0.961150	0.500243
C79	C	-0.671729	0.400486	0.000217
C80	C	-0.171729	0.900486	0.500217
C81	C	-0.804774	0.423466	0.000266
C82	C	-0.304774	0.923466	0.500266
C83	C	-0.781136	0.325112	0.000260
C84	C	-0.281136	0.825112	0.500260
C85	C	-0.702796	0.264443	0.000231
C86	C	-0.202796	0.764443	0.500231
C87	C	-0.648091	0.302133	0.000211
C88	C	-0.148091	0.802133	0.500211
C89	C	-0.883116	0.484133	0.000285
C90	C	-0.383116	0.984133	0.500285
C91	C	-0.937818	0.446449	0.000308
C92	C	-0.437818	0.946449	0.500308
C93	C	-0.914181	0.348092	0.000309
C94	C	-0.414181	0.848092	0.500309
C95	C	-0.835841	0.287423	0.000280
C96	C	-0.335841	0.787423	0.500280
C97	C	-0.968886	0.310403	0.000329
C98	C	-0.468886	0.810403	0.500329
C99	C	-0.945247	0.212049	0.000323
C100	C	-0.445247	0.712049	0.500323
C101	C	-0.812202	0.189070	0.000274
C102	C	-0.312202	0.689070	0.500274
C103	C	-0.865408	-0.273914	-0.600243
C104	C	-0.365408	0.226086	-0.100243
C105	C	-0.854201	-0.250954	-0.700750
C106	C	-0.354201	0.249046	-0.200750
C107	C	-0.798440	-0.136854	-0.700750
C108	C	-0.298440	0.363146	-0.200750
C109	C	-0.809639	-0.159808	-0.600241
C110	C	-0.309639	0.340192	-0.100241
C111	C	-0.843124	-0.228338	-0.549996
C112	C	-0.343124	0.271662	-0.049996
C113	C	-0.787354	-0.114233	-0.549994
C114	C	-0.287354	0.385767	-0.049994
C115	C	-0.798556	-0.137181	-0.449494
C116	C	-0.298556	0.362819	0.050506
C117	C	-0.832042	-0.205706	-0.399241
C118	C	-0.332042	0.294294	0.100759
C119	C	-0.854326	-0.251287	-0.449496
C120	C	-0.354326	0.248713	0.050504
C121	C	-0.753874	-0.045698	-0.600241
C122	C	-0.253874	0.454302	-0.100241
C123	C	-0.731590	-0.000122	-0.549994
C124	C	-0.231590	0.499878	-0.049994
C125	C	-0.742786	-0.023076	-0.449492
C126	C	-0.242786	0.476924	0.050508
C127	C	-0.776273	-0.091601	-0.399239
C128	C	-0.276273	0.408399	0.100761
C129	C	-0.720503	0.022505	-0.399237
C130	C	-0.220503	0.522505	0.100763
C131	C	-0.731705	-0.000444	-0.298738
C132	C	-0.231705	0.499556	0.201262
C133	C	-0.787474	-0.114550	-0.298740
C134	C	-0.287474	0.385450	0.201260
N135	N	-0.820726	-0.182435	0.249003
N136	N	-0.320726	0.317565	0.749003
H137	H	-0.524950	-0.287347	0.000185
H138	H	-0.024950	0.212653	0.500185
N139	N	-0.084791	-0.301437	0.000284
N140	N	0.415209	0.198563	0.500284
H141	H	-0.052398	-0.325254	-0.058908
H142	H	0.447602	0.174746	0.441092
H143	H	-0.140776	-0.289356	0.000314
H144	H	0.359224	0.210644	0.500314
H145	H	-0.713557	0.036667	-0.257825
H146	H	-0.213557	0.536667	0.242175
H147	H	-0.553234	0.388772	0.000180
H148	H	-0.053234	0.888772	0.500180
H149	H	-0.814731	-0.170363	-0.257827
H150	H	-0.314731	0.329637	0.242173
H151	H	-1.001605	0.495855	0.000325
H152	H	-0.501605	0.995855	0.500325
H153	H	-0.892665	-0.329728	-0.559330
H154	H	-0.392665	0.170272	-0.059330
N155	N	0.065828	-0.298404	0.000300
N156	N	0.565828	0.201596	0.500300
H157	H	0.103845	-0.288113	-0.058887
H158	H	0.603845	0.211887	0.441113
H159	H	0.050912	-0.353498	0.000324
H160	H	0.550912	0.146502	0.500324
N161	N	-0.677289	0.158360	0.000225
N162	N	-0.177289	0.658360	0.500225
H163	H	-0.691102	0.152671	-0.058954
H164	H	-0.191102	0.652671	0.441046
H165	H	-0.704324	0.125744	0.059459
H166	H	-0.204324	0.625744	0.559459
N167	N	-0.762318	-0.062949	-0.754941
N168	N	-0.262318	0.437051	-0.254941
H169	H	-0.795441	0.001707	-0.737417
H170	H	-0.295441	0.501707	-0.237417
H171	H	-0.758602	-0.055406	-0.826216
H172	H	-0.258602	0.444594	-0.326216
N173	N	-0.651721	0.047019	0.000203
N174	N	-0.151721	0.547019	0.500203
H175	H	-0.689750	0.036752	0.059383
H176	H	-0.189750	0.536752	0.559383
H177	H	-0.676438	0.063704	-0.059029
H178	H	-0.176438	0.563704	0.440971
H179	H	-0.060963	0.035911	0.000414
H180	H	0.439037	0.535911	0.500414
H181	H	-0.693246	0.078309	-0.440162
H182	H	-0.193246	0.578309	0.059838
H183	H	-0.872350	-0.288073	-0.741657
H184	H	-0.372350	0.211927	-0.241657
H185	H	-0.744760	-0.027009	-0.682075
H186	H	-0.244760	0.472991	-0.182075
N187	N	-0.695479	0.073794	-0.604189
N188	N	-0.195479	0.573794	-0.104189
H189	H	-0.691765	0.081419	-0.675480
H190	H	-0.191765	0.581419	-0.175480
H191	H	-0.641891	0.050985	-0.586656
H192	H	-0.141891	0.550985	-0.086656
H193	H	-0.393504	-0.284720	0.000203
H194	H	0.106496	0.215280	0.500203
H195	H	-0.748408	0.139671	0.000260
H196	H	-0.248408	0.639671	0.500260
N197	N	-0.501123	0.050020	0.000236
N198	N	-0.001123	0.550020	0.500236
H199	H	-0.445158	0.038006	0.000250
H200	H	0.054842	0.538006	0.500250
H201	H	-0.533562	0.073802	0.059423
H202	H	-0.033562	0.573802	0.559423
H203	H	-0.596126	0.567212	0.000167
H204	H	-0.096126	1.067212	0.500167
H205	H	-0.192407	0.033304	0.000321
H206	H	0.307593	0.533304	0.500321
N207	N	-0.563596	0.236677	0.000186
N208	N	-0.063596	0.736677	0.500186
H209	H	-0.545229	0.235261	0.059364
H210	H	-0.045229	0.735261	0.559364
H211	H	-0.532073	0.262297	-0.059049
H212	H	-0.032073	0.762297	0.440951
N213	N	-0.858206	0.624947	0.000263
N214	N	-0.358206	1.124947	0.500263
H215	H	-0.864882	0.692973	0.000260
H216	H	-0.364882	1.192973	0.500260
H217	H	-0.889732	0.599279	0.059462
H218	H	-0.389732	1.099279	0.559462
H219	H	-0.902361	0.564216	0.000299
H220	H	-0.402361	1.064216	0.500299
N221	N	-1.053379	0.375841	0.000339
N222	N	-0.553379	0.875841	0.500339
H223	H	-1.060052	0.443867	0.000332
H224	H	-0.560052	0.943867	0.500332
H225	H	-1.084910	0.350180	0.059535
H226	H	-0.584910	0.850180	0.559535
N227	N	-1.004242	0.171397	0.000343
N228	N	-0.504242	0.671397	0.500343
H229	H	-1.057459	0.224750	0.000362
H230	H	-0.557459	0.724750	0.500362
H231	H	-1.003937	0.117591	0.059529
H232	H	-0.503937	0.617591	0.559529
N233	N	-0.890443	-0.325199	-0.395285
N234	N	-0.390443	0.174801	0.104715
H235	H	-0.852965	-0.380966	-0.353618
H236	H	-0.352965	0.119034	0.146382
H237	H	-0.902864	-0.350522	-0.442420
H238	H	-0.402864	0.149478	0.057580
H239	H	-0.841164	-0.224388	-0.317408
H240	H	-0.341164	0.275612	0.182592
