data_functionalizedCrystal
_audit_creation_method	'MofGen! by Chris Wilmer'
_symmetry_space_group_name_H-M	'P1'
_symmetry_Int_Tables_number	1
_symmetry_cell_setting	triclinic
loop_
_symmetry_equiv_pos_as_xyz
  x,y,z
_cell_length_a	27.732064
_cell_length_b	27.731996
_cell_length_c	13.596369
_cell_angle_alpha	89.988048
_cell_angle_beta	90.002301
_cell_angle_gamma	82.635407
loop_
_atom_site_label
_atom_site_type_symbol
_atom_site_fract_x
_atom_site_fract_y
_atom_site_fract_z
O1	O	0.640912	0.057557	-0.081628
O2	O	1.140912	0.557557	0.418372
O3	O	0.500118	0.066295	-0.081671
O4	O	1.000118	0.566295	0.418329
O5	O	0.574900	-0.008472	-0.081627
O6	O	1.074900	0.491528	0.418373
O7	O	0.566129	0.132324	-0.081672
O8	O	1.066129	0.632324	0.418328
O9	O	0.574893	-0.008476	0.081956
O10	O	1.074893	0.491524	0.581956
O11	O	0.500110	0.066291	0.081912
O12	O	1.000110	0.566291	0.581912
O13	O	0.640904	0.057554	0.081954
O14	O	1.140904	0.557554	0.581954
Zn15	Zn	0.570506	0.061922	0.107906
Zn16	Zn	1.070506	0.561922	0.607906
Zn17	Zn	0.570516	0.061927	-0.107622
Zn18	Zn	1.070516	0.561927	0.392378
O19	O	0.566121	0.132321	0.081911
O20	O	1.066121	0.632321	0.581911
C21	C	0.482107	0.066108	0.000116
C22	C	0.982107	0.566108	0.500116
C23	C	0.428453	0.065552	0.000100
C24	C	0.928453	0.565552	0.500100
C25	C	0.051389	0.017584	0.000172
C26	C	0.551389	0.517584	0.500172
C27	C	0.253049	0.019630	0.000146
C28	C	0.753049	0.519630	0.500146
O29	O	0.284309	-0.017592	0.000194
O30	O	0.784309	0.482408	0.500194
N31	N	0.272168	0.063966	0.000127
N32	N	0.772168	0.563966	0.500127
C33	C	0.240869	0.107792	0.000121
C34	C	0.740869	0.607792	0.500121
O35	O	0.261758	0.145549	0.000115
O36	O	0.761758	0.645549	0.500115
C37	C	0.039210	0.105746	0.000155
C38	C	0.539210	0.605746	0.500155
C39	C	0.020094	0.061407	0.000163
C40	C	0.520094	0.561407	0.500163
C41	C	0.032272	-0.026751	0.000182
C42	C	0.532272	0.473249	0.500182
C43	C	-0.018140	-0.027262	0.000183
C44	C	0.481860	0.472738	0.500183
C45	C	-0.049435	0.016562	0.000174
C46	C	0.450565	0.516562	0.500174
C47	C	-0.030318	0.060896	0.000165
C48	C	0.469682	0.560896	0.500165
C49	C	0.007912	0.149572	0.000156
C50	C	0.507912	0.649572	0.500156
C51	C	-0.042506	0.149057	0.000167
C52	C	0.457494	0.649057	0.500167
C53	C	-0.061622	0.104718	0.000176
C54	C	0.438378	0.604718	0.500176
C55	C	-0.112026	0.104209	0.000157
C56	C	0.387974	0.604209	0.500157
N57	N	-0.131145	0.059873	0.000176
N58	N	0.368855	0.559873	0.500176
C59	C	-0.099849	0.016050	0.000184
C60	C	0.400151	0.516050	0.500184
C61	C	0.346743	0.108864	0.000102
C62	C	0.846743	0.608864	0.500102
C63	C	0.397158	0.109376	0.000092
C64	C	0.897158	0.609376	0.500092
C65	C	0.409334	0.021213	0.000118
C66	C	0.909334	0.521213	0.500118
C67	C	0.358919	0.020702	0.000121
C68	C	0.858919	0.520702	0.500121
C69	C	0.327624	0.064529	0.000121
C70	C	0.827624	0.564529	0.500121
C71	C	-0.205719	0.014980	0.000186
C72	C	0.294281	0.514980	0.500186
C73	C	-0.256136	0.014473	0.000183
C74	C	0.243864	0.514473	0.500183
C75	C	-0.268308	0.102635	0.000162
C76	C	0.231692	0.602635	0.500162
C77	C	-0.217895	0.103142	0.000160
C78	C	0.282105	0.603142	0.500160
C79	C	-0.186601	0.059311	0.000175
C80	C	0.313399	0.559311	0.500175
O81	O	-0.143313	0.141411	0.000120
O82	O	0.356687	0.641411	0.500120
O83	O	-0.120748	-0.021702	0.000212
O84	O	0.379252	0.478298	0.500212
C85	C	0.101801	0.018095	0.000171
C86	C	0.601801	0.518095	0.500171
C87	C	0.120918	0.062430	0.000161
C88	C	0.620918	0.562430	0.500161
C89	C	0.089623	0.106253	0.000152
C90	C	0.589623	0.606253	0.500152
C91	C	0.171332	0.062941	0.000151
C92	C	0.671332	0.562941	0.500151
C93	C	0.202628	0.019118	0.000159
C94	C	0.702628	0.519118	0.500159
C95	C	0.183508	-0.025218	0.000178
C96	C	0.683508	0.474782	0.500178
C97	C	0.133096	-0.025729	0.000179
C98	C	0.633096	0.474271	0.500179
C99	C	0.108742	0.150589	0.000134
C100	C	0.608742	0.650589	0.500134
C101	C	0.159154	0.151096	0.000131
C102	C	0.659154	0.651096	0.500131
C103	C	0.190450	0.107273	0.000140
C104	C	0.690450	0.607273	0.500140
C105	C	0.574717	-0.026482	0.000168
C106	C	1.074717	0.473518	0.500168
C107	C	0.574174	-0.080138	0.000178
C108	C	1.074174	0.419862	0.500178
C109	C	0.570763	-0.412852	-0.089041
C110	C	1.070763	0.087148	0.410959
C111	C	0.568702	-0.614511	-0.089058
C112	C	1.068702	-0.114511	0.410942
O113	O	0.568418	-0.640579	-0.164894
O114	O	1.068418	-0.140579	0.335106
N115	N	0.568442	-0.639730	0.000110
N116	N	1.068442	-0.139730	0.500110
C117	C	0.568694	-0.614531	0.089289
C118	C	1.068694	-0.114531	0.589289
O119	O	0.568421	-0.640608	0.165131
O120	O	1.068421	-0.140608	0.665131
C121	C	0.570752	-0.412873	0.089306
C122	C	1.070752	0.087127	0.589306
C123	C	0.571017	-0.387657	0.000132
C124	C	1.071017	0.112343	0.500132
C125	C	0.571028	-0.387636	-0.178207
C126	C	1.071028	0.112364	0.321793
C127	C	0.571545	-0.337225	-0.178202
C128	C	1.071545	0.162775	0.321798
C129	C	0.571799	-0.312030	-0.089030
C130	C	1.071799	0.187970	0.410970
C131	C	0.571535	-0.337246	0.000137
C132	C	1.071535	0.162754	0.500137
C133	C	0.571000	-0.387675	0.178483
C134	C	1.071000	0.112325	0.678483
C135	C	0.571514	-0.337257	0.178480
C136	C	1.071514	0.162743	0.678480
C137	C	0.571778	-0.312041	0.089306
C138	C	1.071778	0.187959	0.589306
C139	C	0.572306	-0.261640	0.089314
C140	C	1.072306	0.238360	0.589314
N141	N	0.572566	-0.236420	0.000146
N142	N	1.072566	0.263580	0.500146
C143	C	0.572312	-0.261615	-0.089026
C144	C	1.072312	0.238385	0.410974
C145	C	0.567615	-0.720404	0.089273
C146	C	1.067615	-0.220404	0.589273
C147	C	0.567102	-0.770819	0.089270
C148	C	1.067102	-0.270819	0.589270
C149	C	0.567109	-0.770795	-0.089078
C150	C	1.067109	-0.270795	0.410922
C151	C	0.567626	-0.720380	-0.089073
C152	C	1.067626	-0.220380	0.410927
C153	C	0.567875	-0.695185	0.000105
C154	C	1.067875	-0.195185	0.500105
C155	C	0.573400	-0.155748	-0.089008
C156	C	1.073400	0.344252	0.410992
C157	C	0.573920	-0.105333	-0.088994
C158	C	1.073920	0.394667	0.411006
C159	C	0.573911	-0.105361	0.089352
C160	C	1.073911	0.394639	0.589352
C161	C	0.573393	-0.155772	0.089340
C162	C	1.073393	0.344228	0.589340
C163	C	0.573137	-0.180964	0.000152
C164	C	1.073137	0.319036	0.500152
O165	O	0.572585	-0.235539	0.165110
O166	O	1.072585	0.264461	0.665110
O167	O	0.572575	-0.235528	-0.164857
O168	O	1.072575	0.264472	0.335143
C169	C	0.570245	-0.463263	-0.089046
C170	C	1.070245	0.036737	0.410954
C171	C	0.569981	-0.488479	0.000121
C172	C	1.069981	0.011521	0.500121
C173	C	0.570234	-0.463284	0.089293
C174	C	1.070234	0.036716	0.589293
C175	C	0.569467	-0.538894	0.000117
C176	C	1.069467	-0.038894	0.500117
C177	C	0.569214	-0.564089	-0.089055
C178	C	1.069214	-0.064089	0.410945
C179	C	0.569474	-0.538870	-0.178223
C180	C	1.069474	-0.038870	0.321777
C181	C	0.569992	-0.488458	-0.178218
C182	C	1.069992	0.011542	0.321782
C183	C	0.569974	-0.488504	0.178461
C184	C	1.069974	0.011496	0.678461
C185	C	0.569457	-0.538915	0.178448
C186	C	1.069457	-0.038915	0.678448
C187	C	0.569204	-0.564110	0.089276
C188	C	1.069204	-0.064110	0.589276
C189	C	0.658915	0.057740	0.000166
C190	C	1.158915	0.557740	0.500166
C191	C	0.712569	0.058296	0.000175
C192	C	1.212569	0.558296	0.500175
C193	C	0.566305	0.150330	0.000114
C194	C	1.066305	0.650330	0.500114
C195	C	0.566848	0.203986	0.000097
C196	C	1.066848	0.703986	0.500097
N197	N	0.570503	0.061918	0.254997
N198	N	1.070503	0.561918	0.754997
N199	N	0.570523	0.061927	-0.254714
N200	N	1.070523	0.561927	0.245286
C201	C	0.570515	0.061927	0.656288
C202	C	1.070515	0.561927	1.156288
C203	C	0.570510	0.061926	0.544637
C204	C	1.070510	0.561926	1.044637
C205	C	0.570509	0.061923	0.455646
C206	C	1.070509	0.561923	0.955646
C207	C	0.570504	0.061921	0.343988
C208	C	1.070504	0.561921	0.843988
H209	H	0.412717	0.145480	0.000071
H210	H	0.912717	0.645480	0.500071
H211	H	0.321266	0.144555	0.000100
H212	H	0.821266	0.644555	0.500100
H213	H	0.023467	0.185677	0.000145
H214	H	0.523467	0.685677	0.500145
F215	F	0.570757	-0.414443	-0.273125
F216	F	1.070757	0.085557	0.226875
F217	F	-0.075810	0.195704	0.000171
F218	F	0.424190	0.695704	0.500171
H219	H	0.569270	-0.559393	-0.250831
H220	H	1.069270	-0.059393	0.249169
F221	F	0.574182	-0.078538	0.184251
F222	F	1.074182	0.421462	0.684251
F223	F	0.338579	-0.026488	0.000133
F224	F	0.838579	0.473512	0.500133
F225	F	0.569178	-0.565747	0.273367
F226	F	1.069178	-0.065747	0.773367
H227	H	0.434824	-0.014470	0.000121
H228	H	0.934824	0.485530	0.500121
H229	H	0.570785	-0.408197	0.251099
H230	H	1.070785	0.091803	0.751099
F231	F	0.570273	-0.461628	-0.273130
F232	F	1.070273	0.038372	0.226870
F233	F	0.179493	0.198290	0.000114
F234	F	0.679493	0.698290	0.500114
F235	F	0.075441	0.197234	0.000122
F236	F	0.575441	0.697234	0.500122
H237	H	-0.271697	-0.021635	0.000188
H238	H	0.228303	0.478365	0.500188
H239	H	0.566893	-0.791346	0.161884
H240	H	1.066893	-0.291346	0.661884
H241	H	0.567821	-0.699896	0.161897
H242	H	1.067821	-0.199896	0.661897
H243	H	0.574137	-0.084804	-0.161614
H244	H	1.074137	0.415196	0.338386
F245	F	0.112758	-0.072920	0.000184
F246	F	0.612758	0.427080	0.500184
H247	H	-0.202330	0.139246	0.000152
H248	H	0.297670	0.639246	0.500152
H249	H	0.567840	-0.699852	-0.161686
H250	H	1.067840	-0.199852	0.338314
H251	H	-0.293798	0.138315	0.000150
H252	H	0.206202	0.638315	0.500150
H253	H	0.566903	-0.791317	-0.161685
H254	H	1.066903	-0.291317	0.338315
F255	F	0.573120	-0.182611	0.184248
F256	F	1.073120	0.317389	0.684248
F257	F	0.571779	-0.310446	0.273398
F258	F	1.071779	0.189554	0.773398
F259	F	0.216824	-0.071858	0.000183
F260	F	0.716824	0.428142	0.500183
F261	F	0.573127	-0.182553	-0.183932
F262	F	1.073127	0.317447	0.316068
H263	H	0.570182	-0.467995	0.251077
H264	H	1.070182	0.032005	0.751077
H265	H	-0.180245	-0.020712	0.000198
H266	H	0.319755	0.479288	0.500198
F267	F	-0.038478	-0.074453	0.000184
F268	F	0.461522	0.425547	0.500184
H269	H	0.571759	-0.316698	-0.250817
H270	H	1.071759	0.183302	0.249183
H271	H	0.057749	-0.062439	0.000192
H272	H	0.557749	0.437561	0.500192
