data_functionalizedCrystal
_audit_creation_method	'MofGen! by Chris Wilmer'
_symmetry_space_group_name_H-M	'P1'
_symmetry_Int_Tables_number	1
_symmetry_cell_setting	triclinic
loop_
_symmetry_equiv_pos_as_xyz
  x,y,z
_cell_length_a	16.992694
_cell_length_b	23.532407
_cell_length_c	15.455313
_cell_angle_alpha	92.643560
_cell_angle_beta	87.142206
_cell_angle_gamma	86.758451
loop_
_atom_site_label
_atom_site_type_symbol
_atom_site_fract_x
_atom_site_fract_y
_atom_site_fract_z
O1	O	1.042902	0.118384	-0.072037
O2	O	0.814628	0.117059	-0.072062
O3	O	0.935648	0.035132	-0.072033
O4	O	0.921882	0.200311	-0.072066
O5	O	0.928727	0.039796	0.072228
O6	O	0.807707	0.121723	0.072198
O7	O	1.035981	0.123049	0.072224
Cu8	Cu	0.921212	0.122812	0.085383
Cu9	Cu	0.929397	0.117296	-0.085222
O10	O	0.914962	0.204976	0.072194
C11	C	0.781968	0.117688	0.000065
C12	C	0.694964	0.112604	0.000056
C13	C	0.644342	0.161650	0.000047
C14	C	0.562592	0.156871	0.000060
C15	C	0.531466	0.103045	0.000076
C16	C	0.582095	0.053995	0.000088
C17	C	0.663843	0.058775	0.000081
C18	C	0.288022	0.083234	0.000103
C19	C	0.206267	0.078457	0.000107
C20	C	0.186770	0.181334	0.000081
C21	C	0.268521	0.186109	0.000069
C22	C	0.319142	0.137059	0.000085
N23	N	0.447905	0.098158	0.000086
N24	N	0.402701	0.141946	0.000081
C25	C	0.931837	0.016231	0.000100
C26	C	0.930782	-0.047038	0.000106
C27	C	0.995791	-0.442917	0.000066
C28	C	0.994812	-0.502366	0.000059
O29	O	1.055075	-0.536121	0.000034
N30	N	0.922865	-0.528562	0.000052
C31	C	0.851893	-0.495307	0.000042
O32	O	0.790607	-0.523048	0.000035
C33	C	0.852873	-0.435859	0.000043
C34	C	0.924824	-0.409666	0.000059
C35	C	1.067736	-0.416723	0.000081
C36	C	1.068714	-0.357278	0.000089
C37	C	0.997748	-0.324027	0.000083
C38	C	0.925803	-0.350221	0.000067
C39	C	0.781902	-0.402605	0.000027
C40	C	0.782889	-0.343154	0.000027
C41	C	0.854839	-0.316960	0.000043
C42	C	0.855814	-0.257525	0.000069
N43	N	0.927761	-0.231328	0.000076
C44	C	0.998728	-0.264579	0.000083
C45	C	0.849841	-0.620151	0.000040
C46	C	0.848860	-0.679598	0.000046
C47	C	0.991779	-0.686653	0.000061
C48	C	0.992759	-0.627205	0.000061
C49	C	0.921788	-0.593955	0.000047
C50	C	1.000777	-0.139740	0.000101
C51	C	1.001749	-0.080289	0.000113
C52	C	0.858831	-0.073240	0.000093
C53	C	0.857858	-0.132685	0.000086
C54	C	0.928838	-0.165934	0.000087
O55	O	0.795583	-0.223733	0.000090
O56	O	1.060004	-0.236831	0.000079
C57	C	1.068641	0.122420	0.000095
C58	C	1.155645	0.127504	0.000098
C59	C	0.918772	0.223877	0.000060
C60	C	0.919827	0.287146	0.000048
N61	N	0.915462	0.126692	0.205377
N62	N	0.935153	0.113412	-0.205216
C63	C	0.966893	0.091901	0.250784
C64	C	0.962551	0.094840	0.341591
C65	C	0.906782	0.132574	0.386989
C66	C	0.855345	0.167366	0.341576
C67	C	0.859684	0.164424	0.250771
C68	C	0.888055	0.145261	0.658566
C69	C	0.883722	0.148203	0.749378
C70	C	0.990928	0.075676	0.749386
C71	C	0.995265	0.072738	0.658579
C72	C	0.943825	0.107529	0.613174
N73	N	0.902344	0.135581	0.479808
N74	N	0.948260	0.104518	0.520356
H75	H	0.293858	0.229939	0.000046
H76	H	1.012310	0.061176	0.213826
H77	H	1.051348	-0.605882	0.000074
H78	H	1.040677	0.042013	0.621617
H79	H	0.556745	0.010169	0.000113
O80	O	0.712910	0.011073	0.000047
C81	C	0.723624	-0.091469	0.000121
C82	C	0.667968	-0.037492	0.000136
H83	H	0.687310	-0.130746	0.000211
H84	H	0.765258	-0.093796	-0.060268
H85	H	0.759512	-0.089818	0.060477
H86	H	0.632028	-0.039106	-0.060180
H87	H	0.626386	-0.035185	0.060565
H88	H	0.669678	0.205481	0.000033
H89	H	0.723313	-0.423922	0.000009
O90	O	0.780848	-0.587918	-0.000077
C91	C	0.662595	-0.566093	-0.074846
C92	C	0.740695	-0.602639	-0.074810
H93	H	0.630117	-0.577974	-0.135271
H94	H	0.624221	-0.574110	-0.014517
H95	H	0.675659	-0.519105	-0.074801
H96	H	0.727704	-0.649639	-0.074886
H97	H	0.779046	-0.594574	-0.135134
H98	H	1.032806	0.047350	0.786363
H99	H	0.145546	0.221267	0.000069
O100	O	0.176159	0.026125	0.000160
C101	C	0.204122	-0.075412	0.000131
C102	C	0.238323	-0.016185	0.000096
H103	H	0.254366	-0.109636	0.000061
H104	H	0.163472	-0.078304	0.060517
H105	H	0.169201	-0.082141	-0.060228
H106	H	0.273281	-0.009416	0.060415
H107	H	0.278930	-0.013321	-0.060330
H108	H	0.799269	-0.154012	0.000097
H109	H	1.049564	-0.713737	0.000063
H110	H	1.004430	0.066510	0.378560
H111	H	1.060342	-0.058966	0.000129
O112	O	0.829433	0.184791	0.793445
C113	C	0.691559	0.212794	0.821219
C114	C	0.752951	0.171316	0.771272
H115	H	0.629710	0.201922	0.803297
H116	H	0.697233	0.208915	0.893928
H117	H	0.702294	0.258283	0.803363
H118	H	0.742255	0.125810	0.789056
H119	H	0.747262	0.175245	0.698575
O120	O	0.838168	0.179145	0.614511
C121	C	0.792760	0.275129	0.586760
C122	C	0.849313	0.236819	0.636692
H123	H	0.801740	0.321766	0.604688
H124	H	0.805429	0.266599	0.514048
H125	H	0.729198	0.265377	0.604623
H126	H	0.912896	0.246549	0.618901
H127	H	0.836577	0.245356	0.709391
H128	H	0.521379	0.196809	0.000051
H129	H	0.809932	0.198088	0.378545
H130	H	0.817802	0.192753	0.213802
O131	O	0.713871	-0.310939	0.000052
C132	C	0.572015	-0.310223	-0.000031
C133	C	0.650117	-0.346772	-0.000041
H134	H	0.520451	-0.339179	-0.000124
H135	H	0.565942	-0.280282	0.060358
H136	H	0.571842	-0.284146	-0.060388
H137	H	0.650345	-0.372884	0.060275
H138	H	0.656160	-0.376676	-0.060469
H139	H	0.329228	0.043294	0.000117
H140	H	1.058576	-0.166805	0.000099
H141	H	1.127304	-0.335957	0.000099
H142	H	0.801051	-0.046156	0.000091
H143	H	0.790269	-0.700919	0.000047
O144	O	1.136749	-0.448932	0.000129
C145	C	1.278608	-0.449636	0.000109
C146	C	1.200503	-0.413097	0.000066
H147	H	1.330174	-0.420680	0.000039
H148	H	1.278884	-0.475682	0.060499
H149	H	1.284589	-0.479607	-0.060247
H150	H	1.194472	-0.383095	0.060381
H151	H	1.200262	-0.387090	-0.060364
