data_functionalizedCrystal
_audit_creation_method	'MofGen! by Chris Wilmer'
_symmetry_space_group_name_H-M	'P1'
_symmetry_Int_Tables_number	1
_symmetry_cell_setting	triclinic
loop_
_symmetry_equiv_pos_as_xyz
  x,y,z
_cell_length_a	14.908795
_cell_length_b	14.908520
_cell_length_c	19.805399
_cell_angle_alpha	86.729391
_cell_angle_beta	93.318979
_cell_angle_gamma	96.791092
loop_
_atom_site_label
_atom_site_type_symbol
_atom_site_fract_x
_atom_site_fract_y
_atom_site_fract_z
Zn1	Zn	1.363035	-0.280650	0.453951
Zn2	Zn	1.354196	-0.432025	0.346933
Zn3	Zn	1.211665	-0.289396	0.334593
Zn4	Zn	1.202895	-0.440694	0.453897
O5	O	1.282948	-0.360692	0.397344
O6	O	1.488531	-0.293442	0.444942
O7	O	1.335260	-0.413137	0.250580
O8	O	1.239113	-0.161566	0.345285
O9	O	1.482038	-0.404657	0.366316
O10	O	1.350324	-0.155141	0.432976
O11	O	1.230543	-0.308348	0.241514
O12	O	1.083833	-0.316755	0.345232
O13	O	1.224167	-0.419432	0.548621
O14	O	1.077390	-0.427913	0.432884
O15	O	1.341821	-0.301848	0.548660
O16	O	1.326757	-0.559845	0.366264
O17	O	1.215597	-0.566214	0.444850
C18	C	1.047767	-0.374224	0.387714
C19	C	0.947155	-0.380035	0.383611
C20	C	0.801972	-0.446032	0.336821
C21	C	0.896506	-0.440576	0.340676
C22	C	0.903263	-0.324945	0.422692
C23	C	0.808728	-0.330401	0.418837
C24	C	0.758086	-0.390948	0.375901
C25	C	0.663550	-0.396408	0.372050
C26	C	0.670308	-0.280773	0.454062
C27	C	0.764843	-0.275317	0.457917
C28	C	1.269291	-0.595872	0.406906
C29	C	1.263531	-0.696479	0.411022
C30	C	1.368578	-0.878829	0.337001
C31	C	1.363169	-0.973357	0.340867
C32	C	1.247310	-0.980066	0.422623
C33	C	1.252718	-0.885537	0.418757
C34	C	1.313354	-0.834922	0.375944
C35	C	1.318757	-0.740392	0.372075
C36	C	1.202903	-0.747102	0.453834
C37	C	1.197494	-0.841631	0.457700
C38	C	1.519047	-0.347107	0.407012
C39	C	1.619658	-0.341318	0.411132
C40	C	1.283002	-0.360632	0.573886
C41	C	1.283025	-0.360606	0.649118
C42	C	1.296683	-0.124591	0.387760
C43	C	1.302536	-0.023979	0.383676
C44	C	1.282950	-0.360683	0.221487
C45	C	1.283117	-0.360443	0.146253
C46	C	1.344289	-0.299377	0.684484
C47	C	1.344300	-0.299350	0.755172
C48	C	1.283050	-0.360557	0.790493
C49	C	1.221780	-0.421789	0.755122
C50	C	1.221765	-0.421811	0.684435
C51	C	1.221836	-0.421702	1.040194
C52	C	1.221857	-0.421677	1.110886
C53	C	1.344370	-0.299241	1.110931
C54	C	1.344355	-0.299263	1.040244
C55	C	1.283082	-0.360491	1.004879
C56	C	1.283070	-0.360518	0.928231
C57	C	1.283066	-0.360535	0.867140
H58	H	0.932234	-0.485431	0.308852
C59	C	1.478898	-1.072497	0.340905
C60	C	1.423908	-1.021599	0.298074
H61	H	1.516411	-1.102267	0.314488
H62	H	1.442014	-1.116185	0.366933
H63	H	1.515573	-1.033552	0.370332
H64	H	1.387228	-1.060544	0.268649
H65	H	1.460796	-0.977906	0.272034
C66	C	1.167404	-0.476126	0.863459
C67	C	1.154452	-0.489070	0.793945
H68	H	1.125842	-0.517669	0.887424
H69	H	1.157696	-0.416073	0.872029
H70	H	1.227457	-0.485874	0.878067
H71	H	1.094401	-0.479316	0.779336
H72	H	1.164153	-0.549137	0.785370
C73	C	1.099392	-0.441228	1.185911
C74	C	1.154527	-0.488958	1.149716
H75	H	1.057835	-0.482764	1.209887
H76	H	1.067054	-0.403799	1.155318
H77	H	1.135898	-0.404761	1.217085
H78	H	1.118021	-0.525420	1.118539
H79	H	1.186867	-0.526402	1.180313
H80	H	1.148130	-0.882854	0.492559
C81	C	1.159746	-0.605177	0.484214
C82	C	1.142198	-0.698837	0.496647
H83	H	1.122272	-0.575383	0.510646
H84	H	1.147420	-0.590502	0.437561
H85	H	1.221448	-0.586127	0.496015
H86	H	1.080497	-0.717889	0.484841
H87	H	1.154518	-0.713520	0.543310
H88	H	1.394168	-0.249538	0.655731
C89	C	1.466820	-0.279686	0.965219
C90	C	1.411669	-0.231975	1.001414
H91	H	1.508374	-0.238139	0.941249
H92	H	1.430332	-0.316155	0.934047
H93	H	1.499170	-0.317111	0.995818
H94	H	1.379314	-0.194554	0.970814
H95	H	1.448162	-0.195491	1.032589
C96	C	1.465413	-0.178341	0.748117
C97	C	1.411649	-0.232051	0.794046
H98	H	1.506996	-0.136796	0.772119
H99	H	1.427988	-0.145992	0.717526
H100	H	1.497730	-0.215811	0.723566
H101	H	1.379327	-0.194581	0.818594
H102	H	1.449079	-0.264403	0.824650
C103	C	0.871926	-0.256769	0.552810
C104	C	0.820514	-0.208771	0.505114
H105	H	0.906289	-0.215686	0.581951
H106	H	0.911590	-0.288783	0.530083
H107	H	0.832763	-0.298380	0.578749
H108	H	0.859678	-0.167164	0.479171
H109	H	0.780846	-0.176741	0.527843
C110	C	1.010362	-0.306390	0.517575
C111	C	0.958943	-0.258395	0.469882
H112	H	1.044733	-0.265304	0.546710
H113	H	1.050018	-0.338411	0.494847
H114	H	0.971202	-0.347995	0.543522
H115	H	0.998103	-0.216795	0.443931
H116	H	0.919282	-0.226360	0.492612
H117	H	0.622318	-0.445712	0.337092
C118	C	1.378490	-0.592508	0.329842
C119	C	1.385405	-0.684752	0.325016
H120	H	1.419635	-0.558162	0.300787
H121	H	1.392587	-0.576211	0.375228
H122	H	1.318560	-0.580591	0.316773
H123	H	1.445334	-0.696670	0.338091
H124	H	1.371315	-0.701054	0.279621
C125	C	1.398792	-0.244821	1.219308
C126	C	1.411714	-0.231926	1.149805
H127	H	1.440364	-0.203260	1.243305
H128	H	1.408506	-0.304865	1.233903
H129	H	1.338744	-0.235066	1.227853
H130	H	1.471761	-0.241687	1.141260
H131	H	1.402007	-0.171867	1.135205
H132	H	0.634567	-0.235920	0.485885
H133	H	1.171869	-0.471661	0.655640
H134	H	0.760738	-0.495339	0.301866
H135	H	1.417943	-0.837617	0.302136
C136	C	1.187583	-1.127955	0.464847
C137	C	1.180663	-1.035713	0.469680
H138	H	1.146433	-1.162307	0.493894
H139	H	1.247505	-1.139871	0.477916
H140	H	1.173489	-1.144245	0.419453
H141	H	1.194764	-1.019421	0.515073
H142	H	1.120728	-1.023791	0.456615
H143	H	1.171956	-0.471570	1.011409
