data_functionalizedCrystal
_audit_creation_method	'MofGen! by Chris Wilmer'
_symmetry_space_group_name_H-M	'P1'
_symmetry_Int_Tables_number	1
_symmetry_cell_setting	triclinic
loop_
_symmetry_equiv_pos_as_xyz
  x,y,z
_cell_length_a	14.044220
_cell_length_b	10.723024
_cell_length_c	9.798715
_cell_angle_alpha	90.003391
_cell_angle_beta	89.995876
_cell_angle_gamma	91.171627
loop_
_atom_site_label
_atom_site_type_symbol
_atom_site_fract_x
_atom_site_fract_y
_atom_site_fract_z
O1	O	0.133040	-1.670498	-0.113486
O2	O	0.145774	-1.308619	-0.113491
O3	O	0.001387	-1.484127	-0.113476
O4	O	0.277427	-1.494990	-0.113502
O5	O	0.001387	-1.484112	0.113507
O6	O	0.145774	-1.308605	0.113491
O7	O	0.133039	-1.670483	0.113496
Zn8	Zn	0.139407	-1.489542	0.149532
Zn9	Zn	0.139407	-1.489561	-0.149527
O10	O	0.277427	-1.494976	0.113480
C11	C	-0.033958	-1.479364	0.000016
C12	C	-0.139276	-1.465180	0.000018
C13	C	0.144847	-1.262020	-0.000001
C14	C	0.142075	-1.123188	-0.000002
C15	C	0.133966	-1.717083	0.000002
C16	C	0.136739	-1.855914	-0.000005
C17	C	-0.332106	-1.439248	-0.000002
C18	C	-0.389085	-1.539849	-0.000005
C19	C	-0.496383	-1.525420	-0.000016
C20	C	-0.224799	-1.453675	0.000009
C21	C	0.312772	-1.499738	-0.000015
C22	C	0.418090	-1.513923	-0.000025
N23	N	0.139406	-1.489538	0.353631
C24	C	0.222866	-1.056288	-0.000011
C25	C	0.220002	-0.912798	-0.000013
N26	N	0.139401	-1.489573	-0.353627
C27	C	0.078514	-1.563202	0.421415
C28	C	0.078511	-1.563222	0.578578
H29	H	-0.357284	-1.636814	-0.000095
H30	H	-0.363906	-1.342291	-0.000007
H31	H	0.070786	-1.074234	-0.000030
H32	H	0.026381	-1.626250	0.363098
H33	H	0.067571	-0.913420	-0.000006
H34	H	0.026383	-1.626294	0.636869
H35	H	0.294155	-1.105243	-0.000010
H36	H	0.191538	-1.426508	0.588091
H37	H	0.191531	-1.426481	0.411950
H38	H	0.289166	-0.855286	-0.000026
