data_functionalizedCrystal
_audit_creation_method	'MofGen! by Chris Wilmer'
_symmetry_space_group_name_H-M	'P1'
_symmetry_Int_Tables_number	1
_symmetry_cell_setting	triclinic
loop_
_symmetry_equiv_pos_as_xyz
  x,y,z
_cell_length_a	10.686220
_cell_length_b	15.296720
_cell_length_c	15.300062
_cell_angle_alpha	69.243975
_cell_angle_beta	96.038360
_cell_angle_gamma	103.181615
loop_
_atom_site_label
_atom_site_type_symbol
_atom_site_fract_x
_atom_site_fract_y
_atom_site_fract_z
Zn1	Zn	1.897715	-0.464179	0.335152
Zn2	Zn	1.959823	-0.331489	0.459617
Zn3	Zn	1.717869	-0.320609	0.320223
Zn4	Zn	1.717754	-0.502983	0.502517
O5	O	1.823290	-0.404815	0.404377
O6	O	2.082527	-0.434891	0.339956
O7	O	1.953768	-0.198190	0.416924
O8	O	1.715782	-0.318860	0.193824
O9	O	2.128158	-0.337404	0.431400
O10	O	1.847914	-0.424341	0.204792
O11	O	1.776005	-0.190197	0.314512
O12	O	1.541280	-0.356487	0.356111
O13	O	1.715586	-0.629691	0.504517
O14	O	1.541196	-0.490477	0.490042
O15	O	1.847803	-0.601181	0.381555
O16	O	1.953656	-0.375031	0.593687
O17	O	1.775809	-0.501027	0.625206
C18	C	1.495455	-0.426513	0.426113
C19	C	1.355205	-0.435822	0.435437
C20	C	1.774754	-0.650581	0.449487
C21	C	1.754070	-0.755312	0.468710
C22	C	1.971132	-0.991158	0.266823
C23	C	1.990574	-0.892757	0.248763
C24	C	1.931449	-0.858391	0.303748
C25	C	1.852881	-0.922435	0.376797
C26	C	1.833445	-1.020845	0.394863
C27	C	1.793762	-0.888078	0.431788
C28	C	1.715194	-0.952122	0.504836
C29	C	1.695761	-1.050522	0.522899
C30	C	1.754886	-1.084888	0.467914
C31	C	1.813198	-0.789668	0.413721
C32	C	1.675511	-0.819355	0.541761
C33	C	1.656069	-0.917755	0.559821
C34	C	2.152406	-0.383032	0.382558
C35	C	2.292656	-0.373750	0.373260
C36	C	1.871490	-0.443439	0.642735
C37	C	1.892219	-0.459986	0.744704
C38	C	1.871697	-0.159989	0.359372
C39	C	1.892573	-0.055201	0.339874
C40	C	1.774933	-0.366058	0.165090
C41	C	1.754326	-0.349543	0.063120
C42	C	1.970672	-0.522717	0.798245
C43	C	1.990158	-0.538272	0.894050
C44	C	1.931202	-0.491091	0.936322
C45	C	1.852755	-0.428353	0.882780
C46	C	1.833259	-0.412803	0.786967
C47	C	1.793789	-0.381176	0.925044
C48	C	1.715343	-0.318438	0.871502
C49	C	1.695851	-0.302890	0.775698
C50	C	1.754806	-0.350071	0.733426
C51	C	1.813286	-0.396726	1.020857
C52	C	1.675873	-0.286811	1.009579
C53	C	1.656387	-0.271257	0.913774
H54	H	1.346400	-0.313486	0.312894
H55	H	1.301457	-0.496085	0.495812
H56	H	2.054548	-0.840620	0.189289
F57	F	1.612336	-0.236136	0.718721
F58	F	1.572899	-0.204489	0.856780
F59	F	1.613121	-0.236596	1.054564
F60	F	1.896773	-0.463494	1.077830
H61	H	1.877168	-0.737533	0.354244
F62	F	1.952140	-0.753664	0.284524
H63	H	1.631797	-1.102665	0.582387
F64	F	1.734204	-1.189618	0.487135
H65	H	2.019271	-1.019150	0.222067
F66	F	1.952104	-0.507533	1.038259
H67	H	1.592097	-0.969913	0.619298
H68	H	1.627369	-0.791375	0.586536
H69	H	2.054037	-0.589347	0.937636
H70	H	2.018659	-0.561132	0.763821
H71	H	1.738948	-0.337408	0.655413
