data_functionalizedCrystal
_audit_creation_method	'MofGen! by Chris Wilmer'
_symmetry_space_group_name_H-M	'P1'
_symmetry_Int_Tables_number	1
_symmetry_cell_setting	triclinic
loop_
_symmetry_equiv_pos_as_xyz
  x,y,z
_cell_length_a	19.188930
_cell_length_b	19.288864
_cell_length_c	18.366186
_cell_angle_alpha	90.022894
_cell_angle_beta	89.988632
_cell_angle_gamma	96.859488
loop_
_atom_site_label
_atom_site_type_symbol
_atom_site_fract_x
_atom_site_fract_y
_atom_site_fract_z
O1	O	0.087099	-0.921359	-0.060791
O2	O	0.587099	-0.421359	0.439209
O3	O	0.098849	-0.719099	-0.060743
O4	O	0.598849	-0.219099	0.439257
O5	O	-0.008682	-0.826066	-0.060754
O6	O	0.491318	-0.326066	0.439246
O7	O	0.194630	-0.814393	-0.060780
O8	O	0.694630	-0.314393	0.439220
O9	O	-0.008687	-0.826048	0.060345
O10	O	0.491313	-0.326048	0.560345
O11	O	0.098843	-0.719081	0.060357
O12	O	0.598843	-0.219081	0.560357
O13	O	0.087094	-0.921341	0.060308
O14	O	0.587094	-0.421341	0.560308
Zn15	Zn	0.092968	-0.820208	0.079560
Zn16	Zn	0.592968	-0.320208	0.579560
Zn17	Zn	0.092975	-0.820232	-0.079994
Zn18	Zn	0.592975	-0.320232	0.420006
O19	O	0.194625	-0.814374	0.060320
O20	O	0.694625	-0.314374	0.560320
C21	C	0.098468	-0.693214	-0.000186
C22	C	0.598468	-0.193214	0.499814
C23	C	0.097333	-0.616110	-0.000167
C24	C	0.597333	-0.116110	0.499833
C25	C	-0.034696	-0.825679	-0.000202
C26	C	0.465304	-0.325679	0.499798
C27	C	-0.112200	-0.824544	-0.000196
C28	C	0.387800	-0.324544	0.499804
C29	C	0.087475	-0.947227	-0.000250
C30	C	0.587475	-0.447227	0.499750
C31	C	0.088609	-1.024330	-0.000274
C32	C	0.588609	-0.524330	0.499726
C33	C	-0.157129	-0.887309	-0.000207
C34	C	0.342871	-0.387309	0.499793
C35	C	-0.229953	-0.886243	-0.000219
C36	C	0.270047	-0.386243	0.499781
C37	C	-0.257844	-0.822408	-0.000204
C38	C	0.242156	-0.322408	0.499796
C39	C	-0.212906	-0.759636	-0.000196
C40	C	0.287094	-0.259636	0.499804
C41	C	-0.140084	-0.760704	-0.000192
C42	C	0.359916	-0.260704	0.499808
N43	N	-0.365847	-0.773609	0.041020
N44	N	0.134153	-0.273609	0.541020
N45	N	-0.435026	-0.772598	0.041018
N46	N	0.064974	-0.272598	0.541018
C47	C	-0.477253	-0.819187	-0.000218
C48	C	0.022747	-0.319187	0.499782
N49	N	-0.447689	-0.866835	-0.041442
N50	N	0.052311	-0.366835	0.458558
N51	N	-0.378504	-0.867847	-0.041436
N52	N	0.121496	-0.367847	0.458564
C53	C	-0.336807	-0.821243	-0.000209
C54	C	0.163193	-0.321243	0.499791
C55	C	-0.601146	-0.880800	-0.000243
C56	C	-0.101146	-0.380800	0.499757
C57	C	-0.673971	-0.879731	-0.000259
C58	C	-0.173971	-0.379731	0.499741
C59	C	-0.656922	-0.753122	-0.000229
C60	C	-0.156922	-0.253122	0.499771
C61	C	-0.584099	-0.754193	-0.000220
C62	C	-0.084099	-0.254193	0.499780
C63	C	-0.556216	-0.818034	-0.000224
C64	C	-0.056216	-0.318034	0.499776
C65	C	0.220638	-0.814762	-0.000234
C66	C	0.720638	-0.314762	0.499766
C67	C	0.298143	-0.815896	-0.000245
C68	C	0.798143	-0.315896	0.499755
N69	N	0.092963	-0.820197	0.188451
N70	N	0.592963	-0.320197	0.688451
C71	C	0.160427	-0.571419	-0.000187
C72	C	0.660427	-0.071419	0.499813
C73	C	0.159361	-0.498972	-0.000195
C74	C	0.659361	0.001028	0.499805
C75	C	0.095197	-0.471219	-0.000198
C76	C	0.595197	0.028781	0.499802
C77	C	0.032095	-0.515921	-0.000174
C78	C	0.532095	-0.015921	0.499826
C79	C	0.033163	-0.588366	-0.000159
C80	C	0.533163	-0.088366	0.499841
C81	C	0.044759	-0.362960	-0.042642
C82	C	0.544759	0.137040	0.457358
C83	C	0.043694	-0.290515	-0.042662
C84	C	0.543694	0.209485	0.457338
C85	C	0.091900	-0.247773	-0.000241
C86	C	0.591900	0.252227	0.499759
C87	C	0.141184	-0.277483	0.042190
C88	C	0.641184	0.222517	0.542190
C89	C	0.142253	-0.349929	0.042205
C90	C	0.642253	0.150071	0.542205
C91	C	0.094032	-0.392665	-0.000214
C92	C	0.594032	0.107335	0.499786
C93	C	0.153843	-0.124526	-0.000268
C94	C	0.653843	0.375474	0.499732
C95	C	0.152774	-0.052078	-0.000272
C96	C	0.652774	0.447922	0.499728
C97	C	0.025506	-0.069028	-0.000259
C98	C	0.525506	0.430972	0.499741
C99	C	0.026576	-0.141475	-0.000248
C100	C	0.526576	0.358525	0.499752
C101	C	0.090747	-0.169219	-0.000256
C102	C	0.590747	0.330781	0.499744
N103	N	0.092974	-0.820249	-0.188885
N104	N	0.592974	-0.320249	0.311115
C105	C	0.045371	-0.867577	0.226546
C106	C	0.545371	-0.367577	0.726546
C107	C	0.045368	-0.867582	0.302774
C108	C	0.545368	-0.367582	0.802774
C109	C	0.092968	-0.820213	0.340903
C110	C	0.592968	-0.320213	0.840903
C111	C	0.140563	-0.772823	0.302799
C112	C	0.640563	-0.272823	0.802799
C113	C	0.140560	-0.772816	0.226573
C114	C	0.640560	-0.272816	0.726573
C115	C	0.156585	-0.810919	0.461657
C116	C	0.656585	-0.310919	0.961657
C117	C	0.156589	-0.810932	0.537882
C118	C	0.656589	-0.310932	1.037882
C119	C	0.092977	-0.820232	0.576011
C120	C	0.592977	-0.320232	1.076011
C121	C	0.029359	-0.829535	0.537906
C122	C	0.529359	-0.329535	1.037906
C123	C	0.029356	-0.829527	0.461679
C124	C	0.529356	-0.329527	0.961679
C125	C	0.092977	-0.820215	0.423558
C126	C	0.592977	-0.320215	0.923558
C127	C	0.045378	-0.867620	0.696761
C128	C	0.545378	-0.367620	1.196761
C129	C	0.045374	-0.867620	0.772990
C130	C	0.545374	-0.367620	1.272990
C131	C	0.140576	-0.772864	0.773014
C132	C	0.640576	-0.272864	1.273014
C133	C	0.140574	-0.772862	0.696786
C134	C	0.640574	-0.272862	1.196786
C135	C	0.092976	-0.820243	0.658664
C136	C	0.592976	-0.320243	1.158664
H137	H	-0.134431	-0.939293	-0.000213
H138	H	0.365569	-0.439293	0.499787
Cl139	Cl	-0.083599	-0.681793	-0.000177
Cl140	Cl	0.416401	-0.181793	0.499823
Cl141	Cl	-0.048569	-0.481033	-0.000174
Cl142	Cl	0.451431	0.018967	0.499826
Cl143	Cl	0.201792	-0.223759	0.095522
Cl144	Cl	0.701792	0.276241	0.595522
H145	H	-0.026738	-0.046433	-0.000306
H146	H	0.473262	0.453567	0.499694
H147	H	0.006616	-0.906200	0.804008
H148	H	0.506616	-0.406200	1.304008
H149	H	-0.578442	-0.932783	-0.000249
H150	H	-0.078442	-0.432783	0.499751
Cl151	Cl	0.200395	-0.713248	0.178678
Cl152	Cl	0.700395	-0.213248	0.678678
Cl153	Cl	-0.286445	-0.965153	-0.000234
Cl154	Cl	0.213555	-0.465153	0.499766
H155	H	-0.235620	-0.707661	-0.000186
H156	H	0.264380	-0.207661	0.499814
H157	H	-0.710552	-0.930844	-0.000272
H158	H	-0.210552	-0.430844	0.499728
H159	H	0.006612	-0.906166	0.333797
H160	H	0.506612	-0.406166	0.833797
Cl161	Cl	0.232100	0.004108	-0.000292
Cl162	Cl	0.732100	0.504108	0.499708
Cl163	Cl	-0.691979	-0.672873	-0.000215
Cl164	Cl	-0.191979	-0.172873	0.499785
H165	H	-0.547517	-0.703083	-0.000207
H166	H	-0.047517	-0.203083	0.499793
Cl167	Cl	-0.014468	-0.927138	0.178622
Cl168	Cl	0.485532	-0.427138	0.678622
H169	H	0.006619	-0.906199	0.665721
H170	H	0.506619	-0.406199	1.165721
Cl171	Cl	0.241099	-0.606293	-0.000194
Cl172	Cl	0.741099	-0.106293	0.499806
Cl173	Cl	-0.050618	-0.841214	0.413778
Cl174	Cl	0.449382	-0.341214	0.913778
H175	H	-0.022440	-0.837108	0.568948
H176	H	0.477560	-0.337108	1.068948
Cl177	Cl	0.204203	-0.387277	0.095547
Cl178	Cl	0.704203	0.112723	0.595547
H179	H	-0.018218	-0.624755	-0.000144
H180	H	0.481782	-0.124755	0.499856
H181	H	0.210742	-0.462577	-0.000208
H182	H	0.710742	0.037423	0.499792
Cl183	Cl	0.234513	-0.159408	-0.000271
Cl184	Cl	0.734513	0.340592	0.499729
H185	H	0.179330	-0.734293	0.804059
H186	H	0.679330	-0.234293	1.304059
H187	H	-0.024802	-0.177864	-0.000236
H188	H	0.475198	0.322136	0.499764
Cl189	Cl	-0.018256	-0.253172	-0.096011
Cl190	Cl	0.481744	0.246828	0.403989
Cl191	Cl	-0.015850	-0.416686	-0.095976
Cl192	Cl	0.484150	0.083314	0.404024
H193	H	0.179330	-0.734283	0.665767
H194	H	0.679330	-0.234283	1.165767
Cl195	Cl	0.236565	-0.799242	0.585778
Cl196	Cl	0.736565	-0.299242	1.085778
Cl197	Cl	0.236564	-0.799291	0.413732
Cl198	Cl	0.736564	-0.299291	0.913732
H199	H	0.179319	-0.734253	0.333848
H200	H	0.679319	-0.234253	0.833848
