data_functionalizedCrystal
_audit_creation_method	'MofGen! by Chris Wilmer'
_symmetry_space_group_name_H-M	'P1'
_symmetry_Int_Tables_number	1
_symmetry_cell_setting	triclinic
loop_
_symmetry_equiv_pos_as_xyz
  x,y,z
_cell_length_a	27.440280
_cell_length_b	27.440280
_cell_length_c	12.970454
_cell_angle_alpha	59.999994
_cell_angle_beta	90.003812
_cell_angle_gamma	59.992170
loop_
_atom_site_label
_atom_site_type_symbol
_atom_site_fract_x
_atom_site_fract_y
_atom_site_fract_z
Zr1	Zr	-0.064049	0.533484	0.993160
O2	O	-0.141882	0.635171	0.828505
O3	O	-0.040178	0.431803	1.043641
O4	O	-0.141868	0.533492	1.043604
O5	O	0.040010	0.533474	0.828565
O6	O	-0.141869	0.533491	1.213272
O7	O	-0.040192	0.533482	0.828542
O8	O	0.040036	0.351588	1.213338
O9	O	-0.141895	0.715377	0.828499
O10	O	-0.030011	0.473623	1.191785
O11	O	0.029844	0.473617	1.065181
O12	O	-0.089883	0.593343	1.065138
O13	O	-0.030029	0.593337	0.938534
Zr14	Zr	0.063862	0.533470	1.263797
Zr15	Zr	-0.064051	0.533483	1.263760
Zr16	Zr	0.063864	0.533471	0.993197
Zr17	Zr	-0.064069	0.661403	0.993150
Zr18	Zr	0.063883	0.405551	1.263807
O19	O	0.039991	0.635152	1.213316
O20	O	-0.141885	0.635170	1.213264
O21	O	0.039994	0.635153	0.828557
O22	O	0.141696	0.431783	1.428452
O23	O	-0.040180	0.431802	1.428400
O24	O	0.141698	0.431784	1.043693
O25	O	-0.040197	0.533480	1.428392
O26	O	0.141681	0.533463	1.213353
O27	O	0.141682	0.533463	1.043685
O28	O	0.040005	0.533472	1.428415
O29	O	-0.141897	0.715376	1.043590
O30	O	0.141710	0.351578	1.213367
O31	O	0.141708	0.351577	1.428458
O32	O	0.040034	0.351588	1.428429
O33	O	-0.040221	0.715367	0.828528
O34	O	-0.040223	0.715366	1.043619
O35	O	0.089697	0.473611	1.191819
O36	O	0.029842	0.473617	1.318423
O37	O	-0.030030	0.593337	1.191776
O38	O	0.029824	0.593331	1.065172
C39	C	-0.000068	0.373470	1.128491
C40	C	-0.000059	0.319164	1.128496
C41	C	-0.044301	0.026671	1.034989
C42	C	-0.044307	-0.024346	1.034988
O43	O	-0.081903	-0.013150	0.955507
N44	N	-0.000117	-0.094055	1.128474
C45	C	0.044079	-0.112747	1.221974
O46	O	0.081666	-0.176724	1.301492
C47	C	0.044082	-0.061730	1.221979
C48	C	-0.000107	0.007979	1.128480
C49	C	-0.088488	0.096376	0.941498
C50	C	-0.088481	0.147390	0.941498
C51	C	-0.044287	0.128698	1.034989
C52	C	-0.000100	0.058992	1.128480
C53	C	0.088276	-0.080423	1.315483
C54	C	0.088275	-0.029399	1.315481
C55	C	0.044085	0.040310	1.221982
C56	C	0.044100	0.091313	1.221970
N57	N	-0.000090	0.161022	1.128484
C58	C	-0.044284	0.179714	1.034994
C59	C	0.044068	-0.219882	1.221958
C60	C	0.044068	-0.270898	1.221949
C61	C	-0.044319	-0.182494	1.034964
C62	C	-0.044316	-0.131477	1.034969
C63	C	-0.000122	-0.150173	1.128472
C64	C	-0.044265	0.286843	1.035000
C65	C	-0.044253	0.337857	1.035005
C66	C	0.044132	0.249448	1.221993
C67	C	0.044122	0.198438	1.221985
C68	C	-0.000082	0.217141	1.128482
O69	O	0.081676	0.080168	1.301414
O70	O	-0.081868	0.243691	0.955499
C71	C	-0.160093	0.533493	1.128433
C72	C	-0.214396	0.533499	1.128417
C73	C	-0.551094	0.533461	1.221984
C74	C	-0.602112	0.533456	1.221995
O75	O	-0.628487	0.533430	1.301517
N76	N	-0.627629	0.533458	1.128523
C77	C	-0.602122	0.533457	1.035041
O78	O	-0.628510	0.533457	0.955537
C79	C	-0.551102	0.533457	1.035036
C80	C	-0.525591	0.533463	1.128507
C81	C	-0.525582	0.533466	1.315448
C82	C	-0.474569	0.533472	1.315436
C83	C	-0.449066	0.533474	1.221958
C84	C	-0.474578	0.533469	1.128494
C85	C	-0.525594	0.533452	0.941560
C86	C	-0.474571	0.533451	0.941564
C87	C	-0.449060	0.533457	1.035035
C88	C	-0.398062	0.533477	1.035004
N89	N	-0.372545	0.533476	1.128476
C90	C	-0.398047	0.533474	1.221954
C91	C	-0.709265	0.533456	1.035059
C92	C	-0.760286	0.533461	1.035058
C93	C	-0.760272	0.533458	1.222014
C94	C	-0.709252	0.533459	1.222009
C95	C	-0.683748	0.533454	1.128532
C96	C	-0.290915	0.533488	1.221919
C97	C	-0.239898	0.533497	1.221894
C98	C	-0.239915	0.533496	1.034943
C99	C	-0.290929	0.533490	1.034962
C100	C	-0.316427	0.533484	1.128461
O101	O	-0.371652	0.533500	0.955526
O102	O	-0.371648	0.533465	1.301454
C103	C	0.159906	0.533461	1.128524
C104	C	0.214209	0.533456	1.128540
C105	C	-0.000091	0.533478	0.789999
C106	C	-0.000090	0.533478	0.675122
C107	C	-0.000119	0.693485	1.128466
C108	C	-0.000128	0.747790	1.128461
C109	C	-0.000096	0.533476	1.466958
C110	C	-0.000097	0.533476	1.581835
C111	C	-0.000070	0.373469	1.466971
C112	C	-0.000063	0.319163	1.581852
C113	C	0.159932	0.373453	1.128537
C114	C	0.214243	0.319143	1.128557
C115	C	0.159929	0.373453	1.467016
C116	C	0.214240	0.319142	1.581913
C117	C	-0.160116	0.693502	0.789941
C118	C	-0.214427	0.747812	0.675044
C119	C	-0.000117	0.693486	0.789986
C120	C	-0.000124	0.747791	0.675105
C121	C	-0.160119	0.693501	1.128420
C122	C	-0.214430	0.747811	1.128400
C123	C	-0.031307	0.293664	1.569697
C124	C	-0.031311	0.242646	1.677630
C125	C	-0.000068	0.217124	1.797716
C126	C	0.031177	0.242628	1.809868
C127	C	0.031178	0.293649	1.701936
C128	C	0.270996	0.293635	1.194670
C129	C	0.322032	0.242611	1.194684
C130	C	0.316314	0.217094	1.128591
C131	C	0.259555	0.242607	1.062470
C132	C	0.208520	0.293633	1.062450
C133	C	0.208501	0.293640	1.701967
C134	C	0.259526	0.242616	1.809935
C135	C	0.316290	0.217092	1.797846
C136	C	0.322028	0.242599	1.677779
C137	C	0.271003	0.293625	1.569814
C138	C	-0.208688	0.773321	0.554990
C139	C	-0.259713	0.824360	0.447022
C140	C	-0.316477	0.849887	0.459111
C141	C	-0.322215	0.824377	0.579178
C142	C	-0.271190	0.773342	0.687143
C143	C	0.031115	0.773295	0.687260
C144	C	0.031105	0.824328	0.579327
C145	C	-0.000140	0.849852	0.459241
C146	C	-0.031383	0.824345	0.447089
C147	C	-0.031377	0.773317	0.555021
C148	C	-0.208692	0.773313	1.194506
C149	C	-0.259719	0.824337	1.194512
C150	C	-0.316482	0.849861	1.128404
C151	C	-0.322218	0.824355	1.062297
C152	C	-0.271193	0.773328	1.062299
H153	H	-0.080261	0.302080	0.958863
O154	O	0.383253	0.215063	1.664749
H155	H	0.388448	0.191814	1.612346
O156	O	0.371361	0.162046	1.128641
H157	H	0.411783	0.148592	1.185738
H158	H	-0.255030	0.845122	0.349270
O159	O	-0.136153	0.222573	0.840674
H160	H	-0.166886	0.226989	0.775685
H161	H	-0.358025	0.891411	1.128412
H162	H	-0.219129	0.533503	1.298010
H163	H	0.056625	0.314404	1.711850
O164	O	-0.318419	0.533494	1.322747
H165	H	-0.292106	0.533508	1.387718
O166	O	-0.383443	0.851894	0.990982
H167	H	-0.417955	0.891666	1.002080
H168	H	0.080057	-0.327655	1.298074
H169	H	0.056615	0.221840	1.907656
O170	O	0.147281	0.321165	1.715024
H171	H	0.122533	0.377456	1.668981
H172	H	-0.080296	-0.074720	0.958827
H173	H	-0.358020	0.891443	0.371188
O174	O	0.277196	0.321115	1.440326
H175	H	0.325241	0.294782	1.450073
O176	O	-0.147467	0.745797	0.541936
H177	H	-0.152058	0.772122	0.440309
O178	O	-0.136155	0.116544	0.840649
H179	H	-0.166873	0.173589	0.775645
O180	O	0.147307	0.321048	0.991342
H181	H	0.151911	0.294689	0.945473
H182	H	-0.000073	0.175578	1.885590
H183	H	-0.056822	0.845135	0.349301
O184	O	0.253390	0.215062	0.991227
H185	H	0.298416	0.175285	1.002383
O186	O	-0.681726	0.533448	1.322836
H187	H	-0.714882	0.580169	1.318248
H188	H	-0.275873	0.752571	1.008462
H189	H	0.080111	0.141676	1.298108
H190	H	-0.056756	0.314444	1.471927
O191	O	0.371323	0.162048	1.914299
H192	H	0.357790	0.148601	1.999807
H193	H	-0.056755	0.221886	1.667711
O194	O	-0.147475	0.745789	1.265822
H195	H	-0.112950	0.706024	1.254723
H196	H	-0.080237	0.394618	0.958858
O197	O	-0.091995	-0.162334	0.934135
H198	H	-0.084574	-0.209523	0.949858
H199	H	-0.056814	0.752553	0.545107
O200	O	-0.253525	0.851844	1.265811
H201	H	-0.205481	0.825528	1.311758
O202	O	-0.383440	0.851907	0.592210
H203	H	-0.417951	0.891673	0.496958
O204	O	-0.277382	0.745821	0.816631
H205	H	-0.325427	0.772143	0.806885
H206	H	0.080062	-0.235115	1.298098
H207	H	0.056562	0.752518	0.785030
O208	O	0.064815	0.851822	0.592450
H209	H	0.046767	0.875053	0.644885
O210	O	0.135928	-0.155602	1.416351
H211	H	0.166646	-0.160016	1.481367
O212	O	0.135944	-0.049563	1.416327
H213	H	0.166671	-0.106607	1.481328
O214	O	-0.000126	0.904870	0.342832
H215	H	0.026859	0.918302	0.371471
H216	H	0.080115	0.234239	1.298108
H217	H	0.368243	0.221845	1.248532
O218	O	-0.447048	0.533464	1.416266
H219	H	-0.473355	0.533453	1.481269
O220	O	-0.553092	0.533479	1.416263
H221	H	-0.526777	0.533490	1.481234
H222	H	-0.688505	0.533458	0.958929
H223	H	-0.781044	0.533456	1.298130
H224	H	0.254844	0.221853	1.907688
O225	O	0.277171	0.321155	1.265954
H226	H	0.325213	0.294845	1.311910
O227	O	-0.787817	0.533488	0.934209
H228	H	-0.761510	0.533496	0.869207
H229	H	-0.546358	0.533447	0.865448
H230	H	-0.453807	0.533446	0.865444
O231	O	-0.318454	0.533491	0.934146
H232	H	-0.285291	0.486763	0.938760
O233	O	-0.212392	0.533472	0.934149
H234	H	-0.172624	0.533460	0.949871
