data_functionalizedCrystal
_audit_creation_method	'MofGen! by Chris Wilmer'
_symmetry_space_group_name_H-M	'P1'
_symmetry_Int_Tables_number	1
_symmetry_cell_setting	triclinic
loop_
_symmetry_equiv_pos_as_xyz
  x,y,z
_cell_length_a	14.853567
_cell_length_b	14.853569
_cell_length_c	7.540329
_cell_angle_alpha	89.995237
_cell_angle_beta	90.000012
_cell_angle_gamma	83.635248
loop_
_atom_site_label
_atom_site_type_symbol
_atom_site_fract_x
_atom_site_fract_y
_atom_site_fract_z
O1	O	1.196364	0.117703	-0.147365
O2	O	1.696364	0.617703	0.352635
O3	O	0.933904	0.131724	-0.147396
O4	O	1.433904	0.631724	0.352604
O5	O	1.072144	-0.006516	-0.147363
O6	O	1.572144	0.493484	0.352637
O7	O	1.058124	0.255943	-0.147398
O8	O	1.558124	0.755943	0.352602
O9	O	1.072136	-0.006518	0.147602
O10	O	1.572136	0.493482	0.647602
O11	O	0.933896	0.131722	0.147569
O12	O	1.433896	0.631722	0.647569
O13	O	1.196355	0.117701	0.147600
O14	O	1.696355	0.617701	0.647600
Cu15	Cu	1.065125	0.124712	0.174517
Cu16	Cu	1.565125	0.624712	0.674517
Cu17	Cu	1.065135	0.124714	-0.174313
Cu18	Cu	1.565135	0.624714	0.325687
O19	O	1.058116	0.255941	0.147567
O20	O	1.558116	0.755941	0.647567
C21	C	0.900311	0.131088	0.000083
C22	C	1.400311	0.631088	0.500083
C23	C	0.800228	0.129184	0.000072
C24	C	1.300228	0.629184	0.500072
C25	C	0.387693	0.039019	0.000123
C26	C	0.887693	0.539019	0.500123
C27	C	0.366413	0.203251	0.000099
C28	C	0.866413	0.703251	0.500099
C29	C	0.460447	0.205041	0.000094
C30	C	0.960447	0.705041	0.500094
C31	C	0.518108	0.123819	0.000100
C32	C	1.018108	0.623819	0.500100
C33	C	0.481736	0.040806	0.000112
C34	C	0.981736	0.540806	0.500112
C35	C	0.496826	0.288053	0.000063
C36	C	0.996826	0.788053	0.500063
C37	C	0.590866	0.289846	0.000055
C38	C	1.090866	0.789846	0.500055
C39	C	0.648529	0.208622	0.000074
C40	C	1.148529	0.708622	0.500074
C41	C	0.612151	0.125606	0.000089
C42	C	1.112151	0.625606	0.500089
C43	C	0.669813	0.044384	0.000095
C44	C	1.169813	0.544384	0.500095
C45	C	0.633437	-0.038633	0.000122
C46	C	1.133437	0.461367	0.500122
C47	C	0.539399	-0.040417	0.000131
C48	C	1.039399	0.459583	0.500131
C49	C	0.742566	0.210407	0.000065
C50	C	1.242566	0.710407	0.500065
C51	C	0.763855	0.046172	0.000084
C52	C	1.263855	0.546172	0.500084
C53	C	1.071504	-0.040106	0.000120
C54	C	1.571504	0.459894	0.500120
C55	C	1.069600	-0.140189	0.000122
C56	C	1.569600	0.359811	0.500122
C57	C	0.986589	-0.176566	0.000115
C58	C	1.486589	0.323434	0.500115
C59	C	1.150822	-0.197855	0.000115
C60	C	1.650822	0.302145	0.500115
C61	C	1.149035	-0.291889	0.000108
C62	C	1.649035	0.208111	0.500108
C63	C	1.066024	-0.328266	0.000101
C64	C	1.566024	0.171734	0.500101
C65	C	0.984800	-0.270608	0.000102
C66	C	1.484800	0.229392	0.500102
C67	C	1.230258	-0.349554	0.000088
C68	C	1.730258	0.150446	0.500088
C69	C	1.228475	-0.443594	0.000079
C70	C	1.728475	0.056406	0.500079
C71	C	1.145463	-0.479972	0.000085
C72	C	1.645463	0.020028	0.500085
C73	C	1.064235	-0.422309	0.000088
C74	C	1.564235	0.077691	0.500088
C75	C	0.981224	-0.458685	0.000081
C76	C	1.481224	0.041315	0.500081
C77	C	0.899996	-0.401023	0.000097
C78	C	1.399996	0.098977	0.500097
C79	C	0.901788	-0.306987	0.000108
C80	C	1.401788	0.193013	0.500108
C81	C	1.143670	-0.574009	0.000073
C82	C	1.643670	-0.074009	0.500073
C83	C	0.979435	-0.552728	0.000068
C84	C	1.479435	-0.052728	0.500068
C85	C	1.229948	0.118337	0.000117
C86	C	1.729948	0.618337	0.500117
C87	C	1.330032	0.120241	0.000117
C88	C	1.830032	0.620241	0.500117
C89	C	1.058755	0.289531	0.000080
C90	C	1.558755	0.789531	0.500080
C91	C	1.060660	0.389615	0.000067
C92	C	1.560660	0.889615	0.500067
N93	N	1.065125	0.124710	0.419866
N94	N	1.565125	0.624710	0.919866
N95	N	1.065142	0.124708	-0.419662
N96	N	1.565142	0.624708	0.080338
H97	H	0.772179	0.277998	0.000046
H98	H	1.272179	0.777998	0.500046
C99	C	0.827276	-0.043175	0.000082
C100	C	1.327276	0.456825	0.500082
H101	H	0.792141	-0.092868	0.000085
H102	H	1.292141	0.407132	0.500085
H103	H	0.864412	-0.045895	0.102930
H104	H	1.364412	0.454105	0.602930
H105	H	0.864392	-0.045890	-0.102805
H106	H	1.364392	0.454110	0.397195
H107	H	0.911837	-0.582338	0.000079
H108	H	1.411837	-0.082338	0.500079
H109	H	1.209806	-0.620953	0.000043
H110	H	1.709806	-0.120953	0.500043
H111	H	0.832408	-0.430653	0.000080
H112	H	1.332408	0.069347	0.500080
H113	H	0.680397	-0.104764	0.000115
H114	H	1.180397	0.395236	0.500115
C115	C	0.630872	0.381159	0.000050
C116	C	1.130872	0.881159	0.500050
H117	H	0.583061	0.429274	0.000061
H118	H	1.083061	0.929274	0.500061
H119	H	0.667116	0.385276	-0.102806
H120	H	1.167116	0.885276	0.397194
H121	H	0.667110	0.385265	0.102928
H122	H	1.167110	0.885265	0.602928
C123	C	0.347685	-0.052293	0.000145
C124	C	0.847685	0.447707	0.500145
H125	H	0.283421	-0.041730	0.000142
H126	H	0.783421	0.458270	0.500142
H127	H	0.367476	-0.085742	0.103005
H128	H	0.867476	0.414258	0.603005
H129	H	0.367465	-0.085735	-0.102729
H130	H	0.867465	0.414265	0.397271
C131	C	0.499388	-0.131727	0.000139
C132	C	0.999388	0.368273	0.500139
H133	H	0.547195	-0.179846	0.000156
H134	H	1.047195	0.320154	0.500156
H135	H	0.463146	-0.135833	-0.102722
H136	H	0.963146	0.364167	0.397278
H137	H	0.463147	-0.135839	0.103013
H138	H	0.963147	0.364161	0.603013
C139	C	0.812447	-0.243559	0.000106
C140	C	1.312447	0.256441	0.500106
H141	H	0.825404	-0.182345	0.000092
H142	H	1.325404	0.317655	0.500092
H143	H	0.778410	-0.254598	0.102962
H144	H	1.278410	0.245402	0.602962
H145	H	0.778418	-0.254592	-0.102773
H146	H	1.278418	0.245408	0.397227
H147	H	0.449872	0.354179	0.000040
H148	H	0.949872	0.854179	0.500040
H149	H	0.920455	-0.129613	0.000135
H150	H	1.420455	0.370387	0.500135
C151	C	0.302993	0.292591	0.000074
C152	C	0.802993	0.792591	0.500074
H153	H	0.338126	0.342285	0.000050
H154	H	0.838126	0.842285	0.500050
H155	H	0.265863	0.295310	0.102929
H156	H	0.765863	0.795310	0.602929
H157	H	0.265872	0.295302	-0.102806
H158	H	0.765872	0.795302	0.397194
H159	H	1.294616	-0.490536	0.000069
H160	H	1.794616	0.009464	0.500069
C161	C	1.242125	-0.157843	0.000120
C162	C	1.742125	0.342157	0.500120
H163	H	1.231558	-0.093580	0.000137
H164	H	1.731558	0.406420	0.500137
H165	H	1.275576	-0.177621	-0.102737
H166	H	1.775576	0.322379	0.397263
H167	H	1.275569	-0.177631	0.102997
H168	H	1.775569	0.322369	0.602997
C169	C	1.321561	-0.309539	0.000088
C170	C	1.821561	0.190461	0.500088
H171	H	1.310991	-0.245276	0.000118
H172	H	1.810991	0.254724	0.500118
H173	H	1.355006	-0.329311	-0.102778
H174	H	1.855006	0.170689	0.397222
H175	H	1.355010	-0.329332	0.102956
H176	H	1.855010	0.170668	0.602956
