data_functionalizedCrystal
_audit_creation_method	'MofGen! by Chris Wilmer'
_symmetry_space_group_name_H-M	'P1'
_symmetry_Int_Tables_number	1
_symmetry_cell_setting	triclinic
loop_
_symmetry_equiv_pos_as_xyz
  x,y,z
_cell_length_a	6.817900
_cell_length_b	14.125369
_cell_length_c	9.514088
_cell_angle_alpha	92.611133
_cell_angle_beta	118.843545
_cell_angle_gamma	100.397648
loop_
_atom_site_label
_atom_site_type_symbol
_atom_site_fract_x
_atom_site_fract_y
_atom_site_fract_z
V1	V	-4.201376	-0.134817	-0.500104
O2	O	-4.201926	0.004723	-0.491233
O3	O	-4.135963	-0.265631	-0.496058
O4	O	-4.236309	-0.133513	-0.718501
O5	O	-4.100885	-0.128309	-0.267251
V6	V	-4.676410	-0.118035	-0.472328
O7	O	-4.481255	-0.171629	-0.561031
O8	O	-4.846728	-0.081223	-0.411401
O9	O	-4.518616	0.012779	-0.476374
O10	O	-4.793256	-0.257575	-0.481199
O11	O	-4.894297	-0.124543	-0.705181
O12	O	-4.418270	-0.119339	-0.253931
C13	C	-3.974129	-0.297497	-0.488008
C14	C	-4.002488	-0.404444	-0.486156
C15	C	-4.102129	-0.128966	-0.771754
C16	C	-4.211862	-0.128766	-0.950291
C17	C	-4.242626	-0.652597	-0.489611
C18	C	-4.054541	-0.600256	-0.482827
C19	C	-4.025579	-0.491296	-0.484680
C20	C	-4.271595	-0.761566	-0.487759
C21	C	-4.215789	-0.123889	-0.200670
C22	C	-4.085294	-0.124085	-0.022132
C23	C	-4.343790	0.044640	-0.484420
C24	C	-4.294672	0.151586	-0.486282
H25	H	-3.915266	-0.637276	-0.475626
O26	O	-4.466609	-0.133858	-1.049741
H27	H	-4.542056	-0.137322	-0.969037
O28	O	-4.427099	-0.603569	-0.499127
H29	H	-4.375022	-0.524440	-0.499087
H30	H	-3.892990	-0.120239	-0.947054
