data_functionalizedCrystal
_audit_creation_method	'MofGen! by Chris Wilmer'
_symmetry_space_group_name_H-M	'P1'
_symmetry_Int_Tables_number	1
_symmetry_cell_setting	triclinic
loop_
_symmetry_equiv_pos_as_xyz
  x,y,z
_cell_length_a	16.109318
_cell_length_b	16.109304
_cell_length_c	18.366186
_cell_angle_alpha	89.996570
_cell_angle_beta	89.994535
_cell_angle_gamma	83.465600
loop_
_atom_site_label
_atom_site_type_symbol
_atom_site_fract_x
_atom_site_fract_y
_atom_site_fract_z
O1	O	1.103129	0.106937	-0.060484
O2	O	0.861069	0.120221	-0.060499
O3	O	0.988748	-0.007451	-0.060492
O4	O	0.975451	0.234609	-0.060492
O5	O	0.988726	-0.007458	0.060608
O6	O	0.861048	0.120215	0.060601
O7	O	1.103108	0.106930	0.060615
Zn8	Zn	0.982074	0.113572	0.079835
Zn9	Zn	0.982103	0.113580	-0.079719
O10	O	0.975429	0.234603	0.060608
C11	C	0.830084	0.119677	0.000049
C12	C	0.737789	0.118056	0.000044
C13	C	0.438727	0.112825	-0.065955
C14	C	0.525449	0.114342	-0.065959
C15	C	0.525444	0.114324	0.066070
C16	C	0.438725	0.112801	0.066074
C17	C	0.395368	0.112055	0.000059
C18	C	0.568809	0.115096	0.000051
C19	C	0.662836	0.116741	0.000047
C20	C	0.301336	0.110408	0.000063
C21	C	0.988198	-0.038430	0.000056
C22	C	0.986582	-0.130725	0.000051
C23	C	0.982860	-0.343059	-0.065957
C24	C	0.981334	-0.429779	-0.065957
C25	C	0.981314	-0.429783	0.066072
C26	C	0.982835	-0.343064	0.066071
C27	C	0.983612	-0.299704	0.000054
C28	C	0.980565	-0.473144	0.000056
C29	C	0.978911	-0.567170	0.000057
C30	C	0.985265	-0.205672	0.000053
C31	C	1.134093	0.107474	0.000066
C32	C	1.226388	0.109095	0.000066
C33	C	0.975979	0.265581	0.000058
C34	C	0.977595	0.357876	0.000058
N35	N	0.982061	0.113565	0.188726
N36	N	0.982123	0.113580	-0.188610
C37	C	1.038615	0.057060	0.226830
C38	C	1.038621	0.057056	0.303057
C39	C	0.982079	0.113572	0.341179
C40	C	0.925514	0.170082	0.303066
C41	C	0.925505	0.170079	0.226840
C42	C	0.971167	0.189294	0.461939
C43	C	0.971182	0.189299	0.538164
C44	C	0.982103	0.113583	0.576286
C45	C	0.993027	0.037859	0.538175
C46	C	0.993017	0.037856	0.461948
C47	C	0.982083	0.113582	0.423834
C48	C	1.038666	0.057068	0.697045
C49	C	1.038666	0.057064	0.773274
C50	C	0.925563	0.170097	0.773281
C51	C	0.925560	0.170095	0.697053
C52	C	0.982116	0.113581	0.658940
H53	H	0.403421	0.112173	0.119833
H54	H	0.560755	0.114933	0.119817
H55	H	0.403429	0.112217	-0.119708
H56	H	0.879511	0.216110	0.666027
H57	H	1.084715	0.011049	0.666011
C58	C	0.863315	0.232247	0.345001
N59	N	0.816461	0.279068	0.376587
C60	C	0.983705	-0.295366	-0.138578
N61	N	0.984338	-0.259445	-0.193278
C62	C	0.980540	-0.477470	-0.138575
N63	N	0.979953	-0.513391	-0.193274
C64	C	1.100869	-0.005114	0.815188
N65	N	1.147719	-0.051952	0.846758
H66	H	0.980684	-0.465097	0.119821
C67	C	1.005038	-0.045435	0.580104
N68	N	1.014086	-0.108170	0.611688
H69	H	0.962292	0.250957	0.569188
H70	H	1.084675	0.011041	0.334087
C71	C	1.005022	-0.045439	0.420028
N72	N	1.014059	-0.108177	0.388454
C73	C	0.573140	0.115186	-0.138580
N74	N	0.609061	0.115820	-0.193281
C75	C	0.959152	0.272593	0.420011
N76	N	0.950104	0.335332	0.388433
C77	C	0.983660	-0.295371	0.138692
N78	N	0.984280	-0.259448	0.193389
C79	C	1.100821	-0.005115	0.184909
N80	N	1.147672	-0.051948	0.153333
C81	C	0.863367	0.232267	0.815210
N82	N	0.816519	0.279094	0.846795
H83	H	0.879450	0.216093	0.195815
