data_functionalizedCrystal
_audit_creation_method	'MofGen! by Chris Wilmer'
_symmetry_space_group_name_H-M	'P1'
_symmetry_Int_Tables_number	1
_symmetry_cell_setting	triclinic
loop_
_symmetry_equiv_pos_as_xyz
  x,y,z
_cell_length_a	12.503552
_cell_length_b	14.853567
_cell_length_c	14.853567
_cell_angle_alpha	96.365070
_cell_angle_beta	86.471599
_cell_angle_gamma	86.474799
loop_
_atom_site_label
_atom_site_type_symbol
_atom_site_fract_x
_atom_site_fract_y
_atom_site_fract_z
O1	O	0.089238	-1.201558	0.112504
O2	O	0.339238	-0.951558	0.362504
O3	O	0.589238	-0.701558	0.612504
O4	O	0.839238	-0.451558	0.862504
O5	O	0.089255	-0.939100	0.126524
O6	O	0.339255	-0.689100	0.376524
O7	O	0.589255	-0.439100	0.626524
O8	O	0.839255	-0.189100	0.876524
O9	O	0.089249	-1.077340	-0.011716
O10	O	0.339249	-0.827340	0.238284
O11	O	0.589249	-0.577340	0.488284
O12	O	0.839249	-0.327340	0.738284
O13	O	0.089243	-1.063318	0.250744
O14	O	0.339243	-0.813318	0.500744
O15	O	0.589243	-0.563318	0.750744
O16	O	0.839243	-0.313318	1.000744
O17	O	-0.089393	-1.066931	-0.001310
O18	O	0.160607	-0.816931	0.248690
O19	O	0.410607	-0.566931	0.498690
O20	O	0.660607	-0.316931	0.748690
O21	O	-0.089387	-0.928691	0.136930
O22	O	0.160613	-0.678691	0.386930
O23	O	0.410613	-0.428691	0.636930
O24	O	0.660613	-0.178691	0.886930
O25	O	-0.089404	-1.191150	0.122910
O26	O	0.160596	-0.941150	0.372910
O27	O	0.410596	-0.691150	0.622910
O28	O	0.660596	-0.441150	0.872910
Cu29	Cu	-0.105707	-1.058970	0.130870
Cu30	Cu	0.144293	-0.808970	0.380870
Cu31	Cu	0.394293	-0.558970	0.630870
Cu32	Cu	0.644293	-0.308970	0.880870
Cu33	Cu	0.105558	-1.071279	0.118564
Cu34	Cu	0.355558	-0.821279	0.368564
Cu35	Cu	0.605558	-0.571279	0.618564
Cu36	Cu	0.855558	-0.321279	0.868564
O37	O	-0.089399	-1.052910	0.261150
O38	O	0.160601	-0.802910	0.511150
O39	O	0.410601	-0.552910	0.761150
O40	O	0.660601	-0.302910	1.011150
C41	C	-0.000064	-0.900307	0.131092
C42	C	0.249936	-0.650307	0.381092
C43	C	0.499936	-0.400307	0.631092
C44	C	0.749936	-0.150307	0.881092
C45	C	-0.000057	-0.800224	0.129188
C46	C	0.249943	-0.550224	0.379188
C47	C	0.499943	-0.300224	0.629188
C48	C	0.749943	-0.050224	0.879188
N49	N	-0.254300	-1.050319	0.139525
N50	N	-0.004300	-0.800319	0.389525
N51	N	0.245700	-0.550319	0.639525
N52	N	0.495700	-0.300319	0.889525
C53	C	-0.526735	-1.092659	0.097168
C54	C	-0.276735	-0.842659	0.347168
C55	C	-0.026735	-0.592659	0.597168
C56	C	0.223265	-0.342659	0.847168
C57	C	-0.473408	-1.037601	0.152256
C58	C	-0.223408	-0.787601	0.402256
C59	C	0.026592	-0.537601	0.652256
C60	C	0.276592	-0.287601	0.902256
C61	C	-0.351485	-1.044679	0.145170
C62	C	-0.101485	-0.794679	0.395170
C63	C	0.148515	-0.544679	0.645170
C64	C	0.398515	-0.294679	0.895170
C65	C	-0.648669	-1.085582	0.104252
C66	C	-0.398669	-0.835582	0.354252
C67	C	-0.148669	-0.585582	0.604252
C68	C	0.101331	-0.335582	0.854252
C69	C	-0.000069	-1.071500	-0.040102
C70	C	0.249931	-0.821500	0.209898
C71	C	0.499931	-0.571500	0.459898
C72	C	0.749931	-0.321500	0.709898
C73	C	-0.000059	-1.069597	-0.140186
C74	C	0.249941	-0.819597	0.109814
C75	C	0.499941	-0.569597	0.359814
C76	C	0.749941	-0.319597	0.609814
N77	N	0.254150	-1.079937	0.109902
N78	N	0.504150	-0.829937	0.359902
N79	N	0.754150	-0.579937	0.609902
N80	N	1.004150	-0.329937	0.859902
C81	C	-0.000083	-1.229943	0.118342
C82	C	0.249917	-0.979943	0.368342
C83	C	0.499917	-0.729943	0.618342
C84	C	0.749917	-0.479943	0.868342
C85	C	-0.000083	-1.330026	0.120246
C86	C	0.249917	-1.080026	0.370246
C87	C	0.499917	-0.830026	0.620246
C88	C	0.749917	-0.580026	0.870246
C89	C	-0.000079	-0.387688	0.039023
C90	C	0.249921	-0.137688	0.289023
C91	C	0.499921	0.112312	0.539023
C92	C	0.749921	0.362312	0.789023
C93	C	-0.000081	-0.366407	0.203256
C94	C	0.249919	-0.116407	0.453256
C95	C	0.499919	0.133593	0.703256
C96	C	0.749919	0.383593	0.953256
C97	C	-0.000078	-0.460441	0.205046
C98	C	0.249922	-0.210441	0.455046
C99	C	0.499922	0.039559	0.705046
C100	C	0.749922	0.289559	0.955046
C101	C	-0.000073	-0.518103	0.123823
C102	C	0.249927	-0.268103	0.373823
C103	C	0.499927	-0.018103	0.623823
C104	C	0.749927	0.231897	0.873823
C105	C	-0.000072	-0.481732	0.040810
C106	C	0.249928	-0.231732	0.290810
C107	C	0.499928	0.018268	0.540810
C108	C	0.749928	0.268268	0.790810
C109	C	-0.000068	-0.496821	0.288057
C110	C	0.249932	-0.246821	0.538057
C111	C	0.499932	0.003179	0.788057
C112	C	0.749932	0.253179	1.038057
C113	C	-0.000064	-0.590860	0.289850
C114	C	0.249936	-0.340860	0.539850
C115	C	0.499936	-0.090860	0.789850
C116	C	0.749936	0.159140	1.039850
C117	C	-0.000067	-0.648524	0.208626
C118	C	0.249933	-0.398524	0.458626
C119	C	0.499933	-0.148524	0.708626
C120	C	0.749933	0.101476	0.958626
C121	C	-0.000067	-0.612147	0.125610
C122	C	0.249933	-0.362147	0.375610
C123	C	0.499933	-0.112147	0.625610
C124	C	0.749933	0.137853	0.875610
C125	C	-0.000062	-0.669809	0.044388
C126	C	0.249938	-0.419809	0.294388
C127	C	0.499938	-0.169809	0.544388
C128	C	0.749938	0.080191	0.794388
C129	C	-0.000070	-0.633433	-0.038629
C130	C	0.249930	-0.383433	0.211371
C131	C	0.499930	-0.133433	0.461371
C132	C	0.749930	0.116567	0.711371
C133	C	-0.000075	-0.539395	-0.040413
C134	C	0.249925	-0.289395	0.209587
C135	C	0.499925	-0.039395	0.459587
C136	C	0.749925	0.210605	0.709587
C137	C	-0.000061	-0.742561	0.210410
C138	C	0.249939	-0.492561	0.460410
C139	C	0.499939	-0.242561	0.710410
C140	C	0.749939	0.007439	0.960410
C141	C	-0.000056	-0.763852	0.046175
C142	C	0.249944	-0.513852	0.296175
C143	C	0.499944	-0.263852	0.546175
C144	C	0.749944	-0.013852	0.796175
C145	C	-0.000074	-0.979431	-0.552719
C146	C	0.249926	-0.729431	-0.302719
C147	C	0.499926	-0.479431	-0.052719
C148	C	0.749926	-0.229431	0.197281
C149	C	-0.000085	-1.143663	-0.573999
C150	C	0.249915	-0.893663	-0.323999
C151	C	0.499915	-0.643663	-0.073999
C152	C	0.749915	-0.393663	0.176001
C153	C	-0.000078	-1.145453	-0.479966
C154	C	0.249922	-0.895453	-0.229966
C155	C	0.499922	-0.645453	0.020034
C156	C	0.749922	-0.395453	0.270034
C157	C	-0.000072	-1.064231	-0.422304
C158	C	0.249928	-0.814231	-0.172304
C159	C	0.499928	-0.564231	0.077696
C160	C	0.749928	-0.314231	0.327696
C161	C	-0.000071	-0.981218	-0.458676
C162	C	0.249929	-0.731218	-0.208676
C163	C	0.499929	-0.481218	0.041324
C164	C	0.749929	-0.231218	0.291324
C165	C	-0.000090	-1.228464	-0.443586
C166	C	0.249910	-0.978464	-0.193586
C167	C	0.499910	-0.728464	0.056414
C168	C	0.749910	-0.478464	0.306414
C169	C	-0.000085	-1.230258	-0.349547
C170	C	0.249915	-0.980258	-0.099547
C171	C	0.499915	-0.730258	0.150453
C172	C	0.749915	-0.480258	0.400453
C173	C	-0.000070	-1.149035	-0.291885
C174	C	0.249930	-0.899035	-0.041885
C175	C	0.499930	-0.649035	0.208115
C176	C	0.749930	-0.399035	0.458115
C177	C	-0.000069	-1.066019	-0.328262
C178	C	0.249931	-0.816019	-0.078262
C179	C	0.499931	-0.566019	0.171738
C180	C	0.749931	-0.316019	0.421738
C181	C	-0.000062	-0.984797	-0.270600
C182	C	0.249938	-0.734797	-0.020600
C183	C	0.499938	-0.484797	0.229400
C184	C	0.749938	-0.234797	0.479400
C185	C	-0.000052	-0.901780	-0.306976
C186	C	0.249948	-0.651780	-0.056976
C187	C	0.499948	-0.401780	0.193024
C188	C	0.749948	-0.151780	0.443024
C189	C	-0.000056	-0.899996	-0.401014
C190	C	0.249944	-0.649996	-0.151014
C191	C	0.499944	-0.399996	0.098986
C192	C	0.749944	-0.149996	0.348986
C193	C	-0.000066	-1.150819	-0.197847
C194	C	0.249934	-0.900819	0.052153
C195	C	0.499934	-0.650819	0.302153
C196	C	0.749934	-0.400819	0.552153
C197	C	-0.000059	-0.986584	-0.176558
C198	C	0.249941	-0.736584	0.073442
C199	C	0.499941	-0.486584	0.323442
C200	C	0.749941	-0.236584	0.573442
C201	C	-0.000078	-1.058749	0.289536
C202	C	0.249922	-0.808749	0.539536
C203	C	0.499922	-0.558749	0.789536
C204	C	0.749922	-0.308749	1.039536
C205	C	-0.000081	-1.060653	0.389620
C206	C	0.249919	-0.810653	0.639620
C207	C	0.499919	-0.560653	0.889620
C208	C	0.749919	-0.310653	1.139620
H209	H	-0.519322	-0.985148	0.204740
H210	H	-0.269322	-0.735148	0.454740
H211	H	-0.019322	-0.485148	0.704740
H212	H	0.230678	-0.235148	0.954740
H213	H	-0.000099	-1.209790	-0.620952
H214	H	0.249901	-0.959790	-0.370952
H215	H	0.499901	-0.709790	-0.120952
H216	H	0.749901	-0.459790	0.129048
H217	H	-0.000059	-0.680394	-0.104761
H218	H	0.249941	-0.430394	0.145239
H219	H	0.499941	-0.180394	0.395239
H220	H	0.749941	0.069606	0.645239
H221	H	-0.000091	-1.297854	-0.319939
H222	H	0.249909	-1.047854	-0.069939
H223	H	0.499909	-0.797854	0.180061
H224	H	0.749909	-0.547854	0.430061
H225	H	-0.480826	-1.145109	0.044688
H226	H	-0.230826	-0.895109	0.294688
H227	H	0.019174	-0.645109	0.544688
H228	H	0.269174	-0.395109	0.794688
H229	H	-0.000056	-0.810795	-0.019968
H230	H	0.249944	-0.560795	0.230032
H231	H	0.499944	-0.310795	0.480032
H232	H	0.749944	-0.060795	0.730032
H233	H	-0.000054	-0.835649	-0.260016
H234	H	0.249946	-0.585649	-0.010016
H235	H	0.499946	-0.335649	0.239984
H236	H	0.749946	-0.085649	0.489984
H237	H	-0.000081	-1.218410	-0.168234
H238	H	0.249919	-0.968410	0.081766
H239	H	0.499919	-0.718410	0.331766
H240	H	0.749919	-0.468410	0.581766
H241	H	-0.000107	-0.509767	-0.107999
H242	H	0.249893	-0.259767	0.142001
H243	H	0.499893	-0.009767	0.392001
H244	H	0.749893	0.240233	0.642001
H245	H	-0.000089	-0.358067	-0.028567
H246	H	0.249911	-0.108067	0.221433
H247	H	0.499911	0.141933	0.471433
H248	H	0.749911	0.391933	0.721433
H249	H	-0.000076	-0.319454	0.269383
H250	H	0.249924	-0.069454	0.519383
H251	H	0.499924	0.180546	0.769383
H252	H	0.749924	0.430546	1.019383
H253	H	-0.000061	-0.449867	0.354183
H254	H	0.249939	-0.199867	0.604183
H255	H	0.499939	0.050133	0.854183
H256	H	0.749939	0.300133	1.104183
H257	H	-0.000057	-0.620469	0.357447
H258	H	0.249943	-0.370469	0.607447
H259	H	0.499943	-0.120469	0.857447
H260	H	0.749943	0.129531	1.107447
H261	H	-0.000057	-0.772175	0.278001
H262	H	0.249943	-0.522175	0.528001
H263	H	0.499943	-0.272175	0.778001
H264	H	0.749943	-0.022175	1.028001
H265	H	-0.000048	-0.920443	-0.129615
H266	H	0.249952	-0.670443	0.120385
H267	H	0.499952	-0.420443	0.370385
H268	H	0.749952	-0.170443	0.620385
H269	H	-0.000050	-0.832408	-0.430640
H270	H	0.249950	-0.582408	-0.180640
H271	H	0.499950	-0.332408	0.069360
H272	H	0.749950	-0.082408	0.319360
H273	H	-0.000062	-0.911841	-0.582341
H274	H	0.249938	-0.661841	-0.332341
H275	H	0.499938	-0.411841	-0.082341
H276	H	0.749938	-0.161841	0.167659
H277	H	-0.000106	-1.294590	-0.490540
H278	H	0.249894	-1.044590	-0.240540
H279	H	0.499894	-0.794590	0.009460
H280	H	0.749894	-0.544590	0.259460
