data_functionalizedCrystal
_audit_creation_method	'MofGen! by Chris Wilmer'
_symmetry_space_group_name_H-M	'P1'
_symmetry_Int_Tables_number	1
_symmetry_cell_setting	triclinic
loop_
_symmetry_equiv_pos_as_xyz
  x,y,z
_cell_length_a	10.654583
_cell_length_b	15.944551
_cell_length_c	9.130313
_cell_angle_alpha	89.996228
_cell_angle_beta	90.010435
_cell_angle_gamma	96.001366
loop_
_atom_site_label
_atom_site_type_symbol
_atom_site_fract_x
_atom_site_fract_y
_atom_site_fract_z
O1	O	-1.666290	0.118107	-0.121996
O2	O	-1.300671	0.129318	-0.121957
O3	O	-1.493465	0.001496	-0.121965
O4	O	-1.473496	0.245929	-0.121989
O5	O	-1.493446	0.001497	0.121634
O6	O	-1.300653	0.129319	0.121642
O7	O	-1.666271	0.118108	0.121602
Cu8	Cu	-1.483460	0.123713	0.143865
Cu9	Cu	-1.483482	0.123712	-0.144219
O10	O	-1.473478	0.245930	0.121610
C11	C	-1.253876	0.128489	-0.000153
C12	C	-1.114467	0.126009	-0.000137
C13	C	-1.048941	0.124852	0.132641
C14	C	-0.917950	0.122529	0.132624
C15	C	-0.918021	0.122522	-0.132960
C16	C	-1.049010	0.124839	-0.132942
C17	C	-1.048899	0.124860	0.285974
C18	C	-0.917908	0.122536	0.285958
C19	C	-1.492627	-0.029802	-0.000165
C20	C	-1.490141	-0.123063	-0.000164
C21	C	-1.364699	-0.338656	-0.000171
C22	C	-1.422941	-0.399331	0.119932
C23	C	-1.485645	-0.293815	-0.000175
C24	C	-1.422988	-0.399315	-0.120237
C25	C	-1.481293	-0.458753	-0.000191
C26	C	-1.543921	-0.353262	0.120027
C27	C	-1.543951	-0.353239	-0.120250
C28	C	-1.602281	-0.413896	-0.000118
C29	C	-1.488149	-0.198798	-0.000164
C30	C	-1.478799	-0.553769	-0.000192
C31	C	-0.713069	0.118924	-0.000191
C32	C	-0.852486	0.121367	-0.000172
C33	C	-1.474316	0.277228	-0.000193
C34	C	-1.476801	0.370489	-0.000204
N35	N	-1.483454	0.123714	0.346487
N36	N	-1.483498	0.123706	-0.346842
C37	C	-1.398074	0.180288	0.423180
C38	C	-1.398099	0.180286	0.576517
C39	C	-1.568887	0.067129	0.576454
C40	C	-1.568868	0.067135	0.423120
C41	C	-1.299467	0.245616	0.423217
C42	C	-1.299492	0.245614	0.576554
H43	H	-0.870867	0.180584	0.344820
Br44	Br	-1.629157	-0.319186	-0.289513
H45	H	-1.371778	-0.419739	0.221480
H46	H	-1.638430	0.021065	0.638866
H47	H	-1.203172	0.231216	0.618207
Br48	Br	-1.769751	-0.468183	-0.000033
H49	H	-1.102359	0.125768	-0.241063
H50	H	-0.864710	0.121569	-0.241086
Br51	Br	-1.127257	0.028119	0.384124
H52	H	-1.077677	0.186121	0.333543
Br53	Br	-1.684764	-0.009631	0.319033
Br54	Br	-0.869875	0.020527	0.365616
H55	H	-1.371824	-0.419692	-0.221781
H56	H	-1.320066	0.310183	0.381597
H57	H	-1.264307	-0.305937	-0.000040
H58	H	-1.595026	-0.332971	0.221676
Br59	Br	-1.349049	0.347293	0.655812
H60	H	-1.208544	0.225153	0.375692
