data_functionalizedCrystal
_audit_creation_method	'MofGen! by Chris Wilmer'
_symmetry_space_group_name_H-M	'P1'
_symmetry_Int_Tables_number	1
_symmetry_cell_setting	triclinic
loop_
_symmetry_equiv_pos_as_xyz
  x,y,z
_cell_length_a	10.654550
_cell_length_b	16.109301
_cell_length_c	9.730223
_cell_angle_alpha	89.997247
_cell_angle_beta	89.996251
_cell_angle_gamma	83.973192
loop_
_atom_site_label
_atom_site_type_symbol
_atom_site_fract_x
_atom_site_fract_y
_atom_site_fract_z
O1	O	1.666250	0.116770	-0.114408
O2	O	1.300620	0.127896	-0.114386
O3	O	1.493479	0.001362	-0.114384
O4	O	1.473391	0.243304	-0.114410
O5	O	1.493477	0.001365	0.114196
O6	O	1.300618	0.127899	0.114194
O7	O	1.666248	0.116773	0.114172
Zn8	Zn	1.483433	0.122337	0.150475
Zn9	Zn	1.483436	0.122332	-0.150689
O10	O	1.473389	0.243307	0.114170
C11	C	1.253832	0.127080	-0.000093
C12	C	1.114422	0.124636	-0.000085
C13	C	1.033926	0.199138	-0.000113
C14	C	0.902936	0.196836	-0.000136
C15	C	0.932952	0.045526	-0.000109
C16	C	1.063939	0.047828	-0.000076
C17	C	1.016595	0.286496	-0.000135
C18	C	0.885606	0.284194	-0.000158
C19	C	1.492665	-0.029616	-0.000093
C20	C	1.490225	-0.121926	-0.000091
C21	C	1.598991	-0.343552	-0.000119
C22	C	1.596689	-0.430286	-0.000130
C23	C	1.367868	-0.411772	-0.000111
C24	C	1.370172	-0.325040	-0.000110
C25	C	1.485737	-0.290932	-0.000107
C26	C	1.481131	-0.464399	-0.000119
C27	C	1.478634	-0.558440	-0.000131
C28	C	1.488234	-0.196885	-0.000097
C29	C	1.713036	0.117589	-0.000124
C30	C	1.852446	0.120033	-0.000141
C31	C	1.474204	0.274286	-0.000124
C32	C	1.476643	0.366595	-0.000135
N33	N	1.483440	0.122339	0.356011
N34	N	1.483438	0.122324	-0.356225
C35	C	1.568859	0.066329	0.427939
C36	C	1.568856	0.066319	0.571822
C37	C	1.398010	0.178336	0.571837
C38	C	1.398008	0.178342	0.427957
C39	C	1.667500	0.001659	0.427931
C40	C	1.667497	0.001649	0.571814
H41	H	1.129476	-0.012838	-0.000033
O42	O	1.058604	0.319823	-0.117788
C43	C	1.048891	0.439845	-0.266712
C44	C	1.001235	0.402215	-0.133416
H45	H	1.002509	0.506458	-0.279405
H46	H	1.155703	0.440292	-0.261283
H47	H	1.023677	0.400610	-0.358188
H48	H	1.026360	0.441418	-0.041870
H49	H	0.894432	0.401753	-0.138964
O50	O	0.830660	0.315539	0.117648
C51	C	0.706219	0.289014	0.316600
C52	C	0.768401	0.253416	0.183234
H53	H	0.655845	0.238810	0.369650
H54	H	0.781713	0.309944	0.387950
H55	H	0.634986	0.344671	0.290877
H56	H	0.839624	0.197735	0.208829
H57	H	0.692837	0.232543	0.111922
O58	O	1.776052	0.025794	0.374897
C59	C	1.979962	0.071260	0.422631
C60	C	1.857105	0.043921	0.482876
H61	H	2.045516	0.085941	0.509903
H62	H	2.028366	0.018804	0.356733
H63	H	1.956911	0.129338	0.356641
H64	H	1.880047	-0.014138	0.548929
H65	H	1.808736	0.096426	0.548697
O66	O	0.835187	0.323572	-0.114148
C67	C	0.691094	0.435851	-0.203810
C68	C	0.748117	0.391350	-0.074612
H69	H	0.620668	0.490648	-0.171892
H70	H	0.769564	0.459730	-0.267601
H71	H	0.640772	0.390072	-0.267597
H72	H	0.798428	0.437079	-0.010719
H73	H	0.669595	0.367455	-0.010924
O74	O	1.706621	-0.481486	0.000043
C75	C	1.836855	-0.590127	0.118482
C76	C	1.712294	-0.532205	0.118446
H77	H	1.841495	-0.631135	0.214215
H78	H	1.841514	-0.631246	0.022881
H79	H	1.919823	-0.550831	0.118415
H80	H	1.629256	-0.571435	0.118561
H81	H	1.707746	-0.491082	0.214038
H82	H	1.637803	-0.058740	0.616438
H83	H	1.277941	-0.282194	-0.000104
H84	H	1.328442	0.223942	0.369395
O85	O	1.782445	0.018495	0.618477
C86	C	1.966391	-0.029608	0.751831
C87	C	1.836256	-0.048801	0.699049
H88	H	2.009924	-0.083997	0.817008
H89	H	2.030696	-0.020142	0.660764
H90	H	1.954851	0.029561	0.816875
H91	H	1.847676	-0.107977	0.634027
H92	H	1.771997	-0.058215	0.790177
O93	O	1.711355	-0.310556	-0.000194
C94	C	1.938070	-0.338078	-0.000153
C95	C	1.810903	-0.375552	-0.000092
H96	H	2.018588	-0.390609	-0.000042
H97	H	1.944947	-0.297962	-0.095838
H98	H	1.944811	-0.297910	0.095483
H99	H	1.804076	-0.415758	-0.095663
H100	H	1.804081	-0.415620	0.095656
H101	H	0.891833	-0.017009	-0.000123
O102	O	1.051009	0.327131	0.114128
C103	C	1.054112	0.330990	0.361661
C104	C	1.015096	0.284882	0.232378
H105	H	1.025069	0.296861	0.457298
H106	H	1.160781	0.332846	0.361803
H107	H	1.005288	0.397443	0.361582
H108	H	1.063832	0.218410	0.232371
H109	H	0.908415	0.283094	0.232286
H110	H	1.328452	0.223932	0.630431
O111	O	1.642877	-0.074608	0.381568
C112	C	1.598183	-0.213612	0.441651
C113	C	1.626027	-0.127276	0.494342
H114	H	1.584578	-0.256223	0.532801
H115	H	1.508694	-0.206620	0.376620
H116	H	1.680762	-0.241926	0.376506
H117	H	1.543526	-0.098914	0.559544
H118	H	1.715560	-0.134322	0.559298
H119	H	1.273779	-0.439553	-0.000111
