data_functionalizedCrystal
_audit_creation_method	'MofGen! by Chris Wilmer'
_symmetry_space_group_name_H-M	'P1'
_symmetry_Int_Tables_number	1
_symmetry_cell_setting	triclinic
loop_
_symmetry_equiv_pos_as_xyz
  x,y,z
_cell_length_a	16.120484
_cell_length_b	16.959455
_cell_length_c	16.959447
_cell_angle_alpha	90.023646
_cell_angle_beta	92.866538
_cell_angle_gamma	87.079026
loop_
_atom_site_label
_atom_site_type_symbol
_atom_site_fract_x
_atom_site_fract_y
_atom_site_fract_z
Zn1	Zn	-0.332000	-1.192392	-0.463047
Zn2	Zn	-0.471428	-1.185598	-0.337564
Zn3	Zn	-0.332022	-1.060219	-0.330864
Zn4	Zn	-0.471361	-1.053472	-0.469677
O5	O	-0.401703	-1.122920	-0.400288
O6	O	-0.350515	-1.302101	-0.446430
O7	O	-0.452973	-1.168947	-0.226066
O8	O	-0.215354	-1.083419	-0.342820
O9	O	-0.452952	-1.297109	-0.354238
O10	O	-0.215338	-1.180526	-0.439934
O11	O	-0.350551	-1.076832	-0.221144
O12	O	-0.350486	-0.948714	-0.349249
O13	O	-0.452838	-1.071920	-0.579407
O14	O	-0.452858	-0.943757	-0.451235
O15	O	-0.350450	-1.173983	-0.574536
O16	O	-0.588084	-1.162405	-0.360667
O17	O	-0.588035	-1.065332	-0.457731
C18	C	-0.401668	-0.917556	-0.400235
C19	C	-0.401673	-0.829699	-0.400232
C20	C	-0.454964	-0.455616	-0.352216
C21	C	-0.348461	-0.460827	-0.448381
C22	C	-0.348450	-0.543373	-0.448366
C23	C	-0.401698	-0.582045	-0.400276
C24	C	-0.454957	-0.538170	-0.352201
C25	C	-0.295199	-0.587254	-0.496446
C26	C	-0.295187	-0.669805	-0.496434
C27	C	-0.348431	-0.708479	-0.448339
C28	C	-0.401691	-0.664599	-0.400262
C29	C	-0.454939	-0.703270	-0.352172
C30	C	-0.508195	-0.659392	-0.304089
C31	C	-0.508201	-0.576843	-0.304107
C32	C	-0.348425	-0.791027	-0.448322
C33	C	-0.454932	-0.785824	-0.352157
C34	C	-0.618310	-1.112421	-0.410663
C35	C	-0.710975	-1.108001	-0.415127
C36	C	-0.880636	-1.099937	-0.423295
C37	C	-0.921929	-1.146046	-0.377294
C38	C	-1.016334	-1.141559	-0.381839
C39	C	-0.786222	-1.104423	-0.418752
C40	C	-0.184250	-1.133483	-0.389890
C41	C	-0.091585	-1.137984	-0.385459
C42	C	-0.401634	-1.122957	-0.606453
C43	C	-0.401604	-1.122972	-0.694308
C44	C	-0.401729	-0.329087	-0.400327
C45	C	-0.401716	-0.416945	-0.400306
C46	C	-0.454825	-1.069931	-1.068319
C47	C	-0.348208	-1.176211	-1.063241
C48	C	-0.348225	-1.176189	-0.980696
C49	C	-0.401545	-1.123038	-0.941959
C50	C	-0.454846	-1.069909	-0.985766
C51	C	-0.294931	-1.229322	-0.936883
C52	C	-0.294947	-1.229303	-0.854333
C53	C	-0.348263	-1.176148	-0.815593
C54	C	-0.401566	-1.123016	-0.859406
C55	C	-0.454885	-1.069865	-0.820668
C56	C	-0.508184	-1.016729	-0.864479
C57	C	-0.508162	-1.016754	-0.947027
C58	C	-0.348285	-1.176123	-0.733046
C59	C	-0.454906	-1.069843	-0.738116
C60	C	-0.401711	-1.122933	-0.194922
C61	C	-0.401506	-1.123082	-0.107056
H62	H	-0.251853	-0.555761	-0.535604
H63	H	-0.498290	-0.817305	-0.312993
Cl64	Cl	-0.521935	-1.003016	-0.689424
H65	H	-0.551600	-0.973457	-0.832929
H66	H	-0.551554	-0.690889	-0.264939
H67	H	-0.551558	-0.973495	-0.982705
Cl68	Cl	-0.575148	-0.521678	-0.243669
H69	H	-0.251527	-1.272599	-0.968429
H70	H	-0.916181	-1.057094	-0.466087
H71	H	-0.498218	-1.026667	-1.103993
H72	H	-0.304802	-1.219488	-1.094787
H73	H	-0.251547	-1.272569	-0.818668
Cl74	Cl	-0.281292	-1.242922	-0.677973
Cl75	Cl	-0.521908	-0.400458	-0.291770
H76	H	-0.305066	-0.826749	-0.487471
Cl77	Cl	-0.281534	-0.412210	-0.508843
H78	H	-0.251822	-0.705524	-0.535585
Cl79	Cl	-0.867050	-1.212193	-0.311216
