data_functionalizedCrystal
_audit_creation_method	'MofGen! by Chris Wilmer'
_symmetry_space_group_name_H-M	'P1'
_symmetry_Int_Tables_number	1
_symmetry_cell_setting	triclinic
loop_
_symmetry_equiv_pos_as_xyz
  x,y,z
_cell_length_a	12.645323
_cell_length_b	16.625548
_cell_length_c	16.625546
_cell_angle_alpha	90.023536
_cell_angle_beta	90.031016
_cell_angle_gamma	90.022465
loop_
_atom_site_label
_atom_site_type_symbol
_atom_site_fract_x
_atom_site_fract_y
_atom_site_fract_z
Zn1	Zn	-0.599395	-1.232696	0.320972
Zn2	Zn	-0.422116	-1.232594	0.455817
Zn3	Zn	-0.422140	-1.097853	0.321004
Zn4	Zn	-0.599332	-1.097828	0.455769
O5	O	-0.510746	-1.165243	0.388391
O6	O	-0.575895	-1.345514	0.338866
O7	O	-0.273772	-1.214689	0.437967
O8	O	-0.445690	-1.115793	0.208168
O9	O	-0.445649	-1.345440	0.437936
O10	O	-0.575918	-1.214861	0.208144
O11	O	-0.273790	-1.115695	0.338921
O12	O	-0.445629	-0.985017	0.338875
O13	O	-0.747688	-1.115750	0.437855
O14	O	-0.575811	-0.984999	0.437886
O15	O	-0.747734	-1.214837	0.338820
O16	O	-0.445588	-1.214664	0.568643
O17	O	-0.575788	-1.115652	0.568608
C18	C	-0.510716	-0.955752	0.388379
C19	C	-0.510729	-0.866131	0.388394
C20	C	-0.510701	-1.165166	0.597882
C21	C	-0.510718	-1.165207	0.687503
C22	C	-0.787251	-1.165302	0.388328
C23	C	-0.905081	-1.165327	0.388302
C24	C	-1.072617	-1.102800	0.450311
C25	C	-0.950057	-1.102963	0.450618
C26	C	-0.949598	-1.250284	0.411360
C27	C	-1.072196	-1.249941	0.411749
C28	C	-1.072291	-1.143702	0.302887
C29	C	-0.949685	-1.141807	0.303399
C30	C	-0.235316	-1.165230	0.388395
C31	C	-0.117487	-1.165361	0.388194
C32	C	-0.510776	-1.375552	0.388403
C33	C	-0.510789	-1.465173	0.388408
C34	C	-0.510774	-0.537955	0.388399
C35	C	-0.510758	-0.629264	0.388395
C36	C	-0.510751	-0.702040	0.388397
C37	C	-0.510736	-0.793354	0.388392
C38	C	-0.510814	-1.165341	0.178082
C39	C	-0.510842	-1.165383	0.088461
C40	C	-0.510828	-1.165348	1.015678
C41	C	-0.510801	-1.165306	0.924370
C42	C	-0.510773	-1.165277	0.851593
C43	C	-0.510746	-1.165237	0.760279
H44	H	-1.102092	-1.039615	0.436020
C45	C	-0.910254	-1.314948	0.352176
C46	C	-0.837072	-1.291305	0.282051
C47	C	-0.797731	-1.355968	0.222864
C48	C	-0.831572	-1.444273	0.233801
C49	C	-0.904759	-1.467920	0.303928
C50	C	-0.944100	-1.403258	0.363116
H51	H	-0.812016	-1.225933	0.273953
H52	H	-0.743553	-1.338462	0.170951
H53	H	-0.802450	-1.492140	0.189986
H54	H	-0.929814	-1.533293	0.312027
H55	H	-0.998277	-1.420763	0.415029
C56	C	-0.910540	-1.122471	0.536037
C57	C	-0.841128	-1.197154	0.550569
C58	C	-0.801664	-1.216739	0.635989
C59	C	-0.831614	-1.161640	0.706876
C60	C	-0.901030	-1.086952	0.692345
C61	C	-0.940493	-1.067367	0.606926
H62	H	-0.818954	-1.237946	0.498092
H63	H	-0.750278	-1.272029	0.646744
H64	H	-0.802401	-1.176138	0.770108
H65	H	-0.923204	-1.046160	0.744822
H66	H	-0.991880	-1.012077	0.596170
H67	H	-1.101311	-1.189269	0.256608
C68	C	-1.114233	-1.121924	0.535214
C69	C	-1.089713	-1.203820	0.574220
C70	C	-1.131331	-1.222950	0.659122
C71	C	-1.197470	-1.160183	0.705018
C72	C	-1.221994	-1.078282	0.666012
C73	C	-1.180376	-1.059152	0.581110
H74	H	-1.040750	-1.250289	0.540245
H75	H	-1.113176	-1.283579	0.687996
H76	H	-1.228279	-1.174344	0.767867
H77	H	-1.270957	-1.031813	0.699987
H78	H	-1.198530	-0.998523	0.552236
C79	C	-0.910380	-1.057347	0.279900
C80	C	-0.838123	-1.009934	0.337507
C81	C	-0.798813	-0.925473	0.314010
C82	C	-0.831759	-0.888426	0.232906
C83	C	-0.904020	-0.935839	0.175294
C84	C	-0.943330	-1.020300	0.198790
H85	H	-0.813731	-1.037358	0.397549
H86	H	-0.745321	-0.890375	0.356659
H87	H	-0.802660	-0.825903	0.215513
H88	H	-0.928412	-0.908415	0.115251
H89	H	-0.996823	-1.055398	0.156141
H90	H	-0.918900	-1.268958	0.473068
H91	H	-1.100798	-1.268300	0.474110
C92	C	-1.114030	-1.061466	0.274490
C93	C	-1.090822	-0.985323	0.324240
C94	C	-1.132560	-0.903083	0.295853
C95	C	-1.197508	-0.896986	0.217716
C96	C	-1.220721	-0.973131	0.167961
C97	C	-1.178982	-1.055371	0.196348
H98	H	-1.042740	-0.989834	0.382086
H99	H	-1.115377	-0.846715	0.332685
H100	H	-1.228406	-0.836107	0.196702
H101	H	-1.268802	-0.968620	0.110115
H102	H	-1.196165	-1.111739	0.159516
H103	H	-0.919957	-1.039965	0.436189
C104	C	-1.112307	-1.315063	0.353306
C105	C	-1.032781	-1.367215	0.306432
C106	C	-1.072887	-1.432344	0.248000
C107	C	-1.192519	-1.445321	0.236441
C108	C	-1.272052	-1.393167	0.283316
C109	C	-1.231947	-1.328038	0.341749
H110	H	-0.944215	-1.357610	0.314987
H111	H	-1.014010	-1.470952	0.213300
H112	H	-1.222207	-1.493534	0.193186
H113	H	-1.360618	-1.402772	0.274761
H114	H	-1.290823	-1.289430	0.376449
H115	H	-0.919070	-1.184045	0.254672
