data_functionalizedCrystal
_audit_creation_method	'MofGen! by Chris Wilmer'
_symmetry_space_group_name_H-M	'P1'
_symmetry_Int_Tables_number	1
_symmetry_cell_setting	triclinic
loop_
_symmetry_equiv_pos_as_xyz
  x,y,z
_cell_length_a	21.395362
_cell_length_b	21.395362
_cell_length_c	21.395355
_cell_angle_alpha	90.020549
_cell_angle_beta	90.043940
_cell_angle_gamma	90.045668
loop_
_atom_site_label
_atom_site_type_symbol
_atom_site_fract_x
_atom_site_fract_y
_atom_site_fract_z
Zn1	Zn	0.957863	-0.249246	0.354577
Zn2	Zn	0.957768	-0.354005	0.249796
Zn3	Zn	0.853078	-0.249275	0.249778
Zn4	Zn	0.853049	-0.354018	0.354500
O5	O	0.905440	-0.301636	0.302163
O6	O	1.045529	-0.263125	0.340717
O7	O	0.943852	-0.340119	0.162115
O8	O	0.867031	-0.161593	0.263704
O9	O	1.045458	-0.340091	0.263734
O10	O	0.944016	-0.161572	0.340700
O11	O	0.866938	-0.263174	0.162102
O12	O	0.765397	-0.263187	0.263630
O13	O	0.866981	-0.340113	0.442188
O14	O	0.765375	-0.340141	0.340569
O15	O	0.943988	-0.263137	0.442245
O16	O	0.943824	-0.441685	0.263660
O17	O	0.866888	-0.441695	0.340586
C18	C	0.742652	-0.301669	0.302090
C19	C	0.673011	-0.301698	0.302074
C20	C	0.640303	-0.341822	0.342076
C21	C	0.574867	-0.341806	0.342104
C22	C	0.542142	-0.301674	0.302118
C23	C	0.574858	-0.261543	0.262113
C24	C	0.640292	-0.261555	0.262091
C25	C	0.438418	-0.296627	0.245713
C26	C	0.372985	-0.296619	0.245735
C27	C	0.340322	-0.301633	0.302188
C28	C	0.373100	-0.306668	0.358621
C29	C	0.438534	-0.306681	0.358599
C30	C	0.471190	-0.301656	0.302138
C31	C	0.236661	-0.341742	0.342223
C32	C	0.171225	-0.341723	0.342252
C33	C	0.171217	-0.261462	0.262256
C34	C	0.236652	-0.261479	0.262233
C35	C	0.269371	-0.301622	0.302216
C36	C	0.905360	-0.464424	0.302130
C37	C	0.905383	-0.534065	0.302138
C38	C	0.945446	-0.566710	0.342258
C39	C	0.945468	-0.632145	0.342273
C40	C	0.905433	-0.664933	0.302157
C41	C	0.865362	-0.632280	0.262034
C42	C	0.865337	-0.566846	0.262025
C43	C	0.900556	-0.768635	0.245717
C44	C	0.900586	-0.834068	0.245725
C45	C	0.905508	-0.866754	0.302187
C46	C	0.910413	-0.833999	0.358643
C47	C	0.910388	-0.768565	0.358633
C48	C	0.905456	-0.735886	0.302163
C49	C	0.945597	-0.970351	0.342327
C50	C	0.945614	-1.035788	0.342344
C51	C	0.865512	-1.035922	0.262100
C52	C	0.865491	-0.970486	0.262089
C53	C	0.905537	-0.937705	0.302202
C54	C	1.068863	-0.301603	0.302236
C55	C	1.138504	-0.301589	0.302267
C56	C	0.905492	-0.301623	0.465586
C57	C	0.905514	-0.301618	0.535227
C58	C	0.905537	-0.138213	0.302209
C59	C	0.905579	-0.068571	0.302228
C60	C	0.905424	-0.301603	0.139375
C61	C	0.905523	-0.301432	0.069734
C62	C	0.945609	-0.261535	0.567971
C63	C	0.945609	-0.261508	0.633406
C64	C	0.905519	-0.301575	0.666096
C65	C	0.865415	-0.341661	0.633344
C66	C	0.865413	-0.341682	0.567910
C67	C	0.900544	-0.357992	0.769758
C68	C	0.900551	-0.357972	0.835191
C69	C	0.905523	-0.301509	0.867917
C70	C	0.910501	-0.245065	0.835202
C71	C	0.910499	-0.245086	0.769767
C72	C	0.905517	-0.301556	0.737048
C73	C	0.945619	-0.261393	0.971613
C74	C	0.945614	-0.261365	1.037049
C75	C	0.865424	-0.341524	1.036986
C76	C	0.865426	-0.341547	0.971551
C77	C	0.905527	-0.301482	0.938868
H78	H	0.263283	-0.228809	0.229656
F79	F	0.988286	-0.218892	0.533191
F80	F	0.988113	-0.666896	0.384973
F81	F	0.540029	-0.218829	0.219561
F82	F	0.338106	-0.291261	0.185674
F83	F	0.915605	-0.733707	0.418715
F84	F	0.473174	-0.291291	0.185624
H85	H	0.548232	-0.374479	0.374681
H86	H	0.832759	-0.374322	0.541251
F87	F	0.895370	-0.868922	0.185641
F88	F	0.915654	-0.868780	0.418738
H89	H	0.978258	-0.228864	0.660071
F90	F	0.988295	-0.218751	0.936827
H91	H	0.832780	-0.374190	0.944891
F92	F	0.675104	-0.218848	0.219514
H93	H	0.978052	-0.540021	0.374922
F94	F	0.822747	-0.384302	0.668136
F95	F	0.473416	-0.312037	0.418657
H96	H	0.978264	-0.228721	1.063708
H97	H	0.978239	-1.062367	0.375017
F98	F	0.675120	-0.384544	0.384631
F99	F	0.915795	-0.184969	0.870025
F100	F	0.915794	-0.185016	0.734952
F101	F	0.338343	-0.312003	0.418708
F102	F	0.136393	-0.218747	0.219704
H103	H	0.978203	-0.943660	0.374992
H104	H	0.832911	-1.062617	0.229440
F105	F	0.895258	-0.418044	0.870002
H106	H	0.263302	-0.374426	0.374783
H107	H	0.144595	-0.374395	0.374831
H108	H	0.832871	-0.943905	0.229417
F109	F	0.895381	-0.733854	0.185613
H110	H	0.832764	-0.658980	0.229373
H111	H	0.832712	-0.540266	0.229354
F112	F	0.822753	-0.384163	1.071772
H113	H	0.896327	-0.403959	0.743118
