data_functionalizedCrystal
_audit_creation_method	'MofGen! by Chris Wilmer'
_symmetry_space_group_name_H-M	'P1'
_symmetry_Int_Tables_number	1
_symmetry_cell_setting	triclinic
loop_
_symmetry_equiv_pos_as_xyz
  x,y,z
_cell_length_a	19.805407
_cell_length_b	12.645330
_cell_length_c	19.805407
_cell_angle_alpha	90.008886
_cell_angle_beta	90.007417
_cell_angle_gamma	90.017692
loop_
_atom_site_label
_atom_site_type_symbol
_atom_site_fract_x
_atom_site_fract_y
_atom_site_fract_z
Zn1	Zn	1.034695	-0.422198	0.382747
Zn2	Zn	1.034652	-0.599437	0.269570
Zn3	Zn	0.921534	-0.422188	0.269572
Zn4	Zn	0.921491	-0.599420	0.382717
O5	O	0.978093	-0.510811	0.326152
O6	O	1.129406	-0.445721	0.367746
O7	O	1.019646	-0.575927	0.174854
O8	O	0.936582	-0.273842	0.284598
O9	O	1.129374	-0.575937	0.284596
O10	O	1.019721	-0.273850	0.367747
O11	O	0.936539	-0.445703	0.174855
O12	O	0.826812	-0.445687	0.284569
O13	O	0.936508	-0.575909	0.477438
O14	O	0.826780	-0.575898	0.367696
O15	O	1.019679	-0.445705	0.477460
O16	O	1.019604	-0.747782	0.284567
O17	O	0.936465	-0.747770	0.367695
C18	C	0.802237	-0.510790	0.326130
C19	C	0.727005	-0.510807	0.326136
C20	C	0.691662	-0.578711	0.369351
C21	C	0.620974	-0.578712	0.369360
C22	C	0.585629	-0.510816	0.326152
C23	C	0.620977	-0.442905	0.282935
C24	C	0.691664	-0.442898	0.282930
C25	C	0.335904	-0.442928	0.282958
C26	C	0.265212	-0.442942	0.282965
C27	C	0.265213	-0.578742	0.369388
C28	C	0.335900	-0.578736	0.369383
C29	C	0.371242	-0.510822	0.326169
C30	C	0.447890	-0.510819	0.326160
C31	C	0.508982	-0.510823	0.326157
C32	C	0.978044	-0.786240	0.326142
C33	C	0.978084	-0.904070	0.326161
C34	C	0.925997	-1.071671	0.378618
C35	C	0.925731	-0.949111	0.378449
C36	C	0.958793	-0.948633	0.254828
C37	C	0.958475	-1.071232	0.255147
C38	C	1.049781	-1.071168	0.344457
C39	C	1.049341	-0.948562	0.346017
C40	C	1.154636	-0.510832	0.326174
C41	C	1.229868	-0.510841	0.326183
C42	C	0.978093	-0.510806	0.502694
C43	C	0.978094	-0.510804	0.577926
C44	C	0.978161	-0.234305	0.326176
C45	C	0.978190	-0.116475	0.326186
C46	C	0.934826	-0.443004	0.613270
C47	C	0.934824	-0.443010	0.683959
C48	C	0.978093	-0.510813	0.719302
C49	C	1.021362	-0.578621	0.683953
C50	C	1.021360	-0.578619	0.613266
C51	C	1.021369	-0.578633	0.969026
C52	C	1.021368	-0.578628	1.039718
C53	C	0.934832	-0.443025	1.039719
C54	C	0.934831	-0.443022	0.969032
C55	C	0.978097	-0.510833	0.933689
C56	C	0.978098	-0.510827	0.857041
C57	C	0.978096	-0.510815	0.795949
C58	C	0.978090	-0.510837	1.150296
C59	C	0.978097	-0.510832	1.075064
H60	H	0.937799	-0.918981	0.431342
Cl61	Cl	1.112542	-0.901210	0.291355
Cl62	Cl	0.380324	-0.357547	0.228634
Cl63	Cl	0.878835	-0.901371	0.230499
H64	H	0.899599	-0.387807	0.940259
Cl65	Cl	0.880436	-0.357779	1.084155
Cl66	Cl	0.220779	-0.664121	0.423715
H67	H	1.056605	-0.633845	1.068493
H68	H	0.236437	-0.387646	0.247779
H69	H	0.592194	-0.387617	0.247757
H70	H	0.720440	-0.387599	0.247744
H71	H	1.056591	-0.633860	0.940258
Cl72	Cl	0.944452	-1.117120	0.460551
Cl73	Cl	0.880397	-0.357821	0.728388
Cl74	Cl	1.075753	-0.663866	0.728384
H75	H	0.872656	-0.919871	0.366345
H76	H	0.873254	-1.102566	0.366668
Cl77	Cl	1.109819	-1.115919	0.285509
H78	H	0.906142	-1.099917	0.239669
H79	H	0.364674	-0.634028	0.404565
H80	H	0.994842	-1.100871	0.214749
Cl81	Cl	1.075753	-0.663862	0.568833
H82	H	0.720434	-0.634004	0.404534
H83	H	0.995604	-0.919457	0.214695
H84	H	0.592200	-0.634007	0.404549
H85	H	1.067382	-1.102034	0.395589
H86	H	1.063890	-0.919434	0.398514
H87	H	0.899596	-0.387785	0.584499
