data_functionalizedCrystal
_audit_creation_method	'MofGen! by Chris Wilmer'
_symmetry_space_group_name_H-M	'P1'
_symmetry_Int_Tables_number	1
_symmetry_cell_setting	triclinic
loop_
_symmetry_equiv_pos_as_xyz
  x,y,z
_cell_length_a	10.540539
_cell_length_b	10.489741
_cell_length_c	9.016244
_cell_angle_alpha	89.998079
_cell_angle_beta	89.994699
_cell_angle_gamma	84.532333
loop_
_atom_site_label
_atom_site_type_symbol
_atom_site_fract_x
_atom_site_fract_y
_atom_site_fract_z
O1	O	1.685915	0.179759	-0.123270
O2	O	1.316504	0.196697	-0.123288
O3	O	1.509615	0.002629	-0.123269
O4	O	1.492803	0.373827	-0.123288
O5	O	1.509586	0.002634	0.123411
O6	O	1.316475	0.196701	0.123393
O7	O	1.685886	0.179764	0.123411
Cu8	Cu	1.501178	0.188233	0.145926
Cu9	Cu	1.501212	0.188228	-0.145803
O10	O	1.492775	0.373831	0.123393
C11	C	1.269186	0.195429	0.000050
C12	C	1.128238	0.191629	0.000044
C13	C	0.944793	0.046011	0.000627
C14	C	1.091412	0.049864	0.000055
C15	C	1.066589	0.259849	-0.140821
C16	C	0.920044	0.255011	-0.140924
C17	C	0.919524	0.257900	0.139598
C18	C	1.066506	0.259206	0.141445
C19	C	1.508331	-0.044900	0.000070
C20	C	1.504532	-0.186529	0.000067
C21	C	1.381661	-0.254654	0.000050
C22	C	1.439690	-0.346782	0.121680
C23	C	1.439747	-0.346761	-0.121528
C24	C	1.562612	-0.276791	0.121797
C25	C	1.562652	-0.276760	-0.121520
C26	C	1.620770	-0.368860	0.000139
C27	C	1.733203	0.181032	0.000070
C28	C	1.874152	0.184832	0.000067
C29	C	1.494059	0.421361	0.000050
C30	C	1.497858	0.562990	0.000043
N31	N	1.501164	0.188236	0.351112
N32	N	1.501236	0.188215	-0.350989
C33	C	1.397545	0.291701	0.586135
C34	C	1.397774	0.292088	0.414244
C35	C	1.633890	0.218515	0.413455
C36	C	1.633325	0.219248	0.585400
C37	C	1.473374	0.054153	0.585661
C38	C	1.470329	0.055022	0.413706
H39	H	0.914591	-0.009759	-0.099827
C40	C	1.245189	-0.187568	0.000185
H41	H	1.232528	-0.136167	-0.086280
H42	H	1.233120	-0.135004	0.085774
H43	H	1.185720	-0.250160	0.001116
H44	H	1.387754	-0.377720	-0.224366
H45	H	1.088955	0.363958	-0.146067
C46	C	0.855749	0.396227	0.140880
H47	H	0.801726	0.409438	0.056846
H48	H	0.919452	0.454420	0.137776
H49	H	0.806700	0.410150	0.228797
H50	H	1.372688	0.032071	0.372961
C51	C	1.632757	-0.235155	0.260872
H52	H	1.634702	-0.144797	0.260060
H53	H	1.717443	-0.275280	0.261234
H54	H	1.589375	-0.259682	0.347131
H55	H	1.387689	-0.377785	0.224503
H56	H	1.109184	0.212455	-0.245651
H57	H	1.721885	-0.418297	0.000211
C58	C	0.876887	0.195929	0.283843
H59	H	0.831014	0.124904	0.260313
H60	H	0.823664	0.256994	0.338836
H61	H	0.949689	0.167627	0.341352
H62	H	1.614609	-0.245724	-0.224349
H63	H	1.133163	-0.004197	-0.101092
C64	C	1.264546	0.267501	0.357297
H65	H	1.209793	0.257191	0.439250
H66	H	1.270817	0.191984	0.298563
H67	H	1.230820	0.338186	0.298969
H68	H	1.415685	0.391551	0.373093
H69	H	1.298617	0.273762	0.627525
C70	C	1.421447	0.425317	0.644416
H71	H	1.358386	0.487273	0.605888
H72	H	1.503412	0.445393	0.613644
H73	H	1.417276	0.425722	0.749670
C74	C	0.881937	0.186883	-0.283154
H75	H	0.955987	0.162412	-0.340323
H76	H	0.824890	0.243345	-0.339473
H77	H	0.841445	0.112837	-0.257404
H78	H	1.657690	0.317055	0.625486
H79	H	1.712958	0.146910	0.626990
C80	C	1.667543	0.349153	0.355273
H81	H	1.600890	0.385410	0.293006
H82	H	1.744690	0.337839	0.300319
H83	H	1.677783	0.404819	0.436612
C84	C	1.345359	0.015248	0.644286
H85	H	1.307704	0.080411	0.707952
H86	H	1.359481	-0.062801	0.697841
H87	H	1.289900	0.004166	0.563219
C88	C	1.565598	-0.054012	0.355682
H89	H	1.625699	-0.019563	0.292246
H90	H	1.521006	-0.113633	0.302004
H91	H	1.608894	-0.096091	0.437014
H92	H	1.548976	-0.022872	0.626320
H93	H	1.134008	-0.003815	0.101034
C94	C	1.121805	0.191880	0.282229
H95	H	1.182268	0.122879	0.254964
H96	H	1.054964	0.159943	0.337556
H97	H	1.162333	0.251287	0.341011
C98	C	0.906143	-0.029657	0.137086
H99	H	0.949816	-0.113160	0.135349
H100	H	0.816825	-0.035805	0.135216
H101	H	0.927962	0.013307	0.224887
C102	C	0.855253	0.392734	-0.149607
H103	H	0.918528	0.451390	-0.153066
H104	H	0.803073	0.409870	-0.064670
H105	H	0.804204	0.401911	-0.236479
C106	C	1.099241	0.398832	0.152934
H107	H	1.151208	0.417830	0.071273
H108	H	1.143831	0.410036	0.242837
H109	H	1.022871	0.454779	0.151744
H110	H	1.712937	0.145199	0.372558
