data_functionalizedCrystal
_audit_creation_method	'MofGen! by Chris Wilmer'
_symmetry_space_group_name_H-M	'P1'
_symmetry_Int_Tables_number	1
_symmetry_cell_setting	triclinic
loop_
_symmetry_equiv_pos_as_xyz
  x,y,z
_cell_length_a	18.050589
_cell_length_b	19.077105
_cell_length_c	19.076919
_cell_angle_alpha	90.076224
_cell_angle_beta	87.724745
_cell_angle_gamma	92.275269
loop_
_atom_site_label
_atom_site_type_symbol
_atom_site_fract_x
_atom_site_fract_y
_atom_site_fract_z
Zn1	Zn	-0.359281	-1.058247	0.440438
Zn2	Zn	-0.478689	-1.062879	0.322938
Zn3	Zn	-0.349333	-0.945466	0.318231
Zn4	Zn	-0.478241	-0.940701	0.435691
O5	O	-0.416386	-1.001823	0.379325
O6	O	-0.379472	-1.157193	0.428809
O7	O	-0.457554	-1.051237	0.223983
O8	O	-0.246731	-0.960482	0.334459
O9	O	-0.467201	-1.160596	0.342482
O10	O	-0.254040	-1.043342	0.424244
O11	O	-0.362516	-0.964973	0.220524
O12	O	-0.362082	-0.846502	0.329856
O13	O	-0.466437	-0.952361	0.534652
O14	O	-0.456790	-0.843002	0.416153
O15	O	-0.379038	-1.038722	0.538140
O16	O	-0.582551	-1.046617	0.337879
O17	O	-0.582222	-0.956853	0.420717
C18	C	-0.408308	-0.819256	0.371979
C19	C	-0.404871	-0.741152	0.368853
C20	C	-0.609334	-1.001739	0.379310
C21	C	-0.691882	-1.001766	0.379329
C22	C	-0.423797	-0.994493	0.562605
C23	C	-0.426955	-0.991370	0.640709
C24	C	-0.891182	-0.952999	0.424363
C25	C	-0.937256	-0.938449	0.359556
C26	C	-0.843016	-1.001835	0.379341
C27	C	-0.944025	-1.016419	0.444157
C28	C	-0.989004	-1.001900	0.379358
C29	C	-0.887999	-0.987253	0.314499
C30	C	-0.894768	-1.065250	0.399145
C31	C	-0.940818	-1.050726	0.334295
C32	C	-0.758915	-1.001796	0.379332
C33	C	-1.073102	-1.001939	0.379360
C34	C	-0.222686	-1.001926	0.379356
C35	C	-0.140143	-1.001970	0.379369
C36	C	-0.424496	-1.185104	0.386700
C37	C	-0.427952	-1.263207	0.389843
C38	C	-0.452635	-0.702657	0.412244
C39	C	-0.449396	-0.629270	0.409310
C40	C	-0.398396	-0.594379	0.362981
C41	C	-0.350627	-0.632879	0.319588
C42	C	-0.353863	-0.706264	0.322526
C43	C	-0.383419	-0.375093	0.349388
C44	C	-0.380188	-0.301702	0.346452
C45	C	-0.478956	-0.298098	0.436175
C46	C	-0.482191	-0.371485	0.439105
C47	C	-0.434419	-0.409979	0.395715
N48	N	-0.395085	-0.519366	0.359980
N49	N	-0.437727	-0.484990	0.398721
C50	C	-0.408952	-1.009165	0.196759
C51	C	-0.405591	-1.012425	0.118661
C52	C	-0.382937	-1.034863	0.679219
C53	C	-0.385901	-1.031920	0.752605
C54	C	-0.432888	-0.985486	0.787479
C55	C	-0.476908	-0.941988	0.748964
C56	C	-0.473940	-0.944928	0.675579
C57	C	-0.446642	-0.971867	1.006761
C58	C	-0.449609	-0.968931	1.080151
C59	C	-0.358601	-1.058863	1.083787
C60	C	-0.355639	-1.061802	1.010401
C61	C	-0.399657	-1.018301	0.971892
N62	N	-0.435921	-0.982478	0.862492
N63	N	-0.396619	-1.021307	0.896881
H64	H	-0.869387	-0.911645	0.462377
O65	O	-0.531630	-0.405448	0.484155
C66	C	-0.493129	-0.446090	0.531319
H67	H	-0.436298	-0.458092	0.507064
H68	H	-0.526049	-0.497308	0.542758
H69	H	-0.485910	-0.415735	0.582271
H70	H	-0.309099	-0.604465	0.281869
O71	O	-0.966614	-1.099955	0.288733
C72	C	-0.937794	-1.084358	0.220512
H73	H	-0.921434	-1.026109	0.216781
H74	H	-0.981758	-1.097810	0.180833
H75	H	-0.886887	-1.116541	0.208756
H76	H	-0.968523	-1.028729	0.498964
O77	O	-0.872379	-1.129149	0.419265
C78	C	-0.901004	-1.144295	0.487648
H79	H	-0.913944	-1.093271	0.515920
H80	H	-0.858254	-1.173272	0.517702
H81	H	-0.953961	-1.178588	0.484619
H82	H	-0.314965	-0.737606	0.287196
O83	O	-0.337228	-1.079988	0.645454
C84	C	-0.299026	-1.117757	0.695185
H85	H	-0.297298	-1.086879	0.746336
H86	H	-0.239988	-1.126133	0.674296
H87	H	-0.328897	-1.170797	0.705137
H88	H	-0.494167	-0.731060	0.449968
H89	H	-0.488291	-0.597931	0.444643
O90	O	-0.525278	-0.260597	0.478299
C91	C	-0.511502	-0.188344	0.465762
H92	H	-0.452784	-0.179254	0.442439
H93	H	-0.517523	-0.158359	0.517273
H94	H	-0.553058	-0.168992	0.427439
O95	O	-0.330576	-0.267917	0.301429
C96	C	-0.289117	-0.317628	0.263749
H97	H	-0.290059	-0.368796	0.294628
H98	H	-0.229360	-0.296737	0.255502
H99	H	-0.314404	-0.327549	0.210648
O100	O	-0.858968	-0.972392	0.249083
C101	C	-0.881101	-0.905761	0.228232
H102	H	-0.933975	-0.892102	0.259067
H103	H	-0.891963	-0.906523	0.169769
H104	H	-0.835264	-0.864778	0.238996
H105	H	-0.344525	-0.406425	0.314051
O106	O	-0.343052	-1.074066	0.790035
C107	C	-0.295041	-1.032382	0.830884
H108	H	-0.287120	-0.977927	0.806539
H109	H	-0.239045	-1.057789	0.832740
H110	H	-0.320134	-1.027724	0.886404
O111	O	-0.309872	-1.106829	0.976568
C112	C	-0.235913	-1.090789	0.993926
H113	H	-0.230511	-1.033843	1.011828
H114	H	-0.197524	-1.098797	0.945928
H115	H	-0.219899	-1.126755	1.038057
O116	O	-0.315865	-1.101042	1.121301
C117	C	-0.328571	-1.088505	1.193551
H118	H	-0.350901	-1.033863	1.201385
H119	H	-0.274282	-1.092181	1.221641
H120	H	-0.370802	-1.129331	1.216050
H121	H	-0.487874	-0.931117	1.108544
O122	O	-0.489463	-0.929577	0.969467
C123	C	-0.531551	-0.887948	1.015987
H124	H	-0.537528	-0.914643	1.069452
H125	H	-0.588867	-0.881248	0.994466
H126	H	-0.502294	-0.834292	1.021660
O127	O	-0.522534	-0.896941	0.782950
C128	C	-0.515704	-0.903660	0.855979
H129	H	-0.494189	-0.957500	0.868193
H130	H	-0.572247	-0.897745	0.883667
H131	H	-0.475153	-0.861168	0.875132
O132	O	-0.516783	-0.902661	0.638276
C133	C	-0.558883	-0.861038	0.684791
H134	H	-0.564836	-0.887719	0.738265
H135	H	-0.616208	-0.854371	0.663279
H136	H	-0.529651	-0.807368	0.690444
H137	H	-0.956052	-0.884851	0.342820
