data_functionalizedCrystal
_audit_creation_method	'MofGen! by Chris Wilmer'
_symmetry_space_group_name_H-M	'P1'
_symmetry_Int_Tables_number	1
_symmetry_cell_setting	triclinic
loop_
_symmetry_equiv_pos_as_xyz
  x,y,z
_cell_length_a	11.792241
_cell_length_b	12.376457
_cell_length_c	13.339071
_cell_angle_alpha	104.390718
_cell_angle_beta	99.911348
_cell_angle_gamma	78.632725
loop_
_atom_site_label
_atom_site_type_symbol
_atom_site_fract_x
_atom_site_fract_y
_atom_site_fract_z
O1	O	1.565361	-0.093905	0.119612
O2	O	1.239434	-0.093933	0.133921
O3	O	1.364987	-0.093897	-0.020698
O4	O	1.439808	-0.093941	0.274230
O5	O	1.333598	0.094106	0.017904
O6	O	1.208044	0.094071	0.172522
O7	O	1.533972	0.094098	0.158213
Zn8	Zn	1.366024	0.123934	0.171497
Zn9	Zn	1.407381	-0.123768	0.120637
O10	O	1.408418	0.094062	0.312832
C11	C	1.181172	0.000066	0.152322
C12	C	1.054331	0.000056	0.149628
N13	N	1.337807	0.292984	0.206206
N14	N	1.435605	-0.292819	0.085920
C15	C	0.822089	0.000089	0.144686
C16	C	0.951324	0.000071	0.147432
C17	C	1.592234	0.000097	0.139812
C18	C	1.719077	0.000100	0.142504
C19	C	1.336655	0.000108	-0.039155
C20	C	1.298984	0.000117	-0.151662
C21	C	1.501099	0.648016	0.005327
C22	C	1.520842	0.529682	-0.018966
C23	C	1.475085	0.470501	0.037325
C24	C	1.409582	0.529667	0.117914
C25	C	1.389845	0.648013	0.142215
C26	C	1.363830	0.470498	0.174212
C27	C	1.298328	0.529664	0.254801
C28	C	1.278593	0.647998	0.279098
C29	C	1.324350	0.707178	0.222807
C30	C	1.383567	0.352153	0.149911
C31	C	1.272313	0.352150	0.286799
C32	C	1.252570	0.470484	0.311092
C33	C	1.181521	0.000087	-0.193010
C34	C	1.146130	0.000060	-0.298722
C35	C	1.228200	0.000054	-0.363099
C36	C	1.345667	0.000076	-0.321752
C37	C	1.381060	0.000112	-0.216027
C38	C	1.427740	0.000079	-0.386116
C39	C	1.545207	0.000102	-0.344769
C40	C	1.580594	0.000137	-0.239055
C41	C	1.498524	0.000142	-0.174679
C42	C	1.392347	0.000044	-0.491841
C43	C	1.591886	0.000069	-0.514858
C44	C	1.627277	0.000096	-0.409146
C45	C	1.436751	0.000055	0.331289
C46	C	1.474423	0.000039	0.443794
H47	H	1.436900	0.303991	0.084296
F48	F	1.705613	0.000162	-0.195054
F49	F	1.182859	0.533465	0.396860
F50	F	1.679238	0.000067	-0.583366
F51	F	1.536187	0.000161	-0.062167
H52	H	1.722922	0.000106	-0.375468
H53	H	1.235056	0.303966	0.332638
F54	F	1.303333	0.833125	0.248659
H55	H	1.296704	0.000031	-0.525493
F56	F	1.190531	0.000023	-0.475608
H57	H	1.491162	0.374148	0.017541
H58	H	1.050490	0.000036	-0.332380
H59	H	1.538356	0.696208	-0.040492
F60	F	1.590552	0.466717	-0.104729
H61	H	1.114711	0.000099	-0.140585
H62	H	1.225268	0.696171	0.344726
