data_functionalizedCrystal
_audit_creation_method	'MofGen! by Chris Wilmer'
_symmetry_space_group_name_H-M	'P1'
_symmetry_Int_Tables_number	1
_symmetry_cell_setting	triclinic
loop_
_symmetry_equiv_pos_as_xyz
  x,y,z
_cell_length_a	12.645331
_cell_length_b	18.101395
_cell_length_c	12.645323
_cell_angle_alpha	89.971733
_cell_angle_beta	89.984262
_cell_angle_gamma	90.030339
loop_
_atom_site_label
_atom_site_type_symbol
_atom_site_fract_x
_atom_site_fract_y
_atom_site_fract_z
Zn1	Zn	1.620632	-0.294839	-0.599225
Zn2	Zn	1.620473	-0.418689	-0.421955
Zn3	Zn	1.443347	-0.294865	-0.421991
Zn4	Zn	1.443287	-0.418641	-0.599191
O5	O	1.531935	-0.356759	-0.510590
O6	O	1.768958	-0.311277	-0.575709
O7	O	1.596935	-0.402294	-0.273612
O8	O	1.466956	-0.191228	-0.445531
O9	O	1.768841	-0.402270	-0.445469
O10	O	1.597207	-0.191209	-0.575744
O11	O	1.466801	-0.311321	-0.273639
O12	O	1.294992	-0.311274	-0.445498
O13	O	1.466854	-0.402188	-0.747543
O14	O	1.294948	-0.402213	-0.575686
O15	O	1.597149	-0.311231	-0.747568
O16	O	1.596877	-0.522316	-0.445436
O17	O	1.466699	-0.522281	-0.575651
C18	C	1.256505	-0.356742	-0.510593
C19	C	1.138675	-0.356752	-0.510619
C20	C	0.971119	-0.414276	-0.592094
C21	C	1.093679	-0.414090	-0.592435
C22	C	1.094223	-0.278752	-0.541147
C23	C	0.971625	-0.279103	-0.541721
C24	C	0.971423	-0.376601	-0.398358
C25	C	1.094028	-0.378307	-0.398964
C26	C	1.531793	-0.549169	-0.510559
C27	C	1.531829	-0.631483	-0.510581
C28	C	1.532062	-0.930574	-0.510638
C29	C	1.450348	-0.899258	-0.592770
C30	C	1.449959	-0.813640	-0.592513
C31	C	1.531946	-0.782192	-0.510611
C32	C	1.501694	-0.813344	-0.398889
C33	C	1.501167	-0.898989	-0.399381
C34	C	1.644207	-0.898919	-0.539246
C35	C	1.643548	-0.813267	-0.541696
C36	C	1.531883	-0.698332	-0.510589
C37	C	1.532123	-1.014434	-0.510653
C38	C	1.808440	-0.356776	-0.510588
C39	C	1.926270	-0.356783	-0.510587
C40	C	1.532013	-0.356701	-0.787096
C41	C	1.532046	-0.356677	-0.904926
C42	C	1.532106	-0.163597	-0.510645
C43	C	1.532179	-0.081283	-0.510668
C44	C	1.449825	-0.413628	-1.072475
C45	C	1.450040	-0.413910	-0.949915
C46	C	1.643739	-0.377858	-0.949431
C47	C	1.643288	-0.378215	-1.072029
C48	C	1.503631	-0.278226	-1.072134
C49	C	1.501139	-0.278696	-0.949528
C50	C	1.531918	-0.356762	-0.235161
C51	C	1.532090	-0.356578	-0.117331
H52	H	1.124658	-0.339470	-0.334977
C53	C	0.930185	-0.397140	-0.702414
C54	C	0.970814	-0.448807	-0.774053
C55	C	0.933130	-0.433042	-0.875688
H56	H	0.952103	-0.348945	-0.722558
H57	H	0.855135	-0.399608	-0.702621
H58	H	1.045847	-0.446332	-0.773849
H59	H	0.948899	-0.497007	-0.753944
H60	H	0.858080	-0.435510	-0.875895
H61	H	0.955051	-0.384845	-0.895821
H62	H	0.960683	-0.468098	-0.924305
H63	H	1.468888	-0.792575	-0.675354
C64	C	1.728949	-0.784817	-0.467581
C65	C	1.705871	-0.806900	-0.363981
C66	C	1.784522	-0.780713	-0.295670
H67	H	1.731421	-0.732420	-0.470948
H68	H	1.795488	-0.804485	-0.488145
H69	H	1.639351	-0.787229	-0.343423
H70	H	1.703409	-0.859293	-0.360581
H71	H	1.851060	-0.800381	-0.316233
H72	H	1.786987	-0.728317	-0.299046
H73	H	1.768879	-0.795698	-0.225371
H74	H	1.563549	-0.235721	-1.101144
H75	H	1.423604	-0.258919	-1.103049
C76	C	1.725535	-0.925959	-0.459665
C77	C	1.803806	-0.966455	-0.512268
C78	C	1.878741	-0.991372	-0.438993
H79	H	1.691900	-0.956562	-0.408703
H80	H	1.756922	-0.884781	-0.425248
H81	H	1.772422	-1.007627	-0.546667
H82	H	1.837468	-0.935867	-0.563224
H83	H	1.910128	-0.950194	-0.404577
H84	H	1.845097	-1.021972	-0.388036
H85	H	1.931862	-1.018845	-0.474675
H86	H	1.366755	-0.400501	-1.101959
H87	H	1.123092	-0.435704	-0.375939
H88	H	1.123032	-0.400974	-0.675592
H89	H	1.419189	-0.919032	-0.375146
H90	H	1.123370	-0.234752	-0.483637
C91	C	1.135398	-0.255968	-0.649300
C92	C	1.246014	-0.253005	-0.646886
C93	C	1.283980	-0.232032	-0.746502
H94	H	1.108174	-0.208686	-0.667178
H95	H	1.113352	-0.291046	-0.700637
H96	H	1.268050	-0.217929	-0.595567
H97	H	1.273266	-0.300279	-0.629027
H98	H	1.261934	-0.267109	-0.797838
H99	H	1.256749	-0.184751	-0.764371
H100	H	1.359036	-0.230025	-0.744880
H101	H	1.667413	-0.435492	-1.100632
H102	H	1.668278	-0.434535	-0.918734
C103	C	1.475071	-0.491311	-0.910598
C104	C	1.475301	-0.491769	-0.799877
C105	C	1.498346	-0.563062	-0.763623
H106	H	1.542638	-0.505894	-0.935905
H107	H	1.422961	-0.524780	-0.935792
H108	H	1.527408	-0.458312	-0.774694
H109	H	1.407743	-0.477200	-0.774542
H110	H	1.446236	-0.596530	-0.788817
H111	H	1.565912	-0.577639	-0.788937
H112	H	1.498495	-0.563384	-0.688496
C113	C	1.391458	-0.257419	-0.910946
C114	C	1.324732	-0.246801	-0.997970
C115	C	1.223683	-0.227213	-0.962462
H116	H	1.395642	-0.212996	-0.871207
H117	H	1.363984	-0.295769	-0.867579
H118	H	1.352200	-0.208453	-1.041320
H119	H	1.320517	-0.291214	-1.037718
H120	H	1.196209	-0.265563	-0.919094
H121	H	1.227878	-0.182792	-0.922722
H122	H	1.178395	-0.220013	-1.021500
H123	H	1.367216	-0.400656	-0.919824
H124	H	1.556682	-0.233943	-0.918904
H125	H	0.940482	-0.432509	-0.370612
C126	C	1.133552	-0.491273	-0.566965
C127	C	1.047255	-0.538495	-0.551121
C128	C	1.083939	-0.609607	-0.527673
H129	H	1.175394	-0.489755	-0.504629
H130	H	1.175122	-0.509004	-0.624159
H131	H	1.005703	-0.520769	-0.493931
H132	H	1.005405	-0.540036	-0.613444
H133	H	1.125509	-0.627338	-0.584868
H134	H	1.125782	-0.608081	-0.465339
H135	H	1.025394	-0.641657	-0.516930
H136	H	1.671788	-0.920466	-0.619324
H137	H	1.706658	-0.338466	-1.101703
H138	H	0.942420	-0.334724	-0.337629
H139	H	1.469088	-0.919805	-0.675879
H140	H	0.941608	-0.472309	-0.573172
H141	H	1.706675	-0.337619	-0.920291
C142	C	1.340265	-0.928180	-0.567798
C143	C	1.340409	-1.005442	-0.572990
C144	C	1.239025	-1.032114	-0.549974
H145	H	1.291283	-0.909080	-0.617743
H146	H	1.320383	-0.912972	-0.498702
H147	H	1.360277	-1.020644	-0.642076
H148	H	1.389369	-1.024563	-0.523046
H149	H	1.219143	-1.016905	-0.480878
H150	H	1.190052	-1.013008	-0.599922
H151	H	1.239111	-1.084538	-0.553484
C152	C	1.339097	-0.786359	-0.567457
C153	C	1.301820	-0.743444	-0.651701
C154	C	1.199687	-0.718311	-0.628658
H155	H	1.340696	-0.757311	-0.504938
H156	H	1.293494	-0.827475	-0.557216
H157	H	1.347410	-0.702335	-0.661929
H158	H	1.300195	-0.772477	-0.714229
H159	H	1.154085	-0.759427	-0.618418
H160	H	1.201297	-0.689266	-0.566138
H161	H	1.174378	-0.689197	-0.685818
H162	H	0.941959	-0.234732	-0.485078
C163	C	0.933460	-0.256556	-0.651038
C164	C	0.871881	-0.192544	-0.642982
C165	C	0.836723	-0.171748	-0.743666
H166	H	0.892173	-0.295252	-0.680529
H167	H	0.992678	-0.247160	-0.695308
H168	H	0.812672	-0.201943	-0.598728
H169	H	0.913146	-0.153833	-0.613508
H170	H	0.895942	-0.162352	-0.787937
H171	H	0.795440	-0.210449	-0.773150
H172	H	0.794947	-0.128310	-0.738215
C173	C	1.576924	-0.926595	-0.314849
C174	C	1.544294	-0.900591	-0.215824
C175	C	1.614041	-0.926018	-0.137931
H176	H	1.646182	-0.909005	-0.329505
H177	H	1.577098	-0.979080	-0.314516
H178	H	1.544132	-0.848117	-0.216160
H179	H	1.475047	-0.918178	-0.201135
H180	H	1.614215	-0.978503	-0.137598
H181	H	1.683295	-0.908426	-0.152597
H182	H	1.591906	-0.908383	-0.070733
C183	C	1.393478	-0.784988	-0.365929
C184	C	1.325181	-0.844891	-0.350112
C185	C	1.225486	-0.818801	-0.319742
H186	H	1.365879	-0.753970	-0.419872
H187	H	1.399776	-0.757680	-0.302097
H188	H	1.318880	-0.872187	-0.413936
H189	H	1.352746	-0.875914	-0.296164
H190	H	1.231785	-0.791493	-0.255910
H191	H	1.197898	-0.787783	-0.373689
H192	H	1.179138	-0.859441	-0.308997
H193	H	1.559338	-0.792975	-0.336027
C194	C	1.673893	-0.786273	-0.651430
C195	C	1.689008	-0.847049	-0.718182
C196	C	1.716923	-0.822214	-0.819290
H197	H	1.737489	-0.758468	-0.647380
H198	H	1.618963	-0.756013	-0.678796
H199	H	1.743933	-0.877297	-0.690823
H200	H	1.625424	-0.874860	-0.722264
H201	H	1.661993	-0.791953	-0.846655
H202	H	1.780517	-0.794409	-0.815228
H203	H	1.727172	-0.863446	-0.864595
H204	H	1.468427	-0.471351	-1.103286
