data_functionalizedCrystal
_audit_creation_method	'MofGen! by Chris Wilmer'
_symmetry_space_group_name_H-M	'P1'
_symmetry_Int_Tables_number	1
_symmetry_cell_setting	triclinic
loop_
_symmetry_equiv_pos_as_xyz
  x,y,z
_cell_length_a	25.639239
_cell_length_b	19.077105
_cell_length_c	25.639214
_cell_angle_alpha	92.374991
_cell_angle_beta	89.879120
_cell_angle_gamma	92.265071
loop_
_atom_site_label
_atom_site_type_symbol
_atom_site_fract_x
_atom_site_fract_y
_atom_site_fract_z
Zn1	Zn	-0.239811	-1.076326	-0.327704
Zn2	Zn	0.093522	-0.742993	0.005630
Zn3	Zn	0.426856	-0.409660	0.338963
Zn4	Zn	-0.327379	-1.076098	-0.240261
Zn5	Zn	0.005954	-0.742765	0.093072
Zn6	Zn	0.339288	-0.409431	0.426406
Zn7	Zn	-0.236450	-0.958513	-0.236769
Zn8	Zn	0.096883	-0.625179	0.096564
Zn9	Zn	0.430217	-0.291846	0.429898
Zn10	Zn	-0.323703	-0.958564	-0.324161
Zn11	Zn	0.009631	-0.625231	0.009172
Zn12	Zn	0.342964	-0.291897	0.342505
O13	O	-0.281836	-1.017375	-0.282224
O14	O	0.051498	-0.684042	0.051110
O15	O	0.384831	-0.350709	0.384443
O16	O	-0.254372	-1.174790	-0.319048
O17	O	0.078961	-0.841456	0.014285
O18	O	0.412294	-0.508123	0.347618
O19	O	-0.315449	-1.060383	-0.166629
O20	O	0.017884	-0.727050	0.166705
O21	O	0.351218	-0.393716	0.500038
O22	O	-0.163733	-0.974215	-0.248853
O23	O	0.169601	-0.640882	0.084480
O24	O	0.502934	-0.307548	0.417814
O25	O	-0.318708	-1.174622	-0.254804
O26	O	0.014625	-0.841289	0.078529
O27	O	0.347959	-0.507955	0.411862
O28	O	-0.166202	-1.060772	-0.315662
O29	O	0.167131	-0.727439	0.017671
O30	O	0.500464	-0.394105	0.351004
O31	O	-0.248644	-0.973994	-0.164063
O32	O	0.084690	-0.640660	0.169270
O33	O	0.418023	-0.307327	0.502603
O34	O	-0.245079	-0.860026	-0.245418
O35	O	0.088254	-0.526693	0.087915
O36	O	0.421588	-0.193359	0.421249
O37	O	-0.312442	-0.974302	-0.397800
O38	O	0.020891	-0.640969	-0.064467
O39	O	0.354224	-0.307636	0.268867
O40	O	-0.309183	-0.860063	-0.309625
O41	O	0.024150	-0.526730	0.023709
O42	O	0.357483	-0.193397	0.357042
O43	O	-0.250808	-1.060822	-0.400403
O44	O	0.082526	-0.727488	-0.067069
O45	O	0.415859	-0.394155	0.266264
O46	O	-0.400054	-1.060433	-0.251369
O47	O	-0.066721	-0.727099	0.081964
O48	O	0.266612	-0.393766	0.415297
O49	O	-0.397353	-0.974081	-0.313010
O50	O	-0.064020	-0.640748	0.020323
O51	O	0.269313	-0.307414	0.353656
C52	C	-0.417675	-1.017257	-0.282196
C53	C	-0.084341	-0.683924	0.051137
C54	C	0.248992	-0.350590	0.384470
C55	C	-0.475789	-1.017271	-0.282204
C56	C	-0.142456	-0.683937	0.051129
C57	C	0.190877	-0.350604	0.384463
C58	C	-0.276368	-0.834506	-0.276758
C59	C	0.056965	-0.501173	0.056575
C60	C	0.390299	-0.167840	0.389908
C61	C	-0.274041	-0.756274	-0.274432
C62	C	0.059292	-0.422941	0.058901
C63	C	0.392625	-0.089608	0.392234
C64	C	-0.281590	-1.017593	-0.418604
C65	C	0.051743	-0.684260	-0.085270
C66	C	0.385077	-0.350927	0.248063
C67	C	-0.281485	-1.017686	-0.476721
C68	C	0.051848	-0.684353	-0.143388
C69	C	0.385182	-0.351019	0.189946
C70	C	-0.837553	-1.062456	-0.250188
C71	C	-0.504219	-0.729123	0.083146
C72	C	-0.170886	-0.395789	0.416479
C73	C	-0.892158	-1.062483	-0.250196
C74	C	-0.558824	-0.729150	0.083138
C75	C	-0.225491	-0.395817	0.416471
O76	O	-0.921581	-1.100779	-0.222944
O77	O	-0.588248	-0.767446	0.110389
O78	O	-0.254915	-0.434112	0.443722
N79	N	-0.918078	-1.017499	-0.282262
N80	N	-0.584745	-0.684166	0.051071
N81	N	-0.251412	-0.350832	0.384405
C82	C	-0.889391	-0.972489	-0.314327
C83	C	-0.556058	-0.639156	0.019006
C84	C	-0.222724	-0.305823	0.352340
O85	O	-0.916453	-0.934230	-0.341603
O86	O	-0.583119	-0.600896	-0.008270
O87	O	-0.249786	-0.267563	0.325064
C88	C	-0.834787	-0.972466	-0.314321
C89	C	-0.501454	-0.639133	0.019012
C90	C	-0.168121	-0.305800	0.352345
C91	C	-0.808869	-1.017449	-0.282249
C92	C	-0.475536	-0.684115	0.051084
C93	C	-0.142203	-0.350782	0.384418
C94	C	-0.811635	-1.107435	-0.218118
C95	C	-0.478301	-0.774102	0.115215
C96	C	-0.144968	-0.440769	0.448548
C97	C	-0.757033	-1.107407	-0.218110
C98	C	-0.423700	-0.774074	0.115224
C99	C	-0.090366	-0.440740	0.448557
C100	C	-0.728350	-1.062399	-0.250171
C101	C	-0.395017	-0.729066	0.083162
C102	C	-0.061683	-0.395733	0.416496
C103	C	-0.754268	-1.017420	-0.282240
C104	C	-0.420935	-0.684087	0.051093
C105	C	-0.087601	-0.350753	0.384426
C106	C	-0.806101	-0.927461	-0.346389
C107	C	-0.472768	-0.594127	-0.013055
C108	C	-0.139434	-0.260794	0.320278
C109	C	-0.751493	-0.927442	-0.346381
C110	C	-0.418160	-0.594108	-0.013047
C111	C	-0.084827	-0.260775	0.320286
C112	C	-0.725576	-0.972424	-0.314308
C113	C	-0.392242	-0.639091	0.019025
C114	C	-0.058909	-0.305757	0.352359
C115	C	-0.670983	-0.972384	-0.314293
C116	C	-0.337650	-0.639051	0.019040
C117	C	-0.004317	-0.305717	0.352373
N118	N	-0.645063	-1.017369	-0.282227
N119	N	-0.311729	-0.684035	0.051107
N120	N	0.021604	-0.350702	0.384440
C121	C	-0.673746	-1.062376	-0.250165
C122	C	-0.340413	-0.729043	0.083168
C123	C	-0.007079	-0.395709	0.416501
C124	C	-1.004063	-0.972542	-0.314337
C125	C	-0.670730	-0.639209	0.018997
C126	C	-0.337397	-0.305876	0.352330
C127	C	-1.058666	-0.972562	-0.314340
C128	C	-0.725333	-0.639228	0.018994
C129	C	-0.392000	-0.305895	0.352327
C130	C	-1.061429	-1.062557	-0.250209
C131	C	-0.728096	-0.729223	0.083125
C132	C	-0.394762	-0.395890	0.416458
C133	C	-1.006825	-1.062533	-0.250203
C134	C	-0.673492	-0.729200	0.083130
C135	C	-0.340158	-0.395867	0.416463
C136	C	-0.978143	-1.017527	-0.282270
C137	C	-0.644809	-0.684194	0.051063
C138	C	-0.311476	-0.350860	0.384397
C139	C	-0.559079	-1.062313	-0.250150
C140	C	-0.225746	-0.728979	0.083183
C141	C	0.107588	-0.395646	0.416517
C142	C	-0.504473	-1.062278	-0.250143
C143	C	-0.171139	-0.728945	0.083191
C144	C	0.162194	-0.395612	0.416524
C145	C	-0.501715	-0.972286	-0.314275
C146	C	-0.168381	-0.638953	0.019058
C147	C	0.164952	-0.305619	0.352391
C148	C	-0.556316	-0.972318	-0.314281
C149	C	-0.222983	-0.638984	0.019053
C150	C	0.110351	-0.305651	0.352386
C151	C	-0.584997	-1.017337	-0.282216
C152	C	-0.251664	-0.684003	0.051117
C153	C	0.081670	-0.350670	0.384450
O154	O	-0.641525	-0.934110	-0.341532
O155	O	-0.308192	-0.600777	-0.008199
O156	O	0.025141	-0.267444	0.325135
O157	O	-0.646678	-1.100636	-0.222899
O158	O	-0.313344	-0.767303	0.110434
O159	O	0.019989	-0.433969	0.443768
C160	C	-0.145467	-1.017513	-0.282263
C161	C	0.187867	-0.684180	0.051070
C162	C	0.521200	-0.350847	0.384403
C163	C	-0.087354	-1.017572	-0.282280
C164	C	0.245979	-0.684239	0.051053
C165	C	0.579312	-0.350905	0.384386
C166	C	-0.287325	-1.200958	-0.287711
C167	C	0.046008	-0.867625	0.045622
C168	C	0.379341	-0.534292	0.378956
C169	C	-0.289665	-1.279190	-0.290049
C170	C	0.043669	-0.945857	0.043284
C171	C	0.377002	-0.612524	0.376617
C172	C	-0.306374	-0.719559	-0.306716
C173	C	0.026959	-0.386225	0.026617
C174	C	0.360292	-0.052892	0.359951
C175	C	-0.304181	-0.646051	-0.304533
C176	C	0.029152	-0.312718	0.028800
C177	C	0.362485	0.020616	0.362133
C178	C	-0.269658	-0.609261	-0.270064
C179	C	0.063676	-0.275927	0.063269
C180	C	0.397009	0.057406	0.396603
C181	C	-0.237321	-0.645982	-0.237779
C182	C	0.096012	-0.312648	0.095554
C183	C	0.429346	0.020685	0.428888
C184	C	-0.239512	-0.719488	-0.239965
C185	C	0.093822	-0.386154	0.093369
C186	C	0.427155	-0.052821	0.426702
C187	C	-0.259519	-0.389417	-0.259950
C188	C	0.073815	-0.056084	0.073383
C189	C	0.407148	0.277249	0.406717
C190	C	-0.257332	-0.315906	-0.257766
C191	C	0.076002	0.017427	0.075568
C192	C	0.409335	0.350761	0.408901
C193	C	-0.324192	-0.315981	-0.324521
C194	C	0.009142	0.017353	0.008812
C195	C	0.342475	0.350686	0.342146
C196	C	-0.326381	-0.389488	-0.326702
C197	C	0.006952	-0.056155	0.006632
C198	C	0.340285	0.277179	0.339965
C199	C	-0.294043	-0.426202	-0.294419
C200	C	0.039290	-0.092869	0.038915
C201	C	0.372624	0.240464	0.372248
N202	N	-0.267416	-0.534124	-0.267831
N203	N	0.065917	-0.200791	0.065503
N204	N	0.399250	0.132542	0.398836
N205	N	-0.296282	-0.501337	-0.296655
N206	N	0.037051	-0.168004	0.036679
N207	N	0.370385	0.165329	0.370012
C208	C	-0.282044	-1.017199	-0.146375
C209	C	0.051289	-0.683865	0.186958
C210	C	0.384623	-0.350532	0.520291
C211	C	-0.282006	-1.017242	-0.088263
C212	C	0.051328	-0.683909	0.245070
C213	C	0.384661	-0.350576	0.578404
C214	C	-0.247142	-0.972204	0.273417
C215	C	0.086191	-0.638871	0.606751
C216	C	0.419525	-0.305537	0.940084
C217	C	-0.247095	-0.972245	0.328020
C218	C	0.086238	-0.638912	0.661354
C219	C	0.419572	-0.305578	0.994687
O220	O	-0.217679	-0.933756	0.357383
O221	O	0.115654	-0.600422	0.690716
O222	O	0.448988	-0.267089	1.024050
N223	N	-0.281622	-1.017567	0.354009
N224	N	0.051712	-0.684233	0.687342
N225	N	0.385045	-0.350900	1.020676
C226	C	-0.316193	-1.062856	0.325392
C227	C	0.017140	-0.729522	0.658725
C228	C	0.350473	-0.396189	0.992059
O229	O	-0.345556	-1.101410	0.352511
O230	O	-0.012223	-0.768076	0.685845
O231	O	0.321110	-0.434743	1.019178
C232	C	-0.316237	-1.062818	0.270790
C233	C	0.017096	-0.729484	0.604123
C234	C	0.350430	-0.396151	0.937456
C235	C	-0.281712	-1.017488	0.244804
C236	C	0.051621	-0.684154	0.578137
C237	C	0.384955	-0.350821	0.911471
C238	C	-0.212619	-0.926878	0.247431
C239	C	0.120714	-0.593545	0.580765
C240	C	0.454047	-0.260212	0.914098
C241	C	-0.212667	-0.926837	0.192832
C242	C	0.120667	-0.593503	0.526165
C243	C	0.454000	-0.260170	0.859499
C244	C	-0.247237	-0.972121	0.164219
C245	C	0.086096	-0.638787	0.497552
C246	C	0.419430	-0.305454	0.830886
C247	C	-0.281760	-1.017446	0.190205
C248	C	0.051574	-0.684113	0.523538
C249	C	0.384907	-0.350779	0.856871
C250	C	-0.350806	-1.108110	0.242174
C251	C	-0.017473	-0.774776	0.575507
C252	C	0.315861	-0.441443	0.908840
C253	C	-0.350847	-1.108068	0.187568
C254	C	-0.017513	-0.774735	0.520901
C255	C	0.315820	-0.441401	0.854234
C256	C	-0.316321	-1.062738	0.161582
C257	C	0.017012	-0.729405	0.494915
C258	C	0.350345	-0.396072	0.828249
C259	C	-0.316377	-1.062688	0.106992
C260	C	0.016956	-0.729355	0.440326
C261	C	0.350289	-0.396022	0.773659
N262	N	-0.281851	-1.017366	0.081004
N263	N	0.051482	-0.684033	0.414337
N264	N	0.384816	-0.350700	0.747670
C265	C	-0.247281	-0.972083	0.109617
C266	C	0.086053	-0.638749	0.442950
C267	C	0.419386	-0.305416	0.776283
C268	C	-0.316098	-1.062933	0.440060
C269	C	0.017235	-0.729599	0.773393
C270	C	0.350568	-0.396266	1.106727
C271	C	-0.316057	-1.062968	0.494661
C272	C	0.017276	-0.729634	0.827995
C273	C	0.350609	-0.396301	1.161328
C274	C	-0.246958	-0.972358	0.497286
C275	C	0.086375	-0.639024	0.830619
C276	C	0.419708	-0.305691	1.163952
C277	C	-0.247002	-0.972320	0.442684
C278	C	0.086331	-0.638986	0.776017
C279	C	0.419665	-0.305653	1.109350
C280	C	-0.281572	-1.017611	0.414071
C281	C	0.051762	-0.684278	0.747404
C282	C	0.385095	-0.350944	1.080738
C283	C	-0.247383	-0.971998	-0.005046
C284	C	0.085950	-0.638665	0.328288
C285	C	0.419283	-0.305331	0.661621
C286	C	-0.247435	-0.971958	-0.059650
C287	C	0.085898	-0.638625	0.273684
C288	C	0.419231	-0.305292	0.607017
C289	C	-0.316532	-1.062571	-0.062269
C290	C	0.016801	-0.729237	0.271064
C291	C	0.350134	-0.395904	0.604397
C292	C	-0.316482	-1.062608	-0.007670
C293	C	0.016851	-0.729275	0.325663
C294	C	0.350184	-0.395941	0.658997
C295	C	-0.281904	-1.017319	0.020941
C296	C	0.051430	-0.683986	0.354274
C297	C	0.384763	-0.350653	0.687607
O298	O	-0.345777	-1.101160	0.077595
O299	O	-0.012444	-0.767827	0.410929
O300	O	0.320890	-0.434493	0.744262
O301	O	-0.217918	-0.933542	0.082490
O302	O	0.115415	-0.600208	0.415824
O303	O	0.448749	-0.266875	0.749157
H304	H	-0.483372	-1.098908	-0.224024
H305	H	-0.150039	-0.765575	0.109310
H306	H	0.183295	-0.432241	0.442643
Br307	Br	-0.200583	-0.910426	-0.094913
Br308	Br	0.132750	-0.577093	0.238421
Br309	Br	0.466084	-0.243760	0.571754
H310	H	-0.344176	-1.099874	0.515814
H311	H	-0.010842	-0.766540	0.849148
H312	H	0.322491	-0.433207	1.182481
Br313	Br	-0.368079	-0.266150	-0.368329
Br314	Br	-0.034746	0.067183	-0.034996
Br315	Br	0.298588	0.400516	0.298337
Br316	Br	-0.200143	-0.910801	0.407423
Br317	Br	0.133190	-0.577468	0.740756
Br318	Br	0.466523	-0.244135	1.074090
H319	H	-0.218808	-0.935487	0.520593
H320	H	0.114525	-0.602154	0.853926
H321	H	0.447859	-0.268820	1.187259
Br322	Br	-0.190462	-0.596053	-0.191003
Br323	Br	0.142872	-0.262719	0.142330
Br324	Br	0.476205	0.070614	0.475664
Br325	Br	-0.591491	-0.911253	-0.357795
Br326	Br	-0.258158	-0.577920	-0.024461
Br327	Br	0.075175	-0.244586	0.308872
H328	H	-0.344253	-1.099813	0.416767
H329	H	-0.010920	-0.766479	0.750100
H330	H	0.322413	-0.433146	1.083434
Br331	Br	-1.100367	-1.123636	-0.206694
Br332	Br	-0.767033	-0.790303	0.126639
Br333	Br	-0.433700	-0.456969	0.459972
H334	H	-0.213180	-0.749381	-0.213679
H335	H	0.120154	-0.416047	0.119655
H336	H	0.453487	-0.082714	0.452988
H337	H	-0.184552	-0.889925	0.171679
H338	H	0.148781	-0.556592	0.505013
H339	H	0.482115	-0.223259	0.838346
Br340	Br	-0.373240	-0.439413	-0.373480
Br341	Br	-0.039906	-0.106080	-0.040147
Br342	Br	0.293427	0.227254	0.293186
H343	H	-0.478352	-0.935639	-0.340378
H344	H	-0.145019	-0.602306	-0.007044
H345	H	0.188315	-0.268973	0.326289
H346	H	-0.184465	-0.890002	0.270723
H347	H	0.148868	-0.556669	0.604056
H348	H	0.482202	-0.223336	0.937389
Br349	Br	-0.210480	-0.265976	-0.210977
Br350	Br	0.122853	0.067357	0.122357
Br351	Br	0.456186	0.400690	0.455690
Br352	Br	-0.397663	-1.169635	0.277426
Br353	Br	-0.064330	-0.836302	0.610759
Br354	Br	0.269004	-0.502968	0.944093
Br355	Br	-0.348063	-0.596225	-0.348350
Br356	Br	-0.014729	-0.262892	-0.015017
Br357	Br	0.318604	0.070442	0.318316
Br358	Br	-0.200455	-0.910535	0.033775
Br359	Br	0.132879	-0.577201	0.367108
Br360	Br	0.466212	-0.243868	0.700441
H361	H	-0.233190	-0.419301	-0.233659
H362	H	0.100143	-0.085968	0.099674
H363	H	0.433476	0.247365	0.433008
H364	H	-1.079764	-0.935926	-0.340451
H365	H	-0.746430	-0.602593	-0.007118
H366	H	-0.413097	-0.269259	0.326215
Br367	Br	-0.965142	-0.911452	-0.357856
Br368	Br	-0.631809	-0.578118	-0.024523
Br369	Br	-0.298476	-0.244785	0.308810
Br370	Br	-0.397762	-1.169542	0.148739
Br371	Br	-0.064429	-0.836209	0.482073
Br372	Br	0.268904	-0.502876	0.815406
Br373	Br	-0.353234	-0.769481	-0.353495
Br374	Br	-0.019901	-0.436148	-0.020161
Br375	Br	0.313432	-0.102815	0.313172
Br376	Br	-0.363347	-1.124116	0.027598
Br377	Br	-0.030013	-0.790782	0.360931
Br378	Br	0.303320	-0.457449	0.694265
H379	H	-0.582425	-1.098973	-0.224041
H380	H	-0.249091	-0.765640	0.109292
H381	H	0.084242	-0.432306	0.442625
Br382	Br	-0.721868	-1.168468	-0.174588
Br383	Br	-0.388534	-0.835135	0.158745
Br384	Br	-0.055201	-0.501801	0.492078
H385	H	-0.344681	-1.099436	-0.085576
H386	H	-0.011347	-0.766103	0.247757
H387	H	0.321986	-0.432770	0.581091
H388	H	-0.834983	-1.144090	-0.192010
H389	H	-0.501650	-0.810756	0.141323
H390	H	-0.168316	-0.477423	0.474657
H391	H	-0.985726	-1.099162	-0.224087
H392	H	-0.652393	-0.765829	0.109246
H393	H	-0.319059	-0.432496	0.442579
H394	H	-0.728143	-0.890793	-0.372495
H395	H	-0.394809	-0.557459	-0.039162
H396	H	-0.061476	-0.224126	0.294172
Br397	Br	-0.841262	-0.866417	-0.389924
Br398	Br	-0.507928	-0.533083	-0.056591
Br399	Br	-0.174595	-0.199750	0.276742
