data_functionalizedCrystal
_audit_creation_method	'MofGen! by Chris Wilmer'
_symmetry_space_group_name_H-M	'P1'
_symmetry_Int_Tables_number	1
_symmetry_cell_setting	triclinic
loop_
_symmetry_equiv_pos_as_xyz
  x,y,z
_cell_length_a	19.077105
_cell_length_b	13.897448
_cell_length_c	19.077174
_cell_angle_alpha	92.273651
_cell_angle_beta	85.483752
_cell_angle_gamma	87.714101
loop_
_atom_site_label
_atom_site_type_symbol
_atom_site_fract_x
_atom_site_fract_y
_atom_site_fract_z
Zn1	Zn	1.093747	-0.468678	-0.441851
Zn2	Zn	1.088946	-0.623231	-0.323966
Zn3	Zn	0.971131	-0.455194	-0.319249
Zn4	Zn	0.975840	-0.623167	-0.437084
O5	O	1.032416	-0.542567	-0.380538
O6	O	1.191761	-0.494849	-0.430183
O7	O	1.069338	-0.595324	-0.224691
O8	O	0.987435	-0.322004	-0.335533
O9	O	1.188233	-0.608398	-0.343573
O10	O	1.077521	-0.331911	-0.425609
O11	O	0.982780	-0.471868	-0.221225
O12	O	0.873105	-0.471807	-0.330910
O13	O	0.995460	-0.608291	-0.536366
O14	O	0.876565	-0.595216	-0.417484
O15	O	1.082087	-0.494788	-0.539869
O16	O	1.073903	-0.758200	-0.338951
O17	O	0.990805	-0.758154	-0.422058
C18	C	0.849256	-0.532042	-0.373168
C19	C	0.770900	-0.527563	-0.370032
C20	C	0.735905	-0.589801	-0.413562
C21	C	0.662281	-0.585580	-0.410619
C22	C	0.623654	-0.519126	-0.364142
C23	C	0.658654	-0.456882	-0.320610
C24	C	0.732276	-0.461098	-0.323557
C25	C	0.403271	-0.499610	-0.350505
C26	C	0.329643	-0.495400	-0.347559
C27	C	0.333276	-0.624098	-0.437569
C28	C	0.406899	-0.628313	-0.440509
C29	C	0.441893	-0.566065	-0.396980
N30	N	0.548398	-0.514812	-0.361131
N31	N	0.517147	-0.570375	-0.399996
C32	C	1.032364	-0.793178	-0.380515
C33	C	1.032407	-0.900395	-0.380532
C34	C	1.032483	-1.096697	-0.380579
C35	C	1.032439	-0.987460	-0.380555
C36	C	1.216291	-0.553135	-0.387936
C37	C	1.294648	-0.557638	-0.391089
C38	C	1.039834	-0.553036	-0.564412
C39	C	1.042996	-0.557497	-0.642768
C40	C	1.032488	-0.290981	-0.380576
C41	C	1.032519	-0.183769	-0.380593
C42	C	0.999417	-0.495318	-0.677775
C43	C	1.002384	-0.499517	-0.751398
C44	C	1.048935	-0.565893	-0.790014
C45	C	1.092516	-0.628079	-0.755002
C46	C	1.089544	-0.623883	-0.681380
C47	C	1.062652	-0.585338	-1.010396
C48	C	1.065621	-0.589527	-1.084023
C49	C	0.975489	-0.460966	-1.080415
C50	C	0.972524	-0.456772	-1.006791
C51	C	1.016102	-0.518962	-0.971785
N52	N	1.051971	-0.570185	-0.865270
N53	N	1.013062	-0.514673	-0.896531
C54	C	1.025067	-0.532072	-0.197381
C55	C	1.022043	-0.527347	-0.119030
H56	H	0.438345	-0.682429	-0.478354
H57	H	1.098128	-0.635987	-0.981903
H58	H	1.130415	-0.682128	-0.786449
H59	H	0.767350	-0.643918	-0.451406
H60	H	0.934616	-0.402725	-0.975355
H61	H	0.627198	-0.402769	-0.282770
H62	H	0.633791	-0.636261	-0.446065
H63	H	0.961514	-0.441263	-0.646339
H64	H	0.304776	-0.674775	-0.473009
H65	H	1.125036	-0.674510	-0.652878
H66	H	0.940009	-0.410335	-1.108924
H67	H	0.298195	-0.441274	-0.309716
H68	H	0.760768	-0.410413	-0.288114
H69	H	0.431754	-0.448931	-0.315055
H70	H	0.966895	-0.448888	-0.779897
H71	H	1.103532	-0.643579	-1.115463
