data_functionalizedCrystal
_audit_creation_method	'MofGen! by Chris Wilmer'
_symmetry_space_group_name_H-M	'P1'
_symmetry_Int_Tables_number	1
_symmetry_cell_setting	triclinic
loop_
_symmetry_equiv_pos_as_xyz
  x,y,z
_cell_length_a	14.519731
_cell_length_b	14.519709
_cell_length_c	9.730223
_cell_angle_alpha	89.999758
_cell_angle_beta	89.993443
_cell_angle_gamma	83.684499
loop_
_atom_site_label
_atom_site_type_symbol
_atom_site_fract_x
_atom_site_fract_y
_atom_site_fract_z
O1	O	0.120891	1.223878	-0.114114
O2	O	0.620891	1.723878	0.385886
O3	O	0.135127	0.955403	-0.114156
O4	O	0.635127	1.455403	0.385844
O5	O	-0.006228	1.096749	-0.114122
O6	O	0.493772	1.596749	0.385878
O7	O	0.262246	1.082533	-0.114149
O8	O	0.762246	1.582533	0.385851
O9	O	-0.006234	1.096733	0.114458
O10	O	0.493766	1.596733	0.614458
O11	O	0.135121	0.955387	0.114423
O12	O	0.635121	1.455387	0.614423
O13	O	0.120885	1.223863	0.114466
O14	O	0.620885	1.723863	0.614466
Zn15	Zn	0.128002	1.089622	0.150737
Zn16	Zn	0.628002	1.589622	0.650737
Zn17	Zn	0.128010	1.089643	-0.150427
Zn18	Zn	0.628010	1.589643	0.349573
O19	O	0.262240	1.082517	0.114431
O20	O	0.762240	1.582517	0.614431
C21	C	0.134461	0.921035	0.000128
C22	C	0.634461	1.421035	0.500128
C23	C	0.132473	0.818654	0.000112
C24	C	0.632473	1.318654	0.500112
C25	C	0.125153	0.443757	0.000176
C26	C	0.625153	0.943757	0.500176
C27	C	0.127186	0.548065	0.000158
C28	C	0.627186	1.048065	0.500158
C29	C	0.128813	0.631202	0.000143
C30	C	0.628813	1.131202	0.500143
C31	C	0.130846	0.735517	0.000127
C32	C	0.630846	1.235517	0.500127
C33	C	-0.040591	1.096075	0.000169
C34	C	0.459409	1.596075	0.500169
C35	C	-0.142971	1.094079	0.000169
C36	C	0.357029	1.594079	0.500169
C37	C	-0.226115	1.092457	0.000166
C38	C	0.273885	1.592457	0.500166
C39	C	-0.330424	1.090430	0.000155
C40	C	0.169576	1.590430	0.500155
C41	C	-0.413563	1.088822	0.000146
C42	C	0.086437	1.588822	0.500146
C43	C	-0.517878	1.086795	0.000137
C44	C	-0.017878	1.586795	0.500137
C45	C	0.296603	1.083191	0.000138
C46	C	0.796603	1.583191	0.500138
C47	C	0.398983	1.085187	0.000128
C48	C	0.898983	1.585187	0.500128
C49	C	0.121551	1.258230	0.000178
C50	C	0.621551	1.758230	0.500178
C51	C	0.123539	1.360612	0.000185
C52	C	0.623539	1.860612	0.500185
N53	N	0.127996	1.089615	0.356273
N54	N	0.627996	1.589615	0.856273
N55	N	0.128009	1.089658	-0.355964
N56	N	0.628009	1.589658	0.144036
C57	C	0.190577	1.027047	0.572103
C58	C	0.690577	1.527047	1.072103
C59	C	0.190569	1.027024	0.428220
C60	C	0.690569	1.527024	0.928220
C61	C	0.065421	1.152228	0.428217
C62	C	0.565421	1.652228	0.928217
C63	C	0.065426	1.152247	0.572097
C64	C	0.565426	1.652247	1.072097
C65	C	0.253160	0.964458	0.644042
C66	C	0.753160	1.464458	1.144042
C67	C	0.315734	0.901844	0.572109
C68	C	0.815734	1.401844	1.072109
C69	C	0.315726	0.901820	0.428226
C70	C	0.815726	1.401820	0.928226
C71	C	0.253143	0.964410	0.356276
C72	C	0.753143	1.464410	0.856276
H73	H	0.253175	0.964474	0.761199
H74	H	0.753175	1.464474	1.261199
H75	H	0.366669	0.850831	0.369659
H76	H	0.866669	1.350831	0.869659
H77	H	0.014470	1.203188	0.369626
H78	H	0.514470	1.703188	0.869626
H79	H	0.253136	0.964379	0.239117
H80	H	0.753136	1.464379	0.739117
H81	H	0.366682	0.850879	0.630697
H82	H	0.866682	1.350879	1.130697
C83	C	-0.003394	1.221130	0.651228
C84	C	0.496606	1.721130	1.151228
N85	N	-0.055231	1.273014	0.710830
N86	N	0.444769	1.773014	1.210830
