data_functionalizedCrystal
_audit_creation_method	'MofGen! by Chris Wilmer'
_symmetry_space_group_name_H-M	'P1'
_symmetry_Int_Tables_number	1
_symmetry_cell_setting	triclinic
loop_
_symmetry_equiv_pos_as_xyz
  x,y,z
_cell_length_a	15.297475
_cell_length_b	16.625546
_cell_length_c	16.625539
_cell_angle_alpha	90.028532
_cell_angle_beta	99.681806
_cell_angle_gamma	80.324704
loop_
_atom_site_label
_atom_site_type_symbol
_atom_site_fract_x
_atom_site_fract_y
_atom_site_fract_z
Zn1	Zn	1.379196	-0.534670	0.668844
Zn2	Zn	1.629196	-0.284670	0.918844
Zn3	Zn	1.879196	-0.034670	1.168844
Zn4	Zn	2.129196	0.215330	1.418844
Zn5	Zn	1.379097	-0.669493	0.533991
Zn6	Zn	1.629097	-0.419493	0.783991
Zn7	Zn	1.879097	-0.169493	1.033991
Zn8	Zn	2.129097	0.080507	1.283991
Zn9	Zn	1.228337	-0.511324	0.510732
Zn10	Zn	1.478337	-0.261324	0.760732
Zn11	Zn	1.728337	-0.011324	1.010732
Zn12	Zn	1.978337	0.238676	1.260732
Zn13	Zn	1.228295	-0.646088	0.645497
Zn14	Zn	1.478295	-0.396088	0.895497
Zn15	Zn	1.728295	-0.146088	1.145497
Zn16	Zn	1.978295	0.103912	1.395497
O17	O	1.303731	-0.590394	0.589766
O18	O	1.553731	-0.340394	0.839766
O19	O	1.803731	-0.090394	1.089766
O20	O	2.053731	0.159606	1.339766
O21	O	1.505429	-0.572121	0.670460
O22	O	1.755429	-0.322121	0.920460
O23	O	2.005429	-0.072121	1.170460
O24	O	2.255429	0.177879	1.420460
O25	O	1.359075	-0.648537	0.418070
O26	O	1.609075	-0.398537	0.668070
O27	O	1.859075	-0.148537	0.918070
O28	O	2.109075	0.101463	1.168070
O29	O	1.248408	-0.401598	0.531743
O30	O	1.498408	-0.151598	0.781743
O31	O	1.748408	0.098402	1.031743
O32	O	1.998408	0.348402	1.281743
O33	O	1.505357	-0.671175	0.571385
O34	O	1.755357	-0.421175	0.821385
O35	O	2.005357	-0.171175	1.071385
O36	O	2.255357	0.078825	1.321385
O37	O	1.359244	-0.418750	0.647907
O38	O	1.609244	-0.168750	0.897907
O39	O	1.859244	0.081250	1.147907
O40	O	2.109244	0.331250	1.397907
O41	O	1.248312	-0.532330	0.400981
O42	O	1.498312	-0.282330	0.650981
O43	O	1.748312	-0.032330	0.900981
O44	O	1.998312	0.217670	1.150981
O45	O	1.102085	-0.509635	0.509104
O46	O	1.352085	-0.259635	0.759104
O47	O	1.602085	-0.009635	1.009104
O48	O	1.852085	0.240365	1.259104
O49	O	1.248336	-0.631283	0.761430
O50	O	1.498336	-0.381283	1.011430
O51	O	1.748336	-0.131283	1.261430
O52	O	1.998336	0.118717	1.511430
O53	O	1.102054	-0.608645	0.608116
O54	O	1.352054	-0.358645	0.858116
O55	O	1.602054	-0.108645	1.108116
O56	O	1.852054	0.141355	1.358116
O57	O	1.359202	-0.549425	0.778583
O58	O	1.609202	-0.299425	1.028583
O59	O	1.859202	-0.049425	1.278583
O60	O	2.109202	0.200575	1.528583
O61	O	1.359034	-0.779212	0.548746
O62	O	1.609034	-0.529212	0.798746
O63	O	1.859034	-0.279212	1.048746
O64	O	2.109034	-0.029212	1.298746
O65	O	1.248240	-0.762016	0.630669
O66	O	1.498240	-0.512016	0.880669
O67	O	1.748240	-0.262016	1.130669
O68	O	1.998240	-0.012016	1.380669
C69	C	1.069335	-0.554067	0.553553
C70	C	1.319335	-0.304067	0.803553
C71	C	1.569335	-0.054067	1.053553
C72	C	1.819335	0.195933	1.303553
C73	C	0.969059	-0.538546	0.538080
C74	C	1.219059	-0.288546	0.788080
C75	C	1.469059	-0.038546	1.038080
C76	C	1.719059	0.211454	1.288080
C77	C	0.686434	-0.701332	0.700356
C78	C	0.936434	-0.451332	0.950356
C79	C	1.186434	-0.201332	1.200356
C80	C	1.436434	0.048668	1.450356
C81	C	0.780648	-0.715921	0.714891
C82	C	1.030648	-0.465921	0.964891
C83	C	1.280648	-0.215921	1.214891
C84	C	1.530648	0.034079	1.464891
C85	C	0.827756	-0.671578	0.670690
C86	C	1.077756	-0.421578	0.920690
C87	C	1.327756	-0.171578	1.170690
C88	C	1.577756	0.078422	1.420690
C89	C	0.780640	-0.612645	0.611950
C90	C	1.030640	-0.362645	0.861950
C91	C	1.280640	-0.112645	1.111950
C92	C	1.530640	0.137355	1.361950
C93	C	0.686417	-0.598059	0.597409
C94	C	0.936417	-0.348059	0.847409
C95	C	1.186417	-0.098059	1.097409
C96	C	1.436417	0.151941	1.347409
C97	C	0.827738	-0.568305	0.567743
C98	C	1.077738	-0.318305	0.817743
C99	C	1.327738	-0.068305	1.067743
C100	C	1.577738	0.181695	1.317743
C101	C	0.780622	-0.509372	0.509004
C102	C	1.030622	-0.259372	0.759004
C103	C	1.280622	-0.009372	1.009004
C104	C	1.530622	0.240628	1.259004
C105	C	0.686408	-0.494788	0.494465
C106	C	0.936408	-0.244788	0.744465
C107	C	1.186408	0.005212	0.994465
C108	C	1.436408	0.255212	1.244465
C109	C	0.639301	-0.539130	0.538667
C110	C	0.889301	-0.289130	0.788667
C111	C	1.139301	-0.039130	1.038667
C112	C	1.389301	0.210870	1.288667
C113	C	0.921961	-0.582891	0.582285
C114	C	1.171961	-0.332891	0.832285
C115	C	1.421961	-0.082891	1.082285
C116	C	1.671961	0.167109	1.332285
C117	C	0.921944	-0.479618	0.479338
C118	C	1.171944	-0.229618	0.729338
C119	C	1.421944	0.020382	0.979338
C120	C	1.671944	0.270382	1.229338
C121	C	0.827730	-0.465029	0.464802
C122	C	1.077730	-0.215029	0.714802
C123	C	1.327730	0.034971	0.964802
C124	C	1.577730	0.284971	1.214802
C125	C	1.303646	-0.799871	0.589719
C126	C	1.553646	-0.549871	0.839719
C127	C	1.803646	-0.299871	1.089719
C128	C	2.053646	-0.049871	1.339719
C129	C	1.303692	-0.889500	0.589739
C130	C	1.553692	-0.639500	0.839739
C131	C	1.803692	-0.389500	1.089739
C132	C	2.053692	-0.139500	1.339739
C133	C	1.303849	-1.217700	0.589847
C134	C	1.553849	-0.967700	0.839847
C135	C	1.803849	-0.717700	1.089847
C136	C	2.053849	-0.467700	1.339847
C137	C	1.303803	-1.126384	0.589819
C138	C	1.553803	-0.876384	0.839819
C139	C	1.803803	-0.626384	1.089819
C140	C	2.053803	-0.376384	1.339819
C141	C	1.303770	-1.053602	0.589793
C142	C	1.553770	-0.803602	0.839793
C143	C	1.803770	-0.553602	1.089793
C144	C	2.053770	-0.303602	1.339793
C145	C	1.303725	-0.962281	0.589765
C146	C	1.553725	-0.712281	0.839765
C147	C	1.803725	-0.462281	1.089765
C148	C	2.053725	-0.212281	1.339765
C149	C	1.539043	-0.626863	0.626121
C150	C	1.789043	-0.376863	0.876121
C151	C	2.039043	-0.126863	1.126121
C152	C	2.289043	0.123137	1.376121
C153	C	1.639318	-0.642403	0.641614
C154	C	1.889318	-0.392403	0.891614
C155	C	2.139318	-0.142403	1.141614
C156	C	2.389318	0.107597	1.391614
C157	C	1.303775	-0.590347	0.800082
C158	C	1.553775	-0.340347	1.050082
C159	C	1.803775	-0.090347	1.300082
C160	C	2.053775	0.159653	1.550082
C161	C	1.303794	-0.590328	0.889706
C162	C	1.553794	-0.340328	1.139706
C163	C	1.803794	-0.090328	1.389706
C164	C	2.053794	0.159672	1.639706
C165	C	1.303842	-0.380102	0.589835
C166	C	1.553842	-0.130102	0.839835
C167	C	1.803842	0.119898	1.089835
C168	C	2.053842	0.369898	1.339835
C169	C	1.303889	-0.290488	0.589864
C170	C	1.553889	-0.040488	0.839864
C171	C	1.803889	0.209512	1.089864
C172	C	2.053889	0.459512	1.339864
C173	C	1.303739	-0.590390	0.380277
C174	C	1.553739	-0.340390	0.630277
C175	C	1.803739	-0.090390	0.880277
C176	C	2.053739	0.159610	1.130277
C177	C	1.303895	-0.590210	0.290680
C178	C	1.553895	-0.340210	0.540680
C179	C	1.803895	-0.090210	0.790680
C180	C	2.053895	0.159790	1.040680
C181	C	1.303809	-0.590312	0.962491
C182	C	1.553809	-0.340312	1.212491
C183	C	1.803809	-0.090312	1.462491
C184	C	2.053809	0.159688	1.712491
C185	C	1.303830	-0.590285	1.053803
C186	C	1.553830	-0.340285	1.303803
C187	C	1.803830	-0.090285	1.553803
C188	C	2.053830	0.159715	1.803803
C189	C	1.303851	-0.590260	1.126582
C190	C	1.553851	-0.340260	1.376582
C191	C	1.803851	-0.090260	1.626582
C192	C	2.053851	0.159740	1.876582
C193	C	1.303874	-0.590235	1.217900
C194	C	1.553874	-0.340235	1.467900
C195	C	1.803874	-0.090235	1.717900
C196	C	2.053874	0.159765	1.967900
H197	H	0.960314	-0.630875	0.630112
H198	H	1.210314	-0.380875	0.880112
H199	H	1.460314	-0.130875	1.130112
H200	H	1.710314	0.119125	1.380112
H201	H	0.789355	-0.417045	0.416976
H202	H	1.039355	-0.167045	0.666976
H203	H	1.289355	0.082955	0.916976
H204	H	1.539355	0.332955	1.166976
H205	H	0.960298	-0.443512	0.443344
H206	H	1.210298	-0.193512	0.693344
H207	H	1.460298	0.056488	0.943344
H208	H	1.710298	0.306488	1.193344
H209	H	0.648049	-0.446809	0.446627
H210	H	0.898049	-0.196809	0.696627
H211	H	1.148049	0.053191	0.946627
H212	H	1.398049	0.303191	1.196627
H213	H	0.904469	-0.683460	0.682529
H214	H	1.154469	-0.433460	0.932529
H215	H	1.404469	-0.183460	1.182529
H216	H	1.654469	0.066540	1.432529
H217	H	0.648071	-0.737434	0.736334
H218	H	0.898071	-0.487434	0.986334
H219	H	1.148071	-0.237434	1.236334
H220	H	1.398071	0.012566	1.486334
H221	H	0.562584	-0.527254	0.526837
H222	H	0.812584	-0.277254	0.776837
H223	H	1.062584	-0.027254	1.026837
H224	H	1.312584	0.222746	1.276837
H225	H	0.819003	-0.763906	0.762716
H226	H	1.069003	-0.513906	1.012716
H227	H	1.319003	-0.263906	1.262716
H228	H	1.569003	-0.013906	1.512716
