data_functionalizedCrystal
_audit_creation_method	'MofGen! by Chris Wilmer'
_symmetry_space_group_name_H-M	'P1'
_symmetry_Int_Tables_number	1
_symmetry_cell_setting	triclinic
loop_
_symmetry_equiv_pos_as_xyz
  x,y,z
_cell_length_a	19.188930
_cell_length_b	11.792241
_cell_length_c	10.868271
_cell_angle_alpha	89.994719
_cell_angle_beta	89.981803
_cell_angle_gamma	83.669098
loop_
_atom_site_label
_atom_site_type_symbol
_atom_site_fract_x
_atom_site_fract_y
_atom_site_fract_z
O1	O	-0.926947	-0.141694	0.102719
O2	O	-0.426947	0.358306	0.602719
O3	O	-0.723744	-0.160769	0.102634
O4	O	-0.223744	0.339231	0.602634
O5	O	-0.830277	0.014013	0.102670
O6	O	-0.330277	0.514013	0.602670
O7	O	-0.820414	-0.316476	0.102683
O8	O	-0.320414	0.183524	0.602683
O9	O	-0.830268	0.014020	-0.101975
O10	O	-0.330268	0.514020	0.398025
O11	O	-0.723735	-0.160762	-0.102010
O12	O	-0.223735	0.339238	0.397990
O13	O	-0.926938	-0.141688	-0.101926
O14	O	-0.426938	0.358312	0.398074
Zn15	Zn	-0.825335	-0.151224	-0.134460
Zn16	Zn	-0.325335	0.348776	0.365540
Zn17	Zn	-0.825347	-0.151233	0.135168
Zn18	Zn	-0.325347	0.348767	0.635168
O19	O	-0.820406	-0.316469	-0.101962
O20	O	-0.320406	0.183531	0.398038
C21	C	-0.697725	-0.160148	0.000301
C22	C	-0.197725	0.339852	0.500301
C23	C	-0.620210	-0.158293	0.000269
C24	C	-0.120210	0.341707	0.500269
C25	C	-0.829653	0.056298	0.000348
C26	C	-0.329653	0.556298	0.500348
C27	C	-0.827799	0.182284	0.000348
C28	C	-0.327799	0.682284	0.500348
C29	C	-0.952957	-0.142309	0.000410
C30	C	-0.452957	0.357691	0.500410
C31	C	-1.030472	-0.144163	0.000450
C32	C	-0.530472	0.355837	0.500450
C33	C	-0.575867	-0.260849	0.000292
C34	C	-0.075867	0.239151	0.500292
C35	C	-0.503033	-0.259107	0.000306
C36	C	-0.003033	0.240893	0.500306
C37	C	-0.474546	-0.154803	0.000320
C38	C	0.025454	0.345197	0.500320
C39	C	-0.518899	-0.052234	0.000290
C40	C	-0.018899	0.447766	0.500290
C41	C	-0.591731	-0.053979	0.000264
C42	C	-0.091731	0.446021	0.500264
N43	N	-0.366117	-0.075078	0.070016
N44	N	0.133883	0.424922	0.570016
N45	N	-0.296929	-0.073428	0.070043
N46	N	0.203071	0.426572	0.570043
C47	C	-0.255107	-0.149540	0.000395
C48	C	0.244893	0.350460	0.500395
N49	N	-0.285086	-0.227382	-0.069265
N50	N	0.214914	0.272618	0.430735
N51	N	-0.354280	-0.229036	-0.069287
N52	N	0.145720	0.270964	0.430713
C53	C	-0.395573	-0.152900	0.000348
C54	C	0.104427	0.347100	0.500348
C55	C	-0.131789	-0.250214	0.000432
C56	C	0.368211	0.249786	0.500432
C57	C	-0.058955	-0.248468	0.000438
C58	C	0.441045	0.251532	0.500438
C59	C	-0.074822	-0.041591	0.000434
C60	C	0.425178	0.458409	0.500434
C61	C	-0.147655	-0.043341	0.000416
C62	C	0.352345	0.456659	0.500416
C63	C	-0.176134	-0.147655	0.000421
C64	C	0.323866	0.352345	0.500421
C65	C	-0.821029	-0.358754	0.000363
C66	C	-0.321029	0.141246	0.500363
C67	C	-0.822884	-0.484740	0.000371
C68	C	-0.322884	0.015260	0.500371
N69	N	-0.825332	-0.151217	-0.318474
N70	N	-0.325332	0.348783	0.181526
C71	C	-0.824389	0.412945	0.000367
C72	C	-0.324389	0.912945	0.500367
C73	C	-0.826283	0.284588	0.000357
C74	C	-0.326283	0.784588	0.500357
C75	C	-0.825343	-0.151230	-0.569480
C76	C	-0.325343	0.348770	-0.069480
C77	C	-0.825335	-0.151226	-0.429803
C78	C	-0.325335	0.348774	0.070197
N79	N	-0.825355	-0.151230	0.319182
N80	N	-0.325355	0.348770	0.819182
H81	H	-0.599050	-0.345790	0.000298
H82	H	-0.099050	0.154210	0.500298
Br83	Br	-0.651915	0.085216	0.000230
Br84	Br	-0.151915	0.585216	0.500230
Br85	Br	-0.170444	-0.391780	0.000429
Br86	Br	0.329556	0.108220	0.500429
Br87	Br	-0.036168	0.099967	0.000434
Br88	Br	0.463832	0.599967	0.500434
H89	H	-0.183760	0.040172	0.000404
H90	H	0.316240	0.540172	0.500404
H91	H	-0.022850	-0.331985	0.000450
H92	H	0.477150	0.168015	0.500450
H93	H	-0.466922	-0.342624	0.000321
H94	H	0.033078	0.157376	0.500321
H95	H	-0.495700	0.032691	0.000319
H96	H	0.004300	0.532691	0.500319
