data_functionalizedCrystal
_audit_creation_method	'MofGen! by Chris Wilmer'
_symmetry_space_group_name_H-M	'P1'
_symmetry_Int_Tables_number	1
_symmetry_cell_setting	triclinic
loop_
_symmetry_equiv_pos_as_xyz
  x,y,z
_cell_length_a	14.853569
_cell_length_b	14.853568
_cell_length_c	13.930277
_cell_angle_alpha	90.002819
_cell_angle_beta	90.003399
_cell_angle_gamma	96.364624
loop_
_atom_site_label
_atom_site_type_symbol
_atom_site_fract_x
_atom_site_fract_y
_atom_site_fract_z
O1	O	1.196356	-0.117715	-0.079777
O2	O	1.696356	0.382285	0.420223
O3	O	0.933897	-0.131735	-0.079787
O4	O	1.433897	0.368265	0.420213
O5	O	1.072137	0.006505	-0.079787
O6	O	1.572137	0.506505	0.420213
O7	O	1.058116	-0.255955	-0.079778
O8	O	1.558116	0.244045	0.420222
O9	O	1.072141	0.006518	0.079875
O10	O	1.572141	0.506518	0.579875
O11	O	0.933901	-0.131722	0.079875
O12	O	1.433901	0.368278	0.579875
O13	O	1.196360	-0.117702	0.079885
O14	O	1.696360	0.382298	0.579885
Zn15	Zn	1.065132	-0.124710	0.105230
Zn16	Zn	1.565132	0.375290	0.605230
Zn17	Zn	1.065126	-0.124727	-0.105132
Zn18	Zn	1.565126	0.375273	0.394868
O19	O	1.058120	-0.255942	0.079884
O20	O	1.558120	0.244058	0.579884
C21	C	0.900310	-0.131093	0.000042
C22	C	1.400310	0.368907	0.500042
C23	C	0.800227	-0.129189	0.000038
C24	C	1.300227	0.370811	0.500038
C25	C	1.071504	0.040100	0.000041
C26	C	1.571504	0.540100	0.500041
C27	C	1.069599	0.140183	0.000031
C28	C	1.569599	0.640183	0.500031
C29	C	0.763850	-0.046178	0.000031
C30	C	1.263850	0.453822	0.500031
C31	C	0.742561	-0.210410	0.000048
C32	C	1.242561	0.289590	0.500048
C33	C	0.648527	-0.208624	0.000049
C34	C	1.148527	0.291376	0.500049
C35	C	0.612150	-0.125613	0.000043
C36	C	1.112150	0.374387	0.500043
C37	C	0.669807	-0.044389	0.000035
C38	C	1.169807	0.455611	0.500035
C39	C	0.590862	-0.289847	0.000066
C40	C	1.090862	0.210153	0.500066
C41	C	0.496822	-0.288064	0.000068
C42	C	0.996822	0.211936	0.500068
C43	C	0.460444	-0.205052	0.000055
C44	C	0.960444	0.294948	0.500055
C45	C	0.518107	-0.123824	0.000047
C46	C	1.018107	0.376176	0.500047
C47	C	0.481730	-0.040813	0.000040
C48	C	0.981730	0.459187	0.500040
C49	C	0.539393	0.040415	0.000025
C50	C	1.039393	0.540415	0.500025
C51	C	0.633429	0.038623	0.000022
C52	C	1.133429	0.538623	0.500022
C53	C	0.366407	-0.203259	0.000058
C54	C	0.866407	0.296741	0.500058
C55	C	0.387688	-0.039024	0.000044
C56	C	0.887688	0.460976	0.500044
C57	C	0.979433	0.552718	0.000040
C58	C	1.479433	1.052718	0.500040
C59	C	1.143666	0.573998	0.000046
C60	C	1.643666	1.073998	0.500046
C61	C	1.145456	0.479964	0.000042
C62	C	1.645456	0.979964	0.500042
C63	C	1.064233	0.422303	0.000038
C64	C	1.564233	0.922303	0.500038
C65	C	0.981221	0.458675	0.000038
C66	C	1.481221	0.958675	0.500038
C67	C	1.228467	0.443584	0.000051
C68	C	1.728467	0.943584	0.500051
C69	C	1.230261	0.349545	0.000048
C70	C	1.730261	0.849545	0.500048
C71	C	1.149037	0.291882	0.000037
C72	C	1.649037	0.791882	0.500037
C73	C	1.066021	0.328260	0.000037
C74	C	1.566021	0.828260	0.500037
C75	C	0.984799	0.270598	0.000033
C76	C	1.484799	0.770598	0.500033
C77	C	0.901782	0.306974	0.000025
C78	C	1.401782	0.806974	0.500025
C79	C	0.899997	0.401012	0.000028
C80	C	1.399997	0.901012	0.500028
C81	C	1.150822	0.197845	0.000035
C82	C	1.650822	0.697845	0.500035
C83	C	0.986587	0.176556	0.000032
C84	C	1.486587	0.676556	0.500032
C85	C	1.229947	-0.118344	0.000053
C86	C	1.729947	0.381656	0.500053
C87	C	1.330030	-0.120249	0.000052
C88	C	1.830030	0.379751	0.500052
C89	C	1.058753	0.710463	0.000051
C90	C	1.558753	1.210463	0.500051
C91	C	1.060655	0.610379	0.000043
C92	C	1.560655	1.110379	0.500043
N93	N	1.065122	-0.124732	-0.248698
N94	N	1.565122	0.375268	0.251302
C95	C	1.003790	-0.185815	-0.298961
C96	C	1.503790	0.314185	0.201039
C97	C	1.126458	-0.063644	-0.298939
C98	C	1.626458	0.436356	0.201061
C99	C	1.126462	-0.063635	-0.399435
C100	C	1.626462	0.436365	0.100565
C101	C	1.065130	-0.124718	-0.449699
C102	C	1.565130	0.375282	0.050301
C103	C	1.003794	-0.185810	-0.399466
C104	C	1.503794	0.314190	0.100534
C105	C	1.187803	-0.002551	-0.449675
C106	C	1.687803	0.497449	0.050325
C107	C	1.187810	-0.002540	-0.550177
C108	C	1.687810	0.497460	-0.050177
C109	C	1.126473	-0.063619	-0.600442
C110	C	1.626473	0.436381	-0.100442
C111	C	1.065134	-0.124712	-0.550204
C112	C	1.565134	0.375288	-0.050204
C113	C	1.003802	-0.185795	-0.600467
C114	C	1.503802	0.314205	-0.100467
C115	C	0.942458	-0.246885	-0.550231
C116	C	1.442458	0.253115	-0.050231
C117	C	0.942458	-0.246889	-0.449732
C118	C	1.442458	0.253111	0.050268
C119	C	1.126474	-0.063615	-0.700941
C120	C	1.626474	0.436385	-0.200941
C121	C	1.003806	-0.185790	-0.700972
C122	C	1.503806	0.314210	-0.200972
N123	N	1.065142	-0.124698	0.248796
N124	N	1.565142	0.375302	0.748796
H125	H	0.358078	0.028574	0.000034
H126	H	0.858078	0.528574	0.500034
H127	H	1.297858	0.319937	0.000053
H128	H	1.797858	0.819937	0.500053
H129	H	0.892514	-0.296627	-0.408823
H130	H	1.392514	0.203373	0.091177
F131	F	0.877192	-0.311897	-0.603735
F132	F	1.377192	0.188103	-0.103735
H133	H	1.176423	-0.013880	-0.741839
H134	H	1.676423	0.486120	-0.241839
H135	H	1.176397	-0.013917	-0.258012
H136	H	1.676397	0.486083	0.241988
F137	F	1.314903	0.504955	0.000073
F138	F	1.814903	1.004955	0.500073
H139	H	0.920444	0.129613	0.000024
H140	H	1.420444	0.629613	0.500024
H141	H	0.680385	0.104755	0.000012
H142	H	1.180385	0.604755	0.500012
H143	H	0.953842	-0.235551	-0.258056
H144	H	1.453842	0.264449	0.241944
F145	F	1.253079	0.062450	-0.396181
F146	F	1.753079	0.562450	0.103819
F147	F	0.435462	-0.374513	0.000079
F148	F	0.935462	0.125487	0.500079
F149	F	1.253095	0.062479	-0.603633
F150	F	1.753095	0.562479	-0.103633
H151	H	0.620488	-0.357430	0.000077
H152	H	1.120488	0.142570	0.500077
F153	F	1.239168	0.159134	0.000058
F154	F	1.739168	0.659134	0.500058
F155	F	0.305044	-0.289702	0.000084
F156	F	0.805044	0.210298	0.500084
F157	F	0.825217	0.040267	0.000013
F158	F	1.325217	0.540267	0.500013
F159	F	1.230103	0.635366	0.000064
F160	F	1.730103	1.135366	0.500064
H161	H	0.772185	-0.277994	0.000060
H162	H	1.272185	0.222006	0.500060
F163	F	0.500667	0.128759	0.000027
F164	F	1.000667	0.628759	0.500027
H165	H	0.953859	-0.235528	-0.741891
H166	H	1.453859	0.264472	-0.241891
F167	F	0.815342	0.245596	0.000029
F168	F	1.315342	0.745596	0.500029
F169	F	0.811653	0.439732	0.000017
F170	F	1.311653	0.939732	0.500017
F171	F	0.891085	0.591431	0.000023
F172	F	1.391085	1.091431	0.500023
