data_functionalizedCrystal
_audit_creation_method	'MofGen! by Chris Wilmer'
_symmetry_space_group_name_H-M	'P1'
_symmetry_Int_Tables_number	1
_symmetry_cell_setting	triclinic
loop_
_symmetry_equiv_pos_as_xyz
  x,y,z
_cell_length_a	19.805407
_cell_length_b	29.839131
_cell_length_c	19.805399
_cell_angle_alpha	89.970435
_cell_angle_beta	89.982197
_cell_angle_gamma	90.038737
loop_
_atom_site_label
_atom_site_type_symbol
_atom_site_fract_x
_atom_site_fract_y
_atom_site_fract_z
Zn1	Zn	1.034665	-0.178896	-0.382678
Zn2	Zn	1.534665	0.321104	0.117322
Zn3	Zn	1.034550	-0.254024	-0.269486
Zn4	Zn	1.534550	0.245976	0.230514
Zn5	Zn	0.921480	-0.178905	-0.269506
Zn6	Zn	1.421480	0.321095	0.230494
Zn7	Zn	0.921414	-0.253996	-0.382636
Zn8	Zn	1.421414	0.246004	0.117364
O9	O	0.978027	-0.216455	-0.326077
O10	O	1.478027	0.283545	0.173923
O11	O	1.129366	-0.188870	-0.367672
O12	O	1.629366	0.311130	0.132328
O13	O	1.019531	-0.244074	-0.174772
O14	O	1.519531	0.255926	0.325228
O15	O	0.936570	-0.116036	-0.284545
O16	O	1.436570	0.383964	0.215455
O17	O	1.129282	-0.244065	-0.284510
O18	O	1.629282	0.255935	0.215490
O19	O	1.019726	-0.116030	-0.367692
O20	O	1.519726	0.383970	0.132308
O21	O	0.936458	-0.188885	-0.174787
O22	O	1.436458	0.311115	0.325213
O23	O	0.826754	-0.188858	-0.284504
O24	O	1.326754	0.311142	0.215496
O25	O	0.936457	-0.244019	-0.477359
O26	O	1.436457	0.255981	0.022641
O27	O	0.826706	-0.244027	-0.367620
O28	O	1.326706	0.255973	0.132380
O29	O	1.019662	-0.188843	-0.477389
O30	O	1.519662	0.311157	0.022611
O31	O	1.019467	-0.316887	-0.284470
O32	O	1.519467	0.183113	0.215530
O33	O	0.936346	-0.316867	-0.367601
O34	O	1.436346	0.183133	0.132399
C35	C	0.802171	-0.216441	-0.326060
C36	C	1.302171	0.283559	0.173940
C37	C	0.726939	-0.216446	-0.326069
C38	C	1.226939	0.283554	0.173931
C39	C	0.691640	-0.187756	-0.369438
C40	C	1.191640	0.312244	0.130562
C41	C	0.620951	-0.187758	-0.369440
C42	C	1.120951	0.312242	0.130560
C43	C	0.585564	-0.216453	-0.326078
C44	C	1.085564	0.283547	0.173922
C45	C	0.620868	-0.245144	-0.282705
C46	C	1.120868	0.254856	0.217295
C47	C	0.691555	-0.245139	-0.282699
C48	C	1.191555	0.254861	0.217301
C49	C	0.335795	-0.245164	-0.282725
C50	C	0.835795	0.254836	0.217275
C51	C	0.265103	-0.245168	-0.282736
C52	C	0.765103	0.254832	0.217264
C53	C	0.265191	-0.187784	-0.369466
C54	C	0.765191	0.312216	0.130534
C55	C	0.335878	-0.187779	-0.369461
C56	C	0.835878	0.312221	0.130539
C57	C	0.371176	-0.216468	-0.326086
C58	C	0.871176	0.283532	0.173914
C59	C	0.447825	-0.216464	-0.326083
C60	C	0.947825	0.283536	0.173917
C61	C	0.508916	-0.216459	-0.326084
C62	C	1.008916	0.283541	0.173916
C63	C	0.977905	-0.333178	-0.326043
C64	C	1.477905	0.166822	0.173957
C65	C	0.977915	-0.383112	-0.326052
C66	C	1.477915	0.116888	0.173948
C67	C	1.021387	-0.692753	-0.282854
C68	C	1.521387	-0.192753	0.217146
C69	C	1.021470	-0.880426	-0.282880
C70	C	1.521470	-0.380426	0.217120
O71	O	1.058335	-0.904689	-0.246126
O72	O	1.558335	-0.404689	0.253874
N73	N	0.978167	-0.903897	-0.326128
N74	N	1.478167	-0.403897	0.173872
C75	C	0.934844	-0.880447	-0.369375
C76	C	1.434844	-0.380447	0.130625
O77	O	0.898019	-0.904716	-0.406166
O78	O	1.398019	-0.404716	0.093834
C79	C	0.934764	-0.692775	-0.369352
C80	C	1.434764	-0.192775	0.130648
C81	C	0.978065	-0.669306	-0.326096
C82	C	1.478065	-0.169306	0.173904
C83	C	1.064685	-0.669285	-0.239602
C84	C	1.564685	-0.169285	0.260398
C85	C	1.064661	-0.622369	-0.239594
C86	C	1.564661	-0.122369	0.260406
C87	C	1.021339	-0.598922	-0.282836
C88	C	1.521339	-0.098922	0.217164
C89	C	0.978041	-0.622391	-0.326088
C90	C	1.478041	-0.122391	0.173912
C91	C	0.891444	-0.669325	-0.412602
C92	C	1.391444	-0.169325	0.087398
C93	C	0.891429	-0.622404	-0.412594
C94	C	1.391429	-0.122404	0.087406
C95	C	0.934730	-0.598936	-0.369338
C96	C	1.434730	-0.098936	0.130662
C97	C	0.934695	-0.552028	-0.369322
C98	C	1.434695	-0.052028	0.130678
N99	N	0.977998	-0.528558	-0.326074
N100	N	1.477998	-0.028558	0.173926
C101	C	1.021320	-0.552005	-0.282831
C102	C	1.521320	-0.052005	0.217169
C103	C	0.934888	-0.978977	-0.369384
C104	C	1.434888	-0.478977	0.130616
C105	C	0.934906	-1.025895	-0.369389
C106	C	1.434906	-0.525895	0.130611
C107	C	1.021534	-1.025872	-0.282894
C108	C	1.521534	-0.525872	0.217106
C109	C	1.021512	-0.978953	-0.282886
C110	C	1.521512	-0.478953	0.217114
C111	C	0.978191	-0.955507	-0.326136
C112	C	1.478191	-0.455507	0.173864
C113	C	1.021266	-0.453479	-0.282816
C114	C	1.521266	0.046521	0.217184
C115	C	1.021236	-0.406559	-0.282809
C116	C	1.521236	0.093441	0.217191
C117	C	0.934611	-0.406587	-0.369306
C118	C	1.434611	0.093413	0.130694
C119	C	0.934638	-0.453502	-0.369310
C120	C	1.434638	0.046498	0.130690
C121	C	0.977971	-0.476947	-0.326063
C122	C	1.477971	0.023053	0.173937
O123	O	0.897855	-0.527736	-0.406062
O124	O	1.397855	-0.027736	0.093938
O125	O	1.058150	-0.527727	-0.246057
O126	O	1.558150	-0.027727	0.253943
C127	C	1.021411	-0.739669	-0.282862
C128	C	1.521411	-0.239669	0.217138
C129	C	0.978113	-0.763137	-0.326114
C130	C	1.478113	-0.263137	0.173886
C131	C	0.934791	-0.739690	-0.369357
C132	C	1.434791	-0.239690	0.130643
C133	C	0.978132	-0.810055	-0.326119
C134	C	1.478132	-0.310055	0.173881
C135	C	1.021454	-0.833502	-0.282876
C136	C	1.521454	-0.333502	0.217124
C137	C	1.064757	-0.810031	-0.239628
C138	C	1.564757	-0.310031	0.260372
C139	C	1.064733	-0.763116	-0.239620
C140	C	1.564733	-0.263116	0.260380
C141	C	0.891488	-0.763161	-0.412604
C142	C	1.391488	-0.263161	0.087396
C143	C	0.891515	-0.810076	-0.412609
C144	C	1.391515	-0.310076	0.087391
C145	C	0.934837	-0.833523	-0.369366
C146	C	1.434837	-0.333523	0.130634
C147	C	1.154570	-0.216470	-0.326094
C148	C	1.654570	0.283530	0.173906
C149	C	1.229802	-0.216476	-0.326101
C150	C	1.729802	0.283524	0.173899
C151	C	0.978065	-0.216427	-0.502620
C152	C	1.478065	0.283573	-0.002620
C153	C	0.978081	-0.216415	-0.577852
C154	C	1.478081	0.283585	-0.077852
C155	C	0.978168	-0.099277	-0.326125
C156	C	1.478168	0.400723	0.173875
C157	C	0.978228	-0.049342	-0.326146
C158	C	1.478228	0.450658	0.173854
C159	C	1.021407	-0.187683	-0.613213
C160	C	1.521407	0.312317	-0.113213
C161	C	1.021414	-0.187670	-0.683901
C162	C	1.521414	0.312330	-0.183901
C163	C	0.978098	-0.216391	-0.719227
C164	C	1.478098	0.283609	-0.219227
C165	C	0.934767	-0.245124	-0.683861
C166	C	1.434767	0.254876	-0.183861
C167	C	0.934757	-0.245134	-0.613174
C168	C	1.434757	0.254866	-0.113174
C169	C	0.934806	-0.245082	-0.968934
C170	C	1.434806	0.254918	-0.468934
C171	C	0.934820	-0.245070	-1.039627
C172	C	1.434820	0.254930	-0.539627
C173	C	1.021462	-0.187618	-1.039662
C174	C	1.521462	0.312382	-0.539662
C175	C	1.021452	-0.187628	-0.968975
C176	C	1.521452	0.312372	-0.468975
C177	C	0.978119	-0.216359	-0.933615
C178	C	1.478119	0.283641	-0.433615
C179	C	0.978112	-0.216372	-0.856966
C180	C	1.478112	0.283628	-0.356966
C181	C	0.978109	-0.216381	-0.795874
C182	C	1.478109	0.283619	-0.295874
C183	C	0.978028	-0.216451	-0.150221
C184	C	1.478028	0.283549	0.349779
C185	C	0.978143	-0.216336	-0.074989
C186	C	1.478143	0.283664	0.425011
H187	H	0.592050	-0.268506	-0.247395
H188	H	1.092050	0.231494	0.252605
O189	O	0.849367	-0.740338	-0.454516
O190	O	1.349367	-0.240338	0.045484
C191	C	0.805648	-0.713255	-0.415934
C192	C	1.305648	-0.213255	0.084066
H193	H	0.829550	-0.706228	-0.364663
H194	H	1.329550	-0.206228	0.135337
H195	H	0.755506	-0.731377	-0.408449
H196	H	1.255506	-0.231377	0.091551
C197	C	0.763979	-0.677314	-0.516130
C198	C	1.263979	-0.177314	-0.016130
C199	C	0.793339	-0.668680	-0.453160
C200	C	1.293339	-0.168680	0.046840
H201	H	0.756383	-0.649819	-0.539094
H202	H	1.256383	-0.149819	-0.039094
H203	H	0.793432	-0.695562	-0.542124
H204	H	1.293432	-0.195562	-0.042124
H205	H	0.722197	-0.692417	-0.509883
H206	H	1.222197	-0.192417	-0.009883
H207	H	0.835123	-0.653582	-0.459408
H208	H	1.335123	-0.153582	0.040592
H209	H	0.763892	-0.650429	-0.427168
H210	H	1.263892	-0.150429	0.072832
O211	O	1.063413	-0.159718	-0.578932
O212	O	1.563413	0.340282	-0.078932
C213	C	1.048686	-0.114940	-0.596238
C214	C	1.548686	0.385060	-0.096238
H215	H	0.994618	-0.112667	-0.615659
H216	H	1.494618	0.387333	-0.115659
H217	H	1.084992	-0.103195	-0.637282
H218	H	1.584992	0.396805	-0.137282
C219	C	1.122997	-0.087758	-0.509607
C220	C	1.622997	0.412242	-0.009607
C221	C	1.056588	-0.084965	-0.533456
C222	C	1.556588	0.415035	-0.033456
H223	H	1.127874	-0.069267	-0.470882
H224	H	1.627874	0.430733	0.029118
H225	H	1.132922	-0.117926	-0.497949
H226	H	1.632922	0.382074	0.002051
H227	H	1.153245	-0.077971	-0.543817
H228	H	1.653245	0.422029	-0.043817
H229	H	1.026343	-0.094757	-0.499250
H230	H	1.526343	0.405243	0.000750
H231	H	1.046659	-0.054798	-0.545107
H232	H	1.546659	0.445202	-0.045107
O233	O	0.892769	-0.273067	-0.578743
O234	O	1.392769	0.226933	-0.078743
C235	C	0.931269	-0.302098	-0.537861
C236	C	1.431269	0.197902	-0.037861
H237	H	0.982581	-0.286258	-0.527293
H238	H	1.482581	0.213742	-0.027293
H239	H	0.938668	-0.335388	-0.565087
H240	H	1.438668	0.164612	-0.065087
C241	C	0.830992	-0.329691	-0.483681
C242	C	1.330992	0.170309	0.016319
C243	C	0.894013	-0.310234	-0.470697
C244	C	1.394013	0.189766	0.029303
H245	H	0.808010	-0.334712	-0.442252
H246	H	1.308010	0.165288	0.057748
H247	H	0.805054	-0.310134	-0.511226
H248	H	1.305054	0.189866	-0.011226
H249	H	0.837167	-0.357431	-0.506371
H250	H	1.337167	0.142569	-0.006371
H251	H	0.887837	-0.282492	-0.448015
H252	H	1.387837	0.217508	0.051985
H253	H	0.919949	-0.329787	-0.443147
H254	H	1.419949	0.170213	0.056853
O255	O	1.063528	-0.159822	-0.718330
O256	O	1.563528	0.340178	-0.218330
C257	C	1.107228	-0.185393	-0.759211
C258	C	1.607228	0.314607	-0.259211
H259	H	1.083320	-0.219437	-0.769778
H260	H	1.583320	0.280563	-0.269778
H261	H	1.157383	-0.190335	-0.731983
H262	H	1.657383	0.309665	-0.231983
C263	C	1.148871	-0.118851	-0.813391
C264	C	1.648871	0.381149	-0.313391
C265	C	1.119504	-0.160663	-0.826375
C266	C	1.619504	0.339337	-0.326375
H267	H	1.156447	-0.103596	-0.854820
H268	H	1.656447	0.396404	-0.354820
H269	H	1.119432	-0.101623	-0.785848
H270	H	1.619432	0.398377	-0.285848
H271	H	1.190664	-0.122975	-0.790700
H272	H	1.690664	0.377025	-0.290700
H273	H	1.077709	-0.156539	-0.849058
H274	H	1.577709	0.343461	-0.349058
H275	H	1.148937	-0.177891	-0.853924
H276	H	1.648937	0.322109	-0.353924
H277	H	1.099922	-0.603264	-0.204373
H278	H	1.599922	-0.103264	0.295627
H279	H	0.899381	-0.472611	-0.404535
H280	H	1.399381	0.027389	0.095465
H281	H	1.056727	-0.164242	-0.940216
H282	H	1.556727	0.335758	-0.440216
H283	H	0.720447	-0.164391	-0.404750
H284	H	1.220447	0.335609	0.095250
O285	O	1.063610	-0.956108	-0.240965
O286	O	1.563610	-0.456108	0.259035
C287	C	1.107309	-0.928937	-0.279535
C288	C	1.607309	-0.428937	0.220465
H289	H	1.083406	-0.921899	-0.330806
H290	H	1.583406	-0.421899	0.169194
H291	H	1.157468	-0.946988	-0.287020
H292	H	1.657468	-0.446988	0.212980
C293	C	1.148934	-0.893023	-0.179323
C294	C	1.648934	-0.393023	0.320677
C295	C	1.119573	-0.884376	-0.242293
C296	C	1.619573	-0.384376	0.257707
H297	H	1.156503	-0.865537	-0.156351
H298	H	1.656503	-0.365537	0.343649
H299	H	1.119496	-0.911330	-0.153338
H300	H	1.619496	-0.411330	0.346662
H301	H	1.190730	-0.908067	-0.185570
H302	H	1.690730	-0.408067	0.314430
H303	H	1.077775	-0.869338	-0.236046
H304	H	1.577775	-0.369338	0.263954
H305	H	1.149006	-0.866065	-0.268277
H306	H	1.649006	-0.366065	0.231723
H307	H	0.592213	-0.164397	-0.404756
H308	H	1.092213	0.335603	0.095244
O309	O	1.063488	-0.159718	-1.074117
O310	O	1.563488	0.340282	-0.574117
C311	C	1.054221	-0.165871	-1.144082
C312	C	1.554221	0.334129	-0.644082
H313	H	1.001970	-0.180578	-1.153723
H314	H	1.501970	0.319422	-0.653723
H315	H	1.094342	-0.189795	-1.164140
H316	H	1.594342	0.310205	-0.664140
C317	C	1.124662	-0.102347	-1.168549
C318	C	1.624662	0.397653	-0.668549
C319	C	1.060483	-0.120406	-1.180390
C320	C	1.560483	0.379594	-0.680390
H321	H	1.128527	-0.074302	-1.190946
H322	H	1.628527	0.425698	-0.690946
H323	H	1.130907	-0.098202	-1.121412
H324	H	1.630907	0.401798	-0.621412
H325	H	1.158089	-0.122288	-1.185264
H326	H	1.658089	0.377712	-0.685264
H327	H	1.027058	-0.100468	-1.163667
H328	H	1.527058	0.399532	-0.663667
H329	H	1.054232	-0.124546	-1.227525
H330	H	1.554232	0.375454	-0.727525
O331	O	0.892786	-0.273071	-0.718205
O332	O	1.392786	0.226929	-0.218205
C333	C	0.931291	-0.302078	-0.759099
C334	C	1.431291	0.197922	-0.259099
H335	H	0.984592	-0.304861	-0.737804
H336	H	1.484592	0.195139	-0.237804
H337	H	0.933648	-0.288180	-0.812678
H338	H	1.433648	0.211820	-0.312678
C339	C	0.832699	-0.345358	-0.786315
C340	C	1.332699	0.154642	-0.286315
C341	C	0.898164	-0.348780	-0.760156
C342	C	1.398164	0.151220	-0.260156
H343	H	0.812264	-0.374166	-0.786971
H344	H	1.312264	0.125834	-0.286971
H345	H	0.806757	-0.325815	-0.758767
H346	H	1.306757	0.174185	-0.258767
H347	H	0.834673	-0.333775	-0.830962
H348	H	1.334673	0.166225	-0.330962
H349	H	0.896189	-0.360358	-0.715508
H350	H	1.396189	0.139642	-0.215508
H351	H	0.924105	-0.368326	-0.787698
H352	H	1.424105	0.131674	-0.287698
O353	O	0.892673	-0.272984	-1.073839
O354	O	1.392673	0.227016	-0.573839
C355	C	0.854434	-0.298352	-1.027472
C356	C	1.354434	0.201648	-0.527472
H357	H	0.852104	-0.279959	-0.977091
H358	H	1.352104	0.220041	-0.477091
H359	H	0.879172	-0.332477	-1.019943
H360	H	1.379172	0.167523	-0.519943
C361	C	0.785257	-0.327402	-1.116931
C362	C	1.285257	0.172598	-0.616931
C363	C	0.782390	-0.304810	-1.055053
C364	C	1.282390	0.195190	-0.555053
H365	H	0.740817	-0.331388	-1.133944
H366	H	1.240817	0.168612	-0.633944
H367	H	0.811020	-0.310313	-1.148170
H368	H	1.311020	0.189687	-0.648170
H369	H	0.805875	-0.355837	-1.110648
H370	H	1.305875	0.144163	-0.610648
H371	H	0.761780	-0.276374	-1.061338
H372	H	1.261780	0.223626	-0.561338
H373	H	0.756621	-0.321895	-1.023816
H374	H	1.256621	0.178105	-0.523816
H375	H	0.364687	-0.164414	-0.404774
H376	H	0.864687	0.335586	0.095226
H377	H	0.856248	-0.829180	-0.447832
H378	H	1.356248	-0.329180	0.052168
H379	H	0.899531	-0.268483	-0.940153
H380	H	1.399531	0.231517	-0.440153
H381	H	0.236442	-0.164422	-0.404782
H382	H	0.736442	0.335578	0.095218
O383	O	1.063269	-0.383812	-0.240696
O384	O	1.563269	0.116188	0.259304
C385	C	1.048512	-0.395309	-0.173225
C386	C	1.548512	0.104691	0.326775
H387	H	1.022508	-0.429391	-0.171807
H388	H	1.522508	0.070609	0.328193
H389	H	1.013716	-0.368935	-0.150388
H390	H	1.513716	0.131065	0.349612
C391	C	1.146461	-0.355593	-0.134028
C392	C	1.646461	0.144407	0.365972
C393	C	1.114528	-0.397455	-0.132286
C394	C	1.614528	0.102545	0.367714
H395	H	1.187182	-0.356915	-0.108774
H396	H	1.687182	0.143085	0.391226
H397	H	1.156403	-0.347845	-0.179484
H398	H	1.656403	0.152155	0.320516
H399	H	1.117458	-0.333619	-0.114999
H400	H	1.617458	0.166381	0.385001
H401	H	1.143528	-0.419427	-0.151323
H402	H	1.643528	0.080573	0.348677
H403	H	1.104593	-0.405206	-0.086832
H404	H	1.604593	0.094794	0.413168
O405	O	0.370045	-0.273099	-0.240667
O406	O	0.870045	0.226901	0.259333
C407	C	0.352723	-0.317887	-0.255328
C408	C	0.852723	0.182113	0.244672
H409	H	0.333318	-0.320203	-0.309398
H410	H	0.833318	0.179797	0.190602
H411	H	0.311662	-0.329599	-0.219016
H412	H	0.811662	0.170401	0.280984
C413	C	0.439318	-0.345017	-0.180945
C414	C	0.939318	0.154983	0.319055
C415	C	0.415489	-0.347862	-0.247357
C416	C	0.915489	0.152138	0.252643
H417	H	0.478033	-0.363508	-0.176025
H418	H	0.978033	0.136492	0.323975
H419	H	0.450986	-0.314842	-0.171065
H420	H	0.950986	0.185158	0.328935
H421	H	0.405094	-0.354776	-0.150692
H422	H	0.905094	0.145224	0.349308
H423	H	0.449709	-0.338097	-0.277607
H424	H	0.949709	0.161903	0.222393
H425	H	0.403828	-0.378036	-0.257241
H426	H	0.903828	0.121964	0.242759
O427	O	1.063268	-0.476302	-0.240781
O428	O	1.563268	0.023698	0.259219
C429	C	1.024782	-0.503481	-0.197019
C430	C	1.524782	-0.003481	0.302981
H431	H	0.973475	-0.510536	-0.220838
H432	H	1.473475	-0.010536	0.279162
H433	H	1.017372	-0.485427	-0.146847
H434	H	1.517372	0.014573	0.353153
C435	C	1.125077	-0.539361	-0.155560
C436	C	1.625077	-0.039361	0.344440
C437	C	1.062062	-0.548030	-0.184818
C438	C	1.562062	-0.048030	0.315182
H439	H	1.148073	-0.566840	-0.148030
H440	H	1.648073	-0.066840	0.351970
H441	H	1.151006	-0.521049	-0.185041
H442	H	1.651006	-0.021049	0.314959
H443	H	1.118892	-0.524316	-0.113753
H444	H	1.618892	-0.024316	0.386247
H445	H	1.068247	-0.563070	-0.226627
H446	H	1.568247	-0.063070	0.273373
H447	H	1.036134	-0.566345	-0.155344
H448	H	1.536134	-0.066345	0.344656
O449	O	1.106883	-0.691993	-0.197625
O450	O	1.606883	-0.191993	0.302375
C451	C	1.174315	-0.680464	-0.212510
C452	C	1.674315	-0.180464	0.287490
H453	H	1.175651	-0.646396	-0.238552
H454	H	1.675651	-0.146396	0.261448
H455	H	1.197122	-0.706844	-0.247317
H456	H	1.697122	-0.206844	0.252683
C457	C	1.213723	-0.720100	-0.114586
C458	C	1.713723	-0.220100	0.385414
C459	C	1.215364	-0.678255	-0.146566
C460	C	1.715364	-0.178255	0.353434
H461	H	1.239045	-0.718739	-0.073910
H462	H	1.739045	-0.218739	0.426090
H463	H	1.168293	-0.727869	-0.104559
H464	H	1.668293	-0.227869	0.395441
H465	H	1.232728	-0.742079	-0.143598
H466	H	1.732728	-0.242079	0.356402
H467	H	1.196352	-0.656278	-0.117557
H468	H	1.696352	-0.156278	0.382443
H469	H	1.260792	-0.670482	-0.156587
H470	H	1.760792	-0.170482	0.343413
O471	O	0.892817	-1.048620	-0.411466
O472	O	1.392817	-0.548620	0.088534
C473	C	0.854568	-1.017858	-0.449617
C474	C	1.354568	-0.517858	0.050383
H475	H	0.882280	-0.984396	-0.451977
H476	H	1.382280	-0.484396	0.048023
H477	H	0.803176	-1.012910	-0.424784
H478	H	1.303176	-0.512910	0.075216
C479	C	0.810741	-1.077241	-0.518753
C480	C	1.310741	-0.577241	-0.018753
C481	C	0.844780	-1.036143	-0.521655
C482	C	1.344780	-0.536143	-0.021655
H483	H	0.804700	-1.088520	-0.563188
H484	H	1.304700	-0.588520	-0.063188
H485	H	0.836508	-1.097966	-0.493048
H486	H	1.336508	-0.597966	0.006952
H487	H	0.767917	-1.073111	-0.498056
H488	H	1.267917	-0.573111	0.001944
H489	H	0.887606	-1.040274	-0.542344
H490	H	1.387606	-0.540274	-0.042344
H491	H	0.819020	-1.015419	-0.547365
H492	H	1.319020	-0.515419	-0.047365
H493	H	0.236292	-0.268536	-0.247422
H494	H	0.736292	0.231464	0.252578
O495	O	0.892766	-0.956155	-0.411301
O496	O	1.392766	-0.456155	0.088699
C497	C	0.849048	-0.929068	-0.372723
C498	C	1.349048	-0.429068	0.127277
H499	H	0.872950	-0.922039	-0.321453
H500	H	1.372950	-0.422039	0.178547
H501	H	0.798905	-0.947188	-0.365236
H502	H	1.298905	-0.447188	0.134764
C503	C	0.807384	-0.893130	-0.472924
C504	C	1.307384	-0.393130	0.027076
C505	C	0.836744	-0.884494	-0.409955
C506	C	1.336744	-0.384494	0.090045
H507	H	0.799792	-0.865636	-0.495891
H508	H	1.299792	-0.365636	0.004109
H509	H	0.836836	-0.911380	-0.498915
H510	H	1.336836	-0.411380	0.001085
H511	H	0.765601	-0.908231	-0.466676
H512	H	1.265601	-0.408231	0.033324
H513	H	0.878530	-0.869398	-0.416204
H514	H	1.378530	-0.369398	0.083796
H515	H	0.807299	-0.866240	-0.383965
H516	H	1.307299	-0.366240	0.116035
H517	H	0.720295	-0.268501	-0.247384
H518	H	1.220295	0.231499	0.252616
H519	H	1.056809	-1.044970	-0.247684
H520	H	1.556809	-0.544970	0.252316
O521	O	0.849479	-0.692163	-0.454661
O522	O	1.349479	-0.192163	0.045339
C523	C	0.888005	-0.719247	-0.498430
C524	C	1.388005	-0.219247	0.001570
H525	H	0.939310	-0.726261	-0.474598
H526	H	1.439310	-0.226261	0.025402
H527	H	0.895418	-0.701132	-0.548585
H528	H	1.395418	-0.201132	-0.048585
C529	C	0.787757	-0.755214	-0.539953
C530	C	1.287757	-0.255214	-0.039953
C531	C	0.850769	-0.763831	-0.510679
C532	C	1.350769	-0.263831	-0.010679
H533	H	0.764788	-0.782715	-0.547512
H534	H	1.264788	-0.282715	-0.047512
H535	H	0.761801	-0.736966	-0.510467
H536	H	1.261801	-0.236966	-0.010467
H537	H	0.793943	-0.740117	-0.581746
H538	H	1.293943	-0.240117	-0.081746
H539	H	0.844582	-0.778922	-0.468884
H540	H	1.344582	-0.278922	0.031116
H541	H	0.876724	-0.782083	-0.540158
H542	H	1.376724	-0.282083	-0.040158
O543	O	0.849442	-0.599608	-0.454679
O544	O	1.349442	-0.099608	0.045321
C545	C	0.887939	-0.572417	-0.498413
C546	C	1.387939	-0.072417	0.001587
H547	H	0.941253	-0.586518	-0.502641
H548	H	1.441253	-0.086518	-0.002641
H549	H	0.890263	-0.536865	-0.477483
H550	H	1.390263	-0.036865	0.022517
C551	C	0.789352	-0.554371	-0.563555
C552	C	1.289352	-0.054371	-0.063555
C553	C	0.854832	-0.571692	-0.568752
C554	C	1.354832	-0.071692	-0.068752
H555	H	0.768930	-0.553922	-0.606943
H556	H	1.268930	-0.053922	-0.106943
H557	H	0.763415	-0.572689	-0.534089
H558	H	1.263415	-0.072689	-0.034089
H559	H	0.791298	-0.524746	-0.546110
H560	H	1.291298	-0.024746	-0.046110
H561	H	0.852885	-0.601318	-0.586189
H562	H	1.352885	-0.101318	-0.086189
H563	H	0.880768	-0.553379	-0.598223
H564	H	1.380768	-0.053379	-0.098223
O565	O	1.106943	-0.832757	-0.197656
O566	O	1.606943	-0.332757	0.302344
C567	C	1.174384	-0.821245	-0.212531
C568	C	1.674384	-0.321245	0.287469
H569	H	1.175745	-0.787168	-0.238545
H570	H	1.675745	-0.287168	0.261455
H571	H	1.197171	-0.847620	-0.247359
H572	H	1.697171	-0.347620	0.252641
C573	C	1.213761	-0.860931	-0.114639
C574	C	1.713761	-0.360931	0.385361
C575	C	1.215434	-0.819074	-0.146585
C576	C	1.715434	-0.319074	0.353415
H577	H	1.239084	-0.859593	-0.073962
H578	H	1.739084	-0.359593	0.426038
H579	H	1.168325	-0.868688	-0.104619
H580	H	1.668325	-0.368688	0.395381
H581	H	1.232749	-0.882905	-0.143670
H582	H	1.732749	-0.382905	0.356330
H583	H	1.196438	-0.797102	-0.117558
H584	H	1.696438	-0.297102	0.382442
H585	H	1.260868	-0.811313	-0.156599
H586	H	1.760868	-0.311313	0.343401
H587	H	0.899337	-0.387489	-0.404511
H588	H	1.399337	0.112511	0.095489
H589	H	1.099993	-0.744011	-0.204397
H590	H	1.599993	-0.244011	0.295603
