data_functionalizedCrystal
_audit_creation_method	'MofGen! by Chris Wilmer'
_symmetry_space_group_name_H-M	'P1'
_symmetry_Int_Tables_number	1
_symmetry_cell_setting	triclinic
loop_
_symmetry_equiv_pos_as_xyz
  x,y,z
_cell_length_a	16.109302
_cell_length_b	26.210047
_cell_length_c	16.109304
_cell_angle_alpha	89.992689
_cell_angle_beta	83.462209
_cell_angle_gamma	90.010977
loop_
_atom_site_label
_atom_site_type_symbol
_atom_site_fract_x
_atom_site_fract_y
_atom_site_fract_z
O1	O	1.103139	0.042449	0.106858
O2	O	1.436473	0.375782	0.440191
O3	O	1.769806	0.709115	0.773525
O4	O	0.861078	0.042444	0.120157
O5	O	1.194411	0.375778	0.453490
O6	O	1.527744	0.709111	0.786823
O7	O	0.988757	0.042447	-0.007524
O8	O	1.322090	0.375780	0.325810
O9	O	1.655424	0.709114	0.659143
O10	O	0.975460	0.042446	0.234538
O11	O	1.308793	0.375779	0.567871
O12	O	1.642127	0.709113	0.901205
O13	O	0.988732	-0.042411	-0.007504
O14	O	1.322066	0.290922	0.325830
O15	O	1.655399	0.624255	0.659163
O16	O	0.861053	-0.042414	0.120177
O17	O	1.194386	0.290920	0.453510
O18	O	1.527720	0.624253	0.786843
O19	O	1.103115	-0.042409	0.106878
O20	O	1.436448	0.290924	0.440211
O21	O	1.769781	0.624257	0.773545
Cu22	Cu	0.982082	-0.050160	0.113529
Cu23	Cu	1.315415	0.283174	0.446862
Cu24	Cu	1.648748	0.616507	0.780196
Cu25	Cu	0.982111	0.050195	0.113505
Cu26	Cu	1.315444	0.383528	0.446839
Cu27	Cu	1.648777	0.716861	0.780172
O28	O	0.975435	-0.042412	0.234558
O29	O	1.308769	0.290921	0.567891
O30	O	1.642102	0.624255	0.901225
C31	C	0.830090	0.000015	0.119628
C32	C	1.163424	0.333348	0.452961
C33	C	1.496757	0.666681	0.786294
C34	C	0.737795	0.000013	0.118012
C35	C	1.071128	0.333347	0.451346
C36	C	1.404462	0.666680	0.784679
C37	C	0.525441	-0.046238	0.114288
C38	C	0.858774	0.287095	0.447621
C39	C	1.192107	0.620429	0.780955
C40	C	0.438721	-0.046236	0.112761
C41	C	0.772054	0.287097	0.446095
C42	C	1.105387	0.620431	0.779428
C43	C	0.438758	0.046281	0.112744
C44	C	0.772091	0.379614	0.446077
C45	C	1.105425	0.712947	0.779411
C46	C	0.525477	0.046279	0.114265
C47	C	0.858811	0.379612	0.447598
C48	C	1.192144	0.712945	0.780931
C49	C	0.568816	0.000018	0.115041
C50	C	0.902149	0.333351	0.448374
C51	C	1.235483	0.666684	0.781708
C52	C	0.395377	0.000022	0.111994
C53	C	0.728710	0.333355	0.445327
C54	C	1.062043	0.666688	0.778660
C55	C	0.301351	0.000024	0.110338
C56	C	0.634684	0.333357	0.443672
C57	C	0.968017	0.666691	0.777005
C58	C	0.662848	0.000015	0.116695
C59	C	0.996181	0.333348	0.450028
C60	C	1.329514	0.666682	0.783362
N61	N	0.982067	-0.120744	0.113545
N62	N	1.315400	0.212590	0.446878
N63	N	1.648734	0.545923	0.780212
C64	C	1.038641	-0.473257	0.056981
C65	C	1.371975	-0.139923	0.390315
C66	C	1.705308	0.193410	0.723648
C67	C	1.038660	-0.686915	0.056970
C68	C	1.371993	-0.353582	0.390303
C69	C	1.705326	-0.020249	0.723637
O70	O	1.086729	-0.714536	0.008881
O71	O	1.420062	-0.381203	0.342214
O72	O	1.753396	-0.047869	0.675548
N73	N	0.982115	-0.713638	0.113487
N74	N	1.315449	-0.380304	0.446821
N75	N	1.648782	-0.046971	0.780154
C76	C	0.925558	-0.686942	0.170008
C77	C	1.258892	-0.353609	0.503341
C78	C	1.592225	-0.020275	0.836674
O79	O	0.877459	-0.714574	0.218073
O80	O	1.210792	-0.381240	0.551407
O81	O	1.544125	-0.047907	0.884740
C82	C	0.925537	-0.473285	0.170015
C83	C	1.258870	-0.139951	0.503348
C84	C	1.592203	0.193382	0.836681
C85	C	0.982091	-0.446565	0.113499
C86	C	1.315424	-0.113232	0.446833
C87	C	1.648757	0.220102	0.780166
C88	C	1.095190	-0.446537	0.000470
C89	C	1.428523	-0.113204	0.333803
C90	C	1.761857	0.220130	0.667137
C91	C	1.095188	-0.393125	0.000477
C92	C	1.428521	-0.059792	0.333810
C93	C	1.761855	0.273541	0.667143
C94	C	1.038637	-0.366434	0.056994
C95	C	1.371971	-0.033100	0.390328
C96	C	1.705304	0.300233	0.723661
C97	C	0.982089	-0.393153	0.113506
C98	C	1.315422	-0.059820	0.446839
C99	C	1.648755	0.273513	0.780172
C100	C	0.868977	-0.446590	0.226531
C101	C	1.202310	-0.113257	0.559864
C102	C	1.535643	0.220077	0.893197
C103	C	0.868975	-0.393172	0.226526
C104	C	1.202308	-0.059839	0.559859
C105	C	1.535642	0.273494	0.893193
C106	C	0.925529	-0.366453	0.170011
C107	C	1.258862	-0.033119	0.503344
C108	C	1.592195	0.300214	0.836677
C109	C	0.925536	-0.313050	0.170030
C110	C	1.258869	0.020283	0.503363
C111	C	1.592202	0.353616	0.836697
N112	N	0.982080	-0.286328	0.113513
N113	N	1.315414	0.047006	0.446846
N114	N	1.648747	0.380339	0.780180
C115	C	1.038631	-0.313020	0.056995
C116	C	1.371964	0.020314	0.390328
C117	C	1.705298	0.353647	0.723662
C118	C	0.925575	-0.799115	0.170001
C119	C	1.258908	-0.465782	0.503335
C120	C	1.592242	-0.132449	0.836668
C121	C	0.925581	-0.852530	0.170001
C122	C	1.258914	-0.519196	0.503334
C123	C	1.592248	-0.185863	0.836667
C124	C	1.038682	-0.852499	0.056962
C125	C	1.372015	-0.519166	0.390295
C126	C	1.705348	-0.185832	0.723628
C127	C	1.038679	-0.799084	0.056967
C128	C	1.372012	-0.465751	0.390300
C129	C	1.705345	-0.132417	0.723633
C130	C	0.982119	-0.772393	0.113484
C131	C	1.315453	-0.439060	0.446817
C132	C	1.648786	-0.105726	0.780151
C133	C	1.038623	-0.200852	0.057013
C134	C	1.371956	0.132482	0.390347
C135	C	1.705289	0.465815	0.723680
C136	C	1.038618	-0.147435	0.057027
C137	C	1.371951	0.185898	0.390361
C138	C	1.705285	0.519231	0.723694
C139	C	0.925515	-0.147471	0.170063
C140	C	1.258848	0.185863	0.503396
C141	C	1.592182	0.519196	0.836730
C142	C	0.925522	-0.200882	0.170052
C143	C	1.258856	0.132451	0.503386
C144	C	1.592189	0.465784	0.836719
C145	C	0.982079	-0.227571	0.113521
C146	C	1.315413	0.105762	0.446854
C147	C	1.648746	0.439095	0.780187
O148	O	0.877485	-0.285396	0.218087
O149	O	1.210819	0.047937	0.551421
O150	O	1.544152	0.381270	0.884754
O151	O	1.086711	-0.285379	0.008924
O152	O	1.420045	0.047955	0.342258
O153	O	1.753378	0.381288	0.675591
C154	C	1.038644	-0.526668	0.056975
C155	C	1.371977	-0.193335	0.390308
C156	C	1.705310	0.139999	0.723642
C157	C	0.982095	-0.553388	0.113486
C158	C	1.315428	-0.220054	0.446820
C159	C	1.648762	0.113279	0.780153
C160	C	0.925544	-0.526696	0.170004
C161	C	1.258877	-0.193363	0.503338
C162	C	1.592211	0.139971	0.836671
C163	C	0.982101	-0.606802	0.113486
C164	C	1.315434	-0.273469	0.446819
C165	C	1.648768	0.059865	0.780152
C166	C	1.038652	-0.633494	0.056968
C167	C	1.371985	-0.300160	0.390301
C168	C	1.705319	0.033173	0.723635
C169	C	1.095196	-0.606771	0.000451
C170	C	1.428530	-0.273438	0.333784
C171	C	1.761863	0.059895	0.667117
C172	C	1.095194	-0.553360	0.000457
C173	C	1.428528	-0.220026	0.333790
C174	C	1.761861	0.113307	0.667124
C175	C	0.869000	-0.553418	0.226521
C176	C	1.202333	-0.220085	0.559855
C177	C	1.535666	0.113248	0.893188
C178	C	0.869007	-0.606830	0.226511
C179	C	1.202340	-0.273497	0.559844
C180	C	1.535674	0.059837	0.893178
C181	C	0.925558	-0.633522	0.169993
C182	C	1.258891	-0.300188	0.503326
C183	C	1.592224	0.033145	0.836660
C184	C	1.134102	0.000021	0.107407
C185	C	1.467435	0.333355	0.440740
C186	C	1.800769	0.666688	0.774073
C187	C	1.226397	0.000026	0.109022
C188	C	1.559731	0.333360	0.442355
C189	C	1.893064	0.666693	0.775689
N190	N	0.982132	0.120779	0.113483
N191	N	1.315465	0.454112	0.446816
N192	N	1.648798	0.787445	0.780150
C193	C	0.988206	0.000019	-0.038488
C194	C	1.321539	0.333352	0.294845
C195	C	1.654872	0.666686	0.628178
C196	C	0.986590	0.000022	-0.130784
C197	C	1.319923	0.333356	0.202550
C198	C	1.653256	0.666689	0.535883
C199	C	0.982869	0.046277	-0.343132
C200	C	1.316203	0.379610	-0.009798
C201	C	1.649536	0.712943	0.323535
C202	C	0.981343	0.046276	-0.429852
C203	C	1.314677	0.379609	-0.096519
C204	C	1.648010	0.712943	0.236815
C205	C	0.981321	-0.046241	-0.429827
C206	C	1.314654	0.287093	-0.096494
C207	C	1.647987	0.620426	0.236839
C208	C	0.982841	-0.046240	-0.343108
C209	C	1.316174	0.287094	-0.009775
C210	C	1.649507	0.620427	0.323559
C211	C	0.983619	0.000020	-0.299763
C212	C	1.316953	0.333354	0.033570
C213	C	1.650286	0.666687	0.366904
C214	C	0.980573	0.000019	-0.473202
C215	C	1.313906	0.333352	-0.139869
C216	C	1.647240	0.666686	0.193464
C217	C	0.978918	0.000018	-0.567228
C218	C	1.312252	0.333351	-0.233895
C219	C	1.645585	0.666685	0.099438
C220	C	0.985273	0.000022	-0.205731
C221	C	1.318606	0.333355	0.127602
C222	C	1.651939	0.666688	0.460936
C223	C	0.975987	0.000017	0.265523
C224	C	1.309320	0.333350	0.598856
C225	C	1.642653	0.666684	0.932190
C226	C	0.977603	0.000017	0.357818
C227	C	1.310936	0.333350	0.691151
C228	C	1.644270	0.666684	1.024485
H229	H	0.560795	0.083948	0.114876
H230	H	0.894128	0.417281	0.448209
H231	H	1.227461	0.750614	0.781542
H232	H	0.983501	0.083945	-0.307843
H233	H	1.316834	0.417278	0.025491
H234	H	1.650168	0.750611	0.358824
C235	C	0.980467	-0.097124	-0.477515
C236	C	1.313801	0.236209	-0.144182
C237	C	1.647134	0.569542	0.189151
N238	N	0.979826	-0.135451	-0.513433
N239	N	1.313160	0.197882	-0.180100
N240	N	1.646493	0.531216	0.153233
C241	C	0.980551	0.097162	-0.477558
C242	C	1.313884	0.430495	-0.144225
C243	C	1.647218	0.763828	0.189109
N244	N	0.979965	0.135491	-0.513491
N245	N	1.313298	0.468824	-0.180158
N246	N	1.646632	0.802158	0.153176
H247	H	0.822948	-0.531690	0.272544
H248	H	1.156281	-0.198357	0.605878
H249	H	1.489615	0.134976	0.939211
H250	H	0.822956	-0.628581	0.272540
H251	H	1.156289	-0.295248	0.605873
H252	H	1.489622	0.038085	0.939207
H253	H	0.983447	-0.083909	-0.307795
H254	H	1.316780	0.249424	0.025538
H255	H	1.650113	0.582757	0.358871
H256	H	0.403461	0.083945	0.112113
H257	H	0.736794	0.417278	0.445446
H258	H	1.070128	0.750611	0.778780
H259	H	0.879474	-0.125730	0.216082
H260	H	1.212808	0.207603	0.549415
H261	H	1.546141	0.540937	0.882748
C262	C	0.573111	-0.097126	0.115132
C263	C	0.906445	0.236207	0.448466
C264	C	1.239778	0.569541	0.781799
N265	N	0.609015	-0.135457	0.115764
N266	N	0.942348	0.197877	0.449097
N267	N	1.275682	0.531210	0.782431
C268	C	1.157401	-0.636142	-0.061721
C269	C	1.490734	-0.302809	0.271612
C270	C	1.824067	0.030524	0.604946
N271	N	1.204246	-0.658268	-0.108550
N272	N	1.537579	-0.324934	0.224783
N273	N	1.870913	0.008399	0.558117
H274	H	0.403408	-0.083902	0.112149
H275	H	0.736742	0.249431	0.445482
H276	H	1.070075	0.582765	0.778815
H277	H	0.879539	-0.874281	0.216029
H278	H	1.212872	-0.540948	0.549363
H279	H	1.546205	-0.207614	0.882696
C280	C	1.100841	-0.230202	-0.005172
C281	C	1.434174	0.103131	0.328161
C282	C	1.767507	0.436465	0.661494
N283	N	1.147707	-0.252308	-0.052007
N284	N	1.481040	0.081025	0.281326
N285	N	1.814373	0.414358	0.614660
C286	C	1.100831	-0.118047	-0.005150
C287	C	1.434165	0.215286	0.328184
C288	C	1.767498	0.548620	0.661517
N289	N	1.147687	-0.095913	-0.051982
N290	N	1.481020	0.237420	0.281351
N291	N	1.814354	0.570753	0.614685
H292	H	1.141246	-0.531608	-0.045563
H293	H	1.474579	-0.198275	0.287770
H294	H	1.807912	0.135058	0.621104
H295	H	1.141237	-0.371373	-0.045545
H296	H	1.474570	-0.038040	0.287788
H297	H	1.807903	0.295293	0.621121
H298	H	1.084729	-0.777332	0.010947
H299	H	1.418062	-0.443998	0.344280
H300	H	1.751396	-0.110665	0.677613
C301	C	1.100883	-0.881870	-0.005213
C302	C	1.434217	-0.548536	0.328120
C303	C	1.767550	-0.215203	0.661454
N304	N	1.147726	-0.903994	-0.052045
N305	N	1.481060	-0.570661	0.281288
N306	N	1.814393	-0.237328	0.614621
C307	C	1.157400	-0.475889	-0.061716
C308	C	1.490733	-0.142556	0.271617
C309	C	1.824066	0.190777	0.604951
N310	N	1.204262	-0.497994	-0.108557
N311	N	1.537595	-0.164661	0.224776
N312	N	1.870928	0.168672	0.558110
H313	H	0.822925	-0.468338	0.272550
H314	H	1.156259	-0.135004	0.605883
H315	H	1.489592	0.198329	0.939217
C316	C	0.863414	-0.769762	0.232242
C317	C	1.196747	-0.436429	0.565575
C318	C	1.530081	-0.103096	0.898908
N319	N	0.816618	-0.747656	0.279146
N320	N	1.149951	-0.414323	0.612480
N321	N	1.483285	-0.080989	0.945813
H322	H	0.879479	-0.222638	0.216080
H323	H	1.212812	0.110695	0.549414
H324	H	1.546146	0.444029	0.882747
H325	H	0.822915	-0.371443	0.272548
H326	H	1.156248	-0.038110	0.605882
H327	H	1.489582	0.295224	0.939215
