data_functionalizedCrystal
_audit_creation_method	'MofGen! by Chris Wilmer'
_symmetry_space_group_name_H-M	'P1'
_symmetry_Int_Tables_number	1
_symmetry_cell_setting	triclinic
loop_
_symmetry_equiv_pos_as_xyz
  x,y,z
_cell_length_a	8.597340
_cell_length_b	10.489716
_cell_length_c	7.681481
_cell_angle_alpha	84.203772
_cell_angle_beta	103.474906
_cell_angle_gamma	84.931820
loop_
_atom_site_label
_atom_site_type_symbol
_atom_site_fract_x
_atom_site_fract_y
_atom_site_fract_z
O1	O	2.101853	0.176392	0.172477
O2	O	1.638024	0.196715	0.102104
O3	O	1.880512	0.000876	0.138888
O4	O	1.859364	0.372231	0.135692
O5	O	1.910358	-0.023283	0.436274
O6	O	1.667869	0.172556	0.399489
O7	O	2.131699	0.152233	0.469862
Zn8	Zn	1.904523	0.158559	0.481892
Zn9	Zn	1.865200	0.190389	0.090074
O10	O	1.889210	0.348072	0.433078
C11	C	1.593553	0.183799	0.241785
C12	C	1.416581	0.181290	0.214934
C13	C	1.893846	-0.058724	0.287334
C14	C	1.889090	-0.200318	0.286597
C15	C	2.037794	-0.299093	0.309174
C16	C	1.944501	-0.363961	0.150631
C17	C	1.973892	-0.387744	0.443824
C18	C	1.795847	-0.263312	0.127941
C19	C	1.825274	-0.287100	0.421270
C20	C	1.731868	-0.351915	0.262674
C21	C	2.176169	0.165149	0.330177
C22	C	2.353140	0.167659	0.357017
C23	C	1.875877	0.407672	0.284628
C24	C	1.880631	0.549267	0.285353
N25	N	1.931371	0.136834	0.749299
N26	N	1.838364	0.212103	-0.177331
H27	H	1.335495	0.191043	0.072732
C28	C	2.005833	-0.542617	-0.003886
C29	C	2.012428	-0.409718	-0.003862
H30	H	2.047765	-0.570857	-0.099268
H31	H	2.068041	-0.586855	0.108071
H32	H	1.897212	-0.560264	-0.020509
H33	H	2.121051	-0.392072	0.012774
H34	H	1.950221	-0.365466	-0.115847
C35	C	2.212133	0.057073	0.848940
C36	C	2.059557	0.033115	0.870253
H37	H	2.291265	-0.006956	0.923620
H38	H	2.215026	0.054706	0.726442
H39	H	2.233592	0.139712	0.882333
H40	H	2.038093	-0.049521	0.836847
H41	H	2.056661	0.035469	0.992778
H42	H	2.049137	-0.441751	0.577307
C43	C	2.306247	-0.332385	0.499326
C44	C	2.212375	-0.267041	0.335426
H45	H	2.414021	-0.312598	0.515503
H46	H	2.264137	-0.306192	0.595635
H47	H	2.304264	-0.422687	0.497979
H48	H	2.214348	-0.176738	0.336778
H49	H	2.254496	-0.293227	0.239092
H50	H	1.743422	0.288931	0.733070
H51	H	1.434218	0.157898	0.499209
H52	H	1.720654	-0.209462	-0.005672
H53	H	1.602417	-0.375382	0.242955
H54	H	1.774996	-0.253189	0.535719
