data_functionalizedCrystal
_audit_creation_method	'MofGen! by Chris Wilmer'
_symmetry_space_group_name_H-M	'P1'
_symmetry_Int_Tables_number	1
_symmetry_cell_setting	triclinic
loop_
_symmetry_equiv_pos_as_xyz
  x,y,z
_cell_length_a	15.944551
_cell_length_b	14.044220
_cell_length_c	12.503552
_cell_angle_alpha	86.160109
_cell_angle_beta	86.481026
_cell_angle_gamma	91.656192
loop_
_atom_site_label
_atom_site_type_symbol
_atom_site_fract_x
_atom_site_fract_y
_atom_site_fract_z
O1	O	0.198066	-1.263185	0.089211
O2	O	0.448066	-1.013185	0.339211
O3	O	0.698066	-0.763185	0.589211
O4	O	0.948066	-0.513185	0.839211
O5	O	0.190757	-0.987217	0.089238
O6	O	0.440757	-0.737217	0.339238
O7	O	0.690757	-0.487217	0.589238
O8	O	0.940757	-0.237217	0.839238
O9	O	0.072701	-1.132736	0.089214
O10	O	0.322701	-0.882736	0.339214
O11	O	0.572701	-0.632736	0.589214
O12	O	0.822701	-0.382736	0.839214
O13	O	0.316122	-1.117665	0.089235
O14	O	0.566122	-0.867665	0.339235
O15	O	0.816122	-0.617665	0.589235
O16	O	1.066122	-0.367665	0.839235
O17	O	0.081588	-1.121780	-0.089427
O18	O	0.331588	-0.871780	0.160573
O19	O	0.581588	-0.621780	0.410573
O20	O	0.831588	-0.371780	0.660573
O21	O	0.199643	-0.976260	-0.089403
O22	O	0.449643	-0.726260	0.160597
O23	O	0.699643	-0.476260	0.410597
O24	O	0.949643	-0.226260	0.660597
O25	O	0.206952	-1.252228	-0.089430
O26	O	0.456952	-1.002228	0.160570
O27	O	0.706952	-0.752228	0.410570
O28	O	0.956952	-0.502228	0.660570
Cu29	Cu	0.204109	-1.113244	-0.105728
Cu30	Cu	0.454109	-0.863244	0.144272
Cu31	Cu	0.704109	-0.613244	0.394272
Cu32	Cu	0.954109	-0.363244	0.644272
Cu33	Cu	0.193600	-1.126201	0.105535
Cu34	Cu	0.443600	-0.876201	0.355535
Cu35	Cu	0.693600	-0.626201	0.605535
Cu36	Cu	0.943600	-0.376201	0.855535
O37	O	0.325008	-1.106709	-0.089406
O38	O	0.575008	-0.856709	0.160594
O39	O	0.825008	-0.606709	0.410594
O40	O	1.075008	-0.356709	0.660594
C41	C	0.192001	-0.946424	-0.000079
C42	C	0.442001	-0.696424	0.249921
C43	C	0.692001	-0.446424	0.499921
C44	C	0.942001	-0.196424	0.749921
C45	C	0.182459	-0.841198	-0.000069
C46	C	0.432459	-0.591198	0.249931
C47	C	0.682459	-0.341198	0.499931
C48	C	0.932459	-0.091198	0.749931
C49	C	0.045804	-1.126632	-0.000107
C50	C	0.295804	-0.876632	0.249893
C51	C	0.545804	-0.626632	0.499893
C52	C	0.795804	-0.376632	0.749893
C53	C	-0.047583	-1.124756	-0.000107
C54	C	0.202417	-0.874756	0.249893
C55	C	0.452417	-0.624756	0.499893
C56	C	0.702417	-0.374756	0.749893
C57	C	0.205708	-1.293021	-0.000111
C58	C	0.455708	-1.043021	0.249889
C59	C	0.705708	-0.793021	0.499889
C60	C	0.955708	-0.543021	0.749889
C61	C	0.215249	-1.398247	-0.000114
C62	C	0.465249	-1.148247	0.249886
C63	C	0.715249	-0.898247	0.499886
C64	C	0.965249	-0.648247	0.749886
C65	C	-0.269530	-1.030073	-0.000083
C66	C	-0.019530	-0.780073	0.249917
C67	C	0.230470	-0.530073	0.499917
C68	C	0.480470	-0.280073	0.749917
C69	C	-0.322874	-1.068639	-0.088168
C70	C	-0.072874	-0.818639	0.161832
C71	C	0.177126	-0.568639	0.411832
C72	C	0.427126	-0.318639	0.661832
C73	C	-0.218563	-1.121363	-0.000099
C74	C	0.031437	-0.871363	0.249901
C75	C	0.281437	-0.621363	0.499901
C76	C	0.531437	-0.371363	0.749901
C77	C	-0.331617	-1.079463	0.087958
C78	C	-0.081617	-0.829463	0.337958
C79	C	0.168383	-0.579463	0.587958
C80	C	0.418383	-0.329463	0.837958
C81	C	-0.383722	-1.118079	-0.000086
C82	C	-0.133722	-0.868079	0.249914
C83	C	0.116278	-0.618079	0.499914
C84	C	0.366278	-0.368079	0.749914
C85	C	-0.270673	-1.159950	-0.088256
C86	C	-0.020673	-0.909950	0.161744
C87	C	0.229327	-0.659950	0.411744
C88	C	0.479327	-0.409950	0.661744
C89	C	-0.279414	-1.170766	0.087949
C90	C	-0.029414	-0.920766	0.337949
C91	C	0.220586	-0.670766	0.587949
C92	C	0.470586	-0.420766	0.837949
C93	C	-0.332734	-1.209396	-0.000158
C94	C	-0.082734	-0.959396	0.249842
C95	C	0.167266	-0.709396	0.499842
C96	C	0.417266	-0.459396	0.749842
C97	C	-0.123419	-1.123252	-0.000107
C98	C	0.126581	-0.873252	0.249893
C99	C	0.376581	-0.623252	0.499893
C100	C	0.626581	-0.373252	0.749893
C101	C	-0.478865	-1.116197	-0.000085
C102	C	-0.228865	-0.866197	0.249915
C103	C	0.021135	-0.616197	0.499915
C104	C	0.271135	-0.366197	0.749915
C105	C	0.351905	-1.112813	-0.000083
C106	C	0.601905	-0.862813	0.249917
C107	C	0.851905	-0.612813	0.499917
C108	C	1.101905	-0.362813	0.749917
C109	C	0.445291	-1.114689	-0.000076
C110	C	0.695291	-0.864689	0.249924
C111	C	0.945291	-0.614689	0.499924
C112	C	1.195291	-0.364689	0.749924
N113	N	0.211500	-1.104137	-0.254319
N114	N	0.461500	-0.854137	-0.004319
N115	N	0.711500	-0.604137	0.245681
N116	N	0.961500	-0.354137	0.495681
C117	C	0.165017	-0.648534	-0.000092
C118	C	0.415017	-0.398534	0.249908
C119	C	0.665017	-0.148534	0.499908
C120	C	0.915017	0.101466	0.749908
C121	C	0.232688	-0.590906	-0.000091
C122	C	0.482688	-0.340906	0.249909
C123	C	0.732688	-0.090906	0.499909
C124	C	0.982688	0.159094	0.749909
C125	C	0.222983	-0.483701	-0.000104
C126	C	0.472983	-0.233701	0.249896
C127	C	0.722983	0.016299	0.499896
C128	C	0.972983	0.266299	0.749896
C129	C	0.174721	-0.755749	-0.000079
C130	C	0.424721	-0.505749	0.249921
C131	C	0.674721	-0.255749	0.499921
C132	C	0.924721	-0.005749	0.749921
C133	C	0.175327	-1.148707	-0.526760
C134	C	0.425327	-0.898707	-0.276760
C135	C	0.675327	-0.648707	-0.026760
C136	C	0.925327	-0.398707	0.223240
C137	C	0.222374	-1.090749	-0.473426
C138	C	0.472374	-0.840749	-0.223426
C139	C	0.722374	-0.590749	0.026574
C140	C	0.972374	-0.340749	0.276574
C141	C	0.216322	-1.098200	-0.351504
C142	C	0.466322	-0.848200	-0.101504
C143	C	0.716322	-0.598200	0.148496
C144	C	0.966322	-0.348200	0.398496
C145	C	0.181377	-1.141257	-0.648693
C146	C	0.431377	-0.891257	-0.398693
C147	C	0.681377	-0.641257	-0.148693
C148	C	0.931377	-0.391257	0.101307
N149	N	0.186203	-1.135315	0.254127
N150	N	0.436203	-0.885315	0.504127
N151	N	0.686203	-0.635315	0.754127
N152	N	0.936203	-0.385315	1.004127
H153	H	-0.241893	-0.954293	-0.000164
H154	H	0.008107	-0.704293	0.249836
H155	H	0.258107	-0.454293	0.499836
H156	H	0.508107	-0.204293	0.749836
C157	C	-0.369863	-1.311847	-0.000238
C158	C	-0.119863	-1.061847	0.249762
C159	C	0.130137	-0.811847	0.499762
C160	C	0.380137	-0.561847	0.749762
N161	N	-0.397832	-1.389011	-0.000304
N162	N	-0.147832	-1.139011	0.249696
N163	N	0.102168	-0.889011	0.499696
N164	N	0.352168	-0.639011	0.749696
H165	H	-0.358290	-1.045406	0.162432
H166	H	-0.108290	-0.795406	0.412432
H167	H	0.141710	-0.545406	0.662432
H168	H	0.391710	-0.295406	0.912432
H169	H	0.099799	-0.617360	-0.000104
H170	H	0.349799	-0.367360	0.249896
H171	H	0.599799	-0.117360	0.499896
H172	H	0.849799	0.132640	0.749896
H173	H	0.297911	-0.622081	-0.000080
H174	H	0.547911	-0.372081	0.249920
H175	H	0.797911	-0.122081	0.499920
H176	H	1.047911	0.127919	0.749920
C177	C	-0.253317	-1.229054	0.188549
C178	C	-0.003317	-0.979054	0.438549
C179	C	0.246683	-0.729054	0.688549
C180	C	0.496683	-0.479054	0.938549
N181	N	-0.233659	-1.272950	0.264330
N182	N	0.016341	-1.022950	0.514330
N183	N	0.266341	-0.772950	0.764330
N184	N	0.516341	-0.522950	1.014330
H185	H	-0.342169	-1.025460	-0.162629
H186	H	-0.092169	-0.775460	0.087371
H187	H	0.157831	-0.525460	0.337371
H188	H	0.407831	-0.275460	0.587371
H189	H	0.267197	-1.035535	-0.519333
H190	H	0.517197	-0.785535	-0.269333
H191	H	0.767197	-0.535535	-0.019333
H192	H	1.017197	-0.285535	0.230667
H193	H	-0.244085	-1.193957	-0.162807
H194	H	0.005915	-0.943957	0.087193
H195	H	0.255915	-0.693957	0.337193
H196	H	0.505915	-0.443957	0.587193
C197	C	0.114770	-1.223287	-0.464745
C198	C	0.364770	-0.973287	-0.214745
C199	C	0.614770	-0.723287	0.035255
C200	C	0.864770	-0.473287	0.285255
N201	N	0.069157	-1.279460	-0.418023
N202	N	0.319157	-1.029460	-0.168023
N203	N	0.569157	-0.779460	0.081977
N204	N	0.819157	-0.529460	0.331977
