data_functionalizedCrystal
_audit_creation_method	'MofGen! by Chris Wilmer'
_symmetry_space_group_name_H-M	'P1'
_symmetry_Int_Tables_number	1
_symmetry_cell_setting	triclinic
loop_
_symmetry_equiv_pos_as_xyz
  x,y,z
_cell_length_a	18.215407
_cell_length_b	15.297327
_cell_length_c	18.215399
_cell_angle_alpha	99.648308
_cell_angle_beta	89.980167
_cell_angle_gamma	99.707397
loop_
_atom_site_label
_atom_site_type_symbol
_atom_site_fract_x
_atom_site_fract_y
_atom_site_fract_z
Zn1	Zn	1.074360	-0.359166	-0.466794
Zn2	Zn	1.052966	-0.510038	-0.365016
Zn3	Zn	0.951288	-0.359195	-0.343746
Zn4	Zn	0.929963	-0.509988	-0.488034
O5	O	1.002144	-0.434597	-0.415897
O6	O	1.174505	-0.379188	-0.453306
O7	O	1.039449	-0.490062	-0.259215
O8	O	0.985492	-0.232944	-0.342278
O9	O	1.158787	-0.490033	-0.378530
O10	O	1.075912	-0.232922	-0.432681
O11	O	0.964747	-0.379238	-0.243588
O12	O	0.845476	-0.379190	-0.362873
O13	O	0.949146	-0.489948	-0.588196
O14	O	0.829808	-0.489976	-0.468881
O15	O	1.055234	-0.379139	-0.572591
O16	O	1.018771	-0.636279	-0.399125
O17	O	0.928401	-0.636242	-0.489506
C18	C	0.810940	-0.434581	-0.415874
C19	C	0.729139	-0.434597	-0.415885
C20	C	0.532793	-0.492374	-0.471037
C21	C	0.455934	-0.492377	-0.471046
C22	C	0.472244	-0.376836	-0.360776
C23	C	0.549103	-0.376830	-0.360771
C24	C	0.579374	-0.434603	-0.415900
C25	C	0.425657	-0.434613	-0.415916
C26	C	0.342323	-0.434616	-0.415926
C27	C	0.662714	-0.434600	-0.415891
C28	C	0.968970	-0.668995	-0.448944
C29	C	0.954846	-0.769272	-0.463106
C30	C	1.103397	-1.051887	-0.314929
C31	C	1.116667	-0.957672	-0.301619
C32	C	1.076213	-0.910567	-0.341990
C33	C	1.022486	-0.957687	-0.395673
C34	C	1.009211	-1.051911	-0.408980
C35	C	0.982027	-0.910591	-0.436041
C36	C	0.928300	-0.957711	-0.489723
C37	C	0.915027	-1.051926	-0.503028
C38	C	0.955481	-1.099031	-0.462658
C39	C	0.995303	-0.816367	-0.422734
C40	C	0.901116	-0.816392	-0.516784
C41	C	0.887846	-0.910606	-0.530094
C42	C	1.194095	-0.434613	-0.415921
C43	C	1.275892	-0.434620	-0.415931
C44	C	1.002198	-0.434535	-0.607842
C45	C	1.002220	-0.434508	-0.689637
C46	C	1.035467	-0.199283	-0.382738
C47	C	1.049667	-0.099006	-0.368607
C48	C	1.057485	-0.376756	-0.869699
C49	C	1.057497	-0.376730	-0.946554
C50	C	0.947028	-0.492120	-0.962793
C51	C	0.947013	-0.492141	-0.885938
C52	C	1.002245	-0.434461	-0.839394
C53	C	1.002273	-0.434413	-0.993103
C54	C	1.002286	-0.434385	-1.076433
C55	C	1.002232	-0.434487	-0.756058
C56	C	1.002142	-0.434594	-0.224691
C57	C	1.002298	-0.434366	-0.142860
H58	H	1.039047	-0.778011	-0.379024
H59	H	0.902061	-0.539084	-1.000699
C60	C	0.955215	-1.233915	-0.551739
C61	C	0.940903	-1.202597	-0.477289
H62	H	0.946223	-1.297853	-0.560768
H63	H	0.923425	-1.212618	-0.583455
H64	H	1.005710	-1.212523	-0.561479
H65	H	0.890407	-1.223983	-0.467550
H66	H	0.972694	-1.223903	-0.445563
C67	C	0.823263	-1.042484	-0.594660
C68	C	0.855966	-1.103721	-0.562033
H69	H	0.786805	-1.074462	-0.631090
H70	H	0.800301	-1.005791	-0.557390
H71	H	0.860505	-1.005680	-0.617640
H72	H	0.818725	-1.140522	-0.539048
H73	H	0.878928	-1.140430	-0.599310
C74	C	0.837821	-0.606212	-0.909705
C75	C	0.886291	-0.555579	-0.852622
H76	H	0.800339	-0.645375	-0.889135
H77	H	0.815240	-0.566898	-0.934136
H78	H	0.865012	-0.640713	-0.944551
H79	H	0.859100	-0.521073	-0.817779
H80	H	0.908873	-0.594898	-0.828179
H81	H	1.136324	-1.090248	-0.282060
C82	C	0.454776	-0.332696	-0.229997
C83	C	0.438966	-0.313339	-0.300176
H84	H	0.434235	-0.293492	-0.192585
H85	H	0.433599	-0.393290	-0.227697
H86	H	0.507218	-0.324420	-0.222112
H87	H	0.386523	-0.321622	-0.308064
H88	H	0.460139	-0.252731	-0.302478
H89	H	1.102457	-0.329786	-0.831804
C90	C	0.905774	-0.710378	-0.600804
C91	C	0.856646	-0.764626	-0.561168
H92	H	0.878320	-0.678421	-0.628204
H93	H	0.939666	-0.668836	-0.566932
H94	H	0.932646	-0.747091	-0.634165
H95	H	0.829778	-0.727912	-0.527803
H96	H	0.822741	-0.806172	-0.595044
C97	C	0.508950	-0.606570	-0.580040
C98	C	0.566070	-0.555868	-0.531641
H99	H	0.529495	-0.645763	-0.617459
H100	H	0.474086	-0.641034	-0.552794
H101	H	0.484539	-0.567296	-0.602701
H102	H	0.590478	-0.595142	-0.508976
H103	H	0.600947	-0.521401	-0.558891
C104	C	1.114985	-0.223961	-0.948686
C105	C	1.118221	-0.313299	-0.979862
H106	H	1.152479	-0.184800	-0.969245
H107	H	1.067417	-0.210755	-0.959416
H108	H	1.122878	-0.215736	-0.896254
H109	H	1.110323	-0.321525	-1.032294
H110	H	1.165801	-0.326509	-0.969137
H111	H	0.844101	-0.948985	-0.573803
H112	H	1.087021	-0.833853	-0.331149
H113	H	0.587032	-0.329780	-0.315871
C114	C	0.330877	-0.543684	-0.520023
C115	C	0.404731	-0.555880	-0.531653
H116	H	0.299268	-0.582886	-0.557445
H117	H	0.316404	-0.556814	-0.472418
H118	H	0.326870	-0.483082	-0.522333
H119	H	0.408739	-0.616480	-0.529339
H120	H	0.419208	-0.542757	-0.579271
C121	C	1.208437	-0.967119	-0.210001
C122	C	1.175728	-0.905881	-0.242622
H123	H	1.244905	-0.935143	-0.173582
H124	H	1.171206	-1.003918	-0.187017
H125	H	1.231395	-1.003818	-0.247283
H126	H	1.152766	-0.869186	-0.205340
H127	H	1.212966	-0.869066	-0.265605
