data_functionalizedCrystal
_audit_creation_method	'MofGen! by Chris Wilmer'
_symmetry_space_group_name_H-M	'P1'
_symmetry_Int_Tables_number	1
_symmetry_cell_setting	triclinic
loop_
_symmetry_equiv_pos_as_xyz
  x,y,z
_cell_length_a	14.853569
_cell_length_b	14.853567
_cell_length_c	9.130313
_cell_angle_alpha	89.999276
_cell_angle_beta	89.998450
_cell_angle_gamma	83.635248
loop_
_atom_site_label
_atom_site_type_symbol
_atom_site_fract_x
_atom_site_fract_y
_atom_site_fract_z
O1	O	1.196363	0.117711	-0.121720
O2	O	0.933903	0.131731	-0.121736
O3	O	1.072144	-0.006509	-0.121732
O4	O	1.058122	0.255950	-0.121724
O5	O	1.072134	-0.006513	0.121867
O6	O	0.933894	0.131727	0.121863
O7	O	1.196353	0.117707	0.121879
Cu8	Cu	1.065123	0.124716	0.144114
Cu9	Cu	1.065134	0.124721	-0.143970
O10	O	1.058113	0.255946	0.121875
C11	C	0.900310	0.131093	0.000061
C12	C	0.800226	0.129189	0.000055
C13	C	1.071504	-0.040100	0.000063
C14	C	1.069600	-0.140183	0.000051
C15	C	0.763850	0.046178	0.000047
C16	C	0.742560	0.210410	0.000068
C17	C	0.648526	0.208624	0.000070
C18	C	0.612150	0.125613	0.000062
C19	C	0.669807	0.044389	0.000053
C20	C	0.590862	0.289847	0.000094
C21	C	0.496821	0.288064	0.000097
C22	C	0.460443	0.205052	0.000079
C23	C	0.518107	0.123824	0.000068
C24	C	0.481730	0.040813	0.000061
C25	C	0.539393	-0.040415	0.000039
C26	C	0.633429	-0.038623	0.000035
C27	C	0.366407	0.203259	0.000084
C28	C	0.387688	0.039024	0.000067
C29	C	0.979434	-0.552718	0.000073
C30	C	1.143667	-0.573998	0.000083
C31	C	1.145457	-0.479964	0.000074
C32	C	1.064234	-0.422303	0.000067
C33	C	0.981222	-0.458675	0.000069
C34	C	1.228468	-0.443585	0.000088
C35	C	1.230262	-0.349545	0.000081
C36	C	1.149038	-0.291882	0.000063
C37	C	1.066022	-0.328260	0.000063
C38	C	0.984800	-0.270599	0.000056
C39	C	0.901783	-0.306974	0.000046
C40	C	0.899998	-0.401012	0.000051
C41	C	1.150822	-0.197845	0.000058
C42	C	0.986587	-0.176556	0.000052
C43	C	1.229947	0.118344	0.000079
C44	C	1.330030	0.120249	0.000076
C45	C	1.058753	0.289537	0.000077
C46	C	1.060657	0.389621	0.000080
N47	N	1.065121	0.124712	0.346736
N48	N	1.065142	0.124718	-0.346593
C49	C	1.126355	0.063526	0.423390
C50	C	1.126363	0.063526	0.576727
C51	C	1.003902	0.185908	0.576743
C52	C	1.003890	0.185902	0.423409
H53	H	0.358078	-0.028574	0.000052
H54	H	0.319463	0.269395	0.000114
H55	H	0.509763	-0.108003	0.000024
H56	H	0.954022	0.235728	0.360993
H57	H	0.835651	-0.260014	0.000050
H58	H	0.680385	-0.104755	0.000020
H59	H	0.810802	-0.019956	0.000024
H60	H	1.176224	0.013701	0.639134
Cl61	Cl	0.795644	-0.446748	0.000034
H62	H	0.772184	0.277994	0.000085
Cl63	Cl	1.203328	-0.013402	0.327008
Cl64	Cl	1.255177	-0.152118	0.000098
H65	H	0.920445	-0.129613	0.000040
H66	H	0.911844	-0.582339	0.000058
H67	H	0.620487	0.357430	0.000110
Cl68	Cl	0.926933	0.262832	0.673138
H69	H	0.449880	0.354205	0.000112
Cl70	Cl	1.245769	-0.646486	0.000116
H71	H	1.294595	-0.490539	0.000107
Cl72	Cl	1.334623	-0.303824	0.000070
