data_functionalizedCrystal
_audit_creation_method	'MofGen! by Chris Wilmer'
_symmetry_space_group_name_H-M	'P1'
_symmetry_Int_Tables_number	1
_symmetry_cell_setting	triclinic
loop_
_symmetry_equiv_pos_as_xyz
  x,y,z
_cell_length_a	16.176319
_cell_length_b	27.732064
_cell_length_c	17.699083
_cell_angle_alpha	82.966219
_cell_angle_beta	89.995661
_cell_angle_gamma	90.001664
loop_
_atom_site_label
_atom_site_type_symbol
_atom_site_fract_x
_atom_site_fract_y
_atom_site_fract_z
O1	O	-0.068601	0.641247	0.090116
O2	O	0.431399	1.141247	0.590116
O3	O	-0.068635	0.500504	0.103796
O4	O	0.431365	1.000504	0.603796
O5	O	-0.068610	0.574852	-0.013268
O6	O	0.431390	1.074852	0.486732
O7	O	-0.068626	0.566899	0.207180
O8	O	0.431374	1.066899	0.707180
O9	O	0.068883	0.574843	-0.013268
O10	O	0.568883	1.074843	0.486732
O11	O	0.068858	0.500495	0.103796
O12	O	0.568858	1.000495	0.603796
O13	O	0.068892	0.641238	0.090116
O14	O	0.568892	1.141238	0.590116
Cu15	Cu	0.081429	0.570866	0.096956
Cu16	Cu	0.581429	1.070866	0.596956
Cu17	Cu	-0.081172	0.570876	0.096956
Cu18	Cu	0.418828	1.070876	0.596956
O19	O	0.068867	0.566890	0.207180
O20	O	0.568867	1.066890	0.707180
C21	C	0.000107	0.482492	0.103507
C22	C	0.500107	0.982492	0.603507
C23	C	0.000094	0.428834	0.102636
C24	C	0.500094	0.928834	0.602636
N25	N	0.195795	0.570862	0.096955
N26	N	0.695795	1.070862	0.596955
C27	C	0.000147	0.051491	0.027531
C28	C	0.500147	0.551491	0.527531
C29	C	0.000125	0.253163	0.030735
C30	C	0.500125	0.753163	0.530735
O31	O	0.000161	0.284206	-0.027544
O32	O	0.500161	0.784206	0.472456
N33	N	0.000116	0.272540	0.100152
N34	N	0.500116	0.772540	0.600152
C35	C	0.000118	0.241496	0.168773
C36	C	0.500118	0.741496	0.668773
O37	O	0.000119	0.262605	0.227889
O38	O	0.500119	0.762605	0.727889
C39	C	0.000146	0.039825	0.165568
C40	C	0.500146	0.539825	0.665568
C41	C	0.000147	0.020451	0.096147
C42	C	0.500147	0.520451	0.596147
C43	C	0.000149	0.032117	-0.041884
C44	C	0.500149	0.532117	0.458116
C45	C	0.000149	-0.018298	-0.042685
C46	C	0.500149	0.481702	0.457315
C47	C	0.000149	-0.049339	0.025931
C48	C	0.500149	0.450661	0.525931
C49	C	0.000148	-0.029964	0.095346
C50	C	0.500148	0.470036	0.595346
C51	C	0.000154	0.008782	0.234188
C52	C	0.500154	0.508782	0.734188
C53	C	0.000163	-0.041639	0.233381
C54	C	0.500163	0.458361	0.733381
C55	C	0.000164	-0.061013	0.163959
C56	C	0.500164	0.438987	0.663959
C57	C	0.000148	-0.111419	0.163162
C58	C	0.500148	0.388581	0.663162
N59	N	0.000157	-0.130796	0.093745
N60	N	0.500157	0.369204	0.593745
C61	C	0.000157	-0.099756	0.025129
C62	C	0.500157	0.400244	0.525129
C63	C	0.000102	0.347376	0.170450
C64	C	0.500102	0.847376	0.670450
C65	C	0.000094	0.397794	0.171252
C66	C	0.500094	0.897794	0.671252
C67	C	0.000102	0.409458	0.033214
C68	C	0.500102	0.909458	0.533214
C69	C	0.000105	0.359039	0.032413
C70	C	0.500105	0.859039	0.532413
C71	C	0.000111	0.327999	0.101034
C72	C	0.500111	0.827999	0.601034
C73	C	0.000159	-0.205632	0.023454
C74	C	0.500159	0.294368	0.523454
C75	C	0.000156	-0.256052	0.022660
C76	C	0.500156	0.243948	0.522660
C77	C	0.000152	-0.267711	0.160697
C78	C	0.500152	0.232289	0.660697
C79	C	0.000150	-0.217295	0.161492
C80	C	0.500150	0.282705	0.661492
C81	C	0.000156	-0.186256	0.092864
C82	C	0.500156	0.313744	0.592864
O83	O	0.000122	-0.142491	0.221410
O84	O	0.500122	0.357509	0.721410
O85	O	0.000175	-0.120874	-0.033979
O86	O	0.500175	0.379126	0.466021
C87	C	0.000146	0.101906	0.028332
C88	C	0.500146	0.601906	0.528332
C89	C	0.000145	0.121281	0.097747
C90	C	0.500145	0.621281	0.597747
C91	C	0.000144	0.090241	0.166363
C92	C	0.500144	0.590241	0.666363
C93	C	0.000136	0.171698	0.098549
C94	C	0.500136	0.671698	0.598549
C95	C	0.000137	0.202739	0.029933
C96	C	0.500137	0.702739	0.529933
C97	C	0.000146	0.183362	-0.039484
C98	C	0.500146	0.683362	0.460516
C99	C	0.000147	0.132947	-0.040284
C100	C	0.500147	0.632947	0.459716
C101	C	0.000135	0.109618	0.235779
C102	C	0.500135	0.609618	0.735779
C103	C	0.000134	0.160033	0.236574
C104	C	0.500134	0.660033	0.736574
C105	C	0.000134	0.191074	0.167959
C106	C	0.500134	0.691074	0.667959
N107	N	-0.195537	0.570884	0.096951
N108	N	0.304463	1.070884	0.596951
C109	C	0.239059	0.600122	0.142548
C110	C	0.739059	1.100122	0.642548
C111	C	0.325606	0.600127	0.142545
C112	C	0.825606	1.100127	0.642545
C113	C	0.368887	0.570870	0.096953
C114	C	0.868887	1.070870	0.596953
C115	C	0.325617	0.541609	0.051354
C116	C	0.825617	1.041609	0.551354
C117	C	0.239071	0.541607	0.051353
C118	C	0.739071	1.041607	0.551353
C119	C	0.674645	0.541618	0.051355
C120	C	1.174645	1.041618	0.551355
C121	C	0.761197	0.541622	0.051361
C122	C	1.261197	1.041622	0.551361
C123	C	0.761180	0.600138	0.142547
C124	C	1.261180	1.100138	0.642547
C125	C	0.674635	0.600136	0.142546
C126	C	1.174635	1.100136	0.642546
C127	C	0.631372	0.570877	0.096945
C128	C	1.131372	1.070877	0.596945
C129	C	0.537527	0.570873	0.096948
C130	C	1.037527	1.070873	0.596948
C131	C	0.462730	0.570871	0.096954
C132	C	0.962730	1.070871	0.596954
C133	C	0.000137	0.574563	-0.041463
C134	C	0.500137	1.074563	0.458537
C135	C	0.000137	0.573708	-0.125473
C136	C	0.500137	1.073708	0.374527
C137	C	0.000148	0.659251	0.090405
C138	C	0.500148	1.159251	0.590405
C139	C	0.000156	0.712908	0.091275
C140	C	0.500156	1.212908	0.591275
C141	C	0.000149	0.617348	-0.174475
C142	C	0.500149	1.117348	0.325525
C143	C	0.000141	0.616542	-0.253411
C144	C	0.500141	1.116542	0.246589
C145	C	0.000128	0.572095	-0.283344
C146	C	0.500128	1.072095	0.216656
C147	C	0.000114	0.528451	-0.234336
C148	C	0.500114	1.028451	0.265664
C149	C	0.000115	0.529258	-0.155402
C150	C	0.500115	1.029258	0.344598
C151	C	0.000106	0.525197	-0.552671
C152	C	0.500106	1.025197	-0.052671
C153	C	0.000107	0.524394	-0.631612
C154	C	0.500107	1.024394	-0.131612
C155	C	0.000132	0.612481	-0.650681
C156	C	0.500132	1.112481	-0.150681
C157	C	0.000134	0.613288	-0.571746
C158	C	0.500134	1.113288	-0.071746
C159	C	0.000115	0.569644	-0.522745
C160	C	0.500115	1.069644	-0.022745
C161	C	0.000122	0.570519	-0.437153
C162	C	0.500122	1.070519	0.062847
C163	C	0.000127	0.571220	-0.368934
C164	C	0.500127	1.071220	0.131066
C165	C	0.000119	0.567180	0.235374
C166	C	0.500119	1.067180	0.735374
C167	C	0.000113	0.568035	0.319385
C168	C	0.500113	1.068035	0.819385
H169	H	0.000163	-0.180365	-0.032429
H170	H	0.500163	0.319635	0.467571
O171	O	0.000143	0.180928	0.311454
O172	O	0.500143	0.680928	0.811454
H173	H	0.000155	0.150869	0.359028
H174	H	0.500155	0.650869	0.859028
H175	H	0.000098	0.492261	-0.258714
H176	H	0.500098	0.992261	0.241286
O177	O	0.372268	0.631683	0.191727
O178	O	0.872268	1.131683	0.691727
H179	H	0.411693	0.657711	0.155166
H180	H	0.911693	1.157711	0.655166
H181	H	0.000153	-0.034068	-0.099215
H182	H	0.500153	0.465932	0.400785
O183	O	0.000164	0.665290	-0.142197
O184	O	0.500164	1.165290	0.357803
H185	H	0.000171	0.658522	-0.079076
H186	H	0.500171	1.158522	0.420924
H187	H	0.796434	0.517796	0.014231
H188	H	1.296434	1.017796	0.514231
H189	H	0.000172	-0.066909	0.289261
H190	H	0.500172	0.433091	0.789261
H191	H	0.000149	0.649482	-0.547379
H192	H	0.500149	1.149482	-0.047379
H193	H	0.000154	-0.271823	-0.033874
H194	H	0.500154	0.228177	0.466126
O195	O	0.000119	0.338143	-0.042461
O196	O	0.500119	0.838143	0.457539
H197	H	0.000125	0.368202	-0.090034
H198	H	0.500125	0.868202	0.409966
O199	O	0.627950	0.631690	0.191722
O200	O	1.127950	1.131690	0.691722
H201	H	0.672576	0.652041	0.223422
H202	H	1.172576	1.152041	0.723422
O203	O	0.000090	0.478124	-0.499830
O204	O	0.500090	0.978124	0.000170
H205	H	0.000082	0.486148	-0.439911
H206	H	0.500082	0.986148	0.060089
O207	O	0.807840	0.631707	0.191720
O208	O	1.307840	1.131707	0.691720
H209	H	0.875292	0.626801	0.184055
H210	H	1.375292	1.126801	0.684055
H211	H	0.000153	0.652079	-0.293306
H212	H	0.500153	1.152079	0.206694
H213	H	0.203826	0.623943	0.179680
H214	H	0.703826	1.123943	0.679680
O215	O	0.627987	0.510057	0.002182
O216	O	1.127987	1.010057	0.502182
H217	H	0.672625	0.489709	-0.029511
H218	H	1.172625	0.989709	0.470489
H219	H	0.360863	0.517790	0.014228
H220	H	0.860863	1.017790	0.514228
O221	O	0.000094	0.476451	-0.663899
O222	O	0.500094	0.976451	-0.163899
H223	H	-0.055941	0.473986	-0.699411
H224	H	0.444059	0.973986	-0.199411
H225	H	0.203846	0.517781	0.014227
H226	H	0.703846	1.017781	0.514227
O227	O	0.000103	0.313899	0.244466
O228	O	0.500103	0.813899	0.744466
H229	H	0.000088	0.335849	0.292864
H230	H	0.500088	0.835849	0.792864
O231	O	0.000114	0.482187	-0.102547
O232	O	0.500114	0.982187	0.397453
H233	H	-0.055927	0.460913	-0.113124
H234	H	0.444073	0.960913	0.386876
O235	O	0.000148	0.065593	-0.115897
O236	O	0.500148	0.565593	0.384103
H237	H	0.000146	0.043642	-0.164293
H238	H	0.500146	0.543642	0.335707
O239	O	0.000115	0.442941	-0.040796
O240	O	0.500115	0.942941	0.459204
H241	H	0.000118	0.481253	-0.028569
H242	H	0.500118	0.981253	0.471431
H243	H	0.000143	0.648018	-0.690587
H244	H	0.500143	1.148018	-0.190587
H245	H	0.000082	0.413563	0.227781
H246	H	0.500082	0.913563	0.727781
O247	O	0.000174	0.029671	0.309064
O248	O	0.500174	0.529671	0.809064
H249	H	0.000192	-0.000390	0.356634
H250	H	0.500192	0.499610	0.856634
O251	O	0.000149	0.216849	-0.113490
O252	O	0.500149	0.716849	0.386510
H253	H	0.000149	0.194911	-0.161901
H254	H	0.500149	0.694911	0.338099
O255	O	0.000148	-0.196398	0.236368
O256	O	0.500148	0.303602	0.736368
H257	H	-0.055891	-0.173708	0.240044
H258	H	0.444109	0.326292	0.740044
H259	H	0.000147	0.117177	-0.096814
H260	H	0.500147	0.617177	0.403186
O261	O	0.000165	-0.301194	0.234703
O262	O	0.500165	0.198806	0.734703
H263	H	0.000180	-0.339506	0.222477
H264	H	0.500180	0.160494	0.722477
H265	H	0.000136	0.084349	0.291656
H266	H	0.500136	0.584349	0.791656
