data_functionalizedCrystal
_audit_creation_method	'MofGen! by Chris Wilmer'
_symmetry_space_group_name_H-M	'P1'
_symmetry_Int_Tables_number	1
_symmetry_cell_setting	triclinic
loop_
_symmetry_equiv_pos_as_xyz
  x,y,z
_cell_length_a	21.295420
_cell_length_b	21.295416
_cell_length_c	21.295411
_cell_angle_alpha	89.980829
_cell_angle_beta	90.024693
_cell_angle_gamma	89.971418
loop_
_atom_site_label
_atom_site_type_symbol
_atom_site_fract_x
_atom_site_fract_y
_atom_site_fract_z
Zn1	Zn	0.962356	0.250710	0.355924
Zn2	Zn	1.295689	0.584044	0.689258
Zn3	Zn	1.629023	0.917377	1.022591
Zn4	Zn	0.962259	0.355962	0.250654
Zn5	Zn	1.295592	0.689295	0.583988
Zn6	Zn	1.628925	1.022629	0.917321
Zn7	Zn	0.857079	0.250708	0.250669
Zn8	Zn	1.190413	0.584041	0.584003
Zn9	Zn	1.523746	0.917374	0.917336
Zn10	Zn	0.857049	0.355942	0.355886
Zn11	Zn	1.190382	0.689276	0.689219
Zn12	Zn	1.523716	1.022609	1.022553
O13	O	0.909686	0.303331	0.303283
O14	O	1.243019	0.636664	0.636617
O15	O	1.576352	0.969997	0.969950
O16	O	1.050433	0.264682	0.341970
O17	O	1.383766	0.598015	0.675303
O18	O	1.717099	0.931348	1.008637
O19	O	0.948279	0.342007	0.162567
O20	O	1.281612	0.675340	0.495900
O21	O	1.614945	1.008674	0.829234
O22	O	0.871098	0.162619	0.264654
O23	O	1.204431	0.495952	0.597987
O24	O	1.537765	0.829285	0.931321
O25	O	1.050361	0.342010	0.264629
O26	O	1.383694	0.675343	0.597962
O27	O	1.717028	1.008676	0.931295
O28	O	0.948444	0.162621	0.341984
O29	O	1.281778	0.495954	0.675318
O30	O	1.615111	0.829287	1.008651
O31	O	0.871004	0.264677	0.162578
O32	O	1.204337	0.598010	0.495911
O33	O	1.537670	0.931344	0.829245
O34	O	0.768986	0.264658	0.264617
O35	O	1.102319	0.597991	0.597950
O36	O	1.435653	0.931324	0.931283
O37	O	0.871046	0.341976	0.443980
O38	O	1.204380	0.675309	0.777314
O39	O	1.537713	1.008643	1.110647
O40	O	0.768964	0.341973	0.341919
O41	O	1.102297	0.675307	0.675252
O42	O	1.435630	1.008640	1.008585
O43	O	0.948415	0.264662	0.444009
O44	O	1.281748	0.597996	0.777342
O45	O	1.615082	0.931329	1.110675
O46	O	0.948249	0.444049	0.264591
O47	O	1.281582	0.777382	0.597925
O48	O	1.614916	1.110716	0.931258
O49	O	0.870952	0.444034	0.341904
O50	O	1.204285	0.777368	0.675238
O51	O	1.537619	1.110701	1.008571
C52	C	0.746134	0.303314	0.303265
C53	C	1.079468	0.636647	0.636599
C54	C	1.412801	0.969980	0.969932
C55	C	0.676166	0.303321	0.303273
C56	C	1.009499	0.636655	0.636606
C57	C	1.342833	0.969988	0.969939
C58	C	0.176713	0.343663	0.343496
C59	C	0.510046	0.676996	0.676829
C60	C	0.843380	1.010330	1.010162
C61	C	0.242456	0.343663	0.343489
C62	C	0.575789	0.676996	0.676822
C63	C	0.909122	1.010330	1.010156
C64	C	0.275327	0.303345	0.303303
C65	C	0.608660	0.636678	0.636637
C66	C	0.941993	0.970012	0.969970
C67	C	0.242450	0.263035	0.263110
C68	C	0.575783	0.596368	0.596443
C69	C	0.909117	0.929701	0.929776
C70	C	0.176709	0.263040	0.263113
C71	C	0.510042	0.596374	0.596446
C72	C	0.843375	0.929707	0.929780
N73	N	0.378567	0.248227	0.298568
N74	N	0.711901	0.581561	0.631902
N75	N	1.045234	0.914894	0.965235
N76	N	0.441019	0.248224	0.298569
N77	N	0.774352	0.581557	0.631902
N78	N	1.107685	0.914891	0.965235
C79	C	0.473401	0.303327	0.303290
C80	C	0.806735	0.636661	0.636623
C81	C	1.140068	0.969994	0.969957
N82	N	0.440973	0.358435	0.308023
N83	N	0.774307	0.691768	0.641356
N84	N	1.107640	1.025102	0.974689
N85	N	0.378516	0.358438	0.308025
N86	N	0.711850	0.691771	0.641359
N87	N	1.045183	1.025104	0.974692
C88	C	0.346612	0.303335	0.303295
C89	C	0.679945	0.636668	0.636628
C90	C	1.013279	0.970001	0.969962
C91	C	0.577556	0.343638	0.343471
C92	C	0.910889	0.676971	0.676804
C93	C	1.244222	1.010305	1.010137
C94	C	0.643300	0.343639	0.343460
C95	C	0.976633	0.676973	0.676793
C96	C	1.309966	1.010306	1.010126
C97	C	0.643293	0.263005	0.263083
C98	C	0.976626	0.596339	0.596417
C99	C	1.309959	0.929672	0.929750
C100	C	0.577550	0.263010	0.263091
C101	C	0.910883	0.596343	0.596425
C102	C	1.244217	0.929676	0.929758
C103	C	0.544686	0.303325	0.303288
C104	C	0.878019	0.636659	0.636621
C105	C	1.211352	0.969992	0.969955
C106	C	0.909604	0.466882	0.303256
C107	C	1.242937	0.800216	0.636589
C108	C	1.576270	1.133549	0.969922
C109	C	0.909626	0.536850	0.303265
C110	C	1.242960	0.870184	0.636598
C111	C	1.576293	1.203517	0.969932
C112	C	0.949911	0.569704	0.263051
C113	C	1.283244	0.903037	0.596384
C114	C	1.616577	1.236370	0.929717
C115	C	0.949941	0.635446	0.263068
C116	C	1.283274	0.968779	0.596401
C117	C	1.616607	1.302113	0.929734
C118	C	0.909674	0.668333	0.303292
C119	C	1.243008	1.001666	0.636626
C120	C	1.576341	1.334999	0.969959
C121	C	0.869387	0.635472	0.343514
C122	C	1.202720	0.968805	0.676848
C123	C	1.536054	1.302138	1.010181
C124	C	0.869363	0.569730	0.343501
C125	C	1.202696	0.903064	0.676834
C126	C	1.536030	1.236397	1.010167
N127	N	0.854608	0.771598	0.308090
N128	N	1.187941	1.104931	0.641423
N129	N	1.521274	1.438264	0.974756
N130	N	0.854632	0.834049	0.308099
N131	N	1.187966	1.167383	0.641432
N132	N	1.521299	1.500716	0.974766
C133	C	0.909746	0.866408	0.303337
C134	C	1.243079	1.199741	0.636670
C135	C	1.576412	1.533074	0.970004
N136	N	0.964834	0.833955	0.298553
N137	N	1.298168	1.167288	0.631886
N138	N	1.631501	1.500622	0.965220
N139	N	0.964809	0.771498	0.298540
N140	N	1.298142	1.104831	0.631874
N141	N	1.631476	1.438165	0.965207
C142	C	0.909696	0.739618	0.303312
C143	C	1.243030	1.072952	0.636645
C144	C	1.576363	1.406285	0.969978
C145	C	0.950066	0.970546	0.263139
C146	C	1.283399	1.303880	0.596472
C147	C	1.616732	1.637213	0.929806
C148	C	0.950096	1.036290	0.263160
C149	C	1.283430	1.369623	0.596494
C150	C	1.616763	1.702957	0.929827
C151	C	0.869537	1.036314	0.343604
C152	C	1.202871	1.369648	0.676937
C153	C	1.536204	1.702981	1.010270
C154	C	0.869512	0.970572	0.343586
C155	C	1.202846	1.303905	0.676919
C156	C	1.536179	1.637238	1.010252
C157	C	0.909776	0.937692	0.303350
C158	C	1.243109	1.271025	0.636683
C159	C	1.576442	1.604358	0.970017
C160	C	1.073876	0.303348	0.303302
C161	C	1.407209	0.636681	0.636635
C162	C	1.740543	0.970015	0.969969
C163	C	1.143844	0.303356	0.303310
C164	C	1.477177	0.636689	0.636643
C165	C	1.810511	0.970022	0.969977
C166	C	0.909738	0.303317	0.467474
C167	C	1.243071	0.636651	0.800807
C168	C	1.576405	0.969984	1.134140
C169	C	0.909760	0.303312	0.537442
C170	C	1.243094	0.636645	0.870775
C171	C	1.576427	0.969978	1.204109
C172	C	0.909786	1.139140	0.303336
C173	C	1.243119	1.472474	0.636669
C174	C	1.576453	1.805807	0.970003
C175	C	0.909831	1.069172	0.303386
C176	C	1.243164	1.402506	0.636719
C177	C	1.576497	1.735839	0.970053
C178	C	0.909670	0.303298	0.139732
C179	C	1.243003	0.636632	0.473065
C180	C	1.576337	0.969965	0.806399
C181	C	0.909770	0.303127	0.069764
C182	C	1.243103	0.636460	0.403098
C183	C	1.576436	0.969793	0.736431
C184	C	0.950044	0.263053	0.570324
C185	C	1.283378	0.596386	0.903658
C186	C	1.616711	0.929719	1.236991
C187	C	0.950044	0.263025	0.636067
C188	C	1.283377	0.596359	0.969400
C189	C	1.616710	0.929692	1.302734
C190	C	0.909765	0.303268	0.668925
C191	C	1.243099	0.636602	1.002258
C192	C	1.576432	0.969935	1.335591
C193	C	0.869473	0.343530	0.636034
C194	C	1.202807	0.676863	0.969367
C195	C	1.536140	1.010197	1.302701
C196	C	0.869471	0.343552	0.570293
C197	C	1.202804	0.676885	0.903626
C198	C	1.536137	1.010218	1.236960
N199	N	0.904909	0.358336	0.772142
N200	N	1.238242	0.691669	1.105476
N201	N	1.571575	1.025003	1.438809
N202	N	0.904915	0.358314	0.834594
N203	N	1.238248	0.691647	1.167927
N204	N	1.571581	1.024980	1.501260
C205	C	0.909769	0.303204	0.866999
C206	C	1.243103	0.636538	1.200333
C207	C	1.576436	0.969871	1.533666
N208	N	0.914630	0.248117	0.834594
N209	N	1.247963	0.581451	1.167928
N210	N	1.581296	0.914784	1.501261
N211	N	0.914627	0.248141	0.772137
N212	N	1.247960	0.581474	1.105470
N213	N	1.581294	0.914807	1.438804
C214	C	0.909763	0.303249	0.740210
C215	C	1.243096	0.636582	1.073543
C216	C	1.576430	0.969916	1.406877
C217	C	0.950055	0.262913	0.971167
C218	C	1.283388	0.596246	1.304501
C219	C	1.616721	0.929579	1.637834
C220	C	0.950049	0.262884	1.036911
C221	C	1.283383	0.596218	1.370244
C222	C	1.616716	0.929551	1.703578
C223	C	0.869482	0.343395	1.036877
C224	C	1.202816	0.676728	1.370210
C225	C	1.536149	1.010061	1.703544
C226	C	0.869484	0.343417	0.971135
C227	C	1.202818	0.676751	1.304468
C228	C	1.536151	1.010084	1.637801
C229	C	0.909774	0.303177	0.938284
C230	C	1.243107	0.636510	1.271617
C231	C	1.576440	0.969844	1.604950
H232	H	0.670056	0.230180	0.230361
H233	H	1.003389	0.563513	0.563695
H234	H	1.336722	0.896846	0.897028
H235	H	0.149959	0.376493	0.376225
H236	H	0.483292	0.709826	0.709558
H237	H	0.816626	1.043160	1.042892
H238	H	0.836603	0.662252	0.376267
H239	H	1.169937	0.995585	0.709600
H240	H	1.503270	1.328919	1.042933
H241	H	0.982697	0.542935	0.230290
H242	H	1.316030	0.876268	0.563623
H243	H	1.649364	1.209601	0.896957
H244	H	0.269223	0.376486	0.376215
H245	H	0.602556	0.709819	0.709549
H246	H	0.935889	1.043153	1.042882
H247	H	0.982905	1.063038	0.230414
H248	H	1.316238	1.396371	0.563748
H249	H	1.649572	1.729705	0.897081
C250	C	0.278605	0.218684	0.218909
C251	C	0.611938	0.552017	0.552242
C252	C	0.945272	0.885350	0.885575
H253	H	0.322466	0.224448	0.224667
H254	H	0.655800	0.557782	0.558000
H255	H	0.989133	0.891115	0.891333
H256	H	0.267809	0.227836	0.176597
H257	H	0.601143	0.561169	0.509931
H258	H	0.934476	0.894502	0.843264
H259	H	0.267851	0.176401	0.228201
H260	H	0.601185	0.509734	0.561534
H261	H	0.934518	0.843068	0.894868
C262	C	0.679458	0.387993	0.387651
C263	C	1.012792	0.721326	0.720984
C264	C	1.346125	1.054659	1.054317
H265	H	0.723319	0.382226	0.381883
H266	H	1.056652	0.715559	0.715217
H267	H	1.389986	1.048893	1.048550
H268	H	0.668718	0.378851	0.429967
H269	H	1.002052	0.712184	0.763300
H270	H	1.335385	1.045518	1.096634
H271	H	0.668653	0.430274	0.378351
H272	H	1.001986	0.763607	0.711685
H273	H	1.335320	1.096940	1.045018
C274	C	0.994359	0.934373	0.218892
C275	C	1.327693	1.267706	0.552225
C276	C	1.661026	1.601039	0.885558
H277	H	0.988570	0.890514	0.224637
H278	H	1.321904	1.223847	0.557971
H279	H	1.655237	1.557181	0.891304
H280	H	1.036653	0.945104	0.228149
H281	H	1.369986	1.278437	0.561482
H282	H	1.703320	1.611771	0.894815
H283	H	0.985171	0.945179	0.176587
H284	H	1.318504	1.278512	0.509921
H285	H	1.651838	1.611845	0.843254
H286	H	0.836755	1.063090	0.376358
H287	H	1.170088	1.396423	0.709692
H288	H	1.503422	1.729757	1.043025
H289	H	0.550788	0.230185	0.230370
H290	H	0.884121	0.563518	0.563703
H291	H	1.217455	0.896852	0.897036
C292	C	0.825191	0.934431	0.387814
C293	C	1.158524	1.267765	0.721147
C294	C	1.491858	1.601098	1.054481
H295	H	0.801209	0.963431	0.411769
H296	H	1.134543	1.296765	0.745103
H297	H	1.467876	1.630098	1.078436
H298	H	0.849245	0.908748	0.415259
H299	H	1.182578	1.242081	0.748592
H300	H	1.515911	1.575414	1.081926
H301	H	0.797764	0.908825	0.363696
H302	H	1.131097	1.242159	0.697029
H303	H	1.464431	1.575492	1.030363
H304	H	0.836676	0.376294	0.662791
H305	H	1.170010	0.709628	0.996124
H306	H	1.503343	1.042961	1.329458
H307	H	0.982857	0.230143	0.944419
H308	H	1.316190	0.563476	1.277752
H309	H	1.649524	0.896810	1.611085
C310	C	0.994250	0.671593	0.218825
C311	C	1.327584	1.004926	0.552159
C312	C	1.660917	1.338259	0.885492
H313	H	1.018222	0.642595	0.194858
H314	H	1.351556	0.975928	0.528191
H315	H	1.684889	1.309261	0.861525
H316	H	1.021677	0.697205	0.242930
H317	H	1.355010	1.030538	0.576264
H318	H	1.688343	1.363872	0.909597
H319	H	0.970181	0.697270	0.191382
H320	H	1.303515	1.030603	0.524716
H321	H	1.636848	1.363937	0.858049
H322	H	0.149947	0.230215	0.230389
H323	H	0.483280	0.563549	0.563722
H324	H	0.816614	0.896882	0.897055
H325	H	0.550796	0.376466	0.376201
H326	H	0.884129	0.709799	0.709534
H327	H	1.217463	1.043133	1.042867
H328	H	0.836558	0.542981	0.376249
H329	H	1.169891	0.876314	0.709582
H330	H	1.503225	1.209647	1.042915
H331	H	0.982851	0.230285	0.543581
H332	H	1.316184	0.563619	0.876915
H333	H	1.649517	0.896952	1.210248
H334	H	0.982852	0.230097	1.063683
H335	H	1.316186	0.563430	1.397016
H336	H	1.649519	0.896763	1.730350
C337	C	0.994363	0.218744	0.672245
C338	C	1.327696	0.552077	1.005579
C339	C	1.661029	0.885410	1.338912
H340	H	1.018360	0.194785	0.643265
H341	H	1.351693	0.528119	0.976598
H342	H	1.685026	0.861452	1.309931
H343	H	0.970306	0.191304	0.697885
H344	H	1.303639	0.524637	1.031219
H345	H	1.636973	0.857970	1.364552
H346	H	1.021775	0.242830	0.697898
H347	H	1.355108	0.576163	1.031231
H348	H	1.688442	0.909497	1.364564
C349	C	0.825165	0.387847	0.534121
C350	C	1.158499	0.721181	0.867454
C351	C	1.491832	1.054514	1.200787
H352	H	0.801179	0.411815	0.563103
H353	H	1.134512	0.745149	0.896436
H354	H	1.467846	1.078482	1.229769
H355	H	0.797752	0.363779	0.508458
H356	H	1.131085	0.697113	0.841792
H357	H	1.464418	1.030446	1.175125
H358	H	0.849239	0.415288	0.508491
H359	H	1.182572	0.748621	0.841824
H360	H	1.515905	1.081954	1.175158
C361	C	0.825181	0.387665	1.073012
C362	C	1.158514	0.720999	1.406346
C363	C	1.491847	1.054332	1.739679
H364	H	0.830955	0.381891	1.116876
H365	H	1.164288	0.715224	1.450209
H366	H	1.497621	1.048557	1.783542
H367	H	0.782890	0.378457	1.062223
H368	H	1.116223	0.711791	1.395556
H369	H	1.449556	1.045124	1.728890
H370	H	0.834377	0.429966	1.062240
H371	H	1.167710	0.763299	1.395574
H372	H	1.501043	1.096632	1.728907
H373	H	0.836684	0.376204	0.944361
H374	H	1.170018	0.709538	1.277695
H375	H	1.503351	1.042871	1.611028
