data_functionalizedCrystal
_audit_creation_method	'MofGen! by Chris Wilmer'
_symmetry_space_group_name_H-M	'P1'
_symmetry_Int_Tables_number	1
_symmetry_cell_setting	triclinic
loop_
_symmetry_equiv_pos_as_xyz
  x,y,z
_cell_length_a	15.944493
_cell_length_b	27.731996
_cell_length_c	14.421503
_cell_angle_alpha	89.998301
_cell_angle_beta	89.992936
_cell_angle_gamma	83.048216
loop_
_atom_site_label
_atom_site_type_symbol
_atom_site_fract_x
_atom_site_fract_y
_atom_site_fract_z
O1	O	1.113726	0.062202	-0.077112
O2	O	0.869066	0.069917	-0.077118
O3	O	0.999017	-0.004307	-0.077095
O4	O	0.983775	0.136426	-0.077135
O5	O	0.998996	-0.004296	0.077129
O6	O	0.869045	0.069928	0.077106
O7	O	1.113704	0.062213	0.077112
Cu8	Cu	0.991373	0.066072	0.091190
Cu9	Cu	0.991398	0.066059	-0.091197
O10	O	0.983753	0.136437	0.077088
C11	C	0.837765	0.069607	-0.000007
C12	C	0.744529	0.068662	-0.000008
C13	C	0.998694	-0.022310	0.000020
C14	C	0.997750	-0.075970	0.000030
C15	C	0.508183	0.112352	-0.000021
C16	C	0.457930	0.088797	0.076030
C17	C	0.573831	0.066910	-0.000006
C18	C	0.457956	0.088776	-0.076022
C19	C	0.408944	0.065222	-0.000008
C20	C	0.524806	0.043368	0.076108
C21	C	0.524835	0.043353	-0.076013
C22	C	0.474616	0.019764	0.000057
C23	C	0.668818	0.067884	-0.000004
C24	C	0.313960	0.064244	-0.000003
C25	C	0.991828	-0.408718	-0.084083
C26	C	0.988247	-0.610391	-0.084099
O27	O	0.987758	-0.636469	-0.155596
N28	N	0.987790	-0.635604	-0.000033
C29	C	0.988224	-0.610395	0.084044
O30	O	0.987745	-0.636467	0.155547
C31	C	0.991799	-0.408722	0.084059
C32	C	0.992264	-0.383512	-0.000013
C33	C	0.992293	-0.383508	-0.168148
C34	C	0.993192	-0.333093	-0.168143
C35	C	0.993628	-0.307888	-0.084073
C36	C	0.993164	-0.333098	-0.000008
C37	C	0.992226	-0.383514	0.168134
C38	C	0.993118	-0.333092	0.168131
C39	C	0.993583	-0.307883	0.084059
C40	C	0.994500	-0.257477	0.084067
N41	N	0.994956	-0.232264	0.000001
C42	C	0.994521	-0.257470	-0.084069
C43	C	0.986348	-0.716276	0.084030
C44	C	0.985456	-0.766694	0.084026
C45	C	0.985478	-0.766687	-0.084117
C46	C	0.986376	-0.716268	-0.084113
C47	C	0.986805	-0.691063	-0.000037
C48	C	0.996411	-0.151595	-0.084053
C49	C	0.997315	-0.101175	-0.084040
C50	C	0.997288	-0.101187	0.084102
C51	C	0.996389	-0.151602	0.084091
C52	C	0.995948	-0.176805	0.000006
O53	O	0.994980	-0.231368	0.155526
O54	O	0.994981	-0.231387	-0.155562
C55	C	0.990928	-0.459133	-0.084088
C56	C	0.990464	-0.484342	-0.000023
C57	C	0.990900	-0.459137	0.084047
C58	C	0.989572	-0.534761	-0.000026
C59	C	0.989136	-0.559966	-0.084096
C60	C	0.989593	-0.534753	-0.168163
C61	C	0.990493	-0.484338	-0.168158
C62	C	0.990444	-0.484350	0.168114
C63	C	0.989545	-0.534765	0.168102
C64	C	0.989109	-0.559970	0.084032
C65	C	1.145006	0.062523	-0.000002
C66	C	1.238242	0.063468	-0.000006
C67	C	0.984077	0.154440	-0.000029
C68	C	0.985020	0.208100	-0.000044
N69	N	0.991361	0.066080	0.219472
N70	N	0.991417	0.066046	-0.219478
C71	C	0.931261	0.100386	0.469115
C72	C	1.007037	0.109762	0.530916
C73	C	0.991381	0.066069	0.408633
C74	C	0.915624	0.056705	0.530926
C75	C	0.991394	0.066059	0.591355
C76	C	1.067196	0.075466	0.469074
C77	C	0.975733	0.022390	0.469078
C78	C	1.051565	0.031747	0.530851
C79	C	0.991373	0.066076	0.303372
C80	C	0.991412	0.066051	0.696613
H81	H	0.523283	0.151495	0.000039
N82	N	1.024578	0.158683	0.566903
H83	H	1.024999	0.158218	0.636930
H84	H	1.081351	0.165994	0.543371
N85	N	0.993692	-0.305910	-0.258825
H86	H	1.045631	-0.318617	-0.295571
H87	H	0.941416	-0.310771	-0.295503
H88	H	0.428727	0.107993	0.140313
H89	H	1.131281	0.083426	0.442019
N90	N	1.118983	-0.006703	0.566542
H91	H	1.176154	0.000430	0.543920
H92	H	1.118221	-0.006668	0.636568
N93	N	0.563539	0.017953	-0.161171
H94	H	0.626752	0.018517	-0.160219
H95	H	0.550646	-0.016815	-0.161726
H96	H	0.997695	-0.080652	-0.152505
H97	H	0.989242	-0.555284	-0.236616
N98	N	0.986817	-0.689095	0.174717
H99	H	0.986396	-0.712722	0.227964
H100	H	1.039280	-0.672103	0.178383
N101	N	0.995959	-0.178774	-0.174741
H102	H	0.996399	-0.155148	-0.227989
H103	H	1.047687	-0.203614	-0.178388
N104	N	0.419199	0.114214	-0.161117
H105	H	0.431072	0.149172	-0.161035
H106	H	0.444424	0.097400	-0.218561
H107	H	0.962461	-0.014531	0.441894
H108	H	0.459675	-0.019408	0.000112
N109	N	0.991880	-0.410693	-0.258831
H110	H	0.992329	-0.387066	-0.312076
H111	H	1.043624	-0.435523	-0.262451
H112	H	0.986753	-0.695746	-0.152572
H113	H	0.985124	-0.787217	-0.152570
H114	H	0.991849	-0.404031	0.236595
N115	N	0.984973	-0.793884	0.174703
H116	H	0.985383	-0.770261	0.227956
H117	H	0.932510	-0.810877	0.178367
H118	H	0.880470	0.129431	0.442008
N119	N	0.993578	-0.305907	0.258815
H120	H	0.993147	-0.329531	0.312067
H121	H	1.046041	-0.288916	0.262487
H122	H	0.997647	-0.080656	0.152550
N123	N	0.995902	-0.178798	0.174764
H124	H	0.996319	-0.155178	0.228022
H125	H	0.943434	-0.195786	0.178425
N126	N	0.990995	-0.457151	-0.258836
H127	H	0.990581	-0.480775	-0.312087
H128	H	0.939275	-0.432306	-0.262505
N129	N	0.989043	-0.561949	0.258790
H130	H	0.936578	-0.578938	0.262534
H131	H	1.040793	-0.586770	0.262496
N132	N	0.990921	-0.457168	0.258792
H133	H	0.938673	-0.462018	0.295548
H134	H	1.042888	-0.469888	0.295463
N135	N	0.563310	0.017970	0.161363
H136	H	0.626465	0.018788	0.160852
H137	H	0.538293	0.035015	0.218675
N138	N	0.830760	0.046217	0.566924
H139	H	0.785389	0.072167	0.544468
H140	H	0.818541	0.013471	0.543459
