data_functionalizedCrystal
_audit_creation_method	'MofGen! by Chris Wilmer'
_symmetry_space_group_name_H-M	'P1'
_symmetry_Int_Tables_number	1
_symmetry_cell_setting	triclinic
loop_
_symmetry_equiv_pos_as_xyz
  x,y,z
_cell_length_a	18.101398
_cell_length_b	19.121063
_cell_length_c	18.101389
_cell_angle_alpha	92.419391
_cell_angle_beta	89.975673
_cell_angle_gamma	92.464489
loop_
_atom_site_label
_atom_site_type_symbol
_atom_site_fract_x
_atom_site_fract_y
_atom_site_fract_z
Zn1	Zn	1.119554	-0.279777	-0.431404
Zn2	Zn	1.114175	-0.397213	-0.312837
Zn3	Zn	0.995713	-0.279770	-0.307565
Zn4	Zn	0.990390	-0.397183	-0.436624
O5	O	1.054958	-0.338486	-0.372107
O6	O	1.222473	-0.295371	-0.415698
O7	O	1.098437	-0.381644	-0.208505
O8	O	1.016620	-0.181486	-0.319601
O9	O	1.218521	-0.381651	-0.328587
O10	O	1.107605	-0.181491	-0.410586
O11	O	1.011404	-0.295359	-0.204632
O12	O	0.891375	-0.295330	-0.324663
O13	O	1.007547	-0.381599	-0.539564
O14	O	0.887464	-0.381592	-0.419482
O15	O	1.102443	-0.295342	-0.535729
O16	O	1.093276	-0.495494	-0.333648
O17	O	1.002331	-0.495472	-0.424594
C18	C	0.862549	-0.338457	-0.372067
C19	C	0.780234	-0.338462	-0.372069
C20	C	0.481141	-0.338506	-0.372133
C21	C	0.514915	-0.283961	-0.312742
C22	C	0.600526	-0.284107	-0.312506
C23	C	0.629525	-0.338484	-0.372101
C24	C	0.595084	-0.412466	-0.354099
C25	C	0.509452	-0.412163	-0.353690
C26	C	0.513600	-0.319712	-0.449688
C27	C	0.599325	-0.318065	-0.449186
C28	C	0.713385	-0.338476	-0.372084
C29	C	0.397281	-0.338519	-0.372148
C30	C	1.046662	-0.520967	-0.380276
C31	C	1.043181	-0.599034	-0.383795
C32	C	1.088932	-0.635698	-0.338137
C33	C	1.085662	-0.709049	-0.341451
C34	C	1.036637	-0.745735	-0.390420
C35	C	0.990884	-0.709066	-0.436083
C36	C	0.994158	-0.635716	-0.432772
C37	C	1.024385	-0.967206	-0.402788
C38	C	1.021113	-1.040562	-0.406094
C39	C	1.115892	-1.040539	-0.311462
C40	C	1.119159	-0.967188	-0.308152
C41	C	1.073408	-0.930525	-0.353818
C42	C	1.033292	-0.820713	-0.393807
C43	C	1.076758	-0.855549	-0.350434
C44	C	1.248119	-0.338515	-0.372148
C45	C	1.330432	-0.338528	-0.372165
C46	C	1.055002	-0.338468	-0.565269
C47	C	1.055020	-0.338461	-0.647582
C48	C	1.063306	-0.155292	-0.363923
C49	C	1.066864	-0.077226	-0.360436
C50	C	1.055069	-0.338329	-0.946668
C51	C	0.995174	-0.392427	-0.917747
C52	C	0.995318	-0.392678	-0.832140
C53	C	1.055044	-0.338394	-0.798288
C54	C	1.132167	-0.358491	-0.830296
C55	C	1.131831	-0.358846	-0.915957
C56	C	1.038526	-0.264013	-0.911754
C57	C	1.036771	-0.264443	-0.826122
C58	C	1.055035	-0.338430	-0.714430
C59	C	1.055084	-0.338295	-1.030526
C60	C	1.054959	-0.338453	-0.179695
C61	C	1.055093	-0.338263	-0.097373
H62	H	0.624031	-0.229245	-0.323408
H63	H	1.005969	-0.447763	-0.814132
C64	C	1.193927	-0.307943	-0.941694
H65	H	1.219251	-0.287142	-0.899799
H66	H	1.173168	-0.272411	-0.969251
H67	H	1.227685	-0.332882	-0.971899
H68	H	1.116677	-0.825677	-0.310566
C69	C	0.490446	-0.209623	-0.327241
H70	H	0.459411	-0.211183	-0.369643
H71	H	0.532766	-0.179850	-0.335423
H72	H	0.464042	-0.191979	-0.285600
H73	H	0.613574	-0.454195	-0.396148
H74	H	0.937700	-0.379979	-0.937774
C75	C	1.091765	-0.207100	-0.794668
H76	H	1.126750	-0.227601	-0.764016
H77	H	1.065714	-0.173211	-0.766388
H78	H	1.116777	-0.185118	-0.834202
C79	C	0.487680	-0.248104	-0.472669
H80	H	0.507884	-0.237762	-0.519611
H81	H	0.503931	-0.212853	-0.437078
H82	H	0.435229	-0.249524	-0.475503
H83	H	0.983441	-0.245705	-0.932518
H84	H	0.956904	-0.605865	-0.469953
H85	H	0.622115	-0.263622	-0.462821
H86	H	1.128850	-0.605832	-0.298258
H87	H	0.993375	-0.850591	-0.433677
C88	C	0.917923	-0.375680	-0.802960
H89	H	0.886109	-0.368562	-0.843439
H90	H	0.921366	-0.334397	-0.771850
H91	H	0.898539	-0.413603	-0.775599
C92	C	1.166218	-1.080870	-0.261240
H93	H	1.157253	-1.129809	-0.270228
H94	H	1.155947	-1.068881	-0.210930
H95	H	1.216510	-1.068807	-0.271592
C96	C	1.097503	-0.209560	-0.936709
H97	H	1.132045	-0.231968	-0.968250
H98	H	1.122513	-0.188816	-0.894608
H99	H	1.074334	-0.174310	-0.962684
C100	C	0.936956	-0.749419	-0.489946
H101	H	0.941552	-0.798356	-0.485374
H102	H	0.948300	-0.737368	-0.539173
H103	H	0.887738	-0.737436	-0.478510
C104	C	0.625990	-0.367831	-0.511806
H105	H	0.656021	-0.401868	-0.491667
H106	H	0.653940	-0.341714	-0.546421
H107	H	0.584451	-0.390632	-0.535953
C108	C	1.009396	-0.466387	-0.950154
H109	H	1.051680	-0.464441	-0.981228
H110	H	0.967613	-0.483605	-0.978167
H111	H	1.017683	-0.496741	-0.911056
C112	C	0.623018	-0.434373	-0.278491
H113	H	0.655656	-0.398538	-0.257797
H114	H	0.648464	-0.476641	-0.284724
H115	H	0.582161	-0.441440	-0.246298
H116	H	0.491559	-0.359441	-0.493899
H117	H	1.122917	-0.738898	-0.304271
C118	C	1.151295	-0.432235	-0.946253
H119	H	1.159329	-0.461552	-0.906196
H120	H	1.194884	-0.428672	-0.975335
H121	H	1.111667	-0.451764	-0.975908
H122	H	1.159079	-0.937319	-0.268278
H123	H	0.486843	-0.454179	-0.395241
C124	C	0.967189	-1.080916	-0.459968
H125	H	0.940416	-1.048576	-0.486697
H126	H	0.933658	-1.109567	-0.432903
H127	H	0.994235	-1.109493	-0.493551
H128	H	1.177847	-0.320327	-0.808236
C129	C	0.974049	-0.926887	-0.453005
H130	H	0.944376	-0.959243	-0.482634
H131	H	1.003627	-0.898233	-0.484013
H132	H	0.943072	-0.898314	-0.423343
C133	C	1.152068	-0.431103	-0.804601
H134	H	1.113483	-0.449268	-0.774380
H135	H	1.196820	-0.426930	-0.777070
H136	H	1.158162	-0.461914	-0.846509
H137	H	0.980032	-0.249287	-0.805110
H138	H	0.620422	-0.296530	-0.254971
C139	C	0.485057	-0.300541	-0.235464
H140	H	0.505735	-0.267338	-0.199912
H141	H	0.498274	-0.346267	-0.223526
H142	H	0.432736	-0.298234	-0.235276
C143	C	0.481447	-0.433688	-0.277231
H144	H	0.522408	-0.442532	-0.246711
H145	H	0.450356	-0.474879	-0.282759
H146	H	0.454311	-0.396921	-0.255044
