data_functionalizedCrystal
_audit_creation_method	'MofGen! by Chris Wilmer'
_symmetry_space_group_name_H-M	'P1'
_symmetry_Int_Tables_number	1
_symmetry_cell_setting	triclinic
loop_
_symmetry_equiv_pos_as_xyz
  x,y,z
_cell_length_a	19.288864
_cell_length_b	19.288864
_cell_length_c	17.766277
_cell_angle_alpha	90.023305
_cell_angle_beta	89.979562
_cell_angle_gamma	96.863758
loop_
_atom_site_label
_atom_site_type_symbol
_atom_site_fract_x
_atom_site_fract_y
_atom_site_fract_z
O1	O	-0.921351	0.086644	0.062871
O2	O	-0.671351	0.336644	0.312871
O3	O	-0.421351	0.586644	0.562871
O4	O	-0.171351	0.836644	0.812871
O5	O	-0.719090	0.098333	0.062825
O6	O	-0.469090	0.348333	0.312825
O7	O	-0.219090	0.598333	0.562825
O8	O	0.030910	0.848333	0.812825
O9	O	-0.826065	-0.008642	0.062803
O10	O	-0.576065	0.241358	0.312803
O11	O	-0.326065	0.491358	0.562803
O12	O	-0.076065	0.741358	0.812803
O13	O	-0.814376	0.193619	0.062893
O14	O	-0.564376	0.443619	0.312893
O15	O	-0.314376	0.693619	0.562893
O16	O	-0.064376	0.943619	0.812893
O17	O	-0.826051	-0.008638	-0.062386
O18	O	-0.576051	0.241362	0.187614
O19	O	-0.326051	0.491362	0.437614
O20	O	-0.076051	0.741362	0.687614
O21	O	-0.719076	0.098337	-0.062364
O22	O	-0.469076	0.348337	0.187636
O23	O	-0.219076	0.598337	0.437636
O24	O	0.030924	0.848337	0.687636
O25	O	-0.921337	0.086648	-0.062317
O26	O	-0.671337	0.336648	0.187683
O27	O	-0.421337	0.586648	0.437683
O28	O	-0.171337	0.836648	0.687683
Cu29	Cu	-0.820205	0.092493	-0.073771
Cu30	Cu	-0.570205	0.342493	0.176229
Cu31	Cu	-0.320205	0.592493	0.426229
Cu32	Cu	-0.070205	0.842493	0.676229
Cu33	Cu	-0.820222	0.092488	0.074279
Cu34	Cu	-0.570222	0.342488	0.324279
Cu35	Cu	-0.320222	0.592488	0.574279
Cu36	Cu	-0.070222	0.842488	0.824279
O37	O	-0.814362	0.193623	-0.062295
O38	O	-0.564362	0.443623	0.187705
O39	O	-0.314362	0.693623	0.437705
O40	O	-0.064362	0.943623	0.687705
C41	C	-0.693207	0.097959	0.000224
C42	C	-0.443207	0.347959	0.250224
C43	C	-0.193207	0.597959	0.500224
C44	C	0.056793	0.847959	0.750224
C45	C	-0.616103	0.096830	0.000203
C46	C	-0.366103	0.346830	0.250203
C47	C	-0.116103	0.596830	0.500203
C48	C	0.133897	0.846830	0.750203
C49	C	-0.825682	-0.034516	0.000198
C50	C	-0.575682	0.215484	0.250198
C51	C	-0.325682	0.465484	0.500198
C52	C	-0.075682	0.715484	0.750198
C53	C	-0.824553	-0.111620	0.000167
C54	C	-0.574553	0.138380	0.250167
C55	C	-0.324553	0.388380	0.500167
C56	C	-0.074553	0.638380	0.750167
C57	C	-0.947220	0.087022	0.000286
C58	C	-0.697220	0.337022	0.250286
C59	C	-0.447220	0.587022	0.500286
C60	C	-0.197220	0.837022	0.750286
C61	C	-1.024324	0.088151	0.000311
C62	C	-0.774324	0.338151	0.250311
C63	C	-0.524324	0.588151	0.500311
C64	C	-0.274324	0.838151	0.750311
C65	C	-0.814745	0.219497	0.000311
C66	C	-0.564745	0.469497	0.250311
C67	C	-0.314745	0.719497	0.500311
C68	C	-0.064745	0.969497	0.750311
C69	C	-0.815874	0.296601	0.000347
C70	C	-0.565874	0.546601	0.250347
C71	C	-0.315874	0.796601	0.500347
C72	C	-0.065874	1.046601	0.750347
C73	C	-0.571407	0.159598	0.000243
C74	C	-0.321407	0.409598	0.250243
C75	C	-0.071407	0.659598	0.500243
C76	C	0.178593	0.909598	0.750243
C77	C	-0.498960	0.158537	0.000251
C78	C	-0.248960	0.408537	0.250251
C79	C	0.001040	0.658537	0.500251
C80	C	0.251040	0.908537	0.750251
C81	C	-0.471212	0.094705	0.000234
C82	C	-0.221212	0.344705	0.250234
C83	C	0.028788	0.594705	0.500234
C84	C	0.278788	0.844705	0.750234
C85	C	-0.515918	0.031929	0.000190
C86	C	-0.265918	0.281929	0.250190
C87	C	-0.015918	0.531929	0.500190
C88	C	0.234082	0.781929	0.750190
C89	C	-0.588364	0.032991	0.000175
C90	C	-0.338364	0.282991	0.250175
C91	C	-0.088364	0.532991	0.500175
C92	C	0.161636	0.782991	0.750175
C93	C	-0.362955	0.044524	0.044096
C94	C	-0.112955	0.294524	0.294096
C95	C	0.137045	0.544524	0.544096
C96	C	0.387045	0.794524	0.794096
C97	C	-0.290511	0.043464	0.044116
C98	C	-0.040511	0.293464	0.294116
C99	C	0.209489	0.543464	0.544116
C100	C	0.459489	0.793464	0.794116
C101	C	-0.247767	0.091425	0.000278
C102	C	0.002233	0.341425	0.250278
C103	C	0.252233	0.591425	0.500278
C104	C	0.502233	0.841425	0.750278
C105	C	-0.277474	0.140457	-0.043570
C106	C	-0.027474	0.390457	0.206430
C107	C	0.222526	0.640457	0.456430
C108	C	0.472526	0.890457	0.706430
C109	C	-0.349920	0.141520	-0.043585
C110	C	-0.099920	0.391520	0.206415
C111	C	0.150080	0.641520	0.456415
C112	C	0.400080	0.891520	0.706415
C113	C	-0.392658	0.093546	0.000250
C114	C	-0.142658	0.343546	0.250250
C115	C	0.107342	0.593546	0.500250
C116	C	0.357342	0.843546	0.750250
C117	C	-0.124514	0.153047	0.000326
C118	C	0.125486	0.403047	0.250326
C119	C	0.375486	0.653047	0.500326
C120	C	0.625486	0.903047	0.750326
C121	C	-0.052066	0.151984	0.000329
C122	C	0.197934	0.401984	0.250329
C123	C	0.447934	0.651984	0.500329
C124	C	0.697934	0.901984	0.750329
C125	C	-0.069026	0.025374	0.000275
C126	C	0.180974	0.275374	0.250275
C127	C	0.430974	0.525374	0.500275
C128	C	0.680974	0.775374	0.750275
C129	C	-0.141473	0.026439	0.000265
C130	C	0.108527	0.276439	0.250265
C131	C	0.358527	0.526439	0.500265
C132	C	0.608527	0.776439	0.750265
C133	C	-0.169212	0.090278	0.000293
C134	C	0.080788	0.340278	0.250293
C135	C	0.330788	0.590278	0.500293
C136	C	0.580788	0.840278	0.750293
N137	N	-0.820198	0.092495	-0.177902
N138	N	-0.570198	0.342495	0.072098
N139	N	-0.320198	0.592495	0.322098
N140	N	-0.070198	0.842495	0.572098
C141	C	-0.753106	0.341297	0.000317
C142	C	-0.503106	0.591297	0.250317
C143	C	-0.253106	0.841297	0.500317
C144	C	-0.003106	1.091297	0.750317
C145	C	-0.754167	0.413744	0.000301
C146	C	-0.504167	0.663744	0.250301
C147	C	-0.254167	0.913744	0.500301
C148	C	-0.004167	1.163744	0.750301
C149	C	-0.817999	0.441492	0.000298
C150	C	-0.567999	0.691492	0.250298
C151	C	-0.317999	0.941492	0.500298
C152	C	-0.067999	1.191492	0.750298
C153	C	-0.880775	0.396786	0.000332
C154	C	-0.630775	0.646786	0.250332
C155	C	-0.380775	0.896786	0.500332
C156	C	-0.130775	1.146786	0.750332
C157	C	-0.879713	0.324340	0.000357
C158	C	-0.629713	0.574340	0.250357
C159	C	-0.379713	0.824340	0.500357
C160	C	-0.129713	1.074340	0.750357
C161	C	-0.868173	0.549743	-0.043589
C162	C	-0.618173	0.799743	0.206411
C163	C	-0.368173	1.049743	0.456411
C164	C	-0.118173	1.299743	0.706411
C165	C	-0.869233	0.622187	-0.043618
C166	C	-0.619233	0.872187	0.206382
C167	C	-0.369233	1.122187	0.456382
C168	C	-0.119233	1.372187	0.706382
C169	C	-0.821279	0.664937	0.000227
C170	C	-0.571279	0.914937	0.250227
C171	C	-0.321279	1.164937	0.500227
C172	C	-0.071279	1.414937	0.750227
C173	C	-0.772253	0.635235	0.044091
C174	C	-0.522253	0.885235	0.294091
C175	C	-0.272253	1.135235	0.544091
C176	C	-0.022253	1.385235	0.794091
C177	C	-0.771190	0.562790	0.044115
C178	C	-0.521190	0.812790	0.294115
C179	C	-0.271190	1.062790	0.544115
C180	C	-0.021190	1.312790	0.794115
C181	C	-0.819158	0.520046	0.000273
C182	C	-0.569158	0.770046	0.250273
C183	C	-0.319158	1.020046	0.500273
C184	C	-0.069158	1.270046	0.750273
C185	C	-0.759657	0.788190	0.000180
C186	C	-0.509657	1.038190	0.250180
C187	C	-0.259657	1.288190	0.500180
C188	C	-0.009657	1.538190	0.750180
C189	C	-0.760720	0.860638	0.000168
C190	C	-0.510720	1.110638	0.250168
C191	C	-0.260720	1.360638	0.500168
C192	C	-0.010720	1.610638	0.750168
C193	C	-0.887330	0.843677	0.000192
C194	C	-0.637330	1.093677	0.250192
C195	C	-0.387330	1.343677	0.500192
C196	C	-0.137330	1.593677	0.750192
C197	C	-0.886265	0.771231	0.000212
C198	C	-0.636265	1.021231	0.250212
C199	C	-0.386265	1.271231	0.500212
C200	C	-0.136265	1.521231	0.750212
C201	C	-0.822426	0.743492	0.000202
C202	C	-0.572426	0.993492	0.250202
C203	C	-0.322426	1.243492	0.500202
C204	C	-0.072426	1.493492	0.750202
C205	C	-0.862227	0.134494	-0.782159
C206	C	-0.612227	0.384494	-0.532159
C207	C	-0.362227	0.634494	-0.282159
C208	C	-0.112227	0.884494	-0.032159
C209	C	-0.862220	0.134501	-0.703358
C210	C	-0.612220	0.384501	-0.453358
C211	C	-0.362220	0.634501	-0.203358
C212	C	-0.112220	0.884501	0.046642
C213	C	-0.820228	0.092480	-0.663990
C214	C	-0.570228	0.342480	-0.413990
C215	C	-0.320228	0.592480	-0.163990
C216	C	-0.070228	0.842480	0.086010
C217	C	-0.778227	0.050464	-0.703432
C218	C	-0.528227	0.300464	-0.453432
C219	C	-0.278227	0.550464	-0.203432
C220	C	-0.028227	0.800464	0.046568
C221	C	-0.778230	0.050464	-0.782232
C222	C	-0.528230	0.300464	-0.532232
C223	C	-0.278230	0.550464	-0.282232
C224	C	-0.028230	0.800464	-0.032232
C225	C	-0.818502	0.029856	-0.539176
C226	C	-0.568502	0.279856	-0.289176
C227	C	-0.318502	0.529856	-0.039176
C228	C	-0.068502	0.779856	0.210824
C229	C	-0.818504	0.029855	-0.460377
C230	C	-0.568504	0.279855	-0.210377
C231	C	-0.318504	0.529855	0.039623
C232	C	-0.068504	0.779855	0.289623
C233	C	-0.820215	0.092482	-0.420944
C234	C	-0.570215	0.342482	-0.170944
C235	C	-0.320215	0.592482	0.079056
C236	C	-0.070215	0.842482	0.329056
C237	C	-0.821939	0.155111	-0.460320
C238	C	-0.571939	0.405111	-0.210320
C239	C	-0.321939	0.655111	0.039680
C240	C	-0.071939	0.905111	0.289680
C241	C	-0.821942	0.155111	-0.539120
C242	C	-0.571942	0.405111	-0.289120
C243	C	-0.321942	0.655111	-0.039120
C244	C	-0.071942	0.905111	0.210880
C245	C	-0.820220	0.092476	-0.578545
C246	C	-0.570220	0.342476	-0.328545
C247	C	-0.320220	0.592476	-0.078545
C248	C	-0.070220	0.842476	0.171455
C249	C	-0.862203	0.134507	-0.296066
C250	C	-0.612203	0.384507	-0.046066
C251	C	-0.362203	0.634507	0.203934
C252	C	-0.112203	0.884507	0.453934
C253	C	-0.862191	0.134515	-0.217263
C254	C	-0.612191	0.384515	0.032737
C255	C	-0.362191	0.634515	0.282737
C256	C	-0.112191	0.884515	0.532737
C257	C	-0.778202	0.050472	-0.217339
C258	C	-0.528202	0.300472	0.032661
C259	C	-0.278202	0.550472	0.282661
C260	C	-0.028202	0.800472	0.532661
C261	C	-0.778210	0.050470	-0.296140
C262	C	-0.528210	0.300470	-0.046140
C263	C	-0.278210	0.550470	0.203860
C264	C	-0.028210	0.800470	0.453860
C265	C	-0.820214	0.092486	-0.335500
C266	C	-0.570214	0.342486	-0.085500
C267	C	-0.320214	0.592486	0.164500
C268	C	-0.070214	0.842486	0.414500
N269	N	-0.820234	0.092480	0.178409
N270	N	-0.570234	0.342480	0.428409
N271	N	-0.320234	0.592480	0.678409
N272	N	-0.070234	0.842480	0.928409
H273	H	-0.593987	0.211580	0.000268
H274	H	-0.343987	0.461580	0.250268
H275	H	-0.093987	0.711580	0.500268
H276	H	0.156013	0.961580	0.750268
H277	H	-0.177866	-0.024674	0.000236
H278	H	0.072134	0.225326	0.250236
H279	H	0.322134	0.475326	0.500236
H280	H	0.572134	0.725326	0.750236
Cl281	Cl	-0.159390	0.233300	0.000354
Cl282	Cl	0.090610	0.483300	0.250354
Cl283	Cl	0.340610	0.733300	0.500354
Cl284	Cl	0.590610	0.983300	0.750354
Cl285	Cl	-0.914971	0.187353	-0.167691
Cl286	Cl	-0.664971	0.437353	0.082309
Cl287	Cl	-0.414971	0.687353	0.332309
Cl288	Cl	-0.164971	0.937353	0.582309
H289	H	-0.624756	-0.018124	0.000143
H290	H	-0.374756	0.231876	0.250143
H291	H	-0.124756	0.481876	0.500143
H292	H	0.125244	0.731876	0.750143
H293	H	-0.046435	-0.026600	0.000308
H294	H	0.203565	0.223400	0.250308
H295	H	0.453565	0.473400	0.500308
H296	H	0.703565	0.723400	0.750308
H297	H	-0.909150	0.646365	-0.079337
H298	H	-0.659150	0.896365	0.170663
H299	H	-0.409150	1.146365	0.420663
H300	H	-0.159150	1.396365	0.670663
Cl301	Cl	-0.915026	0.187311	-0.653776
Cl302	Cl	-0.665026	0.437311	-0.403776
Cl303	Cl	-0.415026	0.687311	-0.153776
Cl304	Cl	-0.165026	0.937311	0.096224
H305	H	-0.744036	0.016252	-0.671374
H306	H	-0.494036	0.266252	-0.421374
H307	H	-0.244036	0.516252	-0.171374
H308	H	0.005964	0.766252	0.078626
H309	H	-0.907229	0.514941	-0.079291
H310	H	-0.657229	0.764941	0.170709
H311	H	-0.407229	1.014941	0.420709
H312	H	-0.157229	1.264941	0.670709
H313	H	-0.932748	0.419382	0.000344
H314	H	-0.682748	0.669382	0.250344
H315	H	-0.432748	0.919382	0.500344
H316	H	-0.182748	1.169382	0.750344
Cl317	Cl	-0.915004	0.187329	-0.345550
Cl318	Cl	-0.665004	0.437329	-0.095550
Cl319	Cl	-0.415004	0.687329	0.154450
Cl320	Cl	-0.165004	0.937329	0.404450
Cl321	Cl	-0.824104	0.233842	-0.588619
Cl322	Cl	-0.574104	0.483842	-0.338619
Cl323	Cl	-0.324104	0.733842	-0.088619
Cl324	Cl	-0.074104	0.983842	0.161381
Cl325	Cl	-0.958628	0.268147	0.000392
Cl326	Cl	-0.708628	0.518147	0.250392
Cl327	Cl	-0.458628	0.768147	0.500392
Cl328	Cl	-0.208628	1.018147	0.750392
H329	H	-0.744008	0.016263	-0.185287
H330	H	-0.494008	0.266263	0.064713
H331	H	-0.244008	0.516263	0.314713
H332	H	0.005992	0.766263	0.564713
Cl333	Cl	-0.915026	0.187320	-0.831635
Cl334	Cl	-0.665026	0.437320	-0.581635
Cl335	Cl	-0.415026	0.687320	-0.331635
Cl336	Cl	-0.165026	0.937320	-0.081635
H337	H	-0.744018	0.016255	-0.328246
H338	H	-0.494018	0.266255	-0.078246
H339	H	-0.244018	0.516255	0.171754
H340	H	0.005982	0.766255	0.421754
Cl341	Cl	-0.681804	0.916829	0.000140
Cl342	Cl	-0.431804	1.166829	0.250140
Cl343	Cl	-0.181804	1.416829	0.500140
Cl344	Cl	0.068196	1.666829	0.750140
H345	H	-0.823333	0.206109	-0.428215
H346	H	-0.573333	0.456109	-0.178215
H347	H	-0.323333	0.706109	0.071785
H348	H	-0.073333	0.956109	0.321785
H349	H	-0.817102	-0.021146	-0.571275
H350	H	-0.567102	0.228854	-0.321275
H351	H	-0.317102	0.478854	-0.071275
H352	H	-0.067102	0.728854	0.178725
Cl353	Cl	-0.816331	-0.048877	-0.410884
Cl354	Cl	-0.566331	0.201123	-0.160884
Cl355	Cl	-0.316331	0.451123	0.089116
Cl356	Cl	-0.066331	0.701123	0.339116
H357	H	-0.374105	0.181442	-0.079290
H358	H	-0.124105	0.431442	0.170710
H359	H	0.125895	0.681442	0.420710
H360	H	0.375895	0.931442	0.670710
H361	H	-0.493322	-0.020044	0.000187
H362	H	-0.243322	0.229956	0.250187
H363	H	0.006678	0.479956	0.500187
H364	H	0.256678	0.729956	0.750187
H365	H	-0.744033	0.016250	-0.814337
H366	H	-0.494033	0.266250	-0.564337
H367	H	-0.244033	0.516250	-0.314337
H368	H	0.005967	0.766250	-0.064337
H369	H	-0.242673	0.179511	-0.079268
H370	H	0.007327	0.429511	0.170732
H371	H	0.257327	0.679511	0.420732
H372	H	0.507327	0.929511	0.670732
Cl373	Cl	-0.253170	-0.018169	0.099247
Cl374	Cl	-0.003170	0.231831	0.349247
Cl375	Cl	0.246830	0.481831	0.599247
Cl376	Cl	0.496830	0.731831	0.849247
Cl377	Cl	-0.442760	0.237451	0.000300
Cl378	Cl	-0.192760	0.487451	0.250300
Cl379	Cl	0.057240	0.737451	0.500300
Cl380	Cl	0.307240	0.987451	0.750300
H381	H	-0.397752	0.005467	0.079799
H382	H	-0.147752	0.255467	0.329799
H383	H	0.102248	0.505467	0.579799
H384	H	0.352248	0.755467	0.829799
Cl385	Cl	-0.672852	0.306429	0.000313
Cl386	Cl	-0.422852	0.556429	0.250313
Cl387	Cl	-0.172852	0.806429	0.500313
Cl388	Cl	0.077148	1.056429	0.750313
Cl389	Cl	-0.675253	0.469944	0.000260
Cl390	Cl	-0.425253	0.719944	0.250260
Cl391	Cl	-0.175253	0.969944	0.500260
Cl392	Cl	0.074747	1.219944	0.750260
H393	H	-0.015674	0.203099	0.000357
H394	H	0.234326	0.453099	0.250357
H395	H	0.484326	0.703099	0.500357
H396	H	0.734326	0.953099	0.750357
Cl397	Cl	-0.709565	0.525451	0.099260
Cl398	Cl	-0.459565	0.775451	0.349260
Cl399	Cl	-0.209565	1.025451	0.599260
Cl400	Cl	0.040435	1.275451	0.849260
H401	H	-0.733200	0.670042	0.079789
H402	H	-0.483200	0.920042	0.329789
H403	H	-0.233200	1.170042	0.579789
H404	H	0.016800	1.420042	0.829789
Cl405	Cl	-0.679404	0.753314	0.000172
Cl406	Cl	-0.429404	1.003314	0.250172
Cl407	Cl	-0.179404	1.253314	0.500172
Cl408	Cl	0.070596	1.503314	0.750172
H409	H	-0.939303	0.866269	0.000245
H410	H	-0.689303	1.116269	0.250245
H411	H	-0.439303	1.366269	0.500245
H412	H	-0.189303	1.616269	0.750245
Cl413	Cl	-0.965178	0.715038	0.000242
Cl414	Cl	-0.715178	0.965038	0.250242
Cl415	Cl	-0.465178	1.215038	0.500242
Cl416	Cl	-0.215178	1.465038	0.750242
