data_functionalizedCrystal
_audit_creation_method	'MofGen! by Chris Wilmer'
_symmetry_space_group_name_H-M	'P1'
_symmetry_Int_Tables_number	1
_symmetry_cell_setting	triclinic
loop_
_symmetry_equiv_pos_as_xyz
  x,y,z
_cell_length_a	16.992694
_cell_length_b	15.944551
_cell_length_c	16.053802
_cell_angle_alpha	92.564789
_cell_angle_beta	87.249047
_cell_angle_gamma	87.083481
loop_
_atom_site_label
_atom_site_type_symbol
_atom_site_fract_x
_atom_site_fract_y
_atom_site_fract_z
O1	O	1.043704	0.174798	-0.069327
O2	O	1.543704	0.674798	0.430673
O3	O	0.815419	0.172843	-0.069352
O4	O	1.315419	0.672843	0.430648
O5	O	0.935795	0.051964	-0.069332
O6	O	1.435795	0.551964	0.430668
O7	O	0.923328	0.295677	-0.069348
O8	O	1.423328	0.795677	0.430652
O9	O	0.929169	0.058588	0.069526
O10	O	1.429169	0.558588	0.569526
O11	O	0.808793	0.179467	0.069506
O12	O	1.308793	0.679467	0.569506
O13	O	1.037078	0.181422	0.069530
O14	O	1.537078	0.681422	0.569530
Zn15	Zn	0.921884	0.181497	0.091565
Zn16	Zn	1.421884	0.681497	0.591565
Zn17	Zn	0.930613	0.172769	-0.091386
Zn18	Zn	1.430613	0.672769	0.408614
O19	O	0.916702	0.302301	0.069510
O20	O	1.416702	0.802301	0.569510
C21	C	0.782894	0.173641	0.000074
C22	C	1.282894	0.673641	0.500074
C23	C	0.695850	0.166141	0.000065
C24	C	1.195850	0.666141	0.500065
C25	C	0.645613	0.238506	0.000061
C26	C	1.145613	0.738506	0.500061
C27	C	0.563826	0.231454	0.000073
C28	C	1.063826	0.731454	0.500073
C29	C	0.532276	0.152037	0.000083
C30	C	1.032276	0.652037	0.500083
C31	C	0.582519	0.079667	0.000089
C32	C	1.082519	0.579667	0.500089
C33	C	0.664305	0.086719	0.000083
C34	C	1.164305	0.586719	0.500083
C35	C	0.288676	0.122807	0.000107
C36	C	0.788676	0.622807	0.500107
C37	C	0.206884	0.115759	0.000111
C38	C	0.706884	0.615759	0.500111
C39	C	0.188196	0.267548	0.000095
C40	C	0.688196	0.767548	0.500095
C41	C	0.269984	0.274593	0.000084
C42	C	0.769984	0.774593	0.500084
C43	C	0.320220	0.202223	0.000095
C44	C	0.820220	0.702223	0.500095
N45	N	0.448677	0.144827	0.000092
N46	N	0.948677	0.644827	0.500092
N47	N	0.403818	0.209434	0.000092
N48	N	0.903818	0.709434	0.500092
C49	C	0.931964	0.023948	0.000097
C50	C	1.431964	0.523948	0.500097
C51	C	0.930413	-0.069402	0.000098
C52	C	1.430413	0.430598	0.500098
C53	C	0.852090	-0.289513	0.000078
C54	C	1.352090	0.210487	0.500078
C55	C	0.885194	-0.344825	0.068547
C56	C	1.385194	0.155175	0.568547
C57	C	0.927606	-0.240317	0.000091
C58	C	1.427606	0.259683	0.500091
C59	C	0.891744	-0.351338	-0.068356
C60	C	1.391744	0.148662	0.431644
C61	C	0.924889	-0.405412	0.000081
C62	C	1.424889	0.094588	0.500081
C63	C	0.960728	-0.294396	0.068617
C64	C	1.460728	0.205604	0.568617
C65	C	0.967271	-0.300907	-0.068348
C66	C	1.467271	0.199093	0.431652
C67	C	1.000429	-0.356196	0.000138
C68	C	1.500429	0.143804	0.500138
C69	C	0.929169	-0.145209	0.000098
C70	C	1.429169	0.354791	0.500098
C71	C	0.923332	-0.500518	0.000080
C72	C	1.423332	-0.000518	0.500080
C73	C	1.069603	0.180624	0.000103
C74	C	1.569603	0.680624	0.500103
C75	C	1.156648	0.188124	0.000106
C76	C	1.656648	0.688124	0.500106
C77	C	0.920533	0.330318	0.000079
C78	C	1.420533	0.830318	0.500079
C79	C	0.922085	0.423667	0.000073
C80	C	1.422085	0.923667	0.500073
N81	N	0.915931	0.187453	0.216424
N82	N	1.415931	0.687453	0.716424
N83	N	0.936572	0.166806	-0.216246
N84	N	1.436572	0.666806	0.283754
C85	C	0.967170	0.136040	0.260127
C86	C	1.467170	0.636040	0.760127
C87	C	0.963014	0.140215	0.347533
C88	C	1.463014	0.640215	0.847533
C89	C	0.907622	0.195808	0.391235
C90	C	1.407622	0.695808	0.891235
C91	C	0.856378	0.247223	0.347526
C92	C	1.356378	0.747223	0.847526
C93	C	0.860531	0.243043	0.260121
C94	C	1.360531	0.743043	0.760121
C95	C	0.889481	0.214042	0.652641
C96	C	1.389481	0.714042	1.152641
C97	C	0.885333	0.218220	0.740052
C98	C	1.385333	0.718220	1.240052
C99	C	0.991968	0.111209	0.740053
C100	C	1.491968	0.611209	1.240053
C101	C	0.996120	0.107038	0.652646
C102	C	1.496120	0.607038	1.152646
C103	C	0.944873	0.158450	0.608945
C104	C	1.444873	0.658450	1.108945
N105	N	0.903374	0.200078	0.480578
N106	N	1.403374	0.700078	0.980578
N107	N	0.949118	0.154175	0.519604
N108	N	1.449118	0.654175	1.019604
H109	H	0.705207	0.027792	0.000086
H110	H	1.205207	0.527792	0.500086
C111	C	0.965190	-0.223479	-0.193165
C112	C	1.465190	0.276521	0.306835
C113	C	1.014081	-0.274557	-0.146482
C114	C	1.514081	0.225443	0.353518
H115	H	0.994087	-0.207207	-0.241403
H116	H	1.494087	0.292793	0.258597
H117	H	0.921357	-0.253794	-0.209603
H118	H	1.421357	0.246206	0.290397
H119	H	0.946980	-0.174788	-0.160150
H120	H	1.446980	0.325212	0.339850
H121	H	1.032286	-0.323252	-0.179495
H122	H	1.532286	0.176748	0.320505
H123	H	1.057928	-0.244242	-0.130045
H124	H	1.557928	0.255758	0.369955
C125	C	0.758493	0.249341	0.161844
C126	C	1.258493	0.749341	0.661844
C127	C	0.804208	0.299560	0.212081
C128	C	1.304208	0.799560	0.712081
H129	H	0.723716	0.284233	0.132192
H130	H	1.223716	0.784233	0.632192
H131	H	0.792076	0.215642	0.123313
H132	H	1.292076	0.715642	0.623313
H133	H	0.728673	0.214100	0.195963
H134	H	1.228673	0.714100	0.695963
H135	H	0.834033	0.334797	0.177962
H136	H	1.334033	0.834797	0.677962
H137	H	0.770621	0.333273	0.250617
H138	H	1.270621	0.833273	0.750617
C139	C	0.730130	0.331091	-0.071343
C140	C	1.230130	0.831091	0.428657
C141	C	0.680286	0.325806	0.000045
C142	C	1.180286	0.825806	0.500045
H143	H	0.751528	0.384991	-0.071353
H144	H	1.251528	0.884991	0.428647
H145	H	0.771754	0.289011	-0.071336
H146	H	1.271754	0.789011	0.428664
H147	H	0.700907	0.322870	-0.119757
H148	H	1.200907	0.822870	0.380243
H149	H	0.709511	0.334021	0.048458
H150	H	1.209511	0.834021	0.548458
H151	H	0.638656	0.367898	0.000045
H152	H	1.138656	0.867898	0.500045
H153	H	0.850491	-0.364314	0.126426
H154	H	1.350491	0.135686	0.626426
H155	H	0.295666	0.339262	0.000066
H156	H	0.795666	0.839262	0.500066
C157	C	0.553569	0.382195	0.000045
C158	C	1.053569	0.882195	0.500045
C159	C	0.508606	0.311000	0.000064
C160	C	1.008606	0.811000	0.500064
H161	H	0.519477	0.431304	0.000036
H162	H	1.019477	0.931304	0.500036
H163	H	0.583554	0.384102	0.048462
H164	H	1.083554	0.884102	0.548462
H165	H	0.588161	0.379467	-0.048384
H166	H	1.088161	0.879467	0.451616
H167	H	0.474017	0.313724	0.048497
H168	H	0.974017	0.813724	0.548497
H169	H	0.478607	0.309093	-0.048357
H170	H	0.978607	0.809093	0.451643
C171	C	1.100565	-0.447883	-0.071542
C172	C	1.600565	0.052117	0.428458
C173	C	1.085127	-0.395256	0.000176
C174	C	1.585127	0.104744	0.500176
H175	H	1.152859	-0.471984	-0.071522
H176	H	1.652859	0.028016	0.428478
H177	H	1.064321	-0.491308	-0.072016
H178	H	1.564321	0.008692	0.427984
H179	H	1.094998	-0.416041	-0.119728
H180	H	1.594998	0.083959	0.380272
H181	H	1.090689	-0.427100	0.048362
H182	H	1.590689	0.072900	0.548362
H183	H	1.121383	-0.351825	0.000657
H184	H	1.621383	0.148175	0.500657
H185	H	0.789404	-0.260406	0.000139
H186	H	1.289404	0.239594	0.500139
C187	C	1.107176	0.090778	0.553854
C188	C	1.607176	0.590778	1.053854
C189	C	1.056641	0.045685	0.604388
C190	C	1.556641	0.545685	1.104388
H191	H	1.144435	0.052830	0.524000
H192	H	1.644435	0.552830	1.024000
H193	H	1.077225	0.121009	0.515501
H194	H	1.577225	0.621009	1.015501
H195	H	1.134152	0.129068	0.587795
H196	H	1.634152	0.629068	1.087795
H197	H	1.029661	0.007400	0.570447
H198	H	1.529661	0.507400	1.070447
H199	H	1.086596	0.015440	0.642746
H200	H	1.586596	0.515440	1.142746
C201	C	1.068855	0.034046	0.338754
C202	C	1.568855	0.534046	0.838754
C203	C	1.019350	0.083713	0.395571
C204	C	1.519350	0.583713	0.895571
H205	H	1.103640	-0.000831	0.368413
H206	H	1.603640	0.499169	0.868413
H207	H	1.037844	-0.000019	0.304679
H208	H	1.537844	0.499981	0.804679
H209	H	1.098665	0.069307	0.304648
H210	H	1.598665	0.569307	0.804648
H211	H	0.989535	0.048451	0.429673
H212	H	1.489535	0.548451	0.929673
H213	H	1.050364	0.117781	0.429660
H214	H	1.550364	0.617781	0.929660
H215	H	0.329568	0.063878	0.000117
H216	H	0.829568	0.563878	0.500117
H217	H	0.147286	0.326467	0.000088
H218	H	0.647286	0.826467	0.500088
H219	H	0.862556	-0.376319	-0.126245
H220	H	1.362556	0.123681	0.373755
H221	H	1.012279	0.090773	0.224550
H222	H	1.512279	0.590773	0.724550
H223	H	0.181201	0.051085	0.000118
H224	H	0.681201	0.551085	0.500118
C225	C	1.001133	-0.173075	0.146165
C226	C	1.501133	0.326925	0.646165
C227	C	1.000073	-0.260796	0.146851
C228	C	1.500073	0.239204	0.646851
H229	H	1.025417	-0.152332	0.194466
H230	H	1.525417	0.347668	0.694466
H231	H	1.030096	-0.157715	0.097617
H232	H	1.530096	0.342285	0.597617
H233	H	0.948603	-0.149686	0.145961
H234	H	1.448603	0.350314	0.645961
H235	H	1.052605	-0.284185	0.147048
H236	H	1.552605	0.215815	0.647048
H237	H	0.971112	-0.276163	0.195412
H238	H	1.471112	0.223837	0.695412
H239	H	1.033690	0.069351	0.775642
H240	H	1.533690	0.569351	1.275642
C241	C	0.609212	-0.069659	0.000105
C242	C	1.109212	0.430341	0.500105
C243	C	0.547844	-0.007632	0.000100
C244	C	1.047844	0.492368	0.500100
H245	H	0.587805	-0.123554	0.000115
H246	H	1.087805	0.376446	0.500115
H247	H	0.643026	-0.066062	-0.048315
H248	H	1.143026	0.433938	0.451685
H249	H	0.638419	-0.061435	0.048531
H250	H	1.138419	0.438565	0.548531
H251	H	0.518641	-0.015852	-0.048329
H252	H	1.018641	0.484148	0.451671
H253	H	0.514017	-0.011232	0.048526
H254	H	1.014017	0.488768	0.548526
H255	H	0.840224	0.263494	0.775630
H256	H	1.340224	0.763494	1.275630
C257	C	0.783668	0.320242	0.661432
C258	C	1.283668	0.820242	1.161432
C259	C	0.833157	0.270561	0.604612
C260	C	1.333157	0.770561	1.104612
H261	H	0.748899	0.355140	0.631777
H262	H	1.248899	0.855140	1.131777
H263	H	0.753847	0.284997	0.695532
H264	H	1.253847	0.784997	1.195532
H265	H	0.814697	0.354294	0.695513
H266	H	1.314697	0.854294	1.195513
H267	H	0.802127	0.236504	0.570535
H268	H	1.302127	0.736504	1.070535
H269	H	0.862980	0.305810	0.570498
H270	H	1.362980	0.805810	1.070498
H271	H	0.811273	0.292485	0.383113
H272	H	1.311273	0.792485	0.883113
