data_functionalizedCrystal
_audit_creation_method	'MofGen! by Chris Wilmer'
_symmetry_space_group_name_H-M	'P1'
_symmetry_Int_Tables_number	1
_symmetry_cell_setting	triclinic
loop_
_symmetry_equiv_pos_as_xyz
  x,y,z
_cell_length_a	15.298068
_cell_length_b	16.959453
_cell_length_c	15.298259
_cell_angle_alpha	80.286568
_cell_angle_beta	91.587309
_cell_angle_gamma	99.679525
loop_
_atom_site_label
_atom_site_type_symbol
_atom_site_fract_x
_atom_site_fract_y
_atom_site_fract_z
Zn1	Zn	1.253484	-0.014507	-0.727436
Zn2	Zn	1.753484	0.485493	-0.227436
Zn3	Zn	1.278733	-0.165093	-0.580949
Zn4	Zn	1.778733	0.334907	-0.080949
Zn5	Zn	1.132342	-0.058949	-0.555584
Zn6	Zn	1.632342	0.441051	-0.055584
Zn7	Zn	1.106980	-0.172695	-0.701984
Zn8	Zn	1.606980	0.327305	-0.201984
O9	O	1.192885	-0.102811	-0.641488
O10	O	1.692885	0.397189	-0.141488
O11	O	1.379411	-0.012702	-0.729271
O12	O	1.879411	0.487298	-0.229271
O13	O	1.280494	-0.166431	-0.455010
O14	O	1.780494	0.333569	0.044990
O15	O	1.148459	0.057570	-0.578417
O16	O	1.648459	0.557570	-0.078417
O17	O	1.397961	-0.123337	-0.621647
O18	O	1.897961	0.376663	-0.121647
O19	O	1.237462	0.090221	-0.704676
O20	O	1.737462	0.590221	-0.204676
O21	O	1.172941	-0.088447	-0.436375
O22	O	1.672941	0.411553	0.063625
O23	O	1.006400	-0.095818	-0.553738
O24	O	1.506400	0.404182	-0.053738
O25	O	1.105234	-0.136293	-0.827934
O26	O	1.605234	0.363707	-0.327934
O27	O	0.987766	-0.179387	-0.661297
O28	O	1.487766	0.320613	-0.161297
O29	O	1.212870	-0.020073	-0.846634
O30	O	1.712870	0.479927	-0.346634
O31	O	1.255902	-0.276725	-0.596968
O32	O	1.755902	0.223275	-0.096968
O33	O	1.129716	-0.282310	-0.685892
O34	O	1.629716	0.217690	-0.185892
C35	C	0.965300	-0.143251	-0.602004
C36	C	1.465300	0.356749	-0.102004
C37	C	0.867934	-0.160567	-0.585133
C38	C	1.367934	0.339433	-0.085133
C39	C	0.554787	0.020755	-0.762068
C40	C	1.054787	0.520755	-0.262068
C41	C	0.646266	0.037023	-0.777924
C42	C	1.146266	0.537023	-0.277924
C43	C	0.701687	-0.012373	-0.729728
C44	C	1.201687	0.487627	-0.229728
C45	C	0.665621	-0.078040	-0.665673
C46	C	1.165621	0.421960	-0.165673
C47	C	0.574133	-0.094314	-0.649820
C48	C	1.074133	0.405686	-0.149820
C49	C	0.721033	-0.127442	-0.617479
C50	C	1.221033	0.372558	-0.117479
C51	C	0.684967	-0.193109	-0.553424
C52	C	1.184967	0.306891	-0.053424
C53	C	0.593487	-0.209379	-0.537574
C54	C	1.093487	0.290621	-0.037574
C55	C	0.538066	-0.159983	-0.585771
C56	C	1.038066	0.340017	-0.085771
C57	C	0.812522	-0.111168	-0.633332
C58	C	1.312522	0.388832	-0.133332
C59	C	0.831868	-0.226237	-0.521084
C60	C	1.331868	0.273763	-0.021084
C61	C	0.740389	-0.242505	-0.505228
C62	C	1.240389	0.257495	-0.005228
C63	C	1.192817	-0.308195	-0.641443
C64	C	1.692817	0.191805	-0.141443
C65	C	1.192863	-0.396040	-0.641468
C66	C	1.692863	0.103960	-0.141468
C67	C	1.239282	-0.750424	-0.707349
C68	C	1.739282	-0.250424	-0.207349
C69	C	1.146710	-0.784536	-0.575800
C70	C	1.646710	-0.284536	-0.075800
C71	C	1.146681	-0.701998	-0.575774
C72	C	1.646681	-0.201998	-0.075774
C73	C	1.192952	-0.643669	-0.641538
C74	C	1.692952	-0.143669	-0.141538
C75	C	1.239252	-0.667878	-0.707327
C76	C	1.739252	-0.167878	-0.207327
C77	C	1.100374	-0.677784	-0.509991
C78	C	1.600374	-0.177784	-0.009991
C79	C	1.100342	-0.595242	-0.509963
C80	C	1.600342	-0.095242	-0.009963
C81	C	1.146619	-0.536911	-0.575724
C82	C	1.646619	-0.036911	-0.075724
C83	C	1.192922	-0.561124	-0.641515
C84	C	1.692922	-0.061124	-0.141515
C85	C	1.239194	-0.502795	-0.707279
C86	C	1.739194	-0.002795	-0.207279
C87	C	1.285502	-0.527006	-0.773068
C88	C	1.785502	-0.027006	-0.273068
C89	C	1.285529	-0.609547	-0.773088
C90	C	1.785529	-0.109547	-0.273088
C91	C	1.146592	-0.454369	-0.575704
C92	C	1.646592	0.045631	-0.075704
C93	C	1.239164	-0.420249	-0.707257
C94	C	1.739164	0.079751	-0.207257
C95	C	1.421358	-0.062214	-0.681127
C96	C	1.921358	0.437786	-0.181127
C97	C	1.518720	-0.044914	-0.698019
C98	C	2.018720	0.455086	-0.198019
C99	C	1.153406	-0.074074	-0.869955
C100	C	1.653406	0.425926	-0.369955
C101	C	1.136583	-0.061828	-0.967314
C102	C	1.636583	0.438172	-0.467314
C103	C	1.192973	0.103381	-0.641556
C104	C	1.692973	0.603381	-0.141556
C105	C	1.193011	0.191247	-0.641586
C106	C	1.693011	0.691247	-0.141586
C107	C	1.313153	-0.189722	-1.280554
C108	C	1.813153	0.310278	-0.780554
C109	C	1.328954	-0.201234	-1.189080
C110	C	1.828954	0.298766	-0.689080
C111	C	1.280863	-0.166383	-1.133634
C112	C	1.780863	0.333617	-0.633634
C113	C	1.216967	-0.120019	-1.169671
C114	C	1.716967	0.379981	-0.669671
C115	C	1.201158	-0.108512	-1.261153
C116	C	1.701158	0.391488	-0.761153
C117	C	1.168869	-0.085173	-1.114233
C118	C	1.668869	0.414827	-0.614233
C119	C	1.104973	-0.038809	-1.150270
C120	C	1.604973	0.461191	-0.650270
C121	C	1.089168	-0.027303	-1.241744
C122	C	1.589168	0.472697	-0.741744
C123	C	1.137259	-0.062153	-1.297190
C124	C	1.637259	0.437847	-0.797190
C125	C	1.184677	-0.096680	-1.022751
C126	C	1.684677	0.403320	-0.522751
C127	C	1.072683	-0.015470	-1.003350
C128	C	1.572683	0.484530	-0.503350
C129	C	1.056881	-0.003958	-1.094824
C130	C	1.556881	0.496042	-0.594824
C131	C	1.232260	-0.131371	-0.413919
C132	C	1.732260	0.368629	0.086081
C133	C	1.249253	-0.143364	-0.316590
C134	C	1.749253	0.356636	0.183410
H135	H	0.463574	-0.173230	-0.572870
H136	H	0.963574	0.326770	-0.072870
O137	O	0.554582	-0.280203	-0.468486
O138	O	1.054582	0.219797	0.031514
H139	H	0.608487	-0.311812	-0.437627
H140	H	1.108487	0.188188	0.062373
O141	O	1.050401	-0.569135	-0.439004
O142	O	1.550401	-0.069135	0.060996
H143	H	1.058150	-0.501940	-0.450036
H144	H	1.558150	-0.001940	0.049964
H145	H	1.380971	-0.238993	-1.159744
H146	H	1.880971	0.261007	-0.659744
O147	O	1.096657	-0.428254	-0.504750
O148	O	1.596657	0.071746	-0.004750
H149	H	1.025317	-0.454477	-0.507789
H150	H	1.525317	0.045523	-0.007789
H151	H	1.236708	-0.134425	-0.993420
H152	H	1.736708	0.365575	-0.493420
H153	H	1.323231	-0.629268	-0.826650
H154	H	1.823231	-0.129268	-0.326650
O155	O	0.701487	-0.313331	-0.436141
O156	O	1.201487	0.186669	0.063859
H157	H	0.653049	-0.356097	-0.468041
H158	H	1.153049	0.143903	0.031959
H159	H	0.509654	0.060962	-0.801308
H160	H	1.009654	0.560962	-0.301308
H161	H	1.062699	-0.725280	-0.456452
H162	H	1.562699	-0.225280	0.043548
H163	H	1.352295	-0.218099	-1.325704
H164	H	1.852295	0.281901	-0.825704
O165	O	1.297912	-0.178784	-1.034973
O166	O	1.797912	0.321216	-0.534973
H167	H	1.350430	-0.216870	-1.019230
H168	H	1.850430	0.283130	-0.519230
O169	O	1.289216	-0.776535	-0.778310
O170	O	1.789216	-0.276535	-0.278310
H171	H	1.340593	-0.811131	-0.746894
H172	H	1.840593	-0.311131	-0.246894
H173	H	0.841877	-0.057700	-0.685485
H174	H	1.341877	0.442300	-0.185485
H175	H	0.776173	0.000879	-0.742639
H176	H	1.276173	0.500879	-0.242639
O177	O	1.096818	-0.847440	-0.504861
O178	O	1.596818	-0.347440	-0.004861
H179	H	1.104625	-0.908904	-0.515923
H180	H	1.604625	-0.408904	-0.015923
H181	H	0.876992	-0.266462	-0.481842
H182	H	1.376992	0.233538	0.018158
O183	O	1.120465	-0.049627	-1.395898
O184	O	1.620465	0.450373	-0.895898
H185	H	1.098633	-0.109305	-1.417083
H186	H	1.598633	0.390695	-0.917083
H187	H	1.037131	0.010441	-1.271080
H188	H	1.537131	0.510441	-0.771080
O189	O	0.685159	0.107846	-0.847008
O190	O	1.185159	0.607846	-0.347008
H191	H	0.758082	0.110858	-0.849942
H192	H	1.258082	0.610858	-0.349942
H193	H	1.276848	-0.372760	-0.760807
H194	H	1.776848	0.127240	-0.260807
O195	O	1.335413	-0.464092	-0.843996
O196	O	1.835413	0.035908	-0.343996
H197	H	1.327611	-0.402631	-0.832921
H198	H	1.827611	0.097369	-0.332921
O199	O	0.987977	0.046060	-1.133696
O200	O	1.487977	0.546060	-0.633696
H201	H	0.985070	0.048206	-1.206620
H202	H	1.485070	0.548206	-0.706620
O203	O	1.020811	0.022131	-0.943562
O204	O	1.520811	0.522131	-0.443562
H205	H	1.042546	0.006349	-0.873899
H206	H	1.542546	0.506349	-0.373899
