data_functionalizedCrystal
_audit_creation_method	'MofGen! by Chris Wilmer'
_symmetry_space_group_name_H-M	'P1'
_symmetry_Int_Tables_number	1
_symmetry_cell_setting	triclinic
loop_
_symmetry_equiv_pos_as_xyz
  x,y,z
_cell_length_a	21.295417
_cell_length_b	16.120490
_cell_length_c	16.120297
_cell_angle_alpha	89.870317
_cell_angle_beta	87.132998
_cell_angle_gamma	87.122615
loop_
_atom_site_label
_atom_site_type_symbol
_atom_site_fract_x
_atom_site_fract_y
_atom_site_fract_z
Zn1	Zn	-0.318966	1.247397	0.534493
Zn2	Zn	0.014367	1.580731	0.867827
Zn3	Zn	0.347700	1.914064	1.201160
Zn4	Zn	-0.419176	1.254333	0.395422
Zn5	Zn	-0.085843	1.587666	0.728756
Zn6	Zn	0.247490	1.920999	1.062089
Zn7	Zn	-0.308324	1.115389	0.388416
Zn8	Zn	0.025010	1.448722	0.721749
Zn9	Zn	0.358343	1.782055	1.055082
Zn10	Zn	-0.418591	1.108288	0.527395
Zn11	Zn	-0.085257	1.441622	0.860729
Zn12	Zn	0.248076	1.774955	1.194062
O13	O	-0.366264	1.181352	0.461432
O14	O	-0.032931	1.514685	0.794765
O15	O	0.300402	1.848018	1.128098
O16	O	-0.336958	1.364683	0.521948
O17	O	-0.003625	1.698017	0.855281
O18	O	0.329708	2.031350	1.188615
O19	O	-0.400263	1.241775	0.278128
O20	O	-0.066929	1.575109	0.611461
O21	O	0.266404	1.908442	0.944795
O22	O	-0.221650	1.132969	0.407831
O23	O	0.111683	1.466302	0.741165
O24	O	0.445016	1.799636	1.074498
O25	O	-0.410582	1.369779	0.419773
O26	O	-0.077249	1.703112	0.753107
O27	O	0.256084	2.036445	1.086440
O28	O	-0.229469	1.229955	0.515154
O29	O	0.103864	1.563289	0.848487
O30	O	0.437197	1.896622	1.181821
O31	O	-0.318820	1.139694	0.272980
O32	O	0.014514	1.473027	0.606314
O33	O	0.347847	1.806360	0.939647
O34	O	-0.318252	0.998081	0.400949
O35	O	0.015081	1.331414	0.734282
O36	O	0.348415	1.664747	1.067616
O37	O	-0.409584	1.120867	0.644702
O38	O	-0.076251	1.454201	0.978035
O39	O	0.257083	1.787534	1.311369
O40	O	-0.399264	0.992864	0.503057
O41	O	-0.065931	1.326197	0.836390
O42	O	0.267402	1.659531	1.169723
O43	O	-0.336391	1.223070	0.649917
O44	O	-0.003057	1.556404	0.983250
O45	O	0.330276	1.889737	1.316583
O46	O	-0.507184	1.234890	0.412891
O47	O	-0.173851	1.568224	0.746224
O48	O	0.159483	1.901557	1.079557
O49	O	-0.506754	1.127592	0.509851
O50	O	-0.173420	1.460926	0.843184
O51	O	0.159913	1.794259	1.176517
C52	C	-0.357540	0.965300	0.450473
C53	C	-0.024207	1.298633	0.783806
C54	C	0.309126	1.631966	1.117139
C55	C	-0.353824	0.872871	0.445804
C56	C	-0.020491	1.206204	0.779137
C57	C	0.312843	1.539538	1.112471
C58	C	-0.385537	0.659904	0.485650
C59	C	-0.052203	0.993237	0.818983
C60	C	0.281130	1.326571	1.152316
C61	C	-0.347045	0.703647	0.437279
C62	C	-0.013711	1.036981	0.770613
C63	C	0.319622	1.370314	1.103946
C64	C	-0.350818	0.797812	0.442024
C65	C	-0.017484	1.131145	0.775357
C66	C	0.315849	1.464479	1.108691
C67	C	-0.381764	0.565731	0.480906
C68	C	-0.048431	0.899064	0.814240
C69	C	0.284902	1.232397	1.147573
C70	C	-0.529810	1.181245	0.461380
C71	C	-0.196477	1.514578	0.794713
C72	C	0.136857	1.847912	1.128047
C73	C	-0.599779	1.181274	0.461390
C74	C	-0.266446	1.514607	0.794723
C75	C	0.066887	1.847941	1.128056
C76	C	-0.632853	1.237189	0.410960
C77	C	-0.299520	1.570522	0.744293
C78	C	0.033814	1.903855	1.077626
C79	C	-0.698598	1.237227	0.410980
C80	C	-0.365265	1.570560	0.744314
C81	C	-0.031931	1.903893	1.077647
C82	C	-0.731265	1.181336	0.461422
C83	C	-0.397932	1.514669	0.794755
C84	C	-0.064599	1.848002	1.128088
C85	C	-0.698184	1.125417	0.511862
C86	C	-0.364851	1.458750	0.845195
C87	C	-0.031517	1.792084	1.178529
C88	C	-0.632441	1.125386	0.511846
C89	C	-0.299108	1.458719	0.845179
C90	C	0.034226	1.792053	1.178513
N91	N	-0.831828	1.108270	0.464071
N92	N	-0.498495	1.441603	0.797404
N93	N	-0.165162	1.774937	1.130738
N94	N	-0.894281	1.108302	0.464081
N95	N	-0.560948	1.441635	0.797415
N96	N	-0.227615	1.774969	1.130748
C97	C	-0.929346	1.181426	0.461474
C98	C	-0.596012	1.514760	0.794807
C99	C	-0.262679	1.848093	1.128141
N100	N	-0.899597	1.254520	0.458840
N101	N	-0.566264	1.587854	0.792173
N102	N	-0.232930	1.921187	1.125506
N103	N	-0.837138	1.254488	0.458825
N104	N	-0.503805	1.587821	0.792158
N105	N	-0.170471	1.921154	1.125492
C106	C	-0.802553	1.181363	0.461445
C107	C	-0.469219	1.514697	0.794778
C108	C	-0.135886	1.848030	1.128112
C109	C	-1.033707	1.237387	0.411064
C110	C	-0.700374	1.570720	0.744397
C111	C	-0.367041	1.904054	1.077730
C112	C	-1.099454	1.237426	0.411090
C113	C	-0.766120	1.570759	0.744424
C114	C	-0.432787	1.904093	1.077757
C115	C	-1.099038	1.125609	0.511967
C116	C	-0.765705	1.458942	0.845300
C117	C	-0.432371	1.792276	1.178634
C118	C	-1.033294	1.125577	0.511945
C119	C	-0.699960	1.458910	0.845279
C120	C	-0.366627	1.792244	1.178612
C121	C	-1.000632	1.181465	0.461489
C122	C	-0.667299	1.514798	0.794822
C123	C	-0.333965	1.848132	1.128156
C124	C	-0.202082	1.181481	0.461503
C125	C	0.131252	1.514814	0.794836
C126	C	0.464585	1.848147	1.128169
C127	C	-0.132117	1.181535	0.461533
C128	C	0.201217	1.514869	0.794866
C129	C	0.534550	1.848202	1.128200
C130	C	-0.374109	1.170403	0.678325
C131	C	-0.040776	1.503737	1.011658
C132	C	0.292558	1.837070	1.344992
C133	C	-0.377452	1.165738	0.770752
C134	C	-0.044119	1.499071	1.104086
C135	C	0.289214	1.832404	1.437419
C136	C	-0.375023	1.398247	0.472434
C137	C	-0.041690	1.731581	0.805767
C138	C	0.291644	2.064914	1.139101
C139	C	-0.378755	1.490675	0.477122
C140	C	-0.045422	1.824008	0.810456
C141	C	0.287911	2.157342	1.143789
C142	C	-0.358406	1.192305	0.245385
C143	C	-0.025073	1.525639	0.578718
C144	C	0.308260	1.858972	0.912051
C145	C	-0.354893	1.197132	0.152966
C146	C	-0.021559	1.530465	0.486299
C147	C	0.311774	1.863799	0.819633
C148	C	-0.383540	1.157189	0.939976
C149	C	-0.050207	1.490522	1.273310
C150	C	0.283126	1.823856	1.606643
C151	C	-0.348806	1.205678	0.983747
C152	C	-0.015473	1.539012	1.317081
C153	C	0.317861	1.872345	1.650414
C154	C	-0.352194	1.200922	1.077909
C155	C	-0.018860	1.534255	1.411243
C156	C	0.314473	1.867588	1.744576
C157	C	-0.380154	1.161944	0.845806
C158	C	-0.046820	1.495278	1.179139
C159	C	0.286513	1.828611	1.512472
H160	H	-0.311257	0.670377	0.392305
H161	H	0.022077	1.003710	0.725638
H162	H	0.355410	1.337044	1.058972
Br163	Br	-0.587552	1.049497	0.580294
Br164	Br	-0.254219	1.382830	0.913627
Br165	Br	0.079115	1.716164	1.246960
Br166	Br	-1.144342	1.313325	0.342652
Br167	Br	-0.811008	1.646659	0.675985
Br168	Br	-0.477675	1.979992	1.009319
Br169	Br	-0.437344	1.082050	0.995383
Br170	Br	-0.104010	1.415383	1.328716
Br171	Br	0.229323	1.748717	1.662049
H172	H	-0.725532	1.282762	0.369914
H173	H	-0.392198	1.616095	0.703248
H174	H	-0.058865	1.949429	1.036581
Br175	Br	-0.295016	1.280844	0.928344
Br176	Br	0.038317	1.614177	1.261677
Br177	Br	0.371650	1.947510	1.595010
Br178	Br	-1.143366	1.049763	0.580434
Br179	Br	-0.810033	1.383097	0.913767
Br180	Br	-0.476700	1.716430	1.247100
H181	H	-0.421322	0.693172	0.530620
H182	H	-0.087989	1.026506	0.863953
H183	H	0.245345	1.359839	1.197287
Br184	Br	-0.742517	1.049570	0.580326
Br185	Br	-0.409184	1.382904	0.913659
Br186	Br	-0.075851	1.716237	1.246992
Br187	Br	-0.989377	1.313230	0.342587
Br188	Br	-0.656043	1.646563	0.675920
Br189	Br	-0.322710	1.979897	1.009253
Br190	Br	-0.988404	1.049687	0.580388
Br191	Br	-0.655071	1.383020	0.913721
Br192	Br	-0.321738	1.716353	1.247055
Br193	Br	-0.588530	1.313047	0.342496
Br194	Br	-0.255197	1.646380	0.675829
Br195	Br	0.078136	1.979714	1.009162
