data_functionalizedCrystal
_audit_creation_method	'MofGen! by Chris Wilmer'
_symmetry_space_group_name_H-M	'P1'
_symmetry_Int_Tables_number	1
_symmetry_cell_setting	triclinic
loop_
_symmetry_equiv_pos_as_xyz
  x,y,z
_cell_length_a	10.540514
_cell_length_b	10.540539
_cell_length_c	9.016244
_cell_angle_alpha	90.000067
_cell_angle_beta	89.996072
_cell_angle_gamma	95.479674
loop_
_atom_site_label
_atom_site_type_symbol
_atom_site_fract_x
_atom_site_fract_y
_atom_site_fract_z
O1	O	1.685912	-0.178743	-0.123216
O2	O	1.316495	-0.195632	-0.123243
O3	O	1.509631	-0.002480	-0.123227
O4	O	1.492775	-0.371894	-0.123232
O5	O	1.509603	-0.002484	0.123454
O6	O	1.316466	-0.195636	0.123437
O7	O	1.685883	-0.178747	0.123465
Cu8	Cu	1.501172	-0.187192	0.145975
Cu9	Cu	1.501206	-0.187187	-0.145753
O10	O	1.492747	-0.371899	0.123449
C11	C	1.269177	-0.194374	0.000093
C12	C	1.128227	-0.190605	0.000082
C13	C	1.508353	0.044821	0.000111
C14	C	1.504571	0.185769	0.000102
C15	C	1.733201	-0.180004	0.000125
C16	C	1.874151	-0.183774	0.000126
C17	C	1.944856	-0.045634	0.000120
C18	C	2.091469	-0.049508	-0.000463
C19	C	2.066486	-0.258898	-0.140498
C20	C	1.919947	-0.254044	-0.140592
C21	C	1.919548	-0.256094	0.139939
C22	C	2.066527	-0.257427	0.141764
C23	C	1.494025	-0.419200	0.000108
C24	C	1.497807	-0.560147	0.000106
N25	N	1.501158	-0.187195	0.351161
C26	C	1.359652	0.369182	-0.000462
C27	C	1.363486	0.222564	0.000093
C28	C	1.572451	0.247430	0.140974
C29	C	1.567636	0.393974	0.141093
C30	C	1.570538	0.394497	-0.139429
C31	C	1.571837	0.247516	-0.141292
N32	N	1.501230	-0.187174	-0.350940
C33	C	1.397525	-0.290172	0.586185
C34	C	1.397755	-0.290557	0.414294
C35	C	1.633882	-0.217316	0.413509
C36	C	1.633316	-0.218046	0.585454
C37	C	1.473384	-0.053759	0.585704
C38	C	1.470338	-0.054624	0.413750
H39	H	2.134134	0.004200	0.100293
H40	H	1.309675	0.180802	0.101236
Cl41	Cl	1.724285	0.468053	0.150993
H42	H	1.415192	-0.388594	0.629379
Cl43	Cl	1.845823	-0.410707	-0.149834
Cl44	Cl	1.244779	-0.262607	0.650046
Cl45	Cl	1.425340	-0.443393	0.350756
H46	H	1.657671	-0.315381	0.625544
Cl47	Cl	1.876362	-0.177029	-0.303455
Cl48	Cl	1.500045	0.443189	-0.304278
Cl49	Cl	1.900797	0.040891	0.155755
Cl50	Cl	1.319590	-0.019367	0.350839
Cl51	Cl	1.732415	0.212935	0.149082
H52	H	1.522170	0.206655	-0.245505
Cl53	Cl	1.898195	0.039626	-0.155296
Cl54	Cl	2.100974	-0.418886	-0.148003
H55	H	1.548996	0.022903	0.626363
H56	H	2.090719	-0.360270	0.150670
Cl57	Cl	1.499616	0.181658	0.302821
Cl58	Cl	1.730650	0.210130	-0.154424
H59	H	1.540866	0.025703	0.370780
H60	H	1.712959	-0.146049	0.627043
H61	H	1.672443	0.441732	-0.140369
H62	H	1.304135	0.399383	0.099986
H63	H	1.299137	-0.272435	0.372143
Cl64	Cl	1.755944	-0.104656	0.350376
H65	H	1.658780	-0.313552	0.370432
H66	H	2.133200	0.003986	-0.101833
Cl67	Cl	1.870933	-0.185099	0.304519
Cl68	Cl	2.132204	-0.186570	-0.302655
Cl69	Cl	2.129689	-0.180264	0.302339
Cl70	Cl	1.846582	-0.413405	0.142046
Cl71	Cl	1.281019	0.156777	-0.155815
Cl72	Cl	1.273616	0.413330	-0.156434
Cl73	Cl	1.490138	0.437507	0.303657
Cl74	Cl	1.327088	-0.009517	0.652720
