data_functionalizedCrystal
_audit_creation_method	'MofGen! by Chris Wilmer'
_symmetry_space_group_name_H-M	'P1'
_symmetry_Int_Tables_number	1
_symmetry_cell_setting	triclinic
loop_
_symmetry_equiv_pos_as_xyz
  x,y,z
_cell_length_a	11.026607
_cell_length_b	15.995350
_cell_length_c	9.482900
_cell_angle_alpha	99.336743
_cell_angle_beta	78.636152
_cell_angle_gamma	96.039196
loop_
_atom_site_label
_atom_site_type_symbol
_atom_site_fract_x
_atom_site_fract_y
_atom_site_fract_z
O1	O	1.629075	0.340363	-0.120882
O2	O	1.275769	0.300437	-0.120885
O3	O	1.462080	0.199968	-0.120882
O4	O	1.442765	0.440832	-0.120885
O5	O	1.424236	0.220481	0.120910
O6	O	1.237926	0.320950	0.120907
O7	O	1.591231	0.360875	0.120910
Cu8	Cu	1.411123	0.342785	0.142986
Cu9	Cu	1.455878	0.318527	-0.142961
O10	O	1.404921	0.461344	0.120907
C11	C	1.211637	0.303328	0.000010
C12	C	1.076923	0.281371	0.000009
C13	C	1.003118	0.341997	0.000007
C14	C	0.863884	0.319305	0.000005
C15	C	1.442360	0.178909	0.000011
C16	C	1.439967	0.085597	0.000003
C17	C	1.431369	-0.253446	0.000008
C18	C	1.298767	-0.226057	-0.000536
C19	C	1.301076	-0.128960	0.000009
C20	C	1.435634	-0.085243	0.000005
C21	C	1.479470	-0.104742	0.138078
C22	C	1.476118	-0.201871	0.138193
C23	C	1.521895	-0.225142	-0.136769
C24	C	1.522149	-0.128356	-0.138594
C25	C	1.438051	0.009819	0.000008
C26	C	1.428954	-0.348507	0.000014
C27	C	1.655364	0.357984	0.000012
C28	C	1.790080	0.379940	0.000004
C29	C	1.424641	0.482403	0.000011
C30	C	1.427036	0.575714	0.000009
N31	N	1.379654	0.359848	0.344106
N32	N	1.487357	0.301459	-0.344081
C33	C	1.446587	0.323554	0.416306
C34	C	1.420413	0.337759	0.583723
H35	H	1.265122	-0.116689	-0.098967
C36	C	1.248041	-0.273246	-0.134280
H37	H	1.307271	-0.310078	-0.190986
H38	H	1.232537	-0.233172	-0.191141
H39	H	1.173024	-0.305620	-0.103218
C40	C	1.550179	0.267369	0.332394
H41	H	1.588773	0.246436	0.399402
H42	H	1.610064	0.300021	0.272999
H43	H	1.515599	0.220974	0.273032
H44	H	1.230558	-0.245256	0.097926
C45	C	1.276044	0.416018	0.428017
H46	H	1.237434	0.436938	0.361009
H47	H	1.310592	0.462411	0.487401
H48	H	1.216161	0.383344	0.487392
C49	C	1.485426	-0.273710	-0.278149
H50	H	1.541210	-0.255687	-0.359358
H51	H	1.403427	-0.262467	-0.282391
H52	H	1.489155	-0.332947	-0.279924
C53	C	1.611929	-0.064950	0.145024
H54	H	1.636588	-0.077520	0.229314
H55	H	1.613607	-0.005111	0.149160
H56	H	1.667319	-0.087686	0.060880
C57	C	0.843950	0.472759	-0.000005
H58	H	0.930465	0.475835	-0.000016
H59	H	0.804121	0.507008	0.084307
H60	H	0.830516	0.492690	-0.084340
C61	C	1.316798	0.393931	0.667629
H62	H	1.278188	0.414851	0.600621
H63	H	1.351346	0.440324	0.727012
H64	H	1.256916	0.361258	0.727004
H65	H	0.824003	0.250594	-0.000031
C66	C	1.590953	0.245271	0.572017
H67	H	1.629545	0.224338	0.639027
H68	H	1.650840	0.277922	0.512621
H69	H	1.556374	0.198875	0.512654
C70	C	1.023051	0.188556	0.000010
H71	H	1.087410	0.153463	0.000021
H72	H	0.987455	0.170316	-0.084306
H73	H	0.961066	0.184626	0.084341
C74	C	1.210166	-0.090492	0.133953
H75	H	1.171686	-0.134214	0.188254
H76	H	1.148573	-0.064141	0.103174
H77	H	1.254166	-0.049395	0.193092
H78	H	1.572555	-0.218904	0.144455
H79	H	1.412240	-0.218609	0.241408
C80	C	1.396330	-0.063897	0.276890
H81	H	1.334868	-0.034945	0.250997
H82	H	1.445539	-0.024684	0.332758
H83	H	1.357263	-0.106876	0.332542
H84	H	1.490286	-0.116985	-0.240737
H85	H	1.043008	0.410702	0.000014
H86	H	1.621579	-0.098912	-0.146934
C87	C	1.654247	-0.248242	-0.138043
H88	H	1.654393	-0.275008	-0.055674
H89	H	1.708597	-0.198060	-0.135016
H90	H	1.681387	-0.285931	-0.224217
