data_functionalizedCrystal
_audit_creation_method	'MofGen! by Chris Wilmer'
_symmetry_space_group_name_H-M	'P1'
_symmetry_Int_Tables_number	1
_symmetry_cell_setting	triclinic
loop_
_symmetry_equiv_pos_as_xyz
  x,y,z
_cell_length_a	12.759401
_cell_length_b	12.759400
_cell_length_c	10.686551
_cell_angle_alpha	94.405838
_cell_angle_beta	94.394040
_cell_angle_gamma	90.013728
loop_
_atom_site_label
_atom_site_type_symbol
_atom_site_fract_x
_atom_site_fract_y
_atom_site_fract_z
Zn1	Zn	1.651852	-0.372646	0.713409
Zn2	Zn	1.638261	-0.561848	0.502407
Zn3	Zn	1.462670	-0.386179	0.502430
Zn4	Zn	1.476140	-0.548284	0.713362
O5	O	1.557231	-0.467239	0.607902
O6	O	1.797071	-0.397757	0.685429
O7	O	1.603643	-0.549885	0.325829
O8	O	1.487816	-0.237361	0.530446
O9	O	1.787085	-0.536763	0.530407
O10	O	1.626808	-0.227419	0.685451
O11	O	1.474637	-0.420822	0.325846
O12	O	1.317435	-0.407669	0.530401
O13	O	1.510774	-0.513645	0.889950
O14	O	1.327332	-0.526767	0.685372
O15	O	1.639869	-0.384605	0.889984
O16	O	1.616704	-0.707071	0.530362
O17	O	1.497595	-0.697106	0.685350
C18	C	1.284262	-0.467216	0.607885
C19	C	1.167487	-0.467229	0.607907
C20	C	1.117826	-0.394968	0.688752
C21	C	1.008102	-0.394987	0.688760
C22	C	0.997711	-0.539539	0.527074
C23	C	1.107432	-0.539513	0.527061
C24	C	1.177881	-0.322683	0.769598
C25	C	1.128220	-0.250417	0.850451
C26	C	1.018496	-0.250437	0.850459
C27	C	0.958434	-0.322722	0.769614
C28	C	1.557167	-0.740208	0.607876
C29	C	1.557238	-0.856983	0.607907
C30	C	1.619339	-0.916993	0.527294
C31	C	1.619406	-1.026715	0.527333
C32	C	1.495263	-1.016406	0.688601
C33	C	1.495202	-0.906686	0.688568
C34	C	1.681375	-0.867290	0.446633
C35	C	1.743479	-0.927301	0.366012
C36	C	1.743546	-1.037023	0.366051
C37	C	1.681509	-1.086733	0.446711
C38	C	1.831265	-0.467263	0.607920
C39	C	1.948042	-0.467274	0.607928
C40	C	1.578340	-0.446103	0.937032
C41	C	1.587336	-0.437095	1.077288
C42	C	1.557325	-0.193202	0.607956
C43	C	1.557366	-0.076424	0.607979
C44	C	1.536264	-0.488218	0.280052
C45	C	1.527472	-0.496929	0.139797
H46	H	1.177129	-0.191559	0.916264
H47	H	0.978065	-0.191587	0.916284
O48	O	1.803836	-0.879182	0.287624
C49	C	1.858643	-0.955682	0.216460
H50	H	1.865612	-1.030551	0.268179
H51	H	1.940551	-0.924777	0.203066
H52	H	1.814086	-0.973579	0.120592
H53	H	1.469340	-0.555048	1.086014
H54	H	1.444635	-0.857824	0.754211
H55	H	1.267224	-0.322659	0.769600
H56	H	0.869088	-0.322712	0.769600
O57	O	1.656609	-0.367776	1.141642
C58	C	1.650488	-0.373920	1.272052
H59	H	1.570531	-0.407192	1.289918
H60	H	1.660818	-0.292038	1.322243
H61	H	1.715162	-0.427496	1.309448
O62	O	0.939525	-0.609801	0.448438
C63	C	1.006888	-0.673596	0.377101
H64	H	1.084826	-0.630814	0.372804
H65	H	0.968791	-0.691072	0.277664
H66	H	1.021520	-0.750487	0.423148
H67	H	1.147867	-0.598355	0.461230
O68	O	1.435024	-1.064862	0.766823
C69	C	1.448413	-1.174571	0.749586
H70	H	1.476653	-1.195812	0.652244
H71	H	1.370278	-1.215785	0.758073
H72	H	1.509132	-1.200829	0.824500
O73	O	1.681770	-1.193316	0.446761
C74	C	1.784542	-1.227788	0.479317
H75	H	1.843656	-1.165899	0.457797
H76	H	1.799650	-1.304853	0.422449
H77	H	1.793425	-1.240487	0.584029
H78	H	1.681324	-0.777950	0.446588
H79	H	1.794123	-1.085880	0.300415
