data_functionalizedCrystal
_audit_creation_method	'MofGen! by Chris Wilmer'
_symmetry_space_group_name_H-M	'P1'
_symmetry_Int_Tables_number	1
_symmetry_cell_setting	triclinic
loop_
_symmetry_equiv_pos_as_xyz
  x,y,z
_cell_length_a	13.897449
_cell_length_b	18.101395
_cell_length_c	13.897441
_cell_angle_alpha	89.969302
_cell_angle_beta	89.979267
_cell_angle_gamma	90.032384
loop_
_atom_site_label
_atom_site_type_symbol
_atom_site_fract_x
_atom_site_fract_y
_atom_site_fract_z
Zn1	Zn	1.474613	-0.294781	-0.545380
Zn2	Zn	1.974613	0.205219	-0.045380
Zn3	Zn	1.474469	-0.418636	-0.384082
Zn4	Zn	1.974469	0.081364	0.115918
Zn5	Zn	1.313302	-0.294816	-0.384099
Zn6	Zn	1.813302	0.205184	0.115901
Zn7	Zn	1.313246	-0.418588	-0.545334
Zn8	Zn	1.813246	0.081412	-0.045334
O9	O	1.393907	-0.356705	-0.464724
O10	O	1.893907	0.143295	0.035276
O11	O	1.609575	-0.311216	-0.523996
O12	O	2.109575	0.188784	-0.023996
O13	O	1.453053	-0.402246	-0.249102
O14	O	1.953053	0.097754	0.250898
O15	O	1.334784	-0.191178	-0.405520
O16	O	1.834784	0.308822	0.094480
O17	O	1.609470	-0.402212	-0.405490
O18	O	2.109470	0.097788	0.094510
O19	O	1.453298	-0.191152	-0.524013
O20	O	1.953298	0.308848	-0.024013
O21	O	1.334644	-0.311276	-0.249115
O22	O	1.834644	0.188724	0.250885
O23	O	1.178313	-0.311229	-0.405475
O24	O	1.678313	0.188771	0.094525
O25	O	1.334688	-0.402129	-0.680322
O26	O	1.834688	0.097871	-0.180322
O27	O	1.178272	-0.402164	-0.523934
O28	O	1.678272	0.097836	-0.023934
O29	O	1.453244	-0.311169	-0.680356
O30	O	1.953244	0.188831	-0.180356
O31	O	1.452999	-0.522263	-0.405445
O32	O	1.952999	-0.022263	0.094555
O33	O	1.334549	-0.522227	-0.523917
O34	O	1.834549	-0.022227	-0.023917
C35	C	1.143293	-0.356695	-0.464702
C36	C	1.643293	0.143305	0.035298
C37	C	1.036079	-0.356709	-0.464715
C38	C	1.536079	0.143291	0.035285
C39	C	1.393778	-0.549116	-0.464695
C40	C	1.893778	-0.049116	0.035305
C41	C	1.393811	-0.631430	-0.464716
C42	C	1.893811	-0.131430	0.035284
C43	C	0.839784	-0.356712	-0.464741
C44	C	1.339784	0.143288	0.035259
C45	C	0.949016	-0.356708	-0.464724
C46	C	1.449016	0.143292	0.035276
C47	C	1.394023	-0.930521	-0.464767
C48	C	1.894023	-0.430521	0.035233
C49	C	1.319670	-0.899204	-0.539492
C50	C	1.819670	-0.399204	-0.039492
C51	C	1.319317	-0.813586	-0.539258
C52	C	1.819317	-0.313586	-0.039258
C53	C	1.393918	-0.782138	-0.464743
C54	C	1.893918	-0.282138	0.035257
C55	C	1.366392	-0.813295	-0.363084
C56	C	1.866392	-0.313295	0.136916
C57	C	1.365913	-0.898940	-0.363531
C58	C	1.865913	-0.398940	0.136469
C59	C	1.496064	-0.898862	-0.490807
C60	C	1.996064	-0.398862	0.009193
C61	C	1.495464	-0.813210	-0.493037
C62	C	1.995464	-0.313210	0.006963
C63	C	1.393860	-0.698279	-0.464722
C64	C	1.893860	-0.198279	0.035278
C65	C	1.394078	-1.014380	-0.464781
C66	C	1.894078	-0.514380	0.035219
C67	C	1.645500	-0.356716	-0.464746
C68	C	2.145500	0.143284	0.035254
C69	C	1.752714	-0.356720	-0.464756
C70	C	2.252714	0.143280	0.035244
C71	C	1.393976	-0.356640	-0.716317
C72	C	1.893976	0.143360	-0.216317
C73	C	1.394005	-0.356612	-0.823531
C74	C	1.894005	0.143388	-0.323531
C75	C	1.394063	-0.163543	-0.464773
C76	C	1.894063	0.336457	0.035227
C77	C	1.394130	-0.081229	-0.464795
C78	C	1.894130	0.418771	0.035205
C79	C	1.394031	-0.356562	-1.019826
C80	C	1.894031	0.143438	-0.519826
C81	C	1.394014	-0.356592	-0.910594
C82	C	1.894014	0.143408	-0.410594
C83	C	1.393895	-0.356717	-0.214109
C84	C	1.893895	0.143283	0.285891
C85	C	1.394052	-0.356536	-0.106896
C86	C	1.894052	0.143464	0.393104
H87	H	1.336539	-0.792518	-0.614637
H88	H	1.836539	-0.292518	-0.114637
H89	H	1.291321	-0.918985	-0.341472
H90	H	1.791321	-0.418985	0.158528
O91	O	1.229021	-0.789308	-0.518788
O92	O	1.729021	-0.289308	-0.018788
C93	C	1.164438	-0.815556	-0.589140
C94	C	1.664438	-0.315556	-0.089140
H95	H	1.195686	-0.866969	-0.624688
H96	H	1.695686	-0.366969	-0.124688
H97	H	1.152578	-0.770976	-0.645880
H98	H	1.652578	-0.270976	-0.145880
C99	C	1.029322	-0.771849	-0.497663
C100	C	1.529322	-0.271849	0.002337
C101	C	1.067697	-0.835000	-0.541318
C102	C	1.567697	-0.335000	-0.041318
H103	H	0.969646	-0.783841	-0.468167
H104	H	1.469646	-0.283841	0.031833
H105	H	1.072832	-0.754163	-0.450267
H106	H	1.572832	-0.254163	0.049733
H107	H	1.019447	-0.734706	-0.544954
H108	H	1.519447	-0.234706	-0.044954
H109	H	1.077583	-0.872139	-0.494026
H110	H	1.577583	-0.372139	0.005974
H111	H	1.024186	-0.852693	-0.588706
H112	H	1.524186	-0.352693	-0.088706
H113	H	1.553792	-0.791799	-0.442578
H114	H	2.053792	-0.291799	0.057422
O115	O	1.562042	-0.923118	-0.425831
O116	O	2.062042	-0.423118	0.074169
C117	C	1.516271	-0.968448	-0.357119
C118	C	2.016271	-0.468448	0.142881
H119	H	1.447111	-0.991870	-0.388971
H120	H	1.947111	-0.491870	0.111029
H121	H	1.498421	-0.934392	-0.290486
H122	H	1.998421	-0.434392	0.209514
C123	C	1.668754	-1.003563	-0.289920
C124	C	2.168754	-0.503563	0.210080
C125	C	1.583814	-1.032335	-0.329045
C126	C	2.083814	-0.532335	0.170955
H127	H	1.710418	-1.042969	-0.272599
H128	H	2.210418	-0.542969	0.227401
H129	H	1.699591	-0.973021	-0.336210
H130	H	2.199591	-0.473021	0.163790
H131	H	1.653866	-0.975183	-0.234398
H132	H	2.153866	-0.475183	0.265602
H133	H	1.598702	-1.060706	-0.384573
H134	H	2.098702	-0.560706	0.115427
H135	H	1.552981	-1.062883	-0.282763
H136	H	2.052981	-0.562883	0.217237
H137	H	1.292590	-0.791912	-0.340630
H138	H	1.792590	-0.291912	0.159370
O139	O	1.340109	-0.923809	-0.629644
O140	O	1.840109	-0.423809	-0.129644
C141	C	1.422001	-0.969689	-0.626517
C142	C	1.922001	-0.469689	-0.126517
H143	H	1.430809	-0.992995	-0.550812
H144	H	1.930809	-0.492995	-0.050812
H145	H	1.488540	-0.936129	-0.646422
H146	H	1.988540	-0.436129	-0.146422
C147	C	1.398854	-1.005033	-0.791459
C148	C	1.898854	-0.505033	-0.291459
C149	C	1.409668	-1.033663	-0.698479
C150	C	1.909668	-0.533663	-0.198479
H151	H	1.391250	-1.044493	-0.835851
H152	H	1.891250	-0.544493	-0.335851
H153	H	1.343684	-0.974120	-0.793567
H154	H	1.843684	-0.474120	-0.293567
H155	H	1.454306	-0.977066	-0.808033
H156	H	1.954306	-0.477066	-0.308033
H157	H	1.354211	-1.061621	-0.681901
H158	H	1.854211	-0.561621	-0.181901
H159	H	1.464829	-1.064582	-0.696369
H160	H	1.964829	-0.564582	-0.196369
O161	O	1.427592	-0.923641	-0.294726
O162	O	1.927592	-0.423641	0.205274
C163	C	1.397798	-0.897462	-0.203953
C164	C	1.897798	-0.397462	0.296047
H165	H	1.317736	-0.883912	-0.206306
H166	H	1.817736	-0.383912	0.293694
H167	H	1.440187	-0.845550	-0.184924
H168	H	1.940187	-0.345550	0.315076
C169	C	1.514477	-0.973936	-0.124431
C170	C	2.014477	-0.473936	0.375569
C171	C	1.416142	-0.957299	-0.127319
C172	C	1.916142	-0.457299	0.372681
H173	H	1.525796	-1.010844	-0.077158
H174	H	2.025796	-0.510844	0.422842
H175	H	1.534553	-0.991571	-0.185587
H176	H	2.034553	-0.491571	0.314413
H177	H	1.549789	-0.930671	-0.108578
H178	H	2.049789	-0.430671	0.391422
H179	H	1.380833	-1.000561	-0.143184
H180	H	1.880833	-0.500561	0.356816
H181	H	1.396060	-0.939672	-0.066164
H182	H	1.896060	-0.439672	0.433836
O183	O	1.230039	-0.924992	-0.519017
O184	O	1.730039	-0.424992	-0.019017
C185	C	1.234237	-0.971257	-0.437478
C186	C	1.734237	-0.471257	0.062522
H187	H	1.300649	-0.956917	-0.393122
H188	H	1.800649	-0.456917	0.106878
H189	H	1.238529	-1.031374	-0.461507
H190	H	1.738529	-0.531374	0.038493
C191	C	1.061741	-0.977572	-0.430349
C192	C	1.561741	-0.477572	0.069651
C193	C	1.143306	-0.959954	-0.375865
C194	C	1.643306	-0.459954	0.124135
H195	H	1.005650	-0.970603	-0.392344
H196	H	1.505650	-0.470603	0.107656
H197	H	1.058912	-0.946404	-0.485285
H198	H	1.558912	-0.446404	0.014715
H199	H	1.065332	-1.027668	-0.450370
H200	H	1.565332	-0.527668	0.049630
H201	H	1.139720	-0.909856	-0.355856
H202	H	1.639720	-0.409856	0.144144
H203	H	1.146132	-0.991113	-0.320924
H204	H	1.646132	-0.491113	0.179076
O205	O	1.429020	-0.788903	-0.294959
O206	O	1.929020	-0.288903	0.205041
C207	C	1.498878	-0.743216	-0.338332
C208	C	1.998878	-0.243216	0.161668
H209	H	1.469135	-0.719788	-0.408422
H210	H	1.969135	-0.219788	0.091578
H211	H	1.566285	-0.776975	-0.354106
H212	H	2.066285	-0.276975	0.145894
C213	C	1.560838	-0.708127	-0.183634
C214	C	2.060838	-0.208127	0.316366
C215	C	1.524304	-0.679348	-0.269716
C216	C	2.024304	-0.179348	0.230284
H217	H	1.576527	-0.668733	-0.141308
H218	H	2.076527	-0.168733	0.358692
H219	H	1.513777	-0.738910	-0.154412
H220	H	2.013777	-0.238910	0.345588
H221	H	1.617007	-0.736260	-0.196793
H222	H	2.117007	-0.236260	0.303207
H223	H	1.468131	-0.651225	-0.256558
H224	H	1.968131	-0.151225	0.243442
H225	H	1.571357	-0.648560	-0.298934
H226	H	2.071357	-0.148560	0.201066
O227	O	1.526171	-0.924515	-0.577701
O228	O	2.026171	-0.424515	-0.077701
C229	C	1.617731	-0.895097	-0.598856
C230	C	2.117731	-0.395097	-0.098856
H231	H	1.654970	-0.878312	-0.529132
H232	H	2.154970	-0.378312	-0.029132
H233	H	1.609418	-0.844605	-0.647204
H234	H	2.109418	-0.344605	-0.147204
C235	C	1.632937	-0.974460	-0.736474
C236	C	2.132937	-0.474460	-0.236474
C237	C	1.678677	-0.953849	-0.650837
C238	C	2.178677	-0.453849	-0.150837
H239	H	1.670530	-1.010698	-0.768542
H240	H	2.170530	-0.510698	-0.268542
H241	H	1.571249	-0.994277	-0.722224
H242	H	2.071249	-0.494277	-0.222224
H243	H	1.626011	-0.932377	-0.776752
H244	H	2.126011	-0.432377	-0.276752
H245	H	1.685591	-0.995929	-0.610555
H246	H	2.185591	-0.495929	-0.110555
H247	H	1.740367	-0.934040	-0.665081
H248	H	2.240367	-0.434040	-0.165081
O249	O	1.520110	-0.788817	-0.582279
O250	O	2.020110	-0.288817	-0.082279
C251	C	1.445869	-0.743883	-0.619037
C252	C	1.945869	-0.243883	-0.119037
H253	H	1.401607	-0.720701	-0.556938
H254	H	1.901607	-0.220701	-0.056938
H255	H	1.397456	-0.778198	-0.667885
H256	H	1.897456	-0.278198	-0.167885
C257	C	1.544325	-0.708234	-0.753358
C258	C	2.044325	-0.208234	-0.253358
C259	C	1.489967	-0.679756	-0.677087
C260	C	1.989967	-0.179756	-0.177087
H261	H	1.571525	-0.668679	-0.789171
H262	H	2.071525	-0.168679	-0.289171
H263	H	1.594342	-0.738509	-0.728597
H264	H	2.094342	-0.238509	-0.228597
H265	H	1.503972	-0.736830	-0.794055
H266	H	2.003972	-0.236830	-0.294055
H267	H	1.530323	-0.651169	-0.636386
H268	H	2.030323	-0.151169	-0.136386
H269	H	1.439958	-0.649475	-0.701844
H270	H	1.939958	-0.149475	-0.201844
