data_functionalizedCrystal
_audit_creation_method	'MofGen! by Chris Wilmer'
_symmetry_space_group_name_H-M	'P1'
_symmetry_Int_Tables_number	1
_symmetry_cell_setting	triclinic
loop_
_symmetry_equiv_pos_as_xyz
  x,y,z
_cell_length_a	16.959454
_cell_length_b	18.215407
_cell_length_c	16.959447
_cell_angle_alpha	90.016707
_cell_angle_beta	89.976829
_cell_angle_gamma	89.984305
loop_
_atom_site_label
_atom_site_type_symbol
_atom_site_fract_x
_atom_site_fract_y
_atom_site_fract_z
Zn1	Zn	-0.314786	-1.125089	-0.446912
Zn2	Zn	0.185214	-0.625089	0.053088
Zn3	Zn	-0.446970	-1.125010	-0.314741
Zn4	Zn	0.053030	-0.625010	0.185259
Zn5	Zn	-0.314800	-1.002024	-0.314751
Zn6	Zn	0.185200	-0.502024	0.185249
Zn7	Zn	-0.446916	-1.001998	-0.446882
Zn8	Zn	0.053084	-0.501998	0.053118
O9	O	-0.380868	-1.063530	-0.380822
O10	O	0.119132	-0.563530	0.119178
O11	O	-0.332338	-1.228063	-0.429388
O12	O	0.167662	-0.728063	0.070612
O13	O	-0.429466	-1.108673	-0.204132
O14	O	0.070534	-0.608673	0.295868
O15	O	-0.204187	-1.018392	-0.332299
O16	O	0.295813	-0.518392	0.167701
O17	O	-0.429453	-1.228004	-0.332283
O18	O	0.070547	-0.728004	0.167717
O19	O	-0.204177	-1.108808	-0.429397
O20	O	0.295823	-0.608808	0.070603
O21	O	-0.332361	-1.018316	-0.204139
O22	O	0.167639	-0.518316	0.295861
O23	O	-0.332308	-0.899036	-0.332270
O24	O	0.167692	-0.399036	0.167730
O25	O	-0.429361	-1.018348	-0.557497
O26	O	0.070639	-0.518348	-0.057497
O27	O	-0.429374	-0.899017	-0.429346
O28	O	0.070626	-0.399017	0.070654
O29	O	-0.332285	-1.108783	-0.557519
O30	O	0.167715	-0.608783	-0.057519
O31	O	-0.557574	-1.108648	-0.332254
O32	O	-0.057574	-0.608648	0.167746
O33	O	-0.557534	-1.018271	-0.429337
O34	O	-0.057534	-0.518271	0.070663
C35	C	-0.380837	-0.872324	-0.380806
C36	C	0.119163	-0.372324	0.119194
C37	C	-0.380843	-0.790525	-0.380818
C38	C	0.119157	-0.290525	0.119182
C39	C	-0.330373	-0.602360	-0.431459
C40	C	0.169627	-0.102360	0.068541
C41	C	-0.330377	-0.525501	-0.431462
C42	C	0.169623	-0.025501	0.068538
C43	C	-0.431351	-0.525452	-0.330190
C44	C	0.068649	-0.025452	0.169810
C45	C	-0.431343	-0.602309	-0.330184
C46	C	0.068657	-0.102309	0.169816
C47	C	-0.380855	-0.640761	-0.380824
C48	C	0.119145	-0.140761	0.119176
C49	C	-0.380867	-0.487045	-0.380831
C50	C	0.119133	0.012955	0.119169
C51	C	-0.380872	-0.403712	-0.380833
C52	C	0.119128	0.096288	0.119167
C53	C	-0.380848	-0.724100	-0.380821
C54	C	0.119152	-0.224100	0.119179
C55	C	-0.586234	-1.063468	-0.380808
C56	C	-0.086234	-0.563468	0.119192
C57	C	-0.674091	-1.063509	-0.380829
C58	C	-0.174091	-0.563509	0.119171
C59	C	-1.045576	-1.016539	-0.431367
C60	C	-0.545576	-0.516539	0.068633
C61	C	-1.045557	-1.110726	-0.330356
C62	C	-0.545557	-0.610726	0.169644
C63	C	-0.963011	-1.110700	-0.330349
C64	C	-0.463011	-0.610700	0.169651
C65	C	-0.921744	-1.063592	-0.380851
C66	C	-0.421744	-0.563592	0.119149
C67	C	-0.963022	-1.016510	-0.431360
C68	C	-0.463022	-0.516510	0.068640
C69	C	-0.921727	-1.157776	-0.279835
C70	C	-0.421727	-0.657776	0.220165
C71	C	-0.839176	-1.157751	-0.279825
C72	C	-0.339176	-0.657751	0.220175
C73	C	-0.797907	-1.110647	-0.330332
C74	C	-0.297907	-0.610647	0.169668
C75	C	-0.839190	-1.063564	-0.380843
C76	C	-0.339190	-0.563564	0.119157
C77	C	-0.797923	-1.016456	-0.431345
C78	C	-0.297923	-0.516456	0.068655
C79	C	-0.839205	-0.969376	-0.481861
C80	C	-0.339205	-0.469376	0.018139
C81	C	-0.921753	-0.969406	-0.481866
C82	C	-0.421753	-0.469406	0.018134
C83	C	-0.715358	-1.110617	-0.330327
C84	C	-0.215358	-0.610617	0.169673
C85	C	-0.715369	-1.016427	-0.431338
C86	C	-0.215369	-0.516427	0.068662
C87	C	-0.174700	-1.063612	-0.380852
C88	C	0.325300	-0.563612	0.119148
C89	C	-0.086843	-1.063647	-0.380865
C90	C	0.413157	-0.563647	0.119135
C91	C	-0.380816	-1.063571	-0.586990
C92	C	0.119184	-0.563571	-0.086990
C93	C	-0.380793	-1.063589	-0.674847
C94	C	0.119207	-0.563589	-0.174847
C95	C	-0.380891	-0.255483	-0.380835
C96	C	0.119109	0.244517	0.119165
C97	C	-0.380879	-0.337282	-0.380836
C98	C	0.119121	0.162718	0.119164
C99	C	-0.431326	-1.016513	-0.716111
C100	C	0.068674	-0.516513	-0.216111
C101	C	-0.330234	-1.110677	-0.716136
C102	C	0.169766	-0.610677	-0.216136
C103	C	-0.330208	-1.110692	-0.798682
C104	C	0.169792	-0.610692	-0.298682
C105	C	-0.380741	-1.063616	-0.839946
C106	C	0.119259	-0.563616	-0.339946
C107	C	-0.431300	-1.016525	-0.798664
C108	C	0.068700	-0.516525	-0.298664
C109	C	-0.279644	-1.157777	-0.839970
C110	C	0.220356	-0.657777	-0.339970
C111	C	-0.279616	-1.157794	-0.922521
C112	C	0.220384	-0.657794	-0.422521
C113	C	-0.330154	-1.110721	-0.963787
C114	C	0.169846	-0.610721	-0.463787
C115	C	-0.380715	-1.063629	-0.922500
C116	C	0.119285	-0.563629	-0.422500
C117	C	-0.431248	-1.016553	-0.963764
C118	C	0.068752	-0.516553	-0.463764
C119	C	-0.481814	-0.969463	-0.922478
C120	C	0.018186	-0.469463	-0.422478
C121	C	-0.481838	-0.969452	-0.839930
C122	C	0.018162	-0.469452	-0.339930
C123	C	-0.330130	-1.110732	-1.046335
C124	C	0.169870	-0.610732	-0.546335
C125	C	-0.431222	-1.016565	-1.046317
C126	C	0.068778	-0.516565	-0.546317
C127	C	-0.380863	-1.063531	-0.175455
C128	C	0.119137	-0.563531	0.324545
C129	C	-0.380663	-1.063656	-0.087599
C130	C	0.119337	-0.563656	0.412401
H131	H	-0.289260	-0.633665	-0.472691
H132	H	0.210740	-0.133665	0.027309
H133	H	-0.681750	-1.148945	-0.289194
H134	H	-0.181750	-0.648945	0.210806
C135	C	-0.179707	-1.250848	-0.848281
C136	C	0.320293	-0.750848	-0.348281
C137	C	-0.224098	-1.209518	-0.794614
C138	C	0.275902	-0.709518	-0.294614
H139	H	-0.145411	-1.282788	-0.820275
H140	H	0.354589	-0.782788	-0.320275
H141	H	-0.214133	-1.278992	-0.880479
H142	H	0.285867	-0.778992	-0.380479
H143	H	-0.149460	-1.218789	-0.880476
H144	H	0.350540	-0.718789	-0.380476
H145	H	-0.254349	-1.241576	-0.762422
H146	H	0.245651	-0.741576	-0.262422
H147	H	-0.189667	-1.181371	-0.762402
H148	H	0.310333	-0.681371	-0.262402
H149	H	-0.289089	-1.149001	-0.682534
H150	H	0.210911	-0.649001	-0.182534
C151	C	-0.319543	-0.439104	-0.537806
C152	C	0.180457	0.060896	-0.037806
C153	C	-0.274890	-0.483289	-0.487125
C154	C	0.225110	0.016711	0.012875
H155	H	-0.285284	-0.413042	-0.572168
H156	H	0.214716	0.086958	-0.072168
H157	H	-0.354011	-0.469091	-0.567978
H158	H	0.145989	0.030909	-0.067978
H159	H	-0.349607	-0.405205	-0.507642
H160	H	0.150393	0.094795	-0.007642
H161	H	-0.244830	-0.517192	-0.517289
H162	H	0.255170	-0.017192	-0.017289
H163	H	-0.240408	-0.453300	-0.456950
H164	H	0.259592	0.046700	0.043050
C165	C	-0.476206	-0.407612	-0.285237
C166	C	0.023794	0.092388	0.214763
C167	C	-0.486853	-0.483182	-0.274536
C168	C	0.013147	0.016818	0.225464
H169	H	-0.510476	-0.381520	-0.250882
H170	H	-0.010476	0.118480	0.249118
H171	H	-0.423091	-0.395024	-0.273755
H172	H	0.076909	0.104976	0.226245
H173	H	-0.487842	-0.395042	-0.338330
H174	H	0.012158	0.104958	0.161670
H175	H	-0.475211	-0.495754	-0.221444
H176	H	0.024789	0.004246	0.278556
H177	H	-0.539980	-0.495776	-0.286013
H178	H	-0.039980	0.004224	0.213987
H179	H	-0.805569	-1.196087	-0.238694
H180	H	-0.305569	-0.696087	0.261306
C181	C	-0.531163	-0.594546	-0.230084
C182	C	-0.031163	-0.094546	0.269916
C183	C	-0.486839	-0.644526	-0.274524
C184	C	0.013161	-0.144526	0.225476
H185	H	-0.565424	-0.620611	-0.195726
H186	H	-0.065424	-0.120611	0.304274
H187	H	-0.496692	-0.564566	-0.199909
H188	H	0.003308	-0.064566	0.300091
H189	H	-0.561444	-0.564575	-0.264482
H190	H	-0.061444	-0.064575	0.235518
H191	H	-0.456553	-0.674494	-0.240126
H192	H	0.043447	-0.174494	0.259874
H193	H	-0.521315	-0.674519	-0.304702
H194	H	-0.021315	-0.174519	0.195298
H195	H	-0.472376	-0.978232	-1.079909
H196	H	0.027624	-0.478232	-0.579909
C197	C	-0.173255	-1.168070	-1.015355
C198	C	0.326745	-0.668070	-0.515355
C199	C	-0.224033	-1.209554	-0.967893
C200	C	0.275967	-0.709554	-0.467893
H201	H	-0.138938	-1.200027	-1.043361
H202	H	0.361062	-0.700027	-0.543361
H203	H	-0.203347	-1.140048	-1.051745
H204	H	0.296653	-0.640048	-0.551745
H205	H	-0.143034	-1.136010	-0.983142
H206	H	0.356966	-0.636010	-0.483142
H207	H	-0.254259	-1.241611	-1.000107
H208	H	0.245741	-0.741611	-0.500107
H209	H	-0.193939	-1.237589	-0.931499
H210	H	0.306061	-0.737589	-0.431499
H211	H	-0.681774	-0.978069	-0.472466
H212	H	-0.181774	-0.478069	0.027534
C213	C	-0.712666	-0.927516	-0.526691
C214	C	-0.212666	-0.427516	-0.026691
C215	C	-0.793838	-0.917596	-0.537373
C216	C	-0.293838	-0.417596	-0.037373
H217	H	-0.684658	-0.895553	-0.560965
H218	H	-0.184658	-0.395553	-0.060965
H219	H	-0.699183	-0.916767	-0.473576
H220	H	-0.199183	-0.416767	0.026424
H221	H	-0.699106	-0.976955	-0.538302
H222	H	-0.199106	-0.476955	-0.038302
H223	H	-0.807399	-0.868159	-0.525756
H224	H	-0.307399	-0.368159	-0.025756
H225	H	-0.807326	-0.928340	-0.590500
H226	H	-0.307326	-0.428340	-0.090500
H227	H	-0.955373	-0.931075	-0.522993
H228	H	-0.455373	-0.431075	-0.022993
C229	C	-1.172120	-0.974757	-0.476237
C230	C	-0.672120	-0.474757	0.023763
C231	C	-1.090948	-0.964787	-0.486890
C232	C	-0.590948	-0.464787	0.013110
H233	H	-1.200129	-0.942803	-0.510512
H234	H	-0.700129	-0.442803	-0.010512
H235	H	-1.185603	-1.024196	-0.487858
H236	H	-0.685603	-0.524196	0.012142
H237	H	-1.185677	-0.964020	-0.423118
H238	H	-0.685677	-0.464020	0.076882
H239	H	-1.077390	-0.975529	-0.540009
H240	H	-0.577390	-0.475529	-0.040009
H241	H	-1.077460	-0.915337	-0.475276
H242	H	-0.577460	-0.415337	0.024724
H243	H	-1.079162	-1.149074	-0.289235
H244	H	-0.579162	-0.649074	0.210765
C245	C	-0.526653	-0.927678	-1.049014
C246	C	-0.026653	-0.427678	-0.549014
C247	C	-0.537362	-0.917720	-0.967842
C248	C	-0.037362	-0.417720	-0.467842
H249	H	-0.560949	-0.895737	-1.077020
H250	H	-0.060949	-0.395737	-0.577020
H251	H	-0.473545	-0.916923	-1.062535
H252	H	0.026455	-0.416923	-0.562535
H253	H	-0.538218	-0.977126	-1.062539
H254	H	-0.038218	-0.477126	-0.562539
H255	H	-0.525791	-0.868272	-0.954316
H256	H	-0.025791	-0.368272	-0.454316
H257	H	-0.590482	-0.928469	-0.954316
H258	H	-0.090482	-0.428469	-0.454316
C259	C	-1.048261	-1.199530	-0.234889
C260	C	-0.548261	-0.699530	0.265111
C261	C	-0.967088	-1.209477	-0.224245
C262	C	-0.467088	-0.709477	0.275755
H263	H	-1.076266	-1.231431	-0.200547
H264	H	-0.576266	-0.731431	0.299453
H265	H	-1.061782	-1.150074	-0.223353
H266	H	-0.561782	-0.650074	0.276647
H267	H	-1.061785	-1.210350	-0.287984
H268	H	-0.561785	-0.710350	0.212016
H269	H	-0.953562	-1.198651	-0.171150
H270	H	-0.453562	-0.698651	0.328850
H271	H	-0.953561	-1.258945	-0.235775
H272	H	-0.453561	-0.758945	0.264225
C273	C	-0.526752	-0.927615	-0.713379
C274	C	-0.026752	-0.427615	-0.213379
C275	C	-0.537409	-0.917688	-0.794548
C276	C	-0.037409	-0.417688	-0.294548
H277	H	-0.561054	-0.895653	-0.685361
H278	H	-0.061054	-0.395653	-0.185361
H279	H	-0.538333	-0.977049	-0.699859
H280	H	-0.038333	-0.477049	-0.199859
H281	H	-0.473642	-0.916862	-0.699867
H282	H	0.026358	-0.416862	-0.199867
H283	H	-0.590518	-0.928446	-0.808060
H284	H	-0.090518	-0.428446	-0.308060
H285	H	-0.525833	-0.868243	-0.808073
H286	H	-0.025833	-0.368243	-0.308073
H287	H	-0.472498	-0.978176	-0.682492
H288	H	0.027502	-0.478176	-0.182492
C289	C	-0.223779	-1.120998	-1.139179
C290	C	0.276221	-0.620998	-0.639179
C291	C	-0.274552	-1.162486	-1.091716
C292	C	0.225448	-0.662486	-0.591716
H293	H	-0.189464	-1.152953	-1.167190
H294	H	0.310536	-0.652953	-0.667190
H295	H	-0.253874	-1.092975	-1.175565
H296	H	0.246126	-0.592975	-0.675565
H297	H	-0.193556	-1.088939	-1.106967
H298	H	0.306444	-0.588939	-0.606967
H299	H	-0.304780	-1.194541	-1.123929
H300	H	0.195220	-0.694541	-0.623929
H301	H	-0.244454	-1.190522	-1.055326
H302	H	0.255546	-0.690522	-0.555326
