data_functionalizedCrystal
_audit_creation_method	'MofGen! by Chris Wilmer'
_symmetry_space_group_name_H-M	'P1'
_symmetry_Int_Tables_number	1
_symmetry_cell_setting	triclinic
loop_
_symmetry_equiv_pos_as_xyz
  x,y,z
_cell_length_a	12.759394
_cell_length_b	12.827893
_cell_length_c	12.827885
_cell_angle_alpha	90.019272
_cell_angle_beta	89.968776
_cell_angle_gamma	89.985192
loop_
_atom_site_label
_atom_site_type_symbol
_atom_site_fract_x
_atom_site_fract_y
_atom_site_fract_z
Zn1	Zn	-0.418216	-1.597674	-0.590838
Zn2	Zn	-0.593932	-1.597569	-0.416094
Zn3	Zn	-0.418268	-1.422915	-0.416112
Zn4	Zn	-0.593854	-1.422902	-0.590794
O5	O	-0.506068	-1.510265	-0.503460
O6	O	-0.441537	-1.743896	-0.567669
O7	O	-0.570684	-1.574363	-0.269860
O8	O	-0.271240	-1.446146	-0.439316
O9	O	-0.570634	-1.743819	-0.439285
O10	O	-0.271202	-1.574541	-0.567686
O11	O	-0.441624	-1.446045	-0.269873
O12	O	-0.441548	-1.276677	-0.439273
O13	O	-0.570501	-1.446124	-0.737036
O14	O	-0.570551	-1.276668	-0.567611
O15	O	-0.441461	-1.574528	-0.737069
O16	O	-0.740943	-1.574350	-0.439243
O17	O	-0.740885	-1.446023	-0.567594
C18	C	-0.506047	-1.238755	-0.503440
C19	C	-0.506064	-1.122602	-0.503456
C20	C	-0.779035	-1.510202	-0.503434
C21	C	-0.895812	-1.510271	-0.503458
C22	C	-0.505967	-1.510336	-0.776030
C23	C	-0.505924	-1.510366	-0.892183
C24	C	-0.895818	-1.643999	-0.369906
C25	C	-0.950682	-1.710890	-0.303143
C26	C	-1.060404	-1.710951	-0.303171
C27	C	-1.115264	-1.644116	-0.369973
C28	C	-1.060400	-1.577225	-0.436736
C29	C	-0.950676	-1.577169	-0.436698
C30	C	-1.060393	-1.443504	-0.570292
C31	C	-0.950672	-1.443436	-0.570260
C32	C	-1.115253	-1.376670	-0.637094
C33	C	-1.060389	-1.309772	-0.703854
C34	C	-0.950661	-1.309712	-0.703822
C35	C	-0.895808	-1.376545	-0.637024
C36	C	-0.232034	-1.510356	-0.503508
C37	C	-0.115257	-1.510395	-0.503528
C38	C	-0.506089	-1.782835	-0.503480
C39	C	-0.506098	-1.898988	-0.503489
C40	C	-0.569998	-1.070840	-0.566864
C41	C	-0.570017	-0.950790	-0.566882
C42	C	-0.442058	-1.573912	-0.943984
C43	C	-0.442012	-1.573944	-1.064034
C44	C	-0.506092	-1.510254	-0.231950
C45	C	-0.505839	-1.510426	-0.115797
H46	H	-0.806477	-1.643942	-0.369863
H47	H	-0.624756	-0.906276	-0.621165
C48	C	-0.643931	-1.131036	-0.640184
N49	N	-0.699622	-1.176374	-0.695409
C50	C	-0.579744	-1.436896	-0.952334
N51	N	-0.635347	-1.381556	-0.997638
C52	C	-0.368139	-1.647441	-1.124213
N53	N	-0.312494	-1.702799	-1.169542
H54	H	-0.906006	-1.765308	-0.248755
H55	H	-1.105074	-1.765425	-0.248811
H56	H	-1.204605	-1.644181	-0.369999
H57	H	-1.204595	-1.376729	-0.637117
H58	H	-0.451362	-0.943496	-0.449197
C59	C	-0.432132	-1.062406	-0.430134
N60	N	-0.376446	-1.017068	-0.374906
H61	H	-0.387411	-1.628287	-0.899456
H62	H	-1.105065	-1.255365	-0.758243
H63	H	-0.905997	-1.255246	-0.758193
C64	C	-0.775111	-1.376491	-0.636987
N65	N	-0.684201	-1.376459	-0.636962
H66	H	-0.560524	-1.456024	-1.071256
