data_functionalizedCrystal
_audit_creation_method	'MofGen! by Chris Wilmer'
_symmetry_space_group_name_H-M	'P1'
_symmetry_Int_Tables_number	1
_symmetry_cell_setting	triclinic
loop_
_symmetry_equiv_pos_as_xyz
  x,y,z
_cell_length_a	16.625547
_cell_length_b	16.625546
_cell_length_c	16.625539
_cell_angle_alpha	90.028532
_cell_angle_beta	90.021309
_cell_angle_gamma	90.022405
loop_
_atom_site_label
_atom_site_type_symbol
_atom_site_fract_x
_atom_site_fract_y
_atom_site_fract_z
Zn1	Zn	1.232653	-0.321016	0.455989
Zn2	Zn	1.565986	0.012317	0.789322
Zn3	Zn	1.899319	0.345650	1.122656
Zn4	Zn	1.232564	-0.455855	0.321151
Zn5	Zn	1.565897	-0.122522	0.654485
Zn6	Zn	1.899231	0.210812	0.987818
Zn7	Zn	1.097823	-0.321040	0.321160
Zn8	Zn	1.431156	0.012293	0.654493
Zn9	Zn	1.764489	0.345627	0.987826
Zn10	Zn	1.097785	-0.455811	0.455931
Zn11	Zn	1.431118	-0.122477	0.789265
Zn12	Zn	1.764451	0.210856	1.122598
O13	O	1.165206	-0.388430	0.388558
O14	O	1.498539	-0.055097	0.721891
O15	O	1.831873	0.278236	1.055225
O16	O	1.345473	-0.338912	0.438123
O17	O	1.678807	-0.005578	0.771457
O18	O	2.012140	0.327755	1.104790
O19	O	1.214669	-0.438000	0.208320
O20	O	1.548002	-0.104667	0.541653
O21	O	1.881336	0.228667	0.874987
O22	O	1.115761	-0.208204	0.339073
O23	O	1.449094	0.125129	0.672406
O24	O	1.782428	0.458462	1.005739
O25	O	1.345408	-0.437977	0.339059
O26	O	1.678741	-0.104644	0.672392
O27	O	2.012075	0.228690	1.005725
O28	O	1.214820	-0.208187	0.438131
O29	O	1.548153	0.125146	0.771465
O30	O	1.881487	0.458480	1.104798
O31	O	1.115675	-0.338952	0.208326
O32	O	1.449008	-0.005619	0.541659
O33	O	1.782342	0.327715	0.874993
O34	O	0.984985	-0.338909	0.339017
O35	O	1.318319	-0.005576	0.672350
O36	O	1.651652	0.327758	1.005683
O37	O	1.115696	-0.437901	0.568771
O38	O	1.449030	-0.104568	0.902105
O39	O	1.782363	0.228765	1.235438
O40	O	0.984957	-0.437924	0.438033
O41	O	1.318291	-0.104591	0.771366
O42	O	1.651624	0.228743	1.104699
O43	O	1.214783	-0.338869	0.568814
O44	O	1.548117	-0.005535	0.902147
O45	O	1.881450	0.327798	1.235481
O46	O	1.214632	-0.568682	0.339003
O47	O	1.547966	-0.235348	0.672336
O48	O	1.881299	0.097985	1.005669
O49	O	1.115611	-0.568649	0.438025
O50	O	1.448944	-0.235315	0.771358
O51	O	1.782277	0.098018	1.104691
C52	C	0.955715	-0.388415	0.388520
C53	C	1.289048	-0.055081	0.721853
C54	C	1.622382	0.278252	1.055186
C55	C	0.866094	-0.388428	0.388523
C56	C	1.199427	-0.055094	0.721856
C57	C	1.532761	0.278239	1.055189
C58	C	0.793312	-0.388429	0.388533
C59	C	1.126645	-0.055096	0.721866
C60	C	1.459978	0.278238	1.055199
C61	C	0.702003	-0.388433	0.388553
C62	C	1.035336	-0.055100	0.721886
C63	C	1.368670	0.278233	1.055219
C64	C	0.629227	-0.388441	0.388573
C65	C	0.962560	-0.055107	0.721907
C66	C	1.295893	0.278226	1.055240
C67	C	0.537912	-0.388446	0.388593
C68	C	0.871246	-0.055113	0.721926
C69	C	1.204579	0.278220	1.055259
C70	C	1.165130	-0.597921	0.388524
C71	C	1.498463	-0.264588	0.721857
C72	C	1.831796	0.068745	1.055191
C73	C	1.165171	-0.687542	0.388537
C74	C	1.498504	-0.354209	0.721870
C75	C	1.831837	-0.020876	1.055203
C76	C	1.165311	-1.015718	0.388621
C77	C	1.498645	-0.682385	0.721954
C78	C	1.831978	-0.349051	1.055287
C79	C	1.165270	-0.924410	0.388599
C80	C	1.498603	-0.591076	0.721933
C81	C	1.831936	-0.257743	1.055266
C82	C	1.165240	-0.851633	0.388578
C83	C	1.498574	-0.518300	0.721912
C84	C	1.831907	-0.184966	1.055245
C85	C	1.165200	-0.760319	0.388558
C86	C	1.498533	-0.426986	0.721891
C87	C	1.831867	-0.093652	1.055225
C88	C	1.375515	-0.388447	0.388597
C89	C	1.708848	-0.055113	0.721930
C90	C	2.042182	0.278220	1.055263
C91	C	1.465136	-0.388454	0.388613
C92	C	1.798469	-0.055120	0.721946
C93	C	2.131803	0.278213	1.055280
C94	C	1.165246	-0.388377	0.598867
C95	C	1.498579	-0.055044	0.932200
C96	C	1.831912	0.278289	1.265534
C97	C	1.165262	-0.388355	0.688488
C98	C	1.498596	-0.055021	1.021821
C99	C	1.831929	0.278312	1.355155
C100	C	1.165305	-0.178122	0.388609
C101	C	1.498638	0.155212	0.721943
C102	C	1.831971	0.488545	1.055276
C103	C	1.165347	-0.088500	0.388631
C104	C	1.498680	0.244833	0.721965
C105	C	1.832013	0.578166	1.055298
C106	C	1.165213	-0.388425	0.179067
C107	C	1.498546	-0.055092	0.512400
C108	C	1.831880	0.278241	0.845734
C109	C	1.165352	-0.388221	0.089446
C110	C	1.498686	-0.054888	0.422780
C111	C	1.832019	0.278446	0.756113
C112	C	1.165276	-0.388337	0.761271
C113	C	1.498609	-0.055003	1.094604
C114	C	1.831942	0.278330	1.427937
C115	C	1.165294	-0.388307	0.852579
C116	C	1.498628	-0.054973	1.185912
C117	C	1.831961	0.278360	1.519246
C118	C	1.165313	-0.388278	0.925356
C119	C	1.498647	-0.054945	1.258689
C120	C	1.831980	0.278388	1.592022
C121	C	1.165333	-0.388249	1.016670
C122	C	1.498667	-0.054916	1.350003
C123	C	1.832000	0.278417	1.683337
