data_functionalizedCrystal
_audit_creation_method	'MofGen! by Chris Wilmer'
_symmetry_space_group_name_H-M	'P1'
_symmetry_Int_Tables_number	1
_symmetry_cell_setting	triclinic
loop_
_symmetry_equiv_pos_as_xyz
  x,y,z
_cell_length_a	19.188930
_cell_length_b	16.992695
_cell_length_c	18.266242
_cell_angle_alpha	89.995331
_cell_angle_beta	89.980496
_cell_angle_gamma	86.906501
loop_
_atom_site_label
_atom_site_type_symbol
_atom_site_fract_x
_atom_site_fract_y
_atom_site_fract_z
O1	O	-0.931873	-0.097872	0.061119
O2	O	-0.431873	0.402128	0.561119
O3	O	-0.729333	-0.111047	0.061069
O4	O	-0.229333	0.388953	0.561069
O5	O	-0.829791	0.009680	0.061088
O6	O	-0.329791	0.509680	0.561088
O7	O	-0.831415	-0.218600	0.061100
O8	O	-0.331415	0.281400	0.561100
O9	O	-0.829779	0.009683	-0.060674
O10	O	-0.329779	0.509683	0.439326
O11	O	-0.729321	-0.111045	-0.060693
O12	O	-0.229321	0.388955	0.439307
O13	O	-0.931861	-0.097869	-0.060643
O14	O	-0.431861	0.402131	0.439357
Zn15	Zn	-0.830589	-0.104457	-0.080001
Zn16	Zn	-0.330589	0.395543	0.419999
Zn17	Zn	-0.830605	-0.104460	0.080426
Zn18	Zn	-0.330605	0.395540	0.580426
O19	O	-0.831403	-0.218597	-0.060662
O20	O	-0.331403	0.281403	0.439338
C21	C	-0.703291	-0.110619	0.000181
C22	C	-0.203291	0.389381	0.500181
C23	C	-0.625712	-0.109339	0.000162
C24	C	-0.125712	0.390661	0.500162
C25	C	-0.827696	0.038887	0.000206
C26	C	-0.327696	0.538887	0.500206
C27	C	-0.821463	0.125910	0.000205
C28	C	-0.321463	0.625910	0.500205
C29	C	-0.957903	-0.098297	0.000246
C30	C	-0.457903	0.401703	0.500246
C31	C	-1.035483	-0.099578	0.000270
C32	C	-0.535483	0.400422	0.500270
C33	C	-0.584933	-0.180178	0.000177
C34	C	-0.084933	0.319822	0.500177
C35	C	-0.512039	-0.178974	0.000185
C36	C	-0.012039	0.321026	0.500185
C37	C	-0.479926	-0.106928	0.000193
C38	C	0.020074	0.393072	0.500193
C39	C	-0.520714	-0.036080	0.000173
C40	C	-0.020714	0.463920	0.500173
C41	C	-0.593607	-0.037285	0.000158
C42	C	-0.093607	0.462715	0.500158
N43	N	-0.368727	-0.051859	0.041660
N44	N	0.131273	0.448141	0.541660
N45	N	-0.299482	-0.050718	0.041676
N46	N	0.200518	0.449282	0.541676
C47	C	-0.260305	-0.103292	0.000237
C48	C	0.239695	0.396708	0.500237
N49	N	-0.292988	-0.157061	-0.041209
N50	N	0.207012	0.342939	0.458791
N51	N	-0.362239	-0.158204	-0.041222
N52	N	0.137761	0.341796	0.458778
C53	C	-0.400887	-0.105613	0.000209
C54	C	0.099113	0.394387	0.500209
C55	C	-0.140486	-0.172831	0.000260
C56	C	0.359514	0.327169	0.500260
C57	C	-0.067590	-0.171625	0.000263
C58	C	0.432410	0.328375	0.500263
C59	C	-0.076267	-0.028729	0.000259
C60	C	0.423733	0.471271	0.500259
C61	C	-0.149161	-0.029937	0.000248
C62	C	0.350839	0.470063	0.500248
C63	C	-0.181266	-0.101990	0.000252
C64	C	0.318734	0.398010	0.500252
C65	C	-0.833498	-0.247804	0.000221
C66	C	-0.333498	0.252196	0.500221
C67	C	-0.839731	-0.334826	0.000227
C68	C	-0.339731	0.165174	0.500227
N69	N	-0.830584	-0.104454	-0.189488
N70	N	-0.330584	0.395546	0.310512
C71	C	-0.881603	0.176356	0.000219
C72	C	-0.381603	0.676356	0.500219
C73	C	-0.875742	0.258123	0.000224
C74	C	-0.375742	0.758123	0.500224
C75	C	-0.809741	0.289441	0.000211
C76	C	-0.309741	0.789441	0.500211
C77	C	-0.749597	0.238988	0.000199
C78	C	-0.249597	0.738988	0.500199
C79	C	-0.755459	0.157223	0.000198
C80	C	-0.255459	0.657223	0.500198
C81	C	-0.785448	0.532955	0.000215
C82	C	-0.285448	1.032955	0.500215
C83	C	-0.779591	0.614727	0.000213
C84	C	-0.279591	1.114727	0.500213
C85	C	-0.905737	0.633856	0.000240
C86	C	-0.405737	1.133856	0.500240
C87	C	-0.911593	0.552089	0.000235
C88	C	-0.411593	1.052089	0.500235
C89	C	-0.851449	0.501643	0.000227
C90	C	-0.351449	1.001643	0.500227
N91	N	-0.803749	0.373019	0.000214
N92	N	-0.303749	0.873019	0.500214
N93	N	-0.857441	0.418066	0.000229
N94	N	-0.357441	0.918066	0.500229
C95	C	-0.875100	-0.051013	-0.771756
C96	C	-0.375100	0.448987	-0.271756
C97	C	-0.875101	-0.051015	-0.695112
C98	C	-0.375101	0.448985	-0.195112
C99	C	-0.830605	-0.104453	-0.656800
C100	C	-0.330605	0.395547	-0.156800
C101	C	-0.786117	-0.157907	-0.695140
C102	C	-0.286117	0.342093	-0.195140
C103	C	-0.786122	-0.157909	-0.771784
C104	C	-0.286122	0.342091	-0.271784
N105	N	-0.769387	-0.114613	-0.536488
N106	N	-0.269387	0.385387	-0.036488
N107	N	-0.769384	-0.114606	-0.463680
N108	N	-0.269384	0.385394	0.036320
C109	C	-0.830588	-0.104452	-0.425878
C110	C	-0.330588	0.395548	0.074122
N111	N	-0.891796	-0.094289	-0.463634
N112	N	-0.391796	0.405711	0.036366
N113	N	-0.891798	-0.094291	-0.536449
N114	N	-0.391798	0.405709	-0.036449
C115	C	-0.830595	-0.104457	-0.573693
C116	C	-0.330595	0.395543	-0.073693
C117	C	-0.875077	-0.051007	-0.304440
C118	C	-0.375077	0.448993	0.195560
C119	C	-0.875080	-0.051014	-0.227794
C120	C	-0.375080	0.448986	0.272206
C121	C	-0.786089	-0.157902	-0.227824
C122	C	-0.286089	0.342098	0.272176
C123	C	-0.786093	-0.157898	-0.304469
C124	C	-0.286093	0.342102	0.195531
C125	C	-0.830586	-0.104447	-0.342772
C126	C	-0.330586	0.395553	0.157228
N127	N	-0.830616	-0.104457	0.189913
N128	N	-0.330616	0.395543	0.689913
H129	H	-0.611068	-0.238849	0.000182
H130	H	-0.111068	0.261151	0.500182
H131	H	-0.935348	0.150864	0.000226
H132	H	-0.435348	0.650864	0.500226
C133	C	-0.924034	0.007796	-0.813886
C134	C	-0.424034	0.507796	-0.313886
N135	N	-0.960888	0.052096	-0.845619
N136	N	-0.460888	0.552096	-0.345619
H137	H	-0.749867	-0.201414	-0.335679
H138	H	-0.249867	0.298586	0.164321
C139	C	-0.719287	0.477475	0.000210
C140	C	-0.219287	0.977475	0.500210
N141	N	-0.669451	0.435684	0.000208
N142	N	-0.169451	0.935684	0.500208
H143	H	-0.749862	-0.201415	-0.196631
H144	H	-0.249862	0.298585	0.303369
H145	H	-0.478830	-0.236662	0.000195
H146	H	0.021170	0.263338	0.500195
H147	H	-0.911308	-0.007496	-0.196584
H148	H	-0.411308	0.492504	0.303416
H149	H	-0.749897	-0.201430	-0.802993
H150	H	-0.249897	0.298570	-0.302993
H151	H	-0.626809	0.020402	0.000146
H152	H	-0.126809	0.520402	0.500146
C153	C	-0.485389	0.043171	0.000182
C154	C	0.014611	0.543171	0.500182
N155	N	-0.458782	0.102866	0.000187
N156	N	0.041218	0.602866	0.500187
H157	H	-0.034389	-0.229313	0.000272
H158	H	0.465611	0.270687	0.500272
C159	C	-0.175803	-0.252091	0.000255
C160	C	0.324197	0.247909	0.500255
N161	N	-0.202402	-0.311790	0.000250
N162	N	0.297598	0.188210	0.500250
H163	H	-0.050122	0.029933	0.000310
H164	H	0.449878	0.529933	0.500310
C165	C	-0.194020	0.047993	0.000240
C166	C	0.305980	0.547993	0.500240
N167	N	-0.227807	0.106693	0.000233
N168	N	0.272193	0.606693	0.500233
H169	H	-0.965337	0.526596	0.000246
H170	H	-0.465337	1.026596	0.500246
C171	C	-0.941901	0.313611	0.000228
C172	C	-0.441901	0.813611	0.500228
N173	N	-0.991735	0.355405	0.000227
N174	N	-0.491735	0.855405	0.500227
H175	H	-0.954703	0.674938	0.000248
H176	H	-0.454703	1.174938	0.500248
C177	C	-0.706982	0.649174	0.000203
C178	C	-0.206982	1.149174	0.500203
N179	N	-0.652296	0.675120	0.000196
N180	N	-0.152296	1.175120	0.500196
C181	C	-0.676995	0.273441	0.000177
C182	C	-0.176995	0.773441	0.500177
N183	N	-0.622310	0.299390	0.000156
N184	N	-0.122310	0.799390	0.500156
C185	C	-0.924036	0.007783	-0.652939
C186	C	-0.424036	0.507783	-0.152939
N187	N	-0.960892	0.052072	-0.621178
N188	N	-0.460892	0.552072	-0.121178
C189	C	-0.737170	-0.216687	-0.652996
C190	C	-0.237170	0.283313	-0.152996
N191	N	-0.700303	-0.260964	-0.621253
N192	N	-0.200303	0.239036	-0.121253
H193	H	-0.706486	0.116149	0.000187
H194	H	-0.206486	0.616149	0.500187
H195	H	-0.911309	-0.007486	-0.335628
H196	H	-0.411309	0.492514	0.164372
