data_functionalizedCrystal
_audit_creation_method	'MofGen! by Chris Wilmer'
_symmetry_space_group_name_H-M	'P1'
_symmetry_Int_Tables_number	1
_symmetry_cell_setting	triclinic
loop_
_symmetry_equiv_pos_as_xyz
  x,y,z
_cell_length_a	15.944551
_cell_length_b	15.944551
_cell_length_c	15.021413
_cell_angle_alpha	90.003065
_cell_angle_beta	89.997174
_cell_angle_gamma	83.498738
loop_
_atom_site_label
_atom_site_type_symbol
_atom_site_fract_x
_atom_site_fract_y
_atom_site_fract_z
O1	O	1.114529	0.108321	-0.073941
O2	O	0.869979	0.121677	-0.073964
O3	O	0.998932	-0.007276	-0.073944
O4	O	0.985576	0.237274	-0.073961
O5	O	0.998912	-0.007257	0.074121
O6	O	0.869959	0.121695	0.074101
O7	O	1.114508	0.108339	0.074123
Zn8	Zn	0.992230	0.115020	0.097620
Zn9	Zn	0.992257	0.114996	-0.097461
O10	O	0.985555	0.237292	0.074103
C11	C	0.838675	0.121132	0.000066
C12	C	0.745429	0.119470	0.000057
C13	C	0.530572	0.035565	0.000081
C14	C	0.469562	0.074518	-0.072926
C15	C	0.574703	0.116462	0.000068
C16	C	0.469564	0.074556	0.073054
C17	C	0.409790	0.113551	0.000083
C18	C	0.514921	0.155438	-0.072998
C19	C	0.514930	0.155464	0.073047
C20	C	0.453937	0.194476	0.000023
C21	C	0.669705	0.118137	0.000059
C22	C	0.314789	0.111883	0.000085
C23	C	0.998367	-0.038561	0.000089
C24	C	0.996705	-0.131807	0.000089
C25	C	0.912801	-0.346663	0.000069
C26	C	0.951753	-0.407672	0.073077
C27	C	0.993698	-0.302533	0.000082
C28	C	0.951792	-0.407673	-0.072903
C29	C	0.990787	-0.467445	0.000071
C30	C	1.032672	-0.362313	0.073150
C31	C	1.032700	-0.362308	-0.072895
C32	C	1.071711	-0.423298	0.000131
C33	C	0.995372	-0.207530	0.000089
C34	C	0.989119	-0.562446	0.000070
C35	C	1.145813	0.108885	0.000092
C36	C	1.239059	0.110547	0.000094
C37	C	0.986120	0.268577	0.000069
C38	C	0.987782	0.361823	0.000063
N39	N	0.992218	0.115036	0.230758
N40	N	0.992276	0.114973	-0.230598
C41	C	0.932581	0.174636	0.470432
C42	C	1.008481	0.190943	0.529772
C43	C	0.992239	0.115015	0.412365
C44	C	0.916360	0.098727	0.529766
C45	C	0.992253	0.114997	0.587789
C46	C	1.068178	0.131360	0.470398
C47	C	0.976006	0.039111	0.470387
C48	C	1.051962	0.055386	0.529701
C49	C	0.992230	0.115028	0.311307
C50	C	0.992271	0.114984	0.688844
H51	H	0.534918	0.189621	-0.134787
C52	C	1.154895	0.150073	0.435326
C53	C	1.225603	0.165284	0.501212
C54	C	1.312316	0.184002	0.466137
C55	C	1.328319	0.187509	0.365178
C56	C	1.257609	0.172297	0.299286
C57	C	1.170896	0.153579	0.334360
H58	H	1.213758	0.162689	0.575954
H59	H	1.364660	0.195263	0.514915
H60	H	1.392509	0.201365	0.339214
H61	H	1.269454	0.174893	0.224544
H62	H	1.118552	0.142319	0.285582
C63	C	1.162501	-0.468099	0.000188
C64	C	1.222673	-0.453671	0.077478
C65	C	1.313462	-0.498472	0.077538
C66	C	1.344078	-0.557700	0.000309
C67	C	1.283905	-0.572131	-0.076986
C68	C	1.193117	-0.527331	-0.077047
H69	H	1.200010	-0.409824	0.134652
H70	H	1.358006	-0.487788	0.134758
H71	H	1.411286	-0.590864	0.000354
H72	H	1.306568	-0.615978	-0.134161
H73	H	1.148573	-0.538014	-0.134266
H74	H	0.449461	0.040295	-0.134642
H75	H	0.420779	0.261683	-0.000023
C76	C	1.078845	-0.335306	0.156629
C77	C	1.045279	-0.353736	0.249901
C78	C	1.091448	-0.326728	0.333380
C79	C	1.171183	-0.281289	0.323586
C80	C	1.204753	-0.262857	0.230310
C81	C	1.158584	-0.289865	0.146831
H82	H	0.986251	-0.387374	0.257155
H83	H	1.066597	-0.340373	0.402429
H84	H	1.205360	-0.261296	0.385382
H85	H	1.263781	-0.229219	0.223057
H86	H	1.183435	-0.276220	0.077782
C87	C	1.027036	0.277642	0.565039
C88	C	1.105177	0.284542	0.623676
C89	C	1.123720	0.371241	0.658948
C90	C	1.064122	0.451040	0.635583
C91	C	0.985976	0.444143	0.576943
C92	C	0.967433	0.357444	0.541671
H93	H	1.149300	0.225467	0.640975
H94	H	1.181569	0.376346	0.702358
H95	H	1.077848	0.515220	0.661694
H96	H	0.941853	0.503218	0.559644
H97	H	0.909584	0.352339	0.498261
H98	H	0.563905	-0.031573	-0.000005
C99	C	0.542131	0.201656	0.156423
C100	C	0.524548	0.167707	0.249751
C101	C	0.551755	0.213890	0.333136
C102	C	0.596543	0.294022	0.323192
C103	C	0.614128	0.327976	0.229861
C104	C	0.586921	0.281793	0.146476
H105	H	0.491391	0.108384	0.257115
H106	H	0.538737	0.188754	0.402226
H107	H	0.616683	0.328210	0.384919
H108	H	0.647285	0.387299	0.222496
H109	H	0.599939	0.306928	0.077385
H110	H	0.852184	0.084959	0.555847
C111	C	0.905567	-0.434818	-0.156286
C112	C	0.938595	-0.415815	-0.249633
C113	C	0.892363	-0.442955	-0.333011
C114	C	0.813102	-0.489098	-0.323044
C115	C	0.780069	-0.508104	-0.229694
C116	C	0.826302	-0.480964	-0.146315
H117	H	0.997272	-0.381655	-0.257015
H118	H	0.916816	-0.428886	-0.402115
H119	H	0.778878	-0.509189	-0.384766
H120	H	0.721392	-0.542263	-0.222312
H121	H	0.801849	-0.495033	-0.077211
C122	C	1.120195	-0.012742	0.564646
C123	C	1.213597	-0.008528	0.540983
C124	C	1.281832	-0.076651	0.575930
C125	C	1.256664	-0.148990	0.634540
C126	C	1.163256	-0.153208	0.658206
C127	C	1.095022	-0.085084	0.623259
H128	H	1.232233	0.045025	0.497594
H129	H	1.350978	-0.073529	0.558411
H130	H	1.307175	-0.199420	0.660410
H131	H	1.144621	-0.206760	0.701595
H132	H	1.025875	-0.088207	0.640778
C133	C	0.864496	0.242799	0.435264
C134	C	0.851490	0.254818	0.334290
C135	C	0.783410	0.322982	0.299120
C136	C	0.728336	0.379126	0.364924
C137	C	0.741340	0.367109	0.465904
C138	C	0.809420	0.298945	0.501074
H139	H	0.892261	0.213255	0.285572
H140	H	0.773784	0.331877	0.224367
H141	H	0.677939	0.429585	0.338889
H142	H	0.700569	0.408672	0.514622
H143	H	0.819046	0.290050	0.575827
C144	C	0.957411	-0.047566	0.435112
C145	C	0.941443	-0.118165	0.500827
C146	C	0.922836	-0.204841	0.465549
C147	C	0.920196	-0.220919	0.364556
C148	C	0.936164	-0.150318	0.298834
C149	C	0.954772	-0.063642	0.334112
H150	H	0.943397	-0.106265	0.575595
H151	H	0.911015	-0.257105	0.514202
H152	H	0.906422	-0.285082	0.338441
H153	H	0.934211	-0.162218	0.224067
H154	H	0.966592	-0.011378	0.285460
C155	C	0.442419	0.028330	0.156437
C156	C	0.476629	-0.064675	0.172460
C157	C	0.449488	-0.110907	0.255837
C158	C	0.388135	-0.064135	0.323193
C159	C	0.353921	0.028875	0.307172
C160	C	0.381063	0.075107	0.223794
H161	H	0.522049	-0.099303	0.122598
H162	H	0.474815	-0.179760	0.267697
H163	H	0.368044	-0.098359	0.384914
H164	H	0.308502	0.063503	0.357034
H165	H	0.355735	0.143959	0.211935
H166	H	0.917528	-0.427772	0.134794
C167	C	0.822092	-0.301660	0.000154
C168	C	0.746466	-0.353770	0.001017
C169	C	0.655760	-0.308765	0.001106
C170	C	0.640680	-0.211650	0.000333
C171	C	0.716307	-0.159533	-0.000530
C172	C	0.807013	-0.204538	-0.000619
H173	H	0.757628	-0.425666	0.001589
H174	H	0.599776	-0.347346	0.001745
H175	H	0.573534	-0.178334	0.000399
H176	H	0.705145	-0.087637	-0.001102
H177	H	0.862997	-0.165958	-0.001258
C178	C	1.078897	-0.335115	-0.156272
C179	C	1.171435	-0.370495	-0.173200
C180	C	1.217624	-0.343299	-0.256586
C181	C	1.171274	-0.280724	-0.323043
C182	C	1.078731	-0.245341	-0.306116
C183	C	1.032542	-0.272536	-0.222731
H184	H	1.205750	-0.416820	-0.124003
H185	H	1.286130	-0.369493	-0.269115
H186	H	1.205466	-0.260592	-0.384769
H187	H	1.044416	-0.199015	-0.355313
H188	H	0.964035	-0.246342	-0.210201
