data_functionalizedCrystal
_audit_creation_method	'MofGen! by Chris Wilmer'
_symmetry_space_group_name_H-M	'P1'
_symmetry_Int_Tables_number	1
_symmetry_cell_setting	triclinic
loop_
_symmetry_equiv_pos_as_xyz
  x,y,z
_cell_length_a	12.645331
_cell_length_b	12.645330
_cell_length_c	13.897441
_cell_angle_alpha	89.970564
_cell_angle_beta	89.977919
_cell_angle_gamma	90.011625
loop_
_atom_site_label
_atom_site_type_symbol
_atom_site_fract_x
_atom_site_fract_y
_atom_site_fract_z
Zn1	Zn	1.620762	-0.422034	-0.545424
Zn2	Zn	2.120762	0.077966	-0.045424
Zn3	Zn	1.620661	-0.599330	-0.384128
Zn4	Zn	2.120661	-0.099330	0.115872
Zn5	Zn	1.443479	-0.422078	-0.384138
Zn6	Zn	1.943479	0.077922	0.115862
Zn7	Zn	1.443474	-0.599253	-0.545377
Zn8	Zn	1.943474	-0.099253	-0.045377
O9	O	1.532094	-0.510674	-0.464767
O10	O	2.032094	-0.010674	0.035233
O11	O	1.769096	-0.445567	-0.524043
O12	O	2.269096	0.054433	-0.024043
O13	O	1.597117	-0.575867	-0.249148
O14	O	2.097117	-0.075867	0.250852
O15	O	1.467040	-0.273725	-0.405557
O16	O	1.967040	0.226275	0.094443
O17	O	1.769022	-0.575825	-0.405540
O18	O	2.269022	-0.075825	0.094460
O19	O	1.597289	-0.273693	-0.524052
O20	O	2.097289	0.226307	-0.024052
O21	O	1.466942	-0.445641	-0.249155
O22	O	1.966942	0.054359	0.250845
O23	O	1.295131	-0.445566	-0.405512
O24	O	1.795131	0.054434	0.094488
O25	O	1.467032	-0.575694	-0.680365
O26	O	1.967032	-0.075694	-0.180365
O27	O	1.295127	-0.575736	-0.523973
O28	O	1.795127	-0.075736	-0.023973
O29	O	1.597285	-0.445493	-0.680399
O30	O	2.097285	0.054507	-0.180399
O31	O	1.597113	-0.747667	-0.405495
O32	O	2.097113	-0.247667	0.094505
O33	O	1.466934	-0.747611	-0.523964
O34	O	1.966934	-0.247611	-0.023964
C35	C	1.256664	-0.510649	-0.464739
C36	C	1.756664	-0.010649	0.035261
C37	C	1.138834	-0.510663	-0.464750
C38	C	1.638834	-0.010663	0.035250
C39	C	0.971237	-0.428397	-0.390637
C40	C	1.471237	0.071603	0.109363
C41	C	1.093797	-0.428610	-0.390310
C42	C	1.593797	0.071390	0.109690
C43	C	1.094324	-0.622339	-0.436981
C44	C	1.594324	-0.122339	0.063019
C45	C	0.971726	-0.621889	-0.436475
C46	C	1.471726	-0.121889	0.063525
C47	C	0.971681	-0.482318	-0.566918
C48	C	1.471681	0.017682	-0.066918
C49	C	1.094287	-0.479823	-0.566351
C50	C	1.594287	0.020177	-0.066351
C51	C	1.532041	-0.786104	-0.464744
C52	C	2.032041	-0.286104	0.035256
C53	C	1.532115	-0.903934	-0.464766
C54	C	2.032115	-0.403934	0.035234
C55	C	1.613879	-1.071489	-0.390086
C56	C	2.113879	-0.571489	0.109914
C57	C	1.614145	-0.948929	-0.390269
C58	C	2.114145	-0.448929	0.109731
C59	C	1.562414	-0.948311	-0.566444
C60	C	2.062414	-0.448311	-0.066444
C61	C	1.563063	-1.070910	-0.566047
C62	C	2.063063	-0.570910	-0.066047
C63	C	1.420020	-1.071260	-0.438772
C64	C	1.920020	-0.571260	0.061228
C65	C	1.420557	-0.948656	-0.436491
C66	C	1.920557	-0.448656	0.063509
C67	C	1.808599	-0.510700	-0.464795
C68	C	2.308599	-0.010700	0.035205
C69	C	1.926429	-0.510711	-0.464808
C70	C	2.426429	-0.010711	0.035192
C71	C	1.532169	-0.510580	-0.716360
C72	C	2.032169	-0.010580	-0.216360
C73	C	1.532201	-0.510540	-0.823574
C74	C	2.032201	-0.010540	-0.323574
C75	C	1.532176	-0.234169	-0.464811
C76	C	2.032176	0.265831	0.035189
C77	C	1.532211	-0.116338	-0.464830
C78	C	2.032211	0.383662	0.035170
C79	C	1.532230	-0.510468	-1.019869
C80	C	2.032230	-0.010468	-0.519869
C81	C	1.532211	-0.510511	-0.910637
C82	C	2.032211	-0.010511	-0.410637
C83	C	1.532080	-0.510691	-0.214152
C84	C	2.032080	-0.010691	0.285848
C85	C	1.532253	-0.510432	-0.106939
C86	C	2.032253	-0.010432	0.393061
H87	H	1.124949	-0.535403	-0.624570
H88	H	1.624949	-0.035403	-0.124570
H89	H	1.392468	-1.102272	-0.365920
H90	H	1.892468	-0.602272	0.134080
Cl91	Cl	0.925959	-0.719788	-0.516235
Cl92	Cl	1.425959	-0.219788	-0.016235
Cl93	Cl	1.584987	-1.117127	-0.273343
Cl94	Cl	2.084987	-0.617127	0.226657
H95	H	1.124982	-0.646830	-0.363134
H96	H	1.624982	-0.146830	0.136866
H97	H	1.123890	-0.345798	-0.407716
H98	H	1.623890	0.154202	0.092284
Cl99	Cl	0.925736	-0.300152	-0.417217
Cl100	Cl	1.425736	0.199848	0.082783
H101	H	0.943083	-0.645967	-0.361827
H102	H	1.443083	-0.145967	0.138173
Cl103	Cl	1.475205	-1.116714	-0.654949
Cl104	Cl	1.975205	-0.616714	-0.154949
H105	H	1.696529	-1.102220	-0.407129
H106	H	2.196529	-0.602220	0.092871
Cl107	Cl	0.923594	-0.457028	-0.274500
Cl108	Cl	1.423594	0.042972	0.225500
Cl109	Cl	1.385276	-0.903885	-0.320970
Cl110	Cl	1.885276	-0.403885	0.179030
Cl111	Cl	1.584809	-0.902606	-0.273884
Cl112	Cl	2.084809	-0.402606	0.226116
H113	H	0.940777	-0.402305	-0.592172
H114	H	1.440777	0.097695	-0.092172
Cl115	Cl	1.689674	-1.114936	-0.600122
Cl116	Cl	2.189674	-0.614936	-0.100122
H117	H	1.697241	-0.919521	-0.407505
H118	H	2.197241	-0.419521	0.092495
Cl119	Cl	1.139011	-0.457579	-0.273483
Cl120	Cl	1.639011	0.042421	0.226517
H121	H	1.123499	-0.685308	-0.489307
H122	H	1.623499	-0.185308	0.010693
Cl123	Cl	1.139228	-0.352952	-0.598694
Cl124	Cl	1.639228	0.147048	-0.098694
Cl125	Cl	1.473367	-0.903323	-0.654730
Cl126	Cl	1.973367	-0.403323	-0.154730
Cl127	Cl	0.926947	-0.574879	-0.652242
Cl128	Cl	1.426947	-0.074879	-0.152242
H129	H	1.643494	-0.917524	-0.588884
H130	H	2.143494	-0.417524	-0.088884
Cl131	Cl	1.321539	-0.901388	-0.514379
Cl132	Cl	1.821539	-0.401388	-0.014379
Cl133	Cl	1.326072	-1.116043	-0.522816
Cl134	Cl	1.826072	-0.616043	-0.022816
