data_functionalizedCrystal
_audit_creation_method	'MofGen! by Chris Wilmer'
_symmetry_space_group_name_H-M	'P1'
_symmetry_Int_Tables_number	1
_symmetry_cell_setting	triclinic
loop_
_symmetry_equiv_pos_as_xyz
  x,y,z
_cell_length_a	10.489716
_cell_length_b	10.489716
_cell_length_c	9.198806
_cell_angle_alpha	90.000858
_cell_angle_beta	89.996421
_cell_angle_gamma	84.529136
loop_
_atom_site_label
_atom_site_type_symbol
_atom_site_fract_x
_atom_site_fract_y
_atom_site_fract_z
O1	O	1.694055	0.179818	-0.120866
O2	O	1.322854	0.196744	-0.120871
O3	O	1.516918	0.002680	-0.120874
O4	O	1.499992	0.373881	-0.120863
O5	O	1.516902	0.002680	0.120911
O6	O	1.322839	0.196743	0.120914
O7	O	1.694040	0.179817	0.120919
Cu8	Cu	1.508438	0.188280	0.142993
Cu9	Cu	1.508456	0.188281	-0.142945
O10	O	1.499976	0.373881	0.120922
C11	C	1.275314	0.195472	0.000021
C12	C	1.133684	0.191667	0.000019
C13	C	1.035999	0.310673	0.000019
C14	C	0.958651	0.247787	0.119236
C15	C	0.958673	0.247760	-0.119145
C16	C	1.058201	0.128831	0.119335
C17	C	1.058228	0.128821	-0.119153
C18	C	0.980929	0.065848	0.000093
C19	C	1.515638	-0.044852	0.000014
C20	C	1.511833	-0.186483	0.000001
C21	C	1.630839	-0.284167	0.000016
C22	C	1.567961	-0.361522	-0.119194
C23	C	1.567919	-0.361487	0.119187
C24	C	1.449005	-0.261972	-0.119307
C25	C	1.448980	-0.261931	0.119181
C26	C	1.386015	-0.339237	-0.000057
C27	C	1.741580	0.181089	0.000024
C28	C	1.883210	0.184894	0.000016
C29	C	1.501256	0.421413	0.000030
C30	C	1.505061	0.563044	0.000034
N31	N	1.508434	0.188279	0.344107
N32	N	1.508470	0.188272	-0.344059
C33	C	1.589916	0.106438	0.416303
C34	C	1.589935	0.106433	0.583715
H35	H	0.915192	0.298021	-0.219919
C36	C	1.682889	0.012793	0.666304
C37	C	1.660754	-0.112692	0.629359
C38	C	1.746370	-0.198990	0.705400
H39	H	1.670627	0.025031	0.767844
H40	H	1.768252	0.027126	0.641384
H41	H	1.575411	-0.127019	0.654289
H42	H	1.673026	-0.124970	0.527833
H43	H	1.831733	-0.184658	0.680479
H44	H	1.734101	-0.186741	0.806936
H45	H	1.731371	-0.284141	0.680333
H46	H	0.956508	-0.037744	0.000159
H47	H	1.101735	0.078622	-0.219949
H48	H	1.734354	-0.259500	-0.000104
H49	H	1.618205	-0.405021	-0.219978
H50	H	1.282422	-0.363659	-0.000123
H51	H	1.398802	-0.218664	-0.220201
C52	C	1.635128	-0.419552	0.253400
C53	C	1.737258	-0.507282	0.210768
C54	C	1.799219	-0.560781	0.334355
H55	H	1.576285	-0.462283	0.309643
H56	H	1.666745	-0.353594	0.309903
H57	H	1.705639	-0.573230	0.154289
H58	H	1.796128	-0.464582	0.154542
H59	H	1.830837	-0.494823	0.390858
H60	H	1.740367	-0.603505	0.390590
H61	H	1.868528	-0.620303	0.305447
H62	H	1.659657	0.036368	0.354176
H63	H	1.438711	0.258348	0.593865
H64	H	1.438685	0.258339	0.406237
H65	H	1.060659	0.414190	0.000133
H66	H	1.398780	-0.218409	0.219969
H67	H	1.101515	0.078623	0.220224
H68	H	0.915158	0.298024	0.220027
