data_functionalizedCrystal
_audit_creation_method	'MofGen! by Chris Wilmer'
_symmetry_space_group_name_H-M	'P1'
_symmetry_Int_Tables_number	1
_symmetry_cell_setting	triclinic
loop_
_symmetry_equiv_pos_as_xyz
  x,y,z
_cell_length_a	19.805407
_cell_length_b	21.295417
_cell_length_c	19.805399
_cell_angle_alpha	90.029796
_cell_angle_beta	90.017803
_cell_angle_gamma	90.027018
loop_
_atom_site_label
_atom_site_type_symbol
_atom_site_fract_x
_atom_site_fract_y
_atom_site_fract_z
Zn1	Zn	1.034720	-0.250669	0.382677
Zn2	Zn	1.534720	0.249331	0.882677
Zn3	Zn	1.034628	-0.355938	0.269485
Zn4	Zn	1.534628	0.144062	0.769485
Zn5	Zn	0.921535	-0.250681	0.269505
Zn6	Zn	1.421535	0.249319	0.769505
Zn7	Zn	0.921492	-0.355899	0.382635
Zn8	Zn	1.421492	0.144101	0.882635
O9	O	0.978094	-0.303297	0.326075
O10	O	1.478094	0.196703	0.826075
O11	O	1.129425	-0.264644	0.367671
O12	O	1.629425	0.235356	0.867671
O13	O	1.019606	-0.341996	0.174771
O14	O	1.519606	0.158004	0.674771
O15	O	0.936605	-0.162590	0.284544
O16	O	1.436605	0.337410	0.784544
O17	O	1.129357	-0.341984	0.284509
O18	O	1.629357	0.158016	0.784509
O19	O	1.019762	-0.162581	0.367691
O20	O	1.519762	0.337419	0.867691
O21	O	0.936517	-0.264665	0.174786
O22	O	1.436517	0.235335	0.674786
O23	O	0.826813	-0.264628	0.284503
O24	O	1.326813	0.235372	0.784503
O25	O	0.936532	-0.341919	0.477357
O26	O	1.436532	0.158081	0.977357
O27	O	0.826781	-0.341931	0.367619
O28	O	1.326781	0.158069	0.867619
O29	O	1.019721	-0.264607	0.477388
O30	O	1.519721	0.235393	0.977388
O31	O	1.019564	-0.444022	0.284468
O32	O	1.519564	0.055978	0.784468
O33	O	0.936443	-0.443994	0.367599
O34	O	1.436443	0.056006	0.867599
C35	C	0.802238	-0.303277	0.326059
C36	C	1.302238	0.196723	0.826059
C37	C	0.727006	-0.303284	0.326068
C38	C	1.227006	0.196716	0.826068
C39	C	0.691697	-0.263084	0.369436
C40	C	1.191697	0.236916	0.869436
C41	C	0.621009	-0.263087	0.369439
C42	C	1.121009	0.236913	0.869439
C43	C	0.585630	-0.303294	0.326076
C44	C	1.085630	0.196706	0.826076
C45	C	0.620944	-0.343496	0.282703
C46	C	1.120944	0.156504	0.782703
C47	C	0.691631	-0.343489	0.282698
C48	C	1.191631	0.156511	0.782698
C49	C	0.335870	-0.343524	0.282724
C50	C	0.835870	0.156476	0.782724
C51	C	0.265178	-0.343529	0.282734
C52	C	0.765178	0.156471	0.782734
C53	C	0.265248	-0.263122	0.369465
C54	C	0.765248	0.236878	0.869465
C55	C	0.335936	-0.263115	0.369460
C56	C	0.835936	0.236885	0.869460
C57	C	0.371243	-0.303314	0.326084
C58	C	0.871243	0.196686	0.826084
C59	C	0.447891	-0.303310	0.326081
C60	C	0.947891	0.196690	0.826081
C61	C	0.508983	-0.303303	0.326082
C62	C	1.008983	0.196697	0.826082
C63	C	0.978008	-0.466848	0.326041
C64	C	1.478008	0.033152	0.826041
C65	C	0.978033	-0.536816	0.326049
C66	C	1.478033	-0.036816	0.826049
C67	C	1.021308	-0.569621	0.369375
C68	C	1.521308	-0.069621	0.869375
C69	C	1.021331	-0.635364	0.369391
C70	C	1.521331	-0.135364	0.869391
C71	C	0.978087	-0.668299	0.326071
C72	C	1.478087	-0.168299	0.826071
C73	C	0.934804	-0.635486	0.282742
C74	C	1.434804	-0.135486	0.782742
C75	C	0.934777	-0.569745	0.282731
C76	C	1.434777	-0.069745	0.782731
N77	N	0.972976	-0.771560	0.266835
N78	N	1.472976	-0.271560	0.766835
N79	N	0.973006	-0.834011	0.266847
N80	N	1.473006	-0.334011	0.766847
C81	C	0.978167	-0.866374	0.326101
C82	C	1.478167	-0.366374	0.826101
N83	N	0.983309	-0.833925	0.385344
N84	N	1.483309	-0.333925	0.885344
N85	N	0.983283	-0.771468	0.385331
N86	N	1.483283	-0.271468	0.885331
C87	C	0.978112	-0.739584	0.326078
C88	C	1.478112	-0.239584	0.826078
C89	C	1.021470	-0.970464	0.369448
C90	C	1.521470	-0.470464	0.869448
C91	C	1.021489	-1.036208	0.369466
C92	C	1.521489	-0.536208	0.869466
C93	C	0.934965	-1.036329	0.282811
C94	C	1.434965	-0.536329	0.782811
C95	C	0.934942	-0.970587	0.282799
C96	C	1.434942	-0.470587	0.782799
C97	C	0.978198	-0.937658	0.326117
C98	C	1.478198	-0.437658	0.826117
C99	C	1.154637	-0.303317	0.326092
C100	C	1.654637	0.196683	0.826092
C101	C	1.229868	-0.303326	0.326100
C102	C	1.729868	0.196674	0.826100
C103	C	0.978132	-0.303257	0.502618
C104	C	1.478132	0.196743	1.002618
C105	C	0.978148	-0.303240	0.577850
C106	C	1.478148	0.196760	1.077850
C107	C	0.978199	-0.139106	0.326125
C108	C	1.478199	0.360894	0.826125
C109	C	0.978244	-0.069138	0.326146
C110	C	1.478244	0.430862	0.826146
C111	C	0.978095	-0.303291	0.150220
C112	C	1.478095	0.196709	0.650220
C113	C	0.978210	-0.303130	0.074988
C114	C	1.478210	0.196870	0.574988
C115	C	1.021465	-0.262982	0.613212
C116	C	1.521465	0.237018	1.113212
C117	C	1.021472	-0.262963	0.683900
C118	C	1.521472	0.237037	1.183900
C119	C	0.978165	-0.303207	0.719226
C120	C	1.478165	0.196793	1.219226
C121	C	0.934843	-0.343468	0.683860
C122	C	1.434843	0.156532	1.183860
C123	C	0.934833	-0.343482	0.613172
C124	C	1.434833	0.156518	1.113172
C125	C	0.934881	-0.343409	0.968933
C126	C	1.434881	0.156591	1.468933
C127	C	0.934896	-0.343393	1.039625
C128	C	1.434896	0.156607	1.539625
C129	C	1.021520	-0.262890	1.039661
C130	C	1.521520	0.237110	1.539661
C131	C	1.021510	-0.262905	0.968974
C132	C	1.521510	0.237095	1.468974
C133	C	0.978186	-0.303162	0.933613
C134	C	1.478186	0.196838	1.433613
C135	C	0.978178	-0.303181	0.856965
C136	C	1.478178	0.196819	1.356965
C137	C	0.978176	-0.303192	0.795873
C138	C	1.478176	0.196808	1.295873
H139	H	0.236493	-0.230388	0.404781
H140	H	0.736493	0.269612	0.904781
O141	O	1.063520	-0.223768	0.718171
O142	O	1.563520	0.276232	1.218171
C143	C	1.048756	-0.161031	0.700919
C144	C	1.548756	0.338969	1.200919
H145	H	1.022727	-0.159740	0.649593
H146	H	1.522727	0.340260	1.149593
H147	H	1.097624	-0.132813	0.698510
H148	H	1.597624	0.367187	1.198510
H149	H	1.013980	-0.139810	0.740702
H150	H	1.513980	0.360190	1.240702
H151	H	1.056527	-0.542813	0.404648
H152	H	1.556527	-0.042813	0.904648
O153	O	0.370197	-0.223999	0.411604
O154	O	0.870197	0.276001	0.911604
C155	C	0.323874	-0.188527	0.449895
C156	C	0.823874	0.311473	0.949895
H157	H	0.273475	-0.186319	0.422181
H158	H	0.773475	0.313681	0.922181
H159	H	0.344321	-0.138937	0.457208
H160	H	0.844321	0.361063	0.957208
H161	H	0.316369	-0.211641	0.501256
H162	H	0.816369	0.288359	1.001256
O163	O	0.892932	-0.938619	0.240770
O164	O	1.392932	-0.438619	0.740770
C165	C	0.902193	-0.873533	0.250037
C166	C	1.402193	-0.373533	0.750037
H167	H	0.924325	-0.864503	0.302290
H168	H	1.424325	-0.364503	0.802290
H169	H	0.851486	-0.848590	0.245395
H170	H	1.351486	-0.348590	0.745395
H171	H	0.938254	-0.854873	0.209919
H172	H	1.438254	-0.354873	0.709919
H173	H	0.899593	-0.662306	0.247471
H174	H	1.399593	-0.162306	0.747471
O175	O	1.063497	-1.068006	0.411648
O176	O	1.563497	-0.568006	0.911648
C177	C	1.048658	-1.051920	0.479094
C178	C	1.548658	-0.551920	0.979094
H179	H	1.022617	-1.004208	0.480467
H180	H	1.522617	-0.504208	0.980467
H181	H	1.097492	-1.049611	0.509480
H182	H	1.597492	-0.549611	1.009480
H183	H	1.013865	-1.088933	0.501873
H184	H	1.513865	-0.588933	1.001873
O185	O	0.586684	-0.382575	0.240517
O186	O	1.086684	0.117425	0.740517
C187	C	0.633008	-0.418066	0.202250
C188	C	1.133008	0.081934	0.702250
H189	H	0.683405	-0.392273	0.199950
H190	H	1.183405	0.107727	0.699950
H191	H	0.612560	-0.424721	0.148911
H192	H	1.112560	0.075279	0.648911
H193	H	0.640520	-0.465903	0.226944
H194	H	1.140520	0.034097	0.726944
H195	H	0.899579	-0.376233	0.712627
H196	H	1.399579	0.123767	1.212627
O197	O	0.726007	-0.382572	0.240666
O198	O	1.226007	0.117428	0.740666
C199	C	0.766883	-0.423282	0.279118
C200	C	1.266883	0.076718	0.779118
H201	H	0.777500	-0.401143	0.330455
H202	H	1.277500	0.098857	0.830455
H203	H	0.816576	-0.431678	0.251528
H204	H	1.316576	0.068322	0.751528
H205	H	0.739627	-0.469944	0.286464
H206	H	1.239627	0.030056	0.786464
H207	H	0.899751	-1.063144	0.247542
H208	H	1.399751	-0.563144	0.747542
O209	O	0.230915	-0.382606	0.240542
O210	O	0.730915	0.117394	0.740542
C211	C	0.277235	-0.418096	0.202267
C212	C	0.777235	0.081904	0.702267
H213	H	0.327633	-0.392306	0.199968
H214	H	0.827633	0.107694	0.699968
H215	H	0.256782	-0.424743	0.148928
H216	H	0.756782	0.075257	0.648928
H217	H	0.284744	-0.465936	0.226953
H218	H	0.784744	0.034064	0.726953
O219	O	0.370234	-0.382609	0.240689
O220	O	0.870234	0.117391	0.740689
C221	C	0.411108	-0.423322	0.279140
C222	C	0.911108	0.076678	0.779140
H223	H	0.421734	-0.401180	0.330475
H224	H	0.921734	0.098820	0.830475
H225	H	0.460797	-0.431726	0.251545
H226	H	0.960797	0.068274	0.751545
H227	H	0.383846	-0.469980	0.286493
H228	H	0.883846	0.030020	0.786493
H229	H	0.899536	-0.543035	0.247450
H230	H	1.399536	-0.043035	0.747450
O231	O	0.725957	-0.223969	0.411584
O232	O	1.225957	0.276031	0.911584
C233	C	0.679631	-0.188499	0.449874
C234	C	1.179631	0.311501	0.949874
H235	H	0.629233	-0.186290	0.422156
H236	H	1.129233	0.313710	0.922156
H237	H	0.700077	-0.138909	0.457192
H238	H	1.200077	0.361091	0.957192
H239	H	0.672122	-0.211616	0.501233
H240	H	1.172122	0.288384	1.001233
H241	H	1.056565	-0.662079	0.404680
H242	H	1.556565	-0.162079	0.904680
O243	O	0.892742	-0.382657	0.578925
O244	O	1.392742	0.117343	1.078925
C245	C	0.854512	-0.418168	0.625260
C246	C	1.354512	0.081832	1.125260
H247	H	0.882238	-0.420333	0.675654
H248	H	1.382238	0.079667	1.175654
H249	H	0.847267	-0.467770	0.604822
H250	H	1.347267	0.032230	1.104822
H251	H	0.803117	-0.395116	0.632771
H252	H	1.303117	0.104884	1.132771
H253	H	1.056689	-0.943652	0.404723
H254	H	1.556689	-0.443652	0.904723
O255	O	0.586639	-0.224127	0.411605
O256	O	1.086639	0.275873	0.911605
C257	C	0.545766	-0.260027	0.455263
C258	C	1.045766	0.239973	0.955263
H259	H	0.535143	-0.307700	0.431292
H260	H	1.035143	0.192300	0.931292
H261	H	0.496074	-0.234400	0.464395
H262	H	0.996074	0.265600	0.964395
H263	H	0.573027	-0.267009	0.505404
H264	H	1.073027	0.232991	1.005404
H265	H	1.056733	-0.230212	0.584455
H266	H	1.556733	0.269788	1.084455
O267	O	1.063600	-0.223752	0.934764
O268	O	1.563600	0.276248	1.434764
C269	C	1.101847	-0.188224	0.981134
C270	C	1.601847	0.311776	1.481134
H271	H	1.074134	-0.186031	1.031519
H272	H	1.574134	0.313969	1.531519
H273	H	1.109094	-0.138632	0.960726
H274	H	1.609094	0.361368	1.460726
H275	H	1.153240	-0.211279	0.988651
H276	H	1.653240	0.288721	1.488651
O277	O	0.892862	-0.382602	0.934627
O278	O	1.392862	0.117398	1.434627
C279	C	0.907596	-0.445341	0.951895
C280	C	1.407596	0.054659	1.451895
H281	H	0.961674	-0.448532	0.971319
H282	H	1.461674	0.051468	1.471319
H283	H	0.901717	-0.476451	0.905401
H284	H	1.401717	0.023549	1.405401
H285	H	0.871311	-0.461772	0.992927
H286	H	1.371311	0.038228	1.492927
H287	H	1.056794	-0.230108	1.068460
H288	H	1.556794	0.269892	1.568460
H289	H	0.899627	-0.376165	1.068385
H290	H	1.399627	0.123835	1.568385
