data_functionalizedCrystal
_audit_creation_method	'MofGen! by Chris Wilmer'
_symmetry_space_group_name_H-M	'P1'
_symmetry_Int_Tables_number	1
_symmetry_cell_setting	triclinic
loop_
_symmetry_equiv_pos_as_xyz
  x,y,z
_cell_length_a	10.723024
_cell_length_b	10.654550
_cell_length_c	9.730223
_cell_angle_alpha	90.000193
_cell_angle_beta	90.000079
_cell_angle_gamma	95.523614
loop_
_atom_site_label
_atom_site_type_symbol
_atom_site_fract_x
_atom_site_fract_y
_atom_site_fract_z
O1	O	1.657207	-0.176144	-0.114277
O2	O	1.294058	-0.193005	-0.114282
O3	O	1.483982	-0.001834	-0.114274
O4	O	1.467283	-0.367315	-0.114285
O5	O	1.483980	-0.001839	0.114306
O6	O	1.294055	-0.193010	0.114298
O7	O	1.657205	-0.176149	0.114303
Zn8	Zn	1.475630	-0.184580	0.150593
Zn9	Zn	1.475633	-0.184574	-0.150571
O10	O	1.467281	-0.367320	0.114295
C11	C	1.247557	-0.191780	0.000008
C12	C	1.109002	-0.188109	0.000006
C13	C	1.482755	0.044961	0.000014
C14	C	1.479086	0.184404	0.000009
N15	N	1.475637	-0.184584	0.356129
C16	C	1.034035	-0.295078	0.000002
C17	C	0.890831	-0.291287	0.000001
C18	C	1.703706	-0.177373	0.000010
C19	C	1.842261	-0.181045	0.000003
C20	C	1.468508	-0.414115	0.000004
C21	C	1.472176	-0.553558	-0.000000
C22	C	1.590911	0.263907	0.000015
C23	C	1.587456	0.394927	0.000005
C24	C	1.360343	0.366929	-0.000010
C25	C	1.363799	0.235912	-0.000010
C26	C	1.722033	0.280072	0.000029
C27	C	1.718579	0.411092	0.000020
N28	N	1.475636	-0.184560	-0.356108
C29	C	1.559757	-0.099962	0.428058
C30	C	1.559754	-0.099947	0.571941
C31	C	1.391506	-0.269186	0.571953
C32	C	1.391504	-0.269194	0.428073
C33	C	1.656898	-0.002257	0.428053
C34	C	1.656895	-0.002242	0.571936
H35	H	1.075871	-0.389466	0.000007
H36	H	1.752791	-0.023746	0.610987
H37	H	0.826412	-0.382860	-0.000008
H38	H	1.067166	-0.093722	-0.000026
C39	C	1.772137	0.472774	-0.133296
N40	N	1.812484	0.519236	-0.233704
H41	H	1.626576	0.088976	0.616553
H42	H	1.773320	0.250724	-0.095624
C43	C	1.785308	0.467520	0.129254
N44	N	1.835564	0.510020	0.226592
C45	C	1.240784	0.148462	-0.000046
N46	N	1.148123	0.082595	-0.000078
C47	C	0.929278	-0.057322	0.000011
N48	N	0.994828	0.035866	0.000021
H49	H	1.266480	0.408883	-0.000027
C50	C	1.299062	-0.362381	0.348955
N51	N	1.229469	-0.432612	0.289365
C52	C	1.779300	-0.043553	0.367758
N53	N	1.871494	-0.074658	0.322343
C54	C	1.298963	-0.362250	0.651104
N55	N	1.229258	-0.432348	0.710720
C56	C	1.778440	0.231941	0.133362
N57	N	1.820923	0.195688	0.233791
C58	C	1.628105	0.128144	0.375289
N59	N	1.606416	0.226359	0.335548
