data_functionalizedCrystal
_audit_creation_method	'MofGen! by Chris Wilmer'
_symmetry_space_group_name_H-M	'P1'
_symmetry_Int_Tables_number	1
_symmetry_cell_setting	triclinic
loop_
_symmetry_equiv_pos_as_xyz
  x,y,z
_cell_length_a	23.532355
_cell_length_b	22.010155
_cell_length_c	14.519709
_cell_angle_alpha	89.996686
_cell_angle_beta	83.253822
_cell_angle_gamma	90.002586
loop_
_atom_site_label
_atom_site_type_symbol
_atom_site_fract_x
_atom_site_fract_y
_atom_site_fract_z
O1	O	0.755787	0.050444	0.111708
O2	O	0.589993	0.050463	0.127957
O3	O	0.677286	0.050448	-0.014459
O4	O	0.668494	0.050460	0.254124
O5	O	0.677270	-0.050603	-0.014438
O6	O	0.589977	-0.050587	0.127978
O7	O	0.755771	-0.050607	0.111730
Cu8	Cu	0.672872	-0.059823	0.119856
Cu9	Cu	0.672891	0.059680	0.119831
O10	O	0.668478	-0.050591	0.254146
C11	C	0.568766	-0.000059	0.127561
C12	C	0.505542	-0.000052	0.126340
C13	C	0.113485	-0.055160	0.118679
C14	C	0.054080	-0.055163	0.117518
O15	O	0.023352	-0.102008	0.116895
N16	N	0.024378	-0.000081	0.116930
C17	C	0.054084	0.055008	0.117495
O18	O	0.023365	0.101859	0.116887
C19	C	0.113488	0.055010	0.118650
C20	C	0.143187	-0.000076	0.119247
C21	C	0.143184	-0.110242	0.119275
C22	C	0.202584	-0.110239	0.120439
C23	C	0.232286	-0.055155	0.121006
C24	C	0.202587	-0.000074	0.120410
C25	C	0.143194	0.110097	0.119208
C26	C	0.202602	0.110094	0.120362
C27	C	0.232300	0.055008	0.120959
C28	C	0.291689	0.055013	0.122141
N29	N	0.321392	-0.000069	0.122729
C30	C	0.291690	-0.055153	0.122161
C31	C	-0.070668	0.055000	0.115067
C32	C	-0.130072	0.054999	0.113919
C33	C	-0.130071	-0.055172	0.113940
C34	C	-0.070667	-0.055170	0.115095
C35	C	-0.040966	-0.000082	0.115655
C36	C	0.416435	-0.055144	0.124605
C37	C	0.475840	-0.055136	0.125773
C38	C	0.475835	0.055034	0.125746
C39	C	0.416435	0.055027	0.124584
C40	C	0.386736	-0.000067	0.124010
O41	O	0.322456	0.101834	0.122760
O42	O	0.322417	-0.101997	0.122757
N43	N	0.672863	-0.143876	0.119873
C44	C	0.711547	-0.563662	0.056778
C45	C	0.711549	-0.627270	0.056771
O46	O	0.744417	-0.660167	0.003138
N47	N	0.672891	-0.659083	0.119811
C48	C	0.634223	-0.627285	0.182855
O49	O	0.601341	-0.660186	0.236475
C50	C	0.634218	-0.563679	0.182857
C51	C	0.672883	-0.531869	0.119819
C52	C	0.750208	-0.531852	-0.006256
C53	C	0.750206	-0.468249	-0.006248
C54	C	0.711543	-0.436456	0.056793
C55	C	0.672881	-0.468266	0.119827
C56	C	0.595548	-0.531882	0.245896
C57	C	0.595547	-0.468271	0.245891
C58	C	0.634212	-0.436462	0.182853
C59	C	0.634216	-0.372869	0.182875
N60	N	0.672874	-0.341056	0.119836
C61	C	0.711538	-0.372849	0.056794
C62	C	0.634236	-0.760863	0.182847
C63	C	0.634243	-0.824468	0.182851
C64	C	0.711569	-0.824449	0.056765
C65	C	0.711564	-0.760842	0.056767
C66	C	0.672894	-0.729050	0.119807
C67	C	0.711531	-0.239278	0.056816
C68	C	0.711527	-0.175669	0.056832
C69	C	0.634200	-0.175695	0.182914
C70	C	0.634205	-0.239298	0.182901
C71	C	0.672873	-0.271088	0.119845
O72	O	0.601364	-0.339932	0.236479
O73	O	0.744410	-0.339941	0.003176
C74	C	0.776997	-0.000082	0.112125
C75	C	0.840222	-0.000086	0.113346
C76	C	0.676868	-0.000078	-0.048803
C77	C	0.675640	-0.000078	-0.151170
N78	N	0.672905	0.143733	0.119806
C79	C	0.671120	-0.000062	-0.526011
C80	C	0.672375	-0.000066	-0.421718
C81	C	0.673380	-0.000070	-0.338593
C82	C	0.674635	-0.000074	-0.234294
C83	C	0.668896	-0.000064	0.288490
C84	C	0.670124	-0.000060	0.390856
H85	H	-0.046491	-0.100026	0.115582
O86	O	0.231345	-0.163804	0.120967
C87	C	0.192380	-0.212417	0.120238
H88	H	0.152367	-0.196262	0.090212
H89	H	0.180156	-0.229352	0.194112
C90	C	0.269524	-0.284305	0.097086
C91	C	0.220381	-0.264465	0.060200
H92	H	0.286797	-0.316413	0.060056
H93	H	0.295776	-0.251555	0.097581
H94	H	0.259331	-0.298414	0.158647
H95	H	0.230576	-0.250349	-0.001355
H96	H	0.194131	-0.297214	0.059694
O97	O	0.749101	-0.855272	-0.004606
C98	C	0.739742	-0.839739	-0.095820
H99	H	0.717793	-0.793556	-0.095520
H100	H	0.711364	-0.875537	-0.124093
C101	C	0.824460	-0.893521	-0.158040
C102	C	0.797506	-0.836796	-0.157673
H103	H	0.860091	-0.891709	-0.196196
H104	H	0.830765	-0.903988	-0.096588
H105	H	0.800806	-0.923347	-0.181599
H106	H	0.821157	-0.806974	-0.134104
H107	H	0.791207	-0.826324	-0.219122
H108	H	-0.154249	0.099855	0.113447
H109	H	0.602764	-0.850364	0.234192
O110	O	0.387531	0.108499	0.123889
C111	C	0.359562	0.111801	0.043319
H112	H	0.352784	0.063974	0.016521
H113	H	0.386926	0.138980	-0.012171
C114	C	0.309526	0.202041	0.099378
C115	C	0.301197	0.143299	0.066470
H116	H	0.273524	0.221473	0.113656
H117	H	0.328370	0.199818	0.153658
H118	H	0.332331	0.224682	0.053131
H119	H	0.278398	0.120656	0.112720
H120	H	0.282347	0.145519	0.012197
H121	H	0.500018	-0.099996	0.126262
H122	H	0.564064	-0.557773	0.297226
H123	H	-0.154265	-0.100025	0.113476
H124	H	0.226781	0.154955	0.120819
H125	H	0.602748	-0.734981	0.234190
H126	H	0.564056	-0.442389	0.297225
O127	O	-0.041911	0.108571	0.115666
C128	C	-0.080870	0.157181	0.114878
H129	H	-0.125543	0.141024	0.143253
H130	H	-0.081284	0.174118	0.040757
C131	C	-0.007650	0.229073	0.140961
C132	C	-0.062518	0.209229	0.175819
H133	H	0.003670	0.261180	0.178549
H134	H	0.018598	0.196323	0.141489
H135	H	-0.008003	0.243182	0.079195
H136	H	-0.062163	0.195114	0.237580
H137	H	-0.088766	0.241978	0.175304
H138	H	0.743048	-0.734946	0.005435
O139	O	0.504602	0.108595	0.126340
C140	C	0.465657	0.157218	0.125543
H141	H	0.420979	0.141076	0.153920
H142	H	0.465248	0.174150	0.051420
C143	C	0.538897	0.229088	0.151616
C144	C	0.484023	0.209263	0.186476
H145	H	0.550226	0.261193	0.189199
H146	H	0.565135	0.196330	0.152150
H147	H	0.538548	0.243194	0.089847
H148	H	0.484373	0.195150	0.248240
H149	H	0.457785	0.242020	0.185954
O150	O	0.596592	-0.270108	0.244169
C151	C	0.562477	-0.228403	0.299828
H152	H	0.561804	-0.183056	0.262033
H153	H	0.581030	-0.221650	0.368188
C154	C	0.501885	-0.308920	0.365761
C155	C	0.501055	-0.253226	0.319336
H156	H	0.463997	-0.324233	0.377798
H157	H	0.524870	-0.337018	0.328265
H158	H	0.517348	-0.303286	0.422722
H159	H	0.485598	-0.258863	0.262372
H160	H	0.478066	-0.225130	0.356823
O161	O	0.749108	-0.144864	-0.004497
C162	C	0.783241	-0.186570	-0.060125
H163	H	0.759891	-0.231912	-0.060969
H164	H	0.825575	-0.193336	-0.030541
C165	C	0.823559	-0.106051	-0.158676
C166	C	0.794878	-0.161739	-0.159719
H167	H	0.830740	-0.090734	-0.220109
H168	H	0.800565	-0.077952	-0.121197
H169	H	0.858834	-0.111697	-0.134018
H170	H	0.759601	-0.156092	-0.184365
H171	H	0.817866	-0.189837	-0.197205
O172	O	0.114327	-0.163741	0.118559
C173	C	0.086325	-0.167048	0.038023
H174	H	0.108673	-0.135787	-0.017471
H175	H	0.039860	-0.152262	0.055205
C176	C	0.060868	-0.271256	0.069961
C177	C	0.088319	-0.232865	0.001800
H178	H	0.062095	-0.311855	0.047618
H179	H	0.079731	-0.269027	0.124222
H180	H	0.022149	-0.258927	0.084273
H181	H	0.127039	-0.245189	-0.012502
H182	H	0.069463	-0.235097	-0.052464
H183	H	0.743017	-0.265155	0.005469
O184	O	0.387676	-0.108715	0.124095
C185	C	0.426639	-0.157325	0.124849
H186	H	0.466651	-0.141163	0.154871
H187	H	0.438864	-0.174268	0.050982
C188	C	0.349491	-0.229216	0.148026
C189	C	0.398633	-0.209368	0.184907
H190	H	0.332215	-0.261321	0.185068
H191	H	0.323240	-0.196468	0.147515
H192	H	0.359685	-0.243331	0.086471
H193	H	0.388437	-0.195247	0.246455
H194	H	0.424881	-0.242116	0.185429
O195	O	0.114446	0.163663	0.118578
C196	C	0.153410	0.212274	0.119340
H197	H	0.198083	0.196111	0.090981
H198	H	0.153824	0.229224	0.193451
C199	C	0.080202	0.284160	0.093202
C200	C	0.135069	0.264311	0.058363
H201	H	0.068888	0.316261	0.055592
H202	H	0.053951	0.251411	0.092692
H203	H	0.080554	0.298281	0.154960
H204	H	0.134715	0.250183	-0.003389
H205	H	0.161321	0.297059	0.058862
H206	H	0.781689	-0.442353	-0.057581
O207	O	0.787826	-0.562636	-0.067532
C208	C	0.821932	-0.520908	-0.123174
H209	H	0.822598	-0.475571	-0.085357
H210	H	0.803376	-0.514142	-0.191528
C211	C	0.882537	-0.601393	-0.189147
C212	C	0.883358	-0.545711	-0.142697
H213	H	0.920427	-0.616692	-0.201195
H214	H	0.859558	-0.629506	-0.151663
H215	H	0.867071	-0.595747	-0.246104
H216	H	0.898817	-0.551359	-0.085737
H217	H	0.906342	-0.517598	-0.180172
O218	O	0.596720	-0.144736	0.244183
C219	C	0.627270	-0.107953	0.300837
H220	H	0.671799	-0.098424	0.263736
H221	H	0.631199	-0.132464	0.368970
C222	C	0.540491	-0.059237	0.366372
C223	C	0.595181	-0.047529	0.320800
H224	H	0.520697	-0.021965	0.378691
H225	H	0.519909	-0.084020	0.328207
H226	H	0.543773	-0.079664	0.423145
H227	H	0.591898	-0.027109	0.264024
H228	H	0.615762	-0.022741	0.358957
