data_functionalizedCrystal
_audit_creation_method	'MofGen! by Chris Wilmer'
_symmetry_space_group_name_H-M	'P1'
_symmetry_Int_Tables_number	1
_symmetry_cell_setting	triclinic
loop_
_symmetry_equiv_pos_as_xyz
  x,y,z
_cell_length_a	9.065215
_cell_length_b	19.188924
_cell_length_c	8.140239
_cell_angle_alpha	90.005201
_cell_angle_beta	90.000939
_cell_angle_gamma	84.078331
loop_
_atom_site_label
_atom_site_type_symbol
_atom_site_fract_x
_atom_site_fract_y
_atom_site_fract_z
O1	O	1.956841	0.102360	0.136603
O2	O	2.456841	0.602360	0.636603
O3	O	1.527264	0.110759	0.136611
O4	O	2.027264	0.610759	0.636611
O5	O	1.754455	0.005000	0.136588
O6	O	2.254455	0.505000	0.636588
O7	O	1.729651	0.208119	0.136627
O8	O	2.229651	0.708119	0.636627
O9	O	1.754447	0.004999	-0.136639
O10	O	2.254447	0.504999	0.363361
O11	O	1.527257	0.110758	-0.136616
O12	O	2.027257	0.610758	0.363384
O13	O	1.956834	0.102359	-0.136624
O14	O	2.456834	0.602359	0.363376
Zn15	Zn	1.742044	0.106558	-0.180000
Zn16	Zn	2.242044	0.606558	0.320000
Zn17	Zn	1.742054	0.106559	0.179988
Zn18	Zn	2.242054	0.606559	0.679988
O19	O	1.729643	0.208118	-0.136600
O20	O	2.229643	0.708118	0.363400
C21	C	1.472302	0.109952	-0.000001
C22	C	1.972302	0.609952	0.499999
C23	C	1.308542	0.107540	0.000001
C24	C	1.808542	0.607540	0.500001
C25	C	1.753649	-0.021018	-0.000027
C26	C	2.253649	0.478982	0.499973
C27	C	1.751243	-0.098542	-0.000032
C28	C	2.251243	0.401458	0.499968
C29	C	1.750124	-0.134949	0.148905
C30	C	2.250124	0.365051	0.648905
C31	C	1.747843	-0.207789	0.148917
C32	C	2.247843	0.292211	0.648917
C33	C	1.746710	-0.244221	-0.000015
C34	C	2.246710	0.255779	0.499985
C35	C	1.747820	-0.207805	-0.148971
C36	C	2.247820	0.292195	0.351029
C37	C	1.750087	-0.134965	-0.148979
C38	C	2.250087	0.365035	0.351021
N39	N	1.827098	-0.363261	-0.110863
N40	N	2.327098	0.136739	0.389137
N41	N	1.824948	-0.432456	-0.110845
N42	N	2.324948	0.067544	0.389155
C43	C	1.739876	-0.463683	0.000001
C44	C	2.239876	0.036317	0.500001
N45	N	1.657055	-0.423103	0.110854
N46	N	2.157055	0.076897	0.610854
N47	N	1.659212	-0.353902	0.110840
N48	N	2.159212	0.146098	0.610840
C49	C	1.744251	-0.323204	-0.000023
C50	C	2.244251	0.176796	0.499977
C51	C	1.736281	-0.579072	0.148961
C52	C	2.236281	-0.079072	0.648961
C53	C	1.733990	-0.651914	0.148968
C54	C	2.233990	-0.151914	0.648968
C55	C	1.733983	-0.651929	-0.148925
C56	C	2.233983	-0.151929	0.351075
C57	C	1.736259	-0.579088	-0.148927
C58	C	2.236259	-0.079088	0.351073
C59	C	1.737415	-0.542665	0.000020
C60	C	2.237415	-0.042665	0.500020
C61	C	2.011796	0.103166	-0.000007
C62	C	2.511796	0.603166	0.499993
C63	C	2.175556	0.105578	0.000001
C64	C	2.675556	0.605578	0.500001
C65	C	1.730449	0.234136	0.000018
C66	C	2.230449	0.734136	0.500018
C67	C	1.732855	0.311659	0.000034
C68	C	2.232855	0.811659	0.500034
N69	N	1.742049	0.106557	-0.425683
N70	N	2.242049	0.606557	0.074317
N71	N	1.742061	0.106555	0.425671
N72	N	2.242061	0.606555	0.925671
H73	H	1.751061	-0.105297	0.270190
H74	H	2.251061	0.394703	0.770190
Br75	Br	1.746318	-0.257210	0.351060
Br76	Br	2.246318	0.242790	0.851060
Br77	Br	1.746264	-0.257245	-0.351096
Br78	Br	2.246264	0.242755	0.148904
Br79	Br	1.732430	-0.701363	-0.351052
Br80	Br	2.232430	-0.201363	0.148948
Br81	Br	1.737842	-0.529636	0.351099
Br82	Br	2.237842	-0.029636	0.851099
Br83	Br	1.751599	-0.085551	-0.351124
Br84	Br	2.251599	0.414449	0.148876
H85	H	1.737182	-0.549446	-0.270208
H86	H	2.237182	-0.049446	0.229792
Br87	Br	1.732455	-0.701324	0.351114
Br88	Br	2.232455	-0.201324	0.851114
