data_functionalizedCrystal
_audit_creation_method	'MofGen! by Chris Wilmer'
_symmetry_space_group_name_H-M	'P1'
_symmetry_Int_Tables_number	1
_symmetry_cell_setting	triclinic
loop_
_symmetry_equiv_pos_as_xyz
  x,y,z
_cell_length_a	19.188933
_cell_length_b	19.188924
_cell_length_c	18.266242
_cell_angle_alpha	89.991576
_cell_angle_beta	89.992377
_cell_angle_gamma	83.143767
loop_
_atom_site_label
_atom_site_type_symbol
_atom_site_fract_x
_atom_site_fract_y
_atom_site_fract_z
O1	O	0.926146	0.087175	-0.060860
O2	O	1.259480	0.420509	0.272473
O3	O	1.592813	0.753842	0.605807
O4	O	0.722835	0.098908	-0.060867
O5	O	1.056168	0.432242	0.272466
O6	O	1.389501	0.765575	0.605800
O7	O	0.830360	-0.008614	-0.060855
O8	O	1.163693	0.324719	0.272479
O9	O	1.497027	0.658053	0.605812
O10	O	0.818621	0.194698	-0.060872
O11	O	1.151954	0.528031	0.272461
O12	O	1.485288	0.861364	0.605794
O13	O	0.830342	-0.008620	0.060907
O14	O	1.163675	0.324714	0.394241
O15	O	1.497009	0.658047	0.727574
O16	O	0.722817	0.098903	0.060895
O17	O	1.056150	0.432236	0.394228
O18	O	1.389483	0.765569	0.727562
O19	O	0.926128	0.087170	0.060902
O20	O	1.259461	0.420503	0.394235
O21	O	1.592795	0.753837	0.727569
Zn22	Zn	0.824469	0.093036	0.080231
Zn23	Zn	1.157803	0.426369	0.413564
Zn24	Zn	1.491136	0.759702	0.746897
Zn25	Zn	0.824493	0.093043	-0.080196
Zn26	Zn	1.157827	0.426376	0.253138
Zn27	Zn	1.491160	0.759709	0.586471
O28	O	0.818603	0.194692	0.060890
O29	O	1.151936	0.528026	0.394223
O30	O	1.485269	0.861359	0.727556
C31	C	0.696815	0.098525	0.000013
C32	C	1.030148	0.431859	0.333346
C33	C	1.363481	0.765192	0.666680
C34	C	0.619310	0.097384	0.000011
C35	C	0.952644	0.430717	0.333344
C36	C	1.285977	0.764051	0.666677
C37	C	0.066065	0.089242	-0.066353
C38	C	0.399398	0.422575	0.266980
C39	C	0.732732	0.755909	0.600313
C40	C	0.138889	0.090310	-0.066356
C41	C	0.472223	0.423643	0.266977
C42	C	0.805556	0.756977	0.600310
C43	C	0.175296	0.090844	0.000016
C44	C	0.508630	0.424178	0.333349
C45	C	0.841963	0.757511	0.666683
C46	C	0.138876	0.090293	0.066396
C47	C	0.472209	0.423626	0.399729
C48	C	0.805542	0.756959	0.733063
C49	C	0.066054	0.089217	0.066397
C50	C	0.399387	0.422551	0.399730
C51	C	0.732720	0.755884	0.733064
N52	N	0.284308	0.132261	0.049416
N53	N	0.617641	0.465594	0.382750
N54	N	0.950975	0.798927	0.716083
N55	N	0.353486	0.133284	0.049411
N56	N	0.686819	0.466617	0.382744
N57	N	1.020152	0.799950	0.716077
C58	C	0.394705	0.094082	0.000017
C59	C	0.728038	0.427416	0.333350
C60	C	1.061372	0.760749	0.666684
N61	N	0.364132	0.053828	-0.049382
N62	N	0.697466	0.387161	0.283951
N63	N	1.030799	0.720495	0.617284
N64	N	0.294948	0.052808	-0.049379
N65	N	0.628281	0.386142	0.283954
N66	N	0.961615	0.719475	0.617288
C67	C	0.254260	0.092010	0.000022
C68	C	0.587593	0.425343	0.333356
C69	C	0.920926	0.758676	0.666689
C70	C	0.510082	0.095787	-0.066362
C71	C	0.843415	0.429121	0.266971
C72	C	1.176749	0.762454	0.600305
C73	C	0.582908	0.096851	-0.066362
C74	C	0.916241	0.430184	0.266971
C75	C	1.249575	0.763518	0.600304
C76	C	0.582892	0.096841	0.066392
C77	C	0.916225	0.430174	0.399725
C78	C	1.249559	0.763507	0.733059
C79	C	0.510068	0.095770	0.066390
C80	C	0.843402	0.429103	0.399723
C81	C	1.176735	0.762436	0.733057
C82	C	0.473667	0.095246	0.000011
C83	C	0.807000	0.428580	0.333344
C84	C	1.140334	0.761913	0.666678
C85	C	0.829972	-0.034628	0.000027
C86	C	1.163305	0.298705	0.333360
C87	C	1.496638	0.632039	0.666694
C88	C	0.828833	-0.112133	0.000029
C89	C	1.162166	0.221201	0.333362
C90	C	1.495500	0.554534	0.666696
C91	C	0.828311	-0.148529	-0.066344
C92	C	1.161645	0.184805	0.266990
C93	C	1.494978	0.518138	0.600323
C94	C	0.827231	-0.221351	-0.066349
C95	C	1.160565	0.111982	0.266984
C96	C	1.493898	0.445315	0.600317
C97	C	0.826687	-0.257777	0.000021
C98	C	1.160021	0.075556	0.333355
C99	C	1.493354	0.408889	0.666688
C100	C	0.827205	-0.221372	0.066403
C101	C	1.160538	0.111961	0.399736
C102	C	1.493872	0.445295	0.733070
C103	C	0.828278	-0.148550	0.066407
C104	C	1.161611	0.184784	0.399740
C105	C	1.494944	0.518117	0.733073
N106	N	0.864728	-0.377442	0.049421
N107	N	1.198061	-0.044109	0.382754
N108	N	1.531394	0.289224	0.716088
N109	N	0.863710	-0.446621	0.049413
N110	N	1.197043	-0.113287	0.382746
N111	N	1.530377	0.220046	0.716080
C112	C	0.823453	-0.477186	0.000014
C113	C	1.156786	-0.143853	0.333348
C114	C	1.490120	0.189480	0.666681
N115	N	0.784261	-0.435962	-0.049387
N116	N	1.117595	-0.102628	0.283946
N117	N	1.450928	0.230705	0.617279
N118	N	0.785282	-0.366777	-0.049381
N119	N	1.118616	-0.033444	0.283952
N120	N	1.451949	0.299889	0.617285
C121	C	0.825523	-0.336741	0.000025
C122	C	1.158857	-0.003407	0.333358
C123	C	1.492190	0.329926	0.666692
C124	C	0.821760	-0.592545	-0.066369
C125	C	1.155093	-0.259212	0.266964
C126	C	1.488426	0.074122	0.600298
C127	C	0.820675	-0.665368	-0.066372
C128	C	1.154009	-0.332035	0.266962
C129	C	1.487342	0.001298	0.600295
C130	C	0.820656	-0.665389	0.066382
C131	C	1.153989	-0.332055	0.399716
C132	C	1.487322	0.001278	0.733049
C133	C	0.821733	-0.592566	0.066383
C134	C	1.155066	-0.259232	0.399717
C135	C	1.488400	0.074101	0.733050
C136	C	0.822288	-0.556149	0.000006
C137	C	1.155622	-0.222815	0.333339
C138	C	1.488955	0.110518	0.666672
C139	C	0.952148	0.087553	0.000020
C140	C	1.285481	0.420886	0.333354
C141	C	1.618815	0.754220	0.666687
C142	C	1.029653	0.088694	0.000018
C143	C	1.362986	0.422027	0.333351
C144	C	1.696319	0.755361	0.666685
C145	C	0.818991	0.220706	0.000006
C146	C	1.152324	0.554039	0.333340
C147	C	1.485658	0.887373	0.666673
C148	C	0.820130	0.298211	-0.000000
C149	C	1.153463	0.631544	0.333333
C150	C	1.486797	0.964878	0.666666
N151	N	0.824458	0.093030	0.189718
N152	N	1.157792	0.426363	0.523051
N153	N	1.491125	0.759697	0.856384
N154	N	0.824510	0.093043	-0.189683
N155	N	1.157844	0.426376	0.143651
N156	N	1.491177	0.759709	0.476984
C157	C	0.872086	0.045442	0.228032
C158	C	1.205419	0.378776	0.561365
C159	C	1.538753	0.712109	0.894699
C160	C	0.872090	0.045439	0.304677
C161	C	1.205424	0.378773	0.638010
C162	C	1.538757	0.712106	0.971344
C163	C	0.824474	0.093036	0.343005
C164	C	1.157807	0.426369	0.676338
C165	C	1.491140	0.759702	1.009671
C166	C	0.776837	0.140627	0.304681
C167	C	1.110170	0.473960	0.638014
C168	C	1.443504	0.807294	0.971348
C169	C	0.776829	0.140624	0.228038
C170	C	1.110163	0.473958	0.561371
C171	C	1.443496	0.807291	0.894704
N172	N	0.815397	0.154843	0.463331
N173	N	1.148730	0.488177	0.796665
N174	N	1.482063	0.821510	1.129998
N175	N	0.815408	0.154844	0.536140
N176	N	1.148742	0.488177	0.869473
N177	N	1.482075	0.821510	1.202806
C178	C	0.824493	0.093046	0.573927
C179	C	1.157827	0.426379	0.907260
C180	C	1.491160	0.759712	1.240594
N181	N	0.833580	0.031245	0.536156
N182	N	1.166914	0.364579	0.869489
N183	N	1.500247	0.697912	1.202823
N184	N	0.833572	0.031246	0.463341
N185	N	1.166905	0.364579	0.796675
N186	N	1.500239	0.697912	1.130008
C187	C	0.824477	0.093044	0.426112
C188	C	1.157810	0.426377	0.759445
C189	C	1.491143	0.759710	1.092778
C190	C	0.872129	0.045451	0.695349
C191	C	1.205462	0.378784	1.028682
C192	C	1.538795	0.712117	1.362015
C193	C	0.872128	0.045446	0.771995
C194	C	1.205461	0.378780	1.105328
C195	C	1.538795	0.712113	1.438662
C196	C	0.776878	0.140640	0.771997
C197	C	1.110211	0.473974	1.105331
C198	C	1.443545	0.807307	1.438664
C199	C	0.776875	0.140638	0.695353
C200	C	1.110209	0.473972	1.028686
C201	C	1.443542	0.807305	1.362019
C202	C	0.824504	0.093044	0.657033
C203	C	1.157837	0.426378	0.990366
C204	C	1.491171	0.759711	1.323699
H205	H	0.036432	0.088813	-0.120404
H206	H	0.369765	0.422146	0.212929
H207	H	0.703099	0.755480	0.546262
H208	H	0.910876	0.006686	0.335878
H209	H	1.244209	0.340019	0.669212
H210	H	1.577543	0.673353	1.002545
H211	H	0.036407	0.088774	0.120446
H212	H	0.369740	0.422107	0.453780
H213	H	0.703073	0.755441	0.787113
H214	H	0.910909	0.006694	0.664147
H215	H	1.244242	0.340028	0.997481
H216	H	1.577576	0.673361	1.330814
C217	C	0.924523	-0.006902	0.814141
C218	C	1.257856	0.326432	1.147474
C219	C	1.591189	0.659765	1.480808
H220	H	0.952890	-0.035240	0.780339
H221	H	1.286223	0.298093	1.113672
H222	H	1.619557	0.631427	1.447006
H223	H	0.899507	-0.035908	0.844052
H224	H	1.232840	0.297425	1.177385
H225	H	1.566174	0.630759	1.510718
H226	H	0.953507	0.018154	0.844027
H227	H	1.286841	0.351487	1.177360
H228	H	1.620174	0.684820	1.510694
H229	H	0.480443	0.095359	-0.120412
H230	H	0.813776	0.428692	0.212921
H231	H	1.147110	0.762026	0.546255
C232	C	0.828920	-0.108470	-0.139354
C233	C	1.162253	0.224863	0.193979
C234	C	1.495587	0.558196	0.527313
H235	H	0.829640	-0.059887	-0.129848
H236	H	1.162973	0.273446	0.203485
H237	H	1.496307	0.606780	0.536818
H238	H	0.788045	-0.114951	-0.166634
H239	H	1.121379	0.218383	0.166699
H240	H	1.454712	0.551716	0.500033
H241	H	0.869463	-0.125853	-0.166618
H242	H	1.202796	0.207481	0.166715
H243	H	1.536129	0.540814	0.500049
C244	C	0.724500	0.192995	0.814148
C245	C	1.057834	0.526329	1.147482
C246	C	1.391167	0.859662	1.480815
H247	H	0.731328	0.186185	0.865283
H248	H	1.064661	0.519518	1.198616
H249	H	1.397995	0.852851	1.531949
H250	H	0.677928	0.185528	0.801600
H251	H	1.011261	0.518862	1.134933
H252	H	1.344594	0.852195	1.468267
H253	H	0.731941	0.239577	0.801577
H254	H	1.065274	0.572911	1.134910
H255	H	1.398607	0.906244	1.468244
H256	H	0.826802	-0.250990	-0.120400
H257	H	1.160136	0.082343	0.212934
H258	H	1.493469	0.415677	0.546267
H259	H	0.168523	0.090726	0.120437
H260	H	0.501856	0.424060	0.453770
H261	H	0.835190	0.757393	0.787103
H262	H	0.828700	-0.118916	0.120457
H263	H	1.162033	0.214417	0.453790
H264	H	1.495366	0.547750	0.787124
C265	C	0.724462	0.192984	0.346838
C266	C	1.057796	0.526317	0.680171
C267	C	1.391129	0.859650	1.013505
H268	H	0.731293	0.186175	0.397972
H269	H	1.064626	0.519508	0.731305
H270	H	1.397960	0.852842	1.064639
H271	H	0.677889	0.185516	0.334293
H272	H	1.011222	0.518849	0.667627
H273	H	1.344556	0.852183	1.000960
H274	H	0.731902	0.239565	0.334263
H275	H	1.065235	0.572898	0.667597
H276	H	1.398568	0.906232	1.000930
H277	H	0.910867	0.006687	0.196834
H278	H	1.244200	0.340020	0.530168
H279	H	1.577533	0.673354	0.863501
H280	H	0.738044	0.179376	0.196841
H281	H	1.071378	0.512710	0.530175
H282	H	1.404711	0.846043	0.863508
H283	H	0.612555	0.097292	-0.120412
H284	H	0.945888	0.430625	0.212921
H285	H	1.279221	0.763958	0.546255
H286	H	0.738095	0.179391	0.664155
H287	H	1.071428	0.512725	0.997488
H288	H	1.404762	0.846058	1.330822
C289	C	0.820051	-0.705447	0.139389
C290	C	1.153385	-0.372114	0.472722
C291	C	1.486718	-0.038781	0.806056
H292	H	0.819340	-0.754031	0.129882
H293	H	1.152673	-0.420698	0.463215
H294	H	1.486006	-0.087365	0.796549
H295	H	0.779516	-0.688065	0.166658
H296	H	1.112850	-0.354731	0.499991
H297	H	1.446183	-0.021398	0.833324
H298	H	0.860934	-0.698971	0.166665
H299	H	1.194267	-0.365637	0.499999
H300	H	1.527600	-0.032304	0.833332
C301	C	0.622931	0.097428	0.139400
C302	C	0.956264	0.430761	0.472734
C303	C	1.289598	0.764094	0.806067
H304	H	0.671516	0.098150	0.129895
H305	H	1.004850	0.431483	0.463228
H306	H	1.338183	0.764817	0.796562
H307	H	0.616443	0.056544	0.166676
H308	H	0.949777	0.389878	0.500009
H309	H	1.283110	0.723211	0.833342
H310	H	0.605543	0.137962	0.166669
H311	H	0.938876	0.471295	0.500002
H312	H	1.272210	0.804628	0.833335
H313	H	0.168542	0.090760	-0.120405
H314	H	0.501875	0.424093	0.212928
H315	H	0.835208	0.757427	0.546261
H316	H	0.480420	0.095326	0.120437
H317	H	0.813754	0.428659	0.453770
H318	H	1.147087	0.761993	0.787104
H319	H	0.826760	-0.251034	0.120442
H320	H	1.160093	0.082299	0.453776
H321	H	1.493426	0.415632	0.787109
H322	H	0.822208	-0.562892	-0.120418
H323	H	1.155541	-0.229559	0.212916
H324	H	1.488874	0.103775	0.546249
H325	H	0.820247	-0.695000	-0.120423
H326	H	1.153580	-0.361667	0.212911
H327	H	1.486914	-0.028334	0.546244
H328	H	0.822164	-0.562932	0.120431
H329	H	1.155497	-0.229599	0.453764
H330	H	1.488830	0.103734	0.787098
