data_functionalizedCrystal
_audit_creation_method	'MofGen! by Chris Wilmer'
_symmetry_space_group_name_H-M	'P1'
_symmetry_Int_Tables_number	1
_symmetry_cell_setting	triclinic
loop_
_symmetry_equiv_pos_as_xyz
  x,y,z
_cell_length_a	12.594517
_cell_length_b	12.594516
_cell_length_c	16.120256
_cell_angle_alpha	87.121374
_cell_angle_beta	92.877992
_cell_angle_gamma	89.973469
loop_
_atom_site_label
_atom_site_type_symbol
_atom_site_fract_x
_atom_site_fract_y
_atom_site_fract_z
Zn1	Zn	1.596654	0.454312	-0.471424
Zn2	Zn	1.605540	0.623275	-0.332025
Zn3	Zn	1.427686	0.445310	-0.332026
Zn4	Zn	1.418609	0.632246	-0.471391
O5	O	1.512122	0.538785	-0.401716
O6	O	1.746777	0.476738	-0.452946
O7	O	1.589466	0.592146	-0.215361
O8	O	1.450180	0.297559	-0.350533
O9	O	1.753306	0.600874	-0.350530
O10	O	1.574320	0.304173	-0.452948
O11	O	1.458797	0.461396	-0.215362
O12	O	1.277537	0.470095	-0.350500
O13	O	1.434709	0.616164	-0.588059
O14	O	1.270868	0.607435	-0.452890
O15	O	1.565518	0.485436	-0.588084
O16	O	1.580664	0.773409	-0.350497
O17	O	1.443326	0.780000	-0.452888
C18	C	1.235583	0.538763	-0.401692
C19	C	1.117277	0.538780	-0.401701
C20	C	1.051613	0.463990	-0.346117
C21	C	0.982112	0.559748	-0.325614
C22	C	0.975978	0.443070	-0.422219
C23	C	1.049337	0.634586	-0.381158
C24	C	1.043206	0.517845	-0.477798
C25	C	0.973735	0.613672	-0.457324
C26	C	1.512002	0.815326	-0.401707
C27	C	1.512046	0.933633	-0.401731
C28	C	1.437330	1.006507	-0.457382
C29	C	1.416311	1.072435	-0.381309
C30	C	1.533122	1.078505	-0.477816
C31	C	1.490978	0.998000	-0.325617
C32	C	1.607830	1.004067	-0.422176
C33	C	1.586851	1.069959	-0.346050
C34	C	1.789741	0.538809	-0.401742
C35	C	1.908046	0.538819	-0.401752
C36	C	1.498109	0.552805	-0.619167
C37	C	1.492138	0.558779	-0.711831
C38	C	1.512225	1.261166	-0.401743
C39	C	1.512149	1.142861	-0.401751
C40	C	1.543261	0.507603	-0.922789
C41	C	1.481200	0.569642	-0.881485
C42	C	1.487287	0.563596	-0.787081
C43	C	1.537175	0.513648	-1.017202
C44	C	1.526142	0.524744	-0.185112
C45	C	1.532320	0.518470	-0.092448
H46	H	1.081390	0.715563	-0.363754
H47	H	1.473098	0.962928	-0.261263
O48	O	1.670614	1.106769	-0.283659
H49	H	1.652907	1.074237	-0.220599
H50	H	0.955116	0.577479	-0.261282
O51	O	0.933354	0.335839	-0.445191
H52	H	0.964669	0.273888	-0.398940
H53	H	1.688764	0.973974	-0.439488
H54	H	1.550908	1.113704	-0.542152
H55	H	1.423489	0.627291	-0.917022
H56	H	1.085694	0.400798	-0.299054
O57	O	1.619701	0.431241	-0.875725
H58	H	1.702170	0.450554	-0.892404
O59	O	1.353531	0.969416	-0.519630
H60	H	1.274137	0.996747	-0.502462
O61	O	0.928825	0.697556	-0.519611
H62	H	0.958402	0.776894	-0.502402
H63	H	1.070229	0.500083	-0.542111
H64	H	1.335357	1.102533	-0.364033
