data_functionalizedCrystal
_audit_creation_method	'MofGen! by Chris Wilmer'
_symmetry_space_group_name_H-M	'P1'
_symmetry_Int_Tables_number	1
_symmetry_cell_setting	triclinic
loop_
_symmetry_equiv_pos_as_xyz
  x,y,z
_cell_length_a	11.026607
_cell_length_b	10.723024
_cell_length_c	9.198806
_cell_angle_alpha	90.003648
_cell_angle_beta	89.998911
_cell_angle_gamma	83.473057
loop_
_atom_site_label
_atom_site_type_symbol
_atom_site_fract_x
_atom_site_fract_y
_atom_site_fract_z
O1	O	0.170518	-1.693992	-0.120878
O2	O	0.670518	-1.193992	0.379122
O3	O	0.186840	-1.334363	-0.120883
O4	O	0.686840	-0.834363	0.379117
O5	O	0.001778	-1.484372	-0.120876
O6	O	0.501778	-0.984372	0.379124
O7	O	0.355580	-1.543983	-0.120886
O8	O	0.855580	-1.043983	0.379114
O9	O	0.001777	-1.484357	0.120909
O10	O	0.501777	-0.984357	0.620909
O11	O	0.186840	-1.334348	0.120902
O12	O	0.686840	-0.834348	0.620902
O13	O	0.170518	-1.693977	0.120907
O14	O	0.670518	-1.193977	0.620907
Cu15	Cu	0.178679	-1.514161	0.142981
Cu16	Cu	0.678679	-1.014161	0.642981
Cu17	Cu	0.178679	-1.514179	-0.142958
Cu18	Cu	0.678679	-1.014179	0.357042
O19	O	0.355580	-1.543968	0.120899
O20	O	0.855580	-1.043968	0.620899
C21	C	0.185652	-1.287599	0.000009
C22	C	0.685652	-0.787599	0.500009
C23	C	0.182098	-1.148278	0.000007
C24	C	0.682098	-0.648278	0.500007
C25	C	-0.043525	-1.473367	0.000015
C26	C	0.456475	-0.973367	0.500015
C27	C	-0.178512	-1.440584	0.000009
C28	C	0.321488	-0.940584	0.500009
C29	C	0.171706	-1.740741	0.000011
C30	C	0.671706	-1.240741	0.500011
C31	C	0.175259	-1.880062	0.000004
C32	C	0.675259	-1.380062	0.500004
C33	C	-0.251564	-1.531104	0.000008
C34	C	0.248436	-1.031104	0.500008
C35	C	-0.391080	-1.497223	0.000003
C36	C	0.108920	-0.997223	0.500003
C37	C	0.400883	-1.554973	0.000006
C38	C	0.900883	-1.054973	0.500006
C39	C	0.535869	-1.587756	0.000002
C40	C	1.035869	-1.087756	0.500002
N41	N	0.178677	-1.514157	0.344095
N42	N	0.678677	-1.014157	0.844095
C43	C	0.285649	-1.095646	0.000003
C44	C	0.785649	-0.595646	0.500003
C45	C	0.281979	-0.951650	0.000001
C46	C	0.781979	-0.451650	0.500001
N47	N	0.178671	-1.514191	-0.344072
N48	N	0.678671	-1.014191	0.155928
C49	C	0.100633	-1.577068	0.416295
C50	C	0.600633	-1.077068	0.916295
C51	C	0.100628	-1.577086	0.583707
C52	C	0.600628	-1.077086	1.083707
H53	H	-0.210818	-1.633684	0.000019
H54	H	0.289182	-1.133684	0.500019
Br55	Br	0.029798	-1.045714	0.000028
Br56	Br	0.529798	-0.545714	0.500028
H57	H	0.377021	-1.157190	0.000009
H58	H	0.877021	-0.657190	0.500009
H59	H	0.245487	-1.460305	0.406221
H60	H	0.745487	-0.960305	0.906221
Br61	Br	-0.458972	-1.326236	-0.000021
Br62	Br	0.041028	-0.826236	0.499979
H63	H	0.033813	-1.630909	0.354172
H64	H	0.533813	-1.130909	0.854172
Br65	Br	-0.396242	-1.758745	-0.000009
Br66	Br	0.103758	-1.258745	0.499991
Br67	Br	-0.010735	-1.666874	0.687185
Br68	Br	0.489265	-1.166874	1.187185
Br69	Br	0.290058	-1.424424	0.552460
Br70	Br	0.790058	-0.924424	1.052460
H71	H	-0.219257	-1.338003	-0.000002
H72	H	0.280743	-0.838003	0.499998
H73	H	0.370627	-0.906351	-0.000008
H74	H	0.870627	-0.406351	0.499992
H75	H	0.086607	-0.925352	-0.000002
H76	H	0.586607	-0.425352	0.499998
