data_functionalizedCrystal
_audit_creation_method	'MofGen! by Chris Wilmer'
_symmetry_space_group_name_H-M	'P1'
_symmetry_Int_Tables_number	1
_symmetry_cell_setting	triclinic
loop_
_symmetry_equiv_pos_as_xyz
  x,y,z
_cell_length_a	17.699083
_cell_length_b	14.044220
_cell_length_c	16.776229
_cell_angle_alpha	89.992645
_cell_angle_beta	89.998886
_cell_angle_gamma	88.235946
loop_
_atom_site_label
_atom_site_type_symbol
_atom_site_fract_x
_atom_site_fract_y
_atom_site_fract_z
O1	O	1.012346	0.119850	-0.066178
O2	O	0.793043	0.135443	-0.066204
O3	O	0.899403	-0.010330	-0.066183
O4	O	0.905986	0.265624	-0.066198
O5	O	0.899387	-0.010339	0.066393
O6	O	0.793027	0.135434	0.066372
O7	O	1.012330	0.119841	0.066399
Zn8	Zn	0.902676	0.127636	0.087435
Zn9	Zn	0.902697	0.127648	-0.087240
O10	O	0.905970	0.265615	0.066378
C11	C	0.764800	0.134880	0.000081
C12	C	0.680666	0.133204	0.000071
C13	C	0.637948	0.218769	0.000067
C14	C	0.558895	0.217189	0.000077
C15	C	0.522563	0.130041	0.000086
C16	C	0.565287	0.044469	0.000093
C17	C	0.644338	0.046050	0.000088
C18	C	0.246484	0.038089	0.000113
C19	C	0.167427	0.036514	0.000115
C20	C	0.161041	0.209227	0.000102
C21	C	0.240092	0.210809	0.000097
C22	C	0.282809	0.125237	0.000108
C23	C	0.368527	0.126952	0.000098
C24	C	0.436847	0.128325	0.000090
C25	C	0.896513	-0.045643	0.000105
C26	C	0.887917	-0.150849	0.000105
C27	C	0.872202	-0.343474	0.000091
C28	C	0.933168	-0.401248	0.000096
C29	C	0.924424	-0.508431	0.000089
C30	C	0.880945	-0.236281	0.000099
C31	C	1.040574	0.120404	0.000112
C32	C	1.124707	0.122081	0.000117
C33	C	0.908860	0.300927	0.000088
C34	C	0.917456	0.406133	0.000083
N35	N	0.902667	0.127628	0.206646
N36	N	0.902712	0.127649	-0.206452
C37	C	0.949781	0.063106	0.248372
C38	C	0.949785	0.063105	0.331825
C39	C	0.902679	0.127631	0.373549
C40	C	0.855560	0.192156	0.331817
C41	C	0.855552	0.192152	0.248366
C42	C	0.855589	0.192175	0.668364
C43	C	0.855601	0.192176	0.751821
C44	C	0.949821	0.063128	0.751822
C45	C	0.949813	0.063123	0.668372
C46	C	0.902692	0.127645	0.626647
C47	C	0.902687	0.127644	0.536159
C48	C	0.902687	0.127638	0.464036
H49	H	0.535699	-0.026488	0.000112
H50	H	0.817187	0.244691	0.214394
H51	H	0.991930	-0.370212	0.000050
H52	H	0.988174	0.010583	0.634402
H53	H	0.813445	-0.374508	0.000082
O54	O	0.995563	0.000332	0.207968
C55	C	1.037160	-0.056601	0.262696
H56	H	1.006066	-0.057618	0.322186
H57	H	1.095452	-0.025916	0.271561
C58	C	1.084046	-0.157620	0.157077
C59	C	1.045852	-0.158876	0.230141
H60	H	1.089411	-0.220707	0.136994
H61	H	1.056024	-0.119261	0.120204
H62	H	1.132619	-0.132044	0.164473
H63	H	0.997277	-0.184440	0.222742
H64	H	1.073867	-0.197241	0.267012
H65	H	0.988148	0.010565	0.365798
O66	O	0.287859	-0.045120	0.000085
C67	C	0.238836	-0.122373	0.000112
H68	H	0.181551	-0.098178	-0.024991
H69	H	0.231408	-0.149095	0.063718
C70	C	0.343062	-0.233066	-0.021041
C71	C	0.272705	-0.203350	-0.051878
H72	H	0.363955	-0.283019	-0.053108
H73	H	0.376090	-0.181020	-0.021056
H74	H	0.336863	-0.255328	0.031964
H75	H	0.278907	-0.181078	-0.104878
H76	H	0.239679	-0.255395	-0.051873
O77	O	0.995520	0.000478	0.792479
C78	C	0.985441	0.014326	0.875082
H79	H	0.927667	0.049839	0.886484
H80	H	1.031481	0.061796	0.898753
C81	C	1.061241	-0.126260	0.903930
C82	C	0.990279	-0.082651	0.917935
H83	H	1.064229	-0.186079	0.930366
H84	H	1.068034	-0.135589	0.848279
H85	H	1.099600	-0.086692	0.923656
H86	H	0.951922	-0.122213	0.898201
H87	H	0.983480	-0.073331	0.973584
O88	O	0.809764	0.254891	0.792230
C89	C	0.768183	0.311853	0.737509
H90	H	0.764701	0.272997	0.678027
H91	H	0.797495	0.382225	0.728620
C92	C	0.692145	0.379224	0.843148
C93	C	0.687863	0.331497	0.770094
H94	H	0.642601	0.391346	0.863249
H95	H	0.720161	0.340851	0.880016
H96	H	0.716575	0.437862	0.835732
H97	H	0.663442	0.272855	0.777513
H98	H	0.659842	0.369861	0.733228
O99	O	0.809852	0.254771	0.627716
C100	C	0.819957	0.240957	0.545113
H101	H	0.843143	0.165558	0.533716
H102	H	0.861538	0.294532	0.521424
C103	C	0.715028	0.347953	0.516274
C104	C	0.743499	0.255344	0.502276
H105	H	0.667866	0.356832	0.489848
H106	H	0.708221	0.357264	0.571925
H107	H	0.749686	0.392588	0.496533
H108	H	0.708846	0.210711	0.522025
H109	H	0.750298	0.246026	0.446626
O110	O	0.673117	0.303509	0.000092
C111	C	0.618457	0.378692	0.000072
H112	H	0.563045	0.352244	0.025176
H113	H	0.609064	0.405081	-0.063533
C114	C	0.714348	0.493380	0.021223
C115	C	0.646292	0.460898	0.052063
H116	H	0.731518	0.544091	0.053290
H117	H	0.751174	0.442729	0.021234
H118	H	0.706511	0.515364	-0.031781
H119	H	0.654131	0.438903	0.105061
H120	H	0.609467	0.511547	0.052063
O121	O	0.517321	0.300248	-0.000041
C122	C	0.471415	0.304510	-0.068712
H123	H	0.462341	0.229292	-0.091589
H124	H	0.500306	0.347727	-0.116802
C125	C	0.405647	0.444776	-0.019761
C126	C	0.394497	0.352392	-0.047855
H127	H	0.358202	0.474315	-0.006898
H128	H	0.436576	0.441907	0.026502
H129	H	0.429725	0.480778	-0.059841
H130	H	0.370428	0.316388	-0.007773
H131	H	0.363562	0.355255	-0.094112
H132	H	0.817201	0.244692	0.365794
O133	O	0.119430	0.292267	0.000134
C134	C	0.041867	0.272192	0.000123
H135	H	0.033814	0.197759	0.025232
H136	H	0.019279	0.275837	-0.063479
C137	C	0.008420	0.437304	0.021270
C138	C	-0.001470	0.345888	0.052116
H139	H	-0.018314	0.482765	0.053338
H140	H	0.060676	0.450831	0.021275
H141	H	-0.010403	0.440328	-0.031731
H142	H	0.017361	0.342861	0.105112
H143	H	-0.053724	0.332362	0.052122
O144	O	0.685723	-0.037156	0.000053
C145	C	0.636706	-0.114415	0.000080
H146	H	0.579418	-0.090224	-0.025018
H147	H	0.629284	-0.141141	0.063686
C148	C	0.740938	-0.225095	-0.021083
C149	C	0.670578	-0.195386	-0.051915
H150	H	0.761833	-0.275044	-0.053152
H151	H	0.773963	-0.173045	-0.021098
H152	H	0.734743	-0.247360	0.031921
H153	H	0.676775	-0.173110	-0.104914
H154	H	0.637555	-0.247434	-0.051910
H155	H	0.269670	0.281773	0.000086
H156	H	0.137848	-0.034456	0.000124
