data_functionalizedCrystal
_audit_creation_method	'MofGen! by Chris Wilmer'
_symmetry_space_group_name_H-M	'P1'
_symmetry_Int_Tables_number	1
_symmetry_cell_setting	triclinic
loop_
_symmetry_equiv_pos_as_xyz
  x,y,z
_cell_length_a	17.699083
_cell_length_b	22.010155
_cell_length_c	23.532357
_cell_angle_alpha	90.001303
_cell_angle_beta	83.055654
_cell_angle_gamma	90.002416
loop_
_atom_site_label
_atom_site_type_symbol
_atom_site_fract_x
_atom_site_fract_y
_atom_site_fract_z
O1	O	1.003699	0.050447	0.072012
O2	O	1.337032	0.383781	0.405346
O3	O	1.670365	0.717114	0.738679
O4	O	0.783271	0.050468	0.081382
O5	O	1.116604	0.383802	0.414716
O6	O	1.449937	0.717135	0.748049
O7	O	0.900151	0.050445	-0.006217
O8	O	1.233485	0.383778	0.327116
O9	O	1.566818	0.717111	0.660450
O10	O	0.886818	0.050471	0.159612
O11	O	1.220151	0.383804	0.492945
O12	O	1.553485	0.717138	0.826279
O13	O	0.900130	-0.050606	-0.006204
O14	O	1.233464	0.282728	0.327129
O15	O	1.566797	0.616061	0.660463
O16	O	0.783249	-0.050582	0.081396
O17	O	1.116583	0.282751	0.414729
O18	O	1.449916	0.616085	0.748062
O19	O	1.003678	-0.050603	0.072025
O20	O	1.337011	0.282730	0.405359
O21	O	1.670344	0.616064	0.738692
Cu22	Cu	0.893462	-0.059819	0.076712
Cu23	Cu	1.226795	0.273514	0.410045
Cu24	Cu	1.560128	0.606847	0.743378
Cu25	Cu	0.893487	0.059685	0.076696
Cu26	Cu	1.226820	0.393018	0.410030
Cu27	Cu	1.560153	0.726351	0.743363
O28	O	0.886797	-0.050579	0.159625
O29	O	1.220130	0.282754	0.492958
O30	O	1.553463	0.616087	0.826292
C31	C	0.755065	-0.000054	0.081053
C32	C	1.088398	0.333279	0.414387
C33	C	1.421731	0.666612	0.747720
C34	C	0.671052	-0.000047	0.080046
C35	C	1.004385	0.333286	0.413379
C36	C	1.337719	0.666620	0.746713
N37	N	0.893449	-0.143872	0.076722
N38	N	1.226783	0.189462	0.410056
N39	N	1.560116	0.522795	0.743389
C40	C	0.622158	-0.000039	0.131465
C41	C	0.955491	0.333294	0.464799
C42	C	1.288825	0.666628	0.798132
C43	C	0.543220	-0.000047	0.130515
C44	C	0.876553	0.333286	0.463849
C45	C	1.209886	0.666620	0.797182
C46	C	0.513177	-0.000059	0.078146
C47	C	0.846510	0.333275	0.411479
C48	C	1.179844	0.666608	0.744812
C49	C	0.562077	-0.000068	0.026723
C50	C	0.895411	0.333265	0.360056
C51	C	1.228744	0.666598	0.693389
C52	C	0.641014	-0.000065	0.027673
C53	C	0.974348	0.333269	0.361006
C54	C	1.307681	0.666602	0.694340
C55	C	0.243735	-0.000084	0.022889
C56	C	0.577068	0.333249	0.356222
C57	C	0.910401	0.666583	0.689555
C58	C	0.164792	-0.000086	0.021942
C59	C	0.498125	0.333247	0.355276
C60	C	0.831458	0.666581	0.688609
C61	C	0.145940	-0.000066	0.125731
C62	C	0.479274	0.333267	0.459064
C63	C	0.812607	0.666600	0.792398
C64	C	0.224877	-0.000063	0.126681
C65	C	0.558210	0.333271	0.460015
C66	C	0.891544	0.666604	0.793348
C67	C	0.273770	-0.000076	0.075259
C68	C	0.607104	0.333258	0.408592
C69	C	0.940437	0.666591	0.741925
C70	C	0.359364	-0.000068	0.076289
C71	C	0.692697	0.333265	0.409622
C72	C	1.026031	0.666599	0.742956
C73	C	0.427585	-0.000062	0.077115
C74	C	0.760918	0.333271	0.410448
C75	C	1.094252	0.666605	0.743781
C76	C	0.945244	-0.563661	0.037913
C77	C	1.278578	-0.230328	0.371246
C78	C	1.611911	0.103005	0.704579
C79	C	0.945248	-0.627269	0.037909
C80	C	1.278581	-0.293936	0.371242
C81	C	1.611915	0.039398	0.704575
O82	O	0.989255	-0.660169	0.004919
O83	O	1.322589	-0.326836	0.338252
O84	O	1.655922	0.006497	0.671585
N85	N	0.893486	-0.659079	0.076684
N86	N	1.226820	-0.325745	0.410018
N87	N	1.560153	0.007588	0.743351
C88	C	0.841713	-0.627278	0.115462
C89	C	1.175046	-0.293944	0.448796
C90	C	1.508379	0.039389	0.782129
O91	O	0.797685	-0.660175	0.148443
O92	O	1.131018	-0.326842	0.481777
O93	O	1.464352	0.006492	0.815110
C94	C	0.841706	-0.563671	0.115463
C95	C	1.175039	-0.230338	0.448797
C96	C	1.508373	0.102996	0.782130
C97	C	0.893476	-0.531865	0.076689
C98	C	1.226810	-0.198531	0.410022
C99	C	1.560143	0.134802	0.743356
C100	C	0.997010	-0.531855	-0.000859
C101	C	1.330343	-0.198522	0.332474
C102	C	1.663676	0.134812	0.665808
C103	C	0.997007	-0.468252	-0.000854
C104	C	1.330340	-0.134918	0.332479
C105	C	1.663674	0.198415	0.665812
C106	C	0.945239	-0.436455	0.037922
C107	C	1.278572	-0.103122	0.371255
C108	C	1.611905	0.230212	0.704589
C109	C	0.893473	-0.468262	0.076694
C110	C	1.226807	-0.134928	0.410027
C111	C	1.560140	0.198405	0.743360
C112	C	0.789929	-0.531871	0.154238
C113	C	1.123263	-0.198538	0.487572
C114	C	1.456596	0.134796	0.820905
C115	C	0.789927	-0.468260	0.154235
C116	C	1.123260	-0.134927	0.487569
C117	C	1.456594	0.198406	0.820902
C118	C	0.841697	-0.436454	0.115461
C119	C	1.175030	-0.103121	0.448794
C120	C	1.508364	0.230213	0.782128
C121	C	0.841702	-0.372862	0.115475
C122	C	1.175036	-0.039528	0.448808
C123	C	1.508369	0.293805	0.782141
N124	N	0.893464	-0.341052	0.076699
N125	N	1.226797	-0.007719	0.410033
N126	N	1.560131	0.325615	0.743366
C127	C	0.945232	-0.372849	0.037923
C128	C	1.278566	-0.039515	0.371256
C129	C	1.611899	0.293818	0.704590
C130	C	0.841729	-0.760855	0.115457
C131	C	1.175063	-0.427522	0.448791
C132	C	1.508396	-0.094189	0.782124
C133	C	0.841739	-0.824461	0.115460
C134	C	1.175072	-0.491127	0.448793
C135	C	1.508406	-0.157794	0.782126
C136	C	0.945274	-0.824448	0.037905
C137	C	1.278607	-0.491114	0.371238
C138	C	1.611940	-0.157781	0.704572
C139	C	0.945267	-0.760841	0.037906
C140	C	1.278600	-0.427508	0.371239
C141	C	1.611934	-0.094175	0.704572
C142	C	0.893491	-0.729046	0.076682
C143	C	1.226824	-0.395712	0.410015
C144	C	1.560158	-0.062379	0.743348
C145	C	0.945223	-0.239277	0.037936
C146	C	1.278556	0.094056	0.371270
C147	C	1.611890	0.427389	0.704603
C148	C	0.945218	-0.175668	0.037946
C149	C	1.278551	0.157665	0.371279
C150	C	1.611884	0.490998	0.704613
C151	C	0.841681	-0.175687	0.115498
C152	C	1.175014	0.157646	0.448832
C153	C	1.508347	0.490980	0.782165
C154	C	0.841688	-0.239290	0.115491
C155	C	1.175022	0.094043	0.448824
C156	C	1.508355	0.427377	0.782158
C157	C	0.893462	-0.271084	0.076705
C158	C	1.226796	0.062250	0.410038
C159	C	1.560129	0.395583	0.743372
O160	O	0.797715	-0.339921	0.148446
O161	O	1.131049	-0.006588	0.481780
O162	O	1.464382	0.326746	0.815113
O163	O	0.989246	-0.339944	0.004942
O164	O	1.322579	-0.006610	0.338276
O165	O	1.655912	0.326723	0.671609
C166	C	1.031883	-0.000079	0.072355
C167	C	1.365217	0.333254	0.405688
C168	C	1.698550	0.666588	0.739021
C169	C	1.115896	-0.000082	0.073362
C170	C	1.449229	0.333251	0.406695
C171	C	1.782563	0.666584	0.740029
C172	C	0.899807	-0.000082	-0.027428
C173	C	1.233141	0.333251	0.305905
C174	C	1.566474	0.666584	0.639239
C175	C	0.898805	-0.000088	-0.090650
C176	C	1.232138	0.333245	0.242684
C177	C	1.565471	0.666579	0.576017
N178	N	0.893505	0.143737	0.076681
N179	N	1.226838	0.477070	0.410014
N180	N	1.560171	0.810404	0.743348
C181	C	0.892521	0.055028	-0.482686
C182	C	1.225855	0.388361	-0.149353
C183	C	1.559188	0.721695	0.183981
C184	C	0.891568	0.055032	-0.542088
C185	C	1.224901	0.388365	-0.208755
C186	C	1.558235	0.721698	0.124578
O187	O	0.891059	0.101877	-0.572812
O188	O	1.224393	0.435211	-0.239479
O189	O	1.557726	0.768544	0.093854
N190	N	0.891084	-0.000050	-0.571794
N191	N	1.224417	0.333283	-0.238460
N192	N	1.557750	0.666616	0.094873
C193	C	0.891545	-0.055139	-0.542093
C194	C	1.224878	0.278194	-0.208760
C195	C	1.558212	0.611528	0.124574
O196	O	0.891045	-0.101990	-0.572814
O197	O	1.224378	0.231343	-0.239481
O198	O	1.557712	0.564677	0.093852
C199	C	0.892493	-0.055142	-0.482691
C200	C	1.225826	0.278191	-0.149358
C201	C	1.559159	0.611525	0.183975
C202	C	0.892985	-0.000057	-0.452990
C203	C	1.226318	0.333277	-0.119657
C204	C	1.559651	0.666610	0.213677
C205	C	0.893012	0.110109	-0.452984
C206	C	1.226346	0.443442	-0.119651
C207	C	1.559679	0.776776	0.213682
C208	C	0.893967	0.110105	-0.393586
C209	C	1.227300	0.443438	-0.060253
C210	C	1.560633	0.776772	0.273080
C211	C	0.894430	0.055020	-0.363890
C212	C	1.227764	0.388354	-0.030557
C213	C	1.561097	0.721687	0.302776
C214	C	0.893939	-0.000060	-0.393592
C215	C	1.227273	0.333273	-0.060259
C216	C	1.560606	0.666606	0.273075
C217	C	0.892949	-0.110230	-0.452991
C218	C	1.226282	0.223103	-0.119658
C219	C	1.559615	0.556436	0.213675
C220	C	0.893896	-0.110228	-0.393586
C221	C	1.227229	0.223105	-0.060252
C222	C	1.560563	0.556438	0.273081
C223	C	0.894388	-0.055143	-0.363884
C224	C	1.227721	0.278190	-0.030551
C225	C	1.561054	0.611524	0.302783
C226	C	0.895357	-0.055149	-0.304498
C227	C	1.228691	0.278184	0.028836
C228	C	1.562024	0.611518	0.362169
N229	N	0.895842	-0.000067	-0.274792
N230	N	1.229175	0.333266	0.058541
N231	N	1.562508	0.666600	0.391874
C232	C	0.895378	0.055018	-0.304489
C233	C	1.228711	0.388351	0.028845
C234	C	1.562045	0.721684	0.362178
C235	C	0.889553	-0.055129	-0.666840
C236	C	1.222887	0.278205	-0.333507
C237	C	1.556220	0.611538	-0.000174
C238	C	0.888611	-0.055126	-0.726241
C239	C	1.221945	0.278207	-0.392908
C240	C	1.555278	0.611540	-0.059575
C241	C	0.888633	0.055044	-0.726232
C242	C	1.221966	0.388378	-0.392899
C243	C	1.555299	0.721711	-0.059566
C244	C	0.889581	0.055042	-0.666831
C245	C	1.222914	0.388375	-0.333497
C246	C	1.556247	0.721708	-0.000164
C247	C	0.890038	-0.000047	-0.637135
C248	C	1.223371	0.333286	-0.303802
C249	C	1.556704	0.666620	0.029532
C250	C	0.897383	0.055005	-0.179749
C251	C	1.230717	0.388339	0.153585
C252	C	1.564050	0.721672	0.486918
C253	C	0.898341	0.054997	-0.120346
C254	C	1.231674	0.388330	0.212988
C255	C	1.565008	0.721663	0.546321
C256	C	0.898315	-0.055174	-0.120360
C257	C	1.231649	0.278160	0.212974
C258	C	1.564982	0.611493	0.546307
C259	C	0.897362	-0.055165	-0.179758
C260	C	1.230695	0.278168	0.153576
C261	C	1.564028	0.611501	0.486909
C262	C	0.896893	-0.000071	-0.209451
C263	C	1.230226	0.333262	0.123883
C264	C	1.563560	0.666596	0.457216
O265	O	0.895864	-0.101971	-0.273736
O266	O	1.229197	0.231363	0.059598
O267	O	1.562530	0.564696	0.392931
O268	O	0.895868	0.101861	-0.273759
O269	O	1.229202	0.435194	0.059574
O270	O	1.562535	0.768527	0.392908
C271	C	0.887141	-0.000051	0.180836
C272	C	1.220474	0.333282	0.514169
C273	C	1.553808	0.666616	0.847503
C274	C	0.888144	-0.000041	0.244058
C275	C	1.221477	0.333292	0.577391
C276	C	1.554810	0.666625	0.910724
H277	H	0.503413	-0.000040	0.172386
H278	H	0.836746	0.333293	0.505719
H279	H	1.170079	0.666627	0.839053
C280	C	0.681398	0.051872	-0.060506
C281	C	1.014731	0.385206	0.272827
C282	C	1.348065	0.718539	0.606161
C283	C	0.694764	-0.000069	-0.028847
C284	C	1.028098	0.333265	0.304486
C285	C	1.361431	0.666598	0.637819
H286	H	0.714585	0.051869	-0.095398
H287	H	1.047918	0.385202	0.237935
H288	H	1.381252	0.718536	0.571269
H289	H	0.630094	0.051864	-0.068567
H290	H	0.963427	0.385198	0.264766
H291	H	1.296761	0.718531	0.598100
H292	H	0.690463	0.087110	-0.039025
H293	H	1.023796	0.420444	0.294308
H294	H	1.357130	0.753777	0.627642
H295	H	0.685694	-0.035307	-0.050327
H296	H	1.019027	0.298026	0.283007
H297	H	1.352361	0.631360	0.616340
H298	H	0.746080	-0.000066	-0.020788
H299	H	1.079414	0.333267	0.312546
H300	H	1.412747	0.666600	0.645879
H301	H	0.537611	-0.000087	-0.015918
H302	H	0.870944	0.333247	0.317416
H303	H	1.204277	0.666580	0.650749
H304	H	0.889980	0.099897	-0.642652
H305	H	1.223313	0.433230	-0.309318
H306	H	1.556647	0.766564	0.024015
H307	H	0.987425	-0.850348	0.006330
H308	H	1.320758	-0.517015	0.339664
H309	H	1.654092	-0.183682	0.672997
C310	C	0.824691	-0.689332	0.192994
C311	C	1.158024	-0.355999	0.526328
C312	C	1.491357	-0.022666	0.859661
C313	C	0.784823	-0.725907	0.158091
C314	C	1.118156	-0.392574	0.491425
C315	C	1.451489	-0.059241	0.824758
H316	H	0.789558	-0.667758	0.219312
H317	H	1.122891	-0.334424	0.552645
H318	H	1.456224	-0.001091	0.885978
H319	H	0.856034	-0.714145	0.213444
H320	H	1.189368	-0.380811	0.546777
H321	H	1.522701	-0.047478	0.880110
H322	H	0.855509	-0.661283	0.169897
H323	H	1.188843	-0.327950	0.503231
H324	H	1.522176	0.005384	0.836564
H325	H	0.754008	-0.753960	0.181188
H326	H	1.087341	-0.420627	0.514522
H327	H	1.420675	-0.087293	0.847855
H328	H	0.753466	-0.701093	0.137640
H329	H	1.086799	-0.367760	0.470974
H330	H	1.420133	-0.034427	0.804307
C331	C	1.047565	-0.232858	-0.038721
C332	C	1.380898	0.100475	0.294612
C333	C	1.714232	0.433809	0.627945
C334	C	1.002134	-0.274218	-0.004697
C335	C	1.335468	0.059115	0.328637
C336	C	1.668801	0.392448	0.661970
H337	H	1.082703	-0.254430	-0.065037
H338	H	1.416036	0.078903	0.268296
H339	H	1.749370	0.412236	0.601630
H340	H	1.016217	-0.208052	-0.059173
H341	H	1.349551	0.125281	0.274160
H342	H	1.682884	0.458615	0.607494
H343	H	1.074595	-0.208048	-0.015028
H344	H	1.407928	0.125285	0.318305
H345	H	1.741262	0.458619	0.651638
H346	H	0.975100	-0.299026	-0.028389
H347	H	1.308433	0.034308	0.304944
H348	H	1.641766	0.367641	0.638277
H349	H	1.033486	-0.299035	0.015756
H350	H	1.366819	0.034298	0.349090
H351	H	1.700153	0.367632	0.682423
C352	C	0.337511	-0.000031	0.174222
C353	C	0.670844	0.333302	0.507555
C354	C	1.004177	0.666636	0.840889
C355	C	0.257900	-0.000039	0.184247
C356	C	0.591233	0.333294	0.517580
C357	C	0.924567	0.666628	0.850914
H358	H	0.357895	-0.000011	0.209762
H359	H	0.691228	0.333322	0.543095
H360	H	1.024562	0.666656	0.876429
H361	H	0.354318	-0.035273	0.153069
H362	H	0.687652	0.298060	0.486403
H363	H	1.020985	0.631394	0.819736
H364	H	0.354309	0.035204	0.153044
H365	H	0.687643	0.368538	0.486377
H366	H	1.020976	0.701871	0.819710
H367	H	0.241101	-0.035277	0.205422
H368	H	0.574434	0.298057	0.538755
H369	H	0.907768	0.631390	0.872089
H370	H	0.241085	0.035207	0.205409
H371	H	0.574419	0.368540	0.538742
H372	H	0.907752	0.701873	0.872075
C373	C	1.099335	-0.474648	-0.077517
C374	C	1.432669	-0.141315	0.255816
C375	C	1.766002	0.192019	0.589149
C376	C	1.053906	-0.433296	-0.043483
C377	C	1.387240	-0.099962	0.289850
C378	C	1.720573	0.233371	0.623183
H379	H	1.134459	-0.453069	-0.103840
H380	H	1.467792	-0.119736	0.229494
H381	H	1.801126	0.213598	0.562827
H382	H	1.126375	-0.499450	-0.053836
H383	H	1.459708	-0.166117	0.279498
H384	H	1.793042	0.167216	0.612831
H385	H	1.067979	-0.499462	-0.097967
H386	H	1.401313	-0.166129	0.235367
H387	H	1.734646	0.167205	0.568700
H388	H	1.085262	-0.408484	-0.023031
H389	H	1.418595	-0.075151	0.310303
H390	H	1.751929	0.258182	0.643636
H391	H	1.026865	-0.408483	-0.067168
H392	H	1.360198	-0.075149	0.266165
H393	H	1.693531	0.258184	0.599498
C394	C	1.014070	-0.603375	-0.078398
C395	C	1.347404	-0.270042	0.254935
C396	C	1.680737	0.063292	0.588268
C397	C	1.053922	-0.566798	-0.043486
C398	C	1.387256	-0.233465	0.289847
C399	C	1.720589	0.099869	0.623180
H400	H	1.049213	-0.624940	-0.104716
H401	H	1.382546	-0.291607	0.228617
H402	H	1.715879	0.041726	0.561950
H403	H	0.983256	-0.631427	-0.055312
H404	H	1.316589	-0.298094	0.278022
H405	H	1.649923	0.035240	0.611355
H406	H	0.982724	-0.578560	-0.098852
H407	H	1.316057	-0.245227	0.234481
H408	H	1.649390	0.088106	0.567815
H409	H	1.085265	-0.591613	-0.023029
H410	H	1.418598	-0.258280	0.310304
H411	H	1.751932	0.075053	0.643637
H412	H	1.084750	-0.538743	-0.066576
H413	H	1.418083	-0.205410	0.266757
H414	H	1.751416	0.127924	0.600091
H415	H	0.894365	0.154961	-0.369408
H416	H	1.227698	0.488295	-0.036075
H417	H	1.561031	0.821628	0.297258
C418	C	1.047604	-0.767232	-0.038752
C419	C	1.380937	-0.433899	0.294581
C420	C	1.714270	-0.100566	0.627914
C421	C	1.002168	-0.725883	-0.004720
C422	C	1.335501	-0.392550	0.328613
C423	C	1.668834	-0.059216	0.661946
H424	H	1.082729	-0.745651	-0.065072
H425	H	1.416062	-0.412318	0.268262
H426	H	1.749395	-0.078985	0.601595
H427	H	1.074642	-0.792034	-0.015069
H428	H	1.407976	-0.458701	0.318265
H429	H	1.741309	-0.125367	0.651598
H430	H	1.016253	-0.792048	-0.059205
H431	H	1.349586	-0.458714	0.274129
H432	H	1.682920	-0.125381	0.607462
H433	H	1.033518	-0.701070	0.015735
H434	H	1.366852	-0.367737	0.349069
H435	H	1.700185	-0.034404	0.682402
H436	H	0.975127	-0.701071	-0.028407
H437	H	1.308461	-0.367737	0.304926
H438	H	1.641794	-0.034404	0.638260
H439	H	0.799591	-0.850353	0.147039
H440	H	1.132924	-0.517020	0.480373
H441	H	1.466257	-0.183686	0.813706
H442	H	0.747773	-0.557759	0.185811
H443	H	1.081106	-0.224426	0.519145
H444	H	1.414440	0.108908	0.852478
H445	H	0.888253	0.099897	-0.750422
H446	H	1.221586	0.433231	-0.417088
H447	H	1.554919	0.766564	-0.083755
H448	H	0.889928	-0.099991	-0.642666
H449	H	1.223261	0.233342	-0.309333
H450	H	1.556595	0.566676	0.024001
C451	C	0.687584	-0.474667	0.230894
C452	C	1.020917	-0.141334	0.564227
C453	C	1.354251	0.192000	0.897560
C454	C	0.733016	-0.433312	0.196863
C455	C	1.066349	-0.099978	0.530197
C456	C	1.399682	0.233355	0.863530
H457	H	0.652455	-0.453091	0.257213
H458	H	0.985788	-0.119757	0.590546
H459	H	1.319122	0.213576	0.923879
H460	H	0.660550	-0.499474	0.207209
H461	H	0.993884	-0.166140	0.540542
H462	H	1.327217	0.167193	0.873875
H463	H	0.718938	-0.499477	0.251346
H464	H	1.052271	-0.166144	0.584679
H465	H	1.385604	0.167190	0.918013
H466	H	0.701662	-0.408505	0.176408
H467	H	1.034996	-0.075171	0.509741
H468	H	1.368329	0.258162	0.843074
H469	H	0.760051	-0.408495	0.220552
H470	H	1.093385	-0.075161	0.553885
H471	H	1.426718	0.258172	0.887218
C472	C	0.739338	-0.182073	0.192157
C473	C	1.072671	0.151260	0.525490
C474	C	1.406004	0.484594	0.858823
C475	C	0.784778	-0.140728	0.158121
C476	C	1.118112	0.192605	0.491454
C477	C	1.451445	0.525938	0.824787
H478	H	0.704210	-0.160489	0.218470
H479	H	1.037543	0.172845	0.551803
H480	H	1.370877	0.506178	0.885137
H481	H	0.712302	-0.206882	0.168475
H482	H	1.045636	0.126451	0.501808
H483	H	1.378969	0.459784	0.835141
H484	H	0.770685	-0.206881	0.212616
H485	H	1.104018	0.126452	0.545949
H486	H	1.437352	0.459786	0.879282
H487	H	0.753431	-0.115923	0.137658
H488	H	1.086765	0.217410	0.470992
H489	H	1.420098	0.550744	0.804325
H490	H	0.811815	-0.115908	0.181806
H491	H	1.145149	0.217425	0.515139
H492	H	1.478482	0.550758	0.848472
C493	C	0.888684	-0.164024	-0.720269
C494	C	1.222018	0.169309	-0.386935
C495	C	1.555351	0.502643	-0.053602
C496	C	0.888077	-0.115678	-0.758886
C497	C	1.221410	0.217655	-0.425553
C498	C	1.554744	0.550989	-0.092219
H499	H	0.888347	-0.201406	-0.740421
H500	H	1.221680	0.131927	-0.407088
H501	H	1.555013	0.465260	-0.073754
H502	H	0.933197	-0.161736	-0.701511
H503	H	1.266530	0.171597	-0.368177
H504	H	1.599864	0.504931	-0.034844
H505	H	0.844912	-0.161721	-0.692690
H506	H	1.178245	0.171612	-0.359356
H507	H	1.511579	0.504946	-0.026023
H508	H	0.931853	-0.117978	-0.786463
H509	H	1.265186	0.215355	-0.453129
H510	H	1.598519	0.548688	-0.119796
H511	H	0.843560	-0.117967	-0.777653
H512	H	1.176893	0.215366	-0.444320
H513	H	1.510226	0.548700	-0.110987
C514	C	0.738599	-0.310830	0.127939
C515	C	1.071933	0.022503	0.461272
C516	C	1.405266	0.355836	0.794606
C517	C	0.784789	-0.274260	0.158112
C518	C	1.118122	0.059073	0.491446
C519	C	1.451456	0.392406	0.824779
H520	H	0.703472	-0.332419	0.154250
H521	H	1.036806	0.000914	0.487583
H522	H	1.370139	0.334247	0.820917
H523	H	0.711563	-0.286013	0.104267
H524	H	1.044897	0.047320	0.437600
H525	H	1.378230	0.380654	0.770933
H526	H	0.769439	-0.338867	0.104844
H527	H	1.102772	-0.005534	0.438177
H528	H	1.436105	0.327799	0.771510
H529	H	0.753950	-0.246220	0.181204
H530	H	1.087283	0.087113	0.514538
H531	H	1.420616	0.420446	0.847871
H532	H	0.811827	-0.299080	0.181794
H533	H	1.145160	0.034253	0.515128
H534	H	1.478494	0.367587	0.848461
H535	H	0.898743	0.099856	-0.096166
H536	H	1.232077	0.433189	0.237168
H537	H	1.565410	0.766522	0.570501
H538	H	0.896968	-0.100020	-0.203943
H539	H	1.230302	0.233313	0.129391
H540	H	1.563635	0.566646	0.462724
C541	C	0.135236	-0.000040	0.228424
C542	C	0.468569	0.333294	0.561757
C543	C	0.801902	0.666627	0.895090
C544	C	0.092195	-0.000057	0.182258
C545	C	0.425528	0.333277	0.515591
C546	C	0.758861	0.666610	0.848925
H547	H	0.102055	-0.000028	0.263319
H548	H	0.435389	0.333305	0.596653
H549	H	0.768722	0.666639	0.929986
H550	H	0.166414	-0.035275	0.226642
H551	H	0.499747	0.298059	0.559975
H552	H	0.833080	0.631392	0.893309
H553	H	0.166419	0.035202	0.226622
H554	H	0.499752	0.368536	0.559956
H555	H	0.833085	0.701869	0.893289
H556	H	0.061015	-0.035301	0.184057
H557	H	0.394349	0.298032	0.517390
H558	H	0.727682	0.631365	0.850724
H559	H	0.061003	0.035182	0.184040
H560	H	0.394337	0.368516	0.517374
H561	H	0.727670	0.701849	0.850707
C562	C	0.826891	0.174053	-0.513279
C563	C	1.160225	0.507386	-0.179946
C564	C	1.493558	0.840720	0.153388
C565	C	0.892506	0.170666	-0.485620
C566	C	1.225839	0.503999	-0.152286
C567	C	1.559172	0.837332	0.181047
H568	H	0.826583	0.211443	-0.533421
H569	H	1.159916	0.544776	-0.200087
H570	H	1.493249	0.878110	0.133246
H571	H	0.826470	0.141260	-0.539476
H572	H	1.159803	0.474593	-0.206143
H573	H	1.493137	0.807926	0.127191
H574	H	0.783122	0.171763	-0.485696
H575	H	1.116455	0.505097	-0.152363
H576	H	1.449789	0.838430	0.180971
H577	H	0.936275	0.172951	-0.513203
H578	H	1.269609	0.506284	-0.179870
H579	H	1.602942	0.839617	0.153463
H580	H	0.892934	0.203468	-0.459420
H581	H	1.226267	0.536801	-0.126087
H582	H	1.559601	0.870135	0.207246
H583	H	0.892549	-0.155087	-0.477164
H584	H	1.225883	0.178247	-0.143831
H585	H	1.559216	0.511580	0.189502
C586	C	0.699981	0.051928	0.192744
C587	C	1.033314	0.385261	0.526077
C588	C	1.366648	0.718595	0.859411
C589	C	0.655174	-0.000023	0.189033
C590	C	0.988508	0.333310	0.522367
C591	C	1.321841	0.666644	0.855700
H592	H	0.720357	0.051938	0.228287
H593	H	1.053690	0.385271	0.561620
H594	H	1.387024	0.718604	0.894954
H595	H	0.740398	0.051920	0.162262
H596	H	1.073731	0.385253	0.495595
H597	H	1.407064	0.718586	0.828929
H598	H	0.669570	0.087159	0.190208
H599	H	1.002903	0.420493	0.523542
H600	H	1.336237	0.753826	0.856875
H601	H	0.685587	-0.035255	0.191565
H602	H	1.018920	0.298079	0.524898
H603	H	1.352254	0.631412	0.858231
H604	H	0.614752	-0.000020	0.219524
H605	H	0.948086	0.333313	0.552857
H606	H	1.281419	0.666646	0.886190
H607	H	0.896998	0.099869	-0.203917
H608	H	1.230331	0.433202	0.129416
H609	H	1.563665	0.766535	0.462749
H610	H	0.987378	-0.149774	0.006371
H611	H	1.320711	0.183560	0.339705
H612	H	1.654044	0.516893	0.673038
C613	C	0.893757	-0.219129	-0.399564
C614	C	1.227090	0.114205	-0.066230
C615	C	1.560423	0.447538	0.267103
C616	C	0.894392	-0.170785	-0.360944
C617	C	1.227725	0.162548	-0.027611
C618	C	1.561058	0.495881	0.305722
H619	H	0.894065	-0.256512	-0.379412
H620	H	1.227399	0.076821	-0.046079
H621	H	1.560732	0.410154	0.287255
H622	H	0.849249	-0.216823	-0.418325
H623	H	1.182582	0.116511	-0.084992
H624	H	1.515915	0.449844	0.248342
H625	H	0.937534	-0.216841	-0.427139
H626	H	1.270867	0.116492	-0.093806
H627	H	1.604201	0.449826	0.239527
H628	H	0.850611	-0.173070	-0.333371
H629	H	1.183945	0.160263	-0.000037
H630	H	1.517278	0.493596	0.333296
H631	H	0.938904	-0.173092	-0.342173
H632	H	1.272238	0.160241	-0.008840
H633	H	1.605571	0.493574	0.324493
C634	C	0.899754	-0.104085	-0.029299
C635	C	1.233087	0.229249	0.304034
C636	C	1.566420	0.562582	0.637368
C637	C	0.898820	-0.115721	-0.087709
C638	C	1.232153	0.217612	0.245624
C639	C	1.565486	0.550946	0.578958
H640	H	0.900056	-0.141465	-0.009141
H641	H	1.233389	0.191868	0.324192
H642	H	1.566722	0.525202	0.657525
H643	H	0.944057	-0.081465	-0.023976
H644	H	1.277391	0.251869	0.309358
H645	H	1.610724	0.585202	0.642691
H646	H	0.855772	-0.081440	-0.015166
H647	H	1.189105	0.251893	0.318168
H648	H	1.522439	0.585226	0.651501
H649	H	0.942804	-0.138362	-0.101843
H650	H	1.276138	0.194972	0.231490
H651	H	1.609471	0.528305	0.564824
H652	H	0.854511	-0.138351	-0.093036
H653	H	1.187844	0.194983	0.240297
H654	H	1.521178	0.528316	0.573631
H655	H	0.140335	-0.000096	-0.020706
H656	H	0.473668	0.333237	0.312627
H657	H	0.807002	0.666570	0.645961
H658	H	0.283535	-0.000095	-0.018983
H659	H	0.616868	0.333238	0.314350
H660	H	0.950202	0.666572	0.647684
