data_functionalizedCrystal
_audit_creation_method	'MofGen! by Chris Wilmer'
_symmetry_space_group_name_H-M	'P1'
_symmetry_Int_Tables_number	1
_symmetry_cell_setting	triclinic
loop_
_symmetry_equiv_pos_as_xyz
  x,y,z
_cell_length_a	16.120530
_cell_length_b	25.639239
_cell_length_c	16.120297
_cell_angle_alpha	92.868703
_cell_angle_beta	90.128140
_cell_angle_gamma	87.134054
loop_
_atom_site_label
_atom_site_type_symbol
_atom_site_fract_x
_atom_site_fract_y
_atom_site_fract_z
Zn1	Zn	1.247330	-0.264883	-0.534536
Zn2	Zn	1.747330	0.235117	-0.034536
Zn3	Zn	1.254246	-0.348114	-0.395469
Zn4	Zn	1.754246	0.151886	0.104531
Zn5	Zn	1.115324	-0.256048	-0.388455
Zn6	Zn	1.615324	0.243952	0.111545
Zn7	Zn	1.108202	-0.347633	-0.527439
Zn8	Zn	1.608202	0.152367	-0.027439
O9	O	1.181275	-0.304170	-0.461475
O10	O	1.681275	0.195830	0.038525
O11	O	1.364612	-0.279823	-0.521994
O12	O	1.864612	0.220177	-0.021994
O13	O	1.241692	-0.332406	-0.278174
O14	O	1.741692	0.167594	0.221826
O15	O	1.132921	-0.184058	-0.407868
O16	O	1.632921	0.315942	0.092132
O17	O	1.369693	-0.340973	-0.419823
O18	O	1.869693	0.159027	0.080177
O19	O	1.229905	-0.190549	-0.515193
O20	O	1.729905	0.309451	-0.015193
O21	O	1.139627	-0.264765	-0.273020
O22	O	1.639627	0.235235	0.226980
O23	O	0.998015	-0.264298	-0.400986
O24	O	1.498015	0.235702	0.099014
O25	O	1.120783	-0.340152	-0.644745
O26	O	1.620783	0.159848	-0.144745
O27	O	0.992782	-0.331585	-0.503096
O28	O	1.492782	0.168415	-0.003096
O29	O	1.223000	-0.279356	-0.649960
O30	O	1.723000	0.220644	-0.149960
O31	O	1.234787	-0.421212	-0.412941
O32	O	1.734787	0.078788	0.087059
O33	O	1.127489	-0.420858	-0.509898
O34	O	1.627489	0.079142	-0.009898
C35	C	0.965226	-0.296931	-0.450510
C36	C	1.465226	0.203069	0.049490
C37	C	0.872799	-0.293847	-0.445839
C38	C	1.372799	0.206153	0.054161
C39	C	1.181138	-0.440006	-0.461430
C40	C	1.681138	0.059994	0.038570
C41	C	1.181153	-0.498121	-0.461442
C42	C	1.681153	0.001879	0.038558
C43	C	0.703571	-0.288206	-0.437318
C44	C	1.203571	0.211794	0.062682
C45	C	0.659817	-0.320174	-0.485692
C46	C	1.159817	0.179826	0.014308
C47	C	0.565653	-0.317035	-0.480951
C48	C	1.065653	0.182965	0.019049
C49	C	0.797744	-0.291344	-0.442058
C50	C	1.297744	0.208656	0.057942
C51	C	1.237279	-0.858668	-0.411087
C52	C	1.737279	-0.358668	0.088913
C53	C	1.237311	-0.913274	-0.411099
C54	C	1.737311	-0.413274	0.088901
O55	O	1.284889	-0.941661	-0.368236
O56	O	1.784889	-0.441661	0.131764
N57	N	1.181419	-0.940415	-0.461537
N58	N	1.681419	-0.440415	0.038463
C59	C	1.125497	-0.912948	-0.511972
C60	C	1.625497	-0.412948	-0.011972
O61	O	1.077960	-0.941048	-0.554875
O62	O	1.577960	-0.441048	-0.054875
C63	C	1.125470	-0.858344	-0.511963
C64	C	1.625470	-0.358344	-0.011963
C65	C	1.181360	-0.831205	-0.461515
C66	C	1.681360	-0.331205	0.038485
C67	C	1.293166	-0.831529	-0.360644
C68	C	1.793166	-0.331529	0.139356
C69	C	1.293133	-0.776927	-0.360630
C70	C	1.793133	-0.276927	0.139370
C71	C	1.237214	-0.749464	-0.411059
C72	C	1.737214	-0.249464	0.088941
C73	C	1.181327	-0.776603	-0.461502
C74	C	1.681327	-0.276603	0.038498
C75	C	1.069553	-0.830878	-0.562401
C76	C	1.569553	-0.330878	-0.062401
C77	C	1.069531	-0.776270	-0.562388
C78	C	1.569531	-0.276270	-0.062388
C79	C	1.125421	-0.749131	-0.511941
C80	C	1.625421	-0.249131	-0.011941
C81	C	1.125375	-0.694538	-0.511917
C82	C	1.625375	-0.194538	-0.011917
N83	N	1.181267	-0.667396	-0.461479
N84	N	1.681267	-0.167396	0.038521
C85	C	1.237187	-0.694860	-0.411050
C86	C	1.737187	-0.194860	0.088950
C87	C	1.125559	-1.027621	-0.511988
C88	C	1.625559	-0.527621	-0.011988
C89	C	1.125581	-1.082224	-0.511993
C90	C	1.625581	-0.582224	-0.011993
C91	C	1.237397	-1.082546	-0.411121
C92	C	1.737397	-0.582546	0.088879
C93	C	1.237370	-1.027942	-0.411113
C94	C	1.737370	-0.527942	0.088887
C95	C	1.181451	-1.000480	-0.461550
C96	C	1.681451	-0.500480	0.038450
C97	C	1.237113	-0.580191	-0.411025
C98	C	1.737113	-0.080191	0.088975
C99	C	1.237072	-0.525584	-0.411013
C100	C	1.737072	-0.025584	0.088987
C101	C	1.125260	-0.525267	-0.511887
C102	C	1.625260	-0.025267	-0.011887
C103	C	1.125297	-0.579869	-0.511896
C104	C	1.625297	-0.079869	-0.011896
C105	C	1.181230	-0.607330	-0.461463
C106	C	1.681230	-0.107330	0.038537
O107	O	1.077824	-0.666116	-0.554760
O108	O	1.577824	-0.166116	-0.054760
O109	O	1.284723	-0.666754	-0.368163
O110	O	1.784723	-0.166754	0.131837
C111	C	1.398168	-0.311437	-0.472483
C112	C	1.898168	0.188563	0.027517
C113	C	1.490595	-0.314534	-0.477173
C114	C	1.990595	0.185466	0.022827
C115	C	1.170326	-0.310686	-0.678368
C116	C	1.670326	0.189314	-0.178368
C117	C	1.165659	-0.313462	-0.770795
C118	C	1.665659	0.186538	-0.270795
C119	C	1.181436	-0.167804	-0.461539
C120	C	1.681436	0.332196	0.038461
C121	C	1.181504	-0.109693	-0.461567
C122	C	1.681504	0.390307	0.038433
C123	C	1.157110	-0.318520	-0.940019
C124	C	1.657110	0.181480	-0.440019
C125	C	1.205605	-0.289668	-0.983790
C126	C	1.705605	0.210332	-0.483790
C127	C	1.200848	-0.292482	-1.077952
C128	C	1.700848	0.207518	-0.577952
C129	C	1.161866	-0.315706	-0.845849
C130	C	1.661866	0.184294	-0.345849
C131	C	1.192231	-0.297643	-0.245427
C132	C	1.692231	0.202357	0.254573
C133	C	1.197058	-0.294724	-0.153009
C134	C	1.697058	0.205276	0.346991
H135	H	0.670314	-0.258482	-0.392347
H136	H	1.170314	0.241518	0.107653
C137	C	1.096207	-0.354745	-0.984924
C138	C	1.596207	0.145255	-0.484924
H139	H	1.100969	-0.351910	-1.043238
H140	H	1.600969	0.148090	-0.543238
H141	H	1.041044	-0.344812	-0.967903
H142	H	1.541044	0.155188	-0.467903
H143	H	1.109050	-0.389866	-0.971351
H144	H	1.609050	0.110134	-0.471351
H145	H	1.282585	-0.503490	-0.369930
H146	H	1.782585	-0.003490	0.130070
H147	H	1.079729	-0.502898	-0.552943
H148	H	1.579729	-0.002898	-0.052943
H149	H	1.080017	-1.005264	-0.553057
H150	H	1.580017	-0.505264	-0.053057
C151	C	1.298631	-0.610390	-0.355543
C152	C	1.798631	-0.110390	0.144457
H153	H	1.331901	-0.586400	-0.325497
H154	H	1.831901	-0.086400	0.174503
H155	H	1.333249	-0.633830	-0.389214
H156	H	1.833249	-0.133830	0.110786
H157	H	1.268688	-0.629566	-0.317672
H158	H	1.768688	-0.129566	0.182328
C159	C	0.704743	-0.360345	-0.546425
C160	C	1.204743	0.139655	-0.046425
H161	H	0.763057	-0.357221	-0.541671
H162	H	1.263057	0.142779	-0.041671
H163	H	0.687771	-0.353981	-0.601628
H164	H	1.187771	0.146019	-0.101628
H165	H	0.691130	-0.394625	-0.533423
H166	H	1.191130	0.105375	-0.033423
C167	C	1.266526	-0.253449	-0.938886
C168	C	1.766526	0.246551	-0.438886
H169	H	1.261779	-0.256290	-0.880572
H170	H	1.761779	0.243710	-0.380572
H171	H	1.253704	-0.218328	-0.952458
H172	H	1.753704	0.281672	-0.452458
H173	H	1.321686	-0.263396	-0.955915
H174	H	1.821686	0.236604	-0.455915
H175	H	1.338706	-0.853884	-0.319579
H176	H	1.838706	-0.353884	0.180421
C177	C	1.354622	-0.747082	-0.305149
C178	C	1.854622	-0.247082	0.194851
H179	H	1.387932	-0.771266	-0.275128
H180	H	1.887932	-0.271266	0.224872
H181	H	1.324674	-0.723655	-0.267268
H182	H	1.824674	-0.223655	0.232732
H183	H	1.389214	-0.727922	-0.338829
H184	H	1.889214	-0.227922	0.161171
H185	H	1.282932	-1.104917	-0.370062
H186	H	1.782932	-0.604917	0.129938
C187	C	1.298854	-0.998095	-0.355628
C188	C	1.798854	-0.498095	0.144372
H189	H	1.332162	-1.022276	-0.325602
H190	H	1.832162	-0.522276	0.174398
H191	H	1.268901	-0.974666	-0.317753
H192	H	1.768901	-0.474666	0.182247
H193	H	1.333449	-0.978935	-0.389307
H194	H	1.833449	-0.478935	0.110693
H195	H	1.080062	-1.104316	-0.553064
H196	H	1.580062	-0.604316	-0.053064
C197	C	1.008078	-0.860719	-0.617901
C198	C	1.508078	-0.360719	-0.117901
H199	H	0.974784	-0.836536	-0.647936
H200	H	1.474784	-0.336536	-0.147936
H201	H	0.973482	-0.879886	-0.584242
H202	H	1.473482	-0.379886	-0.084242
H203	H	1.038047	-0.884141	-0.655781
H204	H	1.538047	-0.384141	-0.155781
H205	H	1.023996	-0.753913	-0.603463
H206	H	1.523996	-0.253913	-0.103463
C207	C	1.063819	-0.609723	-0.567385
C208	C	1.563819	-0.109723	-0.067385
H209	H	1.030514	-0.585544	-0.597419
H210	H	1.530514	-0.085544	-0.097419
H211	H	1.029233	-0.628893	-0.533722
H212	H	1.529233	-0.128893	-0.033722
H213	H	1.093792	-0.633142	-0.605266
H214	H	1.593792	-0.133142	-0.105266
