data_functionalizedCrystal
_audit_creation_method	'MofGen! by Chris Wilmer'
_symmetry_space_group_name_H-M	'P1'
_symmetry_Int_Tables_number	1
_symmetry_cell_setting	triclinic
loop_
_symmetry_equiv_pos_as_xyz
  x,y,z
_cell_length_a	18.215407
_cell_length_b	12.759394
_cell_length_c	18.215399
_cell_angle_alpha	90.025276
_cell_angle_beta	90.019833
_cell_angle_gamma	90.015285
loop_
_atom_site_label
_atom_site_type_symbol
_atom_site_fract_x
_atom_site_fract_y
_atom_site_fract_z
Zn1	Zn	1.125123	-0.418265	0.416130
Zn2	Zn	1.125053	-0.593962	0.293069
Zn3	Zn	1.002056	-0.418299	0.293077
Zn4	Zn	1.002043	-0.593904	0.416094
O5	O	1.063569	-0.506107	0.354592
O6	O	1.228098	-0.441581	0.399817
O7	O	1.108713	-0.570699	0.190086
O8	O	1.018416	-0.271273	0.309418
O9	O	1.228047	-0.570666	0.309405
O10	O	1.108833	-0.271248	0.399825
O11	O	1.018348	-0.441640	0.190092
O12	O	0.899070	-0.441583	0.309384
O13	O	1.018394	-0.570566	0.519083
O14	O	0.899061	-0.570599	0.399764
O15	O	1.108821	-0.441525	0.519109
O16	O	1.108701	-0.740975	0.309370
O17	O	1.018326	-0.740933	0.399756
C18	C	0.872363	-0.506089	0.354571
C19	C	0.790564	-0.506107	0.354580
C20	C	0.602384	-0.573391	0.401582
C21	C	0.525526	-0.573395	0.401591
C22	C	0.525506	-0.438843	0.307619
C23	C	0.602363	-0.438835	0.307614
C24	C	0.640800	-0.506115	0.354594
C25	C	0.487084	-0.506126	0.354608
C26	C	0.403751	-0.506129	0.354618
C27	C	0.724139	-0.506111	0.354586
C28	C	1.063525	-0.779075	0.354575
C29	C	1.063573	-0.895852	0.354592
C30	C	1.157751	-0.895843	0.260543
C31	C	1.204859	-0.950699	0.213528
C32	C	1.204903	-1.060421	0.213548
C33	C	1.157834	-1.115289	0.260590
C34	C	1.110726	-1.060432	0.307605
C35	C	1.110686	-0.950708	0.307579
C36	C	1.016553	-1.060441	0.401656
C37	C	1.016505	-0.950719	0.401634
C38	C	0.969484	-1.115308	0.448698
C39	C	0.922371	-1.060452	0.495711
C40	C	0.922329	-0.950724	0.495689
C41	C	0.969397	-0.895863	0.448649
C42	C	1.255522	-0.506126	0.354614
C43	C	1.337321	-0.506134	0.354623
C44	C	1.063614	-0.506035	0.546545
C45	C	1.063633	-0.506004	0.628344
C46	C	1.063633	-0.232074	0.354626
C47	C	1.063661	-0.115297	0.354641
C48	C	1.063567	-0.506104	0.163386
C49	C	1.063690	-0.505839	0.081588
C50	C	1.110735	-0.438750	0.816553
C51	C	1.110744	-0.438719	0.893412
C52	C	1.016583	-0.573096	0.893373
C53	C	1.016571	-0.573121	0.816516
C54	C	1.063651	-0.505949	0.778108
C55	C	1.063672	-0.505894	0.931824
C56	C	1.063681	-0.505861	1.015158
C57	C	1.063641	-0.505980	0.694769
H58	H	1.157711	-0.806502	0.260513
H59	H	1.149068	-0.384051	0.785283
H60	H	0.494201	-0.384067	0.269369
H61	H	1.149083	-0.383997	0.924711
O62	O	0.970754	-0.638254	0.779133
C63	C	0.923241	-0.578449	0.734662
H64	H	0.918715	-0.495696	0.757838
H65	H	0.945988	-0.574846	0.676419
C66	C	0.852283	-0.731412	0.704990
C67	C	0.846720	-0.629776	0.733459
H68	H	0.805082	-0.763075	0.704244
H69	H	0.884295	-0.771706	0.734948
H70	H	0.871242	-0.728396	0.656457
H71	H	0.827770	-0.632795	0.781994
H72	H	0.814703	-0.589484	0.703509
O73	O	0.876757	-1.113864	0.541440
C74	C	0.918663	-1.177205	0.589034
H75	H	0.974455	-1.193596	0.563129
H76	H	0.926701	-1.134850	0.643569
C77	C	0.809689	-1.261339	0.634163
C78	C	0.878211	-1.281477	0.602344
H79	H	0.784736	-1.325657	0.642377
H80	H	0.781455	-1.218662	0.602100
H81	H	0.816397	-1.226040	0.679606
H82	H	0.871502	-1.316763	0.556898
H83	H	0.906443	-1.324163	0.634399
H84	H	1.243184	-0.906017	0.175228
O85	O	0.639609	-0.638770	0.447291
C86	C	0.589217	-0.698166	0.488752
H87	H	0.534438	-0.655142	0.491352
H88	H	0.581021	-0.777914	0.461712
C89	C	0.686522	-0.766282	0.563866
C90	C	0.619243	-0.713435	0.567064
H91	H	0.705043	-0.775706	0.612172
H92	H	0.720473	-0.726270	0.535931
H93	H	0.679683	-0.832733	0.541329
H94	H	0.626084	-0.646981	0.589592
H95	H	0.585293	-0.753437	0.595005
H96	H	0.978254	-0.627787	0.924655
H97	H	0.494251	-0.628176	0.439853
H98	H	1.243266	-1.105085	0.175267
H99	H	1.157880	-1.204630	0.260608
O100	O	0.639571	-0.373446	0.261898
C101	C	0.589167	-0.314053	0.220442
H102	H	0.534372	-0.357084	0.217842
H103	H	0.581015	-0.234309	0.247487
C104	C	0.686437	-0.245915	0.145327
C105	C	0.619139	-0.298771	0.142129
H106	H	0.704926	-0.236484	0.097021
H107	H	0.720396	-0.285926	0.173258
H108	H	0.679634	-0.179467	0.167868
H109	H	0.625944	-0.365222	0.119597
H110	H	0.585181	-0.258771	0.114192
H111	H	0.969526	-1.204649	0.448714
H112	H	0.883971	-0.906065	0.533977
H113	H	0.969362	-0.806522	0.448621
