data_functionalizedCrystal
_audit_creation_method	'MofGen! by Chris Wilmer'
_symmetry_space_group_name_H-M	'P1'
_symmetry_Int_Tables_number	1
_symmetry_cell_setting	triclinic
loop_
_symmetry_equiv_pos_as_xyz
  x,y,z
_cell_length_a	25.639242
_cell_length_b	25.639239
_cell_length_c	25.639233
_cell_angle_alpha	89.981253
_cell_angle_beta	89.977834
_cell_angle_gamma	90.034213
loop_
_atom_site_label
_atom_site_type_symbol
_atom_site_fract_x
_atom_site_fract_y
_atom_site_fract_z
Zn1	Zn	0.799225	-0.208277	-0.295742
Zn2	Zn	1.299225	0.291723	0.204258
Zn3	Zn	0.799149	-0.295696	-0.208307
Zn4	Zn	1.299149	0.204304	0.291693
Zn5	Zn	0.711801	-0.208269	-0.208306
Zn6	Zn	1.211801	0.291731	0.291694
Zn7	Zn	0.711746	-0.295676	-0.295696
Zn8	Zn	1.211746	0.204324	0.204304
O9	O	0.755480	-0.251979	-0.252013
O10	O	1.255480	0.248021	0.247987
O11	O	0.872380	-0.219884	-0.284163
O12	O	1.372380	0.280116	0.215837
O13	O	0.787553	-0.284103	-0.135141
O14	O	1.287553	0.215897	0.364859
O15	O	0.723453	-0.135105	-0.219924
O16	O	1.223453	0.364895	0.280076
O17	O	0.872324	-0.284111	-0.219924
O18	O	1.372324	0.215889	0.280076
O19	O	0.787683	-0.135111	-0.284163
O20	O	1.287683	0.364889	0.215837
O21	O	0.723379	-0.219871	-0.135141
O22	O	1.223379	0.280129	0.364859
O23	O	0.638629	-0.219853	-0.219880
O24	O	1.138629	0.280147	0.280120
O25	O	0.723360	-0.284078	-0.368868
O26	O	1.223360	0.215922	0.131132
O27	O	0.638589	-0.284070	-0.284085
O28	O	1.138589	0.215930	0.215915
O29	O	0.787630	-0.219866	-0.368901
O30	O	1.287630	0.280134	0.131099
O31	O	0.787499	-0.368858	-0.219880
O32	O	1.287499	0.131142	0.280120
O33	O	0.723286	-0.368844	-0.284085
O34	O	1.223286	0.131156	0.215915
C35	C	0.619638	-0.251959	-0.251977
C36	C	1.119638	0.248041	0.248023
C37	C	0.561524	-0.251963	-0.251975
C38	C	1.061524	0.248037	0.248025
C39	C	0.201149	-0.285473	-0.285413
C40	C	0.701149	0.214527	0.214587
C41	C	0.146544	-0.285477	-0.285421
C42	C	0.646544	0.214523	0.214579
O43	O	0.118297	-0.313943	-0.313821
O44	O	0.618297	0.186057	0.186179
N45	N	0.119241	-0.251994	-0.252047
N46	N	0.619241	0.248006	0.247953
C47	C	0.146545	-0.218502	-0.218666
C48	C	0.646545	0.281498	0.281334
O49	O	0.118308	-0.190022	-0.190280
O50	O	0.618308	0.309978	0.309720
C51	C	0.201149	-0.218496	-0.218661
C52	C	0.701149	0.281504	0.281339
C53	C	0.228449	-0.251985	-0.252034
C54	C	0.728449	0.248015	0.247966
C55	C	0.228449	-0.318959	-0.318783
C56	C	0.728449	0.181041	0.181217
C57	C	0.283049	-0.318956	-0.318774
C58	C	0.783049	0.181044	0.181226
C59	C	0.310350	-0.285468	-0.285395
C60	C	0.810350	0.214532	0.214605
C61	C	0.283049	-0.251983	-0.252024
C62	C	0.783049	0.248017	0.247976
C63	C	0.228452	-0.185002	-0.185283
C64	C	0.728452	0.314998	0.314717
C65	C	0.283059	-0.185000	-0.185281
C66	C	0.783059	0.315000	0.314719
C67	C	0.310359	-0.218488	-0.218654
C68	C	0.810359	0.281512	0.281346
C69	C	0.364950	-0.218492	-0.218636
C70	C	0.864950	0.281508	0.281364
N71	N	0.392253	-0.251974	-0.252010
N72	N	0.892253	0.248026	0.247990
C73	C	0.364953	-0.285463	-0.285389
C74	C	0.864953	0.214537	0.214611
C75	C	0.031875	-0.218515	-0.218680
C76	C	0.531875	0.281485	0.281320
C77	C	-0.022728	-0.218523	-0.218683
C78	C	0.477272	0.281477	0.281317
C79	C	-0.022725	-0.285497	-0.285438
C80	C	0.477275	0.214503	0.214562
C81	C	0.031878	-0.285492	-0.285433
C82	C	0.531878	0.214508	0.214567
C83	C	0.059178	-0.251998	-0.252054
C84	C	0.559178	0.248002	0.247946
C85	C	0.479618	-0.285455	-0.285368
C86	C	0.979618	0.214545	0.214632
C87	C	0.534223	-0.285451	-0.285354
C88	C	1.034223	0.214549	0.214646
C89	C	0.534216	-0.218475	-0.218601
C90	C	1.034216	0.281525	0.281399
C91	C	0.479615	-0.218481	-0.218612
C92	C	0.979615	0.281519	0.281388
C93	C	0.452318	-0.251972	-0.252000
C94	C	0.952318	0.248028	0.248000
O95	O	0.393232	-0.190038	-0.190252
O96	O	0.893232	0.309962	0.309748
O97	O	0.393197	-0.313933	-0.313776
O98	O	0.893197	0.186067	0.186224
C99	C	0.755392	-0.387822	-0.251989
C100	C	1.255392	0.112178	0.248011
C101	C	0.755403	-0.445936	-0.251996
C102	C	1.255403	0.054064	0.248004
C103	C	0.789004	-0.806294	-0.218638
C104	C	1.289004	-0.306294	0.281362
C105	C	0.789024	-0.860898	-0.218645
C106	C	1.289024	-0.360898	0.281355
O107	O	0.817502	-0.889131	-0.190257
O108	O	1.317502	-0.389131	0.309743
N109	N	0.755572	-0.888218	-0.252048
N110	N	1.255572	-0.388218	0.247952
C111	C	0.722102	-0.860932	-0.285449
C112	C	1.222102	-0.360932	0.214551
O113	O	0.693651	-0.889184	-0.313861
O114	O	1.193651	-0.389184	0.186139
C115	C	0.722085	-0.806328	-0.285444
C116	C	1.222085	-0.306328	0.214556
C117	C	0.755535	-0.779011	-0.252036
C118	C	1.255535	-0.279011	0.247964
C119	C	0.822452	-0.778976	-0.185233
C120	C	1.322452	-0.278976	0.314767
C121	C	0.822431	-0.724376	-0.185226
C122	C	1.322431	-0.224376	0.314774
C123	C	0.788962	-0.697093	-0.218623
C124	C	1.288962	-0.197093	0.281377
C125	C	0.755514	-0.724410	-0.252028
C126	C	1.255514	-0.224410	0.247972
C127	C	0.688617	-0.779042	-0.318847
C128	C	1.188617	-0.279042	0.181153
C129	C	0.688603	-0.724435	-0.318840
C130	C	1.188603	-0.224435	0.181160
C131	C	0.722053	-0.697118	-0.285432
C132	C	1.222053	-0.197118	0.214568
C133	C	0.722024	-0.642527	-0.285418
C134	C	1.222024	-0.142527	0.214582
N135	N	0.755475	-0.615206	-0.252016
N136	N	1.255475	-0.115206	0.247984
C137	C	0.788944	-0.642490	-0.218618
C138	C	1.288944	-0.142490	0.281382
C139	C	0.722141	-0.975602	-0.285457
C140	C	1.222141	-0.475602	0.214543
C141	C	0.722155	-1.030204	-0.285459
C142	C	1.222155	-0.530204	0.214541
C143	C	0.789078	-1.030167	-0.218656
C144	C	1.289078	-0.530167	0.281344
C145	C	0.789061	-0.975564	-0.218652
C146	C	1.289061	-0.475564	0.281348
C147	C	0.755593	-0.948282	-0.252055
C148	C	1.255593	-0.448282	0.247945
C149	C	0.788897	-0.527824	-0.218605
C150	C	1.288897	-0.027824	0.281395
C151	C	0.788872	-0.473219	-0.218599
C152	C	1.288872	0.026781	0.281401
C153	C	0.721951	-0.473261	-0.285403
C154	C	1.221951	0.026739	0.214597
C155	C	0.721974	-0.527862	-0.285408
C156	C	1.221974	-0.027862	0.214592
C157	C	0.755452	-0.555142	-0.252007
C158	C	1.255452	-0.055142	0.247993
O159	O	0.693562	-0.614260	-0.313793
O160	O	1.193562	-0.114260	0.186207
O161	O	0.817396	-0.614231	-0.190216
O162	O	1.317396	-0.114231	0.309784
C163	C	0.891853	-0.252000	-0.252049
C164	C	1.391853	0.248000	0.247951
C165	C	0.949967	-0.252009	-0.252064
C166	C	1.449967	0.247991	0.247936
C167	C	0.755497	-0.251970	-0.388386
C168	C	1.255497	0.248030	0.111614
C169	C	0.755504	-0.251966	-0.446500
C170	C	1.255504	0.248034	0.053500
C171	C	0.755583	-0.115606	-0.252048
C172	C	1.255583	0.384394	0.247952
C173	C	0.755627	-0.057492	-0.252064
C174	C	1.255627	0.442508	0.247936
C175	C	0.789012	-0.218432	-0.806886
C176	C	1.289012	0.281568	-0.306886
C177	C	0.789019	-0.218417	-0.861491
C178	C	1.289019	0.281583	-0.361491
O179	O	0.817466	-0.189967	-0.889747
O180	O	1.317466	0.310033	-0.389747
N181	N	0.755562	-0.251844	-0.888783
N182	N	1.255562	0.248156	-0.388783
C183	C	0.722093	-0.285283	-0.861468
C184	C	1.222093	0.214717	-0.361468
O185	O	0.693636	-0.313713	-0.889695
O186	O	1.193636	0.186287	-0.389695
C187	C	0.722084	-0.285294	-0.806864
C188	C	1.222084	0.214706	-0.306864
C189	C	0.755547	-0.251870	-0.779575
C190	C	1.255547	0.248130	-0.279575
C191	C	0.822472	-0.185009	-0.779597
C192	C	1.322472	0.314991	-0.279597
C193	C	0.822466	-0.185025	-0.724997
C194	C	1.322466	0.314975	-0.224997
C195	C	0.789000	-0.218462	-0.697685
C196	C	1.289000	0.281538	-0.197685
C197	C	0.755541	-0.251885	-0.724974
C198	C	1.255541	0.248115	-0.224974
C199	C	0.688613	-0.318731	-0.779550
C200	C	1.188613	0.181269	-0.279550
C201	C	0.688607	-0.318739	-0.724943
C202	C	1.188607	0.181261	-0.224943
C203	C	0.722069	-0.285314	-0.697654
C204	C	1.222069	0.214686	-0.197654
C205	C	0.722070	-0.285338	-0.643063
C206	C	1.222070	0.214662	-0.143063
N207	N	0.755526	-0.251912	-0.615771
N208	N	1.255526	0.248088	-0.115771
C209	C	0.788992	-0.218474	-0.643082
C210	C	1.288992	0.281526	-0.143082
C211	C	0.722113	-0.285256	-0.976138
C212	C	1.222113	0.214744	-0.476138
C213	C	0.722124	-0.285247	-1.030741
C214	C	1.222124	0.214753	-0.530741
C215	C	0.789049	-0.218381	-1.030760
C216	C	1.289049	0.281619	-0.530760
C217	C	0.789041	-0.218392	-0.976157
C218	C	1.289041	0.281608	-0.476157
C219	C	0.755570	-0.251829	-0.948846
C220	C	1.255570	0.248171	-0.448846
C221	C	0.788977	-0.218509	-0.528417
C222	C	1.288977	0.281491	-0.028417
C223	C	0.788970	-0.218529	-0.473811
C224	C	1.288970	0.281471	0.026189
C225	C	0.722043	-0.285393	-0.473797
C226	C	1.222043	0.214607	0.026203
C227	C	0.722052	-0.285375	-0.528397
C228	C	1.222052	0.214625	-0.028397
C229	C	0.755521	-0.251929	-0.555706
C230	C	1.255521	0.248071	-0.055706
O231	O	0.693635	-0.313773	-0.614771
O232	O	1.193635	0.186227	-0.114771
O233	O	0.817439	-0.190044	-0.614847
O234	O	1.317439	0.309956	-0.114847
C235	C	0.755494	-0.251951	-0.116170
C236	C	1.255494	0.248049	0.383830
C237	C	0.755588	-0.251807	-0.058057
C238	C	1.255588	0.248193	0.441943
H239	H	0.054103	-0.312760	-0.312609
H240	H	0.554103	0.187240	0.187391
H241	H	-0.044963	-0.312763	-0.312619
H242	H	0.455037	0.187237	0.187381
H243	H	0.054099	-0.191241	-0.191496
H244	H	0.554099	0.308759	0.308504
H245	H	0.661345	-0.345963	-0.702710
H246	H	1.161345	0.154037	-0.202710
Br247	Br	0.320105	-0.139540	-0.139981
Br248	Br	0.820105	0.360460	0.360019
Br249	Br	0.676533	-0.436224	-0.330728
Br250	Br	1.176533	0.063776	0.169272
H251	H	0.556449	-0.312723	-0.312530
H252	H	1.056449	0.187277	0.187470
Br253	Br	0.867881	-0.815993	-0.139903
Br254	Br	1.367881	-0.315993	0.360097
H255	H	0.849670	-0.702137	-0.158024
H256	H	1.349670	-0.202137	0.341976
H257	H	0.849723	-0.157777	-0.801828
H258	H	1.349723	0.342223	-0.301828
Br259	Br	0.676642	-0.330742	-0.565434
Br260	Br	1.176642	0.169258	-0.065434
H261	H	0.694798	-0.312619	-0.451550
H262	H	1.194798	0.187381	0.048450
H263	H	0.816159	-0.550030	-0.191408
H264	H	1.316159	-0.050030	0.308592
H265	H	0.457399	-0.312726	-0.312556
H266	H	0.957399	0.187274	0.187444
Br267	Br	0.676719	-0.330621	-1.067769
Br268	Br	1.176719	0.169379	-0.567769
H269	H	0.305272	-0.346225	-0.345950
H270	H	0.805272	0.153775	0.154050
Br271	Br	0.834459	-0.938496	-0.173310
Br272	Br	1.334459	-0.438496	0.326690
H273	H	0.816333	-1.052391	-0.191464
H274	H	1.316333	-0.552391	0.308536
H275	H	0.694912	-1.052442	-0.312659
H276	H	1.194912	-0.552442	0.187341
Br277	Br	0.676712	-0.938582	-0.330790
Br278	Br	1.176712	-0.438582	0.169210
Br279	Br	0.643223	-0.816102	-0.364196
Br280	Br	1.143223	-0.316102	0.135804
H281	H	0.849714	-0.157806	-0.702783
H282	H	1.349714	0.342194	-0.202783
Br283	Br	0.643181	-0.687413	-0.364177
Br284	Br	1.143181	-0.187413	0.135823
H285	H	0.206227	-0.346229	-0.345967
H286	H	0.706227	0.153771	0.154033
Br287	Br	-0.059771	-0.173081	-0.173381
Br288	Br	0.440229	0.326919	0.326619
H289	H	0.694738	-0.550105	-0.312613
H290	H	1.194738	-0.050105	0.187387
H291	H	0.816221	-0.191310	-0.451595
H292	H	1.316221	0.308690	0.048405
Br293	Br	0.834396	-0.173113	-0.565470
Br294	Br	1.334396	0.326887	-0.065470
Br295	Br	0.191416	-0.139547	-0.139992
Br296	Br	0.691416	0.360453	0.360008
H297	H	0.457387	-0.191213	-0.191436
H298	H	0.957387	0.308787	0.308564
H299	H	0.556454	-0.191211	-0.191422
H300	H	1.056454	0.308789	0.308578
H301	H	0.816111	-0.450979	-0.191392
H302	H	1.316111	0.049021	0.308608
H303	H	0.816288	-0.191174	-0.953941
H304	H	1.316288	0.308826	-0.453941
Br305	Br	0.834467	-0.173000	-1.067836
Br306	Br	1.334467	0.327000	-0.567836
Br307	Br	0.676687	-0.330642	-0.939080
Br308	Br	1.176687	0.169358	-0.439080
H309	H	0.661364	-0.345949	-0.801759
H310	H	1.161364	0.154051	-0.301759
