data_functionalizedCrystal
_audit_creation_method	'MofGen! by Chris Wilmer'
_symmetry_space_group_name_H-M	'P1'
_symmetry_Int_Tables_number	1
_symmetry_cell_setting	triclinic
loop_
_symmetry_equiv_pos_as_xyz
  x,y,z
_cell_length_a	16.120530
_cell_length_b	18.101395
_cell_length_c	16.120297
_cell_angle_alpha	87.127310
_cell_angle_beta	89.871860
_cell_angle_gamma	87.126665
loop_
_atom_site_label
_atom_site_type_symbol
_atom_site_fract_x
_atom_site_fract_y
_atom_site_fract_z
Zn1	Zn	1.247384	-0.375190	0.534565
Zn2	Zn	1.497384	-0.125190	0.784565
Zn3	Zn	1.747384	0.124810	1.034565
Zn4	Zn	1.997384	0.374810	1.284565
Zn5	Zn	1.254317	-0.493082	0.395508
Zn6	Zn	1.504317	-0.243082	0.645508
Zn7	Zn	1.754317	0.006918	0.895508
Zn8	Zn	2.004317	0.256918	1.145508
Zn9	Zn	1.115376	-0.362676	0.388483
Zn10	Zn	1.365376	-0.112676	0.638483
Zn11	Zn	1.615376	0.137324	0.888483
Zn12	Zn	1.865376	0.387324	1.138483
Zn13	Zn	1.108274	-0.492400	0.527477
Zn14	Zn	1.358274	-0.242400	0.777477
Zn15	Zn	1.608274	0.007600	1.027477
Zn16	Zn	1.858274	0.257600	1.277477
O17	O	1.181338	-0.430837	0.461508
O18	O	1.431338	-0.180837	0.711508
O19	O	1.681338	0.069163	0.961508
O20	O	1.931338	0.319163	1.211508
O21	O	1.364669	-0.396351	0.522025
O22	O	1.614669	-0.146351	0.772025
O23	O	1.864669	0.103649	1.022025
O24	O	2.114669	0.353649	1.272025
O25	O	1.241761	-0.470832	0.278211
O26	O	1.491761	-0.220832	0.528211
O27	O	1.741761	0.029168	0.778211
O28	O	1.991761	0.279168	1.028211
O29	O	1.132958	-0.260707	0.407888
O30	O	1.382958	-0.010707	0.657888
O31	O	1.632958	0.239293	0.907888
O32	O	1.882958	0.489293	1.157888
O33	O	1.369763	-0.482966	0.419860
O34	O	1.619763	-0.232966	0.669860
O35	O	1.869763	0.017034	0.919860
O36	O	2.119763	0.267034	1.169860
O37	O	1.229944	-0.269901	0.515214
O38	O	1.479944	-0.019901	0.765214
O39	O	1.729944	0.230099	1.015214
O40	O	1.979944	0.480099	1.265214
O41	O	1.139681	-0.375023	0.273050
O42	O	1.389681	-0.125023	0.523050
O43	O	1.639681	0.124977	0.773050
O44	O	1.889681	0.374977	1.023050
O45	O	0.998069	-0.374361	0.401015
O46	O	1.248069	-0.124361	0.651015
O47	O	1.498069	0.125639	0.901015
O48	O	1.748069	0.375639	1.151015
O49	O	1.120853	-0.481804	0.644783
O50	O	1.370853	-0.231804	0.894783
O51	O	1.620853	0.018196	1.144783
O52	O	1.870853	0.268196	1.394783
O53	O	0.992851	-0.469669	0.503133
O54	O	1.242851	-0.219669	0.753133
O55	O	1.492851	0.030331	1.003133
O56	O	1.742851	0.280331	1.253133
O57	O	1.223057	-0.395690	0.649990
O58	O	1.473057	-0.145690	0.899990
O59	O	1.723057	0.104310	1.149990
O60	O	1.973057	0.354310	1.399990
O61	O	1.234873	-0.596620	0.412987
O62	O	1.484873	-0.346620	0.662987
O63	O	1.734873	-0.096620	0.912987
O64	O	1.984873	0.153380	1.162987
O65	O	1.127576	-0.596119	0.509945
O66	O	1.377576	-0.346119	0.759945
O67	O	1.627576	-0.096119	1.009945
O68	O	1.877576	0.153881	1.259945
C69	C	0.965287	-0.420584	0.450543
C70	C	1.215287	-0.170584	0.700543
C71	C	1.465287	0.079416	0.950543
C72	C	1.715287	0.329416	1.200543
C73	C	0.872859	-0.416216	0.445872
C74	C	1.122859	-0.166216	0.695872
C75	C	1.372859	0.083784	0.945872
C76	C	1.622859	0.333784	1.195872
C77	C	0.703631	-0.408225	0.437350
C78	C	0.953631	-0.158225	0.687350
C79	C	1.203631	0.091775	0.937350
C80	C	1.453631	0.341775	1.187350
C81	C	0.659883	-0.453506	0.485727
C82	C	0.909883	-0.203506	0.735727
C83	C	1.159883	0.046494	0.985727
C84	C	1.409883	0.296494	1.235727
C85	C	0.565718	-0.449060	0.480986
C86	C	0.815718	-0.199060	0.730986
C87	C	1.065718	0.050940	0.980986
C88	C	1.315718	0.300940	1.230986
C89	C	0.797804	-0.412671	0.442091
C90	C	1.047804	-0.162671	0.692091
C91	C	1.297804	0.087329	0.942091
C92	C	1.547804	0.337329	1.192091
C93	C	1.181228	-0.623241	0.461478
C94	C	1.431228	-0.373241	0.711478
C95	C	1.681228	-0.123241	0.961478
C96	C	1.931228	0.126759	1.211478
C97	C	1.181256	-0.705558	0.461497
C98	C	1.431256	-0.455558	0.711497
C99	C	1.681256	-0.205558	0.961497
C100	C	1.931256	0.044442	1.211497
C101	C	1.181436	-1.004659	0.461551
C102	C	1.431436	-0.754659	0.711551
C103	C	1.681436	-0.504659	0.961551
C104	C	1.931436	-0.254659	1.211551
C105	C	1.114068	-0.973063	0.522721
C106	C	1.364068	-0.723063	0.772721
C107	C	1.614068	-0.473063	1.022721
C108	C	1.864068	-0.223063	1.272721
C109	C	1.113774	-0.887422	0.522504
C110	C	1.363774	-0.637422	0.772504
C111	C	1.613774	-0.387422	1.022504
C112	C	1.863774	-0.137422	1.272504
C113	C	1.181346	-0.856271	0.461525
C114	C	1.431346	-0.606271	0.711525
C115	C	1.681346	-0.356271	0.961525
C116	C	1.931346	-0.106271	1.211525
C117	C	1.162064	-0.882548	0.372686
C118	C	1.412064	-0.632548	0.622686
C119	C	1.662064	-0.382548	0.872686
C120	C	1.912064	-0.132548	1.122686
C121	C	1.161632	-0.968190	0.373050
C122	C	1.411632	-0.718190	0.623050
C123	C	1.661632	-0.468190	0.873050
C124	C	1.911632	-0.218190	1.123050
C125	C	1.268265	-0.978132	0.488456
C126	C	1.518265	-0.728132	0.738456
C127	C	1.768265	-0.478132	0.988456
C128	C	2.018265	-0.228132	1.238456
C129	C	1.267650	-0.892539	0.490352
C130	C	1.517650	-0.642539	0.740352
C131	C	1.767650	-0.392539	0.990352
C132	C	2.017650	-0.142539	1.240352
C133	C	1.181297	-0.772409	0.461505
C134	C	1.431297	-0.522409	0.711505
C135	C	1.681297	-0.272409	0.961505
C136	C	1.931297	-0.022409	1.211505
C137	C	1.181483	-1.088521	0.461565
C138	C	1.431483	-0.838521	0.711565
C139	C	1.681483	-0.588521	0.961565
C140	C	1.931483	-0.338521	1.211565
C141	C	1.398232	-0.441131	0.472517
C142	C	1.648232	-0.191131	0.722517
C143	C	1.898232	0.058869	0.972517
C144	C	2.148232	0.308869	1.222517
C145	C	1.490660	-0.445517	0.477208
C146	C	1.740660	-0.195517	0.727208
C147	C	1.990660	0.054483	0.977208
C148	C	2.240660	0.304483	1.227208
C149	C	1.170389	-0.440067	0.678403
C150	C	1.420389	-0.190067	0.928403
C151	C	1.670389	0.059933	1.178403
C152	C	1.920389	0.309933	1.428403
C153	C	1.165724	-0.444000	0.770830
C154	C	1.415724	-0.194000	1.020830
C155	C	1.665724	0.056000	1.270830
C156	C	1.915724	0.306000	1.520830
C157	C	1.181470	-0.237683	0.461558
C158	C	1.431470	0.012317	0.711558
C159	C	1.681470	0.262317	0.961558
C160	C	1.931470	0.512317	1.211558
C161	C	1.181526	-0.155373	0.461579
C162	C	1.431526	0.094627	0.711579
C163	C	1.681526	0.344627	0.961579
C164	C	1.931526	0.594627	1.211579
C165	C	1.192292	-0.421592	0.245460
C166	C	1.442292	-0.171592	0.495460
C167	C	1.692292	0.078408	0.745460
C168	C	1.942292	0.328408	0.995460
C169	C	1.197119	-0.417458	0.153042
C170	C	1.447119	-0.167458	0.403042
C171	C	1.697119	0.082542	0.653042
C172	C	1.947119	0.332542	0.903042
C173	C	1.157175	-0.451163	0.940055
C174	C	1.407175	-0.201163	1.190055
C175	C	1.657175	0.048837	1.440055
C176	C	1.907175	0.298837	1.690055
C177	C	1.205665	-0.410297	0.983822
C178	C	1.455665	-0.160297	1.233822
C179	C	1.705665	0.089703	1.483822
C180	C	1.955665	0.339703	1.733822
C181	C	1.200908	-0.414283	1.077985
C182	C	1.450908	-0.164283	1.327985
C183	C	1.700908	0.085717	1.577985
C184	C	1.950908	0.335717	1.827985
C185	C	1.161931	-0.447178	0.845884
C186	C	1.411931	-0.197178	1.095884
C187	C	1.661931	0.052822	1.345884
C188	C	1.911931	0.302822	1.595884
H189	H	1.125459	-0.997097	0.588658
H190	H	1.375459	-0.747097	0.838658
H191	H	1.625459	-0.497097	1.088658
H192	H	1.875459	-0.247097	1.338658
H193	H	1.318402	-0.998637	0.443958
H194	H	1.568402	-0.748637	0.693958
H195	H	1.818402	-0.498637	0.943958
H196	H	2.068402	-0.248637	1.193958
H197	H	1.250750	-0.372317	0.950575
H198	H	1.500750	-0.122317	1.200575
H199	H	1.750750	0.127683	1.450575
H200	H	2.000750	0.377683	1.700575
N201	N	1.097454	-0.501459	0.984098
N202	N	1.347454	-0.251459	1.234098
N203	N	1.597454	-0.001459	1.484098
N204	N	1.847454	0.248541	1.734098
H205	H	1.129440	-0.538871	1.021857
H206	H	1.379440	-0.288871	1.271857
H207	H	1.629440	-0.038871	1.521857
H208	H	1.879440	0.211129	1.771857
H209	H	1.065759	-0.528131	0.941728
H210	H	1.315759	-0.278131	1.191728
H211	H	1.565759	-0.028131	1.441728
H212	H	1.815759	0.221869	1.691728
N213	N	1.028409	-0.855424	0.498420
N214	N	1.278409	-0.605424	0.748420
N215	N	1.528409	-0.355424	0.998420
N216	N	1.778409	-0.105424	1.248420
H217	H	1.004732	-0.825458	0.544902
H218	H	1.254732	-0.575458	0.794902
H219	H	1.504732	-0.325458	1.044902
H220	H	1.754732	-0.075458	1.294902
H221	H	0.990888	-0.897002	0.487887
H222	H	1.240888	-0.647002	0.737887
H223	H	1.490888	-0.397002	0.987887
H224	H	1.740888	-0.147002	1.237887
N225	N	1.224096	-0.995625	0.310279
N226	N	1.474096	-0.745625	0.560279
N227	N	1.724096	-0.495625	0.810279
N228	N	1.974096	-0.245625	1.060279
H229	H	1.224296	-1.051418	0.310020
H230	H	1.474296	-0.801418	0.560020
H231	H	1.724296	-0.551418	0.810020
H232	H	1.974296	-0.301418	1.060020
H233	H	1.281185	-0.980130	0.325545
H234	H	1.531185	-0.730130	0.575545
H235	H	1.781185	-0.480130	0.825545
H236	H	2.031185	-0.230130	1.075545
H237	H	1.209784	-0.862211	0.325672
H238	H	1.459784	-0.612211	0.575672
H239	H	1.709784	-0.362211	0.825672
H240	H	1.959784	-0.112211	1.075672
H241	H	1.282271	-0.875783	0.555755
H242	H	1.532271	-0.625783	0.805755
H243	H	1.782271	-0.375783	1.055755
H244	H	2.032271	-0.125783	1.305755
N245	N	0.703938	-0.509282	0.545307
N246	N	0.953938	-0.259282	0.795307
N247	N	1.203938	-0.009282	1.045307
N248	N	1.453938	0.240718	1.295307
H249	H	0.765937	-0.504594	0.540291
H250	H	1.015937	-0.254594	0.790291
H251	H	1.265937	-0.004594	1.040291
H252	H	1.515937	0.245406	1.290291
H253	H	0.689434	-0.560896	0.531507
H254	H	0.939434	-0.310896	0.781507
H255	H	1.189434	-0.060896	1.031507
H256	H	1.439434	0.189104	1.281507
H257	H	0.670367	-0.366124	0.392376
H258	H	0.920367	-0.116124	0.642376
H259	H	1.170367	0.133876	0.892376
H260	H	1.420367	0.383876	1.142376
N261	N	1.129065	-0.864128	0.609574
N262	N	1.379065	-0.614128	0.859574
N263	N	1.629065	-0.364128	1.109574
N264	N	1.879065	-0.114128	1.359574
H265	H	1.136058	-0.909528	0.648443
H266	H	1.386058	-0.659528	0.898443
H267	H	1.636058	-0.409528	1.148443
H268	H	1.886058	-0.159528	1.398443
H269	H	1.080241	-0.831878	0.628123
H270	H	1.330241	-0.581878	0.878123
H271	H	1.580241	-0.331878	1.128123
H272	H	1.830241	-0.081878	1.378123
N273	N	1.029204	-0.996747	0.498930
N274	N	1.279204	-0.746747	0.748930
N275	N	1.529204	-0.496747	0.998930
N276	N	1.779204	-0.246747	1.248930
H277	H	1.028935	-1.052600	0.501828
H278	H	1.278935	-0.802600	0.751828
H279	H	1.528935	-0.552600	1.001828
H280	H	1.778935	-0.302600	1.251828
H281	H	1.015575	-0.977242	0.440497
H282	H	1.265575	-0.727242	0.690497
H283	H	1.515575	-0.477242	0.940497
H284	H	1.765575	-0.227242	1.190497
H285	H	1.099423	-0.857320	0.350105
H286	H	1.349423	-0.607320	0.600105
H287	H	1.599423	-0.357320	0.850105
H288	H	1.849423	-0.107320	1.100105
N289	N	1.077736	-0.989633	0.343544
N290	N	1.327736	-0.739633	0.593544
N291	N	1.577736	-0.489633	0.843544
N292	N	1.827736	-0.239633	1.093544
H293	H	1.041381	-0.943473	0.330424
H294	H	1.291381	-0.693473	0.580424
H295	H	1.541381	-0.443473	0.830424
H296	H	1.791381	-0.193473	1.080424
H297	H	1.050819	-1.021074	0.388528
H298	H	1.300819	-0.771074	0.638528
H299	H	1.550819	-0.521074	0.888528
H300	H	1.800819	-0.271074	1.138528
N301	N	1.292706	-1.011590	0.573113
N302	N	1.542706	-0.761590	0.823113
N303	N	1.792706	-0.511590	1.073113
N304	N	2.042706	-0.261590	1.323113
H305	H	1.247735	-1.044288	0.594882
H306	H	1.497735	-0.794288	0.844882
H307	H	1.747735	-0.544288	1.094882
H308	H	1.997735	-0.294288	1.344882
H309	H	1.300206	-0.970713	0.612424
H310	H	1.550206	-0.720713	0.862424
H311	H	1.800206	-0.470713	1.112424
H312	H	2.050206	-0.220713	1.362424
H313	H	1.320141	-0.871648	0.449401
H314	H	1.570141	-0.621648	0.699401
H315	H	1.820141	-0.371648	0.949401
H316	H	2.070141	-0.121648	1.199401
