data_functionalizedCrystal
_audit_creation_method	'MofGen! by Chris Wilmer'
_symmetry_space_group_name_H-M	'P1'
_symmetry_Int_Tables_number	1
_symmetry_cell_setting	triclinic
loop_
_symmetry_equiv_pos_as_xyz
  x,y,z
_cell_length_a	14.519709
_cell_length_b	10.654562
_cell_length_c	9.730223
_cell_angle_alpha	89.996961
_cell_angle_beta	89.997715
_cell_angle_gamma	84.085124
loop_
_atom_site_label
_atom_site_type_symbol
_atom_site_fract_x
_atom_site_fract_y
_atom_site_fract_z
O1	O	0.129584	1.666579	-0.114384
O2	O	0.629584	2.166579	0.385616
O3	O	0.141913	1.300984	-0.114367
O4	O	0.641913	1.800984	0.385633
O5	O	0.001560	1.493474	-0.114363
O6	O	0.501560	1.993474	0.385637
O7	O	0.269936	1.474088	-0.114387
O8	O	0.769936	1.974088	0.385613
O9	O	0.001564	1.493472	0.114217
O10	O	0.501564	1.993472	0.614217
O11	O	0.141916	1.300982	0.114213
O12	O	0.641916	1.800982	0.614213
O13	O	0.129588	1.666576	0.114196
O14	O	0.629588	2.166576	0.614196
Zn15	Zn	0.135752	1.483779	0.150497
Zn16	Zn	0.635752	1.983779	0.650497
Zn17	Zn	0.135748	1.483782	-0.150667
Zn18	Zn	0.635748	1.983782	0.349333
O19	O	0.269940	1.474086	0.114193
O20	O	0.769940	1.974086	0.614193
C21	C	0.141007	1.254194	-0.000075
C22	C	0.641007	1.754194	0.499925
C23	C	0.138291	1.114777	-0.000068
C24	C	0.638291	1.614777	0.499932
C25	C	0.137026	1.049258	0.124521
C26	C	0.637026	1.549258	0.624521
C27	C	0.134482	0.918260	0.124498
C28	C	0.634482	1.418260	0.624498
C29	C	0.134471	0.918312	-0.124713
C30	C	0.634471	1.418312	0.375287
C31	C	0.137009	1.049309	-0.124688
C32	C	0.637009	1.549309	0.375312
C33	C	0.137037	1.049225	0.268400
C34	C	0.637037	1.549225	0.768400
C35	C	0.134492	0.918228	0.268378
C36	C	0.634492	1.418228	0.768378
C37	C	-0.032802	1.492570	-0.000073
C38	C	0.467198	1.992570	0.499927
C39	C	-0.135198	1.489862	-0.000072
C40	C	0.364802	1.989862	0.499928
C41	C	-0.510145	1.479895	-0.000107
C42	C	-0.010145	1.979895	0.499893
C43	C	-0.405823	1.482663	-0.000097
C44	C	0.094177	1.982663	0.499903
C45	C	-0.322675	1.484879	-0.000088
C46	C	0.177325	1.984879	0.499912
C47	C	-0.218346	1.487647	-0.000081
C48	C	0.281654	1.987647	0.499919
C49	C	0.304302	1.474990	-0.000100
C50	C	0.804302	1.974990	0.499900
C51	C	0.406698	1.477698	-0.000110
C52	C	0.906698	1.977698	0.499890
C53	C	0.130493	1.713367	-0.000099
C54	C	0.630493	2.213367	0.499901
C55	C	0.133209	1.852783	-0.000115
C56	C	0.633209	2.352783	0.499885
N57	N	0.135755	1.483786	0.356033
N58	N	0.635755	1.983786	0.856033
N59	N	0.135738	1.483784	-0.356204
N60	N	0.635738	1.983784	0.143796
C61	C	0.073628	1.569042	0.427961
C62	C	0.573628	2.069042	0.927961
C63	C	0.073617	1.569039	0.571844
C64	C	0.573617	2.069039	1.071844
C65	C	0.197868	1.398519	0.571859
C66	C	0.697868	1.898519	1.071859
C67	C	0.197874	1.398517	0.427978
C68	C	0.697874	1.898517	0.927978
C69	C	0.001896	1.667495	0.427953
C70	C	0.501896	2.167495	0.927953
C71	C	0.001885	1.667492	0.571836
C72	C	0.501885	2.167492	1.071836
H73	H	0.138025	1.102653	-0.226140
H74	H	0.638025	1.602653	0.273860
H75	H	0.204297	1.078153	0.313038
H76	H	0.704297	1.578153	0.813038
H77	H	0.133427	0.864992	-0.226174
H78	H	0.633427	1.364992	0.273826
H79	H	0.073303	1.096097	0.323659
H80	H	0.573303	1.596097	0.823659
C81	C	0.043638	0.879120	0.328721
C82	C	0.543638	1.379120	0.828721
N83	N	-0.024791	0.849662	0.374175
N84	N	0.475209	1.349662	0.874175
H85	H	0.198229	0.871328	0.323608
H86	H	0.698229	1.371328	0.823608
H87	H	0.248442	1.329094	0.630452
H88	H	0.748442	1.829094	1.130452
C89	C	-0.093864	1.639439	0.375197
C90	C	0.406136	2.139439	0.875197
N91	N	-0.165988	1.618303	0.335461
N92	N	0.334012	2.118303	0.835461
C93	C	0.266289	1.304824	0.348863
C94	C	0.766289	1.804824	0.848863
N95	N	0.317850	1.234290	0.289274
N96	N	0.817850	1.734290	0.789274
C97	C	-0.088605	1.627126	0.632127
C98	C	0.411395	2.127126	1.132127
N99	N	-0.156758	1.596714	0.677540
N100	N	0.343242	2.096714	1.177540
H101	H	0.024361	1.758462	0.383321
H102	H	0.524361	2.258462	0.883321
C103	C	0.023306	1.797634	0.624590
C104	C	0.523306	2.297634	1.124590
N105	N	0.039468	1.895642	0.664324
N106	N	0.539468	2.395642	1.164324
