data_functionalizedCrystal
_audit_creation_method	'MofGen! by Chris Wilmer'
_symmetry_space_group_name_H-M	'P1'
_symmetry_Int_Tables_number	1
_symmetry_cell_setting	triclinic
loop_
_symmetry_equiv_pos_as_xyz
  x,y,z
_cell_length_a	12.759401
_cell_length_b	12.759393
_cell_length_c	10.686285
_cell_angle_alpha	94.398003
_cell_angle_beta	94.369136
_cell_angle_gamma	89.981433
loop_
_atom_site_label
_atom_site_type_symbol
_atom_site_fract_x
_atom_site_fract_y
_atom_site_fract_z
Zn1	Zn	1.638395	-0.561963	0.502309
Zn2	Zn	1.651792	-0.372830	0.713353
Zn3	Zn	1.462701	-0.386299	0.502371
Zn4	Zn	1.476182	-0.548478	0.713252
O5	O	1.557267	-0.467393	0.607821
O6	O	1.787194	-0.536882	0.530321
O7	O	1.626674	-0.227592	0.685434
O8	O	1.474758	-0.420881	0.325786
O9	O	1.797037	-0.397926	0.685374
O10	O	1.603840	-0.549941	0.325740
O11	O	1.487749	-0.237487	0.530427
O12	O	1.317467	-0.407805	0.530328
O13	O	1.497735	-0.697292	0.685202
O14	O	1.327372	-0.526958	0.685262
O15	O	1.616912	-0.707200	0.530223
O16	O	1.639746	-0.384850	0.889917
O17	O	1.510726	-0.513898	0.889842
C18	C	1.284298	-0.467380	0.607792
C19	C	1.167523	-0.467398	0.607809
C20	C	1.107538	-0.539846	0.527226
C21	C	0.997816	-0.539851	0.527250
C22	C	1.008073	-0.394956	0.688452
C23	C	1.117793	-0.394947	0.688421
C24	C	1.157268	-0.612297	0.446614
C25	C	1.097283	-0.684752	0.366025
C26	C	0.987561	-0.684757	0.366049
C27	C	0.937823	-0.612307	0.446662
C28	C	1.557333	-0.741434	0.607694
C29	C	1.557361	-0.858214	0.607640
C30	C	1.619425	-0.918238	0.526935
C31	C	1.619447	-1.027965	0.526889
C32	C	1.495338	-1.017635	0.688265
C33	C	1.495311	-0.907910	0.688303
C34	C	1.681474	-0.868541	0.446272
C35	C	1.743544	-0.928565	0.365561
C36	C	1.743566	-1.038292	0.365515
C37	C	1.681518	-1.087996	0.446180
C38	C	1.831303	-0.467406	0.607852
C39	C	1.948080	-0.467412	0.607865
C40	C	1.578181	-0.446472	0.935664
C41	C	1.587225	-0.437558	1.075916
C42	C	1.557257	-0.194423	0.607857
C43	C	1.557410	-0.077666	0.607556
C44	C	1.536300	-0.488418	0.278698
C45	C	1.527365	-0.497377	0.138446
H46	H	0.938723	-0.743746	0.300420
C47	C	1.308861	-0.691177	0.358810
C48	C	1.277875	-0.612290	0.446581
H49	H	1.383318	-0.691166	0.358789
H50	H	1.285473	-0.757536	0.380744
H51	H	1.278818	-0.678317	0.277364
H52	H	1.307912	-0.625154	0.528028
H53	H	1.301275	-0.545916	0.424653
C54	C	0.775062	-0.691204	0.358935
C55	C	0.817214	-0.612314	0.446692
H56	H	0.700605	-0.691214	0.358965
H57	H	0.794661	-0.678337	0.277487
H58	H	0.801322	-0.757567	0.380854
H59	H	0.790959	-0.545950	0.424768
H60	H	0.797605	-0.625174	0.528158
H61	H	1.137786	-0.743732	0.300384
C62	C	1.503240	-0.648023	0.989988
C63	C	1.448849	-0.575735	1.065877
H64	H	1.454766	-0.696402	0.945188
H65	H	1.539571	-0.611687	0.931976
H66	H	1.552261	-0.685017	1.041339
H67	H	1.399833	-0.538735	1.014525
H68	H	1.412501	-0.612075	1.123896
C69	C	1.781152	-1.085724	0.151840
C70	C	1.811789	-1.104267	0.276794
H71	H	1.823279	-1.126448	0.097070
H72	H	1.709399	-1.104890	0.133360
H73	H	1.790017	-1.013259	0.140344
H74	H	1.802916	-1.176731	0.288292
H75	H	1.883558	-1.085108	0.295279
C76	C	0.844431	-0.330645	0.760086
C77	C	0.953403	-0.315332	0.777071
H78	H	0.810685	-0.281494	0.814806
H79	H	0.821023	-0.320793	0.675300
H80	H	0.827683	-0.400032	0.778656
H81	H	0.970153	-0.245947	0.758492
H82	H	0.976820	-0.325177	0.861877
C83	C	1.440289	-1.181251	0.759871
C84	C	1.427152	-1.072267	0.776941
H85	H	1.398199	-1.214974	0.814627
H86	H	1.419511	-1.204650	0.675093
H87	H	1.512066	-1.198039	0.778337
H88	H	1.355375	-1.055477	0.758466
H89	H	1.447923	-1.048859	0.861738
H90	H	1.166634	-0.335953	0.754039
H91	H	1.645387	-0.379511	1.129686
H92	H	1.681466	-0.779197	0.446302
H93	H	1.794054	-0.888090	0.299879
C94	C	1.783542	-1.243128	0.478307
C95	C	1.681540	-1.208610	0.446140
H96	H	1.783555	-1.317587	0.478294
H97	H	1.829359	-1.222128	0.418710
H98	H	1.806879	-1.213088	0.559747
H99	H	1.658206	-1.238643	0.364696
H100	H	1.635707	-1.229619	0.505739
C101	C	1.372686	-0.908709	0.847866
C102	C	1.427121	-0.841923	0.777049
H103	H	1.330598	-0.867968	0.902666
H104	H	1.328985	-0.955005	0.792881
H105	H	1.421562	-0.948438	0.896096
H106	H	1.378244	-0.802200	0.728811
H107	H	1.470825	-0.795609	0.832041
